WIC.pdb
     RDKit          3D

 29 30  0  0  1  0  0  0  0  0999 V2000
   13.5827  -16.1006    4.8392 N   0  0  0  0  0  0  0  0  0  0  0  0
   14.9168  -16.2208    5.3430 C   0  0  1  0  0  0  0  0  0  0  0  0
   15.5723  -14.8465    5.2963 C   0  0  0  0  0  0  0  0  0  0  0  0
   16.6626  -14.8456    4.2872 C   0  0  0  0  0  0  0  0  0  0  0  0
   16.8917  -15.7274    3.2515 C   0  0  0  0  0  0  0  0  0  0  0  0
   17.9985  -15.3393    2.5886 N   0  0  0  0  0  0  0  0  0  0  0  0
   18.5159  -14.2331    3.1424 C   0  0  0  0  0  0  0  0  0  0  0  0
   19.6212  -13.4690    2.8323 C   0  0  0  0  0  0  0  0  0  0  0  0
   19.8557  -12.3654    3.6459 C   0  0  0  0  0  0  0  0  0  0  0  0
   19.0492  -12.0325    4.7039 C   0  0  0  0  0  0  0  0  0  0  0  0
   17.9371  -12.8202    4.9983 C   0  0  0  0  0  0  0  0  0  0  0  0
   17.6926  -13.9146    4.2025 C   0  0  0  0  0  0  0  0  0  0  0  0
   14.9616  -16.6634    6.7593 C   0  0  0  0  0  0  0  0  0  0  0  0
   14.0254  -16.3684    7.5206 O   0  0  0  0  0  0  0  0  0  0  0  0
   15.7177  -21.4228   10.0198 C   0  0  0  0  0  0  0  0  0  0  0  0
   16.0073  -19.9523    9.9985 C   0  0  0  0  0  0  0  0  0  0  0  0
   15.9499  -19.4134    8.5886 C   0  0  2  0  0  0  0  0  0  0  0  0
   16.9621  -20.0575    7.6820 C   0  0  0  0  0  0  0  0  0  0  0  0
   16.1654  -17.9290    8.5749 C   0  0  2  0  0  0  0  0  0  0  0  0
   16.0665  -17.4142    7.2252 N   0  0  0  0  0  0  0  0  0  0  0  0
   17.4468  -17.5309    9.2010 C   0  0  0  0  0  0  0  0  0  0  0  0
   18.4995  -17.7023    8.5521 O   0  0  0  0  0  0  0  0  0  0  0  0
   17.5122  -16.9714   10.4914 N   0  0  0  0  0  0  0  0  0  0  0  0
   18.7905  -16.5660   11.0281 C   0  0  1  0  0  0  0  0  0  0  0  0
   18.5476  -15.6030   12.1666 C   0  0  0  0  0  0  0  0  0  0  0  0
   20.1775  -14.8934   12.6172 S   0  0  0  0  0  0  0  0  0  0  0  0
   19.5705  -17.7546   11.4137 C   0  0  0  0  0  0  0  0  0  0  0  0
   20.8062  -17.7583   11.2277 O   0  0  0  0  0  0  0  0  0  0  0  0
   18.9263  -18.8430   11.9719 O   0  0  0  0  0  0  0  0  0  0  0  0
  2  1  1  1
  3  4  1  0
  3  2  1  0
  4 12  1  0
  5  4  2  0
  5  6  1  0
  6  7  1  0
  7  8  1  0
  8  9  2  0
 10  9  1  0
 11 10  2  0
 12  7  2  0
 12 11  1  0
 13 20  1  0
 13  2  1  0
 14 13  2  0
 16 15  1  0
 17 16  1  0
 17 18  1  6
 19 17  1  0
 19 20  1  6
 21 19  1  0
 22 21  2  0
 23 21  1  0
 24 27  1  0
 24 23  1  0
 24 25  1  1
 26 25  1  0
 27 29  1  0
 28 27  2  0
M  END
$$$$
