WIC.pdb
     RDKit          3D

 29 30  0  0  1  0  0  0  0  0999 V2000
   26.4727  -19.9687  -17.2884 N   0  0  0  0  0  0  0  0  0  0  0  0
   25.5772  -19.4199  -16.3164 C   0  0  1  0  0  0  0  0  0  0  0  0
   24.4106  -18.7722  -17.0513 C   0  0  0  0  0  0  0  0  0  0  0  0
   24.8504  -17.4889  -17.6568 C   0  0  0  0  0  0  0  0  0  0  0  0
   25.2354  -17.2249  -18.9549 C   0  0  0  0  0  0  0  0  0  0  0  0
   25.5534  -15.9196  -19.0557 N   0  0  0  0  0  0  0  0  0  0  0  0
   25.3955  -15.3035  -17.8752 C   0  0  0  0  0  0  0  0  0  0  0  0
   25.5883  -13.9978  -17.4760 C   0  0  0  0  0  0  0  0  0  0  0  0
   25.3170  -13.7148  -16.1413 C   0  0  0  0  0  0  0  0  0  0  0  0
   24.8811  -14.6620  -15.2506 C   0  0  0  0  0  0  0  0  0  0  0  0
   24.6933  -15.9759  -15.6774 C   0  0  0  0  0  0  0  0  0  0  0  0
   24.9575  -16.2706  -16.9942 C   0  0  0  0  0  0  0  0  0  0  0  0
   24.9940  -20.4507  -15.4214 C   0  0  0  0  0  0  0  0  0  0  0  0
   24.7759  -21.5906  -15.8643 O   0  0  0  0  0  0  0  0  0  0  0  0
   27.0010  -20.9105  -10.5910 C   0  0  0  0  0  0  0  0  0  0  0  0
   26.3324  -21.0697  -11.9231 C   0  0  0  0  0  0  0  0  0  0  0  0
   24.8349  -20.9211  -11.7941 C   0  0  2  0  0  0  0  0  0  0  0  0
   24.2368  -21.9093  -10.8311 C   0  0  0  0  0  0  0  0  0  0  0  0
   24.1655  -21.0806  -13.1270 C   0  0  2  0  0  0  0  0  0  0  0  0
   24.6938  -20.1249  -14.0778 N   0  0  0  0  0  0  0  0  0  0  0  0
   22.6905  -20.9831  -13.0420 C   0  0  0  0  0  0  0  0  0  0  0  0
   22.1894  -19.8913  -12.7022 O   0  0  0  0  0  0  0  0  0  0  0  0
   21.8465  -22.0726  -13.3299 N   0  0  0  0  0  0  0  0  0  0  0  0
   20.4155  -21.8772  -13.3581 C   0  0  1  0  0  0  0  0  0  0  0  0
   19.8082  -22.9194  -14.2678 C   0  0  0  0  0  0  0  0  0  0  0  0
   20.7286  -22.8408  -15.8520 S   0  0  0  0  0  0  0  0  0  0  0  0
   19.8802  -21.9041  -11.9860 C   0  0  0  0  0  0  0  0  0  0  0  0
   20.6233  -22.2694  -11.0499 O   0  0  0  0  0  0  0  0  0  0  0  0
   18.5700  -21.5277  -11.7561 O   0  0  0  0  0  0  0  0  0  0  0  0
  2  1  1  6
  3  4  1  0
  3  2  1  0
  4 12  1  0
  5  4  2  0
  5  6  1  0
  6  7  1  0
  7  8  1  0
  8  9  2  0
 10  9  1  0
 11 10  2  0
 12  7  2  0
 12 11  1  0
 13 20  1  0
 13  2  1  0
 14 13  2  0
 16 15  1  0
 17 16  1  0
 17 18  1  1
 19 17  1  0
 19 20  1  6
 21 19  1  0
 22 21  2  0
 23 21  1  0
 24 27  1  0
 24 23  1  0
 24 25  1  6
 26 25  1  0
 27 29  1  0
 28 27  2  0
M  END
$$$$
