WIC.pdb
     RDKit          3D

 29 30  0  0  1  0  0  0  0  0999 V2000
   26.0197  -20.6456  -12.8381 N   0  0  0  0  0  0  0  0  0  0  0  0
   25.2480  -20.3499  -11.6697 C   0  0  1  0  0  0  0  0  0  0  0  0
   23.8176  -20.8155  -11.9097 C   0  0  0  0  0  0  0  0  0  0  0  0
   23.1704  -19.9434  -12.9233 C   0  0  0  0  0  0  0  0  0  0  0  0
   23.5317  -19.7160  -14.2351 C   0  0  0  0  0  0  0  0  0  0  0  0
   22.6563  -18.8500  -14.7818 N   0  0  0  0  0  0  0  0  0  0  0  0
   21.7257  -18.4915  -13.8854 C   0  0  0  0  0  0  0  0  0  0  0  0
   20.6394  -17.6456  -13.9622 C   0  0  0  0  0  0  0  0  0  0  0  0
   19.8781  -17.5133  -12.8055 C   0  0  0  0  0  0  0  0  0  0  0  0
   20.1688  -18.1750  -11.6402 C   0  0  0  0  0  0  0  0  0  0  0  0
   21.2725  -19.0252  -11.5864 C   0  0  0  0  0  0  0  0  0  0  0  0
   22.0345  -19.1660  -12.7224 C   0  0  0  0  0  0  0  0  0  0  0  0
   25.7299  -21.0671  -10.4625 C   0  0  0  0  0  0  0  0  0  0  0  0
   25.9648  -22.2851  -10.5296 O   0  0  0  0  0  0  0  0  0  0  0  0
   27.9437  -18.1987   -6.1333 C   0  0  0  0  0  0  0  0  0  0  0  0
   26.8778  -18.8745   -6.9418 C   0  0  0  0  0  0  0  0  0  0  0  0
   27.2512  -20.3091   -7.2316 C   0  0  2  0  0  0  0  0  0  0  0  0
   28.5253  -20.4263   -8.0218 C   0  0  0  0  0  0  0  0  0  0  0  0
   26.1536  -21.0060   -7.9798 C   0  0  2  0  0  0  0  0  0  0  0  0
   25.9160  -20.3579   -9.2526 N   0  0  0  0  0  0  0  0  0  0  0  0
   24.9018  -21.1082   -7.1956 C   0  0  0  0  0  0  0  0  0  0  0  0
   24.0259  -20.2348   -7.3649 O   0  0  0  0  0  0  0  0  0  0  0  0
   24.6729  -22.1491   -6.2755 N   0  0  0  0  0  0  0  0  0  0  0  0
   23.3902  -22.2504   -5.6191 C   0  0  1  0  0  0  0  0  0  0  0  0
   23.0639  -23.7134   -5.4299 C   0  0  0  0  0  0  0  0  0  0  0  0
   21.5493  -23.7893   -4.3987 S   0  0  0  0  0  0  0  0  0  0  0  0
   23.4089  -21.4803   -4.3635 C   0  0  0  0  0  0  0  0  0  0  0  0
   24.4819  -21.3724   -3.7318 O   0  0  0  0  0  0  0  0  0  0  0  0
   22.2448  -20.8926   -3.9049 O   0  0  0  0  0  0  0  0  0  0  0  0
  2  1  1  6
  3  4  1  0
  3  2  1  0
  4 12  1  0
  5  4  2  0
  5  6  1  0
  6  7  1  0
  7  8  1  0
  8  9  2  0
 10  9  1  0
 11 10  2  0
 12  7  2  0
 12 11  1  0
 13 20  1  0
 13  2  1  0
 14 13  2  0
 16 15  1  0
 17 16  1  0
 17 18  1  6
 19 17  1  0
 19 20  1  6
 21 19  1  0
 22 21  2  0
 23 21  1  0
 24 27  1  0
 24 23  1  0
 24 25  1  1
 26 25  1  0
 27 29  1  0
 28 27  2  0
M  END
$$$$
