GHM.pdb
     RDKit          3D

 23 23  0  0  1  0  0  0  0  0999 V2000
   28.8951  -25.6649  -16.4878 N   0  0  0  0  0  0  0  0  0  0  0  0
   28.2105  -26.0271  -17.6916 C   0  0  0  0  0  0  0  0  0  0  0  0
   26.9534  -26.7710  -17.4412 C   0  0  0  0  0  0  0  0  0  0  0  0
   26.7538  -27.2055  -16.2792 O   0  0  0  0  0  0  0  0  0  0  0  0
   25.9727  -27.0128  -18.4465 N   0  0  0  0  0  0  0  0  0  0  0  0
   24.7918  -27.7818  -18.0926 C   0  0  1  0  0  0  0  0  0  0  0  0
   23.5410  -26.9718  -18.3099 C   0  0  0  0  0  0  0  0  0  0  0  0
   23.3424  -25.9763  -17.2249 C   0  0  0  0  0  0  0  0  0  0  0  0
   23.9079  -24.7174  -17.2499 C   0  0  0  0  0  0  0  0  0  0  0  0
   23.5225  -24.0826  -16.1148 N   0  0  0  0  0  0  0  0  0  0  0  0
   22.7469  -24.9119  -15.4086 C   0  0  0  0  0  0  0  0  0  0  0  0
   22.6349  -26.0831  -16.0940 N   0  0  0  0  0  0  0  0  0  0  0  0
   24.7328  -29.0072  -18.9577 C   0  0  0  0  0  0  0  0  0  0  0  0
   25.2323  -29.0378  -20.1104 O   0  0  0  0  0  0  0  0  0  0  0  0
   24.1279  -34.8614  -16.3682 C   0  0  0  0  0  0  0  0  0  0  0  0
   23.2934  -35.2131  -17.9393 S   0  0  0  0  0  0  0  0  0  0  0  0
   23.5642  -33.8512  -19.0821 C   0  0  0  0  0  0  0  0  0  0  0  0
   23.6109  -32.5178  -18.3750 C   0  0  0  0  0  0  0  0  0  0  0  0
   24.0365  -31.3888  -19.2891 C   0  0  2  0  0  0  0  0  0  0  0  0
   24.0988  -30.1862  -18.4869 N   0  0  0  0  0  0  0  0  0  0  0  0
   22.9692  -31.2668  -20.3266 C   0  0  0  0  0  0  0  0  0  0  0  0
   23.0416  -31.7857  -21.4469 O   0  0  0  0  0  0  0  0  0  0  0  0
   21.8369  -30.5339  -20.0203 O   0  0  0  0  0  0  0  0  0  0  0  0
  2  1  1  0
  3  2  1  0
  4  3  2  0
  5  3  1  0
  6 13  1  0
  6  5  1  0
  6  7  1  6
  8  7  1  0
  9  8  2  0
 10 11  1  0
 10  9  1  0
 11 12  2  0
 12  8  1  0
 13 20  1  0
 14 13  2  0
 15 16  1  0
 16 17  1  0
 18 17  1  0
 19 18  1  1
 19 21  1  0
 20 19  1  0
 21 22  2  0
 21 23  1  0
M  END
$$$$
