GHM.pdb
     RDKit          3D

 23 23  0  0  1  0  0  0  0  0999 V2000
   23.7092  -11.6450  -18.0507 N   0  0  0  0  0  0  0  0  0  0  0  0
   22.2920  -11.8171  -18.1551 C   0  0  0  0  0  0  0  0  0  0  0  0
   21.5271  -10.7169  -17.5219 C   0  0  0  0  0  0  0  0  0  0  0  0
   21.1017   -9.7981  -18.2659 O   0  0  0  0  0  0  0  0  0  0  0  0
   21.2555  -10.6549  -16.1242 N   0  0  0  0  0  0  0  0  0  0  0  0
   20.4068   -9.5844  -15.6296 C   0  0  1  0  0  0  0  0  0  0  0  0
   19.5786  -10.0540  -14.4628 C   0  0  0  0  0  0  0  0  0  0  0  0
   18.3858  -10.8162  -14.9143 C   0  0  0  0  0  0  0  0  0  0  0  0
   18.0746  -11.0014  -16.2463 C   0  0  0  0  0  0  0  0  0  0  0  0
   16.9340  -11.7343  -16.2929 N   0  0  0  0  0  0  0  0  0  0  0  0
   16.5480  -11.9965  -15.0398 C   0  0  0  0  0  0  0  0  0  0  0  0
   17.4448  -11.4294  -14.1866 N   0  0  0  0  0  0  0  0  0  0  0  0
   21.2744   -8.4443  -15.1813 C   0  0  0  0  0  0  0  0  0  0  0  0
   22.2871   -8.6178  -14.4578 O   0  0  0  0  0  0  0  0  0  0  0  0
   22.6687   -0.7391  -16.4620 C   0  0  0  0  0  0  0  0  0  0  0  0
   21.5241   -2.1327  -16.6501 S   0  0  0  0  0  0  0  0  0  0  0  0
   22.1921   -3.5771  -15.8125 C   0  0  0  0  0  0  0  0  0  0  0  0
   21.3230   -4.7970  -16.0043 C   0  0  0  0  0  0  0  0  0  0  0  0
   21.8527   -6.0103  -15.2707 C   0  0  2  0  0  0  0  0  0  0  0  0
   20.9673   -7.1147  -15.5705 N   0  0  0  0  0  0  0  0  0  0  0  0
   21.7939   -5.6773  -13.8160 C   0  0  0  0  0  0  0  0  0  0  0  0
   22.7126   -5.1192  -13.2043 O   0  0  0  0  0  0  0  0  0  0  0  0
   20.6507   -6.0100  -13.1122 O   0  0  0  0  0  0  0  0  0  0  0  0
  2  1  1  0
  3  2  1  0
  4  3  2  0
  5  3  1  0
  6 13  1  0
  6  5  1  0
  6  7  1  1
  8  7  1  0
  9  8  2  0
 10 11  1  0
 10  9  1  0
 11 12  2  0
 12  8  1  0
 13 20  1  0
 14 13  2  0
 15 16  1  0
 16 17  1  0
 18 17  1  0
 19 18  1  6
 19 21  1  0
 20 19  1  0
 21 22  2  0
 21 23  1  0
M  END
$$$$
