GHM.pdb
     RDKit          3D

 23 23  0  0  1  0  0  0  0  0999 V2000
   23.3715  -12.0741  -18.4613 N   0  0  0  0  0  0  0  0  0  0  0  0
   22.9400  -11.9255  -17.1046 C   0  0  0  0  0  0  0  0  0  0  0  0
   22.1000  -10.7230  -16.8927 C   0  0  0  0  0  0  0  0  0  0  0  0
   21.5506  -10.2100  -17.8996 O   0  0  0  0  0  0  0  0  0  0  0  0
   21.8898  -10.1297  -15.6142 N   0  0  0  0  0  0  0  0  0  0  0  0
   20.9955   -8.9886  -15.5178 C   0  0  1  0  0  0  0  0  0  0  0  0
   19.8548   -9.2807  -14.5791 C   0  0  0  0  0  0  0  0  0  0  0  0
   18.8616  -10.1960  -15.1983 C   0  0  0  0  0  0  0  0  0  0  0  0
   18.6600  -11.4897  -14.7612 C   0  0  0  0  0  0  0  0  0  0  0  0
   17.6924  -12.0304  -15.5432 N   0  0  0  0  0  0  0  0  0  0  0  0
   17.3049  -11.1111  -16.4335 C   0  0  0  0  0  0  0  0  0  0  0  0
   18.0271   -9.9766  -16.2213 N   0  0  0  0  0  0  0  0  0  0  0  0
   21.7653   -7.8109  -14.9944 C   0  0  0  0  0  0  0  0  0  0  0  0
   22.4822   -7.8836  -13.9649 O   0  0  0  0  0  0  0  0  0  0  0  0
   24.2283   -0.4946  -16.7507 C   0  0  0  0  0  0  0  0  0  0  0  0
   23.3663   -1.9937  -17.2961 S   0  0  0  0  0  0  0  0  0  0  0  0
   23.2463   -3.1511  -15.9249 C   0  0  0  0  0  0  0  0  0  0  0  0
   22.5352   -4.4242  -16.3174 C   0  0  0  0  0  0  0  0  0  0  0  0
   22.4030   -5.3961  -15.1647 C   0  0  2  0  0  0  0  0  0  0  0  0
   21.7022   -6.5603  -15.6619 N   0  0  0  0  0  0  0  0  0  0  0  0
   21.5856   -4.7021  -14.1250 C   0  0  0  0  0  0  0  0  0  0  0  0
   20.3500   -4.7394  -14.0889 O   0  0  0  0  0  0  0  0  0  0  0  0
   22.2442   -3.9776  -13.1482 O   0  0  0  0  0  0  0  0  0  0  0  0
  2  1  1  0
  3  2  1  0
  4  3  2  0
  5  3  1  0
  6 13  1  0
  6  5  1  0
  6  7  1  1
  8  7  1  0
  9  8  2  0
 10 11  1  0
 10  9  1  0
 11 12  2  0
 12  8  1  0
 13 20  1  0
 14 13  2  0
 15 16  1  0
 16 17  1  0
 18 17  1  0
 19 18  1  6
 19 21  1  0
 20 19  1  0
 21 22  2  0
 21 23  1  0
M  END
$$$$
