GHM.pdb
     RDKit          3D

 23 23  0  0  1  0  0  0  0  0999 V2000
   19.1049  -13.0897  -17.1557 N   0  0  0  0  0  0  0  0  0  0  0  0
   18.3778  -11.9635  -16.6537 C   0  0  0  0  0  0  0  0  0  0  0  0
   19.2563  -10.8394  -16.2522 C   0  0  0  0  0  0  0  0  0  0  0  0
   19.1528  -10.4089  -15.0763 O   0  0  0  0  0  0  0  0  0  0  0  0
   20.2016  -10.2324  -17.1290 N   0  0  0  0  0  0  0  0  0  0  0  0
   21.0640   -9.1878  -16.6031 C   0  0  1  0  0  0  0  0  0  0  0  0
   22.4932   -9.4137  -17.0202 C   0  0  0  0  0  0  0  0  0  0  0  0
   23.0514  -10.6452  -16.4043 C   0  0  0  0  0  0  0  0  0  0  0  0
   23.7617  -10.6356  -15.2207 C   0  0  0  0  0  0  0  0  0  0  0  0
   24.1165  -11.9179  -14.9563 N   0  0  0  0  0  0  0  0  0  0  0  0
   23.6467  -12.6976  -15.9357 C   0  0  0  0  0  0  0  0  0  0  0  0
   22.9880  -11.9118  -16.8315 N   0  0  0  0  0  0  0  0  0  0  0  0
   20.6052   -7.8631  -17.1399 C   0  0  0  0  0  0  0  0  0  0  0  0
   20.3463   -7.6872  -18.3569 O   0  0  0  0  0  0  0  0  0  0  0  0
   15.9956   -1.8116  -16.5526 C   0  0  0  0  0  0  0  0  0  0  0  0
   16.5396   -3.4467  -15.9882 S   0  0  0  0  0  0  0  0  0  0  0  0
   18.2127   -3.7579  -16.5696 C   0  0  0  0  0  0  0  0  0  0  0  0
   18.6861   -5.1482  -16.2186 C   0  0  0  0  0  0  0  0  0  0  0  0
   20.0665   -5.4477  -16.7626 C   0  0  2  0  0  0  0  0  0  0  0  0
   20.4490   -6.7532  -16.2697 N   0  0  0  0  0  0  0  0  0  0  0  0
   20.9710   -4.3970  -16.2074 C   0  0  0  0  0  0  0  0  0  0  0  0
   21.6054   -4.5274  -15.1538 O   0  0  0  0  0  0  0  0  0  0  0  0
   21.1085   -3.2124  -16.9080 O   0  0  0  0  0  0  0  0  0  0  0  0
  2  1  1  0
  3  2  1  0
  4  3  2  0
  5  3  1  0
  6 13  1  0
  6  5  1  0
  6  7  1  6
  8  7  1  0
  9  8  2  0
 10 11  1  0
 10  9  1  0
 11 12  2  0
 12  8  1  0
 13 20  1  0
 14 13  2  0
 15 16  1  0
 16 17  1  0
 18 17  1  0
 19 18  1  1
 19 21  1  0
 20 19  1  0
 21 22  2  0
 21 23  1  0
M  END
$$$$
