GHM.pdb
     RDKit          3D

 23 23  0  0  1  0  0  0  0  0999 V2000
   22.9896  -16.1031  -16.9406 N   0  0  0  0  0  0  0  0  0  0  0  0
   23.3362  -16.3710  -15.5778 C   0  0  0  0  0  0  0  0  0  0  0  0
   24.3251  -17.4658  -15.4366 C   0  0  0  0  0  0  0  0  0  0  0  0
   23.8906  -18.6444  -15.4043 O   0  0  0  0  0  0  0  0  0  0  0  0
   25.7295  -17.2449  -15.3370 N   0  0  0  0  0  0  0  0  0  0  0  0
   26.5959  -18.3866  -15.0982 C   0  0  1  0  0  0  0  0  0  0  0  0
   27.9739  -18.1375  -15.6523 C   0  0  0  0  0  0  0  0  0  0  0  0
   28.0012  -18.2883  -17.1302 C   0  0  0  0  0  0  0  0  0  0  0  0
   26.9191  -18.7413  -17.8577 C   0  0  0  0  0  0  0  0  0  0  0  0
   27.2907  -18.7544  -19.1622 N   0  0  0  0  0  0  0  0  0  0  0  0
   28.5548  -18.3266  -19.2464 C   0  0  0  0  0  0  0  0  0  0  0  0
   28.9951  -18.0381  -17.9908 N   0  0  0  0  0  0  0  0  0  0  0  0
   26.7019  -18.6150  -13.6183 C   0  0  0  0  0  0  0  0  0  0  0  0
   27.1236  -17.7296  -12.8327 O   0  0  0  0  0  0  0  0  0  0  0  0
   22.2348  -20.8684  -10.2807 C   0  0  0  0  0  0  0  0  0  0  0  0
   23.4129  -20.6698   -8.9167 S   0  0  0  0  0  0  0  0  0  0  0  0
   25.0776  -20.5102   -9.5781 C   0  0  0  0  0  0  0  0  0  0  0  0
   25.0734  -20.1584  -11.0467 C   0  0  0  0  0  0  0  0  0  0  0  0
   26.4642  -20.1350  -11.6436 C   0  0  2  0  0  0  0  0  0  0  0  0
   26.3210  -19.8614  -13.0571 N   0  0  0  0  0  0  0  0  0  0  0  0
   27.0318  -21.5003  -11.4333 C   0  0  0  0  0  0  0  0  0  0  0  0
   27.5348  -21.8754  -10.3675 O   0  0  0  0  0  0  0  0  0  0  0  0
   26.9940  -22.3961  -12.4865 O   0  0  0  0  0  0  0  0  0  0  0  0
  2  1  1  0
  3  2  1  0
  4  3  2  0
  5  3  1  0
  6 13  1  0
  6  5  1  0
  6  7  1  1
  8  7  1  0
  9  8  2  0
 10 11  1  0
 10  9  1  0
 11 12  2  0
 12  8  1  0
 13 20  1  0
 14 13  2  0
 15 16  1  0
 16 17  1  0
 18 17  1  0
 19 18  1  1
 19 21  1  0
 20 19  1  0
 21 22  2  0
 21 23  1  0
M  END
$$$$
