GHM.pdb
     RDKit          3D

 23 23  0  0  1  0  0  0  0  0999 V2000
   28.1681  -23.3231  -17.8973 N   0  0  0  0  0  0  0  0  0  0  0  0
   26.8485  -22.9230  -18.2814 C   0  0  0  0  0  0  0  0  0  0  0  0
   26.2987  -21.8445  -17.4265 C   0  0  0  0  0  0  0  0  0  0  0  0
   27.0719  -21.3081  -16.5939 O   0  0  0  0  0  0  0  0  0  0  0  0
   24.9490  -21.3939  -17.5052 N   0  0  0  0  0  0  0  0  0  0  0  0
   24.5462  -20.2641  -16.6851 C   0  0  1  0  0  0  0  0  0  0  0  0
   23.6578  -19.3288  -17.4621 C   0  0  0  0  0  0  0  0  0  0  0  0
   24.4333  -18.5414  -18.4551 C   0  0  0  0  0  0  0  0  0  0  0  0
   24.4771  -18.8623  -19.7969 C   0  0  0  0  0  0  0  0  0  0  0  0
   25.2691  -17.9428  -20.4030 N   0  0  0  0  0  0  0  0  0  0  0  0
   25.7028  -17.0815  -19.4766 C   0  0  0  0  0  0  0  0  0  0  0  0
   25.1868  -17.4507  -18.2720 N   0  0  0  0  0  0  0  0  0  0  0  0
   23.7894  -20.7743  -15.4932 C   0  0  0  0  0  0  0  0  0  0  0  0
   22.8296  -21.5779  -15.6034 O   0  0  0  0  0  0  0  0  0  0  0  0
   24.2036  -21.3641   -7.6085 C   0  0  0  0  0  0  0  0  0  0  0  0
   24.8168  -20.5480   -9.1072 S   0  0  0  0  0  0  0  0  0  0  0  0
   23.7970  -21.0222  -10.5104 C   0  0  0  0  0  0  0  0  0  0  0  0
   24.3236  -20.4617  -11.8099 C   0  0  0  0  0  0  0  0  0  0  0  0
   23.5191  -20.9166  -13.0086 C   0  0  2  0  0  0  0  0  0  0  0  0
   24.1452  -20.3539  -14.1855 N   0  0  0  0  0  0  0  0  0  0  0  0
   22.1479  -20.3526  -12.8295 C   0  0  0  0  0  0  0  0  0  0  0  0
   21.2150  -20.9748  -12.3077 O   0  0  0  0  0  0  0  0  0  0  0  0
   21.9054  -19.0643  -13.2703 O   0  0  0  0  0  0  0  0  0  0  0  0
  2  1  1  0
  3  2  1  0
  4  3  2  0
  5  3  1  0
  6 13  1  0
  6  5  1  0
  6  7  1  6
  8  7  1  0
  9  8  2  0
 10 11  1  0
 10  9  1  0
 11 12  2  0
 12  8  1  0
 13 20  1  0
 14 13  2  0
 15 16  1  0
 16 17  1  0
 18 17  1  0
 19 18  1  1
 19 21  1  0
 20 19  1  0
 21 22  2  0
 21 23  1  0
M  END
$$$$
