GHM.pdb
     RDKit          3D

 23 23  0  0  1  0  0  0  0  0999 V2000
   27.5527  -21.8083  -15.4476 N   0  0  0  0  0  0  0  0  0  0  0  0
   27.8683  -20.5391  -14.8658 C   0  0  0  0  0  0  0  0  0  0  0  0
   27.0203  -20.2119  -13.6952 C   0  0  0  0  0  0  0  0  0  0  0  0
   27.0431  -19.0298  -13.2699 O   0  0  0  0  0  0  0  0  0  0  0  0
   26.1901  -21.1660  -13.0382 N   0  0  0  0  0  0  0  0  0  0  0  0
   25.2768  -20.6986  -12.0093 C   0  0  1  0  0  0  0  0  0  0  0  0
   23.8803  -21.2005  -12.2654 C   0  0  0  0  0  0  0  0  0  0  0  0
   23.2461  -20.4866  -13.4037 C   0  0  0  0  0  0  0  0  0  0  0  0
   22.5230  -19.3211  -13.2483 C   0  0  0  0  0  0  0  0  0  0  0  0
   22.0932  -18.9491  -14.4800 N   0  0  0  0  0  0  0  0  0  0  0  0
   22.5305  -19.8466  -15.3696 C   0  0  0  0  0  0  0  0  0  0  0  0
   23.2433  -20.7976  -14.7053 N   0  0  0  0  0  0  0  0  0  0  0  0
   25.7409  -21.2133  -10.6776 C   0  0  0  0  0  0  0  0  0  0  0  0
   26.0375  -22.4203  -10.4926 O   0  0  0  0  0  0  0  0  0  0  0  0
   28.8339  -19.2161   -3.7232 C   0  0  0  0  0  0  0  0  0  0  0  0
   28.2003  -18.6588   -5.3282 S   0  0  0  0  0  0  0  0  0  0  0  0
   27.3411  -20.0145   -6.1393 C   0  0  0  0  0  0  0  0  0  0  0  0
   26.8913  -19.6481   -7.5335 C   0  0  0  0  0  0  0  0  0  0  0  0
   26.2410  -20.8067   -8.2587 C   0  0  2  0  0  0  0  0  0  0  0  0
   25.8588  -20.3326   -9.5712 N   0  0  0  0  0  0  0  0  0  0  0  0
   25.0296  -21.1695   -7.4641 C   0  0  0  0  0  0  0  0  0  0  0  0
   23.8779  -20.8616   -7.7935 O   0  0  0  0  0  0  0  0  0  0  0  0
   25.2023  -21.8891   -6.2957 O   0  0  0  0  0  0  0  0  0  0  0  0
  2  1  1  0
  3  2  1  0
  4  3  2  0
  5  3  1  0
  6 13  1  0
  6  5  1  0
  6  7  1  6
  8  7  1  0
  9  8  2  0
 10 11  1  0
 10  9  1  0
 11 12  2  0
 12  8  1  0
 13 20  1  0
 14 13  2  0
 15 16  1  0
 16 17  1  0
 18 17  1  0
 19 18  1  1
 19 21  1  0
 20 19  1  0
 21 22  2  0
 21 23  1  0
M  END
$$$$
