AAG.pdb
     RDKit          3D

 15 14  0  0  1  0  0  0  0  0999 V2000
    7.3170  -17.6640   19.3200 C   0  0  0  0  0  0  0  0  0  0  0  0
    7.3557  -16.7763   18.0948 C   0  0  2  0  0  0  0  0  0  0  0  0
    7.8608  -17.4948   16.9425 N   0  0  0  0  0  0  0  0  0  0  0  0
    8.2680  -15.6340   18.4168 C   0  0  0  0  0  0  0  0  0  0  0  0
    9.4788  -15.7254   18.1745 O   0  0  0  0  0  0  0  0  0  0  0  0
    7.7854  -12.0690   19.5202 C   0  0  0  0  0  0  0  0  0  0  0  0
    8.6045  -13.3372   19.2927 C   0  0  2  0  0  0  0  0  0  0  0  0
    7.7495  -14.4601   18.9934 N   0  0  0  0  0  0  0  0  0  0  0  0
    9.4159  -13.6067   20.5107 C   0  0  0  0  0  0  0  0  0  0  0  0
   10.3206  -12.7834   20.8353 O   0  0  0  0  0  0  0  0  0  0  0  0
    9.1597  -14.7704   21.2745 N   0  0  0  0  0  0  0  0  0  0  0  0
    9.7848  -14.9279   22.5562 C   0  0  0  0  0  0  0  0  0  0  0  0
   11.0114  -15.7222   22.4271 C   0  0  0  0  0  0  0  0  0  0  0  0
   11.3560  -16.1836   21.3092 O   0  0  0  0  0  0  0  0  0  0  0  0
   11.8508  -16.0104   23.4984 O   0  0  0  0  0  0  0  0  0  0  0  0
  2  4  1  0
  2  1  1  1
  3  2  1  0
  4  8  1  0
  5  4  2  0
  7  6  1  1
  7  9  1  0
  8  7  1  0
  9 11  1  0
  9 10  2  0
 11 12  1  0
 12 13  1  0
 13 15  1  0
 14 13  2  0
M  END
$$$$
