AAG.pdb
     RDKit          3D

 15 14  0  0  1  0  0  0  0  0999 V2000
    7.3469  -11.4753   26.6134 C   0  0  0  0  0  0  0  0  0  0  0  0
    6.2660  -12.3210   25.9754 C   0  0  2  0  0  0  0  0  0  0  0  0
    5.2439  -12.6791   26.9378 N   0  0  0  0  0  0  0  0  0  0  0  0
    6.9320  -13.5595   25.4623 C   0  0  0  0  0  0  0  0  0  0  0  0
    7.1356  -14.5115   26.2273 O   0  0  0  0  0  0  0  0  0  0  0  0
    7.9965  -14.7616   22.0431 C   0  0  0  0  0  0  0  0  0  0  0  0
    7.8215  -14.8744   23.5556 C   0  0  2  0  0  0  0  0  0  0  0  0
    7.3252  -13.6402   24.1139 N   0  0  0  0  0  0  0  0  0  0  0  0
    9.1319  -15.2340   24.1625 C   0  0  0  0  0  0  0  0  0  0  0  0
    9.9863  -14.3203   24.3544 O   0  0  0  0  0  0  0  0  0  0  0  0
    9.3922  -16.5812   24.5096 N   0  0  0  0  0  0  0  0  0  0  0  0
   10.5457  -16.8982   25.3017 C   0  0  0  0  0  0  0  0  0  0  0  0
   11.2769  -18.0212   24.7045 C   0  0  0  0  0  0  0  0  0  0  0  0
   10.9135  -18.5021   23.6009 O   0  0  0  0  0  0  0  0  0  0  0  0
   12.3869  -18.6122   25.2993 O   0  0  0  0  0  0  0  0  0  0  0  0
  2  4  1  0
  2  1  1  1
  3  2  1  0
  4  8  1  0
  5  4  2  0
  7  6  1  6
  7  9  1  0
  8  7  1  0
  9 11  1  0
  9 10  2  0
 11 12  1  0
 12 13  1  0
 13 15  1  0
 14 13  2  0
M  END
$$$$
