AAG.pdb
     RDKit          3D

 15 14  0  0  1  0  0  0  0  0999 V2000
    8.9436  -19.4538   23.8008 C   0  0  0  0  0  0  0  0  0  0  0  0
    7.9054  -20.1949   22.9861 C   0  0  2  0  0  0  0  0  0  0  0  0
    8.2743  -20.2431   21.5858 N   0  0  0  0  0  0  0  0  0  0  0  0
    6.6180  -19.4475   23.1432 C   0  0  0  0  0  0  0  0  0  0  0  0
    6.1127  -19.3201   24.2664 O   0  0  0  0  0  0  0  0  0  0  0  0
    4.6816  -17.0489   21.0667 C   0  0  0  0  0  0  0  0  0  0  0  0
    4.7711  -18.1229   22.1482 C   0  0  2  0  0  0  0  0  0  0  0  0
    5.9847  -18.8917   22.0165 N   0  0  0  0  0  0  0  0  0  0  0  0
    3.5779  -19.0060   22.0444 C   0  0  0  0  0  0  0  0  0  0  0  0
    2.4288  -18.4998   22.2035 O   0  0  0  0  0  0  0  0  0  0  0  0
    3.7529  -20.3837   21.7717 N   0  0  0  0  0  0  0  0  0  0  0  0
    2.6072  -21.2021   21.4962 C   0  0  0  0  0  0  0  0  0  0  0  0
    2.2930  -22.0409   22.6580 C   0  0  0  0  0  0  0  0  0  0  0  0
    1.3790  -22.9022   22.5925 O   0  0  0  0  0  0  0  0  0  0  0  0
    2.9631  -21.9442   23.8733 O   0  0  0  0  0  0  0  0  0  0  0  0
  2  4  1  0
  2  1  1  1
  3  2  1  0
  4  8  1  0
  5  4  2  0
  7  6  1  6
  7  9  1  0
  8  7  1  0
  9 11  1  0
  9 10  2  0
 11 12  1  0
 12 13  1  0
 13 15  1  0
 14 13  2  0
M  END
$$$$
