AAG.pdb
     RDKit          3D

 15 14  0  0  1  0  0  0  0  0999 V2000
    6.2065  -17.9064   18.2989 C   0  0  0  0  0  0  0  0  0  0  0  0
    6.8461  -16.7722   17.5274 C   0  0  2  0  0  0  0  0  0  0  0  0
    7.6264  -17.2707   16.4130 N   0  0  0  0  0  0  0  0  0  0  0  0
    7.7397  -16.0475   18.4848 C   0  0  0  0  0  0  0  0  0  0  0  0
    8.8615  -16.5023   18.7454 O   0  0  0  0  0  0  0  0  0  0  0  0
    7.5628  -12.7716   20.3514 C   0  0  0  0  0  0  0  0  0  0  0  0
    8.1355  -14.1511   20.0350 C   0  0  2  0  0  0  0  0  0  0  0  0
    7.3048  -14.8524   19.0866 N   0  0  0  0  0  0  0  0  0  0  0  0
    8.2497  -14.9229   21.3022 C   0  0  0  0  0  0  0  0  0  0  0  0
    7.2033  -15.4247   21.8071 O   0  0  0  0  0  0  0  0  0  0  0  0
    9.5179  -15.0779   21.9110 N   0  0  0  0  0  0  0  0  0  0  0  0
    9.6411  -15.8753   23.0975 C   0  0  0  0  0  0  0  0  0  0  0  0
   11.0084  -15.7932   23.6230 C   0  0  0  0  0  0  0  0  0  0  0  0
   11.2263  -15.9314   24.8538 O   0  0  0  0  0  0  0  0  0  0  0  0
   12.1220  -15.5641   22.8214 O   0  0  0  0  0  0  0  0  0  0  0  0
  2  4  1  0
  2  1  1  1
  3  2  1  0
  4  8  1  0
  5  4  2  0
  7  6  1  1
  7  9  1  0
  8  7  1  0
  9 11  1  0
  9 10  2  0
 11 12  1  0
 12 13  1  0
 13 15  1  0
 14 13  2  0
M  END
$$$$
