AAG.pdb
     RDKit          3D

 15 14  0  0  1  0  0  0  0  0999 V2000
    7.4928  -15.9681   17.3906 C   0  0  0  0  0  0  0  0  0  0  0  0
    8.0674  -14.5711   17.4854 C   0  0  2  0  0  0  0  0  0  0  0  0
    9.0919  -14.3565   16.4837 N   0  0  0  0  0  0  0  0  0  0  0  0
    8.6631  -14.4402   18.8524 C   0  0  0  0  0  0  0  0  0  0  0  0
    9.8260  -14.8132   19.0560 O   0  0  0  0  0  0  0  0  0  0  0  0
    7.5794  -12.8819   22.1085 C   0  0  0  0  0  0  0  0  0  0  0  0
    8.4399  -13.7939   21.2375 C   0  0  2  0  0  0  0  0  0  0  0  0
    7.9021  -13.8945   19.9025 N   0  0  0  0  0  0  0  0  0  0  0  0
    8.5109  -15.1363   21.8759 C   0  0  0  0  0  0  0  0  0  0  0  0
    7.5698  -15.9581   21.6741 O   0  0  0  0  0  0  0  0  0  0  0  0
    9.6220  -15.4624   22.6896 N   0  0  0  0  0  0  0  0  0  0  0  0
    9.6942  -16.7570   23.3038 C   0  0  0  0  0  0  0  0  0  0  0  0
   10.8762  -16.8419   24.1687 C   0  0  0  0  0  0  0  0  0  0  0  0
   11.9217  -16.2048   23.8817 O   0  0  0  0  0  0  0  0  0  0  0  0
   10.9200  -17.6084   25.3288 O   0  0  0  0  0  0  0  0  0  0  0  0
  2  4  1  0
  2  1  1  1
  3  2  1  0
  4  8  1  0
  5  4  2  0
  7  6  1  1
  7  9  1  0
  8  7  1  0
  9 11  1  0
  9 10  2  0
 11 12  1  0
 12 13  1  0
 13 15  1  0
 14 13  2  0
M  END
$$$$
