AAG.pdb
     RDKit          3D

 15 14  0  0  1  0  0  0  0  0999 V2000
    6.6781  -14.8242   18.1026 C   0  0  0  0  0  0  0  0  0  0  0  0
    7.5793  -13.6525   18.4279 C   0  0  2  0  0  0  0  0  0  0  0  0
    8.5598  -13.4392   17.3828 N   0  0  0  0  0  0  0  0  0  0  0  0
    8.2742  -13.9846   19.7115 C   0  0  0  0  0  0  0  0  0  0  0  0
    9.3598  -14.5795   19.6883 O   0  0  0  0  0  0  0  0  0  0  0  0
    7.7646  -13.0606   23.3233 C   0  0  0  0  0  0  0  0  0  0  0  0
    8.3669  -13.8861   22.1889 C   0  0  2  0  0  0  0  0  0  0  0  0
    7.6941  -13.6208   20.9405 N   0  0  0  0  0  0  0  0  0  0  0  0
    8.2660  -15.3282   22.5420 C   0  0  0  0  0  0  0  0  0  0  0  0
    7.2013  -15.9519   22.2606 O   0  0  0  0  0  0  0  0  0  0  0  0
    9.3559  -15.9666   23.1805 N   0  0  0  0  0  0  0  0  0  0  0  0
   10.6702  -15.8577   22.6155 C   0  0  0  0  0  0  0  0  0  0  0  0
   11.6362  -16.5988   23.4341 C   0  0  0  0  0  0  0  0  0  0  0  0
   12.4028  -17.4436   22.9050 O   0  0  0  0  0  0  0  0  0  0  0  0
   11.7662  -16.4233   24.8080 O   0  0  0  0  0  0  0  0  0  0  0  0
  2  4  1  0
  2  1  1  6
  3  2  1  0
  4  8  1  0
  5  4  2  0
  7  6  1  1
  7  9  1  0
  8  7  1  0
  9 11  1  0
  9 10  2  0
 11 12  1  0
 12 13  1  0
 13 15  1  0
 14 13  2  0
M  END
$$$$
