AAG.pdb
     RDKit          3D

 15 14  0  0  1  0  0  0  0  0999 V2000
    5.9914  -19.5238   23.9700 C   0  0  0  0  0  0  0  0  0  0  0  0
    5.5540  -18.9864   22.6244 C   0  0  2  0  0  0  0  0  0  0  0  0
    5.4035  -20.0545   21.6570 N   0  0  0  0  0  0  0  0  0  0  0  0
    6.6205  -18.0399   22.1690 C   0  0  0  0  0  0  0  0  0  0  0  0
    7.6496  -18.4799   21.6394 O   0  0  0  0  0  0  0  0  0  0  0  0
    6.8622  -14.3363   21.6668 C   0  0  0  0  0  0  0  0  0  0  0  0
    7.4611  -15.7208   21.9027 C   0  0  2  0  0  0  0  0  0  0  0  0
    6.4527  -16.6539   22.3431 N   0  0  0  0  0  0  0  0  0  0  0  0
    8.5459  -15.6058   22.9149 C   0  0  0  0  0  0  0  0  0  0  0  0
    8.2346  -15.5710   24.1412 O   0  0  0  0  0  0  0  0  0  0  0  0
    9.8932  -15.5382   22.4869 N   0  0  0  0  0  0  0  0  0  0  0  0
   10.9342  -15.3382   23.4538 C   0  0  0  0  0  0  0  0  0  0  0  0
   11.9346  -16.4061   23.3490 C   0  0  0  0  0  0  0  0  0  0  0  0
   13.0200  -16.3253   23.9789 O   0  0  0  0  0  0  0  0  0  0  0  0
   11.7569  -17.5451   22.5703 O   0  0  0  0  0  0  0  0  0  0  0  0
  2  4  1  0
  2  1  1  1
  3  2  1  0
  4  8  1  0
  5  4  2  0
  7  6  1  1
  7  9  1  0
  8  7  1  0
  9 11  1  0
  9 10  2  0
 11 12  1  0
 12 13  1  0
 13 15  1  0
 14 13  2  0
M  END
$$$$
