NRN.pdb
     RDKit          3D

 28 27  0  0  1  0  0  0  0  0999 V2000
   25.6030  -17.6237  -19.7132 N   0  0  0  0  0  0  0  0  0  0  0  0
   24.4836  -18.4744  -19.8552 C   0  0  0  0  0  0  0  0  0  0  0  0
   23.8100  -18.4550  -20.9070 O   0  0  0  0  0  0  0  0  0  0  0  0
   24.1154  -19.3809  -18.7619 C   0  0  0  0  0  0  0  0  0  0  0  0
   25.0766  -19.3308  -17.6092 C   0  0  2  0  0  0  0  0  0  0  0  0
   26.3718  -19.8821  -17.9049 N   0  0  0  0  0  0  0  0  0  0  0  0
   24.4315  -20.0637  -16.4605 C   0  0  0  0  0  0  0  0  0  0  0  0
   23.9117  -21.1960  -16.6248 O   0  0  0  0  0  0  0  0  0  0  0  0
   27.7496  -20.9211   -9.0161 N   0  0  0  0  0  0  0  0  0  0  0  0
   27.7398  -21.3479  -10.3638 C   0  0  0  0  0  0  0  0  0  0  0  0
   28.8150  -21.8546  -10.8932 N   0  0  0  0  0  0  0  0  0  0  0  0
   26.5807  -21.2458  -11.1865 N   0  0  0  0  0  0  0  0  0  0  0  0
   25.3629  -20.7779  -10.5857 C   0  0  0  0  0  0  0  0  0  0  0  0
   24.2606  -20.8529  -11.6403 C   0  0  0  0  0  0  0  0  0  0  0  0
   24.7777  -20.1853  -12.8825 C   0  0  0  0  0  0  0  0  0  0  0  0
   23.8334  -20.2398  -14.0366 C   0  0  2  0  0  0  0  0  0  0  0  0
   24.3820  -19.5136  -15.1530 N   0  0  0  0  0  0  0  0  0  0  0  0
   22.4767  -19.7972  -13.7556 C   0  0  0  0  0  0  0  0  0  0  0  0
   22.1570  -18.6375  -13.3872 O   0  0  0  0  0  0  0  0  0  0  0  0
   28.8629  -22.1267  -11.8978 N   0  0  0  0  0  0  0  0  0  0  0  0
   20.3623  -22.0931  -15.6447 C   0  0  0  0  0  0  0  0  0  0  0  0
   19.4472  -20.9844  -15.8352 O   0  0  0  0  0  0  0  0  0  0  0  0
   18.8048  -20.9189  -16.9033 C   0  0  0  0  0  0  0  0  0  0  0  0
   19.3114  -19.9927  -14.7791 C   0  0  1  0  0  0  0  0  0  0  0  0
   20.0162  -20.3346  -13.4906 N   0  0  0  0  0  0  0  0  0  0  0  0
   21.4023  -20.7174  -13.8964 C   0  0  0  0  0  0  0  0  0  0  0  0
   19.3837  -21.5422  -12.9205 O   0  0  0  0  0  0  0  0  0  0  0  0
   18.1401  -21.4462  -12.3308 O   0  0  0  0  0  0  0  0  0  0  0  0
  2  3  2  0
  2  1  1  0
  4  2  1  0
  5  6  1  6
  5  4  1  0
  7  5  1  0
  8  7  2  0
 10  9  1  0
 10 12  1  0
 11 10  2  0
 12 13  1  0
 13 14  1  0
 16 15  1  1
 15 14  1  0
 16 17  1  0
 17  7  1  0
 18 16  1  0
 19 18  2  0
 20 21  1  0
 21 22  2  0
 23 21  1  0
 24 23  1  1
 24 25  1  0
 25 18  1  0
 26 27  1  0
 26 24  1  0
 28 26  2  0
M  END
$$$$
