NRN.pdb
     RDKit          3D

 28 27  0  0  1  0  0  0  0  0999 V2000
   21.1658  -21.7200   -9.7153 N   0  0  0  0  0  0  0  0  0  0  0  0
   21.0914  -20.4893  -10.4058 C   0  0  0  0  0  0  0  0  0  0  0  0
   20.1031  -19.7414  -10.2507 O   0  0  0  0  0  0  0  0  0  0  0  0
   22.1801  -20.0934  -11.3061 C   0  0  0  0  0  0  0  0  0  0  0  0
   23.2504  -21.1397  -11.4283 C   0  0  2  0  0  0  0  0  0  0  0  0
   23.7849  -21.5780  -10.1668 N   0  0  0  0  0  0  0  0  0  0  0  0
   24.3373  -20.5639  -12.3001 C   0  0  0  0  0  0  0  0  0  0  0  0
   24.0598  -19.9526  -13.3624 O   0  0  0  0  0  0  0  0  0  0  0  0
   30.9714  -21.4907   -9.6924 N   0  0  0  0  0  0  0  0  0  0  0  0
   31.2247  -22.0341  -10.9727 C   0  0  0  0  0  0  0  0  0  0  0  0
   31.8128  -23.1894  -11.0838 N   0  0  0  0  0  0  0  0  0  0  0  0
   30.8572  -21.3593  -12.1728 N   0  0  0  0  0  0  0  0  0  0  0  0
   30.4959  -19.9719  -12.0860 C   0  0  0  0  0  0  0  0  0  0  0  0
   29.2317  -19.7634  -12.9175 C   0  0  0  0  0  0  0  0  0  0  0  0
   28.0754  -20.3011  -12.1239 C   0  0  0  0  0  0  0  0  0  0  0  0
   26.7542  -20.1493  -12.8007 C   0  0  2  0  0  0  0  0  0  0  0  0
   25.7110  -20.6847  -11.9642 N   0  0  0  0  0  0  0  0  0  0  0  0
   26.6712  -20.7065  -14.1416 C   0  0  0  0  0  0  0  0  0  0  0  0
   26.5507  -21.9299  -14.4093 O   0  0  0  0  0  0  0  0  0  0  0  0
   32.0539  -23.6018  -12.0098 N   0  0  0  0  0  0  0  0  0  0  0  0
   25.8508  -20.8198  -19.3193 C   0  0  0  0  0  0  0  0  0  0  0  0
   25.0226  -19.8865  -18.5805 O   0  0  0  0  0  0  0  0  0  0  0  0
   24.0486  -19.3652  -19.1614 C   0  0  0  0  0  0  0  0  0  0  0  0
   25.3552  -19.5927  -17.1948 C   0  0  1  0  0  0  0  0  0  0  0  0
   26.5318  -20.3599  -16.6463 N   0  0  0  0  0  0  0  0  0  0  0  0
   26.7272  -19.8331  -15.2618 C   0  0  0  0  0  0  0  0  0  0  0  0
   27.7325  -19.9888  -17.4234 O   0  0  0  0  0  0  0  0  0  0  0  0
   28.4587  -20.9704  -18.0657 O   0  0  0  0  0  0  0  0  0  0  0  0
  2  3  2  0
  2  1  1  0
  4  2  1  0
  5  6  1  1
  5  4  1  0
  7  5  1  0
  8  7  2  0
 10  9  1  0
 10 12  1  0
 11 10  2  0
 12 13  1  0
 13 14  1  0
 16 15  1  1
 15 14  1  0
 16 17  1  0
 17  7  1  0
 18 16  1  0
 19 18  2  0
 20 21  1  0
 21 22  2  0
 23 21  1  0
 24 23  1  1
 24 25  1  0
 25 18  1  0
 26 27  1  0
 26 24  1  0
 28 26  2  0
M  END
$$$$
