NRN.pdb
     RDKit          3D

 28 27  0  0  1  0  0  0  0  0999 V2000
   28.4088  -26.8085  -16.3170 N   0  0  0  0  0  0  0  0  0  0  0  0
   27.7795  -25.8426  -17.1343 C   0  0  0  0  0  0  0  0  0  0  0  0
   28.2595  -25.5573  -18.2517 O   0  0  0  0  0  0  0  0  0  0  0  0
   26.5596  -25.1760  -16.6651 C   0  0  0  0  0  0  0  0  0  0  0  0
   26.6102  -23.6831  -16.8196 C   0  0  2  0  0  0  0  0  0  0  0  0
   27.8569  -23.0956  -16.4078 N   0  0  0  0  0  0  0  0  0  0  0  0
   25.4616  -23.1150  -16.0255 C   0  0  0  0  0  0  0  0  0  0  0  0
   24.2949  -23.5607  -16.1645 O   0  0  0  0  0  0  0  0  0  0  0  0
   25.2985  -21.0267   -7.9871 N   0  0  0  0  0  0  0  0  0  0  0  0
   24.2965  -20.8405   -8.9668 C   0  0  0  0  0  0  0  0  0  0  0  0
   23.0686  -20.6074   -8.6048 N   0  0  0  0  0  0  0  0  0  0  0  0
   24.5763  -20.8979  -10.3629 N   0  0  0  0  0  0  0  0  0  0  0  0
   25.8595  -21.3932  -10.7764 C   0  0  0  0  0  0  0  0  0  0  0  0
   25.9614  -21.2251  -12.2911 C   0  0  0  0  0  0  0  0  0  0  0  0
   24.7137  -21.8041  -12.8947 C   0  0  0  0  0  0  0  0  0  0  0  0
   24.5465  -21.5005  -14.3461 C   0  0  2  0  0  0  0  0  0  0  0  0
   25.6434  -22.0605  -15.0931 N   0  0  0  0  0  0  0  0  0  0  0  0
   24.3690  -20.0948  -14.6743 C   0  0  0  0  0  0  0  0  0  0  0  0
   25.2874  -19.3170  -15.0406 O   0  0  0  0  0  0  0  0  0  0  0  0
   22.3130  -20.4189   -9.2970 N   0  0  0  0  0  0  0  0  0  0  0  0
   23.8795  -17.9637  -19.0185 C   0  0  0  0  0  0  0  0  0  0  0  0
   23.5199  -17.5002  -17.6924 O   0  0  0  0  0  0  0  0  0  0  0  0
   23.0046  -16.3694  -17.5759 C   0  0  0  0  0  0  0  0  0  0  0  0
   23.7714  -18.3661  -16.5504 C   0  0  2  0  0  0  0  0  0  0  0  0
   22.5961  -18.5566  -15.6251 N   0  0  0  0  0  0  0  0  0  0  0  0
   23.0722  -19.5190  -14.5861 C   0  0  0  0  0  0  0  0  0  0  0  0
   21.5168  -19.2306  -16.3764 O   0  0  0  0  0  0  0  0  0  0  0  0
   20.8472  -18.5455  -17.3692 O   0  0  0  0  0  0  0  0  0  0  0  0
  2  3  2  0
  2  1  1  0
  4  2  1  0
  5  6  1  1
  5  4  1  0
  7  5  1  0
  8  7  2  0
 10  9  1  0
 10 12  1  0
 11 10  2  0
 12 13  1  0
 13 14  1  0
 16 15  1  1
 15 14  1  0
 16 17  1  0
 17  7  1  0
 18 16  1  0
 19 18  2  0
 20 21  1  0
 21 22  2  0
 23 21  1  0
 24 23  1  1
 24 25  1  0
 25 18  1  0
 26 27  1  0
 26 24  1  0
 28 26  2  0
M  END
$$$$
