NRN.pdb
     RDKit          3D

 28 27  0  0  1  0  0  0  0  0999 V2000
   20.7273  -22.0100  -10.2463 N   0  0  0  0  0  0  0  0  0  0  0  0
   20.7164  -21.2119  -11.4124 C   0  0  0  0  0  0  0  0  0  0  0  0
   19.6606  -21.0669  -12.0639 O   0  0  0  0  0  0  0  0  0  0  0  0
   21.9508  -20.5538  -11.8551 C   0  0  0  0  0  0  0  0  0  0  0  0
   23.1336  -20.8822  -10.9901 C   0  0  2  0  0  0  0  0  0  0  0  0
   23.0208  -20.4003   -9.6395 N   0  0  0  0  0  0  0  0  0  0  0  0
   24.3518  -20.3052  -11.6652 C   0  0  0  0  0  0  0  0  0  0  0  0
   24.3888  -19.0982  -12.0131 O   0  0  0  0  0  0  0  0  0  0  0  0
   31.9268  -21.6052   -9.0325 N   0  0  0  0  0  0  0  0  0  0  0  0
   31.8431  -22.2724  -10.2761 C   0  0  0  0  0  0  0  0  0  0  0  0
   32.7043  -23.2008  -10.5750 N   0  0  0  0  0  0  0  0  0  0  0  0
   30.8368  -21.9673  -11.2378 N   0  0  0  0  0  0  0  0  0  0  0  0
   30.2107  -20.6761  -11.1764 C   0  0  0  0  0  0  0  0  0  0  0  0
   29.2094  -20.5851  -12.3262 C   0  0  0  0  0  0  0  0  0  0  0  0
   27.8999  -21.1273  -11.8287 C   0  0  0  0  0  0  0  0  0  0  0  0
   26.7053  -20.5235  -12.4883 C   0  0  2  0  0  0  0  0  0  0  0  0
   25.5021  -21.0912  -11.9365 N   0  0  0  0  0  0  0  0  0  0  0  0
   26.6877  -20.5999  -13.9405 C   0  0  0  0  0  0  0  0  0  0  0  0
   26.3700  -21.6190  -14.6064 O   0  0  0  0  0  0  0  0  0  0  0  0
   32.6822  -23.7045  -11.4868 N   0  0  0  0  0  0  0  0  0  0  0  0
   27.0711  -18.9728  -18.9442 C   0  0  0  0  0  0  0  0  0  0  0  0
   27.3121  -17.8508  -18.0578 O   0  0  0  0  0  0  0  0  0  0  0  0
   27.6015  -16.7457  -18.5606 C   0  0  0  0  0  0  0  0  0  0  0  0
   27.2081  -18.0526  -16.6205 C   0  0  1  0  0  0  0  0  0  0  0  0
   26.9784  -19.4803  -16.1934 N   0  0  0  0  0  0  0  0  0  0  0  0
   27.0516  -19.4555  -14.7012 C   0  0  0  0  0  0  0  0  0  0  0  0
   28.1148  -20.2968  -16.6683 O   0  0  0  0  0  0  0  0  0  0  0  0
   27.9173  -21.2189  -17.6753 O   0  0  0  0  0  0  0  0  0  0  0  0
  2  3  2  0
  2  1  1  0
  4  2  1  0
  5  6  1  1
  5  4  1  0
  7  5  1  0
  8  7  2  0
 10  9  1  0
 10 12  1  0
 11 10  2  0
 12 13  1  0
 13 14  1  0
 16 15  1  1
 15 14  1  0
 16 17  1  0
 17  7  1  0
 18 16  1  0
 19 18  2  0
 20 21  1  0
 21 22  2  0
 23 21  1  0
 24 23  1  1
 24 25  1  0
 25 18  1  0
 26 27  1  0
 26 24  1  0
 28 26  2  0
M  END
$$$$
