NRN.pdb
     RDKit          3D

 28 27  0  0  1  0  0  0  0  0999 V2000
   16.3102  -23.2742  -13.3794 N   0  0  0  0  0  0  0  0  0  0  0  0
   17.3476  -23.3258  -14.3375 C   0  0  0  0  0  0  0  0  0  0  0  0
   17.1341  -23.8122  -15.4681 O   0  0  0  0  0  0  0  0  0  0  0  0
   18.6771  -22.8057  -13.9990 C   0  0  0  0  0  0  0  0  0  0  0  0
   18.7628  -22.2842  -12.5934 C   0  0  2  0  0  0  0  0  0  0  0  0
   19.7013  -21.2069  -12.4267 N   0  0  0  0  0  0  0  0  0  0  0  0
   19.1223  -23.4502  -11.7080 C   0  0  0  0  0  0  0  0  0  0  0  0
   19.9471  -24.3200  -12.0855 O   0  0  0  0  0  0  0  0  0  0  0  0
   16.2154  -24.7228   -3.7016 N   0  0  0  0  0  0  0  0  0  0  0  0
   15.9065  -25.7530   -4.6191 C   0  0  0  0  0  0  0  0  0  0  0  0
   14.8792  -26.5236   -4.4097 N   0  0  0  0  0  0  0  0  0  0  0  0
   16.6862  -25.9909   -5.7879 N   0  0  0  0  0  0  0  0  0  0  0  0
   17.9351  -25.2942   -5.9221 C   0  0  0  0  0  0  0  0  0  0  0  0
   18.5421  -25.6750   -7.2710 C   0  0  0  0  0  0  0  0  0  0  0  0
   18.3194  -24.5224   -8.2080 C   0  0  0  0  0  0  0  0  0  0  0  0
   18.8849  -24.7339   -9.5726 C   0  0  2  0  0  0  0  0  0  0  0  0
   18.5511  -23.6176  -10.4195 N   0  0  0  0  0  0  0  0  0  0  0  0
   18.5209  -25.9882  -10.2125 C   0  0  0  0  0  0  0  0  0  0  0  0
   17.4050  -26.2332  -10.7393 O   0  0  0  0  0  0  0  0  0  0  0  0
   14.5953  -27.2644   -5.0851 N   0  0  0  0  0  0  0  0  0  0  0  0
   21.6367  -30.6457  -12.6172 C   0  0  0  0  0  0  0  0  0  0  0  0
   20.4057  -29.9762  -12.2439 O   0  0  0  0  0  0  0  0  0  0  0  0
   19.3752  -30.2103  -12.9081 C   0  0  0  0  0  0  0  0  0  0  0  0
   20.4160  -29.0599  -11.1136 C   0  0  2  0  0  0  0  0  0  0  0  0
   19.1024  -28.3717  -10.8403 N   0  0  0  0  0  0  0  0  0  0  0  0
   19.4727  -27.0428  -10.2665 C   0  0  0  0  0  0  0  0  0  0  0  0
   18.3972  -29.1195   -9.7788 O   0  0  0  0  0  0  0  0  0  0  0  0
   17.3552  -29.9592  -10.1142 O   0  0  0  0  0  0  0  0  0  0  0  0
  2  3  2  0
  2  1  1  0
  4  2  1  0
  5  6  1  6
  5  4  1  0
  7  5  1  0
  8  7  2  0
 10  9  1  0
 10 12  1  0
 11 10  2  0
 12 13  1  0
 13 14  1  0
 16 15  1  1
 15 14  1  0
 16 17  1  0
 17  7  1  0
 18 16  1  0
 19 18  2  0
 20 21  1  0
 21 22  2  0
 23 21  1  0
 24 23  1  6
 24 25  1  0
 25 18  1  0
 26 27  1  0
 26 24  1  0
 28 26  2  0
M  END
$$$$
