NRN.pdb
     RDKit          3D

 28 27  0  0  1  0  0  0  0  0999 V2000
   29.5355  -24.3316  -16.9641 N   0  0  0  0  0  0  0  0  0  0  0  0
   28.4602  -25.2462  -17.0287 C   0  0  0  0  0  0  0  0  0  0  0  0
   28.6628  -26.4663  -16.8545 O   0  0  0  0  0  0  0  0  0  0  0  0
   27.1042  -24.7566  -17.3013 C   0  0  0  0  0  0  0  0  0  0  0  0
   27.0295  -23.2601  -17.4009 C   0  0  2  0  0  0  0  0  0  0  0  0
   28.2941  -22.5992  -17.2188 N   0  0  0  0  0  0  0  0  0  0  0  0
   26.0290  -22.7957  -16.3732 C   0  0  0  0  0  0  0  0  0  0  0  0
   24.8808  -23.3026  -16.3119 O   0  0  0  0  0  0  0  0  0  0  0  0
   25.7474  -21.2493   -8.0977 N   0  0  0  0  0  0  0  0  0  0  0  0
   24.5294  -20.7890   -8.6483 C   0  0  0  0  0  0  0  0  0  0  0  0
   23.4551  -20.7579   -7.9149 N   0  0  0  0  0  0  0  0  0  0  0  0
   24.4227  -20.3482   -9.9992 N   0  0  0  0  0  0  0  0  0  0  0  0
   25.4559  -20.7318  -10.9202 C   0  0  0  0  0  0  0  0  0  0  0  0
   25.1193  -20.1265  -12.2815 C   0  0  0  0  0  0  0  0  0  0  0  0
   26.0494  -20.7378  -13.2901 C   0  0  0  0  0  0  0  0  0  0  0  0
   25.3610  -21.2771  -14.4992 C   0  0  2  0  0  0  0  0  0  0  0  0
   26.3352  -21.7741  -15.4365 N   0  0  0  0  0  0  0  0  0  0  0  0
   24.4408  -20.3616  -15.1551 C   0  0  0  0  0  0  0  0  0  0  0  0
   24.7805  -19.4058  -15.8994 O   0  0  0  0  0  0  0  0  0  0  0  0
   22.5558  -20.3655   -8.2655 N   0  0  0  0  0  0  0  0  0  0  0  0
   20.7752  -19.9370  -19.1590 C   0  0  0  0  0  0  0  0  0  0  0  0
   21.3447  -19.2340  -18.0258 O   0  0  0  0  0  0  0  0  0  0  0  0
   21.0402  -18.0359  -17.8536 C   0  0  0  0  0  0  0  0  0  0  0  0
   22.2465  -19.9473  -17.1341 C   0  0  2  0  0  0  0  0  0  0  0  0
   22.0687  -19.6386  -15.6689 N   0  0  0  0  0  0  0  0  0  0  0  0
   23.0418  -20.5270  -14.9643 C   0  0  0  0  0  0  0  0  0  0  0  0
   20.7156  -20.0717  -15.2628 O   0  0  0  0  0  0  0  0  0  0  0  0
   20.5701  -21.1680  -14.4378 O   0  0  0  0  0  0  0  0  0  0  0  0
  2  3  2  0
  2  1  1  0
  4  2  1  0
  5  6  1  1
  5  4  1  0
  7  5  1  0
  8  7  2  0
 10  9  1  0
 10 12  1  0
 11 10  2  0
 12 13  1  0
 13 14  1  0
 16 15  1  1
 15 14  1  0
 16 17  1  0
 17  7  1  0
 18 16  1  0
 19 18  2  0
 20 21  1  0
 21 22  2  0
 23 21  1  0
 24 23  1  6
 24 25  1  0
 25 18  1  0
 26 27  1  0
 26 24  1  0
 28 26  2  0
M  END
$$$$
