AAA.pdb
     RDKit          3D

 16 15  0  0  1  0  0  0  0  0999 V2000
   -2.7564  -28.7067   29.0438 C   0  0  0  0  0  0  0  0  0  0  0  0
   -3.3835  -27.8515   30.1100 C   0  0  2  0  0  0  0  0  0  0  0  0
   -3.9907  -28.7325   31.0905 N   0  0  0  0  0  0  0  0  0  0  0  0
   -4.4291  -26.9438   29.5842 C   0  0  0  0  0  0  0  0  0  0  0  0
   -4.1298  -25.9394   28.8819 O   0  0  0  0  0  0  0  0  0  0  0  0
   -8.1440  -27.0601   29.3142 C   0  0  0  0  0  0  0  0  0  0  0  0
   -6.8258  -26.2926   29.2238 C   0  0  2  0  0  0  0  0  0  0  0  0
   -5.8195  -27.1406   29.8320 N   0  0  0  0  0  0  0  0  0  0  0  0
   -6.9273  -24.9775   29.9049 C   0  0  0  0  0  0  0  0  0  0  0  0
   -6.8249  -24.9340   31.1580 O   0  0  0  0  0  0  0  0  0  0  0  0
   -6.8286  -21.3376   28.9482 C   0  0  0  0  0  0  0  0  0  0  0  0
   -7.1502  -22.4602   29.8767 C   0  0  2  0  0  0  0  0  0  0  0  0
   -7.1341  -23.7555   29.2280 N   0  0  0  0  0  0  0  0  0  0  0  0
   -8.4567  -22.1825   30.5255 C   0  0  0  0  0  0  0  0  0  0  0  0
   -9.4938  -22.8653   30.3161 O   0  0  0  0  0  0  0  0  0  0  0  0
   -8.5466  -21.1288   31.3999 O   0  0  0  0  0  0  0  0  0  0  0  0
  2  1  1  6
  2  3  1  0
  4  8  1  0
  4  2  1  0
  5  4  2  0
  7  6  1  1
  7  8  1  0
  9  7  1  0
  9 13  1  0
 10  9  2  0
 12 13  1  0
 12 11  1  6
 14 12  1  0
 15 14  2  0
 16 14  1  0
M  END
$$$$
