AAA.pdb
     RDKit          3D

 16 15  0  0  1  0  0  0  0  0999 V2000
    3.7463  -18.2828   22.5100 C   0  0  0  0  0  0  0  0  0  0  0  0
    4.1405  -17.8957   21.1114 C   0  0  2  0  0  0  0  0  0  0  0  0
    4.0056  -19.0688   20.2677 N   0  0  0  0  0  0  0  0  0  0  0  0
    5.5358  -17.4081   21.0166 C   0  0  0  0  0  0  0  0  0  0  0  0
    6.5029  -18.2110   20.9089 O   0  0  0  0  0  0  0  0  0  0  0  0
    7.2155  -14.0617   20.8638 C   0  0  0  0  0  0  0  0  0  0  0  0
    7.2539  -15.5789   21.0409 C   0  0  2  0  0  0  0  0  0  0  0  0
    5.8738  -16.0230   21.0404 N   0  0  0  0  0  0  0  0  0  0  0  0
    7.9552  -15.9513   22.2952 C   0  0  0  0  0  0  0  0  0  0  0  0
    7.4335  -15.6403   23.3968 O   0  0  0  0  0  0  0  0  0  0  0  0
   10.4833  -18.3382   23.5393 C   0  0  0  0  0  0  0  0  0  0  0  0
    9.9002  -16.9650   23.5507 C   0  0  2  0  0  0  0  0  0  0  0  0
    9.1868  -16.6413   22.3321 N   0  0  0  0  0  0  0  0  0  0  0  0
   10.9836  -15.9896   23.8334 C   0  0  0  0  0  0  0  0  0  0  0  0
   11.3441  -15.0988   23.0198 O   0  0  0  0  0  0  0  0  0  0  0  0
   11.6302  -16.0561   25.0419 O   0  0  0  0  0  0  0  0  0  0  0  0
  2  1  1  1
  2  3  1  0
  4  8  1  0
  4  2  1  0
  5  4  2  0
  7  6  1  1
  7  8  1  0
  9  7  1  0
  9 13  1  0
 10  9  2  0
 12 13  1  0
 12 11  1  6
 14 12  1  0
 15 14  2  0
 16 14  1  0
M  END
$$$$
