AAA.pdb
     RDKit          3D

 16 15  0  0  1  0  0  0  0  0999 V2000
    6.6691  -18.1277   20.7360 C   0  0  0  0  0  0  0  0  0  0  0  0
    7.1038  -17.4796   19.4505 C   0  0  2  0  0  0  0  0  0  0  0  0
    7.8672  -18.4547   18.6939 N   0  0  0  0  0  0  0  0  0  0  0  0
    7.9507  -16.2831   19.6623 C   0  0  0  0  0  0  0  0  0  0  0  0
    9.2015  -16.3825   19.7935 O   0  0  0  0  0  0  0  0  0  0  0  0
    7.4003  -12.5812   19.8309 C   0  0  0  0  0  0  0  0  0  0  0  0
    8.2500  -13.8266   20.0797 C   0  0  2  0  0  0  0  0  0  0  0  0
    7.4186  -14.9619   19.7308 N   0  0  0  0  0  0  0  0  0  0  0  0
    8.7061  -13.8870   21.4911 C   0  0  0  0  0  0  0  0  0  0  0  0
    9.7910  -13.3311   21.8021 O   0  0  0  0  0  0  0  0  0  0  0  0
    7.2597  -14.7226   24.8552 C   0  0  0  0  0  0  0  0  0  0  0  0
    8.4016  -14.5509   23.9105 C   0  0  2  0  0  0  0  0  0  0  0  0
    7.9914  -14.5369   22.5212 N   0  0  0  0  0  0  0  0  0  0  0  0
    9.4065  -15.6104   24.1801 C   0  0  0  0  0  0  0  0  0  0  0  0
    9.7461  -16.4760   23.3311 O   0  0  0  0  0  0  0  0  0  0  0  0
   10.0004  -15.6550   25.4163 O   0  0  0  0  0  0  0  0  0  0  0  0
  2  1  1  1
  2  3  1  0
  4  8  1  0
  4  2  1  0
  5  4  2  0
  7  6  1  1
  7  8  1  0
  9  7  1  0
  9 13  1  0
 10  9  2  0
 12 13  1  0
 12 11  1  1
 14 12  1  0
 15 14  2  0
 16 14  1  0
M  END
$$$$
