AAA.pdb
     RDKit          3D

 16 15  0  0  1  0  0  0  0  0999 V2000
    8.6418  -12.4714   20.3221 C   0  0  0  0  0  0  0  0  0  0  0  0
    8.2975  -13.9351   20.3390 C   0  0  2  0  0  0  0  0  0  0  0  0
    7.1024  -14.1228   19.5374 N   0  0  0  0  0  0  0  0  0  0  0  0
    8.0342  -14.4527   21.7015 C   0  0  0  0  0  0  0  0  0  0  0  0
    6.9486  -14.2072   22.2955 O   0  0  0  0  0  0  0  0  0  0  0  0
    8.9834  -17.3272   23.5866 C   0  0  0  0  0  0  0  0  0  0  0  0
    8.6413  -15.8424   23.7011 C   0  0  2  0  0  0  0  0  0  0  0  0
    8.9733  -15.2492   22.4206 N   0  0  0  0  0  0  0  0  0  0  0  0
    9.3884  -15.2080   24.8160 C   0  0  0  0  0  0  0  0  0  0  0  0
   10.6104  -14.9532   24.6595 O   0  0  0  0  0  0  0  0  0  0  0  0
    8.7486  -13.3021   27.9455 C   0  0  0  0  0  0  0  0  0  0  0  0
    9.5433  -14.2973   27.1684 C   0  0  2  0  0  0  0  0  0  0  0  0
    8.8084  -14.8674   26.0577 N   0  0  0  0  0  0  0  0  0  0  0  0
   10.0386  -15.3429   28.0991 C   0  0  0  0  0  0  0  0  0  0  0  0
    9.7035  -16.5543   28.0227 O   0  0  0  0  0  0  0  0  0  0  0  0
   10.9069  -14.9780   29.0970 O   0  0  0  0  0  0  0  0  0  0  0  0
  2  1  1  1
  2  3  1  0
  4  8  1  0
  4  2  1  0
  5  4  2  0
  7  6  1  6
  7  8  1  0
  9  7  1  0
  9 13  1  0
 10  9  2  0
 12 13  1  0
 12 11  1  1
 14 12  1  0
 15 14  2  0
 16 14  1  0
M  END
$$$$
