AAA.pdb
     RDKit          3D

 16 15  0  0  1  0  0  0  0  0999 V2000
   -1.6646  -27.2802   29.5502 C   0  0  0  0  0  0  0  0  0  0  0  0
   -2.8316  -26.9827   30.4508 C   0  0  2  0  0  0  0  0  0  0  0  0
   -3.4205  -28.2469   30.8522 N   0  0  0  0  0  0  0  0  0  0  0  0
   -3.8776  -26.1661   29.7931 C   0  0  0  0  0  0  0  0  0  0  0  0
   -3.6347  -24.9965   29.3871 O   0  0  0  0  0  0  0  0  0  0  0  0
   -7.2666  -26.7585   28.3882 C   0  0  0  0  0  0  0  0  0  0  0  0
   -6.2157  -25.8054   28.9556 C   0  0  2  0  0  0  0  0  0  0  0  0
   -5.2059  -26.6384   29.5785 N   0  0  0  0  0  0  0  0  0  0  0  0
   -6.8237  -24.8560   29.9214 C   0  0  0  0  0  0  0  0  0  0  0  0
   -7.0524  -25.2479   31.0947 O   0  0  0  0  0  0  0  0  0  0  0  0
   -7.5256  -21.1471   30.0958 C   0  0  0  0  0  0  0  0  0  0  0  0
   -7.6480  -22.5565   30.5694 C   0  0  2  0  0  0  0  0  0  0  0  0
   -7.1665  -23.5234   29.6039 N   0  0  0  0  0  0  0  0  0  0  0  0
   -9.0608  -22.8105   30.9495 C   0  0  0  0  0  0  0  0  0  0  0  0
   -9.8308  -23.5612   30.2944 O   0  0  0  0  0  0  0  0  0  0  0  0
   -9.5606  -22.1989   32.0716 O   0  0  0  0  0  0  0  0  0  0  0  0
  2  1  1  6
  2  3  1  0
  4  8  1  0
  4  2  1  0
  5  4  2  0
  7  6  1  1
  7  8  1  0
  9  7  1  0
  9 13  1  0
 10  9  2  0
 12 13  1  0
 12 11  1  6
 14 12  1  0
 15 14  2  0
 16 14  1  0
M  END
$$$$
