AAA.pdb
     RDKit          3D

 16 15  0  0  1  0  0  0  0  0999 V2000
    7.4044  -15.4847   17.5891 C   0  0  0  0  0  0  0  0  0  0  0  0
    7.5325  -14.0799   18.1100 C   0  0  2  0  0  0  0  0  0  0  0  0
    8.1988  -13.2853   17.0947 N   0  0  0  0  0  0  0  0  0  0  0  0
    8.3192  -13.9957   19.3622 C   0  0  0  0  0  0  0  0  0  0  0  0
    9.5754  -13.8809   19.3384 O   0  0  0  0  0  0  0  0  0  0  0  0
    7.5782  -13.7459   23.0161 C   0  0  0  0  0  0  0  0  0  0  0  0
    8.5231  -14.0777   21.8622 C   0  0  2  0  0  0  0  0  0  0  0  0
    7.7204  -14.0381   20.6556 N   0  0  0  0  0  0  0  0  0  0  0  0
    9.1606  -15.4037   22.0601 C   0  0  0  0  0  0  0  0  0  0  0  0
    8.5265  -16.4374   21.7257 O   0  0  0  0  0  0  0  0  0  0  0  0
   12.4896  -16.9429   22.6945 C   0  0  0  0  0  0  0  0  0  0  0  0
   11.0198  -16.8717   22.9407 C   0  0  2  0  0  0  0  0  0  0  0  0
   10.4504  -15.5821   22.6068 N   0  0  0  0  0  0  0  0  0  0  0  0
   10.7547  -17.2447   24.3533 C   0  0  0  0  0  0  0  0  0  0  0  0
   10.1070  -16.5183   25.1523 O   0  0  0  0  0  0  0  0  0  0  0  0
   11.2374  -18.4415   24.8197 O   0  0  0  0  0  0  0  0  0  0  0  0
  2  1  1  6
  2  3  1  0
  4  8  1  0
  4  2  1  0
  5  4  2  0
  7  6  1  1
  7  8  1  0
  9  7  1  0
  9 13  1  0
 10  9  2  0
 12 13  1  0
 12 11  1  1
 14 12  1  0
 15 14  2  0
 16 14  1  0
M  END
$$$$
