AAA.pdb
     RDKit          3D

 16 15  0  0  1  0  0  0  0  0999 V2000
    8.2854  -17.5037   17.4572 C   0  0  0  0  0  0  0  0  0  0  0  0
    8.6102  -16.1943   16.7929 C   0  0  2  0  0  0  0  0  0  0  0  0
    9.7127  -16.4189   15.8763 N   0  0  0  0  0  0  0  0  0  0  0  0
    9.0072  -15.1397   17.7542 C   0  0  0  0  0  0  0  0  0  0  0  0
   10.2023  -15.0246   18.1415 O   0  0  0  0  0  0  0  0  0  0  0  0
    7.3229  -12.2122   19.3689 C   0  0  0  0  0  0  0  0  0  0  0  0
    8.5022  -13.1739   19.2303 C   0  0  2  0  0  0  0  0  0  0  0  0
    8.0817  -14.2003   18.2969 N   0  0  0  0  0  0  0  0  0  0  0  0
    8.8820  -13.7444   20.5471 C   0  0  0  0  0  0  0  0  0  0  0  0
    9.4211  -12.9937   21.4004 O   0  0  0  0  0  0  0  0  0  0  0  0
    8.3581  -16.9439   22.4879 C   0  0  0  0  0  0  0  0  0  0  0  0
    9.0558  -15.6601   22.1862 C   0  0  2  0  0  0  0  0  0  0  0  0
    8.6744  -15.0936   20.9086 N   0  0  0  0  0  0  0  0  0  0  0  0
   10.5212  -15.8812   22.2782 C   0  0  0  0  0  0  0  0  0  0  0  0
   11.1010  -16.2575   23.3307 O   0  0  0  0  0  0  0  0  0  0  0  0
   11.2905  -15.6666   21.1623 O   0  0  0  0  0  0  0  0  0  0  0  0
  2  1  1  1
  2  3  1  0
  4  8  1  0
  4  2  1  0
  5  4  2  0
  7  6  1  1
  7  8  1  0
  9  7  1  0
  9 13  1  0
 10  9  2  0
 12 13  1  0
 12 11  1  6
 14 12  1  0
 15 14  2  0
 16 14  1  0
M  END
$$$$
