AAA.pdb
     RDKit          3D

 16 15  0  0  1  0  0  0  0  0999 V2000
    8.8188  -17.2462   16.4568 C   0  0  0  0  0  0  0  0  0  0  0  0
    8.6049  -17.1395   17.9414 C   0  0  2  0  0  0  0  0  0  0  0  0
    7.2004  -17.3873   18.2100 N   0  0  0  0  0  0  0  0  0  0  0  0
    8.9578  -15.8070   18.4834 C   0  0  0  0  0  0  0  0  0  0  0  0
   10.1570  -15.4183   18.5331 O   0  0  0  0  0  0  0  0  0  0  0  0
    7.1210  -12.7243   19.4690 C   0  0  0  0  0  0  0  0  0  0  0  0
    8.3634  -13.6108   19.5423 C   0  0  2  0  0  0  0  0  0  0  0  0
    7.9833  -14.8903   18.9767 N   0  0  0  0  0  0  0  0  0  0  0  0
    8.8413  -13.7436   20.9415 C   0  0  0  0  0  0  0  0  0  0  0  0
    9.3152  -12.7315   21.5191 O   0  0  0  0  0  0  0  0  0  0  0  0
    8.3209  -15.9123   23.8811 C   0  0  0  0  0  0  0  0  0  0  0  0
    9.2379  -15.0791   23.0501 C   0  0  2  0  0  0  0  0  0  0  0  0
    8.7977  -14.9489   21.6761 N   0  0  0  0  0  0  0  0  0  0  0  0
   10.6083  -15.6436   23.1410 C   0  0  0  0  0  0  0  0  0  0  0  0
   11.2255  -16.1277   22.1560 O   0  0  0  0  0  0  0  0  0  0  0  0
   11.2418  -15.6412   24.3583 O   0  0  0  0  0  0  0  0  0  0  0  0
  2  1  1  6
  2  3  1  0
  4  8  1  0
  4  2  1  0
  5  4  2  0
  7  6  1  1
  7  8  1  0
  9  7  1  0
  9 13  1  0
 10  9  2  0
 12 13  1  0
 12 11  1  1
 14 12  1  0
 15 14  2  0
 16 14  1  0
M  END
$$$$
