AAA.pdb
     RDKit          3D

 16 15  0  0  1  0  0  0  0  0999 V2000
    6.7374  -14.7091   19.8860 C   0  0  0  0  0  0  0  0  0  0  0  0
    7.2614  -13.4116   20.4369 C   0  0  2  0  0  0  0  0  0  0  0  0
    8.2290  -12.8831   19.4932 N   0  0  0  0  0  0  0  0  0  0  0  0
    7.9254  -13.5666   21.7518 C   0  0  0  0  0  0  0  0  0  0  0  0
    9.1523  -13.8483   21.8353 O   0  0  0  0  0  0  0  0  0  0  0  0
    6.9347  -13.1399   25.3379 C   0  0  0  0  0  0  0  0  0  0  0  0
    7.8929  -13.6447   24.2600 C   0  0  2  0  0  0  0  0  0  0  0  0
    7.2349  -13.4105   22.9896 N   0  0  0  0  0  0  0  0  0  0  0  0
    8.2131  -15.0802   24.4617 C   0  0  0  0  0  0  0  0  0  0  0  0
    7.3487  -15.9426   24.1590 O   0  0  0  0  0  0  0  0  0  0  0  0
   11.0471  -17.3226   24.4436 C   0  0  0  0  0  0  0  0  0  0  0  0
    9.7787  -16.9469   25.1334 C   0  0  2  0  0  0  0  0  0  0  0  0
    9.4418  -15.5465   24.9784 N   0  0  0  0  0  0  0  0  0  0  0  0
    9.8799  -17.3368   26.5626 C   0  0  0  0  0  0  0  0  0  0  0  0
    9.7383  -16.5248   27.5145 O   0  0  0  0  0  0  0  0  0  0  0  0
   10.1412  -18.6484   26.8701 O   0  0  0  0  0  0  0  0  0  0  0  0
  2  1  1  6
  2  3  1  0
  4  8  1  0
  4  2  1  0
  5  4  2  0
  7  6  1  1
  7  8  1  0
  9  7  1  0
  9 13  1  0
 10  9  2  0
 12 13  1  0
 12 11  1  6
 14 12  1  0
 15 14  2  0
 16 14  1  0
M  END
$$$$
