ETE.pdb
     RDKit          3D

 26 25  0  0  1  0  0  0  0  0999 V2000
    9.9377  -15.9109   13.5633 N   0  0  0  0  0  0  0  0  0  0  0  0
    9.2509  -16.3186   14.7892 C   0  0  1  0  0  0  0  0  0  0  0  0
    9.6951  -17.7271   15.1148 C   0  0  0  0  0  0  0  0  0  0  0  0
    9.2548  -18.7443   14.1113 C   0  0  0  0  0  0  0  0  0  0  0  0
    9.7099  -20.0773   14.5264 C   0  0  0  0  0  0  0  0  0  0  0  0
   10.3890  -20.2586   15.5576 O   0  0  0  0  0  0  0  0  0  0  0  0
    9.6572  -15.3500   15.8619 C   0  0  0  0  0  0  0  0  0  0  0  0
   10.7972  -14.8217   15.7821 O   0  0  0  0  0  0  0  0  0  0  0  0
    9.3696  -21.1855   13.7367 O   0  0  0  0  0  0  0  0  0  0  0  0
    8.4328  -12.5058   19.6627 C   0  0  0  0  0  0  0  0  0  0  0  0
    8.0447  -13.5544   18.6632 C   0  0  1  0  0  0  0  0  0  0  0  0
    7.2310  -12.8893   17.7047 O   0  0  0  0  0  0  0  0  0  0  0  0
    9.2722  -14.0982   17.9615 C   0  0  2  0  0  0  0  0  0  0  0  0
    8.7854  -15.0335   16.9385 N   0  0  0  0  0  0  0  0  0  0  0  0
   10.1608  -14.8069   18.9168 C   0  0  0  0  0  0  0  0  0  0  0  0
    9.8024  -15.9826   19.2062 O   0  0  0  0  0  0  0  0  0  0  0  0
   11.3266  -14.3021   19.5045 N   0  0  0  0  0  0  0  0  0  0  0  0
   12.1989  -14.9936   20.3876 C   0  0  1  0  0  0  0  0  0  0  0  0
   13.6345  -14.5474   20.4272 C   0  0  0  0  0  0  0  0  0  0  0  0
   14.4950  -15.3975   21.3107 C   0  0  0  0  0  0  0  0  0  0  0  0
   15.8986  -14.8716   21.2663 C   0  0  0  0  0  0  0  0  0  0  0  0
   16.3617  -14.1247   22.1485 O   0  0  0  0  0  0  0  0  0  0  0  0
   11.6348  -15.3440   21.6975 C   0  0  0  0  0  0  0  0  0  0  0  0
   11.8692  -16.5668   22.2872 O   0  0  0  0  0  0  0  0  0  0  0  0
   16.7143  -15.2262   20.2077 O   0  0  0  0  0  0  0  0  0  0  0  0
   10.9213  -14.5126   22.2981 O   0  0  0  0  0  0  0  0  0  0  0  0
  2  7  1  0
  2  1  1  6
  3  2  1  0
  4  3  1  0
  5  4  1  0
  6  5  2  0
  7  8  2  0
  9  5  1  0
 11 10  1  1
 11 12  1  0
 13 11  1  0
 13 14  1  6
 14  7  1  0
 15 16  2  0
 15 13  1  0
 17 15  1  0
 18 17  1  0
 19 20  1  0
 18 19  1  1
 20 21  1  0
 21 22  2  0
 21 25  1  0
 23 18  1  0
 23 24  1  0
 26 23  2  0
M  END
$$$$
