ETE.pdb
     RDKit          3D

 26 25  0  0  1  0  0  0  0  0999 V2000
   11.8014  -14.0735   16.9871 N   0  0  0  0  0  0  0  0  0  0  0  0
   12.1630  -14.9335   18.1143 C   0  0  1  0  0  0  0  0  0  0  0  0
   13.6667  -14.8795   18.2662 C   0  0  0  0  0  0  0  0  0  0  0  0
   14.3638  -16.1164   17.7975 C   0  0  0  0  0  0  0  0  0  0  0  0
   15.8079  -15.9881   18.0302 C   0  0  0  0  0  0  0  0  0  0  0  0
   16.6484  -16.1848   17.1288 O   0  0  0  0  0  0  0  0  0  0  0  0
   11.4659  -14.3844   19.3254 C   0  0  0  0  0  0  0  0  0  0  0  0
   11.7776  -13.2285   19.7151 O   0  0  0  0  0  0  0  0  0  0  0  0
   16.2589  -15.6322   19.3099 O   0  0  0  0  0  0  0  0  0  0  0  0
    8.0956  -13.4088   19.6950 C   0  0  0  0  0  0  0  0  0  0  0  0
    8.3216  -14.4401   20.7601 C   0  0  1  0  0  0  0  0  0  0  0  0
    7.9543  -15.6835   20.1752 O   0  0  0  0  0  0  0  0  0  0  0  0
    9.7869  -14.4981   21.1397 C   0  0  2  0  0  0  0  0  0  0  0  0
   10.4816  -15.1414   20.0163 N   0  0  0  0  0  0  0  0  0  0  0  0
    9.9843  -15.2900   22.3800 C   0  0  0  0  0  0  0  0  0  0  0  0
   10.4964  -16.4313   22.2078 O   0  0  0  0  0  0  0  0  0  0  0  0
    9.6643  -14.8931   23.6836 N   0  0  0  0  0  0  0  0  0  0  0  0
    9.7792  -15.6794   24.8616 C   0  0  1  0  0  0  0  0  0  0  0  0
    9.6942  -14.9612   26.1801 C   0  0  0  0  0  0  0  0  0  0  0  0
    9.9181  -15.8579   27.3589 C   0  0  0  0  0  0  0  0  0  0  0  0
    9.8182  -15.0404   28.6120 C   0  0  0  0  0  0  0  0  0  0  0  0
   10.1040  -15.4980   29.7342 O   0  0  0  0  0  0  0  0  0  0  0  0
    9.0944  -16.9782   24.8315 C   0  0  0  0  0  0  0  0  0  0  0  0
    9.6390  -18.1017   25.4136 O   0  0  0  0  0  0  0  0  0  0  0  0
    9.3930  -13.7277   28.5239 O   0  0  0  0  0  0  0  0  0  0  0  0
    7.9859  -17.0718   24.2628 O   0  0  0  0  0  0  0  0  0  0  0  0
  2  7  1  0
  2  1  1  6
  3  2  1  0
  4  3  1  0
  5  4  1  0
  6  5  2  0
  7  8  2  0
  9  5  1  0
 11 10  1  6
 11 12  1  0
 13 11  1  0
 13 14  1  6
 14  7  1  0
 15 16  2  0
 15 13  1  0
 17 15  1  0
 18 17  1  0
 19 20  1  0
 18 19  1  1
 20 21  1  0
 21 22  2  0
 21 25  1  0
 23 18  1  0
 23 24  1  0
 26 23  2  0
M  END
$$$$
