ETE.pdb
     RDKit          3D

 26 25  0  0  1  0  0  0  0  0999 V2000
    6.8680  -17.7205   17.1412 N   0  0  0  0  0  0  0  0  0  0  0  0
    8.2756  -17.3435   17.0101 C   0  0  1  0  0  0  0  0  0  0  0  0
    8.4667  -16.7649   15.6259 C   0  0  0  0  0  0  0  0  0  0  0  0
    9.7355  -17.1965   14.9630 C   0  0  0  0  0  0  0  0  0  0  0  0
    9.4343  -17.7705   13.6454 C   0  0  0  0  0  0  0  0  0  0  0  0
    9.8793  -18.8790   13.2837 O   0  0  0  0  0  0  0  0  0  0  0  0
    8.5577  -16.3258   18.0773 C   0  0  0  0  0  0  0  0  0  0  0  0
    8.5051  -15.1078   17.7631 O   0  0  0  0  0  0  0  0  0  0  0  0
    8.6181  -17.0482   12.7624 O   0  0  0  0  0  0  0  0  0  0  0  0
    7.2068  -14.4406   19.2600 C   0  0  0  0  0  0  0  0  0  0  0  0
    7.6638  -15.0170   20.5669 C   0  0  1  0  0  0  0  0  0  0  0  0
    6.7172  -16.0272   20.8935 O   0  0  0  0  0  0  0  0  0  0  0  0
    9.0261  -15.6616   20.4147 C   0  0  2  0  0  0  0  0  0  0  0  0
    8.8748  -16.7187   19.4056 N   0  0  0  0  0  0  0  0  0  0  0  0
    9.4842  -16.2474   21.6998 C   0  0  0  0  0  0  0  0  0  0  0  0
    9.1305  -17.4436   21.8963 O   0  0  0  0  0  0  0  0  0  0  0  0
   10.2521  -15.6099   22.6812 N   0  0  0  0  0  0  0  0  0  0  0  0
   11.2532  -16.2061   23.4944 C   0  0  1  0  0  0  0  0  0  0  0  0
   12.6817  -15.8253   23.2186 C   0  0  0  0  0  0  0  0  0  0  0  0
   13.6685  -16.5827   24.0530 C   0  0  0  0  0  0  0  0  0  0  0  0
   15.0542  -16.1838   23.6412 C   0  0  0  0  0  0  0  0  0  0  0  0
   15.2748  -15.4379   22.6688 O   0  0  0  0  0  0  0  0  0  0  0  0
   10.9234  -16.3376   24.9194 C   0  0  0  0  0  0  0  0  0  0  0  0
   11.6636  -17.1318   25.7675 O   0  0  0  0  0  0  0  0  0  0  0  0
   16.1318  -16.6595   24.3652 O   0  0  0  0  0  0  0  0  0  0  0  0
    9.9443  -15.7131   25.3804 O   0  0  0  0  0  0  0  0  0  0  0  0
  2  7  1  0
  2  1  1  6
  3  2  1  0
  4  3  1  0
  5  4  1  0
  6  5  2  0
  7  8  2  0
  9  5  1  0
 11 10  1  6
 11 12  1  0
 13 11  1  0
 13 14  1  6
 14  7  1  0
 15 16  2  0
 15 13  1  0
 17 15  1  0
 18 17  1  0
 19 20  1  0
 18 19  1  1
 20 21  1  0
 21 22  2  0
 21 25  1  0
 23 18  1  0
 23 24  1  0
 26 23  2  0
M  END
$$$$
