ETE.pdb
     RDKit          3D

 26 25  0  0  1  0  0  0  0  0999 V2000
    8.7454  -17.1719   16.2449 N   0  0  0  0  0  0  0  0  0  0  0  0
    8.5996  -17.8504   17.5330 C   0  0  1  0  0  0  0  0  0  0  0  0
    9.4556  -19.0964   17.4925 C   0  0  0  0  0  0  0  0  0  0  0  0
    9.5502  -19.8047   18.8059 C   0  0  0  0  0  0  0  0  0  0  0  0
   10.4182  -20.9814   18.6715 C   0  0  0  0  0  0  0  0  0  0  0  0
   11.6328  -20.8865   18.4007 O   0  0  0  0  0  0  0  0  0  0  0  0
    9.0698  -16.8919   18.5886 C   0  0  0  0  0  0  0  0  0  0  0  0
   10.2106  -16.3764   18.4550 O   0  0  0  0  0  0  0  0  0  0  0  0
    9.8633  -22.2568   18.8537 O   0  0  0  0  0  0  0  0  0  0  0  0
    8.0595  -14.1882   22.5773 C   0  0  0  0  0  0  0  0  0  0  0  0
    7.6136  -15.1692   21.5343 C   0  0  1  0  0  0  0  0  0  0  0  0
    6.7048  -14.4588   20.7020 O   0  0  0  0  0  0  0  0  0  0  0  0
    8.7898  -15.6194   20.6925 C   0  0  2  0  0  0  0  0  0  0  0  0
    8.2560  -16.5708   19.7084 N   0  0  0  0  0  0  0  0  0  0  0  0
    9.8219  -16.2802   21.5306 C   0  0  0  0  0  0  0  0  0  0  0  0
    9.5840  -17.4871   21.8160 O   0  0  0  0  0  0  0  0  0  0  0  0
   11.0004  -15.7009   22.0150 N   0  0  0  0  0  0  0  0  0  0  0  0
   11.9611  -16.3153   22.8627 C   0  0  1  0  0  0  0  0  0  0  0  0
   13.3868  -15.8540   22.7359 C   0  0  0  0  0  0  0  0  0  0  0  0
   14.3354  -16.6132   23.6120 C   0  0  0  0  0  0  0  0  0  0  0  0
   15.7311  -16.1408   23.3338 C   0  0  0  0  0  0  0  0  0  0  0  0
   16.3772  -16.5123   22.3363 O   0  0  0  0  0  0  0  0  0  0  0  0
   11.5251  -16.5708   24.2416 C   0  0  0  0  0  0  0  0  0  0  0  0
   11.9216  -17.6939   24.9340 O   0  0  0  0  0  0  0  0  0  0  0  0
   16.3285  -15.2589   24.2154 O   0  0  0  0  0  0  0  0  0  0  0  0
   10.7731  -15.7489   24.8072 O   0  0  0  0  0  0  0  0  0  0  0  0
  2  7  1  0
  2  1  1  6
  3  2  1  0
  4  3  1  0
  5  4  1  0
  6  5  2  0
  7  8  2  0
  9  5  1  0
 11 10  1  1
 11 12  1  0
 13 11  1  0
 13 14  1  6
 14  7  1  0
 15 16  2  0
 15 13  1  0
 17 15  1  0
 18 17  1  0
 19 20  1  0
 18 19  1  1
 20 21  1  0
 21 22  2  0
 21 25  1  0
 23 18  1  0
 23 24  1  0
 26 23  2  0
M  END
$$$$
