ETE.pdb
     RDKit          3D

 26 25  0  0  1  0  0  0  0  0999 V2000
    8.4790  -14.9223   13.8344 N   0  0  0  0  0  0  0  0  0  0  0  0
    8.2181  -15.5998   15.1046 C   0  0  1  0  0  0  0  0  0  0  0  0
    8.7152  -17.0222   14.9743 C   0  0  0  0  0  0  0  0  0  0  0  0
   10.0963  -17.1280   14.4115 C   0  0  0  0  0  0  0  0  0  0  0  0
   10.5831  -18.5062   14.5520 C   0  0  0  0  0  0  0  0  0  0  0  0
    9.8813  -19.4142   15.0425 O   0  0  0  0  0  0  0  0  0  0  0  0
    8.9696  -14.8476   16.1646 C   0  0  0  0  0  0  0  0  0  0  0  0
    9.9690  -14.1677   15.8127 O   0  0  0  0  0  0  0  0  0  0  0  0
   11.8818  -18.8132   14.1201 O   0  0  0  0  0  0  0  0  0  0  0  0
    7.4117  -12.6141   18.7914 C   0  0  0  0  0  0  0  0  0  0  0  0
    8.3613  -13.5439   19.4863 C   0  0  1  0  0  0  0  0  0  0  0  0
    7.5590  -14.6016   19.9970 O   0  0  0  0  0  0  0  0  0  0  0  0
    9.3539  -14.1229   18.4994 C   0  0  2  0  0  0  0  0  0  0  0  0
    8.5698  -14.8968   17.5274 N   0  0  0  0  0  0  0  0  0  0  0  0
   10.3306  -15.0072   19.1839 C   0  0  0  0  0  0  0  0  0  0  0  0
   10.1087  -16.2440   19.0587 O   0  0  0  0  0  0  0  0  0  0  0  0
   11.4429  -14.6022   19.9308 N   0  0  0  0  0  0  0  0  0  0  0  0
   12.3974  -15.4483   20.5571 C   0  0  1  0  0  0  0  0  0  0  0  0
   13.8304  -15.3104   20.1221 C   0  0  0  0  0  0  0  0  0  0  0  0
   14.1719  -13.9361   19.6341 C   0  0  0  0  0  0  0  0  0  0  0  0
   15.6111  -13.9181   19.2133 C   0  0  0  0  0  0  0  0  0  0  0  0
   16.5420  -14.1704   20.0010 O   0  0  0  0  0  0  0  0  0  0  0  0
   12.2172  -15.6558   21.9997 C   0  0  0  0  0  0  0  0  0  0  0  0
   12.9661  -16.5744   22.7020 O   0  0  0  0  0  0  0  0  0  0  0  0
   15.9223  -13.6101   17.9018 O   0  0  0  0  0  0  0  0  0  0  0  0
   11.3615  -14.9822   22.6121 O   0  0  0  0  0  0  0  0  0  0  0  0
  2  7  1  0
  2  1  1  6
  3  2  1  0
  4  3  1  0
  5  4  1  0
  6  5  2  0
  7  8  2  0
  9  5  1  0
 11 10  1  6
 11 12  1  0
 13 11  1  0
 13 14  1  6
 14  7  1  0
 15 16  2  0
 15 13  1  0
 17 15  1  0
 18 17  1  0
 19 20  1  0
 18 19  1  1
 20 21  1  0
 21 22  2  0
 21 25  1  0
 23 18  1  0
 23 24  1  0
 26 23  2  0
M  END
$$$$
