ETE.pdb
     RDKit          3D

 26 25  0  0  1  0  0  0  0  0999 V2000
   13.7444  -14.4786   18.3255 N   0  0  0  0  0  0  0  0  0  0  0  0
   12.3645  -14.8598   18.0232 C   0  0  1  0  0  0  0  0  0  0  0  0
   12.3655  -16.3272   17.6575 C   0  0  0  0  0  0  0  0  0  0  0  0
   13.6594  -17.0186   17.9464 C   0  0  0  0  0  0  0  0  0  0  0  0
   13.5748  -18.4223   17.5238 C   0  0  0  0  0  0  0  0  0  0  0  0
   13.4392  -19.3571   18.3396 O   0  0  0  0  0  0  0  0  0  0  0  0
   11.5570  -14.6004   19.2620 C   0  0  0  0  0  0  0  0  0  0  0  0
   12.1729  -14.4457   20.3491 O   0  0  0  0  0  0  0  0  0  0  0  0
   13.6490  -18.7236   16.1558 O   0  0  0  0  0  0  0  0  0  0  0  0
    8.2859  -12.4420   19.0613 C   0  0  0  0  0  0  0  0  0  0  0  0
    8.0931  -13.5848   20.0131 C   0  0  1  0  0  0  0  0  0  0  0  0
    7.3979  -14.5844   19.2778 O   0  0  0  0  0  0  0  0  0  0  0  0
    9.4319  -14.1460   20.4459 C   0  0  2  0  0  0  0  0  0  0  0  0
   10.1384  -14.5296   19.2162 N   0  0  0  0  0  0  0  0  0  0  0  0
    9.2538  -15.3322   21.3210 C   0  0  0  0  0  0  0  0  0  0  0  0
    9.3036  -16.4452   20.7266 O   0  0  0  0  0  0  0  0  0  0  0  0
    9.0445  -15.3248   22.7049 N   0  0  0  0  0  0  0  0  0  0  0  0
    9.5300  -16.2771   23.6410 C   0  0  1  0  0  0  0  0  0  0  0  0
   10.9539  -16.7343   23.4830 C   0  0  0  0  0  0  0  0  0  0  0  0
   11.3473  -17.7969   24.4626 C   0  0  0  0  0  0  0  0  0  0  0  0
   12.7723  -18.1863   24.2046 C   0  0  0  0  0  0  0  0  0  0  0  0
   13.4168  -17.7587   23.2288 O   0  0  0  0  0  0  0  0  0  0  0  0
    9.1067  -16.0771   25.0330 C   0  0  0  0  0  0  0  0  0  0  0  0
    8.8319  -14.8249   25.5374 O   0  0  0  0  0  0  0  0  0  0  0  0
   13.3995  -19.0531   25.0805 O   0  0  0  0  0  0  0  0  0  0  0  0
    8.9909  -17.0681   25.7851 O   0  0  0  0  0  0  0  0  0  0  0  0
  2  7  1  0
  2  1  1  1
  3  2  1  0
  4  3  1  0
  5  4  1  0
  6  5  2  0
  7  8  2  0
  9  5  1  0
 11 10  1  6
 11 12  1  0
 13 11  1  0
 13 14  1  6
 14  7  1  0
 15 16  2  0
 15 13  1  0
 17 15  1  0
 18 17  1  0
 19 20  1  0
 18 19  1  1
 20 21  1  0
 21 22  2  0
 21 25  1  0
 23 18  1  0
 23 24  1  0
 26 23  2  0
M  END
$$$$
