VGY.pdb
     RDKit          3D

 24 24  0  0  1  0  0  0  0  0999 V2000
   24.9643  -16.9289  -17.9898 C   0  0  0  0  0  0  0  0  0  0  0  0
   25.6712  -18.1610  -17.4945 C   0  0  2  0  0  0  0  0  0  0  0  0
   26.7944  -18.5235  -18.4430 C   0  0  0  0  0  0  0  0  0  0  0  0
   24.7521  -19.3505  -17.3940 C   0  0  2  0  0  0  0  0  0  0  0  0
   24.1300  -19.5972  -18.6608 N   0  0  0  0  0  0  0  0  0  0  0  0
   23.8144  -19.2645  -16.2725 C   0  0  0  0  0  0  0  0  0  0  0  0
   24.2518  -19.3205  -15.0995 O   0  0  0  0  0  0  0  0  0  0  0  0
   22.3906  -19.1162  -16.4738 N   0  0  0  0  0  0  0  0  0  0  0  0
   21.4947  -18.9929  -15.3522 C   0  0  0  0  0  0  0  0  0  0  0  0
   21.0711  -20.2511  -14.7670 C   0  0  0  0  0  0  0  0  0  0  0  0
   21.1678  -21.3302  -15.4485 O   0  0  0  0  0  0  0  0  0  0  0  0
   26.5206  -21.2919  -11.8126 O   0  0  0  0  0  0  0  0  0  0  0  0
   25.1218  -21.4371  -11.7610 C   0  0  0  0  0  0  0  0  0  0  0  0
   24.5298  -22.5300  -12.3589 C   0  0  0  0  0  0  0  0  0  0  0  0
   23.1588  -22.6794  -12.3126 C   0  0  0  0  0  0  0  0  0  0  0  0
   22.3519  -21.7597  -11.6800 C   0  0  0  0  0  0  0  0  0  0  0  0
   20.8793  -21.8725  -11.6085 C   0  0  0  0  0  0  0  0  0  0  0  0
   20.1911  -21.7228  -12.9359 C   0  0  2  0  0  0  0  0  0  0  0  0
   20.5401  -20.4137  -13.4664 N   0  0  0  0  0  0  0  0  0  0  0  0
   18.7403  -21.9388  -12.9042 C   0  0  0  0  0  0  0  0  0  0  0  0
   18.1807  -23.2290  -12.8345 O   0  0  0  0  0  0  0  0  0  0  0  0
   22.9577  -20.6754  -11.0888 C   0  0  0  0  0  0  0  0  0  0  0  0
   24.3383  -20.5156  -11.1297 C   0  0  0  0  0  0  0  0  0  0  0  0
   17.9124  -20.9954  -12.9369 O   0  0  0  0  0  0  0  0  0  0  0  0
  2  1  1  6
  2  4  1  0
  2  3  1  0
  4  5  1  6
  6  4  1  0
  7  6  2  0
  8  6  1  0
  9 10  1  0
  9  8  1  0
 10 19  1  0
 11 10  2  0
 13 12  1  0
 13 14  2  0
 15 14  1  0
 16 15  2  0
 17 16  1  0
 18 17  1  1
 18 20  1  0
 19 18  1  0
 20 24  2  0
 20 21  1  0
 22 23  2  0
 22 16  1  0
 23 13  1  0
M  END
$$$$
