VGY.pdb
     RDKit          3D

 24 24  0  0  1  0  0  0  0  0999 V2000
   22.4085  -20.2235  -16.2361 C   0  0  0  0  0  0  0  0  0  0  0  0
   22.2560  -21.7165  -16.1333 C   0  0  2  0  0  0  0  0  0  0  0  0
   20.8242  -22.1072  -16.4332 C   0  0  0  0  0  0  0  0  0  0  0  0
   22.5969  -22.2367  -14.7610 C   0  0  2  0  0  0  0  0  0  0  0  0
   21.6567  -21.7392  -13.8012 N   0  0  0  0  0  0  0  0  0  0  0  0
   23.9982  -22.0242  -14.3929 C   0  0  0  0  0  0  0  0  0  0  0  0
   24.8766  -22.7948  -14.8457 O   0  0  0  0  0  0  0  0  0  0  0  0
   24.4061  -20.9479  -13.5185 N   0  0  0  0  0  0  0  0  0  0  0  0
   25.7901  -20.7723  -13.1586 C   0  0  0  0  0  0  0  0  0  0  0  0
   26.0999  -21.0486  -11.7684 C   0  0  0  0  0  0  0  0  0  0  0  0
   25.9596  -22.2365  -11.3129 O   0  0  0  0  0  0  0  0  0  0  0  0
   29.0341  -20.0474   -3.4056 O   0  0  0  0  0  0  0  0  0  0  0  0
   28.7534  -19.9177   -4.7784 C   0  0  0  0  0  0  0  0  0  0  0  0
   29.4458  -20.6881   -5.6891 C   0  0  0  0  0  0  0  0  0  0  0  0
   29.1761  -20.5667   -7.0370 C   0  0  0  0  0  0  0  0  0  0  0  0
   28.2249  -19.6891   -7.5082 C   0  0  0  0  0  0  0  0  0  0  0  0
   27.9044  -19.5189   -8.9416 C   0  0  0  0  0  0  0  0  0  0  0  0
   26.8508  -20.4634   -9.4473 C   0  0  2  0  0  0  0  0  0  0  0  0
   26.5603  -20.1000  -10.8260 N   0  0  0  0  0  0  0  0  0  0  0  0
   25.6379  -20.5293   -8.6245 C   0  0  0  0  0  0  0  0  0  0  0  0
   25.5412  -21.3805   -7.5071 O   0  0  0  0  0  0  0  0  0  0  0  0
   27.5433  -18.9280   -6.5872 C   0  0  0  0  0  0  0  0  0  0  0  0
   27.8074  -19.0428   -5.2269 C   0  0  0  0  0  0  0  0  0  0  0  0
   24.6178  -19.8370   -8.8622 O   0  0  0  0  0  0  0  0  0  0  0  0
  2  1  1  1
  2  4  1  0
  2  3  1  0
  4  5  1  1
  6  4  1  0
  7  6  2  0
  8  6  1  0
  9 10  1  0
  9  8  1  0
 10 19  1  0
 11 10  2  0
 13 12  1  0
 13 14  2  0
 15 14  1  0
 16 15  2  0
 17 16  1  0
 18 17  1  1
 18 20  1  0
 19 18  1  0
 20 24  2  0
 20 21  1  0
 22 23  2  0
 22 16  1  0
 23 13  1  0
M  END
$$$$
