VGY.pdb
     RDKit          3D

 24 24  0  0  1  0  0  0  0  0999 V2000
   24.2948  -18.9946  -17.8573 C   0  0  0  0  0  0  0  0  0  0  0  0
   24.7232  -17.5578  -17.7350 C   0  0  2  0  0  0  0  0  0  0  0  0
   24.3385  -16.7999  -18.9882 C   0  0  0  0  0  0  0  0  0  0  0  0
   26.2114  -17.4147  -17.5496 C   0  0  2  0  0  0  0  0  0  0  0  0
   26.8904  -17.7412  -18.7682 N   0  0  0  0  0  0  0  0  0  0  0  0
   26.7190  -18.1229  -16.3726 C   0  0  0  0  0  0  0  0  0  0  0  0
   27.1793  -19.2812  -16.5030 O   0  0  0  0  0  0  0  0  0  0  0  0
   26.7072  -17.5272  -15.0557 N   0  0  0  0  0  0  0  0  0  0  0  0
   27.1958  -18.2538  -13.9115 C   0  0  0  0  0  0  0  0  0  0  0  0
   26.3034  -19.2844  -13.4152 C   0  0  0  0  0  0  0  0  0  0  0  0
   25.1557  -19.4433  -13.9592 O   0  0  0  0  0  0  0  0  0  0  0  0
   27.7336  -19.0519   -6.2508 O   0  0  0  0  0  0  0  0  0  0  0  0
   27.3817  -19.7900   -7.3960 C   0  0  0  0  0  0  0  0  0  0  0  0
   28.3592  -20.1465   -8.3013 C   0  0  0  0  0  0  0  0  0  0  0  0
   28.0219  -20.8704   -9.4267 C   0  0  0  0  0  0  0  0  0  0  0  0
   26.7230  -21.2533   -9.6781 C   0  0  0  0  0  0  0  0  0  0  0  0
   26.3113  -22.0235  -10.8713 C   0  0  0  0  0  0  0  0  0  0  0  0
   25.6408  -21.1951  -11.9306 C   0  0  2  0  0  0  0  0  0  0  0  0
   26.5837  -20.1683  -12.3474 N   0  0  0  0  0  0  0  0  0  0  0  0
   24.3438  -20.6309  -11.5408 C   0  0  0  0  0  0  0  0  0  0  0  0
   23.1592  -21.3910  -11.5788 O   0  0  0  0  0  0  0  0  0  0  0  0
   25.7600  -20.8898   -8.7657 C   0  0  0  0  0  0  0  0  0  0  0  0
   26.0893  -20.1605   -7.6286 C   0  0  0  0  0  0  0  0  0  0  0  0
   24.2086  -19.4447  -11.1519 O   0  0  0  0  0  0  0  0  0  0  0  0
  2  1  1  6
  2  4  1  0
  2  3  1  0
  4  5  1  6
  6  4  1  0
  7  6  2  0
  8  6  1  0
  9 10  1  0
  9  8  1  0
 10 19  1  0
 11 10  2  0
 13 12  1  0
 13 14  2  0
 15 14  1  0
 16 15  2  0
 17 16  1  0
 18 17  1  1
 18 20  1  0
 19 18  1  0
 20 24  2  0
 20 21  1  0
 22 23  2  0
 22 16  1  0
 23 13  1  0
M  END
$$$$
