VGY.pdb
     RDKit          3D

 24 24  0  0  1  0  0  0  0  0999 V2000
   17.4329  -18.5538    2.4077 C   0  0  0  0  0  0  0  0  0  0  0  0
   17.1395  -19.7710    3.2417 C   0  0  2  0  0  0  0  0  0  0  0  0
   16.7329  -20.9210    2.3445 C   0  0  0  0  0  0  0  0  0  0  0  0
   16.0229  -19.5386    4.2261 C   0  0  2  0  0  0  0  0  0  0  0  0
   14.7896  -19.3298    3.5275 N   0  0  0  0  0  0  0  0  0  0  0  0
   16.3314  -18.5070    5.2186 C   0  0  0  0  0  0  0  0  0  0  0  0
   15.4066  -17.7917    5.6698 O   0  0  0  0  0  0  0  0  0  0  0  0
   17.6762  -18.2838    5.6992 N   0  0  0  0  0  0  0  0  0  0  0  0
   17.9457  -17.2886    6.7056 C   0  0  0  0  0  0  0  0  0  0  0  0
   19.3315  -17.2049    7.1268 C   0  0  0  0  0  0  0  0  0  0  0  0
   20.2231  -17.8826    6.5073 O   0  0  0  0  0  0  0  0  0  0  0  0
   21.1083  -10.3586    6.4714 O   0  0  0  0  0  0  0  0  0  0  0  0
   21.1977  -11.5576    7.2025 C   0  0  0  0  0  0  0  0  0  0  0  0
   22.4260  -11.9811    7.6654 C   0  0  0  0  0  0  0  0  0  0  0  0
   22.5217  -13.1558    8.3831 C   0  0  0  0  0  0  0  0  0  0  0  0
   21.4151  -13.9292    8.6557 C   0  0  0  0  0  0  0  0  0  0  0  0
   21.4673  -15.1971    9.4147 C   0  0  0  0  0  0  0  0  0  0  0  0
   21.2225  -16.4201    8.5766 C   0  0  2  0  0  0  0  0  0  0  0  0
   19.8180  -16.4181    8.1966 N   0  0  0  0  0  0  0  0  0  0  0  0
   21.6255  -17.6847    9.2017 C   0  0  0  0  0  0  0  0  0  0  0  0
   22.8733  -18.2814    8.9383 O   0  0  0  0  0  0  0  0  0  0  0  0
   20.1976  -13.4931    8.1870 C   0  0  0  0  0  0  0  0  0  0  0  0
   20.0903  -12.3109    7.4629 C   0  0  0  0  0  0  0  0  0  0  0  0
   20.8898  -18.3101   10.0044 O   0  0  0  0  0  0  0  0  0  0  0  0
  2  1  1  6
  2  4  1  0
  2  3  1  0
  4  5  1  6
  6  4  1  0
  7  6  2  0
  8  6  1  0
  9 10  1  0
  9  8  1  0
 10 19  1  0
 11 10  2  0
 13 12  1  0
 13 14  2  0
 15 14  1  0
 16 15  2  0
 17 16  1  0
 18 17  1  1
 18 20  1  0
 19 18  1  0
 20 24  2  0
 20 21  1  0
 22 23  2  0
 22 16  1  0
 23 13  1  0
M  END
$$$$
