VGY.pdb
     RDKit          3D

 24 24  0  0  1  0  0  0  0  0999 V2000
   36.1170  -37.2771   -3.5674 C   0  0  0  0  0  0  0  0  0  0  0  0
   34.9341  -36.5959   -4.1996 C   0  0  2  0  0  0  0  0  0  0  0  0
   34.2674  -35.6853   -3.1901 C   0  0  0  0  0  0  0  0  0  0  0  0
   33.8996  -37.5758   -4.6890 C   0  0  2  0  0  0  0  0  0  0  0  0
   34.5309  -38.6213   -5.4379 N   0  0  0  0  0  0  0  0  0  0  0  0
   32.7781  -36.9366   -5.3804 C   0  0  0  0  0  0  0  0  0  0  0  0
   32.6928  -37.0264   -6.6274 O   0  0  0  0  0  0  0  0  0  0  0  0
   31.7583  -36.2000   -4.6684 N   0  0  0  0  0  0  0  0  0  0  0  0
   30.6192  -35.6556   -5.3626 C   0  0  0  0  0  0  0  0  0  0  0  0
   29.7045  -34.8940   -4.5332 C   0  0  0  0  0  0  0  0  0  0  0  0
   29.8752  -34.8649   -3.2650 O   0  0  0  0  0  0  0  0  0  0  0  0
   25.3036  -32.1837   -9.9357 O   0  0  0  0  0  0  0  0  0  0  0  0
   25.8743  -32.1376   -8.6503 C   0  0  0  0  0  0  0  0  0  0  0  0
   25.0598  -31.9605   -7.5514 C   0  0  0  0  0  0  0  0  0  0  0  0
   25.6119  -31.9143   -6.2876 C   0  0  0  0  0  0  0  0  0  0  0  0
   26.9684  -32.0411   -6.0858 C   0  0  0  0  0  0  0  0  0  0  0  0
   27.6075  -31.9924   -4.7533 C   0  0  0  0  0  0  0  0  0  0  0  0
   27.7813  -33.3395   -4.1106 C   0  0  2  0  0  0  0  0  0  0  0  0
   28.5974  -34.1495   -5.0022 N   0  0  0  0  0  0  0  0  0  0  0  0
   26.5301  -34.0110   -3.7418 C   0  0  0  0  0  0  0  0  0  0  0  0
   25.7418  -33.5752   -2.6596 O   0  0  0  0  0  0  0  0  0  0  0  0
   27.7670  -32.2169   -7.1919 C   0  0  0  0  0  0  0  0  0  0  0  0
   27.2206  -32.2650   -8.4696 C   0  0  0  0  0  0  0  0  0  0  0  0
   26.0863  -35.0083   -4.3623 O   0  0  0  0  0  0  0  0  0  0  0  0
  2  1  1  1
  2  4  1  0
  2  3  1  0
  4  5  1  6
  6  4  1  0
  7  6  2  0
  8  6  1  0
  9 10  1  0
  9  8  1  0
 10 19  1  0
 11 10  2  0
 13 12  1  0
 13 14  2  0
 15 14  1  0
 16 15  2  0
 17 16  1  0
 18 17  1  6
 18 20  1  0
 19 18  1  0
 20 24  2  0
 20 21  1  0
 22 23  2  0
 22 16  1  0
 23 13  1  0
M  END
$$$$
