VGY.pdb
     RDKit          3D

 24 24  0  0  1  0  0  0  0  0999 V2000
   24.1416  -21.6624  -15.8591 C   0  0  0  0  0  0  0  0  0  0  0  0
   25.1656  -21.9059  -16.9339 C   0  0  2  0  0  0  0  0  0  0  0  0
   24.6370  -22.9218  -17.9246 C   0  0  0  0  0  0  0  0  0  0  0  0
   26.4644  -22.4339  -16.3824 C   0  0  2  0  0  0  0  0  0  0  0  0
   26.2478  -23.6987  -15.7452 N   0  0  0  0  0  0  0  0  0  0  0  0
   27.1802  -21.4607  -15.5548 C   0  0  0  0  0  0  0  0  0  0  0  0
   27.4499  -20.3319  -16.0275 O   0  0  0  0  0  0  0  0  0  0  0  0
   27.5894  -21.7598  -14.2011 N   0  0  0  0  0  0  0  0  0  0  0  0
   28.1164  -20.7291  -13.3435 C   0  0  0  0  0  0  0  0  0  0  0  0
   27.2248  -20.3021  -12.2817 C   0  0  0  0  0  0  0  0  0  0  0  0
   26.5113  -19.2512  -12.4389 O   0  0  0  0  0  0  0  0  0  0  0  0
   21.4088  -20.9621  -14.2646 O   0  0  0  0  0  0  0  0  0  0  0  0
   22.3003  -21.0498  -13.1793 C   0  0  0  0  0  0  0  0  0  0  0  0
   23.3440  -21.9500  -13.2287 C   0  0  0  0  0  0  0  0  0  0  0  0
   24.2225  -22.0418  -12.1684 C   0  0  0  0  0  0  0  0  0  0  0  0
   24.0884  -21.2527  -11.0476 C   0  0  0  0  0  0  0  0  0  0  0  0
   24.9993  -21.3181   -9.8847 C   0  0  0  0  0  0  0  0  0  0  0  0
   26.1965  -20.4169   -9.9962 C   0  0  2  0  0  0  0  0  0  0  0  0
   27.0564  -20.9558  -11.0389 N   0  0  0  0  0  0  0  0  0  0  0  0
   26.9207  -20.1978   -8.7392 C   0  0  0  0  0  0  0  0  0  0  0  0
   26.3781  -19.4301   -7.6911 O   0  0  0  0  0  0  0  0  0  0  0  0
   23.0423  -20.3602  -11.0138 C   0  0  0  0  0  0  0  0  0  0  0  0
   22.1517  -20.2598  -12.0769 C   0  0  0  0  0  0  0  0  0  0  0  0
   28.0604  -20.6768   -8.5199 O   0  0  0  0  0  0  0  0  0  0  0  0
  2  1  1  1
  2  4  1  0
  2  3  1  0
  4  5  1  1
  6  4  1  0
  7  6  2  0
  8  6  1  0
  9 10  1  0
  9  8  1  0
 10 19  1  0
 11 10  2  0
 13 12  1  0
 13 14  2  0
 15 14  1  0
 16 15  2  0
 17 16  1  0
 18 17  1  1
 18 20  1  0
 19 18  1  0
 20 24  2  0
 20 21  1  0
 22 23  2  0
 22 16  1  0
 23 13  1  0
M  END
$$$$
