VGY.pdb
     RDKit          3D

 24 24  0  0  1  0  0  0  0  0999 V2000
   21.0335  -22.6130  -13.9324 C   0  0  0  0  0  0  0  0  0  0  0  0
   21.0461  -22.0219  -15.3157 C   0  0  2  0  0  0  0  0  0  0  0  0
   20.1602  -22.8405  -16.2309 C   0  0  0  0  0  0  0  0  0  0  0  0
   22.4272  -21.9936  -15.9169 C   0  0  2  0  0  0  0  0  0  0  0  0
   22.8696  -23.3285  -16.1908 N   0  0  0  0  0  0  0  0  0  0  0  0
   23.3792  -21.1939  -15.1433 C   0  0  0  0  0  0  0  0  0  0  0  0
   23.1434  -19.9792  -14.9449 O   0  0  0  0  0  0  0  0  0  0  0  0
   24.5908  -21.7618  -14.5966 N   0  0  0  0  0  0  0  0  0  0  0  0
   25.4894  -20.9622  -13.8035 C   0  0  0  0  0  0  0  0  0  0  0  0
   25.6983  -21.4388  -12.4492 C   0  0  0  0  0  0  0  0  0  0  0  0
   24.8733  -22.2730  -11.9378 O   0  0  0  0  0  0  0  0  0  0  0  0
   27.8445  -19.8145   -3.9434 O   0  0  0  0  0  0  0  0  0  0  0  0
   27.8286  -19.9240   -5.3462 C   0  0  0  0  0  0  0  0  0  0  0  0
   28.2218  -21.1052   -5.9400 C   0  0  0  0  0  0  0  0  0  0  0  0
   28.2089  -21.2202   -7.3150 C   0  0  0  0  0  0  0  0  0  0  0  0
   27.8107  -20.1793   -8.1243 C   0  0  0  0  0  0  0  0  0  0  0  0
   27.7852  -20.2518   -9.6009 C   0  0  0  0  0  0  0  0  0  0  0  0
   26.6221  -21.0264  -10.1535 C   0  0  2  0  0  0  0  0  0  0  0  0
   26.7647  -21.0599  -11.6011 N   0  0  0  0  0  0  0  0  0  0  0  0
   25.3034  -20.5358   -9.7379 C   0  0  0  0  0  0  0  0  0  0  0  0
   24.6581  -19.4773  -10.4055 O   0  0  0  0  0  0  0  0  0  0  0  0
   27.4218  -19.0081   -7.5168 C   0  0  0  0  0  0  0  0  0  0  0  0
   27.4310  -18.8819   -6.1321 C   0  0  0  0  0  0  0  0  0  0  0  0
   24.6716  -21.0243   -8.7690 O   0  0  0  0  0  0  0  0  0  0  0  0
  2  1  1  1
  2  4  1  0
  2  3  1  0
  4  5  1  1
  6  4  1  0
  7  6  2  0
  8  6  1  0
  9 10  1  0
  9  8  1  0
 10 19  1  0
 11 10  2  0
 13 12  1  0
 13 14  2  0
 15 14  1  0
 16 15  2  0
 17 16  1  0
 18 17  1  1
 18 20  1  0
 19 18  1  0
 20 24  2  0
 20 21  1  0
 22 23  2  0
 22 16  1  0
 23 13  1  0
M  END
$$$$
