VGY.pdb
     RDKit          3D

 24 24  0  0  1  0  0  0  0  0999 V2000
   26.5504  -15.8786  -15.6807 C   0  0  0  0  0  0  0  0  0  0  0  0
   26.5239  -17.1790  -14.9249 C   0  0  2  0  0  0  0  0  0  0  0  0
   27.9370  -17.6014  -14.5822 C   0  0  0  0  0  0  0  0  0  0  0  0
   25.8904  -18.2926  -15.7176 C   0  0  2  0  0  0  0  0  0  0  0  0
   24.7239  -17.8095  -16.3948 N   0  0  0  0  0  0  0  0  0  0  0  0
   25.6669  -19.5080  -14.9320 C   0  0  0  0  0  0  0  0  0  0  0  0
   24.6064  -19.6296  -14.2755 O   0  0  0  0  0  0  0  0  0  0  0  0
   26.6350  -20.5806  -14.8876 N   0  0  0  0  0  0  0  0  0  0  0  0
   26.3863  -21.7689  -14.1118 C   0  0  0  0  0  0  0  0  0  0  0  0
   26.6212  -21.6290  -12.6870 C   0  0  0  0  0  0  0  0  0  0  0  0
   27.8141  -21.7138  -12.2311 O   0  0  0  0  0  0  0  0  0  0  0  0
   28.5398  -19.1875   -4.7879 O   0  0  0  0  0  0  0  0  0  0  0  0
   28.1570  -19.4464   -6.1170 C   0  0  0  0  0  0  0  0  0  0  0  0
   28.7571  -20.4782   -6.8081 C   0  0  0  0  0  0  0  0  0  0  0  0
   28.3870  -20.7384   -8.1117 C   0  0  0  0  0  0  0  0  0  0  0  0
   27.4246  -19.9907   -8.7534 C   0  0  0  0  0  0  0  0  0  0  0  0
   26.9985  -20.2265  -10.1496 C   0  0  0  0  0  0  0  0  0  0  0  0
   25.9461  -21.2891  -10.2948 C   0  0  2  0  0  0  0  0  0  0  0  0
   25.6251  -21.3990  -11.7097 N   0  0  0  0  0  0  0  0  0  0  0  0
   24.7500  -21.0870   -9.4696 C   0  0  0  0  0  0  0  0  0  0  0  0
   24.6843  -21.5258   -8.1333 O   0  0  0  0  0  0  0  0  0  0  0  0
   26.8359  -18.9653   -8.0506 C   0  0  0  0  0  0  0  0  0  0  0  0
   27.2015  -18.6949   -6.7366 C   0  0  0  0  0  0  0  0  0  0  0  0
   23.7179  -20.5149   -9.8985 O   0  0  0  0  0  0  0  0  0  0  0  0
  2  1  1  6
  2  4  1  0
  2  3  1  0
  4  5  1  1
  6  4  1  0
  7  6  2  0
  8  6  1  0
  9 10  1  0
  9  8  1  0
 10 19  1  0
 11 10  2  0
 13 12  1  0
 13 14  2  0
 15 14  1  0
 16 15  2  0
 17 16  1  0
 18 17  1  6
 18 20  1  0
 19 18  1  0
 20 24  2  0
 20 21  1  0
 22 23  2  0
 22 16  1  0
 23 13  1  0
M  END
$$$$
