VGY.pdb
     RDKit          3D

 24 24  0  0  1  0  0  0  0  0999 V2000
   23.5460  -25.0314  -13.0782 C   0  0  0  0  0  0  0  0  0  0  0  0
   23.1309  -24.6491  -14.4727 C   0  0  2  0  0  0  0  0  0  0  0  0
   22.7772  -25.8925  -15.2611 C   0  0  0  0  0  0  0  0  0  0  0  0
   24.2211  -23.9255  -15.2196 C   0  0  2  0  0  0  0  0  0  0  0  0
   25.3063  -24.8207  -15.4909 N   0  0  0  0  0  0  0  0  0  0  0  0
   24.6248  -22.6704  -14.5823 C   0  0  0  0  0  0  0  0  0  0  0  0
   23.8070  -21.7231  -14.5170 O   0  0  0  0  0  0  0  0  0  0  0  0
   25.9443  -22.4852  -14.0219 N   0  0  0  0  0  0  0  0  0  0  0  0
   26.2999  -21.2565  -13.3591 C   0  0  0  0  0  0  0  0  0  0  0  0
   26.4076  -21.3497  -11.9153 C   0  0  0  0  0  0  0  0  0  0  0  0
   26.2405  -22.4809  -11.3401 O   0  0  0  0  0  0  0  0  0  0  0  0
   28.9255  -19.8819   -3.5656 O   0  0  0  0  0  0  0  0  0  0  0  0
   28.6078  -19.7445   -4.9296 C   0  0  0  0  0  0  0  0  0  0  0  0
   27.5349  -18.9618   -5.3018 C   0  0  0  0  0  0  0  0  0  0  0  0
   27.2172  -18.8222   -6.6373 C   0  0  0  0  0  0  0  0  0  0  0  0
   27.9469  -19.4478   -7.6237 C   0  0  0  0  0  0  0  0  0  0  0  0
   27.6427  -19.3339   -9.0663 C   0  0  0  0  0  0  0  0  0  0  0  0
   26.8051  -20.4597   -9.6037 C   0  0  2  0  0  0  0  0  0  0  0  0
   26.6900  -20.2737  -11.0422 N   0  0  0  0  0  0  0  0  0  0  0  0
   25.4965  -20.6147   -8.9587 C   0  0  0  0  0  0  0  0  0  0  0  0
   25.3121  -21.4482   -7.8389 O   0  0  0  0  0  0  0  0  0  0  0  0
   29.0137  -20.2249   -7.2361 C   0  0  0  0  0  0  0  0  0  0  0  0
   29.3423  -20.3721   -5.8931 C   0  0  0  0  0  0  0  0  0  0  0  0
   24.4666  -20.0194   -9.3606 O   0  0  0  0  0  0  0  0  0  0  0  0
  2  1  1  1
  2  4  1  0
  2  3  1  0
  4  5  1  1
  6  4  1  0
  7  6  2  0
  8  6  1  0
  9 10  1  0
  9  8  1  0
 10 19  1  0
 11 10  2  0
 13 12  1  0
 13 14  2  0
 15 14  1  0
 16 15  2  0
 17 16  1  0
 18 17  1  1
 18 20  1  0
 19 18  1  0
 20 24  2  0
 20 21  1  0
 22 23  2  0
 22 16  1  0
 23 13  1  0
M  END
$$$$
