VGY.pdb
     RDKit          3D

 24 24  0  0  1  0  0  0  0  0999 V2000
   17.0076  -22.5610    2.4605 C   0  0  0  0  0  0  0  0  0  0  0  0
   15.5443  -22.8676    2.6273 C   0  0  2  0  0  0  0  0  0  0  0  0
   15.2141  -24.1778    1.9438 C   0  0  0  0  0  0  0  0  0  0  0  0
   14.6615  -21.8024    2.0308 C   0  0  2  0  0  0  0  0  0  0  0  0
   14.7847  -21.8069    0.6035 N   0  0  0  0  0  0  0  0  0  0  0  0
   14.8476  -20.4858    2.6442 C   0  0  0  0  0  0  0  0  0  0  0  0
   14.7185  -19.4563    1.9415 O   0  0  0  0  0  0  0  0  0  0  0  0
   15.1777  -20.3318    4.0431 N   0  0  0  0  0  0  0  0  0  0  0  0
   15.2019  -19.0290    4.6576 C   0  0  0  0  0  0  0  0  0  0  0  0
   16.4864  -18.6351    5.2052 C   0  0  0  0  0  0  0  0  0  0  0  0
   17.4775  -19.4421    5.1370 O   0  0  0  0  0  0  0  0  0  0  0  0
   17.1620  -11.5622    3.2359 O   0  0  0  0  0  0  0  0  0  0  0  0
   17.6004  -12.8024    3.7360 C   0  0  0  0  0  0  0  0  0  0  0  0
   17.1323  -13.9682    3.1667 C   0  0  0  0  0  0  0  0  0  0  0  0
   17.5575  -15.1881    3.6515 C   0  0  0  0  0  0  0  0  0  0  0  0
   18.4463  -15.2800    4.6996 C   0  0  0  0  0  0  0  0  0  0  0  0
   18.9266  -16.5623    5.2577 C   0  0  0  0  0  0  0  0  0  0  0  0
   18.0802  -17.0943    6.3796 C   0  0  2  0  0  0  0  0  0  0  0  0
   16.7669  -17.3991    5.8326 N   0  0  0  0  0  0  0  0  0  0  0  0
   18.0013  -16.2227    7.5571 C   0  0  0  0  0  0  0  0  0  0  0  0
   16.8073  -15.5728    7.9240 O   0  0  0  0  0  0  0  0  0  0  0  0
   18.9035  -14.1083    5.2564 C   0  0  0  0  0  0  0  0  0  0  0  0
   18.4814  -12.8739    4.7753 C   0  0  0  0  0  0  0  0  0  0  0  0
   18.9846  -16.0026    8.3061 O   0  0  0  0  0  0  0  0  0  0  0  0
  2  1  1  6
  2  4  1  0
  2  3  1  0
  4  5  1  6
  6  4  1  0
  7  6  2  0
  8  6  1  0
  9 10  1  0
  9  8  1  0
 10 19  1  0
 11 10  2  0
 13 12  1  0
 13 14  2  0
 15 14  1  0
 16 15  2  0
 17 16  1  0
 18 17  1  6
 18 20  1  0
 19 18  1  0
 20 24  2  0
 20 21  1  0
 22 23  2  0
 22 16  1  0
 23 13  1  0
M  END
$$$$
