VGY.pdb
     RDKit          3D

 24 24  0  0  1  0  0  0  0  0999 V2000
   25.4008  -15.5074  -17.8889 C   0  0  0  0  0  0  0  0  0  0  0  0
   26.8354  -15.9441  -17.7697 C   0  0  2  0  0  0  0  0  0  0  0  0
   27.5404  -15.7553  -19.0964 C   0  0  0  0  0  0  0  0  0  0  0  0
   26.9653  -17.3941  -17.3820 C   0  0  2  0  0  0  0  0  0  0  0  0
   26.3435  -18.2232  -18.3713 N   0  0  0  0  0  0  0  0  0  0  0  0
   26.5299  -17.6681  -16.0110 C   0  0  0  0  0  0  0  0  0  0  0  0
   25.3051  -17.7555  -15.7606 O   0  0  0  0  0  0  0  0  0  0  0  0
   27.4716  -17.8426  -14.9283 N   0  0  0  0  0  0  0  0  0  0  0  0
   27.0153  -18.0990  -13.5860 C   0  0  0  0  0  0  0  0  0  0  0  0
   26.4482  -19.4175  -13.3746 C   0  0  0  0  0  0  0  0  0  0  0  0
   26.2708  -20.1976  -14.3737 O   0  0  0  0  0  0  0  0  0  0  0  0
   27.3809  -19.1465   -6.2634 O   0  0  0  0  0  0  0  0  0  0  0  0
   27.1013  -19.8676   -7.4391 C   0  0  0  0  0  0  0  0  0  0  0  0
   28.0911  -20.0354   -8.3847 C   0  0  0  0  0  0  0  0  0  0  0  0
   27.8246  -20.7413   -9.5401 C   0  0  0  0  0  0  0  0  0  0  0  0
   26.5852  -21.2910   -9.7823 C   0  0  0  0  0  0  0  0  0  0  0  0
   26.2495  -22.0499  -11.0062 C   0  0  0  0  0  0  0  0  0  0  0  0
   25.4475  -21.2680  -12.0078 C   0  0  2  0  0  0  0  0  0  0  0  0
   26.0550  -19.9511  -12.1253 N   0  0  0  0  0  0  0  0  0  0  0  0
   24.0108  -21.1916  -11.7204 C   0  0  0  0  0  0  0  0  0  0  0  0
   23.3830  -19.9785  -11.3788 O   0  0  0  0  0  0  0  0  0  0  0  0
   25.6089  -21.1147   -8.8295 C   0  0  0  0  0  0  0  0  0  0  0  0
   25.8672  -20.4051   -7.6619 C   0  0  0  0  0  0  0  0  0  0  0  0
   23.2561  -22.1943  -11.7605 O   0  0  0  0  0  0  0  0  0  0  0  0
  2  1  1  6
  2  4  1  0
  2  3  1  0
  4  5  1  6
  6  4  1  0
  7  6  2  0
  8  6  1  0
  9 10  1  0
  9  8  1  0
 10 19  1  0
 11 10  2  0
 13 12  1  0
 13 14  2  0
 15 14  1  0
 16 15  2  0
 17 16  1  0
 18 17  1  1
 18 20  1  0
 19 18  1  0
 20 24  2  0
 20 21  1  0
 22 23  2  0
 22 16  1  0
 23 13  1  0
M  END
$$$$
