NVM.pdb
     RDKit          3D

 24 23  0  0  1  0  0  0  0  0999 V2000
   12.0389  -19.0824   16.4967 N   0  0  0  0  0  0  0  0  0  0  0  0
   10.8037  -18.8152   17.1449 C   0  0  0  0  0  0  0  0  0  0  0  0
    9.9061  -19.6969   17.1928 O   0  0  0  0  0  0  0  0  0  0  0  0
   10.5588  -17.4987   17.7706 C   0  0  0  0  0  0  0  0  0  0  0  0
   10.2599  -17.7037   19.2257 C   0  0  2  0  0  0  0  0  0  0  0  0
    9.1230  -18.5648   19.4154 N   0  0  0  0  0  0  0  0  0  0  0  0
   10.1461  -16.4373   19.9890 C   0  0  0  0  0  0  0  0  0  0  0  0
   11.1955  -15.7602   20.1561 O   0  0  0  0  0  0  0  0  0  0  0  0
    7.3267  -12.6973   21.3454 C   0  0  0  0  0  0  0  0  0  0  0  0
    7.7187  -13.9390   20.6233 C   0  0  1  0  0  0  0  0  0  0  0  0
    7.9949  -13.7255   19.1816 C   0  0  0  0  0  0  0  0  0  0  0  0
    8.8693  -14.6763   21.3075 C   0  0  2  0  0  0  0  0  0  0  0  0
    8.9534  -15.9442   20.5349 N   0  0  0  0  0  0  0  0  0  0  0  0
    8.5348  -14.9747   22.6969 C   0  0  0  0  0  0  0  0  0  0  0  0
    7.5587  -15.7055   23.0404 O   0  0  0  0  0  0  0  0  0  0  0  0
    7.2884  -11.1332   27.6099 C   0  0  0  0  0  0  0  0  0  0  0  0
    6.1724  -12.3625   26.8767 S   0  0  0  0  0  0  0  0  0  0  0  0
    7.0260  -13.9657   26.6662 C   0  0  0  0  0  0  0  0  0  0  0  0
    7.5234  -14.1249   25.2687 C   0  0  0  0  0  0  0  0  0  0  0  0
    8.9155  -14.6892   25.1481 C   0  0  2  0  0  0  0  0  0  0  0  0
    9.3082  -14.4525   23.7553 N   0  0  0  0  0  0  0  0  0  0  0  0
    8.8779  -16.1440   25.3675 C   0  0  0  0  0  0  0  0  0  0  0  0
    9.5025  -16.8034   26.4204 O   0  0  0  0  0  0  0  0  0  0  0  0
    8.2444  -16.9092   24.5683 O   0  0  0  0  0  0  0  0  0  0  0  0
  1  2  1  0
  2  3  2  0
  4  2  1  0
  5  4  1  0
  5  6  1  6
  7  5  1  0
  7  8  2  0
 10 12  1  0
 10  9  1  1
 11 10  1  0
 12 13  1  6
 13  7  1  0
 14 12  1  0
 15 14  2  0
 17 16  1  0
 18 17  1  0
 19 18  1  0
 20 19  1  6
 20 22  1  0
 20 21  1  0
 21 14  1  0
 22 23  1  0
 24 22  2  0
M  END
$$$$
