NVM.pdb
     RDKit          3D

 24 23  0  0  1  0  0  0  0  0999 V2000
    7.8862  -18.2759   15.6358 N   0  0  0  0  0  0  0  0  0  0  0  0
    7.5387  -18.5623   16.9829 C   0  0  0  0  0  0  0  0  0  0  0  0
    7.5419  -19.7494   17.4025 O   0  0  0  0  0  0  0  0  0  0  0  0
    7.1698  -17.4692   17.9070 C   0  0  0  0  0  0  0  0  0  0  0  0
    8.0151  -17.5742   19.1411 C   0  0  2  0  0  0  0  0  0  0  0  0
    7.3102  -18.2305   20.2101 N   0  0  0  0  0  0  0  0  0  0  0  0
    8.6082  -16.2818   19.5620 C   0  0  0  0  0  0  0  0  0  0  0  0
    9.0582  -15.5251   18.6606 O   0  0  0  0  0  0  0  0  0  0  0  0
    7.8272  -13.8497   19.2292 C   0  0  0  0  0  0  0  0  0  0  0  0
    8.0415  -13.5941   20.6803 C   0  0  1  0  0  0  0  0  0  0  0  0
    6.7972  -13.6602   21.4851 C   0  0  0  0  0  0  0  0  0  0  0  0
    9.1372  -14.4778   21.2753 C   0  0  2  0  0  0  0  0  0  0  0  0
    8.7011  -15.8466   20.8908 N   0  0  0  0  0  0  0  0  0  0  0  0
    9.1557  -14.3642   22.7306 C   0  0  0  0  0  0  0  0  0  0  0  0
    9.2841  -13.2638   23.3451 O   0  0  0  0  0  0  0  0  0  0  0  0
    6.2724  -11.1348   27.0052 C   0  0  0  0  0  0  0  0  0  0  0  0
    6.4498  -12.9362   26.8733 S   0  0  0  0  0  0  0  0  0  0  0  0
    7.3623  -13.3860   25.3539 C   0  0  0  0  0  0  0  0  0  0  0  0
    7.4897  -14.8671   25.2279 C   0  0  0  0  0  0  0  0  0  0  0  0
    8.8925  -15.3690   25.0013 C   0  0  2  0  0  0  0  0  0  0  0  0
    9.0225  -15.5071   23.5473 N   0  0  0  0  0  0  0  0  0  0  0  0
    9.0396  -16.7060   25.5986 C   0  0  0  0  0  0  0  0  0  0  0  0
    9.3616  -16.9488   26.9293 O   0  0  0  0  0  0  0  0  0  0  0  0
    8.8738  -17.7572   24.8964 O   0  0  0  0  0  0  0  0  0  0  0  0
  1  2  1  0
  2  3  2  0
  4  2  1  0
  5  4  1  0
  5  6  1  1
  7  5  1  0
  7  8  2  0
 10 12  1  0
 10  9  1  6
 11 10  1  0
 12 13  1  1
 13  7  1  0
 14 12  1  0
 15 14  2  0
 17 16  1  0
 18 17  1  0
 19 18  1  0
 20 19  1  6
 20 22  1  0
 20 21  1  0
 21 14  1  0
 22 23  1  0
 24 22  2  0
M  END
$$$$
