NVM.pdb
     RDKit          3D

 24 23  0  0  1  0  0  0  0  0999 V2000
    5.1799  -21.3371   24.6245 N   0  0  0  0  0  0  0  0  0  0  0  0
    6.1595  -20.7363   25.4593 C   0  0  0  0  0  0  0  0  0  0  0  0
    6.4135  -21.2210   26.5933 O   0  0  0  0  0  0  0  0  0  0  0  0
    6.8916  -19.5351   25.0054 C   0  0  0  0  0  0  0  0  0  0  0  0
    6.3608  -19.1240   23.6645 C   0  0  2  0  0  0  0  0  0  0  0  0
    6.0727  -20.2656   22.8376 N   0  0  0  0  0  0  0  0  0  0  0  0
    7.2110  -18.1238   22.9745 C   0  0  0  0  0  0  0  0  0  0  0  0
    8.1763  -18.5528   22.2877 O   0  0  0  0  0  0  0  0  0  0  0  0
    7.8354  -13.4208   21.5532 C   0  0  0  0  0  0  0  0  0  0  0  0
    7.0696  -14.5863   22.0749 C   0  0  1  0  0  0  0  0  0  0  0  0
    5.9838  -15.0366   21.1701 C   0  0  0  0  0  0  0  0  0  0  0  0
    7.9753  -15.7488   22.4795 C   0  0  2  0  0  0  0  0  0  0  0  0
    7.0133  -16.7378   23.0345 N   0  0  0  0  0  0  0  0  0  0  0  0
    8.9060  -15.3356   23.5256 C   0  0  0  0  0  0  0  0  0  0  0  0
    8.7109  -14.3381   24.2818 O   0  0  0  0  0  0  0  0  0  0  0  0
    9.9717  -13.1120   28.7576 C   0  0  0  0  0  0  0  0  0  0  0  0
    9.7015  -14.8554   28.3310 S   0  0  0  0  0  0  0  0  0  0  0  0
    9.5997  -15.0684   26.5178 C   0  0  0  0  0  0  0  0  0  0  0  0
   10.7966  -15.7919   25.9984 C   0  0  0  0  0  0  0  0  0  0  0  0
   11.1682  -15.4689   24.5742 C   0  0  2  0  0  0  0  0  0  0  0  0
   10.1001  -16.0512   23.7554 N   0  0  0  0  0  0  0  0  0  0  0  0
   12.4268  -16.1482   24.2274 C   0  0  0  0  0  0  0  0  0  0  0  0
   13.6968  -15.6517   24.4994 O   0  0  0  0  0  0  0  0  0  0  0  0
   12.4182  -17.2758   23.6323 O   0  0  0  0  0  0  0  0  0  0  0  0
  1  2  1  0
  2  3  2  0
  4  2  1  0
  5  4  1  0
  5  6  1  6
  7  5  1  0
  7  8  2  0
 10 12  1  0
 10  9  1  6
 11 10  1  0
 12 13  1  1
 13  7  1  0
 14 12  1  0
 15 14  2  0
 17 16  1  0
 18 17  1  0
 19 18  1  0
 20 19  1  1
 20 22  1  0
 20 21  1  0
 21 14  1  0
 22 23  1  0
 24 22  2  0
M  END
$$$$
