NVM.pdb
     RDKit          3D

 24 23  0  0  1  0  0  0  0  0999 V2000
    4.9605  -19.7868   24.0177 N   0  0  0  0  0  0  0  0  0  0  0  0
    6.0668  -20.3515   23.3287 C   0  0  0  0  0  0  0  0  0  0  0  0
    6.0799  -21.5776   23.0424 O   0  0  0  0  0  0  0  0  0  0  0  0
    7.2148  -19.5055   22.9402 C   0  0  0  0  0  0  0  0  0  0  0  0
    6.8095  -18.6437   21.7819 C   0  0  2  0  0  0  0  0  0  0  0  0
    6.7037  -19.4069   20.5669 N   0  0  0  0  0  0  0  0  0  0  0  0
    7.6542  -17.4354   21.6212 C   0  0  0  0  0  0  0  0  0  0  0  0
    8.8614  -17.6053   21.3027 O   0  0  0  0  0  0  0  0  0  0  0  0
    7.6815  -12.4891   21.1848 C   0  0  0  0  0  0  0  0  0  0  0  0
    7.0916  -13.8559   21.1587 C   0  0  1  0  0  0  0  0  0  0  0  0
    6.4906  -14.2185   19.8518 C   0  0  0  0  0  0  0  0  0  0  0  0
    8.0719  -14.9264   21.6369 C   0  0  2  0  0  0  0  0  0  0  0  0
    7.2014  -16.1212   21.7987 N   0  0  0  0  0  0  0  0  0  0  0  0
    8.6416  -14.5609   22.9304 C   0  0  0  0  0  0  0  0  0  0  0  0
    8.7872  -13.3636   23.3178 O   0  0  0  0  0  0  0  0  0  0  0  0
    6.3357  -11.4244   25.7515 C   0  0  0  0  0  0  0  0  0  0  0  0
    7.3513  -12.2477   27.0104 S   0  0  0  0  0  0  0  0  0  0  0  0
    8.8077  -13.0455   26.2451 C   0  0  0  0  0  0  0  0  0  0  0  0
    8.5003  -14.4519   25.8536 C   0  0  0  0  0  0  0  0  0  0  0  0
    9.6170  -15.1748   25.1455 C   0  0  2  0  0  0  0  0  0  0  0  0
    9.0652  -15.5525   23.8404 N   0  0  0  0  0  0  0  0  0  0  0  0
    9.9436  -16.4109   25.8745 C   0  0  0  0  0  0  0  0  0  0  0  0
   10.8693  -16.5006   26.9081 O   0  0  0  0  0  0  0  0  0  0  0  0
    9.3710  -17.5121   25.5828 O   0  0  0  0  0  0  0  0  0  0  0  0
  1  2  1  0
  2  3  2  0
  4  2  1  0
  5  4  1  0
  5  6  1  6
  7  5  1  0
  7  8  2  0
 10 12  1  0
 10  9  1  6
 11 10  1  0
 12 13  1  1
 13  7  1  0
 14 12  1  0
 15 14  2  0
 17 16  1  0
 18 17  1  0
 19 18  1  0
 20 19  1  1
 20 22  1  0
 20 21  1  0
 21 14  1  0
 22 23  1  0
 24 22  2  0
M  END
$$$$
