NVM.pdb
     RDKit          3D

 24 23  0  0  1  0  0  0  0  0999 V2000
   15.3482  -16.4885   19.7887 N   0  0  0  0  0  0  0  0  0  0  0  0
   14.7942  -15.3672   19.1155 C   0  0  0  0  0  0  0  0  0  0  0  0
   15.1852  -15.0627   17.9580 O   0  0  0  0  0  0  0  0  0  0  0  0
   13.7523  -14.5457   19.7668 C   0  0  0  0  0  0  0  0  0  0  0  0
   12.4092  -15.1391   19.4625 C   0  0  2  0  0  0  0  0  0  0  0  0
   12.1149  -15.0869   18.0551 N   0  0  0  0  0  0  0  0  0  0  0  0
   11.3149  -14.5791   20.2921 C   0  0  0  0  0  0  0  0  0  0  0  0
   11.4248  -13.3831   20.6731 O   0  0  0  0  0  0  0  0  0  0  0  0
    6.5654  -14.9304   21.5178 C   0  0  0  0  0  0  0  0  0  0  0  0
    7.8160  -15.2202   20.7636 C   0  0  1  0  0  0  0  0  0  0  0  0
    7.7691  -14.7850   19.3463 C   0  0  0  0  0  0  0  0  0  0  0  0
    9.0625  -14.6871   21.4689 C   0  0  2  0  0  0  0  0  0  0  0  0
   10.1700  -15.2883   20.6793 N   0  0  0  0  0  0  0  0  0  0  0  0
    9.1242  -15.1755   22.8433 C   0  0  0  0  0  0  0  0  0  0  0  0
    9.8539  -16.1440   23.2097 O   0  0  0  0  0  0  0  0  0  0  0  0
    6.4943  -11.3978   28.2673 C   0  0  0  0  0  0  0  0  0  0  0  0
    6.4703  -11.5750   26.4611 S   0  0  0  0  0  0  0  0  0  0  0  0
    7.9127  -12.5416   25.8877 C   0  0  0  0  0  0  0  0  0  0  0  0
    7.6722  -14.0049   26.0506 C   0  0  0  0  0  0  0  0  0  0  0  0
    8.6042  -14.8947   25.2693 C   0  0  2  0  0  0  0  0  0  0  0  0
    8.3554  -14.5716   23.8608 N   0  0  0  0  0  0  0  0  0  0  0  0
    8.2350  -16.3032   25.4833 C   0  0  0  0  0  0  0  0  0  0  0  0
    8.8330  -17.1472   26.4126 O   0  0  0  0  0  0  0  0  0  0  0  0
    7.3083  -16.8473   24.7971 O   0  0  0  0  0  0  0  0  0  0  0  0
  1  2  1  0
  2  3  2  0
  4  2  1  0
  5  4  1  0
  5  6  1  6
  7  5  1  0
  7  8  2  0
 10 12  1  0
 10  9  1  1
 11 10  1  0
 12 13  1  6
 13  7  1  0
 14 12  1  0
 15 14  2  0
 17 16  1  0
 18 17  1  0
 19 18  1  0
 20 19  1  1
 20 22  1  0
 20 21  1  0
 21 14  1  0
 22 23  1  0
 24 22  2  0
M  END
$$$$
