NVM.pdb
     RDKit          3D

 24 23  0  0  1  0  0  0  0  0999 V2000
   14.1163  -18.3454   18.3841 N   0  0  0  0  0  0  0  0  0  0  0  0
   12.8180  -18.1217   17.8535 C   0  0  0  0  0  0  0  0  0  0  0  0
   12.3518  -18.8859   16.9681 O   0  0  0  0  0  0  0  0  0  0  0  0
   11.9998  -16.9890   18.3355 C   0  0  0  0  0  0  0  0  0  0  0  0
   11.0190  -17.4985   19.3490 C   0  0  2  0  0  0  0  0  0  0  0  0
    9.9005  -18.1501   18.7208 N   0  0  0  0  0  0  0  0  0  0  0  0
   10.5982  -16.4707   20.3318 C   0  0  0  0  0  0  0  0  0  0  0  0
   11.5026  -15.8673   20.9686 O   0  0  0  0  0  0  0  0  0  0  0  0
    6.7093  -14.1479   22.4281 C   0  0  0  0  0  0  0  0  0  0  0  0
    7.4258  -14.8471   21.3260 C   0  0  1  0  0  0  0  0  0  0  0  0
    7.3700  -14.1268   20.0304 C   0  0  0  0  0  0  0  0  0  0  0  0
    8.8623  -15.2113   21.6993 C   0  0  2  0  0  0  0  0  0  0  0  0
    9.2664  -16.1263   20.5988 N   0  0  0  0  0  0  0  0  0  0  0  0
    8.8968  -15.9319   22.9684 C   0  0  0  0  0  0  0  0  0  0  0  0
    8.5679  -17.1491   23.0912 O   0  0  0  0  0  0  0  0  0  0  0  0
    9.5293  -12.5825   28.4689 C   0  0  0  0  0  0  0  0  0  0  0  0
   10.1974  -14.1731   29.0326 S   0  0  0  0  0  0  0  0  0  0  0  0
    9.7573  -15.5092   27.8644 C   0  0  0  0  0  0  0  0  0  0  0  0
    9.7352  -15.0037   26.4610 C   0  0  0  0  0  0  0  0  0  0  0  0
    9.3536  -16.0258   25.4214 C   0  0  2  0  0  0  0  0  0  0  0  0
    9.3154  -15.2904   24.1534 N   0  0  0  0  0  0  0  0  0  0  0  0
    7.9969  -16.5254   25.6967 C   0  0  0  0  0  0  0  0  0  0  0  0
    6.8245  -15.9150   25.2651 O   0  0  0  0  0  0  0  0  0  0  0  0
    7.8178  -17.5893   26.3761 O   0  0  0  0  0  0  0  0  0  0  0  0
  1  2  1  0
  2  3  2  0
  4  2  1  0
  5  4  1  0
  5  6  1  6
  7  5  1  0
  7  8  2  0
 10 12  1  0
 10  9  1  1
 11 10  1  0
 12 13  1  6
 13  7  1  0
 14 12  1  0
 15 14  2  0
 17 16  1  0
 18 17  1  0
 19 18  1  0
 20 19  1  1
 20 22  1  0
 20 21  1  0
 21 14  1  0
 22 23  1  0
 24 22  2  0
M  END
$$$$
