NVM.pdb
     RDKit          3D

 24 23  0  0  1  0  0  0  0  0999 V2000
   14.4805  -14.6097   16.3121 N   0  0  0  0  0  0  0  0  0  0  0  0
   14.5488  -14.7476   17.7241 C   0  0  0  0  0  0  0  0  0  0  0  0
   15.4939  -15.3870   18.2563 O   0  0  0  0  0  0  0  0  0  0  0  0
   13.5107  -14.1414   18.5842 C   0  0  0  0  0  0  0  0  0  0  0  0
   12.6902  -15.2372   19.1962 C   0  0  2  0  0  0  0  0  0  0  0  0
   12.0330  -16.0296   18.1911 N   0  0  0  0  0  0  0  0  0  0  0  0
   11.7550  -14.7598   20.2435 C   0  0  0  0  0  0  0  0  0  0  0  0
   12.2528  -14.2366   21.2760 O   0  0  0  0  0  0  0  0  0  0  0  0
    6.9564  -13.9274   21.3012 C   0  0  0  0  0  0  0  0  0  0  0  0
    8.1250  -14.1409   20.4036 C   0  0  1  0  0  0  0  0  0  0  0  0
    8.2272  -13.1401   19.3135 C   0  0  0  0  0  0  0  0  0  0  0  0
    9.4400  -14.2629   21.1727 C   0  0  2  0  0  0  0  0  0  0  0  0
   10.3590  -14.8506   20.1620 N   0  0  0  0  0  0  0  0  0  0  0  0
    9.2960  -15.1861   22.2943 C   0  0  0  0  0  0  0  0  0  0  0  0
    9.3895  -16.4445   22.1814 O   0  0  0  0  0  0  0  0  0  0  0  0
    9.2896  -14.5003   30.0780 C   0  0  0  0  0  0  0  0  0  0  0  0
   10.0789  -14.0016   28.5216 S   0  0  0  0  0  0  0  0  0  0  0  0
    9.7966  -15.2573   27.2227 C   0  0  0  0  0  0  0  0  0  0  0  0
    9.5982  -14.6122   25.8923 C   0  0  0  0  0  0  0  0  0  0  0  0
    9.2925  -15.5618   24.7629 C   0  0  2  0  0  0  0  0  0  0  0  0
    9.0434  -14.7075   23.5974 N   0  0  0  0  0  0  0  0  0  0  0  0
    8.0525  -16.2969   25.0594 C   0  0  0  0  0  0  0  0  0  0  0  0
    7.9882  -17.4866   25.7761 O   0  0  0  0  0  0  0  0  0  0  0  0
    6.9234  -15.8632   24.6559 O   0  0  0  0  0  0  0  0  0  0  0  0
  1  2  1  0
  2  3  2  0
  4  2  1  0
  5  4  1  0
  5  6  1  6
  7  5  1  0
  7  8  2  0
 10 12  1  0
 10  9  1  1
 11 10  1  0
 12 13  1  6
 13  7  1  0
 14 12  1  0
 15 14  2  0
 17 16  1  0
 18 17  1  0
 19 18  1  0
 20 19  1  1
 20 22  1  0
 20 21  1  0
 21 14  1  0
 22 23  1  0
 24 22  2  0
M  END
$$$$
