EVR.pdb
     RDKit          3D

 28 27  0  0  1  0  0  0  0  0999 V2000
    9.3405  -17.3888   16.9432 N   0  0  0  0  0  0  0  0  0  0  0  0
    9.8185  -17.9131   18.2314 C   0  0  1  0  0  0  0  0  0  0  0  0
   11.2136  -18.4995   18.0029 C   0  0  0  0  0  0  0  0  0  0  0  0
   11.4478  -18.7491   16.5407 C   0  0  0  0  0  0  0  0  0  0  0  0
   12.7326  -19.3969   16.2907 C   0  0  0  0  0  0  0  0  0  0  0  0
   12.9036  -20.6039   16.4185 O   0  0  0  0  0  0  0  0  0  0  0  0
    9.9892  -16.7739   19.1783 C   0  0  0  0  0  0  0  0  0  0  0  0
   11.1297  -16.4521   19.5951 O   0  0  0  0  0  0  0  0  0  0  0  0
   13.8206  -18.6051   15.8836 O   0  0  0  0  0  0  0  0  0  0  0  0
    6.3610  -14.6104   20.2544 C   0  0  0  0  0  0  0  0  0  0  0  0
    7.7516  -14.0461   20.1233 C   0  0  1  0  0  0  0  0  0  0  0  0
    7.7805  -12.8342   21.0720 C   0  0  0  0  0  0  0  0  0  0  0  0
    8.8504  -14.9402   20.5411 C   0  0  2  0  0  0  0  0  0  0  0  0
    8.8650  -16.0693   19.5984 N   0  0  0  0  0  0  0  0  0  0  0  0
    8.8098  -15.5359   21.8706 C   0  0  0  0  0  0  0  0  0  0  0  0
    8.1106  -16.5885   22.0587 O   0  0  0  0  0  0  0  0  0  0  0  0
   14.0074  -19.2951   27.8671 N   0  0  0  0  0  0  0  0  0  0  0  0
   12.6821  -19.1717   28.3785 C   0  0  0  0  0  0  0  0  0  0  0  0
   12.4228  -19.6807   29.5472 N   0  0  0  0  0  0  0  0  0  0  0  0
   11.6419  -18.5184   27.6659 N   0  0  0  0  0  0  0  0  0  0  0  0
   11.9911  -17.6075   26.5514 C   0  0  0  0  0  0  0  0  0  0  0  0
   10.6960  -17.0917   26.0062 C   0  0  0  0  0  0  0  0  0  0  0  0
   10.7678  -16.2492   24.7966 C   0  0  0  0  0  0  0  0  0  0  0  0
    9.4315  -15.7948   24.2964 C   0  0  2  0  0  0  0  0  0  0  0  0
    9.4697  -15.0874   23.0362 N   0  0  0  0  0  0  0  0  0  0  0  0
    8.6988  -15.0641   25.3460 C   0  0  0  0  0  0  0  0  0  0  0  0
    8.1615  -15.7076   26.2742 O   0  0  0  0  0  0  0  0  0  0  0  0
    8.5972  -13.7002   25.3198 O   0  0  0  0  0  0  0  0  0  0  0  0
  2  1  1  6
  2  3  1  0
  4  3  1  0
  4  5  1  0
  5  6  2  0
  7  2  1  0
  8  7  2  0
  9  5  1  0
 11 12  1  1
 11 10  1  0
 11 13  1  0
 13 14  1  6
 14  7  1  0
 15 13  1  0
 15 25  1  0
 16 15  2  0
 18 17  1  0
 19 18  2  0
 20 18  1  0
 21 20  1  0
 22 23  1  0
 22 21  1  0
 24 23  1  1
 24 26  1  0
 24 25  1  0
 26 28  1  0
 27 26  2  0
M  END
$$$$
