EVR.pdb
     RDKit          3D

 28 27  0  0  1  0  0  0  0  0999 V2000
    6.1979  -15.7742   22.8034 N   0  0  0  0  0  0  0  0  0  0  0  0
    7.3308  -15.1470   22.1064 C   0  0  1  0  0  0  0  0  0  0  0  0
    6.7607  -14.1034   21.1430 C   0  0  0  0  0  0  0  0  0  0  0  0
    7.8687  -13.3353   20.4815 C   0  0  0  0  0  0  0  0  0  0  0  0
    8.2322  -13.8989   19.1841 C   0  0  0  0  0  0  0  0  0  0  0  0
    7.6810  -14.8862   18.7111 O   0  0  0  0  0  0  0  0  0  0  0  0
    8.1509  -14.3991   23.1021 C   0  0  0  0  0  0  0  0  0  0  0  0
    9.2941  -13.9740   22.8013 O   0  0  0  0  0  0  0  0  0  0  0  0
    9.2560  -13.2831   18.4430 O   0  0  0  0  0  0  0  0  0  0  0  0
    6.0039  -12.5151   25.4511 C   0  0  0  0  0  0  0  0  0  0  0  0
    7.3922  -12.5072   26.0359 C   0  0  1  0  0  0  0  0  0  0  0  0
    7.1987  -12.8439   27.5255 C   0  0  0  0  0  0  0  0  0  0  0  0
    8.3257  -13.5131   25.4898 C   0  0  2  0  0  0  0  0  0  0  0  0
    7.6337  -14.1781   24.3750 N   0  0  0  0  0  0  0  0  0  0  0  0
    8.7969  -14.5846   26.3580 C   0  0  0  0  0  0  0  0  0  0  0  0
    7.9993  -15.5360   26.6596 O   0  0  0  0  0  0  0  0  0  0  0  0
   10.7655  -19.8553   23.2331 N   0  0  0  0  0  0  0  0  0  0  0  0
   11.9762  -19.1025   23.2084 C   0  0  0  0  0  0  0  0  0  0  0  0
   12.7821  -19.2646   22.2003 N   0  0  0  0  0  0  0  0  0  0  0  0
   12.3328  -18.1883   24.2349 N   0  0  0  0  0  0  0  0  0  0  0  0
   11.9736  -18.5006   25.6374 C   0  0  0  0  0  0  0  0  0  0  0  0
   11.0885  -17.3873   26.1044 C   0  0  0  0  0  0  0  0  0  0  0  0
   11.4481  -16.7371   27.3795 C   0  0  0  0  0  0  0  0  0  0  0  0
   10.4185  -15.7697   27.8760 C   0  0  2  0  0  0  0  0  0  0  0  0
   10.0765  -14.7223   26.9400 N   0  0  0  0  0  0  0  0  0  0  0  0
   10.7802  -15.2561   29.2093 C   0  0  0  0  0  0  0  0  0  0  0  0
   10.8615  -14.0203   29.3845 O   0  0  0  0  0  0  0  0  0  0  0  0
   11.0279  -16.1060   30.2522 O   0  0  0  0  0  0  0  0  0  0  0  0
  2  1  1  1
  2  3  1  0
  4  3  1  0
  4  5  1  0
  5  6  2  0
  7  2  1  0
  8  7  2  0
  9  5  1  0
 11 12  1  1
 11 10  1  0
 11 13  1  0
 13 14  1  6
 14  7  1  0
 15 13  1  0
 15 25  1  0
 16 15  2  0
 18 17  1  0
 19 18  2  0
 20 18  1  0
 21 20  1  0
 22 23  1  0
 22 21  1  0
 24 23  1  6
 24 26  1  0
 24 25  1  0
 26 28  1  0
 27 26  2  0
M  END
$$$$
