EVR.pdb
     RDKit          3D

 28 27  0  0  1  0  0  0  0  0999 V2000
    7.5130  -16.4557   21.4011 N   0  0  0  0  0  0  0  0  0  0  0  0
    6.7707  -16.0873   22.6160 C   0  0  1  0  0  0  0  0  0  0  0  0
    6.4969  -17.3738   23.3985 C   0  0  0  0  0  0  0  0  0  0  0  0
    6.8879  -18.5767   22.5891 C   0  0  0  0  0  0  0  0  0  0  0  0
    7.2313  -19.7199   23.4307 C   0  0  0  0  0  0  0  0  0  0  0  0
    7.4254  -19.6219   24.6369 O   0  0  0  0  0  0  0  0  0  0  0  0
    7.6506  -15.2476   23.4786 C   0  0  0  0  0  0  0  0  0  0  0  0
    8.9010  -15.3374   23.3986 O   0  0  0  0  0  0  0  0  0  0  0  0
    7.3422  -20.9884   22.8347 O   0  0  0  0  0  0  0  0  0  0  0  0
    5.6992  -12.7700   26.5386 C   0  0  0  0  0  0  0  0  0  0  0  0
    6.8308  -12.3643   25.6306 C   0  0  1  0  0  0  0  0  0  0  0  0
    7.6248  -11.3144   26.4289 C   0  0  0  0  0  0  0  0  0  0  0  0
    7.7825  -13.4351   25.2713 C   0  0  2  0  0  0  0  0  0  0  0  0
    7.0679  -14.3606   24.3788 N   0  0  0  0  0  0  0  0  0  0  0  0
    8.3469  -14.2631   26.3295 C   0  0  0  0  0  0  0  0  0  0  0  0
    7.6152  -15.1562   26.8765 O   0  0  0  0  0  0  0  0  0  0  0  0
   10.5400  -21.4414   27.5150 N   0  0  0  0  0  0  0  0  0  0  0  0
   11.0924  -20.7373   26.4049 C   0  0  0  0  0  0  0  0  0  0  0  0
   11.8088  -21.4035   25.5475 N   0  0  0  0  0  0  0  0  0  0  0  0
   10.8913  -19.3465   26.2008 N   0  0  0  0  0  0  0  0  0  0  0  0
   11.2948  -18.3947   27.2615 C   0  0  0  0  0  0  0  0  0  0  0  0
   11.0292  -17.0239   26.7220 C   0  0  0  0  0  0  0  0  0  0  0  0
   11.3149  -15.8860   27.6173 C   0  0  0  0  0  0  0  0  0  0  0  0
   10.1121  -15.0546   27.9406 C   0  0  2  0  0  0  0  0  0  0  0  0
    9.6554  -14.2113   26.8588 N   0  0  0  0  0  0  0  0  0  0  0  0
   10.3061  -14.3189   29.2030 C   0  0  0  0  0  0  0  0  0  0  0  0
   10.3213  -13.0684   29.1830 O   0  0  0  0  0  0  0  0  0  0  0  0
   10.4699  -14.9796   30.3895 O   0  0  0  0  0  0  0  0  0  0  0  0
  2  1  1  6
  2  3  1  0
  4  3  1  0
  4  5  1  0
  5  6  2  0
  7  2  1  0
  8  7  2  0
  9  5  1  0
 11 12  1  1
 11 10  1  0
 11 13  1  0
 13 14  1  6
 14  7  1  0
 15 13  1  0
 15 25  1  0
 16 15  2  0
 18 17  1  0
 19 18  2  0
 20 18  1  0
 21 20  1  0
 22 23  1  0
 22 21  1  0
 24 23  1  6
 24 26  1  0
 24 25  1  0
 26 28  1  0
 27 26  2  0
M  END
$$$$
