EVR.pdb
     RDKit          3D

 28 27  0  0  1  0  0  0  0  0999 V2000
    9.7440  -17.4360   18.3434 N   0  0  0  0  0  0  0  0  0  0  0  0
   10.4008  -17.7291   19.6262 C   0  0  1  0  0  0  0  0  0  0  0  0
   11.8959  -17.9054   19.3505 C   0  0  0  0  0  0  0  0  0  0  0  0
   12.2024  -17.6269   17.9071 C   0  0  0  0  0  0  0  0  0  0  0  0
   13.6167  -17.8179   17.5969 C   0  0  0  0  0  0  0  0  0  0  0  0
   14.3017  -16.9537   17.0618 O   0  0  0  0  0  0  0  0  0  0  0  0
   10.2726  -16.5373   20.5131 C   0  0  0  0  0  0  0  0  0  0  0  0
   11.2118  -16.2030   21.2774 O   0  0  0  0  0  0  0  0  0  0  0  0
   14.2213  -19.0434   17.9272 O   0  0  0  0  0  0  0  0  0  0  0  0
    8.0640  -13.5921   19.0444 C   0  0  0  0  0  0  0  0  0  0  0  0
    7.7855  -13.8237   20.5066 C   0  0  1  0  0  0  0  0  0  0  0  0
    6.5110  -14.6865   20.5375 C   0  0  0  0  0  0  0  0  0  0  0  0
    8.8225  -14.5693   21.2484 C   0  0  2  0  0  0  0  0  0  0  0  0
    9.0943  -15.7974   20.4857 N   0  0  0  0  0  0  0  0  0  0  0  0
    8.5416  -15.0041   22.6107 C   0  0  0  0  0  0  0  0  0  0  0  0
    7.9026  -16.0949   22.7955 O   0  0  0  0  0  0  0  0  0  0  0  0
   11.9361  -15.6572   27.9501 N   0  0  0  0  0  0  0  0  0  0  0  0
   11.2379  -15.9639   29.1549 C   0  0  0  0  0  0  0  0  0  0  0  0
   11.6443  -16.9775   29.8616 N   0  0  0  0  0  0  0  0  0  0  0  0
   10.1238  -15.2099   29.6098 N   0  0  0  0  0  0  0  0  0  0  0  0
    9.6033  -14.1092   28.7664 C   0  0  0  0  0  0  0  0  0  0  0  0
    8.9563  -14.7552   27.5812 C   0  0  0  0  0  0  0  0  0  0  0  0
    9.2977  -14.2098   26.2530 C   0  0  0  0  0  0  0  0  0  0  0  0
    8.5611  -14.8625   25.1242 C   0  0  2  0  0  0  0  0  0  0  0  0
    8.8963  -14.3536   23.8133 N   0  0  0  0  0  0  0  0  0  0  0  0
    7.1103  -14.8780   25.3833 C   0  0  0  0  0  0  0  0  0  0  0  0
    6.3908  -13.9919   24.8717 O   0  0  0  0  0  0  0  0  0  0  0  0
    6.5419  -15.8410   26.1712 O   0  0  0  0  0  0  0  0  0  0  0  0
  2  1  1  6
  2  3  1  0
  4  3  1  0
  4  5  1  0
  5  6  2  0
  7  2  1  0
  8  7  2  0
  9  5  1  0
 11 12  1  6
 11 10  1  0
 11 13  1  0
 13 14  1  6
 14  7  1  0
 15 13  1  0
 15 25  1  0
 16 15  2  0
 18 17  1  0
 19 18  2  0
 20 18  1  0
 21 20  1  0
 22 23  1  0
 22 21  1  0
 24 23  1  1
 24 26  1  0
 24 25  1  0
 26 28  1  0
 27 26  2  0
M  END
$$$$
