EVR.pdb
     RDKit          3D

 28 27  0  0  1  0  0  0  0  0999 V2000
    7.5442  -17.9037   17.3039 N   0  0  0  0  0  0  0  0  0  0  0  0
    8.9998  -17.7310   17.1847 C   0  0  1  0  0  0  0  0  0  0  0  0
    9.3023  -17.3429   15.7355 C   0  0  0  0  0  0  0  0  0  0  0  0
   10.4544  -18.1462   15.2040 C   0  0  0  0  0  0  0  0  0  0  0  0
   11.0399  -17.5461   14.0081 C   0  0  0  0  0  0  0  0  0  0  0  0
   10.4566  -16.7051   13.3337 O   0  0  0  0  0  0  0  0  0  0  0  0
    9.4152  -16.5731   18.0275 C   0  0  0  0  0  0  0  0  0  0  0  0
   10.6189  -16.2179   18.0803 O   0  0  0  0  0  0  0  0  0  0  0  0
   12.3282  -17.9466   13.6128 O   0  0  0  0  0  0  0  0  0  0  0  0
    6.2871  -14.5769   20.4565 C   0  0  0  0  0  0  0  0  0  0  0  0
    7.4913  -13.9775   19.7782 C   0  0  1  0  0  0  0  0  0  0  0  0
    7.8435  -12.7356   20.6168 C   0  0  0  0  0  0  0  0  0  0  0  0
    8.6997  -14.8260   19.7457 C   0  0  2  0  0  0  0  0  0  0  0  0
    8.4498  -15.8887   18.7598 N   0  0  0  0  0  0  0  0  0  0  0  0
    9.1174  -15.5076   20.9642 C   0  0  0  0  0  0  0  0  0  0  0  0
    8.7736  -16.7249   21.1442 O   0  0  0  0  0  0  0  0  0  0  0  0
   17.5518  -16.0386   23.3951 N   0  0  0  0  0  0  0  0  0  0  0  0
   16.7702  -17.1692   23.7745 C   0  0  0  0  0  0  0  0  0  0  0  0
   17.3889  -18.2740   24.0724 N   0  0  0  0  0  0  0  0  0  0  0  0
   15.3521  -17.1352   23.8396 N   0  0  0  0  0  0  0  0  0  0  0  0
   14.6319  -15.9589   23.2996 C   0  0  0  0  0  0  0  0  0  0  0  0
   13.1722  -16.2741   23.4021 C   0  0  0  0  0  0  0  0  0  0  0  0
   12.2451  -15.3971   22.6606 C   0  0  0  0  0  0  0  0  0  0  0  0
   10.8039  -15.7738   22.8143 C   0  0  2  0  0  0  0  0  0  0  0  0
    9.8877  -14.9817   22.0249 N   0  0  0  0  0  0  0  0  0  0  0  0
   10.4281  -15.8425   24.2378 C   0  0  0  0  0  0  0  0  0  0  0  0
   11.0830  -16.5814   25.0057 O   0  0  0  0  0  0  0  0  0  0  0  0
    9.3790  -15.1149   24.7291 O   0  0  0  0  0  0  0  0  0  0  0  0
  2  1  1  6
  2  3  1  0
  4  3  1  0
  4  5  1  0
  5  6  2  0
  7  2  1  0
  8  7  2  0
  9  5  1  0
 11 12  1  1
 11 10  1  0
 11 13  1  0
 13 14  1  6
 14  7  1  0
 15 13  1  0
 15 25  1  0
 16 15  2  0
 18 17  1  0
 19 18  2  0
 20 18  1  0
 21 20  1  0
 22 23  1  0
 22 21  1  0
 24 23  1  1
 24 26  1  0
 24 25  1  0
 26 28  1  0
 27 26  2  0
M  END
$$$$
