ATP.pdb
     RDKit          3D

 20 20  0  0  1  0  0  0  0  0999 V2000
    8.9316  -12.2921   19.4345 C   0  0  0  0  0  0  0  0  0  0  0  0
    8.7692  -13.7929   19.3941 C   0  0  2  0  0  0  0  0  0  0  0  0
    8.1508  -14.1471   18.1495 N   0  0  0  0  0  0  0  0  0  0  0  0
    7.9053  -14.1990   20.5559 C   0  0  0  0  0  0  0  0  0  0  0  0
    6.7757  -14.7139   20.3843 O   0  0  0  0  0  0  0  0  0  0  0  0
    6.3184  -15.9607   21.6232 C   0  0  0  0  0  0  0  0  0  0  0  0
    7.2312  -15.9390   22.8090 C   0  0  1  0  0  0  0  0  0  0  0  0
    8.3359  -16.7710   22.6548 O   0  0  0  0  0  0  0  0  0  0  0  0
    7.6447  -14.4988   23.0575 C   0  0  2  0  0  0  0  0  0  0  0  0
    8.3728  -13.9977   21.8782 N   0  0  0  0  0  0  0  0  0  0  0  0
    8.4092  -14.2936   24.2805 C   0  0  0  0  0  0  0  0  0  0  0  0
    9.6628  -14.3635   24.2617 O   0  0  0  0  0  0  0  0  0  0  0  0
    7.7604  -14.0103   25.5129 N   0  0  0  0  0  0  0  0  0  0  0  0
    6.3489  -13.9909   25.8239 C   0  0  0  0  0  0  0  0  0  0  0  0
    6.2275  -12.8332   26.8069 C   0  0  0  0  0  0  0  0  0  0  0  0
    7.6080  -12.4650   27.2273 C   0  0  0  0  0  0  0  0  0  0  0  0
    8.4302  -13.6412   26.7720 C   0  0  1  0  0  0  0  0  0  0  0  0
    8.3286  -14.7083   27.7913 C   0  0  0  0  0  0  0  0  0  0  0  0
    8.8897  -14.6920   28.9154 O   0  0  0  0  0  0  0  0  0  0  0  0
    7.5571  -15.8519   27.5340 O   0  0  0  0  0  0  0  0  0  0  0  0
  2  1  1  6
  3  2  1  0
  4  2  1  0
  4  5  2  0
  7  6  1  6
  7  9  1  0
  8  7  1  0
  9 10  1  6
  9 11  1  0
 10  4  1  0
 11 13  1  0
 12 11  2  0
 13 17  1  0
 13 14  1  0
 14 15  1  0
 16 15  1  0
 17 16  1  0
 18 20  1  0
 17 18  1  1
 19 18  2  0
M  END
$$$$
