ATP.pdb
     RDKit          3D

 20 20  0  0  1  0  0  0  0  0999 V2000
    8.6928  -12.2624   19.4169 C   0  0  0  0  0  0  0  0  0  0  0  0
    8.5960  -13.7690   19.4534 C   0  0  2  0  0  0  0  0  0  0  0  0
    7.9636  -14.2106   18.2444 N   0  0  0  0  0  0  0  0  0  0  0  0
    7.7796  -14.1539   20.6561 C   0  0  0  0  0  0  0  0  0  0  0  0
    6.6192  -14.6128   20.5411 O   0  0  0  0  0  0  0  0  0  0  0  0
    6.2501  -15.9642   21.7769 C   0  0  0  0  0  0  0  0  0  0  0  0
    7.2632  -15.9831   22.8783 C   0  0  1  0  0  0  0  0  0  0  0  0
    8.3585  -16.7917   22.5901 O   0  0  0  0  0  0  0  0  0  0  0  0
    7.6823  -14.5500   23.1561 C   0  0  2  0  0  0  0  0  0  0  0  0
    8.3288  -13.9966   21.9528 N   0  0  0  0  0  0  0  0  0  0  0  0
    8.5232  -14.3854   24.3342 C   0  0  0  0  0  0  0  0  0  0  0  0
    9.7726  -14.4629   24.2350 O   0  0  0  0  0  0  0  0  0  0  0  0
    7.9549  -14.1337   25.6124 N   0  0  0  0  0  0  0  0  0  0  0  0
    6.5643  -14.0534   25.9989 C   0  0  0  0  0  0  0  0  0  0  0  0
    6.5599  -12.9455   27.0449 C   0  0  0  0  0  0  0  0  0  0  0  0
    7.9788  -12.6772   27.4091 C   0  0  0  0  0  0  0  0  0  0  0  0
    8.7075  -13.8707   26.8511 C   0  0  1  0  0  0  0  0  0  0  0  0
    8.5959  -14.9840   27.8185 C   0  0  0  0  0  0  0  0  0  0  0  0
    7.7987  -15.9504   27.7221 O   0  0  0  0  0  0  0  0  0  0  0  0
    9.4226  -15.0126   28.9522 O   0  0  0  0  0  0  0  0  0  0  0  0
  2  1  1  6
  3  2  1  0
  4  2  1  0
  4  5  2  0
  7  6  1  6
  7  9  1  0
  8  7  1  0
  9 10  1  6
  9 11  1  0
 10  4  1  0
 11 13  1  0
 12 11  2  0
 13 17  1  0
 13 14  1  0
 14 15  1  0
 16 15  1  0
 17 16  1  0
 18 20  1  0
 17 18  1  1
 19 18  2  0
M  END
$$$$
