ATP.pdb
     RDKit          3D

 20 20  0  0  1  0  0  0  0  0999 V2000
   11.3449  -18.5624   21.0290 C   0  0  0  0  0  0  0  0  0  0  0  0
   11.1171  -17.3868   20.1089 C   0  0  2  0  0  0  0  0  0  0  0  0
   12.3742  -17.0210   19.5235 N   0  0  0  0  0  0  0  0  0  0  0  0
   10.5588  -16.2561   20.9281 C   0  0  0  0  0  0  0  0  0  0  0  0
   11.2913  -15.5591   21.6685 O   0  0  0  0  0  0  0  0  0  0  0  0
    7.4435  -13.7436   19.9754 C   0  0  0  0  0  0  0  0  0  0  0  0
    7.1871  -14.5903   21.1825 C   0  0  1  0  0  0  0  0  0  0  0  0
    6.3937  -15.6994   20.9050 O   0  0  0  0  0  0  0  0  0  0  0  0
    8.5294  -14.9938   21.7674 C   0  0  2  0  0  0  0  0  0  0  0  0
    9.1732  -15.9664   20.8664 N   0  0  0  0  0  0  0  0  0  0  0  0
    8.4653  -15.4966   23.1331 C   0  0  0  0  0  0  0  0  0  0  0  0
    9.2190  -16.4322   23.4985 O   0  0  0  0  0  0  0  0  0  0  0  0
    7.5575  -14.9440   24.0769 N   0  0  0  0  0  0  0  0  0  0  0  0
    6.5985  -13.8753   23.9110 C   0  0  0  0  0  0  0  0  0  0  0  0
    6.6491  -13.1544   25.2523 C   0  0  0  0  0  0  0  0  0  0  0  0
    7.3978  -14.0303   26.1958 C   0  0  0  0  0  0  0  0  0  0  0  0
    7.4237  -15.3570   25.4845 C   0  0  1  0  0  0  0  0  0  0  0  0
    6.1445  -16.0535   25.7423 C   0  0  0  0  0  0  0  0  0  0  0  0
    5.8244  -16.6030   26.8259 O   0  0  0  0  0  0  0  0  0  0  0  0
    5.1757  -16.1365   24.7304 O   0  0  0  0  0  0  0  0  0  0  0  0
  2  1  1  1
  3  2  1  0
  4  2  1  0
  4  5  2  0
  7  6  1  6
  7  9  1  0
  8  7  1  0
  9 10  1  6
  9 11  1  0
 10  4  1  0
 11 13  1  0
 12 11  2  0
 13 17  1  0
 13 14  1  0
 14 15  1  0
 16 15  1  0
 17 16  1  0
 18 20  1  0
 17 18  1  6
 19 18  2  0
M  END
$$$$
