ATP.pdb
     RDKit          3D

 20 20  0  0  1  0  0  0  0  0999 V2000
   11.4713  -13.6068   19.6411 C   0  0  0  0  0  0  0  0  0  0  0  0
   10.0266  -13.9513   19.3674 C   0  0  2  0  0  0  0  0  0  0  0  0
    9.5597  -13.1215   18.2950 N   0  0  0  0  0  0  0  0  0  0  0  0
    9.2410  -13.6951   20.6237 C   0  0  0  0  0  0  0  0  0  0  0  0
    8.8209  -12.5501   20.9120 O   0  0  0  0  0  0  0  0  0  0  0  0
    6.1091  -15.0504   21.6211 C   0  0  0  0  0  0  0  0  0  0  0  0
    6.9944  -15.4888   22.7452 C   0  0  1  0  0  0  0  0  0  0  0  0
    7.3506  -16.8313   22.6596 O   0  0  0  0  0  0  0  0  0  0  0  0
    8.2151  -14.5852   22.7618 C   0  0  2  0  0  0  0  0  0  0  0  0
    8.9656  -14.7684   21.5067 N   0  0  0  0  0  0  0  0  0  0  0  0
    9.0755  -14.7556   23.9248 C   0  0  0  0  0  0  0  0  0  0  0  0
   10.2483  -15.1826   23.7867 O   0  0  0  0  0  0  0  0  0  0  0  0
    8.6129  -14.4439   25.2322 N   0  0  0  0  0  0  0  0  0  0  0  0
    7.3515  -13.8733   25.6477 C   0  0  0  0  0  0  0  0  0  0  0  0
    7.7466  -12.9713   26.8103 C   0  0  0  0  0  0  0  0  0  0  0  0
    9.1478  -13.3155   27.1792 C   0  0  0  0  0  0  0  0  0  0  0  0
    9.3733  -14.6298   26.4801 C   0  0  1  0  0  0  0  0  0  0  0  0
    8.8121  -15.7108   27.3194 C   0  0  0  0  0  0  0  0  0  0  0  0
    7.7365  -16.3194   27.0930 O   0  0  0  0  0  0  0  0  0  0  0  0
    9.4948  -16.1291   28.4719 O   0  0  0  0  0  0  0  0  0  0  0  0
  2  1  1  1
  3  2  1  0
  4  2  1  0
  4  5  2  0
  7  6  1  6
  7  9  1  0
  8  7  1  0
  9 10  1  6
  9 11  1  0
 10  4  1  0
 11 13  1  0
 12 11  2  0
 13 17  1  0
 13 14  1  0
 14 15  1  0
 16 15  1  0
 17 16  1  0
 18 20  1  0
 17 18  1  1
 19 18  2  0
M  END
$$$$
