ATP.pdb
     RDKit          3D

 20 20  0  0  1  0  0  0  0  0999 V2000
    6.2039  -19.9629   21.3997 C   0  0  0  0  0  0  0  0  0  0  0  0
    5.9834  -19.2557   22.7157 C   0  0  2  0  0  0  0  0  0  0  0  0
    4.6496  -19.5364   23.1616 N   0  0  0  0  0  0  0  0  0  0  0  0
    6.1731  -17.7814   22.4892 C   0  0  0  0  0  0  0  0  0  0  0  0
    5.2478  -17.0620   22.0452 O   0  0  0  0  0  0  0  0  0  0  0  0
    7.5292  -15.1068   24.8493 C   0  0  0  0  0  0  0  0  0  0  0  0
    8.4632  -15.1721   23.6818 C   0  0  1  0  0  0  0  0  0  0  0  0
    9.6234  -15.8889   23.9584 O   0  0  0  0  0  0  0  0  0  0  0  0
    7.7055  -15.7645   22.5063 C   0  0  2  0  0  0  0  0  0  0  0  0
    7.4243  -17.1847   22.7824 N   0  0  0  0  0  0  0  0  0  0  0  0
    8.3630  -15.5941   21.2176 C   0  0  0  0  0  0  0  0  0  0  0  0
    8.6087  -16.5921   20.4962 O   0  0  0  0  0  0  0  0  0  0  0  0
    8.7375  -14.3054   20.7494 N   0  0  0  0  0  0  0  0  0  0  0  0
    8.5622  -13.0145   21.3757 C   0  0  0  0  0  0  0  0  0  0  0  0
    8.2561  -12.0977   20.1979 C   0  0  0  0  0  0  0  0  0  0  0  0
    8.5759  -12.8542   18.9555 C   0  0  0  0  0  0  0  0  0  0  0  0
    9.3903  -14.0151   19.4611 C   0  0  1  0  0  0  0  0  0  0  0  0
   10.7897  -13.5679   19.6332 C   0  0  0  0  0  0  0  0  0  0  0  0
   11.3068  -13.2083   20.7204 O   0  0  0  0  0  0  0  0  0  0  0  0
   11.6518  -13.5225   18.5268 O   0  0  0  0  0  0  0  0  0  0  0  0
  2  1  1  6
  3  2  1  0
  4  2  1  0
  4  5  2  0
  7  6  1  1
  7  9  1  0
  8  7  1  0
  9 10  1  1
  9 11  1  0
 10  4  1  0
 11 13  1  0
 12 11  2  0
 13 17  1  0
 13 14  1  0
 14 15  1  0
 16 15  1  0
 17 16  1  0
 18 20  1  0
 17 18  1  1
 19 18  2  0
M  END
$$$$
