ATP.pdb
     RDKit          3D

 20 20  0  0  1  0  0  0  0  0999 V2000
   11.0733  -13.0309   19.9847 C   0  0  0  0  0  0  0  0  0  0  0  0
    9.8908  -13.8535   19.5315 C   0  0  2  0  0  0  0  0  0  0  0  0
    9.4664  -13.3673   18.2508 N   0  0  0  0  0  0  0  0  0  0  0  0
    8.7975  -13.6987   20.5521 C   0  0  0  0  0  0  0  0  0  0  0  0
    7.9166  -12.8144   20.4400 O   0  0  0  0  0  0  0  0  0  0  0  0
    6.0614  -15.4660   21.3768 C   0  0  0  0  0  0  0  0  0  0  0  0
    6.7734  -15.5513   22.6903 C   0  0  1  0  0  0  0  0  0  0  0  0
    7.3854  -16.7845   22.8933 O   0  0  0  0  0  0  0  0  0  0  0  0
    7.7746  -14.4111   22.7572 C   0  0  2  0  0  0  0  0  0  0  0  0
    8.7562  -14.5693   21.6692 N   0  0  0  0  0  0  0  0  0  0  0  0
    8.4322  -14.2612   24.0483 C   0  0  0  0  0  0  0  0  0  0  0  0
    9.6779  -14.3890   24.1420 O   0  0  0  0  0  0  0  0  0  0  0  0
    7.6866  -13.9678   25.2223 N   0  0  0  0  0  0  0  0  0  0  0  0
    6.2657  -13.7523   25.3772 C   0  0  0  0  0  0  0  0  0  0  0  0
    6.1954  -12.6612   26.4384 C   0  0  0  0  0  0  0  0  0  0  0  0
    7.5533  -12.5412   27.0381 C   0  0  0  0  0  0  0  0  0  0  0  0
    8.2449  -13.7957   26.5746 C   0  0  1  0  0  0  0  0  0  0  0  0
    7.8661  -14.9028   27.4794 C   0  0  0  0  0  0  0  0  0  0  0  0
    6.9999  -15.7781   27.2300 O   0  0  0  0  0  0  0  0  0  0  0  0
    8.4928  -15.0326   28.7283 O   0  0  0  0  0  0  0  0  0  0  0  0
  2  1  1  1
  3  2  1  0
  4  2  1  0
  4  5  2  0
  7  6  1  6
  7  9  1  0
  8  7  1  0
  9 10  1  6
  9 11  1  0
 10  4  1  0
 11 13  1  0
 12 11  2  0
 13 17  1  0
 13 14  1  0
 14 15  1  0
 16 15  1  0
 17 16  1  0
 18 20  1  0
 17 18  1  1
 19 18  2  0
M  END
$$$$
