ATP.pdb
     RDKit          3D

 20 20  0  0  1  0  0  0  0  0999 V2000
    8.4503  -12.6451   18.5394 C   0  0  0  0  0  0  0  0  0  0  0  0
    9.3280  -13.2789   19.5923 C   0  0  2  0  0  0  0  0  0  0  0  0
    9.6263  -14.6208   19.1839 N   0  0  0  0  0  0  0  0  0  0  0  0
    8.5743  -13.2702   20.8934 C   0  0  0  0  0  0  0  0  0  0  0  0
    8.1523  -12.2041   21.3993 O   0  0  0  0  0  0  0  0  0  0  0  0
    5.7816  -15.7432   21.7169 C   0  0  0  0  0  0  0  0  0  0  0  0
    6.7456  -15.8174   22.8593 C   0  0  1  0  0  0  0  0  0  0  0  0
    7.5320  -16.9650   22.8280 O   0  0  0  0  0  0  0  0  0  0  0  0
    7.5927  -14.5569   22.8420 C   0  0  2  0  0  0  0  0  0  0  0  0
    8.3317  -14.4921   21.5685 N   0  0  0  0  0  0  0  0  0  0  0  0
    8.4874  -14.4161   23.9830 C   0  0  0  0  0  0  0  0  0  0  0  0
    9.7226  -14.5937   23.8436 O   0  0  0  0  0  0  0  0  0  0  0  0
    7.9882  -14.0759   25.2696 N   0  0  0  0  0  0  0  0  0  0  0  0
    6.6435  -13.7285   25.6700 C   0  0  0  0  0  0  0  0  0  0  0  0
    6.8646  -12.6568   26.7302 C   0  0  0  0  0  0  0  0  0  0  0  0
    8.3109  -12.6790   27.0847 C   0  0  0  0  0  0  0  0  0  0  0  0
    8.7861  -13.9845   26.5045 C   0  0  1  0  0  0  0  0  0  0  0  0
    8.4633  -15.0679   27.4585 C   0  0  0  0  0  0  0  0  0  0  0  0
    7.4944  -15.8609   27.3533 O   0  0  0  0  0  0  0  0  0  0  0  0
    9.2707  -15.2701   28.5883 O   0  0  0  0  0  0  0  0  0  0  0  0
  2  1  1  6
  3  2  1  0
  4  2  1  0
  4  5  2  0
  7  6  1  6
  7  9  1  0
  8  7  1  0
  9 10  1  6
  9 11  1  0
 10  4  1  0
 11 13  1  0
 12 11  2  0
 13 17  1  0
 13 14  1  0
 14 15  1  0
 16 15  1  0
 17 16  1  0
 18 20  1  0
 17 18  1  1
 19 18  2  0
M  END
$$$$
