CTQ.pdb
     RDKit          3D

 23 22  0  0  1  0  0  0  0  0999 V2000
   18.5673  -17.1711  -16.3883 N   0  0  0  0  0  0  0  0  0  0  0  0
   17.8310  -15.9976  -16.8999 C   0  0  1  0  0  0  0  0  0  0  0  0
   16.4243  -16.1701  -16.4271 C   0  0  0  0  0  0  0  0  0  0  0  0
   15.6588  -17.5935  -17.1965 S   0  0  0  0  0  0  0  0  0  0  0  0
   18.4971  -14.7872  -16.4078 C   0  0  0  0  0  0  0  0  0  0  0  0
   19.1691  -14.8521  -15.3395 O   0  0  0  0  0  0  0  0  0  0  0  0
   21.2185  -12.8096  -17.6491 C   0  0  0  0  0  0  0  0  0  0  0  0
   20.1361  -11.7621  -17.4597 C   0  0  1  0  0  0  0  0  0  0  0  0
   19.6068  -11.3213  -18.6370 O   0  0  0  0  0  0  0  0  0  0  0  0
   19.1196  -12.3563  -16.5076 C   0  0  2  0  0  0  0  0  0  0  0  0
   18.4589  -13.5063  -17.0412 N   0  0  0  0  0  0  0  0  0  0  0  0
   18.2281  -11.3236  -15.9398 C   0  0  0  0  0  0  0  0  0  0  0  0
   17.0330  -11.2534  -16.3875 O   0  0  0  0  0  0  0  0  0  0  0  0
   16.7620   -9.5938  -10.4440 N   0  0  0  0  0  0  0  0  0  0  0  0
   15.6144   -9.5590  -11.2923 C   0  0  0  0  0  0  0  0  0  0  0  0
   14.4738   -9.5874  -10.7723 O   0  0  0  0  0  0  0  0  0  0  0  0
   15.8692   -9.4910  -12.7517 C   0  0  0  0  0  0  0  0  0  0  0  0
   17.3176   -9.5501  -13.1021 C   0  0  0  0  0  0  0  0  0  0  0  0
   17.6380   -9.3096  -14.5454 C   0  0  2  0  0  0  0  0  0  0  0  0
   18.5596  -10.3922  -14.9411 N   0  0  0  0  0  0  0  0  0  0  0  0
   18.3831   -8.0285  -14.6580 C   0  0  0  0  0  0  0  0  0  0  0  0
   17.7616   -6.7962  -14.7261 O   0  0  0  0  0  0  0  0  0  0  0  0
   19.6522   -8.0150  -14.6975 O   0  0  0  0  0  0  0  0  0  0  0  0
  2  1  1  1
  2  3  1  0
  2  5  1  0
  3  4  1  0
  5  6  2  0
  5 11  1  0
  8  7  1  6
  8 10  1  0
  8  9  1  0
 10 12  1  0
 10 11  1  6
 12 20  1  0
 12 13  2  0
 14 15  1  0
 15 16  2  0
 17 15  1  0
 17 18  1  0
 19 18  1  1
 19 21  1  0
 20 19  1  0
 21 22  1  0
 23 21  2  0
M  END
$$$$
