CTQ.pdb
     RDKit          3D

 23 22  0  0  1  0  0  0  0  0999 V2000
   16.2577  -14.5907  -16.9016 N   0  0  0  0  0  0  0  0  0  0  0  0
   17.2295  -14.0848  -15.9114 C   0  0  1  0  0  0  0  0  0  0  0  0
   18.3799  -15.0370  -15.9567 C   0  0  0  0  0  0  0  0  0  0  0  0
   18.1273  -16.4026  -14.8273 S   0  0  0  0  0  0  0  0  0  0  0  0
   17.5667  -12.7017  -16.2640 C   0  0  0  0  0  0  0  0  0  0  0  0
   18.0007  -12.4567  -17.4252 O   0  0  0  0  0  0  0  0  0  0  0  0
   15.5043   -9.9104  -16.8801 C   0  0  0  0  0  0  0  0  0  0  0  0
   16.4241   -9.3764  -15.7968 C   0  0  1  0  0  0  0  0  0  0  0  0
   15.8259   -9.3090  -14.5728 O   0  0  0  0  0  0  0  0  0  0  0  0
   17.6738  -10.2307  -15.8291 C   0  0  2  0  0  0  0  0  0  0  0  0
   17.4449  -11.5734  -15.3949 N   0  0  0  0  0  0  0  0  0  0  0  0
   18.8222   -9.5501  -15.1954 C   0  0  0  0  0  0  0  0  0  0  0  0
   19.1428   -9.8981  -14.0081 O   0  0  0  0  0  0  0  0  0  0  0  0
   22.0868   -4.3778  -13.7618 N   0  0  0  0  0  0  0  0  0  0  0  0
   22.0564   -4.7790  -15.1314 C   0  0  0  0  0  0  0  0  0  0  0  0
   21.6634   -3.9599  -15.9956 O   0  0  0  0  0  0  0  0  0  0  0  0
   22.5012   -6.1623  -15.4282 C   0  0  0  0  0  0  0  0  0  0  0  0
   21.4228   -7.0204  -15.9980 C   0  0  0  0  0  0  0  0  0  0  0  0
   20.6602   -7.8375  -15.0008 C   0  0  2  0  0  0  0  0  0  0  0  0
   19.6152   -8.5415  -15.7691 N   0  0  0  0  0  0  0  0  0  0  0  0
   19.9737   -6.9153  -14.0588 C   0  0  0  0  0  0  0  0  0  0  0  0
   20.4514   -6.6346  -12.7929 O   0  0  0  0  0  0  0  0  0  0  0  0
   18.8935   -6.3343  -14.3878 O   0  0  0  0  0  0  0  0  0  0  0  0
  2  1  1  6
  2  3  1  0
  2  5  1  0
  3  4  1  0
  5  6  2  0
  5 11  1  0
  8  7  1  6
  8 10  1  0
  8  9  1  0
 10 12  1  0
 10 11  1  1
 12 20  1  0
 12 13  2  0
 14 15  1  0
 15 16  2  0
 17 15  1  0
 17 18  1  0
 19 18  1  6
 19 21  1  0
 20 19  1  0
 21 22  1  0
 23 21  2  0
M  END
$$$$
