CTQ.pdb
     RDKit          3D

 23 22  0  0  1  0  0  0  0  0999 V2000
   24.7986  -19.8787  -15.2952 N   0  0  0  0  0  0  0  0  0  0  0  0
   23.9320  -19.1185  -16.2183 C   0  0  1  0  0  0  0  0  0  0  0  0
   22.5414  -19.5894  -15.9412 C   0  0  0  0  0  0  0  0  0  0  0  0
   22.4310  -21.3717  -16.0646 S   0  0  0  0  0  0  0  0  0  0  0  0
   24.1515  -17.6880  -15.9809 C   0  0  0  0  0  0  0  0  0  0  0  0
   23.9303  -17.2198  -14.8282 O   0  0  0  0  0  0  0  0  0  0  0  0
   27.0322  -15.4691  -15.9479 C   0  0  0  0  0  0  0  0  0  0  0  0
   26.1096  -14.8056  -16.9545 C   0  0  1  0  0  0  0  0  0  0  0  0
   26.5311  -14.9514  -18.2435 O   0  0  0  0  0  0  0  0  0  0  0  0
   24.7202  -15.3476  -16.6922 C   0  0  2  0  0  0  0  0  0  0  0  0
   24.6070  -16.7480  -16.9568 N   0  0  0  0  0  0  0  0  0  0  0  0
   23.6750  -14.5032  -17.3070 C   0  0  0  0  0  0  0  0  0  0  0  0
   22.7673  -15.0818  -17.9961 O   0  0  0  0  0  0  0  0  0  0  0  0
   19.0183  -13.1904  -15.6112 N   0  0  0  0  0  0  0  0  0  0  0  0
   18.8288  -12.2471  -16.6657 C   0  0  0  0  0  0  0  0  0  0  0  0
   17.7005  -11.7204  -16.8138 O   0  0  0  0  0  0  0  0  0  0  0  0
   20.0068  -11.9599  -17.5196 C   0  0  0  0  0  0  0  0  0  0  0  0
   21.2348  -12.6938  -17.0985 C   0  0  0  0  0  0  0  0  0  0  0  0
   22.4765  -12.3584  -17.8661 C   0  0  2  0  0  0  0  0  0  0  0  0
   23.5697  -13.1049  -17.2136 N   0  0  0  0  0  0  0  0  0  0  0  0
   22.7631  -10.9102  -17.6939 C   0  0  0  0  0  0  0  0  0  0  0  0
   23.8001  -10.4322  -16.9158 O   0  0  0  0  0  0  0  0  0  0  0  0
   22.0482  -10.0323  -18.2691 O   0  0  0  0  0  0  0  0  0  0  0  0
  2  1  1  1
  2  3  1  0
  2  5  1  0
  3  4  1  0
  5  6  2  0
  5 11  1  0
  8  7  1  1
  8 10  1  0
  8  9  1  0
 10 12  1  0
 10 11  1  6
 12 20  1  0
 12 13  2  0
 14 15  1  0
 15 16  2  0
 17 15  1  0
 17 18  1  0
 19 18  1  1
 19 21  1  0
 20 19  1  0
 21 22  1  0
 23 21  2  0
M  END
$$$$
