CTQ.pdb
     RDKit          3D

 23 22  0  0  1  0  0  0  0  0999 V2000
   17.9802  -14.3312  -15.4844 N   0  0  0  0  0  0  0  0  0  0  0  0
   19.2739  -14.2213  -16.1882 C   0  0  1  0  0  0  0  0  0  0  0  0
   19.2020  -15.2013  -17.3137 C   0  0  0  0  0  0  0  0  0  0  0  0
   18.7587  -16.8303  -16.7186 S   0  0  0  0  0  0  0  0  0  0  0  0
   19.4539  -12.8262  -16.6032 C   0  0  0  0  0  0  0  0  0  0  0  0
   20.4672  -12.5210  -17.2937 O   0  0  0  0  0  0  0  0  0  0  0  0
   17.1864  -10.5826  -18.5584 C   0  0  0  0  0  0  0  0  0  0  0  0
   17.5500   -9.7685  -17.3297 C   0  0  1  0  0  0  0  0  0  0  0  0
   16.5149   -9.6347  -16.4515 O   0  0  0  0  0  0  0  0  0  0  0  0
   18.7871  -10.4087  -16.7359 C   0  0  2  0  0  0  0  0  0  0  0  0
   18.5654  -11.7500  -16.2938 N   0  0  0  0  0  0  0  0  0  0  0  0
   19.4485   -9.5227  -15.7555 C   0  0  0  0  0  0  0  0  0  0  0  0
   19.3145   -9.7982  -14.5147 O   0  0  0  0  0  0  0  0  0  0  0  0
   23.4458   -4.8875  -16.9041 N   0  0  0  0  0  0  0  0  0  0  0  0
   23.2277   -4.6117  -15.5206 C   0  0  0  0  0  0  0  0  0  0  0  0
   23.8188   -3.6389  -14.9948 O   0  0  0  0  0  0  0  0  0  0  0  0
   22.2999   -5.5176  -14.8011 C   0  0  0  0  0  0  0  0  0  0  0  0
   21.6976   -6.5637  -15.6768 C   0  0  0  0  0  0  0  0  0  0  0  0
   20.7961   -7.5385  -14.9835 C   0  0  2  0  0  0  0  0  0  0  0  0
   20.2242   -8.3875  -16.0466 N   0  0  0  0  0  0  0  0  0  0  0  0
   19.6737   -6.7871  -14.3633 C   0  0  0  0  0  0  0  0  0  0  0  0
   19.7034   -6.3212  -13.0627 O   0  0  0  0  0  0  0  0  0  0  0  0
   18.6161   -6.5372  -15.0202 O   0  0  0  0  0  0  0  0  0  0  0  0
  2  1  1  6
  2  3  1  0
  2  5  1  0
  3  4  1  0
  5  6  2  0
  5 11  1  0
  8  7  1  6
  8 10  1  0
  8  9  1  0
 10 12  1  0
 10 11  1  1
 12 20  1  0
 12 13  2  0
 14 15  1  0
 15 16  2  0
 17 15  1  0
 17 18  1  0
 19 18  1  6
 19 21  1  0
 20 19  1  0
 21 22  1  0
 23 21  2  0
M  END
$$$$
