CTQ.pdb
     RDKit          3D

 23 22  0  0  1  0  0  0  0  0999 V2000
   18.7307  -11.3354  -15.9645 N   0  0  0  0  0  0  0  0  0  0  0  0
   18.1807   -9.9770  -15.7825 C   0  0  1  0  0  0  0  0  0  0  0  0
   16.7593  -10.0563  -16.2360 C   0  0  0  0  0  0  0  0  0  0  0  0
   16.6543  -10.0413  -18.0229 S   0  0  0  0  0  0  0  0  0  0  0  0
   18.3533   -9.5961  -14.3767 C   0  0  0  0  0  0  0  0  0  0  0  0
   18.1657  -10.4677  -13.4811 O   0  0  0  0  0  0  0  0  0  0  0  0
   21.3049   -8.2889  -12.5356 C   0  0  0  0  0  0  0  0  0  0  0  0
   20.2033   -7.2908  -12.2273 C   0  0  1  0  0  0  0  0  0  0  0  0
   20.3635   -6.1008  -12.8744 O   0  0  0  0  0  0  0  0  0  0  0  0
   18.8920   -7.9866  -12.5259 C   0  0  2  0  0  0  0  0  0  0  0  0
   18.7263   -8.2970  -13.9115 N   0  0  0  0  0  0  0  0  0  0  0  0
   17.7476   -7.2990  -11.8924 C   0  0  0  0  0  0  0  0  0  0  0  0
   17.0919   -6.4570  -12.5959 O   0  0  0  0  0  0  0  0  0  0  0  0
   13.4141   -9.3995   -8.4218 N   0  0  0  0  0  0  0  0  0  0  0  0
   13.1502   -8.0320   -8.1090 C   0  0  0  0  0  0  0  0  0  0  0  0
   12.1672   -7.7541   -7.3818 O   0  0  0  0  0  0  0  0  0  0  0  0
   14.0799   -7.0284   -8.6816 C   0  0  0  0  0  0  0  0  0  0  0  0
   15.2635   -7.6360   -9.3552 C   0  0  0  0  0  0  0  0  0  0  0  0
   16.1963   -6.6647  -10.0109 C   0  0  2  0  0  0  0  0  0  0  0  0
   17.2939   -7.4747  -10.5740 N   0  0  0  0  0  0  0  0  0  0  0  0
   16.7828   -5.7898   -8.9622 C   0  0  0  0  0  0  0  0  0  0  0  0
   16.1800   -4.6258   -8.5250 O   0  0  0  0  0  0  0  0  0  0  0  0
   17.8891   -6.0842   -8.4127 O   0  0  0  0  0  0  0  0  0  0  0  0
  2  1  1  1
  2  3  1  0
  2  5  1  0
  3  4  1  0
  5  6  2  0
  5 11  1  0
  8  7  1  6
  8 10  1  0
  8  9  1  0
 10 12  1  0
 10 11  1  6
 12 20  1  0
 12 13  2  0
 14 15  1  0
 15 16  2  0
 17 15  1  0
 17 18  1  0
 19 18  1  1
 19 21  1  0
 20 19  1  0
 21 22  1  0
 23 21  2  0
M  END
$$$$
