CTQ.pdb
     RDKit          3D

 23 22  0  0  1  0  0  0  0  0999 V2000
   21.1632  -18.0646  -16.1567 N   0  0  0  0  0  0  0  0  0  0  0  0
   20.9736  -16.9851  -17.1465 C   0  0  1  0  0  0  0  0  0  0  0  0
   19.5638  -17.1207  -17.6219 C   0  0  0  0  0  0  0  0  0  0  0  0
   19.3090  -18.6959  -18.4331 S   0  0  0  0  0  0  0  0  0  0  0  0
   21.2789  -15.7066  -16.4958 C   0  0  0  0  0  0  0  0  0  0  0  0
   20.7757  -15.4635  -15.3624 O   0  0  0  0  0  0  0  0  0  0  0  0
   24.4054  -14.0416  -15.3286 C   0  0  0  0  0  0  0  0  0  0  0  0
   23.7703  -13.0358  -16.2719 C   0  0  1  0  0  0  0  0  0  0  0  0
   24.4239  -12.9348  -17.4648 O   0  0  0  0  0  0  0  0  0  0  0  0
   22.3107  -13.4193  -16.3959 C   0  0  2  0  0  0  0  0  0  0  0  0
   22.1169  -14.6826  -17.0365 N   0  0  0  0  0  0  0  0  0  0  0  0
   21.4937  -12.3097  -16.9295 C   0  0  0  0  0  0  0  0  0  0  0  0
   21.0982  -12.3877  -18.1424 O   0  0  0  0  0  0  0  0  0  0  0  0
   16.8292   -9.6034  -14.5862 N   0  0  0  0  0  0  0  0  0  0  0  0
   16.9739   -8.6645  -15.6516 C   0  0  0  0  0  0  0  0  0  0  0  0
   16.0691   -7.8174  -15.8416 O   0  0  0  0  0  0  0  0  0  0  0  0
   18.2090   -8.7690  -16.4657 C   0  0  0  0  0  0  0  0  0  0  0  0
   19.0802   -9.9140  -16.0734 C   0  0  0  0  0  0  0  0  0  0  0  0
   20.3297  -10.0754  -16.8835 C   0  0  2  0  0  0  0  0  0  0  0  0
   21.0971  -11.1552  -16.2331 N   0  0  0  0  0  0  0  0  0  0  0  0
   21.1322   -8.8295  -16.7695 C   0  0  0  0  0  0  0  0  0  0  0  0
   22.2485   -8.7207  -15.9625 O   0  0  0  0  0  0  0  0  0  0  0  0
   20.8158   -7.7892  -17.4254 O   0  0  0  0  0  0  0  0  0  0  0  0
  2  1  1  1
  2  3  1  0
  2  5  1  0
  3  4  1  0
  5  6  2  0
  5 11  1  0
  8  7  1  1
  8 10  1  0
  8  9  1  0
 10 12  1  0
 10 11  1  6
 12 20  1  0
 12 13  2  0
 14 15  1  0
 15 16  2  0
 17 15  1  0
 17 18  1  0
 19 18  1  1
 19 21  1  0
 20 19  1  0
 21 22  1  0
 23 21  2  0
M  END
$$$$
