CTQ.pdb
     RDKit          3D

 23 22  0  0  1  0  0  0  0  0999 V2000
   29.1458  -19.5950  -18.4669 N   0  0  0  0  0  0  0  0  0  0  0  0
   28.1401  -20.5363  -17.9345 C   0  0  1  0  0  0  0  0  0  0  0  0
   28.8638  -21.3674  -16.9257 C   0  0  0  0  0  0  0  0  0  0  0  0
   27.7635  -22.5584  -16.1674 S   0  0  0  0  0  0  0  0  0  0  0  0
   27.0215  -19.7564  -17.3947 C   0  0  0  0  0  0  0  0  0  0  0  0
   27.2392  -18.9577  -16.4399 O   0  0  0  0  0  0  0  0  0  0  0  0
   24.6503  -17.1933  -18.7500 C   0  0  0  0  0  0  0  0  0  0  0  0
   23.7656  -18.3083  -18.2220 C   0  0  1  0  0  0  0  0  0  0  0  0
   23.2092  -19.0637  -19.2121 O   0  0  0  0  0  0  0  0  0  0  0  0
   24.6033  -19.0972  -17.2378 C   0  0  2  0  0  0  0  0  0  0  0  0
   25.6715  -19.8142  -17.8612 N   0  0  0  0  0  0  0  0  0  0  0  0
   23.7658  -19.8905  -16.3142 C   0  0  0  0  0  0  0  0  0  0  0  0
   23.6490  -21.1432  -16.5393 O   0  0  0  0  0  0  0  0  0  0  0  0
   20.1417  -19.0789  -10.3299 N   0  0  0  0  0  0  0  0  0  0  0  0
   21.3084  -19.8167  -10.6932 C   0  0  0  0  0  0  0  0  0  0  0  0
   22.2534  -19.9010   -9.8733 O   0  0  0  0  0  0  0  0  0  0  0  0
   21.3091  -20.4373  -12.0401 C   0  0  0  0  0  0  0  0  0  0  0  0
   22.2137  -19.7505  -13.0066 C   0  0  0  0  0  0  0  0  0  0  0  0
   22.1530  -20.2599  -14.4139 C   0  0  2  0  0  0  0  0  0  0  0  0
   23.0704  -19.4060  -15.1932 N   0  0  0  0  0  0  0  0  0  0  0  0
   20.7815  -20.0345  -14.9404 C   0  0  0  0  0  0  0  0  0  0  0  0
   19.7900  -20.9963  -14.9030 O   0  0  0  0  0  0  0  0  0  0  0  0
   20.4580  -18.9214  -15.4588 O   0  0  0  0  0  0  0  0  0  0  0  0
  2  1  1  1
  2  3  1  0
  2  5  1  0
  3  4  1  0
  5  6  2  0
  5 11  1  0
  8  7  1  6
  8 10  1  0
  8  9  1  0
 10 12  1  0
 10 11  1  6
 12 20  1  0
 12 13  2  0
 14 15  1  0
 15 16  2  0
 17 15  1  0
 17 18  1  0
 19 18  1  1
 19 21  1  0
 20 19  1  0
 21 22  1  0
 23 21  2  0
M  END
$$$$
