CTQ.pdb
     RDKit          3D

 23 22  0  0  1  0  0  0  0  0999 V2000
   19.7966  -15.9918  -17.6843 N   0  0  0  0  0  0  0  0  0  0  0  0
   19.1084  -15.0846  -16.7438 C   0  0  1  0  0  0  0  0  0  0  0  0
   19.2266  -15.7330  -15.4030 C   0  0  0  0  0  0  0  0  0  0  0  0
   17.7059  -16.5649  -14.9564 S   0  0  0  0  0  0  0  0  0  0  0  0
   19.7345  -13.7619  -16.8405 C   0  0  0  0  0  0  0  0  0  0  0  0
   20.9852  -13.6896  -17.0060 O   0  0  0  0  0  0  0  0  0  0  0  0
   19.5028  -11.4549  -19.4512 C   0  0  0  0  0  0  0  0  0  0  0  0
   19.1344  -10.5743  -18.2707 C   0  0  1  0  0  0  0  0  0  0  0  0
   17.8019  -10.2889  -18.2117 O   0  0  0  0  0  0  0  0  0  0  0  0
   19.6766  -11.2588  -17.0336 C   0  0  2  0  0  0  0  0  0  0  0  0
   19.0441  -12.5125  -16.7654 N   0  0  0  0  0  0  0  0  0  0  0  0
   19.7567  -10.3341  -15.8836 C   0  0  0  0  0  0  0  0  0  0  0  0
   18.8818  -10.4521  -14.9593 O   0  0  0  0  0  0  0  0  0  0  0  0
   23.4819   -5.3806  -15.3226 N   0  0  0  0  0  0  0  0  0  0  0  0
   22.8214   -5.2647  -14.0624 C   0  0  0  0  0  0  0  0  0  0  0  0
   23.1086   -4.3015  -13.3126 O   0  0  0  0  0  0  0  0  0  0  0  0
   21.8277   -6.3155  -13.7343 C   0  0  0  0  0  0  0  0  0  0  0  0
   21.6792   -7.3432  -14.8047 C   0  0  0  0  0  0  0  0  0  0  0  0
   20.6579   -8.4054  -14.5358 C   0  0  2  0  0  0  0  0  0  0  0  0
   20.7100   -9.3192  -15.6935 N   0  0  0  0  0  0  0  0  0  0  0  0
   19.3114   -7.7762  -14.5269 C   0  0  0  0  0  0  0  0  0  0  0  0
   18.6359   -7.4201  -15.6785 O   0  0  0  0  0  0  0  0  0  0  0  0
   18.7132   -7.5343  -13.4332 O   0  0  0  0  0  0  0  0  0  0  0  0
  2  1  1  6
  2  3  1  0
  2  5  1  0
  3  4  1  0
  5  6  2  0
  5 11  1  0
  8  7  1  6
  8 10  1  0
  8  9  1  0
 10 12  1  0
 10 11  1  1
 12 20  1  0
 12 13  2  0
 14 15  1  0
 15 16  2  0
 17 15  1  0
 17 18  1  0
 19 18  1  6
 19 21  1  0
 20 19  1  0
 21 22  1  0
 23 21  2  0
M  END
$$$$
