CTQ.pdb
     RDKit          3D

 23 22  0  0  1  0  0  0  0  0999 V2000
   24.7306  -13.8235  -17.4255 N   0  0  0  0  0  0  0  0  0  0  0  0
   24.8957  -12.8186  -16.3559 C   0  0  1  0  0  0  0  0  0  0  0  0
   26.3587  -12.5191  -16.3102 C   0  0  0  0  0  0  0  0  0  0  0  0
   27.2783  -13.9098  -15.6588 S   0  0  0  0  0  0  0  0  0  0  0  0
   24.0455  -11.6665  -16.6731 C   0  0  0  0  0  0  0  0  0  0  0  0
   24.0534  -11.2083  -17.8508 O   0  0  0  0  0  0  0  0  0  0  0  0
   20.6339  -11.3905  -17.1178 C   0  0  0  0  0  0  0  0  0  0  0  0
   20.8479  -10.3088  -16.0744 C   0  0  1  0  0  0  0  0  0  0  0  0
   20.4182  -10.6719  -14.8318 O   0  0  0  0  0  0  0  0  0  0  0  0
   22.3126   -9.9298  -16.1370 C   0  0  2  0  0  0  0  0  0  0  0  0
   23.1832  -10.9960  -15.7510 N   0  0  0  0  0  0  0  0  0  0  0  0
   22.5739   -8.6327  -15.4790 C   0  0  0  0  0  0  0  0  0  0  0  0
   23.0803   -8.6486  -14.3056 O   0  0  0  0  0  0  0  0  0  0  0  0
   21.7839   -2.9491  -17.9154 N   0  0  0  0  0  0  0  0  0  0  0  0
   22.2088   -2.5437  -16.6143 C   0  0  0  0  0  0  0  0  0  0  0  0
   22.2784   -1.3195  -16.3521 O   0  0  0  0  0  0  0  0  0  0  0  0
   22.5411   -3.6265  -15.6569 C   0  0  0  0  0  0  0  0  0  0  0  0
   22.3320   -4.9935  -16.2150 C   0  0  0  0  0  0  0  0  0  0  0  0
   22.6700   -6.1219  -15.2898 C   0  0  2  0  0  0  0  0  0  0  0  0
   22.3204   -7.3586  -16.0153 N   0  0  0  0  0  0  0  0  0  0  0  0
   21.7839   -6.0398  -14.0993 C   0  0  0  0  0  0  0  0  0  0  0  0
   22.1523   -5.4120  -12.9248 O   0  0  0  0  0  0  0  0  0  0  0  0
   20.6240   -6.5564  -14.1144 O   0  0  0  0  0  0  0  0  0  0  0  0
  2  1  1  6
  2  3  1  0
  2  5  1  0
  3  4  1  0
  5  6  2  0
  5 11  1  0
  8  7  1  6
  8 10  1  0
  8  9  1  0
 10 12  1  0
 10 11  1  1
 12 20  1  0
 12 13  2  0
 14 15  1  0
 15 16  2  0
 17 15  1  0
 17 18  1  0
 19 18  1  6
 19 21  1  0
 20 19  1  0
 21 22  1  0
 23 21  2  0
M  END
$$$$
