QSE.pdb
     RDKit          3D

 25 24  0  0  1  0  0  0  0  0999 V2000
    8.5598  -13.6588   14.3809 N   0  0  0  0  0  0  0  0  0  0  0  0
    7.6432  -14.4672   15.1461 C   0  0  0  0  0  0  0  0  0  0  0  0
    7.0383  -15.4282   14.6374 O   0  0  0  0  0  0  0  0  0  0  0  0
    7.4689  -14.0808   16.5524 C   0  0  0  0  0  0  0  0  0  0  0  0
    8.6924  -14.2325   17.3604 C   0  0  0  0  0  0  0  0  0  0  0  0
    8.6976  -15.2927   18.3948 C   0  0  2  0  0  0  0  0  0  0  0  0
    7.4079  -15.9113   18.5017 N   0  0  0  0  0  0  0  0  0  0  0  0
    9.0869  -14.7966   19.7389 C   0  0  0  0  0  0  0  0  0  0  0  0
   10.1948  -14.2249   19.9090 O   0  0  0  0  0  0  0  0  0  0  0  0
    6.7940  -15.3953   23.3047 O   0  0  0  0  0  0  0  0  0  0  0  0
    7.5963  -14.2615   23.1596 C   0  0  0  0  0  0  0  0  0  0  0  0
    8.7340  -14.6331   22.2256 C   0  0  2  0  0  0  0  0  0  0  0  0
    8.2675  -14.9231   20.8978 N   0  0  0  0  0  0  0  0  0  0  0  0
    9.5741  -15.6907   22.8067 C   0  0  0  0  0  0  0  0  0  0  0  0
    9.3498  -16.9194   22.5294 O   0  0  0  0  0  0  0  0  0  0  0  0
   10.6649  -15.4717   23.6895 N   0  0  0  0  0  0  0  0  0  0  0  0
   11.3997  -16.5938   24.2756 C   0  0  1  0  0  0  0  0  0  0  0  0
   12.8522  -16.3281   24.3486 C   0  0  0  0  0  0  0  0  0  0  0  0
   13.4872  -16.2759   22.9923 C   0  0  0  0  0  0  0  0  0  0  0  0
   14.9489  -16.0364   23.0050 C   0  0  0  0  0  0  0  0  0  0  0  0
   15.5074  -15.8353   24.0904 O   0  0  0  0  0  0  0  0  0  0  0  0
   10.8404  -16.7793   25.6334 C   0  0  0  0  0  0  0  0  0  0  0  0
   10.0056  -15.9247   26.0848 O   0  0  0  0  0  0  0  0  0  0  0  0
   15.6730  -16.0351   21.8350 O   0  0  0  0  0  0  0  0  0  0  0  0
   11.1495  -17.8331   26.4860 O   0  0  0  0  0  0  0  0  0  0  0  0
  2  4  1  0
  2  1  1  0
  3  2  2  0
  5  6  1  0
  5  4  1  0
  6  7  1  1
  6  8  1  0
  8  9  2  0
 10 11  1  0
 12 11  1  1
 12 14  1  0
 13  8  1  0
 13 12  1  0
 14 15  2  0
 16 17  1  0
 16 14  1  0
 17 22  1  0
 18 19  1  0
 17 18  1  1
 20 19  1  0
 21 20  2  0
 22 23  2  0
 22 25  1  0
 24 20  1  0
M  END
$$$$
