QSE.pdb
     RDKit          3D

 25 24  0  0  1  0  0  0  0  0999 V2000
   17.8890  -13.5370   18.2299 N   0  0  0  0  0  0  0  0  0  0  0  0
   17.4891  -13.6138   16.8467 C   0  0  0  0  0  0  0  0  0  0  0  0
   17.8901  -12.7909   16.0039 O   0  0  0  0  0  0  0  0  0  0  0  0
   16.5807  -14.7156   16.5029 C   0  0  0  0  0  0  0  0  0  0  0  0
   15.6636  -15.0852   17.5962 C   0  0  0  0  0  0  0  0  0  0  0  0
   14.2118  -14.9275   17.3489 C   0  0  2  0  0  0  0  0  0  0  0  0
   13.9666  -13.9194   16.3585 N   0  0  0  0  0  0  0  0  0  0  0  0
   13.4454  -14.5737   18.5704 C   0  0  0  0  0  0  0  0  0  0  0  0
   14.0394  -14.1309   19.5873 O   0  0  0  0  0  0  0  0  0  0  0  0
    9.3704  -15.6197   19.0829 O   0  0  0  0  0  0  0  0  0  0  0  0
    9.8385  -14.4895   19.7564 C   0  0  0  0  0  0  0  0  0  0  0  0
   11.3355  -14.6639   19.9395 C   0  0  2  0  0  0  0  0  0  0  0  0
   12.0307  -14.7019   18.6826 N   0  0  0  0  0  0  0  0  0  0  0  0
   11.6335  -15.8027   20.8205 C   0  0  0  0  0  0  0  0  0  0  0  0
   12.0595  -16.9048   20.3299 O   0  0  0  0  0  0  0  0  0  0  0  0
   11.4879  -15.7997   22.2333 N   0  0  0  0  0  0  0  0  0  0  0  0
   11.9501  -16.9281   23.0430 C   0  0  1  0  0  0  0  0  0  0  0  0
   13.4201  -17.0797   22.9956 C   0  0  0  0  0  0  0  0  0  0  0  0
   14.1303  -15.9001   23.5869 C   0  0  0  0  0  0  0  0  0  0  0  0
   15.6083  -15.9936   23.5595 C   0  0  0  0  0  0  0  0  0  0  0  0
   16.2715  -14.9895   23.8467 O   0  0  0  0  0  0  0  0  0  0  0  0
   11.5053  -16.6437   24.4257 C   0  0  0  0  0  0  0  0  0  0  0  0
   10.9128  -15.5400   24.6743 O   0  0  0  0  0  0  0  0  0  0  0  0
   16.2337  -17.1713   23.2203 O   0  0  0  0  0  0  0  0  0  0  0  0
   11.6774  -17.4966   25.5101 O   0  0  0  0  0  0  0  0  0  0  0  0
  2  4  1  0
  2  1  1  0
  3  2  2  0
  5  6  1  0
  5  4  1  0
  6  7  1  6
  6  8  1  0
  8  9  2  0
 10 11  1  0
 12 11  1  6
 12 14  1  0
 13  8  1  0
 13 12  1  0
 14 15  2  0
 16 17  1  0
 16 14  1  0
 17 22  1  0
 18 19  1  0
 17 18  1  1
 20 19  1  0
 21 20  2  0
 22 23  2  0
 22 25  1  0
 24 20  1  0
M  END
$$$$
