QSE.pdb
     RDKit          3D

 25 24  0  0  1  0  0  0  0  0999 V2000
    7.9958  -12.8036   16.5742 N   0  0  0  0  0  0  0  0  0  0  0  0
    7.7684  -13.9532   15.7340 C   0  0  0  0  0  0  0  0  0  0  0  0
    7.0174  -13.9001   14.7434 O   0  0  0  0  0  0  0  0  0  0  0  0
    8.4722  -15.1817   16.1252 C   0  0  0  0  0  0  0  0  0  0  0  0
    9.3023  -15.0251   17.3332 C   0  0  0  0  0  0  0  0  0  0  0  0
    9.0444  -15.9506   18.4605 C   0  0  2  0  0  0  0  0  0  0  0  0
    7.6797  -16.3921   18.4597 N   0  0  0  0  0  0  0  0  0  0  0  0
    9.3375  -15.3522   19.7874 C   0  0  0  0  0  0  0  0  0  0  0  0
   10.4987  -14.9531   20.0620 O   0  0  0  0  0  0  0  0  0  0  0  0
    6.7433  -15.6666   23.1721 O   0  0  0  0  0  0  0  0  0  0  0  0
    7.4725  -14.4899   22.9877 C   0  0  0  0  0  0  0  0  0  0  0  0
    8.7004  -14.8463   22.1691 C   0  0  2  0  0  0  0  0  0  0  0  0
    8.3638  -15.1880   20.8146 N   0  0  0  0  0  0  0  0  0  0  0  0
    9.5195  -15.8577   22.8534 C   0  0  0  0  0  0  0  0  0  0  0  0
    9.4760  -17.0818   22.4841 O   0  0  0  0  0  0  0  0  0  0  0  0
   10.3983  -15.5966   23.9380 N   0  0  0  0  0  0  0  0  0  0  0  0
   11.4248  -16.5641   24.3287 C   0  0  1  0  0  0  0  0  0  0  0  0
   12.7790  -16.1298   23.9247 C   0  0  0  0  0  0  0  0  0  0  0  0
   13.8338  -17.1141   24.3300 C   0  0  0  0  0  0  0  0  0  0  0  0
   15.2136  -16.7283   23.9541 C   0  0  0  0  0  0  0  0  0  0  0  0
   15.8653  -16.0225   24.7336 O   0  0  0  0  0  0  0  0  0  0  0  0
   11.3369  -16.6754   25.8020 C   0  0  0  0  0  0  0  0  0  0  0  0
   10.7150  -15.7734   26.4583 O   0  0  0  0  0  0  0  0  0  0  0  0
   15.7614  -17.1435   22.7622 O   0  0  0  0  0  0  0  0  0  0  0  0
   11.8845  -17.7056   26.5581 O   0  0  0  0  0  0  0  0  0  0  0  0
  2  4  1  0
  2  1  1  0
  3  2  2  0
  5  6  1  0
  5  4  1  0
  6  7  1  1
  6  8  1  0
  8  9  2  0
 10 11  1  0
 12 11  1  1
 12 14  1  0
 13  8  1  0
 13 12  1  0
 14 15  2  0
 16 17  1  0
 16 14  1  0
 17 22  1  0
 18 19  1  0
 17 18  1  1
 20 19  1  0
 21 20  2  0
 22 23  2  0
 22 25  1  0
 24 20  1  0
M  END
$$$$
