QSE.pdb
     RDKit          3D

 25 24  0  0  1  0  0  0  0  0999 V2000
    6.2232  -19.3067   16.0040 N   0  0  0  0  0  0  0  0  0  0  0  0
    7.3459  -20.2047   15.8922 C   0  0  0  0  0  0  0  0  0  0  0  0
    7.4798  -20.9650   14.9164 O   0  0  0  0  0  0  0  0  0  0  0  0
    8.3097  -20.1660   17.0000 C   0  0  0  0  0  0  0  0  0  0  0  0
    7.9253  -19.2423   18.0825 C   0  0  0  0  0  0  0  0  0  0  0  0
    8.1220  -17.7939   17.8430 C   0  0  2  0  0  0  0  0  0  0  0  0
    9.1133  -17.5715   16.8306 N   0  0  0  0  0  0  0  0  0  0  0  0
    8.5285  -17.0494   19.0616 C   0  0  0  0  0  0  0  0  0  0  0  0
    9.7467  -16.8703   19.3202 O   0  0  0  0  0  0  0  0  0  0  0  0
    6.1141  -14.5010   21.2749 O   0  0  0  0  0  0  0  0  0  0  0  0
    6.8225  -15.4191   22.0531 C   0  0  0  0  0  0  0  0  0  0  0  0
    8.0117  -15.8816   21.2305 C   0  0  2  0  0  0  0  0  0  0  0  0
    7.6061  -16.4994   19.9981 N   0  0  0  0  0  0  0  0  0  0  0  0
    8.9274  -16.7028   22.0361 C   0  0  0  0  0  0  0  0  0  0  0  0
    9.2060  -17.8993   21.6787 O   0  0  0  0  0  0  0  0  0  0  0  0
    9.5653  -16.2775   23.2316 N   0  0  0  0  0  0  0  0  0  0  0  0
   10.8472  -16.8479   23.6483 C   0  0  1  0  0  0  0  0  0  0  0  0
   11.9064  -16.6273   22.6406 C   0  0  0  0  0  0  0  0  0  0  0  0
   13.2313  -17.1696   23.0836 C   0  0  0  0  0  0  0  0  0  0  0  0
   14.4054  -16.4658   22.5178 C   0  0  0  0  0  0  0  0  0  0  0  0
   14.5700  -16.4778   21.2918 O   0  0  0  0  0  0  0  0  0  0  0  0
   11.1964  -16.1746   24.9192 C   0  0  0  0  0  0  0  0  0  0  0  0
   12.2351  -16.5525   25.5589 O   0  0  0  0  0  0  0  0  0  0  0  0
   15.2975  -15.8127   23.3368 O   0  0  0  0  0  0  0  0  0  0  0  0
   10.4751  -15.1349   25.4953 O   0  0  0  0  0  0  0  0  0  0  0  0
  2  4  1  0
  2  1  1  0
  3  2  2  0
  5  6  1  0
  5  4  1  0
  6  7  1  6
  6  8  1  0
  8  9  2  0
 10 11  1  0
 12 11  1  1
 12 14  1  0
 13  8  1  0
 13 12  1  0
 14 15  2  0
 16 17  1  0
 16 14  1  0
 17 22  1  0
 18 19  1  0
 17 18  1  6
 20 19  1  0
 21 20  2  0
 22 23  2  0
 22 25  1  0
 24 20  1  0
M  END
$$$$
