QSE.pdb
     RDKit          3D

 25 24  0  0  1  0  0  0  0  0999 V2000
    7.3512  -13.6417   25.0875 N   0  0  0  0  0  0  0  0  0  0  0  0
    6.4813  -13.6933   26.2362 C   0  0  0  0  0  0  0  0  0  0  0  0
    5.9468  -12.6688   26.6977 O   0  0  0  0  0  0  0  0  0  0  0  0
    6.2740  -15.0237   26.8233 C   0  0  0  0  0  0  0  0  0  0  0  0
    7.0192  -16.0932   26.1352 C   0  0  0  0  0  0  0  0  0  0  0  0
    6.3564  -16.7542   24.9873 C   0  0  2  0  0  0  0  0  0  0  0  0
    5.9822  -18.0993   25.3161 N   0  0  0  0  0  0  0  0  0  0  0  0
    7.2013  -16.7930   23.7670 C   0  0  0  0  0  0  0  0  0  0  0  0
    8.0861  -17.6777   23.6345 O   0  0  0  0  0  0  0  0  0  0  0  0
    8.8004  -14.4436   19.8263 O   0  0  0  0  0  0  0  0  0  0  0  0
    7.7983  -14.4863   20.7980 C   0  0  0  0  0  0  0  0  0  0  0  0
    8.1225  -15.6425   21.7269 C   0  0  2  0  0  0  0  0  0  0  0  0
    7.0806  -15.8673   22.6905 N   0  0  0  0  0  0  0  0  0  0  0  0
    9.4596  -15.4889   22.3191 C   0  0  0  0  0  0  0  0  0  0  0  0
    9.6275  -14.7549   23.3534 O   0  0  0  0  0  0  0  0  0  0  0  0
   10.6422  -16.1062   21.8319 N   0  0  0  0  0  0  0  0  0  0  0  0
   11.8967  -16.0339   22.5825 C   0  0  1  0  0  0  0  0  0  0  0  0
   12.1442  -17.2612   23.3688 C   0  0  0  0  0  0  0  0  0  0  0  0
   13.4936  -17.2536   24.0206 C   0  0  0  0  0  0  0  0  0  0  0  0
   13.7819  -18.4436   24.8542 C   0  0  0  0  0  0  0  0  0  0  0  0
   13.1506  -19.4855   24.6389 O   0  0  0  0  0  0  0  0  0  0  0  0
   12.9625  -15.8443   21.5732 C   0  0  0  0  0  0  0  0  0  0  0  0
   12.7125  -16.1036   20.3479 O   0  0  0  0  0  0  0  0  0  0  0  0
   14.7306  -18.3936   25.8495 O   0  0  0  0  0  0  0  0  0  0  0  0
   14.2489  -15.3934   21.8468 O   0  0  0  0  0  0  0  0  0  0  0  0
  2  4  1  0
  2  1  1  0
  3  2  2  0
  5  6  1  0
  5  4  1  0
  6  7  1  1
  6  8  1  0
  8  9  2  0
 10 11  1  0
 12 11  1  1
 12 14  1  0
 13  8  1  0
 13 12  1  0
 14 15  2  0
 16 17  1  0
 16 14  1  0
 17 22  1  0
 18 19  1  0
 17 18  1  6
 20 19  1  0
 21 20  2  0
 22 23  2  0
 22 25  1  0
 24 20  1  0
M  END
$$$$
