QSE.pdb
     RDKit          3D

 25 24  0  0  1  0  0  0  0  0999 V2000
    9.4507  -17.0678   15.4486 N   0  0  0  0  0  0  0  0  0  0  0  0
    8.0580  -16.8269   15.1628 C   0  0  0  0  0  0  0  0  0  0  0  0
    7.5001  -17.3224   14.1671 O   0  0  0  0  0  0  0  0  0  0  0  0
    7.3494  -15.9610   16.1144 C   0  0  0  0  0  0  0  0  0  0  0  0
    8.1996  -15.4802   17.2184 C   0  0  0  0  0  0  0  0  0  0  0  0
    8.4730  -16.4236   18.3271 C   0  0  2  0  0  0  0  0  0  0  0  0
    7.2852  -17.1366   18.6986 N   0  0  0  0  0  0  0  0  0  0  0  0
    9.0140  -15.7598   19.5400 C   0  0  0  0  0  0  0  0  0  0  0  0
   10.1486  -15.2164   19.5146 O   0  0  0  0  0  0  0  0  0  0  0  0
    7.2673  -16.0685   23.4277 O   0  0  0  0  0  0  0  0  0  0  0  0
    7.8894  -14.8758   23.0528 C   0  0  0  0  0  0  0  0  0  0  0  0
    8.9241  -15.2217   21.9971 C   0  0  2  0  0  0  0  0  0  0  0  0
    8.3172  -15.6877   20.7808 N   0  0  0  0  0  0  0  0  0  0  0  0
    9.9505  -16.1262   22.5359 C   0  0  0  0  0  0  0  0  0  0  0  0
    9.9090  -17.3783   22.2760 O   0  0  0  0  0  0  0  0  0  0  0  0
   11.0381  -15.7271   23.3573 N   0  0  0  0  0  0  0  0  0  0  0  0
   12.1874  -16.6081   23.5703 C   0  0  1  0  0  0  0  0  0  0  0  0
   13.4580  -15.9707   23.1639 C   0  0  0  0  0  0  0  0  0  0  0  0
   14.6515  -16.7916   23.5476 C   0  0  0  0  0  0  0  0  0  0  0  0
   15.9553  -16.1929   23.1794 C   0  0  0  0  0  0  0  0  0  0  0  0
   15.9752  -15.0324   22.7513 O   0  0  0  0  0  0  0  0  0  0  0  0
   12.2027  -16.9111   25.0190 C   0  0  0  0  0  0  0  0  0  0  0  0
   11.5274  -16.1761   25.8157 O   0  0  0  0  0  0  0  0  0  0  0  0
   17.1219  -16.9109   23.3082 O   0  0  0  0  0  0  0  0  0  0  0  0
   12.9051  -17.9566   25.6078 O   0  0  0  0  0  0  0  0  0  0  0  0
  2  4  1  0
  2  1  1  0
  3  2  2  0
  5  6  1  0
  5  4  1  0
  6  7  1  1
  6  8  1  0
  8  9  2  0
 10 11  1  0
 12 11  1  1
 12 14  1  0
 13  8  1  0
 13 12  1  0
 14 15  2  0
 16 17  1  0
 16 14  1  0
 17 22  1  0
 18 19  1  0
 17 18  1  1
 20 19  1  0
 21 20  2  0
 22 23  2  0
 22 25  1  0
 24 20  1  0
M  END
$$$$
