QSE.pdb
     RDKit          3D

 25 24  0  0  1  0  0  0  0  0999 V2000
    8.1749  -12.8299   15.3607 N   0  0  0  0  0  0  0  0  0  0  0  0
    7.7122  -14.0924   14.8399 C   0  0  0  0  0  0  0  0  0  0  0  0
    7.0140  -14.1589   13.8122 O   0  0  0  0  0  0  0  0  0  0  0  0
    8.1124  -15.2840   15.5998 C   0  0  0  0  0  0  0  0  0  0  0  0
    8.9659  -14.9811   16.7629 C   0  0  0  0  0  0  0  0  0  0  0  0
    8.8930  -15.9040   17.9191 C   0  0  2  0  0  0  0  0  0  0  0  0
    7.6232  -16.5693   17.9650 N   0  0  0  0  0  0  0  0  0  0  0  0
    9.1093  -15.2269   19.2226 C   0  0  0  0  0  0  0  0  0  0  0  0
   10.0861  -14.4497   19.3807 O   0  0  0  0  0  0  0  0  0  0  0  0
    6.7135  -15.9087   22.6870 O   0  0  0  0  0  0  0  0  0  0  0  0
    7.4320  -14.7182   22.5581 C   0  0  0  0  0  0  0  0  0  0  0  0
    8.6389  -15.0143   21.6860 C   0  0  2  0  0  0  0  0  0  0  0  0
    8.2595  -15.3965   20.3538 N   0  0  0  0  0  0  0  0  0  0  0  0
    9.5483  -15.9648   22.3429 C   0  0  0  0  0  0  0  0  0  0  0  0
    9.5222  -17.2052   22.0302 O   0  0  0  0  0  0  0  0  0  0  0  0
   10.5005  -15.6248   23.3402 N   0  0  0  0  0  0  0  0  0  0  0  0
   11.5359  -16.5742   23.7515 C   0  0  1  0  0  0  0  0  0  0  0  0
   12.8969  -16.0545   23.4993 C   0  0  0  0  0  0  0  0  0  0  0  0
   13.9590  -17.0409   23.8794 C   0  0  0  0  0  0  0  0  0  0  0  0
   15.3441  -16.5876   23.6146 C   0  0  0  0  0  0  0  0  0  0  0  0
   15.5878  -15.3752   23.6479 O   0  0  0  0  0  0  0  0  0  0  0  0
   11.3291  -16.7969   25.2000 C   0  0  0  0  0  0  0  0  0  0  0  0
   12.0710  -17.6367   25.8127 O   0  0  0  0  0  0  0  0  0  0  0  0
   16.3409  -17.4940   23.3353 O   0  0  0  0  0  0  0  0  0  0  0  0
   10.3729  -16.1532   25.9774 O   0  0  0  0  0  0  0  0  0  0  0  0
  2  4  1  0
  2  1  1  0
  3  2  2  0
  5  6  1  0
  5  4  1  0
  6  7  1  1
  6  8  1  0
  8  9  2  0
 10 11  1  0
 12 11  1  1
 12 14  1  0
 13  8  1  0
 13 12  1  0
 14 15  2  0
 16 17  1  0
 16 14  1  0
 17 22  1  0
 18 19  1  0
 17 18  1  1
 20 19  1  0
 21 20  2  0
 22 23  2  0
 22 25  1  0
 24 20  1  0
M  END
$$$$
