QSE.pdb
     RDKit          3D

 25 24  0  0  1  0  0  0  0  0999 V2000
    8.1105  -21.1343   19.8517 N   0  0  0  0  0  0  0  0  0  0  0  0
    8.9878  -20.7280   18.7818 C   0  0  0  0  0  0  0  0  0  0  0  0
   10.1365  -21.1921   18.6669 O   0  0  0  0  0  0  0  0  0  0  0  0
    8.4414  -19.7346   17.8479 C   0  0  0  0  0  0  0  0  0  0  0  0
    7.6318  -18.6924   18.5045 C   0  0  0  0  0  0  0  0  0  0  0  0
    7.9222  -17.2831   18.1530 C   0  0  2  0  0  0  0  0  0  0  0  0
    8.7194  -17.2050   16.9632 N   0  0  0  0  0  0  0  0  0  0  0  0
    8.6254  -16.5442   19.2319 C   0  0  0  0  0  0  0  0  0  0  0  0
    9.8775  -16.4222   19.2068 O   0  0  0  0  0  0  0  0  0  0  0  0
    6.8774  -15.3405   22.8860 O   0  0  0  0  0  0  0  0  0  0  0  0
    7.6971  -14.4138   22.2384 C   0  0  0  0  0  0  0  0  0  0  0  0
    8.6537  -15.1983   21.3585 C   0  0  2  0  0  0  0  0  0  0  0  0
    7.9630  -15.9375   20.3380 N   0  0  0  0  0  0  0  0  0  0  0  0
    9.5718  -16.0137   22.1674 C   0  0  0  0  0  0  0  0  0  0  0  0
    9.4148  -17.2812   22.2421 O   0  0  0  0  0  0  0  0  0  0  0  0
   10.6708  -15.5076   22.9111 N   0  0  0  0  0  0  0  0  0  0  0  0
   11.6694  -16.4072   23.4907 C   0  0  1  0  0  0  0  0  0  0  0  0
   13.0483  -16.0047   23.1407 C   0  0  0  0  0  0  0  0  0  0  0  0
   14.0769  -16.8390   23.8418 C   0  0  0  0  0  0  0  0  0  0  0  0
   15.4780  -16.5206   23.4821 C   0  0  0  0  0  0  0  0  0  0  0  0
   15.9709  -15.4639   23.8955 O   0  0  0  0  0  0  0  0  0  0  0  0
   11.4698  -16.3439   24.9559 C   0  0  0  0  0  0  0  0  0  0  0  0
   11.7567  -17.3647   25.6678 O   0  0  0  0  0  0  0  0  0  0  0  0
   16.2181  -17.3797   22.7028 O   0  0  0  0  0  0  0  0  0  0  0  0
   10.9861  -15.2393   25.6480 O   0  0  0  0  0  0  0  0  0  0  0  0
  2  4  1  0
  2  1  1  0
  3  2  2  0
  5  6  1  0
  5  4  1  0
  6  7  1  6
  6  8  1  0
  8  9  2  0
 10 11  1  0
 12 11  1  1
 12 14  1  0
 13  8  1  0
 13 12  1  0
 14 15  2  0
 16 17  1  0
 16 14  1  0
 17 22  1  0
 18 19  1  0
 17 18  1  1
 20 19  1  0
 21 20  2  0
 22 23  2  0
 22 25  1  0
 24 20  1  0
M  END
$$$$
