ICT.pdb
     RDKit          3D

 22 21  0  0  1  0  0  0  0  0999 V2000
   24.8806  -13.0881  -16.2842 C   0  0  0  0  0  0  0  0  0  0  0  0
   23.4326  -13.0692  -15.8254 C   0  0  0  0  0  0  0  0  0  0  0  0
   22.9315  -11.6611  -15.6678 C   0  0  2  0  0  0  0  0  0  0  0  0
   23.7943  -10.8767  -14.7065 C   0  0  0  0  0  0  0  0  0  0  0  0
   21.4783  -11.5820  -15.3615 C   0  0  2  0  0  0  0  0  0  0  0  0
   20.7608  -12.2915  -16.4586 N   0  0  0  0  0  0  0  0  0  0  0  0
   20.8845  -10.2528  -15.2798 C   0  0  0  0  0  0  0  0  0  0  0  0
   20.6373   -9.6171  -16.3555 O   0  0  0  0  0  0  0  0  0  0  0  0
   20.5231   -9.5380  -14.1005 N   0  0  0  0  0  0  0  0  0  0  0  0
   19.9117   -8.2461  -14.1045 C   0  0  1  0  0  0  0  0  0  0  0  0
   18.7768   -8.3360  -13.0606 C   0  0  0  0  0  0  0  0  0  0  0  0
   17.7970   -9.8303  -13.3195 S   0  0  0  0  0  0  0  0  0  0  0  0
   20.7793   -7.1048  -13.8507 C   0  0  0  0  0  0  0  0  0  0  0  0
   21.5290   -7.1390  -12.8117 O   0  0  0  0  0  0  0  0  0  0  0  0
   23.4426   -5.4067  -16.2378 C   0  0  0  0  0  0  0  0  0  0  0  0
   22.5422   -4.3765  -15.5956 C   0  0  1  0  0  0  0  0  0  0  0  0
   21.6656   -3.9113  -16.5410 O   0  0  0  0  0  0  0  0  0  0  0  0
   21.8812   -4.8968  -14.3505 C   0  0  2  0  0  0  0  0  0  0  0  0
   20.8988   -5.9267  -14.6367 N   0  0  0  0  0  0  0  0  0  0  0  0
   21.3077   -3.7795  -13.5855 C   0  0  0  0  0  0  0  0  0  0  0  0
   22.0620   -2.7667  -13.0666 O   0  0  0  0  0  0  0  0  0  0  0  0
   20.0626   -3.7608  -13.4035 O   0  0  0  0  0  0  0  0  0  0  0  0
  2  1  1  0
  2  3  1  0
  3  5  1  0
  3  4  1  1
  5  7  1  0
  5  6  1  6
  7  9  1  0
  7  8  2  0
  9 10  1  0
 10 11  1  1
 10 13  1  0
 12 11  1  0
 13 14  2  0
 16 15  1  6
 16 18  1  0
 17 16  1  0
 18 20  1  0
 18 19  1  6
 19 13  1  0
 20 21  1  0
 22 20  2  0
M  END
$$$$
