ICT.pdb
     RDKit          3D

 22 21  0  0  1  0  0  0  0  0999 V2000
   21.9595  -20.3777   -8.5712 C   0  0  0  0  0  0  0  0  0  0  0  0
   23.4173  -20.7832   -8.7060 C   0  0  0  0  0  0  0  0  0  0  0  0
   23.9928  -20.3132  -10.0123 C   0  0  2  0  0  0  0  0  0  0  0  0
   23.0996  -20.6894  -11.1717 C   0  0  0  0  0  0  0  0  0  0  0  0
   25.4144  -20.7047  -10.2065 C   0  0  2  0  0  0  0  0  0  0  0  0
   26.1747  -20.1878   -9.0332 N   0  0  0  0  0  0  0  0  0  0  0  0
   26.0930  -20.1902  -11.3901 C   0  0  0  0  0  0  0  0  0  0  0  0
   26.4271  -18.9616  -11.4281 O   0  0  0  0  0  0  0  0  0  0  0  0
   26.4529  -20.9144  -12.5640 N   0  0  0  0  0  0  0  0  0  0  0  0
   27.1104  -20.3328  -13.6920 C   0  0  1  0  0  0  0  0  0  0  0  0
   28.4959  -21.0136  -13.7439 C   0  0  0  0  0  0  0  0  0  0  0  0
   29.5462  -20.4121  -12.4042 S   0  0  0  0  0  0  0  0  0  0  0  0
   26.4251  -20.4220  -14.9735 C   0  0  0  0  0  0  0  0  0  0  0  0
   25.9757  -21.5661  -15.3364 O   0  0  0  0  0  0  0  0  0  0  0  0
   23.2331  -18.5652  -16.3558 C   0  0  0  0  0  0  0  0  0  0  0  0
   24.4013  -18.4528  -17.3083 C   0  0  1  0  0  0  0  0  0  0  0  0
   24.9244  -17.1897  -17.2119 O   0  0  0  0  0  0  0  0  0  0  0  0
   25.4077  -19.5499  -17.1050 C   0  0  2  0  0  0  0  0  0  0  0  0
   26.1875  -19.3659  -15.8944 N   0  0  0  0  0  0  0  0  0  0  0  0
   26.2571  -19.6758  -18.2989 C   0  0  0  0  0  0  0  0  0  0  0  0
   25.7735  -20.0403  -19.5225 O   0  0  0  0  0  0  0  0  0  0  0  0
   27.4867  -19.4350  -18.1817 O   0  0  0  0  0  0  0  0  0  0  0  0
  2  1  1  0
  2  3  1  0
  3  5  1  0
  3  4  1  6
  5  7  1  0
  5  6  1  1
  7  9  1  0
  7  8  2  0
  9 10  1  0
 10 11  1  6
 10 13  1  0
 12 11  1  0
 13 14  2  0
 16 15  1  1
 16 18  1  0
 17 16  1  0
 18 20  1  0
 18 19  1  1
 19 13  1  0
 20 21  1  0
 22 20  2  0
M  END
$$$$
