ICT.pdb
     RDKit          3D

 22 21  0  0  1  0  0  0  0  0999 V2000
   21.6901  -20.6199   -9.2588 C   0  0  0  0  0  0  0  0  0  0  0  0
   23.1724  -20.7724   -8.9635 C   0  0  0  0  0  0  0  0  0  0  0  0
   24.0038  -20.4298  -10.1676 C   0  0  2  0  0  0  0  0  0  0  0  0
   23.4611  -21.0898  -11.4141 C   0  0  0  0  0  0  0  0  0  0  0  0
   25.4599  -20.6535   -9.9633 C   0  0  2  0  0  0  0  0  0  0  0  0
   25.8598  -19.8631   -8.7645 N   0  0  0  0  0  0  0  0  0  0  0  0
   26.3558  -20.2438  -11.0384 C   0  0  0  0  0  0  0  0  0  0  0  0
   26.5383  -19.0018  -11.2538 O   0  0  0  0  0  0  0  0  0  0  0  0
   27.0924  -21.0885  -11.9193 N   0  0  0  0  0  0  0  0  0  0  0  0
   27.8842  -20.6106  -13.0090 C   0  0  1  0  0  0  0  0  0  0  0  0
   29.2768  -21.2459  -12.8021 C   0  0  0  0  0  0  0  0  0  0  0  0
   30.1013  -20.5099  -11.3744 S   0  0  0  0  0  0  0  0  0  0  0  0
   27.3790  -20.8611  -14.3514 C   0  0  0  0  0  0  0  0  0  0  0  0
   27.4876  -22.0480  -14.8227 O   0  0  0  0  0  0  0  0  0  0  0  0
   23.9217  -20.9874  -15.7218 C   0  0  0  0  0  0  0  0  0  0  0  0
   24.7227  -20.0387  -16.5838 C   0  0  1  0  0  0  0  0  0  0  0  0
   24.3722  -18.7533  -16.2621 O   0  0  0  0  0  0  0  0  0  0  0  0
   26.1988  -20.3090  -16.5058 C   0  0  2  0  0  0  0  0  0  0  0  0
   26.7632  -19.9241  -15.2248 N   0  0  0  0  0  0  0  0  0  0  0  0
   26.8855  -19.6599  -17.6327 C   0  0  0  0  0  0  0  0  0  0  0  0
   26.6049  -19.9420  -18.9387 O   0  0  0  0  0  0  0  0  0  0  0  0
   27.7724  -18.8050  -17.3755 O   0  0  0  0  0  0  0  0  0  0  0  0
  2  1  1  0
  2  3  1  0
  3  5  1  0
  3  4  1  6
  5  7  1  0
  5  6  1  1
  7  9  1  0
  7  8  2  0
  9 10  1  0
 10 11  1  6
 10 13  1  0
 12 11  1  0
 13 14  2  0
 16 15  1  1
 16 18  1  0
 17 16  1  0
 18 20  1  0
 18 19  1  1
 19 13  1  0
 20 21  1  0
 22 20  2  0
M  END
$$$$
