ICT.pdb
     RDKit          3D

 22 21  0  0  1  0  0  0  0  0999 V2000
   18.7882  -14.3733  -18.7401 C   0  0  0  0  0  0  0  0  0  0  0  0
   18.2988  -14.0960  -17.3290 C   0  0  0  0  0  0  0  0  0  0  0  0
   18.3357  -12.6255  -17.0210 C   0  0  2  0  0  0  0  0  0  0  0  0
   19.6999  -12.0403  -17.3040 C   0  0  0  0  0  0  0  0  0  0  0  0
   17.8157  -12.2921  -15.6681 C   0  0  2  0  0  0  0  0  0  0  0  0
   16.4296  -12.8343  -15.5864 N   0  0  0  0  0  0  0  0  0  0  0  0
   17.7215  -10.8797  -15.3182 C   0  0  0  0  0  0  0  0  0  0  0  0
   17.1809  -10.0719  -16.1414 O   0  0  0  0  0  0  0  0  0  0  0  0
   18.1718  -10.2539  -14.1191 N   0  0  0  0  0  0  0  0  0  0  0  0
   18.2112   -8.8388  -13.9221 C   0  0  1  0  0  0  0  0  0  0  0  0
   17.4432   -8.5956  -12.6042 C   0  0  0  0  0  0  0  0  0  0  0  0
   17.6269   -6.8799  -12.0731 S   0  0  0  0  0  0  0  0  0  0  0  0
   19.5254   -8.2127  -13.8956 C   0  0  0  0  0  0  0  0  0  0  0  0
   20.4329   -8.7506  -13.1677 O   0  0  0  0  0  0  0  0  0  0  0  0
   23.2676   -5.6427  -15.7521 C   0  0  0  0  0  0  0  0  0  0  0  0
   21.8563   -6.1746  -15.8508 C   0  0  1  0  0  0  0  0  0  0  0  0
   21.8420   -7.2145  -16.7435 O   0  0  0  0  0  0  0  0  0  0  0  0
   21.2818   -6.5148  -14.5047 C   0  0  2  0  0  0  0  0  0  0  0  0
   19.9344   -7.0471  -14.5983 N   0  0  0  0  0  0  0  0  0  0  0  0
   21.3556   -5.3426  -13.6197 C   0  0  0  0  0  0  0  0  0  0  0  0
   20.2745   -4.5630  -13.3238 O   0  0  0  0  0  0  0  0  0  0  0  0
   22.4699   -5.0487  -13.1139 O   0  0  0  0  0  0  0  0  0  0  0  0
  2  1  1  0
  2  3  1  0
  3  5  1  0
  3  4  1  1
  5  7  1  0
  5  6  1  6
  7  9  1  0
  7  8  2  0
  9 10  1  0
 10 11  1  1
 10 13  1  0
 12 11  1  0
 13 14  2  0
 16 15  1  1
 16 18  1  0
 17 16  1  0
 18 20  1  0
 18 19  1  6
 19 13  1  0
 20 21  1  0
 22 20  2  0
M  END
$$$$
