ICT.pdb
     RDKit          3D

 22 21  0  0  1  0  0  0  0  0999 V2000
   21.8844  -20.7020   -9.1808 C   0  0  0  0  0  0  0  0  0  0  0  0
   23.3512  -21.0144   -8.9386 C   0  0  0  0  0  0  0  0  0  0  0  0
   24.1884  -20.6484  -10.1317 C   0  0  2  0  0  0  0  0  0  0  0  0
   23.6347  -21.2597  -11.3980 C   0  0  0  0  0  0  0  0  0  0  0  0
   25.6404  -20.9030   -9.9351 C   0  0  2  0  0  0  0  0  0  0  0  0
   26.0516  -20.1648   -8.7072 N   0  0  0  0  0  0  0  0  0  0  0  0
   26.5441  -20.4677  -10.9935 C   0  0  0  0  0  0  0  0  0  0  0  0
   26.6876  -19.2211  -11.2122 O   0  0  0  0  0  0  0  0  0  0  0  0
   27.3282  -21.2905  -11.8539 N   0  0  0  0  0  0  0  0  0  0  0  0
   28.1087  -20.7929  -12.9429 C   0  0  1  0  0  0  0  0  0  0  0  0
   29.5287  -21.3535  -12.7080 C   0  0  0  0  0  0  0  0  0  0  0  0
   30.2472  -20.6471  -11.2098 S   0  0  0  0  0  0  0  0  0  0  0  0
   27.6336  -21.0923  -14.2862 C   0  0  0  0  0  0  0  0  0  0  0  0
   27.7593  -22.2939  -14.7142 O   0  0  0  0  0  0  0  0  0  0  0  0
   24.2663  -21.4410  -15.6250 C   0  0  0  0  0  0  0  0  0  0  0  0
   24.9821  -20.4621  -16.5273 C   0  0  1  0  0  0  0  0  0  0  0  0
   24.5472  -19.1964  -16.2320 O   0  0  0  0  0  0  0  0  0  0  0  0
   26.4748  -20.6256  -16.4721 C   0  0  2  0  0  0  0  0  0  0  0  0
   27.0310  -20.1898  -15.2039 N   0  0  0  0  0  0  0  0  0  0  0  0
   27.0948  -19.9393  -17.6155 C   0  0  0  0  0  0  0  0  0  0  0  0
   26.8463  -20.2809  -18.9137 O   0  0  0  0  0  0  0  0  0  0  0  0
   27.8909  -18.9934  -17.3806 O   0  0  0  0  0  0  0  0  0  0  0  0
  2  1  1  0
  2  3  1  0
  3  5  1  0
  3  4  1  6
  5  7  1  0
  5  6  1  1
  7  9  1  0
  7  8  2  0
  9 10  1  0
 10 11  1  6
 10 13  1  0
 12 11  1  0
 13 14  2  0
 16 15  1  1
 16 18  1  0
 17 16  1  0
 18 20  1  0
 18 19  1  1
 19 13  1  0
 20 21  1  0
 22 20  2  0
M  END
$$$$
