ICT.pdb
     RDKit          3D

 22 21  0  0  1  0  0  0  0  0999 V2000
   16.2327  -13.5352  -19.3613 C   0  0  0  0  0  0  0  0  0  0  0  0
   17.5667  -13.4158  -18.6444 C   0  0  0  0  0  0  0  0  0  0  0  0
   17.5994  -12.2034  -17.7570 C   0  0  2  0  0  0  0  0  0  0  0  0
   17.2325  -10.9535  -18.5231 C   0  0  0  0  0  0  0  0  0  0  0  0
   18.8604  -12.0744  -16.9792 C   0  0  2  0  0  0  0  0  0  0  0  0
   18.9925  -13.3077  -16.1525 N   0  0  0  0  0  0  0  0  0  0  0  0
   18.9627  -10.9517  -16.0544 C   0  0  0  0  0  0  0  0  0  0  0  0
   18.1712  -10.8951  -15.0580 O   0  0  0  0  0  0  0  0  0  0  0  0
   19.8766   -9.8594  -16.1180 N   0  0  0  0  0  0  0  0  0  0  0  0
   19.8212   -8.7196  -15.2574 C   0  0  1  0  0  0  0  0  0  0  0  0
   21.2733   -8.5109  -14.7740 C   0  0  0  0  0  0  0  0  0  0  0  0
   21.3827   -7.0549  -13.7119 S   0  0  0  0  0  0  0  0  0  0  0  0
   19.2656   -7.4961  -15.8178 C   0  0  0  0  0  0  0  0  0  0  0  0
   19.8526   -6.9794  -16.8332 O   0  0  0  0  0  0  0  0  0  0  0  0
   15.4230   -6.6773  -16.7842 C   0  0  0  0  0  0  0  0  0  0  0  0
   16.0856   -5.5703  -15.9967 C   0  0  1  0  0  0  0  0  0  0  0  0
   15.5885   -5.5838  -14.7195 O   0  0  0  0  0  0  0  0  0  0  0  0
   17.5848   -5.6387  -16.0714 C   0  0  2  0  0  0  0  0  0  0  0  0
   18.1206   -6.7873  -15.3633 N   0  0  0  0  0  0  0  0  0  0  0  0
   18.1665   -4.3737  -15.5983 C   0  0  0  0  0  0  0  0  0  0  0  0
   17.9306   -3.1727  -16.2031 O   0  0  0  0  0  0  0  0  0  0  0  0
   18.9162   -4.4052  -14.5880 O   0  0  0  0  0  0  0  0  0  0  0  0
  2  1  1  0
  2  3  1  0
  3  5  1  0
  3  4  1  6
  5  7  1  0
  5  6  1  1
  7  9  1  0
  7  8  2  0
  9 10  1  0
 10 11  1  6
 10 13  1  0
 12 11  1  0
 13 14  2  0
 16 15  1  6
 16 18  1  0
 17 16  1  0
 18 20  1  0
 18 19  1  1
 19 13  1  0
 20 21  1  0
 22 20  2  0
M  END
$$$$
