ICT.pdb
     RDKit          3D

 22 21  0  0  1  0  0  0  0  0999 V2000
   17.9424  -12.2581  -17.5717 C   0  0  0  0  0  0  0  0  0  0  0  0
   19.0556  -11.2299  -17.4649 C   0  0  0  0  0  0  0  0  0  0  0  0
   19.1765  -10.7045  -16.0621 C   0  0  2  0  0  0  0  0  0  0  0  0
   17.8360  -10.2565  -15.5272 C   0  0  0  0  0  0  0  0  0  0  0  0
   20.2495   -9.6871  -15.9027 C   0  0  2  0  0  0  0  0  0  0  0  0
   21.5331  -10.3417  -16.2844 N   0  0  0  0  0  0  0  0  0  0  0  0
   20.4545   -9.1363  -14.5683 C   0  0  0  0  0  0  0  0  0  0  0  0
   21.4459   -9.5387  -13.8771 O   0  0  0  0  0  0  0  0  0  0  0  0
   19.6577   -8.1581  -13.9046 N   0  0  0  0  0  0  0  0  0  0  0  0
   19.9990   -7.5671  -12.6489 C   0  0  1  0  0  0  0  0  0  0  0  0
   21.3708   -6.8962  -12.8808 C   0  0  0  0  0  0  0  0  0  0  0  0
   21.8449   -5.9133  -11.4424 S   0  0  0  0  0  0  0  0  0  0  0  0
   19.0397   -6.6331  -12.0768 C   0  0  0  0  0  0  0  0  0  0  0  0
   18.8493   -5.5201  -12.6832 O   0  0  0  0  0  0  0  0  0  0  0  0
   15.5343   -6.4469  -12.1033 C   0  0  0  0  0  0  0  0  0  0  0  0
   15.8841   -6.2874  -10.6416 C   0  0  1  0  0  0  0  0  0  0  0  0
   15.5779   -7.4529   -9.9886 O   0  0  0  0  0  0  0  0  0  0  0  0
   17.3010   -5.8281  -10.4433 C   0  0  2  0  0  0  0  0  0  0  0  0
   18.2682   -6.8114  -10.8965 N   0  0  0  0  0  0  0  0  0  0  0  0
   17.5111   -5.4495   -9.0379 C   0  0  0  0  0  0  0  0  0  0  0  0
   16.8317   -4.4329   -8.4305 O   0  0  0  0  0  0  0  0  0  0  0  0
   18.3579   -6.0961   -8.3682 O   0  0  0  0  0  0  0  0  0  0  0  0
  2  1  1  0
  2  3  1  0
  3  5  1  0
  3  4  1  6
  5  7  1  0
  5  6  1  1
  7  9  1  0
  7  8  2  0
  9 10  1  0
 10 11  1  6
 10 13  1  0
 12 11  1  0
 13 14  2  0
 16 15  1  6
 16 18  1  0
 17 16  1  0
 18 20  1  0
 18 19  1  1
 19 13  1  0
 20 21  1  0
 22 20  2  0
M  END
$$$$
