ICT.pdb
     RDKit          3D

 22 21  0  0  1  0  0  0  0  0999 V2000
   24.8613  -11.7378  -17.5473 C   0  0  0  0  0  0  0  0  0  0  0  0
   23.7666  -11.8349  -16.4985 C   0  0  0  0  0  0  0  0  0  0  0  0
   23.0794  -10.5122  -16.3072 C   0  0  2  0  0  0  0  0  0  0  0  0
   24.0788   -9.4062  -16.0589 C   0  0  0  0  0  0  0  0  0  0  0  0
   21.9815  -10.5563  -15.3049 C   0  0  2  0  0  0  0  0  0  0  0  0
   21.0043  -11.5807  -15.7715 N   0  0  0  0  0  0  0  0  0  0  0  0
   21.2185   -9.3315  -15.0958 C   0  0  0  0  0  0  0  0  0  0  0  0
   20.3054   -9.0203  -15.9276 O   0  0  0  0  0  0  0  0  0  0  0  0
   21.3628   -8.3937  -14.0319 N   0  0  0  0  0  0  0  0  0  0  0  0
   20.5739   -7.2094  -13.8977 C   0  0  1  0  0  0  0  0  0  0  0  0
   20.0258   -7.2539  -12.4543 C   0  0  0  0  0  0  0  0  0  0  0  0
   18.9090   -8.6570  -12.2453 S   0  0  0  0  0  0  0  0  0  0  0  0
   21.2335   -5.9421  -14.1778 C   0  0  0  0  0  0  0  0  0  0  0  0
   22.3391   -5.6945  -13.5785 O   0  0  0  0  0  0  0  0  0  0  0  0
   22.1890   -4.4827  -17.7109 C   0  0  0  0  0  0  0  0  0  0  0  0
   21.5471   -3.4206  -16.8480 C   0  0  1  0  0  0  0  0  0  0  0  0
   20.2813   -3.1822  -17.3166 O   0  0  0  0  0  0  0  0  0  0  0  0
   21.6046   -3.7648  -15.3865 C   0  0  2  0  0  0  0  0  0  0  0  0
   20.7883   -4.9198  -15.0591 N   0  0  0  0  0  0  0  0  0  0  0  0
   21.2480   -2.5867  -14.5817 C   0  0  0  0  0  0  0  0  0  0  0  0
   21.9837   -1.4366  -14.5775 O   0  0  0  0  0  0  0  0  0  0  0  0
   20.2152   -2.6468  -13.8652 O   0  0  0  0  0  0  0  0  0  0  0  0
  2  1  1  0
  2  3  1  0
  3  5  1  0
  3  4  1  1
  5  7  1  0
  5  6  1  6
  7  9  1  0
  7  8  2  0
  9 10  1  0
 10 11  1  1
 10 13  1  0
 12 11  1  0
 13 14  2  0
 16 15  1  6
 16 18  1  0
 17 16  1  0
 18 20  1  0
 18 19  1  6
 19 13  1  0
 20 21  1  0
 22 20  2  0
M  END
$$$$
