GDQ.pdb
     RDKit          3D

 22 21  0  0  1  0  0  0  0  0999 V2000
   17.1875  -11.1485  -15.4120 N   0  0  0  0  0  0  0  0  0  0  0  0
   17.9881  -10.6174  -16.4826 C   0  0  0  0  0  0  0  0  0  0  0  0
   19.2461  -10.0812  -15.9040 C   0  0  0  0  0  0  0  0  0  0  0  0
   19.4180   -9.9334  -14.6639 O   0  0  0  0  0  0  0  0  0  0  0  0
   20.3514   -9.6967  -16.7463 N   0  0  0  0  0  0  0  0  0  0  0  0
   21.5635   -9.1563  -16.2257 C   0  0  1  0  0  0  0  0  0  0  0  0
   22.7936   -9.4822  -16.9975 C   0  0  0  0  0  0  0  0  0  0  0  0
   23.0729  -10.9312  -17.0883 C   0  0  0  0  0  0  0  0  0  0  0  0
   23.5086  -11.5225  -16.0721 O   0  0  0  0  0  0  0  0  0  0  0  0
   21.4074   -7.6660  -16.1837 C   0  0  0  0  0  0  0  0  0  0  0  0
   20.9787   -6.9985  -17.1562 O   0  0  0  0  0  0  0  0  0  0  0  0
   22.8751  -11.6610  -18.2423 O   0  0  0  0  0  0  0  0  0  0  0  0
   17.2500   -4.9727  -15.4660 N   0  0  0  0  0  0  0  0  0  0  0  0
   18.0526   -3.8871  -15.0302 C   0  0  0  0  0  0  0  0  0  0  0  0
   17.5653   -2.7460  -14.7643 O   0  0  0  0  0  0  0  0  0  0  0  0
   19.5129   -4.0252  -14.8517 C   0  0  0  0  0  0  0  0  0  0  0  0
   20.0489   -5.3736  -15.1438 C   0  0  0  0  0  0  0  0  0  0  0  0
   21.5031   -5.5287  -14.9087 C   0  0  2  0  0  0  0  0  0  0  0  0
   21.7592   -6.9912  -14.9977 N   0  0  0  0  0  0  0  0  0  0  0  0
   22.0688   -5.0958  -13.6389 C   0  0  0  0  0  0  0  0  0  0  0  0
   22.3051   -3.7389  -13.3527 O   0  0  0  0  0  0  0  0  0  0  0  0
   22.4022   -5.8697  -12.6771 O   0  0  0  0  0  0  0  0  0  0  0  0
  1  2  1  0
  3  2  1  0
  3  5  1  0
  4  3  2  0
  5  6  1  0
  6  7  1  6
  6 10  1  0
  7  8  1  0
  8 12  1  0
  9  8  2  0
 10 11  2  0
 10 19  1  0
 14 13  1  0
 14 16  1  0
 15 14  2  0
 17 16  1  0
 18 17  1  1
 19 18  1  0
 20 21  1  0
 20 18  1  0
 22 20  2  0
M  END
$$$$
