GDQ.pdb
     RDKit          3D

 22 21  0  0  1  0  0  0  0  0999 V2000
   15.8471  -13.1259  -13.3335 N   0  0  0  0  0  0  0  0  0  0  0  0
   15.7694  -12.8286  -11.9281 C   0  0  0  0  0  0  0  0  0  0  0  0
   15.5419  -11.3696  -11.7709 C   0  0  0  0  0  0  0  0  0  0  0  0
   15.5372  -10.5708  -12.7462 O   0  0  0  0  0  0  0  0  0  0  0  0
   15.3114  -10.7851  -10.4731 N   0  0  0  0  0  0  0  0  0  0  0  0
   15.0165   -9.4020  -10.2939 C   0  0  1  0  0  0  0  0  0  0  0  0
   14.3799   -9.0457   -8.9966 C   0  0  0  0  0  0  0  0  0  0  0  0
   12.9795   -9.5036   -8.8752 C   0  0  0  0  0  0  0  0  0  0  0  0
   12.3497   -9.7906   -9.9207 O   0  0  0  0  0  0  0  0  0  0  0  0
   16.3076   -8.6499  -10.4143 C   0  0  0  0  0  0  0  0  0  0  0  0
   17.2937   -8.8657   -9.6686 O   0  0  0  0  0  0  0  0  0  0  0  0
   12.3353   -9.6291   -7.6615 O   0  0  0  0  0  0  0  0  0  0  0  0
   20.5300   -9.8521  -13.1321 N   0  0  0  0  0  0  0  0  0  0  0  0
   20.8693   -8.4746  -13.1164 C   0  0  0  0  0  0  0  0  0  0  0  0
   21.9942   -8.0476  -13.5196 O   0  0  0  0  0  0  0  0  0  0  0  0
   19.9224   -7.4484  -12.6330 C   0  0  0  0  0  0  0  0  0  0  0  0
   18.6339   -7.9790  -12.1341 C   0  0  0  0  0  0  0  0  0  0  0  0
   17.7128   -6.9582  -11.5832 C   0  0  2  0  0  0  0  0  0  0  0  0
   16.4121   -7.6585  -11.4103 N   0  0  0  0  0  0  0  0  0  0  0  0
   17.4276   -5.7622  -12.3632 C   0  0  0  0  0  0  0  0  0  0  0  0
   18.3333   -4.6885  -12.4386 O   0  0  0  0  0  0  0  0  0  0  0  0
   16.3627   -5.5600  -13.0417 O   0  0  0  0  0  0  0  0  0  0  0  0
  1  2  1  0
  3  2  1  0
  3  5  1  0
  4  3  2  0
  5  6  1  0
  6  7  1  1
  6 10  1  0
  7  8  1  0
  8 12  1  0
  9  8  2  0
 10 11  2  0
 10 19  1  0
 14 13  1  0
 14 16  1  0
 15 14  2  0
 17 16  1  0
 18 17  1  6
 19 18  1  0
 20 21  1  0
 20 18  1  0
 22 20  2  0
M  END
$$$$
