GDQ.pdb
     RDKit          3D

 22 21  0  0  1  0  0  0  0  0999 V2000
   21.1222  -22.2358  -15.7652 N   0  0  0  0  0  0  0  0  0  0  0  0
   20.8194  -21.1019  -14.9333 C   0  0  0  0  0  0  0  0  0  0  0  0
   21.0008  -19.8685  -15.7400 C   0  0  0  0  0  0  0  0  0  0  0  0
   21.4557  -19.8830  -16.9157 O   0  0  0  0  0  0  0  0  0  0  0  0
   20.6597  -18.5720  -15.2093 N   0  0  0  0  0  0  0  0  0  0  0  0
   20.6721  -17.3883  -16.0036 C   0  0  1  0  0  0  0  0  0  0  0  0
   19.8465  -16.2623  -15.4882 C   0  0  0  0  0  0  0  0  0  0  0  0
   19.8006  -15.0946  -16.3938 C   0  0  0  0  0  0  0  0  0  0  0  0
   19.5878  -15.2902  -17.6139 O   0  0  0  0  0  0  0  0  0  0  0  0
   22.0960  -16.9299  -16.1016 C   0  0  0  0  0  0  0  0  0  0  0  0
   22.8170  -16.7271  -15.0946 O   0  0  0  0  0  0  0  0  0  0  0  0
   19.9817  -13.7992  -15.9550 O   0  0  0  0  0  0  0  0  0  0  0  0
   26.8956  -19.2304  -17.0529 N   0  0  0  0  0  0  0  0  0  0  0  0
   27.2537  -18.0942  -17.8232 C   0  0  0  0  0  0  0  0  0  0  0  0
   28.4384  -17.8975  -18.2332 O   0  0  0  0  0  0  0  0  0  0  0  0
   26.2587  -17.0697  -18.2024 C   0  0  0  0  0  0  0  0  0  0  0  0
   24.8665  -17.3810  -17.8081 C   0  0  0  0  0  0  0  0  0  0  0  0
   24.0324  -16.1997  -17.4872 C   0  0  2  0  0  0  0  0  0  0  0  0
   22.6427  -16.7195  -17.3833 N   0  0  0  0  0  0  0  0  0  0  0  0
   23.9796  -15.0894  -18.4276 C   0  0  0  0  0  0  0  0  0  0  0  0
   24.8403  -13.9818  -18.3216 O   0  0  0  0  0  0  0  0  0  0  0  0
   23.1758  -14.9985  -19.4181 O   0  0  0  0  0  0  0  0  0  0  0  0
  1  2  1  0
  3  2  1  0
  3  5  1  0
  4  3  2  0
  5  6  1  0
  6  7  1  1
  6 10  1  0
  7  8  1  0
  8 12  1  0
  9  8  2  0
 10 11  2  0
 10 19  1  0
 14 13  1  0
 14 16  1  0
 15 14  2  0
 17 16  1  0
 18 17  1  6
 19 18  1  0
 20 21  1  0
 20 18  1  0
 22 20  2  0
M  END
$$$$
