GDQ.pdb
     RDKit          3D

 22 21  0  0  1  0  0  0  0  0999 V2000
   14.5719   -8.7463   -7.4384 N   0  0  0  0  0  0  0  0  0  0  0  0
   14.4519   -9.0005   -8.8492 C   0  0  0  0  0  0  0  0  0  0  0  0
   15.5574   -8.2958   -9.5467 C   0  0  0  0  0  0  0  0  0  0  0  0
   16.4345   -7.6284   -8.9348 O   0  0  0  0  0  0  0  0  0  0  0  0
   15.6839   -8.3411  -10.9823 N   0  0  0  0  0  0  0  0  0  0  0  0
   16.7539   -7.7088  -11.6805 C   0  0  1  0  0  0  0  0  0  0  0  0
   17.0912   -8.2978  -13.0049 C   0  0  0  0  0  0  0  0  0  0  0  0
   17.4221   -9.7377  -12.9492 C   0  0  0  0  0  0  0  0  0  0  0  0
   18.3552  -10.1097  -12.1988 O   0  0  0  0  0  0  0  0  0  0  0  0
   16.3715   -6.2732  -11.8802 C   0  0  0  0  0  0  0  0  0  0  0  0
   15.3053   -5.9244  -12.4430 O   0  0  0  0  0  0  0  0  0  0  0  0
   16.7491  -10.6899  -13.6867 O   0  0  0  0  0  0  0  0  0  0  0  0
   17.4844   -1.9051   -7.7694 N   0  0  0  0  0  0  0  0  0  0  0  0
   17.2091   -1.1261   -8.9226 C   0  0  0  0  0  0  0  0  0  0  0  0
   17.1478    0.1409   -8.8876 O   0  0  0  0  0  0  0  0  0  0  0  0
   16.9835   -1.7491  -10.2433 C   0  0  0  0  0  0  0  0  0  0  0  0
   17.0977   -3.2247  -10.2609 C   0  0  0  0  0  0  0  0  0  0  0  0
   16.8661   -3.8503  -11.5834 C   0  0  2  0  0  0  0  0  0  0  0  0
   17.2518   -5.2768  -11.4135 N   0  0  0  0  0  0  0  0  0  0  0  0
   17.6072   -3.3660  -12.7392 C   0  0  0  0  0  0  0  0  0  0  0  0
   17.2353   -2.1958  -13.4257 O   0  0  0  0  0  0  0  0  0  0  0  0
   18.6402   -3.9276  -13.2422 O   0  0  0  0  0  0  0  0  0  0  0  0
  1  2  1  0
  3  2  1  0
  3  5  1  0
  4  3  2  0
  5  6  1  0
  6  7  1  6
  6 10  1  0
  7  8  1  0
  8 12  1  0
  9  8  2  0
 10 11  2  0
 10 19  1  0
 14 13  1  0
 14 16  1  0
 15 14  2  0
 17 16  1  0
 18 17  1  1
 19 18  1  0
 20 21  1  0
 20 18  1  0
 22 20  2  0
M  END
$$$$
