GDQ.pdb
     RDKit          3D

 22 21  0  0  1  0  0  0  0  0999 V2000
   19.5962  -20.4270  -12.4388 N   0  0  0  0  0  0  0  0  0  0  0  0
   20.6507  -21.2216  -13.0098 C   0  0  0  0  0  0  0  0  0  0  0  0
   21.9215  -20.4617  -12.8976 C   0  0  0  0  0  0  0  0  0  0  0  0
   21.9574  -19.2207  -12.6788 O   0  0  0  0  0  0  0  0  0  0  0  0
   23.1985  -21.1170  -13.0357 N   0  0  0  0  0  0  0  0  0  0  0  0
   24.4361  -20.4138  -12.9600 C   0  0  1  0  0  0  0  0  0  0  0  0
   25.5840  -21.1934  -12.4218 C   0  0  0  0  0  0  0  0  0  0  0  0
   25.5221  -21.4124  -10.9610 C   0  0  0  0  0  0  0  0  0  0  0  0
   24.9651  -20.5446  -10.2478 O   0  0  0  0  0  0  0  0  0  0  0  0
   24.7773  -19.9578  -14.3466 C   0  0  0  0  0  0  0  0  0  0  0  0
   24.3905  -20.5615  -15.3766 O   0  0  0  0  0  0  0  0  0  0  0  0
   26.0504  -22.5300  -10.3483 O   0  0  0  0  0  0  0  0  0  0  0  0
   29.1080  -17.0514  -16.6003 N   0  0  0  0  0  0  0  0  0  0  0  0
   28.1392  -16.3580  -17.3706 C   0  0  0  0  0  0  0  0  0  0  0  0
   28.4120  -15.8362  -18.4948 O   0  0  0  0  0  0  0  0  0  0  0  0
   26.7436  -16.2086  -16.9088 C   0  0  0  0  0  0  0  0  0  0  0  0
   26.4213  -16.9378  -15.6618 C   0  0  0  0  0  0  0  0  0  0  0  0
   25.8056  -18.2700  -15.8622 C   0  0  2  0  0  0  0  0  0  0  0  0
   25.5672  -18.8000  -14.4931 N   0  0  0  0  0  0  0  0  0  0  0  0
   26.5525  -19.2999  -16.5701 C   0  0  0  0  0  0  0  0  0  0  0  0
   26.3830  -19.5291  -17.9477 O   0  0  0  0  0  0  0  0  0  0  0  0
   27.4140  -20.0827  -16.0406 O   0  0  0  0  0  0  0  0  0  0  0  0
  1  2  1  0
  3  2  1  0
  3  5  1  0
  4  3  2  0
  5  6  1  0
  6  7  1  6
  6 10  1  0
  7  8  1  0
  8 12  1  0
  9  8  2  0
 10 11  2  0
 10 19  1  0
 14 13  1  0
 14 16  1  0
 15 14  2  0
 17 16  1  0
 18 17  1  1
 19 18  1  0
 20 21  1  0
 20 18  1  0
 22 20  2  0
M  END
$$$$
