GDQ.pdb
     RDKit          3D

 22 21  0  0  1  0  0  0  0  0999 V2000
   19.0692  -14.1625  -16.1471 N   0  0  0  0  0  0  0  0  0  0  0  0
   19.2712  -13.4418  -17.3756 C   0  0  0  0  0  0  0  0  0  0  0  0
   18.9411  -12.0134  -17.1392 C   0  0  0  0  0  0  0  0  0  0  0  0
   18.9359  -11.1529  -18.0605 O   0  0  0  0  0  0  0  0  0  0  0  0
   18.6046  -11.5325  -15.8222 N   0  0  0  0  0  0  0  0  0  0  0  0
   18.2267  -10.1813  -15.5702 C   0  0  1  0  0  0  0  0  0  0  0  0
   17.1859   -9.9919  -14.5232 C   0  0  0  0  0  0  0  0  0  0  0  0
   15.8670  -10.5523  -14.8868 C   0  0  0  0  0  0  0  0  0  0  0  0
   15.1635   -9.9363  -15.7221 O   0  0  0  0  0  0  0  0  0  0  0  0
   19.4621   -9.4412  -15.1542 C   0  0  0  0  0  0  0  0  0  0  0  0
   20.3665   -9.9628  -14.4578 O   0  0  0  0  0  0  0  0  0  0  0  0
   15.3765  -11.7235  -14.3471 O   0  0  0  0  0  0  0  0  0  0  0  0
   21.2990   -4.0955  -17.9698 N   0  0  0  0  0  0  0  0  0  0  0  0
   22.1546   -4.1887  -16.8420 C   0  0  0  0  0  0  0  0  0  0  0  0
   23.0220   -3.3025  -16.5725 O   0  0  0  0  0  0  0  0  0  0  0  0
   22.0797   -5.3280  -15.9041 C   0  0  0  0  0  0  0  0  0  0  0  0
   20.9810   -6.2823  -16.1737 C   0  0  0  0  0  0  0  0  0  0  0  0
   20.8411   -7.3673  -15.1751 C   0  0  2  0  0  0  0  0  0  0  0  0
   19.6081   -8.1015  -15.5663 N   0  0  0  0  0  0  0  0  0  0  0  0
   20.6786   -7.0241  -13.7695 C   0  0  0  0  0  0  0  0  0  0  0  0
   21.7377   -7.1293  -12.8497 O   0  0  0  0  0  0  0  0  0  0  0  0
   19.5966   -6.6045  -13.2324 O   0  0  0  0  0  0  0  0  0  0  0  0
  1  2  1  0
  3  2  1  0
  3  5  1  0
  4  3  2  0
  5  6  1  0
  6  7  1  1
  6 10  1  0
  7  8  1  0
  8 12  1  0
  9  8  2  0
 10 11  2  0
 10 19  1  0
 14 13  1  0
 14 16  1  0
 15 14  2  0
 17 16  1  0
 18 17  1  6
 19 18  1  0
 20 21  1  0
 20 18  1  0
 22 20  2  0
M  END
$$$$
