GDQ.pdb
     RDKit          3D

 22 21  0  0  1  0  0  0  0  0999 V2000
   25.8343  -18.8420  -16.0614 N   0  0  0  0  0  0  0  0  0  0  0  0
   24.7206  -18.5430  -16.9214 C   0  0  0  0  0  0  0  0  0  0  0  0
   23.5574  -18.1824  -16.0717 C   0  0  0  0  0  0  0  0  0  0  0  0
   23.5868  -18.2444  -14.8129 O   0  0  0  0  0  0  0  0  0  0  0  0
   22.3164  -17.7361  -16.6545 N   0  0  0  0  0  0  0  0  0  0  0  0
   21.2092  -17.3030  -15.8679 C   0  0  1  0  0  0  0  0  0  0  0  0
   20.2823  -16.3496  -16.5366 C   0  0  0  0  0  0  0  0  0  0  0  0
   20.8471  -14.9947  -16.7123 C   0  0  0  0  0  0  0  0  0  0  0  0
   21.5820  -14.7755  -17.7042 O   0  0  0  0  0  0  0  0  0  0  0  0
   20.4347  -18.5246  -15.4743 C   0  0  0  0  0  0  0  0  0  0  0  0
   20.3330  -19.5340  -16.2133 O   0  0  0  0  0  0  0  0  0  0  0  0
   20.6007  -13.9608  -15.8325 O   0  0  0  0  0  0  0  0  0  0  0  0
   19.7988  -23.1313  -10.1002 N   0  0  0  0  0  0  0  0  0  0  0  0
   20.1483  -21.9492  -10.8024 C   0  0  0  0  0  0  0  0  0  0  0  0
   21.1257  -21.2175  -10.4564 O   0  0  0  0  0  0  0  0  0  0  0  0
   19.3934  -21.5017  -11.9913 C   0  0  0  0  0  0  0  0  0  0  0  0
   19.9224  -20.2804  -12.6387 C   0  0  0  0  0  0  0  0  0  0  0  0
   19.1153  -19.7802  -13.7755 C   0  0  2  0  0  0  0  0  0  0  0  0
   19.7953  -18.5337  -14.2186 N   0  0  0  0  0  0  0  0  0  0  0  0
   17.7209  -19.4238  -13.5557 C   0  0  0  0  0  0  0  0  0  0  0  0
   16.7089  -20.3967  -13.4646 O   0  0  0  0  0  0  0  0  0  0  0  0
   17.2750  -18.2324  -13.4258 O   0  0  0  0  0  0  0  0  0  0  0  0
  1  2  1  0
  3  2  1  0
  3  5  1  0
  4  3  2  0
  5  6  1  0
  6  7  1  6
  6 10  1  0
  7  8  1  0
  8 12  1  0
  9  8  2  0
 10 11  2  0
 10 19  1  0
 14 13  1  0
 14 16  1  0
 15 14  2  0
 17 16  1  0
 18 17  1  1
 19 18  1  0
 20 21  1  0
 20 18  1  0
 22 20  2  0
M  END
$$$$
