GDQ.pdb
     RDKit          3D

 22 21  0  0  1  0  0  0  0  0999 V2000
   17.2567  -11.9163  -14.9190 N   0  0  0  0  0  0  0  0  0  0  0  0
   18.2771  -12.0289  -15.9267 C   0  0  0  0  0  0  0  0  0  0  0  0
   18.5432  -10.6752  -16.4759 C   0  0  0  0  0  0  0  0  0  0  0  0
   19.6873  -10.3054  -16.8549 O   0  0  0  0  0  0  0  0  0  0  0  0
   17.4883   -9.7007  -16.6048 N   0  0  0  0  0  0  0  0  0  0  0  0
   17.6633   -8.4641  -17.2919 C   0  0  1  0  0  0  0  0  0  0  0  0
   16.4144   -7.8247  -17.7882 C   0  0  0  0  0  0  0  0  0  0  0  0
   16.6481   -6.6037  -18.5884 C   0  0  0  0  0  0  0  0  0  0  0  0
   17.4762   -6.6526  -19.5286 O   0  0  0  0  0  0  0  0  0  0  0  0
   18.3403   -7.5184  -16.3462 C   0  0  0  0  0  0  0  0  0  0  0  0
   18.1895   -7.5756  -15.1016 O   0  0  0  0  0  0  0  0  0  0  0  0
   15.9948   -5.4130  -18.3459 O   0  0  0  0  0  0  0  0  0  0  0  0
   21.3953   -7.1044  -12.9445 N   0  0  0  0  0  0  0  0  0  0  0  0
   22.0956   -5.9603  -13.4062 C   0  0  0  0  0  0  0  0  0  0  0  0
   22.6953   -5.1670  -12.6178 O   0  0  0  0  0  0  0  0  0  0  0  0
   22.1746   -5.6273  -14.8437 C   0  0  0  0  0  0  0  0  0  0  0  0
   21.2159   -6.3572  -15.7032 C   0  0  0  0  0  0  0  0  0  0  0  0
   19.9381   -5.6496  -15.9491 C   0  0  2  0  0  0  0  0  0  0  0  0
   19.1813   -6.5240  -16.8845 N   0  0  0  0  0  0  0  0  0  0  0  0
   19.9626   -4.3286  -16.5608 C   0  0  0  0  0  0  0  0  0  0  0  0
   20.0487   -4.1543  -17.9540 O   0  0  0  0  0  0  0  0  0  0  0  0
   19.9106   -3.2199  -15.9257 O   0  0  0  0  0  0  0  0  0  0  0  0
  1  2  1  0
  3  2  1  0
  3  5  1  0
  4  3  2  0
  5  6  1  0
  6  7  1  1
  6 10  1  0
  7  8  1  0
  8 12  1  0
  9  8  2  0
 10 11  2  0
 10 19  1  0
 14 13  1  0
 14 16  1  0
 15 14  2  0
 17 16  1  0
 18 17  1  6
 19 18  1  0
 20 21  1  0
 20 18  1  0
 22 20  2  0
M  END
$$$$
