GDQ.pdb
     RDKit          3D

 22 21  0  0  1  0  0  0  0  0999 V2000
   26.5699  -19.2586  -20.9475 N   0  0  0  0  0  0  0  0  0  0  0  0
   26.3561  -18.8316  -19.5906 C   0  0  0  0  0  0  0  0  0  0  0  0
   26.1815  -20.0381  -18.7428 C   0  0  0  0  0  0  0  0  0  0  0  0
   25.7884  -21.1441  -19.2028 O   0  0  0  0  0  0  0  0  0  0  0  0
   26.4578  -20.0035  -17.3281 N   0  0  0  0  0  0  0  0  0  0  0  0
   26.3186  -21.1474  -16.4890 C   0  0  1  0  0  0  0  0  0  0  0  0
   27.4588  -21.4096  -15.5691 C   0  0  0  0  0  0  0  0  0  0  0  0
   28.6772  -21.8918  -16.2537 C   0  0  0  0  0  0  0  0  0  0  0  0
   29.3376  -21.0802  -16.9446 O   0  0  0  0  0  0  0  0  0  0  0  0
   25.0790  -20.9527  -15.6689 C   0  0  0  0  0  0  0  0  0  0  0  0
   24.7138  -19.8302  -15.2425 O   0  0  0  0  0  0  0  0  0  0  0  0
   29.1194  -23.1957  -16.1655 O   0  0  0  0  0  0  0  0  0  0  0  0
   20.8690  -25.6395  -14.7715 N   0  0  0  0  0  0  0  0  0  0  0  0
   20.3871  -24.5798  -13.9606 C   0  0  0  0  0  0  0  0  0  0  0  0
   19.3512  -24.6955  -13.2368 O   0  0  0  0  0  0  0  0  0  0  0  0
   21.0730  -23.2723  -13.9053 C   0  0  0  0  0  0  0  0  0  0  0  0
   22.3377  -23.2022  -14.6710 C   0  0  0  0  0  0  0  0  0  0  0  0
   23.0171  -21.8866  -14.6300 C   0  0  2  0  0  0  0  0  0  0  0  0
   24.2939  -22.0834  -15.3671 N   0  0  0  0  0  0  0  0  0  0  0  0
   23.3782  -21.3121  -13.3418 C   0  0  0  0  0  0  0  0  0  0  0  0
   22.5555  -20.3786  -12.6855 O   0  0  0  0  0  0  0  0  0  0  0  0
   24.4429  -21.5804  -12.6863 O   0  0  0  0  0  0  0  0  0  0  0  0
  1  2  1  0
  3  2  1  0
  3  5  1  0
  4  3  2  0
  5  6  1  0
  6  7  1  1
  6 10  1  0
  7  8  1  0
  8 12  1  0
  9  8  2  0
 10 11  2  0
 10 19  1  0
 14 13  1  0
 14 16  1  0
 15 14  2  0
 17 16  1  0
 18 17  1  1
 19 18  1  0
 20 21  1  0
 20 18  1  0
 22 20  2  0
M  END
$$$$
