GDQ.pdb
     RDKit          3D

 22 21  0  0  1  0  0  0  0  0999 V2000
   18.1714  -14.2684  -16.4578 N   0  0  0  0  0  0  0  0  0  0  0  0
   17.2798  -13.1621  -16.6830 C   0  0  0  0  0  0  0  0  0  0  0  0
   18.0933  -11.9689  -17.0284 C   0  0  0  0  0  0  0  0  0  0  0  0
   19.0972  -12.0245  -17.7891 O   0  0  0  0  0  0  0  0  0  0  0  0
   17.7696  -10.6662  -16.5021 N   0  0  0  0  0  0  0  0  0  0  0  0
   18.4989   -9.4923  -16.8519 C   0  0  1  0  0  0  0  0  0  0  0  0
   17.6723   -8.3097  -17.2168 C   0  0  0  0  0  0  0  0  0  0  0  0
   18.4642   -7.1490  -17.6766 C   0  0  0  0  0  0  0  0  0  0  0  0
   17.9990   -5.9981  -17.5001 O   0  0  0  0  0  0  0  0  0  0  0  0
   19.3561   -9.1310  -15.6765 C   0  0  0  0  0  0  0  0  0  0  0  0
   18.9114   -9.0621  -14.5049 O   0  0  0  0  0  0  0  0  0  0  0  0
   19.6927   -7.2769  -18.2914 O   0  0  0  0  0  0  0  0  0  0  0  0
   25.4685  -10.0417  -16.0549 N   0  0  0  0  0  0  0  0  0  0  0  0
   24.4510  -10.9723  -15.7210 C   0  0  0  0  0  0  0  0  0  0  0  0
   24.6205  -12.2264  -15.8141 O   0  0  0  0  0  0  0  0  0  0  0  0
   23.1270  -10.5321  -15.2345 C   0  0  0  0  0  0  0  0  0  0  0  0
   22.9492   -9.0645  -15.1620 C   0  0  0  0  0  0  0  0  0  0  0  0
   21.6031   -8.6221  -14.7305 C   0  0  2  0  0  0  0  0  0  0  0  0
   20.7197   -8.8579  -15.9037 N   0  0  0  0  0  0  0  0  0  0  0  0
   21.4005   -7.2329  -14.3445 C   0  0  0  0  0  0  0  0  0  0  0  0
   21.6923   -6.7696  -13.0487 O   0  0  0  0  0  0  0  0  0  0  0  0
   20.9515   -6.3120  -15.1098 O   0  0  0  0  0  0  0  0  0  0  0  0
  1  2  1  0
  3  2  1  0
  3  5  1  0
  4  3  2  0
  5  6  1  0
  6  7  1  1
  6 10  1  0
  7  8  1  0
  8 12  1  0
  9  8  2  0
 10 11  2  0
 10 19  1  0
 14 13  1  0
 14 16  1  0
 15 14  2  0
 17 16  1  0
 18 17  1  6
 19 18  1  0
 20 21  1  0
 20 18  1  0
 22 20  2  0
M  END
$$$$
