EYF.pdb
     RDKit          3D

 33 34  0  0  1  0  0  0  0  0999 V2000
    9.0032  -18.8260   20.8720 N   0  0  0  0  0  0  0  0  0  0  0  0
   10.3908  -18.5827   20.6947 C   0  0  1  0  0  0  0  0  0  0  0  0
   10.6825  -18.4871   19.2372 C   0  0  0  0  0  0  0  0  0  0  0  0
    9.8350  -19.3498   18.3538 C   0  0  0  0  0  0  0  0  0  0  0  0
    9.9050  -18.9115   16.9272 C   0  0  0  0  0  0  0  0  0  0  0  0
   10.9824  -18.6808   16.3247 O   0  0  0  0  0  0  0  0  0  0  0  0
   10.7537  -17.3849   21.4863 C   0  0  0  0  0  0  0  0  0  0  0  0
   11.9524  -17.0247   21.5554 O   0  0  0  0  0  0  0  0  0  0  0  0
    8.7199  -18.7538   16.2411 O   0  0  0  0  0  0  0  0  0  0  0  0
    6.8485  -13.0560   17.6498 O   0  0  0  0  0  0  0  0  0  0  0  0
    7.3216  -13.4072   18.9136 C   0  0  0  0  0  0  0  0  0  0  0  0
    8.4346  -12.8085   19.4642 C   0  0  0  0  0  0  0  0  0  0  0  0
    8.9085  -13.1532   20.7181 C   0  0  0  0  0  0  0  0  0  0  0  0
    8.2781  -14.1205   21.4744 C   0  0  0  0  0  0  0  0  0  0  0  0
    8.7882  -14.4897   22.8199 C   0  0  0  0  0  0  0  0  0  0  0  0
   10.0189  -15.3445   22.7866 C   0  0  2  0  0  0  0  0  0  0  0  0
    9.7489  -16.6272   22.1796 N   0  0  0  0  0  0  0  0  0  0  0  0
   10.4342  -15.5569   24.1995 C   0  0  0  0  0  0  0  0  0  0  0  0
   11.5197  -15.0777   24.6487 O   0  0  0  0  0  0  0  0  0  0  0  0
    7.1638  -14.7201   20.9238 C   0  0  0  0  0  0  0  0  0  0  0  0
    6.6886  -14.3746   19.6666 C   0  0  0  0  0  0  0  0  0  0  0  0
    9.5804  -16.3159   25.0433 N   0  0  0  0  0  0  0  0  0  0  0  0
    9.9210  -16.4791   26.4508 C   0  0  1  0  0  0  0  0  0  0  0  0
    9.8661  -15.1170   27.0690 C   0  0  0  0  0  0  0  0  0  0  0  0
    8.5973  -14.4054   26.9235 C   0  0  0  0  0  0  0  0  0  0  0  0
    8.2867  -13.2343   27.5936 C   0  0  0  0  0  0  0  0  0  0  0  0
    7.0877  -12.5806   27.4349 C   0  0  0  0  0  0  0  0  0  0  0  0
    6.1477  -13.0967   26.5803 C   0  0  0  0  0  0  0  0  0  0  0  0
    6.4078  -14.2664   25.8850 C   0  0  0  0  0  0  0  0  0  0  0  0
    7.6370  -14.9053   26.0697 C   0  0  0  0  0  0  0  0  0  0  0  0
    8.9300  -17.3960   27.0544 C   0  0  0  0  0  0  0  0  0  0  0  0
    8.9863  -17.8007   28.3872 O   0  0  0  0  0  0  0  0  0  0  0  0
    7.9905  -17.8436   26.3612 O   0  0  0  0  0  0  0  0  0  0  0  0
  2  1  1  6
  3  2  1  0
  4  3  1  0
  5  4  1  0
  5  6  2  0
  7  2  1  0
  7  8  2  0
  9  5  1  0
 10 11  1  0
 11 12  2  0
 12 13  1  0
 14 13  2  0
 14 15  1  0
 16 15  1  1
 16 17  1  0
 17  7  1  0
 18 16  1  0
 19 18  2  0
 20 14  1  0
 21 11  1  0
 21 20  2  0
 22 18  1  0
 23 24  1  1
 23 22  1  0
 24 25  1  0
 25 30  1  0
 26 25  2  0
 26 27  1  0
 27 28  2  0
 28 29  1  0
 30 29  2  0
 31 32  1  0
 31 23  1  0
 33 31  2  0
M  END
$$$$
