EYF.pdb
     RDKit          3D

 33 34  0  0  1  0  0  0  0  0999 V2000
    9.9677  -17.4541   18.7757 N   0  0  0  0  0  0  0  0  0  0  0  0
    9.7692  -16.3960   19.7015 C   0  0  1  0  0  0  0  0  0  0  0  0
    8.8771  -15.3750   19.0849 C   0  0  0  0  0  0  0  0  0  0  0  0
    8.5916  -14.1741   19.9331 C   0  0  0  0  0  0  0  0  0  0  0  0
    7.5841  -13.2759   19.2924 C   0  0  0  0  0  0  0  0  0  0  0  0
    6.7381  -13.6705   18.4524 O   0  0  0  0  0  0  0  0  0  0  0  0
    9.2720  -16.9794   20.9686 C   0  0  0  0  0  0  0  0  0  0  0  0
    8.2304  -17.6769   20.9657 O   0  0  0  0  0  0  0  0  0  0  0  0
    7.5887  -11.9438   19.6466 O   0  0  0  0  0  0  0  0  0  0  0  0
   15.6622  -18.4507   21.5459 O   0  0  0  0  0  0  0  0  0  0  0  0
   14.3702  -18.4966   22.0683 C   0  0  0  0  0  0  0  0  0  0  0  0
   14.1141  -18.2289   23.3961 C   0  0  0  0  0  0  0  0  0  0  0  0
   12.8337  -18.2730   23.9199 C   0  0  0  0  0  0  0  0  0  0  0  0
   11.7515  -18.5901   23.1241 C   0  0  0  0  0  0  0  0  0  0  0  0
   10.3778  -18.6373   23.6879 C   0  0  0  0  0  0  0  0  0  0  0  0
    9.5808  -17.3916   23.4442 C   0  0  2  0  0  0  0  0  0  0  0  0
    9.9677  -16.7566   22.2058 N   0  0  0  0  0  0  0  0  0  0  0  0
    9.8717  -16.4665   24.5727 C   0  0  0  0  0  0  0  0  0  0  0  0
   10.6929  -15.5077   24.4466 O   0  0  0  0  0  0  0  0  0  0  0  0
   12.0071  -18.8580   21.7948 C   0  0  0  0  0  0  0  0  0  0  0  0
   13.2908  -18.8140   21.2695 C   0  0  0  0  0  0  0  0  0  0  0  0
    9.2035  -16.6827   25.8072 N   0  0  0  0  0  0  0  0  0  0  0  0
    9.4448  -15.7769   26.9231 C   0  0  1  0  0  0  0  0  0  0  0  0
    8.1071  -15.2730   27.3671 C   0  0  0  0  0  0  0  0  0  0  0  0
    7.5454  -14.1814   26.5733 C   0  0  0  0  0  0  0  0  0  0  0  0
    6.5788  -14.3535   25.5971 C   0  0  0  0  0  0  0  0  0  0  0  0
    6.0620  -13.3089   24.8678 C   0  0  0  0  0  0  0  0  0  0  0  0
    6.5119  -12.0353   25.1045 C   0  0  0  0  0  0  0  0  0  0  0  0
    7.4784  -11.8077   26.0706 C   0  0  0  0  0  0  0  0  0  0  0  0
    7.9821  -12.8923   26.7938 C   0  0  0  0  0  0  0  0  0  0  0  0
   10.1246  -16.5425   27.9903 C   0  0  0  0  0  0  0  0  0  0  0  0
   10.4018  -17.9046   27.8859 O   0  0  0  0  0  0  0  0  0  0  0  0
   10.4762  -15.9676   29.0436 O   0  0  0  0  0  0  0  0  0  0  0  0
  2  1  1  6
  3  2  1  0
  4  3  1  0
  5  4  1  0
  5  6  2  0
  7  2  1  0
  7  8  2  0
  9  5  1  0
 10 11  1  0
 11 12  2  0
 12 13  1  0
 14 13  2  0
 14 15  1  0
 16 15  1  1
 16 17  1  0
 17  7  1  0
 18 16  1  0
 19 18  2  0
 20 14  1  0
 21 11  1  0
 21 20  2  0
 22 18  1  0
 23 24  1  1
 23 22  1  0
 24 25  1  0
 25 30  1  0
 26 25  2  0
 26 27  1  0
 27 28  2  0
 28 29  1  0
 30 29  2  0
 31 32  1  0
 31 23  1  0
 33 31  2  0
M  END
$$$$
