EYF.pdb
     RDKit          3D

 33 34  0  0  1  0  0  0  0  0999 V2000
    7.4481  -21.2366   23.7128 N   0  0  0  0  0  0  0  0  0  0  0  0
    6.9196  -20.0401   24.2652 C   0  0  1  0  0  0  0  0  0  0  0  0
    7.0452  -20.0955   25.7483 C   0  0  0  0  0  0  0  0  0  0  0  0
    7.0917  -21.4710   26.3389 C   0  0  0  0  0  0  0  0  0  0  0  0
    7.1655  -21.4264   27.8304 C   0  0  0  0  0  0  0  0  0  0  0  0
    7.1952  -22.4523   28.5542 O   0  0  0  0  0  0  0  0  0  0  0  0
    7.6017  -18.8943   23.6209 C   0  0  0  0  0  0  0  0  0  0  0  0
    8.7487  -19.0446   23.1382 O   0  0  0  0  0  0  0  0  0  0  0  0
    7.2027  -20.1901   28.4386 O   0  0  0  0  0  0  0  0  0  0  0  0
    8.7076  -11.6048   18.8262 O   0  0  0  0  0  0  0  0  0  0  0  0
    8.1897  -12.5512   19.7097 C   0  0  0  0  0  0  0  0  0  0  0  0
    7.8661  -12.2294   21.0105 C   0  0  0  0  0  0  0  0  0  0  0  0
    7.3519  -13.1647   21.8917 C   0  0  0  0  0  0  0  0  0  0  0  0
    7.1405  -14.4705   21.4977 C   0  0  0  0  0  0  0  0  0  0  0  0
    6.5888  -15.4733   22.4447 C   0  0  0  0  0  0  0  0  0  0  0  0
    7.6031  -16.4588   22.9410 C   0  0  2  0  0  0  0  0  0  0  0  0
    6.9663  -17.6081   23.5411 N   0  0  0  0  0  0  0  0  0  0  0  0
    8.4123  -15.7600   23.9757 C   0  0  0  0  0  0  0  0  0  0  0  0
    8.3890  -14.4967   24.0915 O   0  0  0  0  0  0  0  0  0  0  0  0
    7.4640  -14.7932   20.1956 C   0  0  0  0  0  0  0  0  0  0  0  0
    7.9798  -13.8556   19.3121 C   0  0  0  0  0  0  0  0  0  0  0  0
    9.2203  -16.5458   24.8399 N   0  0  0  0  0  0  0  0  0  0  0  0
    9.9243  -15.9064   25.9441 C   0  0  1  0  0  0  0  0  0  0  0  0
    8.8939  -15.5716   26.9770 C   0  0  0  0  0  0  0  0  0  0  0  0
    8.1503  -14.3331   26.7525 C   0  0  0  0  0  0  0  0  0  0  0  0
    6.7699  -14.2646   26.6695 C   0  0  0  0  0  0  0  0  0  0  0  0
    6.0935  -13.0856   26.4634 C   0  0  0  0  0  0  0  0  0  0  0  0
    6.8005  -11.9180   26.3324 C   0  0  0  0  0  0  0  0  0  0  0  0
    8.1838  -11.9307   26.4075 C   0  0  0  0  0  0  0  0  0  0  0  0
    8.8397  -13.1467   26.6180 C   0  0  0  0  0  0  0  0  0  0  0  0
   10.9263  -16.8646   26.4592 C   0  0  0  0  0  0  0  0  0  0  0  0
   11.8496  -16.5350   27.4502 O   0  0  0  0  0  0  0  0  0  0  0  0
   10.9699  -18.0278   26.0025 O   0  0  0  0  0  0  0  0  0  0  0  0
  2  1  1  6
  3  2  1  0
  4  3  1  0
  5  4  1  0
  5  6  2  0
  7  2  1  0
  7  8  2  0
  9  5  1  0
 10 11  1  0
 11 12  2  0
 12 13  1  0
 14 13  2  0
 14 15  1  0
 16 15  1  1
 16 17  1  0
 17  7  1  0
 18 16  1  0
 19 18  2  0
 20 14  1  0
 21 11  1  0
 21 20  2  0
 22 18  1  0
 23 24  1  1
 23 22  1  0
 24 25  1  0
 25 30  1  0
 26 25  2  0
 26 27  1  0
 27 28  2  0
 28 29  1  0
 30 29  2  0
 31 32  1  0
 31 23  1  0
 33 31  2  0
M  END
$$$$
