EYF.pdb
     RDKit          3D

 33 34  0  0  1  0  0  0  0  0999 V2000
    8.8682  -18.8239   21.5249 N   0  0  0  0  0  0  0  0  0  0  0  0
   10.2526  -18.5793   21.3261 C   0  0  1  0  0  0  0  0  0  0  0  0
   10.5550  -18.6673   19.8703 C   0  0  0  0  0  0  0  0  0  0  0  0
    9.6536  -19.5645   19.0793 C   0  0  0  0  0  0  0  0  0  0  0  0
    9.3816  -19.0094   17.7192 C   0  0  0  0  0  0  0  0  0  0  0  0
    9.8710  -17.9317   17.2995 O   0  0  0  0  0  0  0  0  0  0  0  0
   10.5872  -17.2827   21.9584 C   0  0  0  0  0  0  0  0  0  0  0  0
   11.7246  -16.7835   21.7896 O   0  0  0  0  0  0  0  0  0  0  0  0
    8.5481  -19.7231   16.8850 O   0  0  0  0  0  0  0  0  0  0  0  0
    6.8716  -13.9503   17.5911 O   0  0  0  0  0  0  0  0  0  0  0  0
    7.2825  -14.0659   18.9185 C   0  0  0  0  0  0  0  0  0  0  0  0
    8.1715  -13.1765   19.4833 C   0  0  0  0  0  0  0  0  0  0  0  0
    8.5828  -13.2865   20.8003 C   0  0  0  0  0  0  0  0  0  0  0  0
    8.1134  -14.3023   21.6083 C   0  0  0  0  0  0  0  0  0  0  0  0
    8.5560  -14.4193   23.0216 C   0  0  0  0  0  0  0  0  0  0  0  0
    9.8104  -15.2204   23.1983 C   0  0  2  0  0  0  0  0  0  0  0  0
    9.6244  -16.5861   22.7659 N   0  0  0  0  0  0  0  0  0  0  0  0
   10.1250  -15.2129   24.6525 C   0  0  0  0  0  0  0  0  0  0  0  0
   10.9827  -14.4146   25.1393 O   0  0  0  0  0  0  0  0  0  0  0  0
    7.2234  -15.1928   21.0436 C   0  0  0  0  0  0  0  0  0  0  0  0
    6.8110  -15.0827   19.7231 C   0  0  0  0  0  0  0  0  0  0  0  0
    9.4377  -16.1286   25.4928 N   0  0  0  0  0  0  0  0  0  0  0  0
    9.8549  -16.2830   26.8805 C   0  0  1  0  0  0  0  0  0  0  0  0
    9.6218  -14.9650   27.5506 C   0  0  0  0  0  0  0  0  0  0  0  0
    8.4741  -14.2008   27.0647 C   0  0  0  0  0  0  0  0  0  0  0  0
    8.4198  -12.8175   27.0430 C   0  0  0  0  0  0  0  0  0  0  0  0
    7.3300  -12.1219   26.5753 C   0  0  0  0  0  0  0  0  0  0  0  0
    6.2417  -12.8118   26.1064 C   0  0  0  0  0  0  0  0  0  0  0  0
    6.2443  -14.1972   26.1057 C   0  0  0  0  0  0  0  0  0  0  0  0
    7.3685  -14.8729   26.5882 C   0  0  0  0  0  0  0  0  0  0  0  0
    9.0369  -17.3574   27.4837 C   0  0  0  0  0  0  0  0  0  0  0  0
    8.0703  -18.0643   26.7701 O   0  0  0  0  0  0  0  0  0  0  0  0
    9.1981  -17.6649   28.6850 O   0  0  0  0  0  0  0  0  0  0  0  0
  2  1  1  6
  3  2  1  0
  4  3  1  0
  5  4  1  0
  5  6  2  0
  7  2  1  0
  7  8  2  0
  9  5  1  0
 10 11  1  0
 11 12  2  0
 12 13  1  0
 14 13  2  0
 14 15  1  0
 16 15  1  1
 16 17  1  0
 17  7  1  0
 18 16  1  0
 19 18  2  0
 20 14  1  0
 21 11  1  0
 21 20  2  0
 22 18  1  0
 23 24  1  1
 23 22  1  0
 24 25  1  0
 25 30  1  0
 26 25  2  0
 26 27  1  0
 27 28  2  0
 28 29  1  0
 30 29  2  0
 31 32  1  0
 31 23  1  0
 33 31  2  0
M  END
$$$$
