EYF.pdb
     RDKit          3D

 33 34  0  0  1  0  0  0  0  0999 V2000
    8.7832  -18.9255   20.1300 N   0  0  0  0  0  0  0  0  0  0  0  0
   10.1318  -18.6610   19.7736 C   0  0  1  0  0  0  0  0  0  0  0  0
   10.2071  -18.4292   18.3042 C   0  0  0  0  0  0  0  0  0  0  0  0
   11.5876  -18.2527   17.7508 C   0  0  0  0  0  0  0  0  0  0  0  0
   11.5690  -18.1062   16.2641 C   0  0  0  0  0  0  0  0  0  0  0  0
   12.3424  -17.3445   15.6327 O   0  0  0  0  0  0  0  0  0  0  0  0
   10.6186  -17.5404   20.6105 C   0  0  0  0  0  0  0  0  0  0  0  0
   11.8485  -17.3108   20.6884 O   0  0  0  0  0  0  0  0  0  0  0  0
   10.6515  -18.8497   15.5532 O   0  0  0  0  0  0  0  0  0  0  0  0
    7.0332  -13.1335   16.8748 O   0  0  0  0  0  0  0  0  0  0  0  0
    7.5180  -13.4646   18.1396 C   0  0  0  0  0  0  0  0  0  0  0  0
    6.8503  -14.3431   18.9659 C   0  0  0  0  0  0  0  0  0  0  0  0
    7.3269  -14.6752   20.2221 C   0  0  0  0  0  0  0  0  0  0  0  0
    8.5025  -14.1339   20.7016 C   0  0  0  0  0  0  0  0  0  0  0  0
    9.0126  -14.4911   22.0504 C   0  0  0  0  0  0  0  0  0  0  0  0
   10.1104  -15.5113   22.0313 C   0  0  2  0  0  0  0  0  0  0  0  0
    9.6990  -16.7098   21.3377 N   0  0  0  0  0  0  0  0  0  0  0  0
   10.4070  -15.8516   23.4491 C   0  0  0  0  0  0  0  0  0  0  0  0
   11.5030  -15.5176   23.9938 O   0  0  0  0  0  0  0  0  0  0  0  0
    9.1714  -13.2545   19.8750 C   0  0  0  0  0  0  0  0  0  0  0  0
    8.6936  -12.9212   18.6154 C   0  0  0  0  0  0  0  0  0  0  0  0
    9.4264  -16.5663   24.1871 N   0  0  0  0  0  0  0  0  0  0  0  0
    9.0430  -16.0990   25.5131 C   0  0  1  0  0  0  0  0  0  0  0  0
    7.9822  -15.0617   25.3154 C   0  0  0  0  0  0  0  0  0  0  0  0
    7.8640  -14.0649   26.3783 C   0  0  0  0  0  0  0  0  0  0  0  0
    6.6741  -13.4544   26.7366 C   0  0  0  0  0  0  0  0  0  0  0  0
    6.5883  -12.5235   27.7446 C   0  0  0  0  0  0  0  0  0  0  0  0
    7.7199  -12.1728   28.4351 C   0  0  0  0  0  0  0  0  0  0  0  0
    8.9366  -12.7538   28.1167 C   0  0  0  0  0  0  0  0  0  0  0  0
    8.9882  -13.6968   27.0865 C   0  0  0  0  0  0  0  0  0  0  0  0
    8.5384  -17.2613   26.2758 C   0  0  0  0  0  0  0  0  0  0  0  0
    8.2528  -18.4900   25.6825 O   0  0  0  0  0  0  0  0  0  0  0  0
    8.3497  -17.1650   27.5082 O   0  0  0  0  0  0  0  0  0  0  0  0
  2  1  1  1
  3  2  1  0
  4  3  1  0
  5  4  1  0
  5  6  2  0
  7  2  1  0
  7  8  2  0
  9  5  1  0
 10 11  1  0
 11 12  2  0
 12 13  1  0
 14 13  2  0
 14 15  1  0
 16 15  1  1
 16 17  1  0
 17  7  1  0
 18 16  1  0
 19 18  2  0
 20 14  1  0
 21 11  1  0
 21 20  2  0
 22 18  1  0
 23 24  1  6
 23 22  1  0
 24 25  1  0
 25 30  1  0
 26 25  2  0
 26 27  1  0
 27 28  2  0
 28 29  1  0
 30 29  2  0
 31 32  1  0
 31 23  1  0
 33 31  2  0
M  END
$$$$
