EYF.pdb
     RDKit          3D

 33 34  0  0  1  0  0  0  0  0999 V2000
    8.8297  -17.7622   18.7653 N   0  0  0  0  0  0  0  0  0  0  0  0
    8.3680  -17.6562   20.1038 C   0  0  1  0  0  0  0  0  0  0  0  0
    8.1171  -19.0236   20.6384 C   0  0  0  0  0  0  0  0  0  0  0  0
    7.1651  -19.8611   19.8414 C   0  0  0  0  0  0  0  0  0  0  0  0
    6.9372  -21.1924   20.4799 C   0  0  0  0  0  0  0  0  0  0  0  0
    7.4755  -21.5456   21.5582 O   0  0  0  0  0  0  0  0  0  0  0  0
    9.3510  -16.8550   20.8685 C   0  0  0  0  0  0  0  0  0  0  0  0
   10.4821  -16.6260   20.3791 O   0  0  0  0  0  0  0  0  0  0  0  0
    6.0896  -22.0759   19.8467 O   0  0  0  0  0  0  0  0  0  0  0  0
    6.4095  -13.3003   17.9750 O   0  0  0  0  0  0  0  0  0  0  0  0
    7.2810  -13.4964   19.0457 C   0  0  0  0  0  0  0  0  0  0  0  0
    6.8838  -14.1449   20.1955 C   0  0  0  0  0  0  0  0  0  0  0  0
    7.7445  -14.3422   21.2613 C   0  0  0  0  0  0  0  0  0  0  0  0
    9.0485  -13.8925   21.2137 C   0  0  0  0  0  0  0  0  0  0  0  0
    9.9710  -14.1047   22.3586 C   0  0  0  0  0  0  0  0  0  0  0  0
    9.9292  -15.4939   22.9196 C   0  0  2  0  0  0  0  0  0  0  0  0
    9.0268  -16.3349   22.1681 N   0  0  0  0  0  0  0  0  0  0  0  0
    9.4315  -15.3793   24.3171 C   0  0  0  0  0  0  0  0  0  0  0  0
    8.8718  -14.3200   24.7348 O   0  0  0  0  0  0  0  0  0  0  0  0
    9.4468  -13.2434   20.0629 C   0  0  0  0  0  0  0  0  0  0  0  0
    8.5839  -13.0453   18.9943 C   0  0  0  0  0  0  0  0  0  0  0  0
    9.5985  -16.4928   25.1827 N   0  0  0  0  0  0  0  0  0  0  0  0
    9.3142  -16.3469   26.6045 C   0  0  1  0  0  0  0  0  0  0  0  0
    7.8332  -16.1718   26.7329 C   0  0  0  0  0  0  0  0  0  0  0  0
    7.3435  -14.8002   26.6057 C   0  0  0  0  0  0  0  0  0  0  0  0
    7.9048  -13.7155   27.2579 C   0  0  0  0  0  0  0  0  0  0  0  0
    7.4288  -12.4334   27.1170 C   0  0  0  0  0  0  0  0  0  0  0  0
    6.3529  -12.2009   26.2993 C   0  0  0  0  0  0  0  0  0  0  0  0
    5.7538  -13.2512   25.6231 C   0  0  0  0  0  0  0  0  0  0  0  0
    6.2631  -14.5421   25.7889 C   0  0  0  0  0  0  0  0  0  0  0  0
    9.7833  -17.5709   27.2893 C   0  0  0  0  0  0  0  0  0  0  0  0
   10.3426  -18.6517   26.6094 O   0  0  0  0  0  0  0  0  0  0  0  0
    9.6851  -17.6674   28.5321 O   0  0  0  0  0  0  0  0  0  0  0  0
  2  1  1  6
  3  2  1  0
  4  3  1  0
  5  4  1  0
  5  6  2  0
  7  2  1  0
  7  8  2  0
  9  5  1  0
 10 11  1  0
 11 12  2  0
 12 13  1  0
 14 13  2  0
 14 15  1  0
 16 15  1  6
 16 17  1  0
 17  7  1  0
 18 16  1  0
 19 18  2  0
 20 14  1  0
 21 11  1  0
 21 20  2  0
 22 18  1  0
 23 24  1  6
 23 22  1  0
 24 25  1  0
 25 30  1  0
 26 25  2  0
 26 27  1  0
 27 28  2  0
 28 29  1  0
 30 29  2  0
 31 32  1  0
 31 23  1  0
 33 31  2  0
M  END
$$$$
