QIF.pdb
     RDKit          3D

 29 29  0  0  1  0  0  0  0  0999 V2000
   18.0792  -18.9986  -11.2017 N   0  0  0  0  0  0  0  0  0  0  0  0
   18.4886  -18.0279  -12.1524 C   0  0  0  0  0  0  0  0  0  0  0  0
   17.6079  -17.2789  -12.6429 O   0  0  0  0  0  0  0  0  0  0  0  0
   19.9019  -17.9062  -12.5481 C   0  0  0  0  0  0  0  0  0  0  0  0
   20.8021  -18.8202  -11.7437 C   0  0  0  0  0  0  0  0  0  0  0  0
   21.5042  -19.7337  -12.6996 C   0  0  2  0  0  0  0  0  0  0  0  0
   20.5876  -20.6200  -13.3856 N   0  0  0  0  0  0  0  0  0  0  0  0
   22.5885  -20.5119  -12.1275 C   0  0  0  0  0  0  0  0  0  0  0  0
   22.3311  -21.5958  -11.5406 O   0  0  0  0  0  0  0  0  0  0  0  0
   26.3713  -22.2748  -15.1272 C   0  0  0  0  0  0  0  0  0  0  0  0
   25.4439  -22.1729  -13.9383 C   0  0  0  0  0  0  0  0  0  0  0  0
   26.0195  -21.2340  -12.8797 C   0  0  2  0  0  0  0  0  0  0  0  0
   27.2724  -21.9126  -12.3835 C   0  0  0  0  0  0  0  0  0  0  0  0
   25.0291  -21.0724  -11.7378 C   0  0  2  0  0  0  0  0  0  0  0  0
   23.9637  -20.1419  -12.1750 N   0  0  0  0  0  0  0  0  0  0  0  0
   25.7220  -20.4091  -10.6094 C   0  0  0  0  0  0  0  0  0  0  0  0
   25.9548  -19.1582  -10.7253 O   0  0  0  0  0  0  0  0  0  0  0  0
   26.1397  -21.0416   -9.4265 N   0  0  0  0  0  0  0  0  0  0  0  0
   27.0216  -20.3159   -8.5008 C   0  0  1  0  0  0  0  0  0  0  0  0
   26.4266  -20.3209   -7.1192 C   0  0  0  0  0  0  0  0  0  0  0  0
   27.4061  -19.7895   -6.1538 C   0  0  0  0  0  0  0  0  0  0  0  0
   27.5692  -18.4137   -5.9686 C   0  0  0  0  0  0  0  0  0  0  0  0
   28.4778  -17.9755   -5.0418 C   0  0  0  0  0  0  0  0  0  0  0  0
   29.2326  -18.8616   -4.2901 C   0  0  0  0  0  0  0  0  0  0  0  0
   29.0717  -20.2188   -4.4725 C   0  0  0  0  0  0  0  0  0  0  0  0
   28.1700  -20.6602   -5.3923 C   0  0  0  0  0  0  0  0  0  0  0  0
   28.3607  -20.9195   -8.5645 C   0  0  0  0  0  0  0  0  0  0  0  0
   29.5116  -20.2000   -8.2903 O   0  0  0  0  0  0  0  0  0  0  0  0
   28.4949  -22.1423   -8.8818 O   0  0  0  0  0  0  0  0  0  0  0  0
  2  3  2  0
  2  1  1  0
  4  2  1  0
  5  6  1  0
  5  4  1  0
  6  8  1  0
  6  7  1  1
  8  9  2  0
 10 11  1  0
 12 11  1  0
 12 13  1  1
 12 14  1  0
 14 15  1  6
 15  8  1  0
 16 14  1  0
 16 17  2  0
 18 16  1  0
 19 18  1  0
 19 27  1  0
 19 20  1  1
 21 20  1  0
 21 26  2  0
 22 21  1  0
 23 22  2  0
 23 24  1  0
 24 25  2  0
 25 26  1  0
 27 29  2  0
 27 28  1  0
M  END
$$$$
