QIF.pdb
     RDKit          3D

 29 29  0  0  1  0  0  0  0  0999 V2000
   22.4061  -15.9708  -17.5298 N   0  0  0  0  0  0  0  0  0  0  0  0
   21.3619  -16.6790  -16.8804 C   0  0  0  0  0  0  0  0  0  0  0  0
   20.7489  -16.0984  -15.9506 O   0  0  0  0  0  0  0  0  0  0  0  0
   21.0117  -18.0505  -17.2868 C   0  0  0  0  0  0  0  0  0  0  0  0
   21.3655  -19.0700  -16.2246 C   0  0  0  0  0  0  0  0  0  0  0  0
   22.8360  -19.3365  -16.3133 C   0  0  2  0  0  0  0  0  0  0  0  0
   23.2389  -19.7567  -17.6390 N   0  0  0  0  0  0  0  0  0  0  0  0
   23.3544  -20.2743  -15.3330 C   0  0  0  0  0  0  0  0  0  0  0  0
   22.9903  -21.4789  -15.3746 O   0  0  0  0  0  0  0  0  0  0  0  0
   28.4175  -20.2719  -13.4811 C   0  0  0  0  0  0  0  0  0  0  0  0
   27.0334  -20.6947  -13.9164 C   0  0  0  0  0  0  0  0  0  0  0  0
   26.0424  -20.5821  -12.7593 C   0  0  2  0  0  0  0  0  0  0  0  0
   26.4928  -21.6064  -11.7472 C   0  0  0  0  0  0  0  0  0  0  0  0
   24.6403  -20.9130  -13.2448 C   0  0  2  0  0  0  0  0  0  0  0  0
   24.2695  -19.9368  -14.2944 N   0  0  0  0  0  0  0  0  0  0  0  0
   23.6955  -20.6971  -12.1248 C   0  0  0  0  0  0  0  0  0  0  0  0
   24.0568  -19.8826  -11.2091 O   0  0  0  0  0  0  0  0  0  0  0  0
   22.4392  -21.3113  -11.9906 N   0  0  0  0  0  0  0  0  0  0  0  0
   21.6464  -21.0598  -10.7784 C   0  0  1  0  0  0  0  0  0  0  0  0
   21.4167  -19.5820  -10.6160 C   0  0  0  0  0  0  0  0  0  0  0  0
   20.5154  -19.0989  -11.6781 C   0  0  0  0  0  0  0  0  0  0  0  0
   21.0133  -18.6631  -12.9095 C   0  0  0  0  0  0  0  0  0  0  0  0
   20.1289  -18.2460  -13.8687 C   0  0  0  0  0  0  0  0  0  0  0  0
   18.7614  -18.2473  -13.6451 C   0  0  0  0  0  0  0  0  0  0  0  0
   18.2702  -18.6772  -12.4306 C   0  0  0  0  0  0  0  0  0  0  0  0
   19.1445  -19.0931  -11.4732 C   0  0  0  0  0  0  0  0  0  0  0  0
   20.4033  -21.8401  -10.8652 C   0  0  0  0  0  0  0  0  0  0  0  0
   19.4714  -21.8656   -9.8413 O   0  0  0  0  0  0  0  0  0  0  0  0
   20.1517  -22.5258  -11.9046 O   0  0  0  0  0  0  0  0  0  0  0  0
  2  3  2  0
  2  1  1  0
  4  2  1  0
  5  6  1  0
  5  4  1  0
  6  8  1  0
  6  7  1  6
  8  9  2  0
 10 11  1  0
 12 11  1  0
 12 13  1  1
 12 14  1  0
 14 15  1  6
 15  8  1  0
 16 14  1  0
 16 17  2  0
 18 16  1  0
 19 18  1  0
 19 27  1  0
 19 20  1  6
 21 20  1  0
 21 26  2  0
 22 21  1  0
 23 22  2  0
 23 24  1  0
 24 25  2  0
 25 26  1  0
 27 29  2  0
 27 28  1  0
M  END
$$$$
