QIF.pdb
     RDKit          3D

 29 29  0  0  1  0  0  0  0  0999 V2000
   20.7109  -17.9901  -13.4246 N   0  0  0  0  0  0  0  0  0  0  0  0
   19.6902  -18.6470  -14.1596 C   0  0  0  0  0  0  0  0  0  0  0  0
   18.5206  -18.1984  -14.0693 O   0  0  0  0  0  0  0  0  0  0  0  0
   19.9969  -19.8169  -14.9998 C   0  0  0  0  0  0  0  0  0  0  0  0
   21.4611  -20.1979  -14.9377 C   0  0  0  0  0  0  0  0  0  0  0  0
   22.1499  -19.5734  -16.1111 C   0  0  2  0  0  0  0  0  0  0  0  0
   21.6878  -20.1158  -17.3715 N   0  0  0  0  0  0  0  0  0  0  0  0
   23.6010  -19.6177  -16.0714 C   0  0  0  0  0  0  0  0  0  0  0  0
   24.1933  -20.7116  -16.2663 O   0  0  0  0  0  0  0  0  0  0  0  0
   27.0714  -15.6269  -17.6847 C   0  0  0  0  0  0  0  0  0  0  0  0
   26.3879  -16.9387  -17.3750 C   0  0  0  0  0  0  0  0  0  0  0  0
   26.5611  -17.3068  -15.9026 C   0  0  2  0  0  0  0  0  0  0  0  0
   28.0511  -17.4151  -15.6912 C   0  0  0  0  0  0  0  0  0  0  0  0
   25.8979  -18.6457  -15.6225 C   0  0  2  0  0  0  0  0  0  0  0  0
   24.4390  -18.4925  -15.8226 N   0  0  0  0  0  0  0  0  0  0  0  0
   26.0885  -18.9703  -14.1900 C   0  0  0  0  0  0  0  0  0  0  0  0
   26.2326  -17.9878  -13.3861 O   0  0  0  0  0  0  0  0  0  0  0  0
   26.1209  -20.2655  -13.6468 N   0  0  0  0  0  0  0  0  0  0  0  0
   26.3708  -20.4310  -12.2075 C   0  0  1  0  0  0  0  0  0  0  0  0
   25.3921  -19.6026  -11.4209 C   0  0  0  0  0  0  0  0  0  0  0  0
   25.5837  -19.8423   -9.9788 C   0  0  0  0  0  0  0  0  0  0  0  0
   24.9562  -20.9104   -9.3311 C   0  0  0  0  0  0  0  0  0  0  0  0
   25.1877  -21.0996   -7.9944 C   0  0  0  0  0  0  0  0  0  0  0  0
   26.0246  -20.2603   -7.2767 C   0  0  0  0  0  0  0  0  0  0  0  0
   26.6437  -19.2068   -7.9153 C   0  0  0  0  0  0  0  0  0  0  0  0
   26.4175  -19.0137   -9.2440 C   0  0  0  0  0  0  0  0  0  0  0  0
   26.3152  -21.8649  -11.8875 C   0  0  0  0  0  0  0  0  0  0  0  0
   27.1057  -22.4359  -10.9044 O   0  0  0  0  0  0  0  0  0  0  0  0
   25.5240  -22.6300  -12.5220 O   0  0  0  0  0  0  0  0  0  0  0  0
  2  3  2  0
  2  1  1  0
  4  2  1  0
  5  6  1  0
  5  4  1  0
  6  8  1  0
  6  7  1  6
  8  9  2  0
 10 11  1  0
 12 11  1  0
 12 13  1  6
 12 14  1  0
 14 15  1  1
 15  8  1  0
 16 14  1  0
 16 17  2  0
 18 16  1  0
 19 18  1  0
 19 27  1  0
 19 20  1  1
 21 20  1  0
 21 26  2  0
 22 21  1  0
 23 22  2  0
 23 24  1  0
 24 25  2  0
 25 26  1  0
 27 29  2  0
 27 28  1  0
M  END
$$$$
