QIF.pdb
     RDKit          3D

 29 29  0  0  1  0  0  0  0  0999 V2000
   24.5719  -15.0243  -16.3432 N   0  0  0  0  0  0  0  0  0  0  0  0
   25.9518  -14.8483  -16.6235 C   0  0  0  0  0  0  0  0  0  0  0  0
   26.3078  -13.7734  -17.1668 O   0  0  0  0  0  0  0  0  0  0  0  0
   26.9314  -15.8950  -16.2864 C   0  0  0  0  0  0  0  0  0  0  0  0
   26.2892  -17.0773  -15.5917 C   0  0  0  0  0  0  0  0  0  0  0  0
   27.3460  -18.1158  -15.3778 C   0  0  2  0  0  0  0  0  0  0  0  0
   27.9967  -18.4996  -16.6130 N   0  0  0  0  0  0  0  0  0  0  0  0
   26.9073  -19.3083  -14.6745 C   0  0  0  0  0  0  0  0  0  0  0  0
   26.5643  -20.3253  -15.3329 O   0  0  0  0  0  0  0  0  0  0  0  0
   29.5682  -21.2543  -10.5221 C   0  0  0  0  0  0  0  0  0  0  0  0
   28.6906  -21.1733  -11.7498 C   0  0  0  0  0  0  0  0  0  0  0  0
   27.2388  -20.8987  -11.3622 C   0  0  2  0  0  0  0  0  0  0  0  0
   26.7798  -22.1369  -10.6323 C   0  0  0  0  0  0  0  0  0  0  0  0
   26.3997  -20.6916  -12.6128 C   0  0  2  0  0  0  0  0  0  0  0  0
   26.8293  -19.4298  -13.2570 N   0  0  0  0  0  0  0  0  0  0  0  0
   24.9913  -20.4891  -12.2015 C   0  0  0  0  0  0  0  0  0  0  0  0
   24.7683  -19.6000  -11.3115 O   0  0  0  0  0  0  0  0  0  0  0  0
   23.8862  -21.1912  -12.7109 N   0  0  0  0  0  0  0  0  0  0  0  0
   22.5404  -20.6227  -12.5464 C   0  0  1  0  0  0  0  0  0  0  0  0
   22.5126  -19.2150  -13.0761 C   0  0  0  0  0  0  0  0  0  0  0  0
   21.1283  -18.7077  -13.0680 C   0  0  0  0  0  0  0  0  0  0  0  0
   20.5094  -18.3066  -11.8805 C   0  0  0  0  0  0  0  0  0  0  0  0
   19.2295  -17.8218  -11.9343 C   0  0  0  0  0  0  0  0  0  0  0  0
   18.5410  -17.7215  -13.1326 C   0  0  0  0  0  0  0  0  0  0  0  0
   19.1513  -18.1169  -14.3040 C   0  0  0  0  0  0  0  0  0  0  0  0
   20.4236  -18.5997  -14.2568 C   0  0  0  0  0  0  0  0  0  0  0  0
   21.5747  -21.5154  -13.2037 C   0  0  0  0  0  0  0  0  0  0  0  0
   20.2910  -21.7033  -12.7197 O   0  0  0  0  0  0  0  0  0  0  0  0
   21.9048  -22.1506  -14.2531 O   0  0  0  0  0  0  0  0  0  0  0  0
  2  3  2  0
  2  1  1  0
  4  2  1  0
  5  6  1  0
  5  4  1  0
  6  8  1  0
  6  7  1  6
  8  9  2  0
 10 11  1  0
 12 11  1  0
 12 13  1  6
 12 14  1  0
 14 15  1  1
 15  8  1  0
 16 14  1  0
 16 17  2  0
 18 16  1  0
 19 18  1  0
 19 27  1  0
 19 20  1  6
 21 20  1  0
 21 26  2  0
 22 21  1  0
 23 22  2  0
 23 24  1  0
 24 25  2  0
 25 26  1  0
 27 29  2  0
 27 28  1  0
M  END
$$$$
