QIF.pdb
     RDKit          3D

 29 29  0  0  1  0  0  0  0  0999 V2000
   18.0990  -22.0248  -11.2029 N   0  0  0  0  0  0  0  0  0  0  0  0
   18.2657  -22.5573  -12.5076 C   0  0  0  0  0  0  0  0  0  0  0  0
   17.5926  -22.0502  -13.4388 O   0  0  0  0  0  0  0  0  0  0  0  0
   19.1989  -23.6689  -12.7570 C   0  0  0  0  0  0  0  0  0  0  0  0
   18.6189  -25.0060  -12.3466 C   0  0  0  0  0  0  0  0  0  0  0  0
   19.6612  -26.0536  -12.5864 C   0  0  2  0  0  0  0  0  0  0  0  0
   19.9285  -26.2496  -13.9959 N   0  0  0  0  0  0  0  0  0  0  0  0
   19.4005  -27.3390  -11.9629 C   0  0  0  0  0  0  0  0  0  0  0  0
   18.5551  -28.1174  -12.4774 O   0  0  0  0  0  0  0  0  0  0  0  0
   20.9817  -30.9987  -12.1421 C   0  0  0  0  0  0  0  0  0  0  0  0
   21.8117  -30.1273  -11.2279 C   0  0  0  0  0  0  0  0  0  0  0  0
   21.0663  -29.8427   -9.9252 C   0  0  2  0  0  0  0  0  0  0  0  0
   20.8107  -31.1956   -9.3081 C   0  0  0  0  0  0  0  0  0  0  0  0
   19.7465  -29.1506  -10.2249 C   0  0  2  0  0  0  0  0  0  0  0  0
   20.0403  -27.8099  -10.7801 N   0  0  0  0  0  0  0  0  0  0  0  0
   19.0375  -28.9232   -8.9446 C   0  0  0  0  0  0  0  0  0  0  0  0
   19.7372  -28.5099   -7.9587 O   0  0  0  0  0  0  0  0  0  0  0  0
   17.6636  -29.1223   -8.7291 N   0  0  0  0  0  0  0  0  0  0  0  0
   17.1010  -28.8454   -7.3993 C   0  0  1  0  0  0  0  0  0  0  0  0
   16.2534  -27.6037   -7.4521 C   0  0  0  0  0  0  0  0  0  0  0  0
   17.1088  -26.4273   -7.6936 C   0  0  0  0  0  0  0  0  0  0  0  0
   17.3162  -25.9338   -8.9848 C   0  0  0  0  0  0  0  0  0  0  0  0
   18.1021  -24.8240   -9.1490 C   0  0  0  0  0  0  0  0  0  0  0  0
   18.6913  -24.1857   -8.0695 C   0  0  0  0  0  0  0  0  0  0  0  0
   18.4868  -24.6723   -6.7957 C   0  0  0  0  0  0  0  0  0  0  0  0
   17.7064  -25.7751   -6.6263 C   0  0  0  0  0  0  0  0  0  0  0  0
   16.3678  -30.0368   -6.9470 C   0  0  0  0  0  0  0  0  0  0  0  0
   15.7744  -30.1117   -5.6981 O   0  0  0  0  0  0  0  0  0  0  0  0
   16.2619  -31.0480   -7.7085 O   0  0  0  0  0  0  0  0  0  0  0  0
  2  3  2  0
  2  1  1  0
  4  2  1  0
  5  6  1  0
  5  4  1  0
  6  8  1  0
  6  7  1  6
  8  9  2  0
 10 11  1  0
 12 11  1  0
 12 13  1  6
 12 14  1  0
 14 15  1  1
 15  8  1  0
 16 14  1  0
 16 17  2  0
 18 16  1  0
 19 18  1  0
 19 27  1  0
 19 20  1  6
 21 20  1  0
 21 26  2  0
 22 21  1  0
 23 22  2  0
 23 24  1  0
 24 25  2  0
 25 26  1  0
 27 29  2  0
 27 28  1  0
M  END
$$$$
