QIF.pdb
     RDKit          3D

 29 29  0  0  1  0  0  0  0  0999 V2000
   14.0041  -11.0765  -17.5701 N   0  0  0  0  0  0  0  0  0  0  0  0
   15.1724  -11.6209  -16.9766 C   0  0  0  0  0  0  0  0  0  0  0  0
   15.1010  -12.0014  -15.7818 O   0  0  0  0  0  0  0  0  0  0  0  0
   16.4261  -11.7343  -17.7408 C   0  0  0  0  0  0  0  0  0  0  0  0
   17.4467  -10.6966  -17.3233 C   0  0  0  0  0  0  0  0  0  0  0  0
   18.6630  -10.8767  -18.1772 C   0  0  2  0  0  0  0  0  0  0  0  0
   19.2501  -12.1916  -18.0261 N   0  0  0  0  0  0  0  0  0  0  0  0
   19.6931   -9.8674  -18.0064 C   0  0  0  0  0  0  0  0  0  0  0  0
   20.6260  -10.0667  -17.1847 O   0  0  0  0  0  0  0  0  0  0  0  0
   20.7534   -7.9384  -21.8818 C   0  0  0  0  0  0  0  0  0  0  0  0
   21.6957   -7.5133  -20.7793 C   0  0  0  0  0  0  0  0  0  0  0  0
   20.9450   -6.7556  -19.6858 C   0  0  2  0  0  0  0  0  0  0  0  0
   21.8046   -5.5567  -19.3691 C   0  0  0  0  0  0  0  0  0  0  0  0
   20.8028   -7.6332  -18.4526 C   0  0  2  0  0  0  0  0  0  0  0  0
   19.7397   -8.6305  -18.7122 N   0  0  0  0  0  0  0  0  0  0  0  0
   20.3182   -6.7917  -17.3343 C   0  0  0  0  0  0  0  0  0  0  0  0
   19.1767   -6.2362  -17.4778 O   0  0  0  0  0  0  0  0  0  0  0  0
   21.0088   -6.5584  -16.1334 N   0  0  0  0  0  0  0  0  0  0  0  0
   20.4032   -5.6837  -15.1188 C   0  0  1  0  0  0  0  0  0  0  0  0
   19.7512   -6.5170  -14.0496 C   0  0  0  0  0  0  0  0  0  0  0  0
   20.7502   -7.4128  -13.4386 C   0  0  0  0  0  0  0  0  0  0  0  0
   20.9228   -8.7238  -13.8920 C   0  0  0  0  0  0  0  0  0  0  0  0
   21.8815   -9.5050  -13.3030 C   0  0  0  0  0  0  0  0  0  0  0  0
   22.6774   -9.0260  -12.2749 C   0  0  0  0  0  0  0  0  0  0  0  0
   22.5074   -7.7329  -11.8276 C   0  0  0  0  0  0  0  0  0  0  0  0
   21.5560   -6.9516  -12.4093 C   0  0  0  0  0  0  0  0  0  0  0  0
   21.4419   -4.7789  -14.6047 C   0  0  0  0  0  0  0  0  0  0  0  0
   22.7782   -4.9186  -14.9398 O   0  0  0  0  0  0  0  0  0  0  0  0
   21.1296   -3.8283  -13.8221 O   0  0  0  0  0  0  0  0  0  0  0  0
  2  3  2  0
  2  1  1  0
  4  2  1  0
  5  6  1  0
  5  4  1  0
  6  8  1  0
  6  7  1  1
  8  9  2  0
 10 11  1  0
 12 11  1  0
 12 13  1  1
 12 14  1  0
 14 15  1  6
 15  8  1  0
 16 14  1  0
 16 17  2  0
 18 16  1  0
 19 18  1  0
 19 27  1  0
 19 20  1  1
 21 20  1  0
 21 26  2  0
 22 21  1  0
 23 22  2  0
 23 24  1  0
 24 25  2  0
 25 26  1  0
 27 29  2  0
 27 28  1  0
M  END
$$$$
