QIF.pdb
     RDKit          3D

 29 29  0  0  1  0  0  0  0  0999 V2000
   27.6689  -17.0516  -15.8183 N   0  0  0  0  0  0  0  0  0  0  0  0
   28.0450  -17.4934  -17.1133 C   0  0  0  0  0  0  0  0  0  0  0  0
   28.7653  -16.7331  -17.8064 O   0  0  0  0  0  0  0  0  0  0  0  0
   27.6027  -18.8020  -17.6239 C   0  0  0  0  0  0  0  0  0  0  0  0
   26.7445  -19.5465  -16.6228 C   0  0  0  0  0  0  0  0  0  0  0  0
   27.6244  -20.5085  -15.8869 C   0  0  2  0  0  0  0  0  0  0  0  0
   28.1222  -21.5635  -16.7445 N   0  0  0  0  0  0  0  0  0  0  0  0
   27.0381  -21.0942  -14.6944 C   0  0  0  0  0  0  0  0  0  0  0  0
   26.4081  -22.1808  -14.7829 O   0  0  0  0  0  0  0  0  0  0  0  0
   29.5594  -21.1063   -9.9845 C   0  0  0  0  0  0  0  0  0  0  0  0
   28.6470  -21.5428  -11.1076 C   0  0  0  0  0  0  0  0  0  0  0  0
   27.2799  -20.8718  -10.9882 C   0  0  2  0  0  0  0  0  0  0  0  0
   26.6319  -21.4994   -9.7787 C   0  0  0  0  0  0  0  0  0  0  0  0
   26.4517  -21.1604  -12.2299 C   0  0  2  0  0  0  0  0  0  0  0  0
   27.1173  -20.5259  -13.3902 N   0  0  0  0  0  0  0  0  0  0  0  0
   25.1410  -20.4863  -12.0836 C   0  0  0  0  0  0  0  0  0  0  0  0
   25.1560  -19.2549  -11.7434 O   0  0  0  0  0  0  0  0  0  0  0  0
   23.8889  -21.0888  -12.2904 N   0  0  0  0  0  0  0  0  0  0  0  0
   22.6735  -20.2699  -12.1738 C   0  0  1  0  0  0  0  0  0  0  0  0
   22.7199  -19.1428  -13.1690 C   0  0  0  0  0  0  0  0  0  0  0  0
   22.6309  -19.6836  -14.5377 C   0  0  0  0  0  0  0  0  0  0  0  0
   23.7773  -20.0481  -15.2497 C   0  0  0  0  0  0  0  0  0  0  0  0
   23.6348  -20.5666  -16.5095 C   0  0  0  0  0  0  0  0  0  0  0  0
   22.3871  -20.7358  -17.0880 C   0  0  0  0  0  0  0  0  0  0  0  0
   21.2563  -20.3764  -16.3858 C   0  0  0  0  0  0  0  0  0  0  0  0
   21.3917  -19.8605  -15.1330 C   0  0  0  0  0  0  0  0  0  0  0  0
   21.5044  -21.1468  -12.3354 C   0  0  0  0  0  0  0  0  0  0  0  0
   20.2069  -20.6864  -12.1879 O   0  0  0  0  0  0  0  0  0  0  0  0
   21.6624  -22.3751  -12.6184 O   0  0  0  0  0  0  0  0  0  0  0  0
  2  3  2  0
  2  1  1  0
  4  2  1  0
  5  6  1  0
  5  4  1  0
  6  8  1  0
  6  7  1  6
  8  9  2  0
 10 11  1  0
 12 11  1  0
 12 13  1  1
 12 14  1  0
 14 15  1  6
 15  8  1  0
 16 14  1  0
 16 17  2  0
 18 16  1  0
 19 18  1  0
 19 27  1  0
 19 20  1  6
 21 20  1  0
 21 26  2  0
 22 21  1  0
 23 22  2  0
 23 24  1  0
 24 25  2  0
 25 26  1  0
 27 29  2  0
 27 28  1  0
M  END
$$$$
