VWA.pdb
     RDKit          3D

 27 28  0  0  1  0  0  0  0  0999 V2000
    9.0506  -17.2728   19.3334 C   0  0  0  0  0  0  0  0  0  0  0  0
    8.1284  -16.1254   19.0904 C   0  0  1  0  0  0  0  0  0  0  0  0
    7.2476  -16.2339   17.8990 C   0  0  0  0  0  0  0  0  0  0  0  0
    7.3287  -15.7073   20.3054 C   0  0  2  0  0  0  0  0  0  0  0  0
    6.6227  -14.4384   20.0156 N   0  0  0  0  0  0  0  0  0  0  0  0
    8.1683  -15.4199   21.4938 C   0  0  0  0  0  0  0  0  0  0  0  0
    8.8181  -14.3235   21.5712 O   0  0  0  0  0  0  0  0  0  0  0  0
    8.3389  -16.2642   22.6081 N   0  0  0  0  0  0  0  0  0  0  0  0
    9.2549  -15.9282   23.7199 C   0  0  1  0  0  0  0  0  0  0  0  0
    8.4900  -16.2583   24.9482 C   0  0  0  0  0  0  0  0  0  0  0  0
    7.3562  -15.4246   25.3173 C   0  0  0  0  0  0  0  0  0  0  0  0
    6.0052  -15.7312   25.3206 C   0  0  0  0  0  0  0  0  0  0  0  0
    5.3564  -14.6432   25.6980 N   0  0  0  0  0  0  0  0  0  0  0  0
    6.2091  -13.6274   25.9470 C   0  0  0  0  0  0  0  0  0  0  0  0
    6.0346  -12.3195   26.3747 C   0  0  0  0  0  0  0  0  0  0  0  0
    7.1211  -11.5001   26.5652 C   0  0  0  0  0  0  0  0  0  0  0  0
    8.4046  -11.9593   26.3360 C   0  0  0  0  0  0  0  0  0  0  0  0
    8.5845  -13.2495   25.9126 C   0  0  0  0  0  0  0  0  0  0  0  0
    7.4874  -14.0893   25.7153 C   0  0  0  0  0  0  0  0  0  0  0  0
   10.5237  -16.6518   23.6546 C   0  0  0  0  0  0  0  0  0  0  0  0
   10.4527  -17.9142   23.4981 O   0  0  0  0  0  0  0  0  0  0  0  0
   14.0502  -16.2388   22.7737 C   0  0  0  0  0  0  0  0  0  0  0  0
   12.9862  -16.9301   23.5875 C   0  0  2  0  0  0  0  0  0  0  0  0
   11.8184  -16.0928   23.7471 N   0  0  0  0  0  0  0  0  0  0  0  0
   13.5745  -17.3106   24.8965 C   0  0  0  0  0  0  0  0  0  0  0  0
   14.5967  -18.0286   24.9920 O   0  0  0  0  0  0  0  0  0  0  0  0
   12.9784  -16.8598   26.0624 O   0  0  0  0  0  0  0  0  0  0  0  0
  2  4  1  0
  2  1  1  1
  2  3  1  0
  4  5  1  6
  6  4  1  0
  6  7  2  0
  8  6  1  0
  9  8  1  0
  9 10  1  1
 11 19  1  0
 11 10  1  0
 12 11  2  0
 13 12  1  0
 13 14  1  0
 14 15  1  0
 14 19  2  0
 15 16  2  0
 16 17  1  0
 18 17  2  0
 19 18  1  0
 20 24  1  0
 20  9  1  0
 21 20  2  0
 23 22  1  6
 23 24  1  0
 23 25  1  0
 25 27  1  0
 26 25  2  0
M  END
$$$$
