VWA.pdb
     RDKit          3D

 27 28  0  0  1  0  0  0  0  0999 V2000
   10.0958  -18.6741   19.2924 C   0  0  0  0  0  0  0  0  0  0  0  0
   10.0933  -17.4922   18.3819 C   0  0  1  0  0  0  0  0  0  0  0  0
   10.0635  -17.7869   16.9261 C   0  0  0  0  0  0  0  0  0  0  0  0
    9.0591  -16.4442   18.7324 C   0  0  2  0  0  0  0  0  0  0  0  0
    9.2583  -15.2523   17.8768 N   0  0  0  0  0  0  0  0  0  0  0  0
    9.1740  -15.9446   20.1242 C   0  0  0  0  0  0  0  0  0  0  0  0
   10.1831  -15.2449   20.4742 O   0  0  0  0  0  0  0  0  0  0  0  0
    8.2457  -16.1653   21.1601 N   0  0  0  0  0  0  0  0  0  0  0  0
    8.4727  -15.6819   22.5395 C   0  0  1  0  0  0  0  0  0  0  0  0
    7.1126  -15.5489   23.1185 C   0  0  0  0  0  0  0  0  0  0  0  0
    6.9768  -15.2242   24.5302 C   0  0  0  0  0  0  0  0  0  0  0  0
    6.7087  -16.0606   25.6016 C   0  0  0  0  0  0  0  0  0  0  0  0
    6.6444  -15.3043   26.6838 N   0  0  0  0  0  0  0  0  0  0  0  0
    6.8574  -14.0056   26.3857 C   0  0  0  0  0  0  0  0  0  0  0  0
    6.9093  -12.8486   27.1489 C   0  0  0  0  0  0  0  0  0  0  0  0
    7.1726  -11.6369   26.5567 C   0  0  0  0  0  0  0  0  0  0  0  0
    7.3902  -11.5456   25.1946 C   0  0  0  0  0  0  0  0  0  0  0  0
    7.3395  -12.6839   24.4345 C   0  0  0  0  0  0  0  0  0  0  0  0
    7.0721  -13.9192   25.0265 C   0  0  0  0  0  0  0  0  0  0  0  0
    9.3178  -16.5775   23.3279 C   0  0  0  0  0  0  0  0  0  0  0  0
    9.0220  -17.8163   23.2951 O   0  0  0  0  0  0  0  0  0  0  0  0
   12.6952  -17.0156   24.5158 C   0  0  0  0  0  0  0  0  0  0  0  0
   11.2247  -17.2213   24.7754 C   0  0  2  0  0  0  0  0  0  0  0  0
   10.4277  -16.2080   24.1210 N   0  0  0  0  0  0  0  0  0  0  0  0
   11.0076  -17.2297   26.2442 C   0  0  0  0  0  0  0  0  0  0  0  0
   11.6064  -18.0212   27.0087 O   0  0  0  0  0  0  0  0  0  0  0  0
   10.1113  -16.3324   26.8003 O   0  0  0  0  0  0  0  0  0  0  0  0
  2  4  1  0
  2  1  1  1
  2  3  1  0
  4  5  1  6
  6  4  1  0
  6  7  2  0
  8  6  1  0
  9  8  1  0
  9 10  1  1
 11 19  1  0
 11 10  1  0
 12 11  2  0
 13 12  1  0
 13 14  1  0
 14 15  1  0
 14 19  2  0
 15 16  2  0
 16 17  1  0
 18 17  2  0
 19 18  1  0
 20 24  1  0
 20  9  1  0
 21 20  2  0
 23 22  1  1
 23 24  1  0
 23 25  1  0
 25 27  1  0
 26 25  2  0
M  END
$$$$
