VWA.pdb
     RDKit          3D

 27 28  0  0  1  0  0  0  0  0999 V2000
    8.5654  -17.0352   19.3851 C   0  0  0  0  0  0  0  0  0  0  0  0
    7.9400  -15.7031   19.1391 C   0  0  1  0  0  0  0  0  0  0  0  0
    7.0552  -15.6044   17.9498 C   0  0  0  0  0  0  0  0  0  0  0  0
    7.2651  -15.1035   20.3538 C   0  0  2  0  0  0  0  0  0  0  0  0
    6.8716  -13.7071   20.0577 N   0  0  0  0  0  0  0  0  0  0  0  0
    8.1543  -15.0118   21.5374 C   0  0  0  0  0  0  0  0  0  0  0  0
    9.0203  -14.0771   21.6194 O   0  0  0  0  0  0  0  0  0  0  0  0
    8.1514  -15.8854   22.6421 N   0  0  0  0  0  0  0  0  0  0  0  0
    9.1907  -15.8320   23.6933 C   0  0  1  0  0  0  0  0  0  0  0  0
    8.4673  -16.1422   24.9515 C   0  0  0  0  0  0  0  0  0  0  0  0
    7.3824  -15.2696   25.3737 C   0  0  0  0  0  0  0  0  0  0  0  0
    6.0171  -15.5043   25.3758 C   0  0  0  0  0  0  0  0  0  0  0  0
    5.4301  -14.4040   25.8140 N   0  0  0  0  0  0  0  0  0  0  0  0
    6.3375  -13.4486   26.1046 C   0  0  0  0  0  0  0  0  0  0  0  0
    6.2362  -12.1565   26.5990 C   0  0  0  0  0  0  0  0  0  0  0  0
    7.3662  -11.4062   26.8188 C   0  0  0  0  0  0  0  0  0  0  0  0
    8.6217  -11.9203   26.5534 C   0  0  0  0  0  0  0  0  0  0  0  0
    8.7293  -13.1952   26.0641 C   0  0  0  0  0  0  0  0  0  0  0  0
    7.5875  -13.9649   25.8366 C   0  0  0  0  0  0  0  0  0  0  0  0
   10.2949  -16.7600   23.4540 C   0  0  0  0  0  0  0  0  0  0  0  0
   10.2296  -17.4624   22.3931 O   0  0  0  0  0  0  0  0  0  0  0  0
   13.2206  -16.1533   22.8362 C   0  0  0  0  0  0  0  0  0  0  0  0
   12.7067  -17.2810   23.6943 C   0  0  2  0  0  0  0  0  0  0  0  0
   11.4253  -16.9557   24.2794 N   0  0  0  0  0  0  0  0  0  0  0  0
   13.7264  -17.5791   24.7315 C   0  0  0  0  0  0  0  0  0  0  0  0
   13.8773  -16.8675   25.7515 O   0  0  0  0  0  0  0  0  0  0  0  0
   14.5470  -18.6837   24.5752 O   0  0  0  0  0  0  0  0  0  0  0  0
  2  4  1  0
  2  1  1  1
  2  3  1  0
  4  5  1  6
  6  4  1  0
  6  7  2  0
  8  6  1  0
  9  8  1  0
  9 10  1  1
 11 19  1  0
 11 10  1  0
 12 11  2  0
 13 12  1  0
 13 14  1  0
 14 15  1  0
 14 19  2  0
 15 16  2  0
 16 17  1  0
 18 17  2  0
 19 18  1  0
 20 24  1  0
 20  9  1  0
 21 20  2  0
 23 22  1  1
 23 24  1  0
 23 25  1  0
 25 27  1  0
 26 25  2  0
M  END
$$$$
