VWA.pdb
     RDKit          3D

 27 28  0  0  1  0  0  0  0  0999 V2000
    8.3208  -19.3053   17.3621 C   0  0  0  0  0  0  0  0  0  0  0  0
    8.7842  -18.5778   18.5795 C   0  0  1  0  0  0  0  0  0  0  0  0
   10.2431  -18.6257   18.8557 C   0  0  0  0  0  0  0  0  0  0  0  0
    8.2707  -17.1579   18.6838 C   0  0  2  0  0  0  0  0  0  0  0  0
    8.9403  -16.3176   17.6650 N   0  0  0  0  0  0  0  0  0  0  0  0
    8.5813  -16.5123   19.9824 C   0  0  0  0  0  0  0  0  0  0  0  0
    9.6375  -15.8068   20.1127 O   0  0  0  0  0  0  0  0  0  0  0  0
    7.8007  -16.5922   21.1520 N   0  0  0  0  0  0  0  0  0  0  0  0
    8.1720  -15.8874   22.3983 C   0  0  1  0  0  0  0  0  0  0  0  0
    6.8914  -15.7196   23.1296 C   0  0  0  0  0  0  0  0  0  0  0  0
    6.9254  -15.3013   24.5226 C   0  0  0  0  0  0  0  0  0  0  0  0
    6.7992  -16.0646   25.6718 C   0  0  0  0  0  0  0  0  0  0  0  0
    6.8593  -15.2376   26.7012 N   0  0  0  0  0  0  0  0  0  0  0  0
    7.0203  -13.9613   26.2939 C   0  0  0  0  0  0  0  0  0  0  0  0
    7.1525  -12.7555   26.9667 C   0  0  0  0  0  0  0  0  0  0  0  0
    7.3284  -11.5856   26.2677 C   0  0  0  0  0  0  0  0  0  0  0  0
    7.3772  -11.5853   24.8862 C   0  0  0  0  0  0  0  0  0  0  0  0
    7.2464  -12.7722   24.2151 C   0  0  0  0  0  0  0  0  0  0  0  0
    7.0665  -13.9657   24.9159 C   0  0  0  0  0  0  0  0  0  0  0  0
    9.1642  -16.6114   23.1915 C   0  0  0  0  0  0  0  0  0  0  0  0
    8.9925  -17.8682   23.3098 O   0  0  0  0  0  0  0  0  0  0  0  0
   12.6696  -16.4631   24.2058 C   0  0  0  0  0  0  0  0  0  0  0  0
   11.2597  -16.9209   24.4794 C   0  0  2  0  0  0  0  0  0  0  0  0
   10.2923  -16.0584   23.8387 N   0  0  0  0  0  0  0  0  0  0  0  0
   11.0636  -16.9718   25.9503 C   0  0  0  0  0  0  0  0  0  0  0  0
   10.1882  -16.2941   26.5367 O   0  0  0  0  0  0  0  0  0  0  0  0
   11.8740  -17.7968   26.7122 O   0  0  0  0  0  0  0  0  0  0  0  0
  2  4  1  0
  2  1  1  6
  2  3  1  0
  4  5  1  6
  6  4  1  0
  6  7  2  0
  8  6  1  0
  9  8  1  0
  9 10  1  1
 11 19  1  0
 11 10  1  0
 12 11  2  0
 13 12  1  0
 13 14  1  0
 14 15  1  0
 14 19  2  0
 15 16  2  0
 16 17  1  0
 18 17  2  0
 19 18  1  0
 20 24  1  0
 20  9  1  0
 21 20  2  0
 23 22  1  1
 23 24  1  0
 23 25  1  0
 25 27  1  0
 26 25  2  0
M  END
$$$$
