SSL.pdb
     RDKit          3D

 21 20  0  0  1  0  0  0  0  0999 V2000
   10.5292  -12.9522   20.1697 O   0  0  0  0  0  0  0  0  0  0  0  0
   10.1595  -13.9260   19.2745 C   0  0  0  0  0  0  0  0  0  0  0  0
    8.6593  -14.1161   19.1864 C   0  0  2  0  0  0  0  0  0  0  0  0
    8.0277  -12.9353   18.6301 N   0  0  0  0  0  0  0  0  0  0  0  0
    8.0390  -14.4051   20.4919 C   0  0  0  0  0  0  0  0  0  0  0  0
    7.4039  -13.5056   21.0815 O   0  0  0  0  0  0  0  0  0  0  0  0
    8.6531  -18.0840   22.7133 O   0  0  0  0  0  0  0  0  0  0  0  0
    7.4176  -17.4656   22.5502 C   0  0  0  0  0  0  0  0  0  0  0  0
    7.5393  -15.9844   22.3875 C   0  0  2  0  0  0  0  0  0  0  0  0
    8.1431  -15.6740   21.0964 N   0  0  0  0  0  0  0  0  0  0  0  0
    8.2340  -15.3001   23.4785 C   0  0  0  0  0  0  0  0  0  0  0  0
    9.4284  -14.9280   23.2638 O   0  0  0  0  0  0  0  0  0  0  0  0
    5.6917  -12.0094   26.8883 C   0  0  0  0  0  0  0  0  0  0  0  0
    6.6617  -12.7405   25.9486 C   0  0  1  0  0  0  0  0  0  0  0  0
    7.5066  -11.6216   25.3291 C   0  0  0  0  0  0  0  0  0  0  0  0
    7.6055  -13.6026   26.7370 C   0  0  0  0  0  0  0  0  0  0  0  0
    8.4463  -14.4290   25.8518 C   0  0  2  0  0  0  0  0  0  0  0  0
    7.7070  -15.0153   24.7389 N   0  0  0  0  0  0  0  0  0  0  0  0
    8.9935  -15.5880   26.6000 C   0  0  0  0  0  0  0  0  0  0  0  0
    9.7354  -15.5180   27.6100 O   0  0  0  0  0  0  0  0  0  0  0  0
    8.7141  -16.9244   26.2236 O   0  0  0  0  0  0  0  0  0  0  0  0
  1  2  1  0
  2  3  1  0
  3  4  1  1
  3  5  1  0
  5  6  2  0
  7  8  1  0
  9  8  1  1
 10  5  1  0
 10  9  1  0
 11 18  1  0
 11  9  1  0
 12 11  2  0
 14 13  1  1
 14 15  1  0
 17 16  1  1
 16 14  1  0
 17 18  1  0
 19 21  1  0
 19 17  1  0
 20 19  2  0
M  END
$$$$
