SSL.pdb
     RDKit          3D

 21 20  0  0  1  0  0  0  0  0999 V2000
   10.9055  -13.3020   19.5243 O   0  0  0  0  0  0  0  0  0  0  0  0
   10.1587  -14.3845   19.1282 C   0  0  0  0  0  0  0  0  0  0  0  0
    8.6659  -14.1473   19.2276 C   0  0  2  0  0  0  0  0  0  0  0  0
    8.3399  -12.7860   18.8489 N   0  0  0  0  0  0  0  0  0  0  0  0
    8.1334  -14.3952   20.5794 C   0  0  0  0  0  0  0  0  0  0  0  0
    7.7601  -13.4294   21.2780 O   0  0  0  0  0  0  0  0  0  0  0  0
    8.2381  -18.2164   22.5435 O   0  0  0  0  0  0  0  0  0  0  0  0
    7.0803  -17.4477   22.4793 C   0  0  0  0  0  0  0  0  0  0  0  0
    7.3729  -15.9851   22.3770 C   0  0  2  0  0  0  0  0  0  0  0  0
    8.0331  -15.6977   21.1083 N   0  0  0  0  0  0  0  0  0  0  0  0
    8.1195  -15.4261   23.5045 C   0  0  0  0  0  0  0  0  0  0  0  0
    9.3650  -15.2426   23.3426 O   0  0  0  0  0  0  0  0  0  0  0  0
    5.6068  -12.2355   27.1810 C   0  0  0  0  0  0  0  0  0  0  0  0
    6.5516  -12.8794   26.1556 C   0  0  1  0  0  0  0  0  0  0  0  0
    7.3793  -11.7086   25.6139 C   0  0  0  0  0  0  0  0  0  0  0  0
    7.5163  -13.8044   26.8405 C   0  0  0  0  0  0  0  0  0  0  0  0
    8.3530  -14.5273   25.8654 C   0  0  2  0  0  0  0  0  0  0  0  0
    7.5914  -15.0733   24.7471 N   0  0  0  0  0  0  0  0  0  0  0  0
    8.9866  -15.7056   26.5078 C   0  0  0  0  0  0  0  0  0  0  0  0
    8.7218  -16.9052   26.2507 O   0  0  0  0  0  0  0  0  0  0  0  0
    9.9834  -15.5717   27.5049 O   0  0  0  0  0  0  0  0  0  0  0  0
  1  2  1  0
  2  3  1  0
  3  4  1  1
  3  5  1  0
  5  6  2  0
  7  8  1  0
  9  8  1  1
 10  5  1  0
 10  9  1  0
 11 18  1  0
 11  9  1  0
 12 11  2  0
 14 13  1  1
 14 15  1  0
 17 16  1  1
 16 14  1  0
 17 18  1  0
 19 21  1  0
 19 17  1  0
 20 19  2  0
M  END
$$$$
