SSL.pdb
     RDKit          3D

 21 20  0  0  1  0  0  0  0  0999 V2000
   12.1165  -17.9875   22.2294 O   0  0  0  0  0  0  0  0  0  0  0  0
   11.5116  -18.0683   20.9990 C   0  0  0  0  0  0  0  0  0  0  0  0
   11.3032  -16.7169   20.3473 C   0  0  2  0  0  0  0  0  0  0  0  0
   12.5598  -16.0001   20.2474 N   0  0  0  0  0  0  0  0  0  0  0  0
   10.3405  -15.8705   21.0748 C   0  0  0  0  0  0  0  0  0  0  0  0
   10.7488  -14.8539   21.6747 O   0  0  0  0  0  0  0  0  0  0  0  0
    6.2790  -17.0286   21.5491 O   0  0  0  0  0  0  0  0  0  0  0  0
    6.6153  -15.6864   21.4045 C   0  0  0  0  0  0  0  0  0  0  0  0
    8.0028  -15.3929   21.8777 C   0  0  2  0  0  0  0  0  0  0  0  0
    8.9655  -16.1776   21.1125 N   0  0  0  0  0  0  0  0  0  0  0  0
    8.2093  -15.5536   23.3174 C   0  0  0  0  0  0  0  0  0  0  0  0
    9.0887  -16.3904   23.6883 O   0  0  0  0  0  0  0  0  0  0  0  0
    6.1442  -11.7590   26.7534 C   0  0  0  0  0  0  0  0  0  0  0  0
    7.1778  -12.6965   26.1120 C   0  0  1  0  0  0  0  0  0  0  0  0
    8.5202  -12.2339   26.6893 C   0  0  0  0  0  0  0  0  0  0  0  0
    6.9716  -14.1066   26.5861 C   0  0  0  0  0  0  0  0  0  0  0  0
    7.7249  -15.0676   25.7597 C   0  0  2  0  0  0  0  0  0  0  0  0
    7.5292  -14.8717   24.3272 N   0  0  0  0  0  0  0  0  0  0  0  0
    7.2543  -16.4500   26.0243 C   0  0  0  0  0  0  0  0  0  0  0  0
    6.4564  -17.0979   25.3039 O   0  0  0  0  0  0  0  0  0  0  0  0
    7.6824  -17.1851   27.1566 O   0  0  0  0  0  0  0  0  0  0  0  0
  1  2  1  0
  2  3  1  0
  3  4  1  1
  3  5  1  0
  5  6  2  0
  7  8  1  0
  9  8  1  1
 10  5  1  0
 10  9  1  0
 11 18  1  0
 11  9  1  0
 12 11  2  0
 14 13  1  1
 14 15  1  0
 17 16  1  1
 16 14  1  0
 17 18  1  0
 19 21  1  0
 19 17  1  0
 20 19  2  0
M  END
$$$$
