SSL.pdb
     RDKit          3D

 21 20  0  0  1  0  0  0  0  0999 V2000
    9.3665  -15.0368   18.9126 O   0  0  0  0  0  0  0  0  0  0  0  0
    9.9223  -16.2371   19.2826 C   0  0  0  0  0  0  0  0  0  0  0  0
    8.8901  -17.2926   19.6217 C   0  0  2  0  0  0  0  0  0  0  0  0
    8.0660  -17.5894   18.4660 N   0  0  0  0  0  0  0  0  0  0  0  0
    8.0077  -16.8970   20.7341 C   0  0  0  0  0  0  0  0  0  0  0  0
    6.8072  -16.6411   20.5032 O   0  0  0  0  0  0  0  0  0  0  0  0
    7.8383  -18.6084   24.2867 O   0  0  0  0  0  0  0  0  0  0  0  0
    6.9461  -17.7344   23.6737 C   0  0  0  0  0  0  0  0  0  0  0  0
    7.6135  -16.4884   23.1866 C   0  0  2  0  0  0  0  0  0  0  0  0
    8.4830  -16.7991   22.0572 N   0  0  0  0  0  0  0  0  0  0  0  0
    8.3265  -15.7295   24.2147 C   0  0  0  0  0  0  0  0  0  0  0  0
    9.5950  -15.7630   24.1864 O   0  0  0  0  0  0  0  0  0  0  0  0
    5.6533  -11.6974   26.8823 C   0  0  0  0  0  0  0  0  0  0  0  0
    6.5832  -12.6102   26.0697 C   0  0  1  0  0  0  0  0  0  0  0  0
    7.3464  -11.6519   25.1485 C   0  0  0  0  0  0  0  0  0  0  0  0
    7.6062  -13.2475   26.9658 C   0  0  0  0  0  0  0  0  0  0  0  0
    8.4693  -14.1804   26.2187 C   0  0  2  0  0  0  0  0  0  0  0  0
    7.7431  -14.9683   25.2284 N   0  0  0  0  0  0  0  0  0  0  0  0
    9.0632  -15.1797   27.1413 C   0  0  0  0  0  0  0  0  0  0  0  0
    8.7782  -16.4017   27.1724 O   0  0  0  0  0  0  0  0  0  0  0  0
   10.0405  -14.8259   28.1033 O   0  0  0  0  0  0  0  0  0  0  0  0
  1  2  1  0
  2  3  1  0
  3  4  1  6
  3  5  1  0
  5  6  2  0
  7  8  1  0
  9  8  1  1
 10  5  1  0
 10  9  1  0
 11 18  1  0
 11  9  1  0
 12 11  2  0
 14 13  1  1
 14 15  1  0
 17 16  1  1
 16 14  1  0
 17 18  1  0
 19 21  1  0
 19 17  1  0
 20 19  2  0
M  END
$$$$
