SSL.pdb
     RDKit          3D

 21 20  0  0  1  0  0  0  0  0999 V2000
   11.8501  -16.4057   21.4756 O   0  0  0  0  0  0  0  0  0  0  0  0
   11.3345  -17.6397   21.1630 C   0  0  0  0  0  0  0  0  0  0  0  0
    9.9060  -17.5795   20.6627 C   0  0  2  0  0  0  0  0  0  0  0  0
    9.8267  -16.8048   19.4395 N   0  0  0  0  0  0  0  0  0  0  0  0
    8.9769  -16.9945   21.6460 C   0  0  0  0  0  0  0  0  0  0  0  0
    8.5214  -15.8477   21.4523 O   0  0  0  0  0  0  0  0  0  0  0  0
    7.8318  -19.0175   25.2771 O   0  0  0  0  0  0  0  0  0  0  0  0
    6.9699  -18.2273   24.5233 C   0  0  0  0  0  0  0  0  0  0  0  0
    7.6864  -17.1303   23.8032 C   0  0  2  0  0  0  0  0  0  0  0  0
    8.5862  -17.6962   22.8041 N   0  0  0  0  0  0  0  0  0  0  0  0
    8.3830  -16.1780   24.6687 C   0  0  0  0  0  0  0  0  0  0  0  0
    9.6520  -16.1982   24.6517 O   0  0  0  0  0  0  0  0  0  0  0  0
    5.7721  -11.6908   26.6169 C   0  0  0  0  0  0  0  0  0  0  0  0
    6.7630  -12.6671   25.9662 C   0  0  1  0  0  0  0  0  0  0  0  0
    7.6852  -11.7720   25.1308 C   0  0  0  0  0  0  0  0  0  0  0  0
    7.6262  -13.3125   27.0121 C   0  0  0  0  0  0  0  0  0  0  0  0
    8.4915  -14.3536   26.4281 C   0  0  2  0  0  0  0  0  0  0  0  0
    7.7834  -15.2446   25.5152 N   0  0  0  0  0  0  0  0  0  0  0  0
    9.0185  -15.2399   27.4954 C   0  0  0  0  0  0  0  0  0  0  0  0
    9.7846  -14.8851   28.4242 O   0  0  0  0  0  0  0  0  0  0  0  0
    8.6890  -16.6158   27.5596 O   0  0  0  0  0  0  0  0  0  0  0  0
  1  2  1  0
  2  3  1  0
  3  4  1  6
  3  5  1  0
  5  6  2  0
  7  8  1  0
  9  8  1  1
 10  5  1  0
 10  9  1  0
 11 18  1  0
 11  9  1  0
 12 11  2  0
 14 13  1  1
 14 15  1  0
 17 16  1  1
 16 14  1  0
 17 18  1  0
 19 21  1  0
 19 17  1  0
 20 19  2  0
M  END
$$$$
