SSL.pdb
     RDKit          3D

 21 20  0  0  1  0  0  0  0  0999 V2000
   10.5382  -12.3013   19.8363 O   0  0  0  0  0  0  0  0  0  0  0  0
   10.4293  -13.5785   19.3432 C   0  0  0  0  0  0  0  0  0  0  0  0
    8.9951  -14.0511   19.2237 C   0  0  2  0  0  0  0  0  0  0  0  0
    8.1632  -13.0135   18.6459 N   0  0  0  0  0  0  0  0  0  0  0  0
    8.4117  -14.4498   20.5173 C   0  0  0  0  0  0  0  0  0  0  0  0
    7.5984  -13.6895   21.0834 O   0  0  0  0  0  0  0  0  0  0  0  0
    9.5592  -18.0195   22.6801 O   0  0  0  0  0  0  0  0  0  0  0  0
    8.2424  -17.6197   22.4760 C   0  0  0  0  0  0  0  0  0  0  0  0
    8.1091  -16.1350   22.3628 C   0  0  2  0  0  0  0  0  0  0  0  0
    8.7476  -15.6707   21.1360 N   0  0  0  0  0  0  0  0  0  0  0  0
    8.5816  -15.3838   23.5262 C   0  0  0  0  0  0  0  0  0  0  0  0
    9.7373  -14.8644   23.4521 O   0  0  0  0  0  0  0  0  0  0  0  0
    5.2470  -12.3822   26.6022 C   0  0  0  0  0  0  0  0  0  0  0  0
    6.4009  -12.9737   25.7794 C   0  0  1  0  0  0  0  0  0  0  0  0
    7.2221  -11.7545   25.3454 C   0  0  0  0  0  0  0  0  0  0  0  0
    7.2967  -13.8034   26.6539 C   0  0  0  0  0  0  0  0  0  0  0  0
    8.3718  -14.4407   25.8720 C   0  0  2  0  0  0  0  0  0  0  0  0
    7.8800  -15.1821   24.7156 N   0  0  0  0  0  0  0  0  0  0  0  0
    9.0789  -15.4492   26.7000 C   0  0  0  0  0  0  0  0  0  0  0  0
    9.7212  -15.2074   27.7509 O   0  0  0  0  0  0  0  0  0  0  0  0
    9.0897  -16.8244   26.3618 O   0  0  0  0  0  0  0  0  0  0  0  0
  1  2  1  0
  2  3  1  0
  3  4  1  1
  3  5  1  0
  5  6  2  0
  7  8  1  0
  9  8  1  1
 10  5  1  0
 10  9  1  0
 11 18  1  0
 11  9  1  0
 12 11  2  0
 14 13  1  1
 14 15  1  0
 17 16  1  1
 16 14  1  0
 17 18  1  0
 19 21  1  0
 19 17  1  0
 20 19  2  0
M  END
$$$$
