SSL.pdb
     RDKit          3D

 21 20  0  0  1  0  0  0  0  0999 V2000
   10.9498  -12.9054   19.6650 O   0  0  0  0  0  0  0  0  0  0  0  0
   10.7925  -14.1033   19.0119 C   0  0  0  0  0  0  0  0  0  0  0  0
    9.3629  -14.3669   18.5860 C   0  0  2  0  0  0  0  0  0  0  0  0
    8.8338  -13.2355   17.8493 N   0  0  0  0  0  0  0  0  0  0  0  0
    8.4663  -14.6433   19.7228 C   0  0  0  0  0  0  0  0  0  0  0  0
    7.6825  -13.7538   20.1158 O   0  0  0  0  0  0  0  0  0  0  0  0
    8.7924  -18.1665   22.2122 O   0  0  0  0  0  0  0  0  0  0  0  0
    7.5755  -17.6344   21.7981 C   0  0  0  0  0  0  0  0  0  0  0  0
    7.6504  -16.1605   21.5585 C   0  0  2  0  0  0  0  0  0  0  0  0
    8.4688  -15.8891   20.3817 N   0  0  0  0  0  0  0  0  0  0  0  0
    8.0933  -15.3715   22.7085 C   0  0  0  0  0  0  0  0  0  0  0  0
    9.3092  -15.0081   22.7301 O   0  0  0  0  0  0  0  0  0  0  0  0
    7.7888  -11.1273   26.2389 C   0  0  0  0  0  0  0  0  0  0  0  0
    7.1781  -12.4844   26.6181 C   0  0  1  0  0  0  0  0  0  0  0  0
    5.9136  -12.1251   27.4063 C   0  0  0  0  0  0  0  0  0  0  0  0
    6.7220  -13.2159   25.3882 C   0  0  0  0  0  0  0  0  0  0  0  0
    7.7510  -14.1568   24.9092 C   0  0  2  0  0  0  0  0  0  0  0  0
    7.3032  -14.9777   23.7893 N   0  0  0  0  0  0  0  0  0  0  0  0
    8.0973  -15.1256   25.9789 C   0  0  0  0  0  0  0  0  0  0  0  0
    8.9803  -14.9579   26.8550 O   0  0  0  0  0  0  0  0  0  0  0  0
    7.4350  -16.3708   26.1073 O   0  0  0  0  0  0  0  0  0  0  0  0
  1  2  1  0
  2  3  1  0
  3  4  1  1
  3  5  1  0
  5  6  2  0
  7  8  1  0
  9  8  1  1
 10  5  1  0
 10  9  1  0
 11 18  1  0
 11  9  1  0
 12 11  2  0
 14 13  1  6
 14 15  1  0
 17 16  1  1
 16 14  1  0
 17 18  1  0
 19 21  1  0
 19 17  1  0
 20 19  2  0
M  END
$$$$
