HLD.pdb
     RDKit          3D

 27 27  0  0  1  0  0  0  0  0999 V2000
    9.8941  -13.5126   20.4979 N   0  0  0  0  0  0  0  0  0  0  0  0
    8.7112  -13.9774   21.1910 C   0  0  1  0  0  0  0  0  0  0  0  0
    8.1943  -15.1931   20.4659 C   0  0  0  0  0  0  0  0  0  0  0  0
    7.8497  -14.7649   19.0647 C   0  0  0  0  0  0  0  0  0  0  0  0
    8.1170  -13.5235   18.5391 C   0  0  0  0  0  0  0  0  0  0  0  0
    7.6653  -13.5042   17.2578 N   0  0  0  0  0  0  0  0  0  0  0  0
    7.1340  -14.7030   17.0024 C   0  0  0  0  0  0  0  0  0  0  0  0
    7.2442  -15.4761   18.1024 N   0  0  0  0  0  0  0  0  0  0  0  0
    9.0060  -14.3525   22.5966 C   0  0  0  0  0  0  0  0  0  0  0  0
   10.1560  -14.6432   22.9479 O   0  0  0  0  0  0  0  0  0  0  0  0
    5.4922  -12.2142   26.3721 C   0  0  0  0  0  0  0  0  0  0  0  0
    6.7608  -12.6947   25.7650 C   0  0  1  0  0  0  0  0  0  0  0  0
    7.9733  -12.0385   26.4123 C   0  0  0  0  0  0  0  0  0  0  0  0
    6.9572  -14.1819   25.7278 C   0  0  0  0  0  0  0  0  0  0  0  0
    8.1276  -14.6694   24.9459 C   0  0  2  0  0  0  0  0  0  0  0  0
    7.9708  -14.3821   23.5544 N   0  0  0  0  0  0  0  0  0  0  0  0
    8.4385  -16.0939   25.2068 C   0  0  0  0  0  0  0  0  0  0  0  0
    7.5623  -16.9620   25.0085 O   0  0  0  0  0  0  0  0  0  0  0  0
    9.7063  -16.5064   25.6770 N   0  0  0  0  0  0  0  0  0  0  0  0
    9.9887  -17.8903   26.0407 C   0  0  1  0  0  0  0  0  0  0  0  0
   11.4209  -18.2732   25.7267 C   0  0  0  0  0  0  0  0  0  0  0  0
   11.7550  -17.9175   24.3260 C   0  0  0  0  0  0  0  0  0  0  0  0
   11.1932  -18.3874   23.3202 O   0  0  0  0  0  0  0  0  0  0  0  0
    9.7467  -18.0322   27.5078 C   0  0  0  0  0  0  0  0  0  0  0  0
    9.7820  -19.2600   28.1563 O   0  0  0  0  0  0  0  0  0  0  0  0
   12.7722  -16.9888   24.1052 O   0  0  0  0  0  0  0  0  0  0  0  0
    9.4975  -17.0264   28.2220 O   0  0  0  0  0  0  0  0  0  0  0  0
  2  3  1  0
  2  1  1  6
  4  8  1  0
  4  3  1  0
  5  4  2  0
  6  5  1  0
  6  7  1  0
  7  8  2  0
  9 10  2  0
  9  2  1  0
 12 14  1  0
 12 11  1  1
 13 12  1  0
 15 14  1  1
 15 16  1  0
 16  9  1  0
 17 18  2  0
 17 15  1  0
 19 17  1  0
 20 19  1  0
 20 21  1  1
 21 22  1  0
 22 26  1  0
 23 22  2  0
 24 25  1  0
 24 20  1  0
 27 24  2  0
M  END
$$$$
