HLD.pdb
     RDKit          3D

 27 27  0  0  1  0  0  0  0  0999 V2000
   10.3417  -14.0583   20.5630 N   0  0  0  0  0  0  0  0  0  0  0  0
    9.0521  -14.1642   21.2120 C   0  0  1  0  0  0  0  0  0  0  0  0
    8.2494  -15.2117   20.4844 C   0  0  0  0  0  0  0  0  0  0  0  0
    7.9350  -14.6645   19.1179 C   0  0  0  0  0  0  0  0  0  0  0  0
    8.4242  -13.4813   18.6186 C   0  0  0  0  0  0  0  0  0  0  0  0
    7.9278  -13.3178   17.3644 N   0  0  0  0  0  0  0  0  0  0  0  0
    7.1532  -14.3736   17.0996 C   0  0  0  0  0  0  0  0  0  0  0  0
    7.1545  -15.1985   18.1670 N   0  0  0  0  0  0  0  0  0  0  0  0
    9.1809  -14.5680   22.6345 C   0  0  0  0  0  0  0  0  0  0  0  0
   10.2035  -15.1310   23.0442 O   0  0  0  0  0  0  0  0  0  0  0  0
    5.5694  -12.0056   26.2311 C   0  0  0  0  0  0  0  0  0  0  0  0
    6.8471  -12.5555   25.7077 C   0  0  1  0  0  0  0  0  0  0  0  0
    8.0442  -12.0218   26.4833 C   0  0  0  0  0  0  0  0  0  0  0  0
    6.9374  -14.0505   25.6147 C   0  0  0  0  0  0  0  0  0  0  0  0
    8.1511  -14.5935   24.9433 C   0  0  2  0  0  0  0  0  0  0  0  0
    8.1314  -14.3127   23.5417 N   0  0  0  0  0  0  0  0  0  0  0  0
    8.3769  -16.0274   25.2386 C   0  0  0  0  0  0  0  0  0  0  0  0
    7.4414  -16.8418   25.0896 O   0  0  0  0  0  0  0  0  0  0  0  0
    9.6283  -16.5080   25.6876 N   0  0  0  0  0  0  0  0  0  0  0  0
    9.8657  -17.9205   25.9633 C   0  0  1  0  0  0  0  0  0  0  0  0
   11.2217  -18.3716   25.4591 C   0  0  0  0  0  0  0  0  0  0  0  0
   11.4855  -19.7721   25.8703 C   0  0  0  0  0  0  0  0  0  0  0  0
   10.6799  -20.4970   26.4816 O   0  0  0  0  0  0  0  0  0  0  0  0
    9.7970  -18.1116   27.4431 C   0  0  0  0  0  0  0  0  0  0  0  0
   10.1470  -17.1134   28.3432 O   0  0  0  0  0  0  0  0  0  0  0  0
   12.7242  -20.3307   25.5548 O   0  0  0  0  0  0  0  0  0  0  0  0
    9.4126  -19.2038   27.9366 O   0  0  0  0  0  0  0  0  0  0  0  0
  2  3  1  0
  2  1  1  6
  4  8  1  0
  4  3  1  0
  5  4  2  0
  6  5  1  0
  6  7  1  0
  7  8  2  0
  9 10  2  0
  9  2  1  0
 12 14  1  0
 12 11  1  1
 13 12  1  0
 15 14  1  6
 15 16  1  0
 16  9  1  0
 17 18  2  0
 17 15  1  0
 19 17  1  0
 20 19  1  0
 20 21  1  1
 21 22  1  0
 22 26  1  0
 23 22  2  0
 24 25  1  0
 24 20  1  0
 27 24  2  0
M  END
$$$$
