HLD.pdb
     RDKit          3D

 27 27  0  0  1  0  0  0  0  0999 V2000
    8.3966  -17.5744   21.7669 N   0  0  0  0  0  0  0  0  0  0  0  0
    8.6830  -16.2917   21.1601 C   0  0  1  0  0  0  0  0  0  0  0  0
    7.5196  -15.9252   20.2752 C   0  0  0  0  0  0  0  0  0  0  0  0
    7.9032  -14.6770   19.5266 C   0  0  0  0  0  0  0  0  0  0  0  0
    9.0966  -14.0120   19.6760 C   0  0  0  0  0  0  0  0  0  0  0  0
    9.0860  -12.9386   18.8431 N   0  0  0  0  0  0  0  0  0  0  0  0
    7.9160  -12.9436   18.1983 C   0  0  0  0  0  0  0  0  0  0  0  0
    7.1905  -14.0030   18.6121 N   0  0  0  0  0  0  0  0  0  0  0  0
    8.8596  -15.2260   22.1780 C   0  0  0  0  0  0  0  0  0  0  0  0
    9.7173  -14.3462   22.0334 O   0  0  0  0  0  0  0  0  0  0  0  0
    7.6782  -11.7908   26.2352 C   0  0  0  0  0  0  0  0  0  0  0  0
    7.0550  -13.1365   26.3332 C   0  0  1  0  0  0  0  0  0  0  0  0
    5.6792  -13.0688   26.9830 C   0  0  0  0  0  0  0  0  0  0  0  0
    6.9676  -13.9219   25.0575 C   0  0  0  0  0  0  0  0  0  0  0  0
    8.2604  -14.3963   24.4897 C   0  0  2  0  0  0  0  0  0  0  0  0
    8.0459  -15.2042   23.3300 N   0  0  0  0  0  0  0  0  0  0  0  0
    9.1219  -15.0561   25.4979 C   0  0  0  0  0  0  0  0  0  0  0  0
    9.3904  -14.4610   26.5630 O   0  0  0  0  0  0  0  0  0  0  0  0
    9.6549  -16.3492   25.2916 N   0  0  0  0  0  0  0  0  0  0  0  0
   10.5077  -17.0053   26.2763 C   0  0  1  0  0  0  0  0  0  0  0  0
    9.7913  -18.1468   26.9690 C   0  0  0  0  0  0  0  0  0  0  0  0
    9.3806  -19.1739   25.9809 C   0  0  0  0  0  0  0  0  0  0  0  0
    9.5685  -19.0944   24.7535 O   0  0  0  0  0  0  0  0  0  0  0  0
   11.7062  -17.5336   25.5582 C   0  0  0  0  0  0  0  0  0  0  0  0
   12.8246  -18.0172   26.2248 O   0  0  0  0  0  0  0  0  0  0  0  0
    8.7349  -20.3188   26.4481 O   0  0  0  0  0  0  0  0  0  0  0  0
   11.7464  -17.5601   24.3005 O   0  0  0  0  0  0  0  0  0  0  0  0
  2  3  1  0
  2  1  1  1
  4  8  1  0
  4  3  1  0
  5  4  2  0
  6  5  1  0
  6  7  1  0
  7  8  2  0
  9 10  2  0
  9  2  1  0
 12 14  1  0
 12 11  1  6
 13 12  1  0
 15 14  1  1
 15 16  1  0
 16  9  1  0
 17 18  2  0
 17 15  1  0
 19 17  1  0
 20 19  1  0
 20 21  1  6
 21 22  1  0
 22 26  1  0
 23 22  2  0
 24 25  1  0
 24 20  1  0
 27 24  2  0
M  END
$$$$
