HLD.pdb
     RDKit          3D

 27 27  0  0  1  0  0  0  0  0999 V2000
    7.4794  -16.2777   21.3694 N   0  0  0  0  0  0  0  0  0  0  0  0
    8.6475  -15.4239   21.3235 C   0  0  1  0  0  0  0  0  0  0  0  0
    8.3126  -14.2219   20.4786 C   0  0  0  0  0  0  0  0  0  0  0  0
    8.0964  -14.7108   19.0716 C   0  0  0  0  0  0  0  0  0  0  0  0
    8.2275  -16.0185   18.6700 C   0  0  0  0  0  0  0  0  0  0  0  0
    7.9566  -16.0783   17.3399 N   0  0  0  0  0  0  0  0  0  0  0  0
    7.6665  -14.8390   16.9343 C   0  0  0  0  0  0  0  0  0  0  0  0
    7.7504  -14.0006   17.9878 N   0  0  0  0  0  0  0  0  0  0  0  0
    9.0450  -14.9582   22.6755 C   0  0  0  0  0  0  0  0  0  0  0  0
   10.0460  -14.2484   22.8333 O   0  0  0  0  0  0  0  0  0  0  0  0
    7.3797  -12.1403   25.0962 C   0  0  0  0  0  0  0  0  0  0  0  0
    7.2482  -13.0946   26.2279 C   0  0  1  0  0  0  0  0  0  0  0  0
    5.9750  -12.8436   27.0251 C   0  0  0  0  0  0  0  0  0  0  0  0
    7.3424  -14.5517   25.8816 C   0  0  0  0  0  0  0  0  0  0  0  0
    8.5742  -14.9757   25.1594 C   0  0  2  0  0  0  0  0  0  0  0  0
    8.2808  -15.3222   23.8039 N   0  0  0  0  0  0  0  0  0  0  0  0
    9.3220  -16.0359   25.8742 C   0  0  0  0  0  0  0  0  0  0  0  0
    9.5875  -15.8920   27.0863 O   0  0  0  0  0  0  0  0  0  0  0  0
    9.7485  -17.2158   25.2227 N   0  0  0  0  0  0  0  0  0  0  0  0
   10.5512  -18.2300   25.8971 C   0  0  1  0  0  0  0  0  0  0  0  0
    9.8857  -19.5909   25.8585 C   0  0  0  0  0  0  0  0  0  0  0  0
    8.8290  -19.6782   26.8958 C   0  0  0  0  0  0  0  0  0  0  0  0
    8.5944  -18.8014   27.7468 O   0  0  0  0  0  0  0  0  0  0  0  0
   11.8702  -18.3020   25.1999 C   0  0  0  0  0  0  0  0  0  0  0  0
   12.0610  -17.8258   23.9092 O   0  0  0  0  0  0  0  0  0  0  0  0
    8.0318  -20.8224   26.9315 O   0  0  0  0  0  0  0  0  0  0  0  0
   12.8744  -18.8058   25.7672 O   0  0  0  0  0  0  0  0  0  0  0  0
  2  3  1  0
  2  1  1  1
  4  8  1  0
  4  3  1  0
  5  4  2  0
  6  5  1  0
  6  7  1  0
  7  8  2  0
  9 10  2  0
  9  2  1  0
 12 14  1  0
 12 11  1  6
 13 12  1  0
 15 14  1  1
 15 16  1  0
 16  9  1  0
 17 18  2  0
 17 15  1  0
 19 17  1  0
 20 19  1  0
 20 21  1  6
 21 22  1  0
 22 26  1  0
 23 22  2  0
 24 25  1  0
 24 20  1  0
 27 24  2  0
M  END
$$$$
