VRP.pdb
     RDKit          3D

 26 26  0  0  1  0  0  0  0  0999 V2000
   29.0842  -18.5038  -16.3312 C   0  0  0  0  0  0  0  0  0  0  0  0
   27.7111  -19.0255  -16.0155 C   0  0  1  0  0  0  0  0  0  0  0  0
   26.9830  -19.2408  -17.3236 C   0  0  0  0  0  0  0  0  0  0  0  0
   27.7740  -20.3810  -15.2987 C   0  0  2  0  0  0  0  0  0  0  0  0
   28.5123  -21.3409  -16.0496 N   0  0  0  0  0  0  0  0  0  0  0  0
   26.4451  -20.8372  -14.8765 C   0  0  0  0  0  0  0  0  0  0  0  0
   25.9213  -21.7855  -15.5270 O   0  0  0  0  0  0  0  0  0  0  0  0
   22.9171  -21.2774   -7.0565 N   0  0  0  0  0  0  0  0  0  0  0  0
   22.4466  -20.6085   -8.2445 C   0  0  0  0  0  0  0  0  0  0  0  0
   21.4737  -19.7673   -8.1990 N   0  0  0  0  0  0  0  0  0  0  0  0
   23.0499  -20.8677   -9.5025 N   0  0  0  0  0  0  0  0  0  0  0  0
   24.5039  -20.9155   -9.6921 C   0  0  0  0  0  0  0  0  0  0  0  0
   24.8294  -21.1121  -11.1412 C   0  0  0  0  0  0  0  0  0  0  0  0
   23.9590  -20.4050  -12.1031 C   0  0  0  0  0  0  0  0  0  0  0  0
   24.3135  -20.6655  -13.5352 C   0  0  2  0  0  0  0  0  0  0  0  0
   25.6937  -20.3133  -13.8061 N   0  0  0  0  0  0  0  0  0  0  0  0
   23.3411  -20.0488  -14.4427 C   0  0  0  0  0  0  0  0  0  0  0  0
   23.3926  -18.7891  -14.6822 O   0  0  0  0  0  0  0  0  0  0  0  0
   21.0784  -19.3327   -9.0731 N   0  0  0  0  0  0  0  0  0  0  0  0
   22.2710  -20.7250  -15.1404 C   0  0  0  0  0  0  0  0  0  0  0  0
   21.9623  -22.1224  -15.1302 C   0  0  0  0  0  0  0  0  0  0  0  0
   20.5463  -22.2060  -15.7343 C   0  0  0  0  0  0  0  0  0  0  0  0
   20.5872  -21.0521  -16.7472 C   0  0  2  0  0  0  0  0  0  0  0  0
   21.3285  -20.0164  -15.9777 C   0  0  0  0  0  0  0  0  0  0  0  0
   20.4413  -19.1349  -15.1929 O   0  0  0  0  0  0  0  0  0  0  0  0
   19.7222  -18.2947  -15.7637 O   0  0  0  0  0  0  0  0  0  0  0  0
  2  3  1  6
  2  1  1  0
  4  2  1  0
  4  5  1  6
  6  7  2  0
  6  4  1  0
  9 10  2  0
  9  8  1  0
 11  9  1  0
 12 11  1  0
 13 12  1  0
 13 14  1  0
 15 14  1  1
 15 16  1  0
 16  6  1  0
 17 15  1  0
 18 17  2  0
 19 20  1  0
 19 17  1  0
 21 20  1  0
 22 23  1  0
 22 21  1  0
 23 19  1  0
 23 24  1  1
 25 24  2  0
 26 24  1  0
M  END
$$$$
