VRP.pdb
     RDKit          3D

 26 26  0  0  1  0  0  0  0  0999 V2000
   26.5507  -13.5876  -15.3927 C   0  0  0  0  0  0  0  0  0  0  0  0
   25.9260  -14.9534  -15.4295 C   0  0  1  0  0  0  0  0  0  0  0  0
   24.8570  -14.9474  -16.4995 C   0  0  0  0  0  0  0  0  0  0  0  0
   26.9492  -16.0314  -15.8116 C   0  0  2  0  0  0  0  0  0  0  0  0
   27.5797  -15.7424  -17.0563 N   0  0  0  0  0  0  0  0  0  0  0  0
   26.3798  -17.3805  -15.7221 C   0  0  0  0  0  0  0  0  0  0  0  0
   25.9336  -17.8958  -16.7860 O   0  0  0  0  0  0  0  0  0  0  0  0
   28.5501  -22.1643  -12.1939 N   0  0  0  0  0  0  0  0  0  0  0  0
   28.5075  -21.2377  -11.0895 C   0  0  0  0  0  0  0  0  0  0  0  0
   29.5841  -20.8353  -10.5106 N   0  0  0  0  0  0  0  0  0  0  0  0
   27.2653  -20.7466  -10.6103 N   0  0  0  0  0  0  0  0  0  0  0  0
   25.9732  -21.2468  -11.0926 C   0  0  0  0  0  0  0  0  0  0  0  0
   25.4534  -20.3640  -12.1857 C   0  0  0  0  0  0  0  0  0  0  0  0
   26.2653  -20.3126  -13.4190 C   0  0  0  0  0  0  0  0  0  0  0  0
   25.6608  -19.4685  -14.4991 C   0  0  2  0  0  0  0  0  0  0  0  0
   26.2837  -18.1603  -14.5527 N   0  0  0  0  0  0  0  0  0  0  0  0
   24.1988  -19.4399  -14.3940 C   0  0  0  0  0  0  0  0  0  0  0  0
   23.6309  -18.7002  -13.5125 O   0  0  0  0  0  0  0  0  0  0  0  0
   29.5549  -20.2054   -9.6671 N   0  0  0  0  0  0  0  0  0  0  0  0
   23.2662  -20.1854  -15.2086 C   0  0  0  0  0  0  0  0  0  0  0  0
   23.5610  -21.1952  -16.1790 C   0  0  0  0  0  0  0  0  0  0  0  0
   22.2031  -21.8726  -16.4513 C   0  0  0  0  0  0  0  0  0  0  0  0
   21.2421  -20.6848  -16.2940 C   0  0  1  0  0  0  0  0  0  0  0  0
   21.8367  -19.9832  -15.1240 C   0  0  0  0  0  0  0  0  0  0  0  0
   21.2856  -20.4434  -13.8337 O   0  0  0  0  0  0  0  0  0  0  0  0
   21.9535  -21.1871  -13.0924 O   0  0  0  0  0  0  0  0  0  0  0  0
  2  3  1  6
  2  1  1  0
  4  2  1  0
  4  5  1  6
  6  7  2  0
  6  4  1  0
  9 10  2  0
  9  8  1  0
 11  9  1  0
 12 11  1  0
 13 12  1  0
 13 14  1  0
 15 14  1  1
 15 16  1  0
 16  6  1  0
 17 15  1  0
 18 17  2  0
 19 20  1  0
 19 17  1  0
 21 20  1  0
 22 23  1  0
 22 21  1  0
 23 19  1  0
 23 24  1  1
 25 24  2  0
 26 24  1  0
M  END
$$$$
