VRP.pdb
     RDKit          3D

 26 26  0  0  1  0  0  0  0  0999 V2000
   20.5860  -27.1796  -15.1783 C   0  0  0  0  0  0  0  0  0  0  0  0
   21.3410  -25.9506  -14.7577 C   0  0  1  0  0  0  0  0  0  0  0  0
   22.5760  -26.3973  -14.0074 C   0  0  0  0  0  0  0  0  0  0  0  0
   21.8121  -25.1358  -15.9697 C   0  0  2  0  0  0  0  0  0  0  0  0
   22.4323  -25.9615  -16.9515 N   0  0  0  0  0  0  0  0  0  0  0  0
   22.6101  -23.9721  -15.5682 C   0  0  0  0  0  0  0  0  0  0  0  0
   23.8563  -24.1370  -15.4398 O   0  0  0  0  0  0  0  0  0  0  0  0
   22.5961  -16.0700  -17.6964 N   0  0  0  0  0  0  0  0  0  0  0  0
   21.5910  -17.0815  -17.4801 C   0  0  0  0  0  0  0  0  0  0  0  0
   20.6220  -17.2515  -18.3097 N   0  0  0  0  0  0  0  0  0  0  0  0
   21.6474  -17.9179  -16.3350 N   0  0  0  0  0  0  0  0  0  0  0  0
   22.6537  -17.7547  -15.2800 C   0  0  0  0  0  0  0  0  0  0  0  0
   23.1298  -19.0948  -14.8090 C   0  0  0  0  0  0  0  0  0  0  0  0
   22.4201  -20.2664  -15.3625 C   0  0  0  0  0  0  0  0  0  0  0  0
   22.9281  -21.5758  -14.8409 C   0  0  2  0  0  0  0  0  0  0  0  0
   22.1132  -22.6791  -15.3108 N   0  0  0  0  0  0  0  0  0  0  0  0
   23.1099  -21.5327  -13.3868 C   0  0  0  0  0  0  0  0  0  0  0  0
   22.0948  -21.6302  -12.6078 O   0  0  0  0  0  0  0  0  0  0  0  0
   19.9048  -18.0104  -18.1726 N   0  0  0  0  0  0  0  0  0  0  0  0
   24.3642  -21.3857  -12.6838 C   0  0  0  0  0  0  0  0  0  0  0  0
   25.6780  -21.2915  -13.2435 C   0  0  0  0  0  0  0  0  0  0  0  0
   26.5555  -20.7921  -12.0783 C   0  0  0  0  0  0  0  0  0  0  0  0
   25.8694  -21.4652  -10.8803 C   0  0  1  0  0  0  0  0  0  0  0  0
   24.4344  -21.3075  -11.2414 C   0  0  0  0  0  0  0  0  0  0  0  0
   23.8426  -20.0580  -10.7230 O   0  0  0  0  0  0  0  0  0  0  0  0
   23.6183  -19.9242   -9.5062 O   0  0  0  0  0  0  0  0  0  0  0  0
  2  3  1  6
  2  1  1  0
  4  2  1  0
  4  5  1  6
  6  7  2  0
  6  4  1  0
  9 10  2  0
  9  8  1  0
 11  9  1  0
 12 11  1  0
 13 12  1  0
 13 14  1  0
 15 14  1  1
 15 16  1  0
 16  6  1  0
 17 15  1  0
 18 17  2  0
 19 20  1  0
 19 17  1  0
 21 20  1  0
 22 23  1  0
 22 21  1  0
 23 19  1  0
 23 24  1  1
 25 24  2  0
 26 24  1  0
M  END
$$$$
