VRP.pdb
     RDKit          3D

 26 26  0  0  1  0  0  0  0  0999 V2000
   20.6374  -17.9880  -16.8036 C   0  0  0  0  0  0  0  0  0  0  0  0
   21.4972  -18.6309  -15.7525 C   0  0  1  0  0  0  0  0  0  0  0  0
   20.7256  -18.6233  -14.4517 C   0  0  0  0  0  0  0  0  0  0  0  0
   21.8043  -20.0952  -16.0934 C   0  0  2  0  0  0  0  0  0  0  0  0
   20.6146  -20.8412  -16.3350 N   0  0  0  0  0  0  0  0  0  0  0  0
   22.7108  -20.7049  -15.1142 C   0  0  0  0  0  0  0  0  0  0  0  0
   22.1887  -21.3120  -14.1367 O   0  0  0  0  0  0  0  0  0  0  0  0
   29.6066  -22.8012  -16.8649 N   0  0  0  0  0  0  0  0  0  0  0  0
   28.8499  -21.7379  -17.4789 C   0  0  0  0  0  0  0  0  0  0  0  0
   28.5763  -21.7497  -18.7363 N   0  0  0  0  0  0  0  0  0  0  0  0
   28.3883  -20.6430  -16.7030 N   0  0  0  0  0  0  0  0  0  0  0  0
   28.5972  -20.5515  -15.2537 C   0  0  0  0  0  0  0  0  0  0  0  0
   27.2831  -20.3951  -14.5516 C   0  0  0  0  0  0  0  0  0  0  0  0
   26.3439  -21.5290  -14.6733 C   0  0  0  0  0  0  0  0  0  0  0  0
   24.9768  -21.2346  -14.1358 C   0  0  2  0  0  0  0  0  0  0  0  0
   24.1186  -20.6767  -15.1627 N   0  0  0  0  0  0  0  0  0  0  0  0
   25.0502  -20.4369  -12.9079 C   0  0  0  0  0  0  0  0  0  0  0  0
   25.1336  -19.1580  -12.9748 O   0  0  0  0  0  0  0  0  0  0  0  0
   27.9858  -20.9989  -19.1798 N   0  0  0  0  0  0  0  0  0  0  0  0
   25.0394  -20.9439  -11.5544 C   0  0  0  0  0  0  0  0  0  0  0  0
   25.0612  -22.3102  -11.1291 C   0  0  0  0  0  0  0  0  0  0  0  0
   25.3995  -22.2379   -9.6266 C   0  0  0  0  0  0  0  0  0  0  0  0
   24.7032  -20.9282   -9.2282 C   0  0  1  0  0  0  0  0  0  0  0  0
   25.0078  -20.0682  -10.4039 C   0  0  0  0  0  0  0  0  0  0  0  0
   26.2627  -19.3053  -10.2515 O   0  0  0  0  0  0  0  0  0  0  0  0
   27.2441  -19.5551  -10.9749 O   0  0  0  0  0  0  0  0  0  0  0  0
  2  3  1  1
  2  1  1  0
  4  2  1  0
  4  5  1  1
  6  7  2  0
  6  4  1  0
  9 10  2  0
  9  8  1  0
 11  9  1  0
 12 11  1  0
 13 12  1  0
 13 14  1  0
 15 14  1  6
 15 16  1  0
 16  6  1  0
 17 15  1  0
 18 17  2  0
 19 20  1  0
 19 17  1  0
 21 20  1  0
 22 23  1  0
 22 21  1  0
 23 19  1  0
 23 24  1  1
 25 24  2  0
 26 24  1  0
M  END
$$$$
