VRP.pdb
     RDKit          3D

 26 26  0  0  1  0  0  0  0  0999 V2000
   18.4050  -18.9953  -15.6318 C   0  0  0  0  0  0  0  0  0  0  0  0
   19.8049  -18.6417  -15.2163 C   0  0  1  0  0  0  0  0  0  0  0  0
   20.2719  -19.6818  -14.2224 C   0  0  0  0  0  0  0  0  0  0  0  0
   20.7729  -18.6796  -16.4065 C   0  0  2  0  0  0  0  0  0  0  0  0
   20.6418  -19.8851  -17.1547 N   0  0  0  0  0  0  0  0  0  0  0  0
   22.1479  -18.3667  -16.0018 C   0  0  0  0  0  0  0  0  0  0  0  0
   22.3624  -17.2262  -15.5020 O   0  0  0  0  0  0  0  0  0  0  0  0
   27.0927  -20.8675  -10.4982 N   0  0  0  0  0  0  0  0  0  0  0  0
   25.6673  -21.0641  -10.5972 C   0  0  0  0  0  0  0  0  0  0  0  0
   24.8689  -20.6556   -9.6744 N   0  0  0  0  0  0  0  0  0  0  0  0
   25.1087  -21.7213  -11.7241 N   0  0  0  0  0  0  0  0  0  0  0  0
   25.6103  -21.5248  -13.0886 C   0  0  0  0  0  0  0  0  0  0  0  0
   24.9248  -20.3559  -13.7274 C   0  0  0  0  0  0  0  0  0  0  0  0
   25.3151  -20.0572  -15.1207 C   0  0  0  0  0  0  0  0  0  0  0  0
   24.6024  -18.8746  -15.7019 C   0  0  2  0  0  0  0  0  0  0  0  0
   23.2588  -19.2252  -16.1192 N   0  0  0  0  0  0  0  0  0  0  0  0
   25.4098  -18.2263  -16.7398 C   0  0  0  0  0  0  0  0  0  0  0  0
   25.4759  -18.7354  -17.9160 O   0  0  0  0  0  0  0  0  0  0  0  0
   23.8283  -20.8042   -9.7392 N   0  0  0  0  0  0  0  0  0  0  0  0
   26.1843  -17.0150  -16.5915 C   0  0  0  0  0  0  0  0  0  0  0  0
   26.2662  -16.1606  -15.4463 C   0  0  0  0  0  0  0  0  0  0  0  0
   27.4866  -15.2611  -15.7264 C   0  0  0  0  0  0  0  0  0  0  0  0
   27.4074  -15.1203  -17.2538 C   0  0  1  0  0  0  0  0  0  0  0  0
   27.0213  -16.5010  -17.6529 C   0  0  0  0  0  0  0  0  0  0  0  0
   28.1840  -17.3724  -17.9154 O   0  0  0  0  0  0  0  0  0  0  0  0
   28.4648  -18.3006  -17.1354 O   0  0  0  0  0  0  0  0  0  0  0  0
  2  3  1  1
  2  1  1  0
  4  2  1  0
  4  5  1  1
  6  7  2  0
  6  4  1  0
  9 10  2  0
  9  8  1  0
 11  9  1  0
 12 11  1  0
 13 12  1  0
 13 14  1  0
 15 14  1  6
 15 16  1  0
 16  6  1  0
 17 15  1  0
 18 17  2  0
 19 20  1  0
 19 17  1  0
 21 20  1  0
 22 23  1  0
 22 21  1  0
 23 19  1  0
 23 24  1  6
 25 24  2  0
 26 24  1  0
M  END
$$$$
