VRP.pdb
     RDKit          3D

 26 26  0  0  1  0  0  0  0  0999 V2000
   26.6529  -18.2928  -21.3683 C   0  0  0  0  0  0  0  0  0  0  0  0
   27.0472  -16.8489  -21.4989 C   0  0  1  0  0  0  0  0  0  0  0  0
   27.0438  -16.4969  -22.9699 C   0  0  0  0  0  0  0  0  0  0  0  0
   26.0382  -15.9240  -20.8052 C   0  0  2  0  0  0  0  0  0  0  0  0
   26.3554  -14.5499  -21.0091 N   0  0  0  0  0  0  0  0  0  0  0  0
   25.8345  -16.2944  -19.4003 C   0  0  0  0  0  0  0  0  0  0  0  0
   26.6695  -15.8607  -18.5569 O   0  0  0  0  0  0  0  0  0  0  0  0
   21.6090  -21.8121  -14.4280 N   0  0  0  0  0  0  0  0  0  0  0  0
   20.7432  -20.6751  -14.6226 C   0  0  0  0  0  0  0  0  0  0  0  0
   19.4641  -20.7839  -14.5331 N   0  0  0  0  0  0  0  0  0  0  0  0
   21.2879  -19.3995  -14.9227 N   0  0  0  0  0  0  0  0  0  0  0  0
   22.6990  -19.1994  -15.2705 C   0  0  0  0  0  0  0  0  0  0  0  0
   22.9274  -17.7849  -15.7079 C   0  0  0  0  0  0  0  0  0  0  0  0
   23.1695  -17.5836  -17.1513 C   0  0  0  0  0  0  0  0  0  0  0  0
   24.6180  -17.4251  -17.4992 C   0  0  2  0  0  0  0  0  0  0  0  0
   24.7876  -17.0938  -18.9006 N   0  0  0  0  0  0  0  0  0  0  0  0
   25.4006  -18.5808  -17.0505 C   0  0  0  0  0  0  0  0  0  0  0  0
   25.2966  -19.7050  -17.6605 O   0  0  0  0  0  0  0  0  0  0  0  0
   18.8315  -19.9464  -14.6202 N   0  0  0  0  0  0  0  0  0  0  0  0
   26.3278  -18.6099  -15.9421 C   0  0  0  0  0  0  0  0  0  0  0  0
   26.5927  -17.5727  -14.9922 C   0  0  0  0  0  0  0  0  0  0  0  0
   27.3698  -18.2776  -13.8625 C   0  0  0  0  0  0  0  0  0  0  0  0
   28.1595  -19.3289  -14.6565 C   0  0  2  0  0  0  0  0  0  0  0  0
   27.1409  -19.7692  -15.6480 C   0  0  0  0  0  0  0  0  0  0  0  0
   26.3315  -20.9105  -15.1762 O   0  0  0  0  0  0  0  0  0  0  0  0
   25.1075  -20.7819  -14.9921 O   0  0  0  0  0  0  0  0  0  0  0  0
  2  3  1  6
  2  1  1  0
  4  2  1  0
  4  5  1  1
  6  7  2  0
  6  4  1  0
  9 10  2  0
  9  8  1  0
 11  9  1  0
 12 11  1  0
 13 12  1  0
 13 14  1  0
 15 14  1  6
 15 16  1  0
 16  6  1  0
 17 15  1  0
 18 17  2  0
 19 20  1  0
 19 17  1  0
 21 20  1  0
 22 23  1  0
 22 21  1  0
 23 19  1  0
 23 24  1  1
 25 24  2  0
 26 24  1  0
M  END
$$$$
