VWT.pdb
     RDKit          3D

 29 30  0  0  1  0  0  0  0  0999 V2000
    7.1255  -14.0057   18.5968 C   0  0  0  0  0  0  0  0  0  0  0  0
    7.9353  -13.7968   19.8889 C   0  0  2  0  0  0  0  0  0  0  0  0
    9.3880  -13.8394   19.4992 C   0  0  0  0  0  0  0  0  0  0  0  0
    7.5812  -14.9599   20.7978 C   0  0  2  0  0  0  0  0  0  0  0  0
    6.1172  -14.9054   20.9215 N   0  0  0  0  0  0  0  0  0  0  0  0
    8.1588  -14.8211   22.1517 C   0  0  0  0  0  0  0  0  0  0  0  0
    8.2283  -13.6744   22.6498 O   0  0  0  0  0  0  0  0  0  0  0  0
    8.6421  -15.9200   22.9335 N   0  0  0  0  0  0  0  0  0  0  0  0
    9.4949  -15.8553   24.0589 C   0  0  1  0  0  0  0  0  0  0  0  0
    8.9350  -15.9771   25.4109 C   0  0  0  0  0  0  0  0  0  0  0  0
    7.6859  -15.2112   25.6532 C   0  0  0  0  0  0  0  0  0  0  0  0
    6.3747  -15.5874   25.4765 C   0  0  0  0  0  0  0  0  0  0  0  0
    5.5551  -14.5446   25.8169 N   0  0  0  0  0  0  0  0  0  0  0  0
    6.2966  -13.5100   26.2061 C   0  0  0  0  0  0  0  0  0  0  0  0
    6.0010  -12.2329   26.6431 C   0  0  0  0  0  0  0  0  0  0  0  0
    7.0201  -11.3675   26.9795 C   0  0  0  0  0  0  0  0  0  0  0  0
    8.3521  -11.7716   26.8820 C   0  0  0  0  0  0  0  0  0  0  0  0
    8.6410  -13.0511   26.4439 C   0  0  0  0  0  0  0  0  0  0  0  0
    7.6135  -13.8888   26.1169 C   0  0  0  0  0  0  0  0  0  0  0  0
   10.6827  -16.7799   23.9228 C   0  0  0  0  0  0  0  0  0  0  0  0
   10.4652  -18.0171   23.7972 O   0  0  0  0  0  0  0  0  0  0  0  0
   13.3669  -16.6722   21.4474 C   0  0  0  0  0  0  0  0  0  0  0  0
   14.0819  -16.8356   22.7735 C   0  0  1  0  0  0  0  0  0  0  0  0
   14.5282  -15.5459   23.1420 O   0  0  0  0  0  0  0  0  0  0  0  0
   13.1408  -17.3144   23.8551 C   0  0  2  0  0  0  0  0  0  0  0  0
   12.0199  -16.3611   23.9260 N   0  0  0  0  0  0  0  0  0  0  0  0
   13.8156  -17.4188   25.1627 C   0  0  0  0  0  0  0  0  0  0  0  0
   14.7931  -18.3747   25.3768 O   0  0  0  0  0  0  0  0  0  0  0  0
   13.5058  -16.6347   26.1003 O   0  0  0  0  0  0  0  0  0  0  0  0
  2  3  1  6
  2  1  1  0
  4  5  1  1
  4  2  1  0
  6  4  1  0
  7  6  2  0
  8  6  1  0
  9  8  1  0
  9 10  1  1
 10 11  1  0
 11 19  1  0
 12 11  2  0
 12 13  1  0
 13 14  1  0
 14 15  1  0
 15 16  2  0
 17 16  1  0
 18 17  2  0
 19 14  2  0
 19 18  1  0
 20  9  1  0
 21 20  2  0
 23 22  1  6
 23 24  1  0
 23 25  1  0
 25 26  1  1
 26 20  1  0
 27 25  1  0
 27 28  1  0
 29 27  2  0
M  END
$$$$
