VWT.pdb
     RDKit          3D

 29 30  0  0  1  0  0  0  0  0999 V2000
    6.6540  -13.9333   19.0654 C   0  0  0  0  0  0  0  0  0  0  0  0
    7.4580  -13.7520   20.3653 C   0  0  2  0  0  0  0  0  0  0  0  0
    8.4033  -12.6049   20.1314 C   0  0  0  0  0  0  0  0  0  0  0  0
    8.2177  -15.0498   20.5722 C   0  0  2  0  0  0  0  0  0  0  0  0
    7.1768  -16.0862   20.6361 N   0  0  0  0  0  0  0  0  0  0  0  0
    8.9651  -15.0751   21.8476 C   0  0  0  0  0  0  0  0  0  0  0  0
    9.9121  -14.2691   21.9937 O   0  0  0  0  0  0  0  0  0  0  0  0
    8.6706  -15.9640   22.9318 N   0  0  0  0  0  0  0  0  0  0  0  0
    9.4221  -16.1426   24.1157 C   0  0  1  0  0  0  0  0  0  0  0  0
    8.7403  -16.2020   25.4148 C   0  0  0  0  0  0  0  0  0  0  0  0
    7.5523  -15.3210   25.5503 C   0  0  0  0  0  0  0  0  0  0  0  0
    6.2284  -15.5817   25.2834 C   0  0  0  0  0  0  0  0  0  0  0  0
    5.4853  -14.4615   25.5437 N   0  0  0  0  0  0  0  0  0  0  0  0
    6.2883  -13.4887   25.9687 C   0  0  0  0  0  0  0  0  0  0  0  0
    6.0802  -12.1800   26.3602 C   0  0  0  0  0  0  0  0  0  0  0  0
    7.1473  -11.4021   26.7561 C   0  0  0  0  0  0  0  0  0  0  0  0
    8.4402  -11.9267   26.7648 C   0  0  0  0  0  0  0  0  0  0  0  0
    8.6416  -13.2373   26.3718 C   0  0  0  0  0  0  0  0  0  0  0  0
    7.5680  -13.9867   25.9841 C   0  0  0  0  0  0  0  0  0  0  0  0
   10.3888  -17.2989   24.0033 C   0  0  0  0  0  0  0  0  0  0  0  0
    9.9164  -18.4672   23.9282 O   0  0  0  0  0  0  0  0  0  0  0  0
   14.9603  -18.9866   23.0603 C   0  0  0  0  0  0  0  0  0  0  0  0
   13.9661  -17.8542   23.2198 C   0  0  1  0  0  0  0  0  0  0  0  0
   13.6581  -17.4132   21.9124 O   0  0  0  0  0  0  0  0  0  0  0  0
   12.6783  -18.3322   23.8507 C   0  0  2  0  0  0  0  0  0  0  0  0
   11.7837  -17.1684   23.9763 N   0  0  0  0  0  0  0  0  0  0  0  0
   12.9102  -18.9519   25.1690 C   0  0  0  0  0  0  0  0  0  0  0  0
   13.3703  -20.2536   25.2645 O   0  0  0  0  0  0  0  0  0  0  0  0
   12.6898  -18.2982   26.2245 O   0  0  0  0  0  0  0  0  0  0  0  0
  2  3  1  6
  2  1  1  0
  4  5  1  1
  4  2  1  0
  6  4  1  0
  7  6  2  0
  8  6  1  0
  9  8  1  0
  9 10  1  1
 10 11  1  0
 11 19  1  0
 12 11  2  0
 12 13  1  0
 13 14  1  0
 14 15  1  0
 15 16  2  0
 17 16  1  0
 18 17  2  0
 19 14  2  0
 19 18  1  0
 20  9  1  0
 21 20  2  0
 23 22  1  6
 23 24  1  0
 23 25  1  0
 25 26  1  1
 26 20  1  0
 27 25  1  0
 27 28  1  0
 29 27  2  0
M  END
$$$$
