VWT.pdb
     RDKit          3D

 29 30  0  0  1  0  0  0  0  0999 V2000
    8.8188  -16.9573   19.2109 C   0  0  0  0  0  0  0  0  0  0  0  0
    7.6070  -17.5711   19.9346 C   0  0  2  0  0  0  0  0  0  0  0  0
    6.6361  -17.9955   18.8663 C   0  0  0  0  0  0  0  0  0  0  0  0
    7.0239  -16.4611   20.7902 C   0  0  2  0  0  0  0  0  0  0  0  0
    6.6945  -15.3896   19.8389 N   0  0  0  0  0  0  0  0  0  0  0  0
    7.9967  -15.9225   21.7647 C   0  0  0  0  0  0  0  0  0  0  0  0
    8.7249  -14.9687   21.4073 O   0  0  0  0  0  0  0  0  0  0  0  0
    8.1563  -16.4225   23.0977 N   0  0  0  0  0  0  0  0  0  0  0  0
    9.1450  -16.0475   24.0359 C   0  0  1  0  0  0  0  0  0  0  0  0
    8.7970  -15.9218   25.4569 C   0  0  0  0  0  0  0  0  0  0  0  0
    7.5810  -15.1194   25.7452 C   0  0  0  0  0  0  0  0  0  0  0  0
    6.2594  -15.5003   25.7642 C   0  0  0  0  0  0  0  0  0  0  0  0
    5.4804  -14.4159   26.0674 N   0  0  0  0  0  0  0  0  0  0  0  0
    6.2578  -13.3499   26.2433 C   0  0  0  0  0  0  0  0  0  0  0  0
    6.0096  -12.0267   26.5545 C   0  0  0  0  0  0  0  0  0  0  0  0
    7.0575  -11.1380   26.6674 C   0  0  0  0  0  0  0  0  0  0  0  0
    8.3711  -11.5647   26.4691 C   0  0  0  0  0  0  0  0  0  0  0  0
    8.6126  -12.8903   26.1579 C   0  0  0  0  0  0  0  0  0  0  0  0
    7.5574  -13.7504   26.0520 C   0  0  0  0  0  0  0  0  0  0  0  0
   10.3998  -16.8786   23.8984 C   0  0  0  0  0  0  0  0  0  0  0  0
   10.2941  -18.1350   23.9632 O   0  0  0  0  0  0  0  0  0  0  0  0
   15.0382  -17.2499   22.2286 C   0  0  0  0  0  0  0  0  0  0  0  0
   13.7693  -16.4680   22.5019 C   0  0  1  0  0  0  0  0  0  0  0  0
   13.0993  -16.3584   21.2619 O   0  0  0  0  0  0  0  0  0  0  0  0
   12.8529  -17.2114   23.4466 C   0  0  2  0  0  0  0  0  0  0  0  0
   11.6837  -16.3525   23.7029 N   0  0  0  0  0  0  0  0  0  0  0  0
   13.5304  -17.5551   24.7111 C   0  0  0  0  0  0  0  0  0  0  0  0
   14.4799  -18.5610   24.7509 O   0  0  0  0  0  0  0  0  0  0  0  0
   13.2483  -16.9328   25.7709 O   0  0  0  0  0  0  0  0  0  0  0  0
  2  3  1  6
  2  1  1  0
  4  5  1  6
  4  2  1  0
  6  4  1  0
  7  6  2  0
  8  6  1  0
  9  8  1  0
  9 10  1  1
 10 11  1  0
 11 19  1  0
 12 11  2  0
 12 13  1  0
 13 14  1  0
 14 15  1  0
 15 16  2  0
 17 16  1  0
 18 17  2  0
 19 14  2  0
 19 18  1  0
 20  9  1  0
 21 20  2  0
 23 22  1  6
 23 24  1  0
 23 25  1  0
 25 26  1  1
 26 20  1  0
 27 25  1  0
 27 28  1  0
 29 27  2  0
M  END
$$$$
