VWT.pdb
     RDKit          3D

 29 30  0  0  1  0  0  0  0  0999 V2000
    7.3387  -13.0401   21.3923 C   0  0  0  0  0  0  0  0  0  0  0  0
    8.1241  -13.5474   20.1697 C   0  0  2  0  0  0  0  0  0  0  0  0
    7.1884  -13.4709   18.9938 C   0  0  0  0  0  0  0  0  0  0  0  0
    8.4945  -14.9869   20.4777 C   0  0  2  0  0  0  0  0  0  0  0  0
    7.2068  -15.6784   20.6370 N   0  0  0  0  0  0  0  0  0  0  0  0
    9.2450  -15.1233   21.7442 C   0  0  0  0  0  0  0  0  0  0  0  0
   10.3489  -14.5406   21.8427 O   0  0  0  0  0  0  0  0  0  0  0  0
    8.7855  -15.8796   22.8708 N   0  0  0  0  0  0  0  0  0  0  0  0
    9.4610  -16.0786   24.0965 C   0  0  1  0  0  0  0  0  0  0  0  0
    8.6937  -16.2652   25.3345 C   0  0  0  0  0  0  0  0  0  0  0  0
    7.5249  -15.3640   25.5000 C   0  0  0  0  0  0  0  0  0  0  0  0
    6.1866  -15.6134   25.3029 C   0  0  0  0  0  0  0  0  0  0  0  0
    5.4711  -14.4758   25.5653 N   0  0  0  0  0  0  0  0  0  0  0  0
    6.3056  -13.5029   25.9240 C   0  0  0  0  0  0  0  0  0  0  0  0
    6.1329  -12.1809   26.2868 C   0  0  0  0  0  0  0  0  0  0  0  0
    7.2274  -11.4072   26.6098 C   0  0  0  0  0  0  0  0  0  0  0  0
    8.5125  -11.9496   26.5730 C   0  0  0  0  0  0  0  0  0  0  0  0
    8.6783  -13.2735   26.2090 C   0  0  0  0  0  0  0  0  0  0  0  0
    7.5781  -14.0183   25.8939 C   0  0  0  0  0  0  0  0  0  0  0  0
   10.5157  -17.1562   23.9929 C   0  0  0  0  0  0  0  0  0  0  0  0
   10.1368  -18.3591   23.9344 O   0  0  0  0  0  0  0  0  0  0  0  0
   15.1826  -18.4812   22.9676 C   0  0  0  0  0  0  0  0  0  0  0  0
   14.0841  -17.4457   23.0990 C   0  0  1  0  0  0  0  0  0  0  0  0
   13.6812  -17.1293   21.7814 O   0  0  0  0  0  0  0  0  0  0  0  0
   12.8782  -18.0054   23.8183 C   0  0  2  0  0  0  0  0  0  0  0  0
   11.8958  -16.9163   23.9571 N   0  0  0  0  0  0  0  0  0  0  0  0
   13.2337  -18.5539   25.1406 C   0  0  0  0  0  0  0  0  0  0  0  0
   13.8588  -19.7839   25.2483 O   0  0  0  0  0  0  0  0  0  0  0  0
   12.9695  -17.9041   26.1884 O   0  0  0  0  0  0  0  0  0  0  0  0
  2  3  1  6
  2  1  1  0
  4  5  1  1
  4  2  1  0
  6  4  1  0
  7  6  2  0
  8  6  1  0
  9  8  1  0
  9 10  1  1
 10 11  1  0
 11 19  1  0
 12 11  2  0
 12 13  1  0
 13 14  1  0
 14 15  1  0
 15 16  2  0
 17 16  1  0
 18 17  2  0
 19 14  2  0
 19 18  1  0
 20  9  1  0
 21 20  2  0
 23 22  1  6
 23 24  1  0
 23 25  1  0
 25 26  1  1
 26 20  1  0
 27 25  1  0
 27 28  1  0
 29 27  2  0
M  END
$$$$
