VWT.pdb
     RDKit          3D

 29 30  0  0  1  0  0  0  0  0999 V2000
    8.7751  -17.2627   19.1805 C   0  0  0  0  0  0  0  0  0  0  0  0
    7.6266  -17.8941   19.9875 C   0  0  2  0  0  0  0  0  0  0  0  0
    6.6084  -18.3714   18.9878 C   0  0  0  0  0  0  0  0  0  0  0  0
    7.0611  -16.7817   20.8517 C   0  0  2  0  0  0  0  0  0  0  0  0
    6.6050  -15.7614   19.8964 N   0  0  0  0  0  0  0  0  0  0  0  0
    8.0816  -16.1645   21.7255 C   0  0  0  0  0  0  0  0  0  0  0  0
    8.8698  -15.3342   21.2184 O   0  0  0  0  0  0  0  0  0  0  0  0
    8.2235  -16.4549   23.1211 N   0  0  0  0  0  0  0  0  0  0  0  0
    9.2524  -16.0124   23.9834 C   0  0  1  0  0  0  0  0  0  0  0  0
    8.9673  -15.7770   25.4045 C   0  0  0  0  0  0  0  0  0  0  0  0
    7.7103  -15.0382   25.6870 C   0  0  0  0  0  0  0  0  0  0  0  0
    6.4093  -15.4846   25.6917 C   0  0  0  0  0  0  0  0  0  0  0  0
    5.5746  -14.4424   25.9948 N   0  0  0  0  0  0  0  0  0  0  0  0
    6.2963  -13.3403   26.1846 C   0  0  0  0  0  0  0  0  0  0  0  0
    5.9797  -12.0333   26.5020 C   0  0  0  0  0  0  0  0  0  0  0  0
    6.9810  -11.0942   26.6299 C   0  0  0  0  0  0  0  0  0  0  0  0
    8.3159  -11.4535   26.4408 C   0  0  0  0  0  0  0  0  0  0  0  0
    8.6259  -12.7634   26.1232 C   0  0  0  0  0  0  0  0  0  0  0  0
    7.6159  -13.6742   26.0024 C   0  0  0  0  0  0  0  0  0  0  0  0
   10.5001  -16.8557   23.8552 C   0  0  0  0  0  0  0  0  0  0  0  0
   10.3737  -18.1118   23.8462 O   0  0  0  0  0  0  0  0  0  0  0  0
   15.2770  -17.2064   22.5662 C   0  0  0  0  0  0  0  0  0  0  0  0
   14.0173  -16.3992   22.8066 C   0  0  1  0  0  0  0  0  0  0  0  0
   13.4964  -16.0919   21.5288 O   0  0  0  0  0  0  0  0  0  0  0  0
   12.9715  -17.2088   23.5384 C   0  0  2  0  0  0  0  0  0  0  0  0
   11.7988  -16.3413   23.7448 N   0  0  0  0  0  0  0  0  0  0  0  0
   13.4743  -17.7160   24.8291 C   0  0  0  0  0  0  0  0  0  0  0  0
   14.1969  -18.8946   24.8897 O   0  0  0  0  0  0  0  0  0  0  0  0
   13.2484  -17.0773   25.8925 O   0  0  0  0  0  0  0  0  0  0  0  0
  2  3  1  6
  2  1  1  0
  4  5  1  6
  4  2  1  0
  6  4  1  0
  7  6  2  0
  8  6  1  0
  9  8  1  0
  9 10  1  1
 10 11  1  0
 11 19  1  0
 12 11  2  0
 12 13  1  0
 13 14  1  0
 14 15  1  0
 15 16  2  0
 17 16  1  0
 18 17  2  0
 19 14  2  0
 19 18  1  0
 20  9  1  0
 21 20  2  0
 23 22  1  6
 23 24  1  0
 23 25  1  0
 25 26  1  1
 26 20  1  0
 27 25  1  0
 27 28  1  0
 29 27  2  0
M  END
$$$$
