VWT.pdb
     RDKit          3D

 29 30  0  0  1  0  0  0  0  0999 V2000
   12.3981  -15.9511   20.7954 C   0  0  0  0  0  0  0  0  0  0  0  0
   11.9893  -17.4221   20.9909 C   0  0  2  0  0  0  0  0  0  0  0  0
   12.2311  -18.1153   19.6774 C   0  0  0  0  0  0  0  0  0  0  0  0
   10.5104  -17.4038   21.3326 C   0  0  2  0  0  0  0  0  0  0  0  0
    9.8808  -16.6642   20.2288 N   0  0  0  0  0  0  0  0  0  0  0  0
   10.2251  -16.6783   22.5888 C   0  0  0  0  0  0  0  0  0  0  0  0
   10.5132  -15.4612   22.6469 O   0  0  0  0  0  0  0  0  0  0  0  0
    9.6343  -17.2813   23.7463 N   0  0  0  0  0  0  0  0  0  0  0  0
    9.3332  -16.6517   24.9755 C   0  0  1  0  0  0  0  0  0  0  0  0
    7.9528  -16.6431   25.4760 C   0  0  0  0  0  0  0  0  0  0  0  0
    7.0871  -15.5644   24.9351 C   0  0  0  0  0  0  0  0  0  0  0  0
    6.1449  -15.6109   23.9340 C   0  0  0  0  0  0  0  0  0  0  0  0
    5.6023  -14.3652   23.7652 N   0  0  0  0  0  0  0  0  0  0  0  0
    6.1652  -13.5189   24.6246 C   0  0  0  0  0  0  0  0  0  0  0  0
    6.0044  -12.1711   24.8832 C   0  0  0  0  0  0  0  0  0  0  0  0
    6.7594  -11.5636   25.8638 C   0  0  0  0  0  0  0  0  0  0  0  0
    7.6878  -12.3006   26.5999 C   0  0  0  0  0  0  0  0  0  0  0  0
    7.8438  -13.6491   26.3361 C   0  0  0  0  0  0  0  0  0  0  0  0
    7.0840  -14.2270   25.3598 C   0  0  0  0  0  0  0  0  0  0  0  0
   10.2647  -17.0935   26.0807 C   0  0  0  0  0  0  0  0  0  0  0  0
   10.8808  -18.1865   25.9412 O   0  0  0  0  0  0  0  0  0  0  0  0
   10.3417  -15.2352   29.8607 C   0  0  0  0  0  0  0  0  0  0  0  0
   11.6551  -15.6949   29.2607 C   0  0  1  0  0  0  0  0  0  0  0  0
   12.4257  -16.1946   30.3354 O   0  0  0  0  0  0  0  0  0  0  0  0
   11.4509  -16.8307   28.2845 C   0  0  2  0  0  0  0  0  0  0  0  0
   10.4966  -16.3728   27.2598 N   0  0  0  0  0  0  0  0  0  0  0  0
   10.9491  -18.0457   28.9536 C   0  0  0  0  0  0  0  0  0  0  0  0
   11.7951  -18.8290   29.7191 O   0  0  0  0  0  0  0  0  0  0  0  0
    9.7400  -18.3826   28.8328 O   0  0  0  0  0  0  0  0  0  0  0  0
  2  3  1  6
  2  1  1  0
  4  5  1  6
  4  2  1  0
  6  4  1  0
  7  6  2  0
  8  6  1  0
  9  8  1  0
  9 10  1  1
 10 11  1  0
 11 19  1  0
 12 11  2  0
 12 13  1  0
 13 14  1  0
 14 15  1  0
 15 16  2  0
 17 16  1  0
 18 17  2  0
 19 14  2  0
 19 18  1  0
 20  9  1  0
 21 20  2  0
 23 22  1  1
 23 24  1  0
 23 25  1  0
 25 26  1  6
 26 20  1  0
 27 25  1  0
 27 28  1  0
 29 27  2  0
M  END
$$$$
