VWT.pdb
     RDKit          3D

 29 30  0  0  1  0  0  0  0  0999 V2000
    7.6464  -12.5933   20.5263 C   0  0  0  0  0  0  0  0  0  0  0  0
    8.1709  -13.8520   19.8124 C   0  0  2  0  0  0  0  0  0  0  0  0
    7.4120  -13.9614   18.5177 C   0  0  0  0  0  0  0  0  0  0  0  0
    7.8517  -15.0179   20.7306 C   0  0  2  0  0  0  0  0  0  0  0  0
    6.4007  -14.9332   20.9518 N   0  0  0  0  0  0  0  0  0  0  0  0
    8.5204  -14.9075   22.0446 C   0  0  0  0  0  0  0  0  0  0  0  0
    8.9526  -13.7860   22.3954 O   0  0  0  0  0  0  0  0  0  0  0  0
    8.7024  -16.0060   22.9461 N   0  0  0  0  0  0  0  0  0  0  0  0
    9.5024  -16.0287   24.1113 C   0  0  1  0  0  0  0  0  0  0  0  0
    8.8700  -16.1265   25.4329 C   0  0  0  0  0  0  0  0  0  0  0  0
    7.6604  -15.2859   25.6228 C   0  0  0  0  0  0  0  0  0  0  0  0
    6.3337  -15.5987   25.4386 C   0  0  0  0  0  0  0  0  0  0  0  0
    5.5664  -14.5008   25.7227 N   0  0  0  0  0  0  0  0  0  0  0  0
    6.3564  -13.4920   26.0829 C   0  0  0  0  0  0  0  0  0  0  0  0
    6.1235  -12.1842   26.4633 C   0  0  0  0  0  0  0  0  0  0  0  0
    7.1825  -11.3612   26.7824 C   0  0  0  0  0  0  0  0  0  0  0  0
    8.4922  -11.8392   26.7241 C   0  0  0  0  0  0  0  0  0  0  0  0
    8.7183  -13.1491   26.3427 C   0  0  0  0  0  0  0  0  0  0  0  0
    7.6523  -13.9437   26.0318 C   0  0  0  0  0  0  0  0  0  0  0  0
   10.6174  -17.0442   24.0125 C   0  0  0  0  0  0  0  0  0  0  0  0
   10.3171  -18.2339   23.7153 O   0  0  0  0  0  0  0  0  0  0  0  0
   13.6688  -16.9130   21.9822 C   0  0  0  0  0  0  0  0  0  0  0  0
   14.1478  -17.3237   23.3599 C   0  0  1  0  0  0  0  0  0  0  0  0
   14.6634  -16.1535   23.9627 O   0  0  0  0  0  0  0  0  0  0  0  0
   13.0053  -17.8103   24.2217 C   0  0  2  0  0  0  0  0  0  0  0  0
   11.9724  -16.7599   24.2286 N   0  0  0  0  0  0  0  0  0  0  0  0
   13.4455  -18.1130   25.5966 C   0  0  0  0  0  0  0  0  0  0  0  0
   14.2921  -19.1788   25.8468 O   0  0  0  0  0  0  0  0  0  0  0  0
   13.0520  -17.4006   26.5596 O   0  0  0  0  0  0  0  0  0  0  0  0
  2  3  1  6
  2  1  1  0
  4  5  1  1
  4  2  1  0
  6  4  1  0
  7  6  2  0
  8  6  1  0
  9  8  1  0
  9 10  1  1
 10 11  1  0
 11 19  1  0
 12 11  2  0
 12 13  1  0
 13 14  1  0
 14 15  1  0
 15 16  2  0
 17 16  1  0
 18 17  2  0
 19 14  2  0
 19 18  1  0
 20  9  1  0
 21 20  2  0
 23 22  1  6
 23 24  1  0
 23 25  1  0
 25 26  1  1
 26 20  1  0
 27 25  1  0
 27 28  1  0
 29 27  2  0
M  END
$$$$
