VWT.pdb
     RDKit          3D

 29 30  0  0  1  0  0  0  0  0999 V2000
    6.9095  -13.4017   18.9509 C   0  0  0  0  0  0  0  0  0  0  0  0
    7.7269  -13.4035   20.2551 C   0  0  2  0  0  0  0  0  0  0  0  0
    9.1714  -13.2597   19.8591 C   0  0  0  0  0  0  0  0  0  0  0  0
    7.4727  -14.7507   20.9068 C   0  0  2  0  0  0  0  0  0  0  0  0
    6.0092  -14.8453   21.0110 N   0  0  0  0  0  0  0  0  0  0  0  0
    8.0336  -14.8378   22.2719 C   0  0  0  0  0  0  0  0  0  0  0  0
    8.1845  -13.7758   22.9178 O   0  0  0  0  0  0  0  0  0  0  0  0
    8.4131  -16.0653   22.9057 N   0  0  0  0  0  0  0  0  0  0  0  0
    9.2290  -16.2169   24.0500 C   0  0  1  0  0  0  0  0  0  0  0  0
    8.6132  -16.3819   25.3727 C   0  0  0  0  0  0  0  0  0  0  0  0
    7.4952  -15.4519   25.6740 C   0  0  0  0  0  0  0  0  0  0  0  0
    6.1369  -15.6618   25.6194 C   0  0  0  0  0  0  0  0  0  0  0  0
    5.4865  -14.5093   25.9709 N   0  0  0  0  0  0  0  0  0  0  0  0
    6.3822  -13.5649   26.2492 C   0  0  0  0  0  0  0  0  0  0  0  0
    6.2874  -12.2443   26.6444 C   0  0  0  0  0  0  0  0  0  0  0  0
    7.4319  -11.5056   26.8567 C   0  0  0  0  0  0  0  0  0  0  0  0
    8.6896  -12.0820   26.6752 C   0  0  0  0  0  0  0  0  0  0  0  0
    8.7774  -13.4043   26.2797 C   0  0  0  0  0  0  0  0  0  0  0  0
    7.6289  -14.1142   26.0760 C   0  0  0  0  0  0  0  0  0  0  0  0
   10.2876  -17.2777   23.8538 C   0  0  0  0  0  0  0  0  0  0  0  0
    9.9139  -18.4749   23.7100 O   0  0  0  0  0  0  0  0  0  0  0  0
   12.8210  -17.3261   21.2582 C   0  0  0  0  0  0  0  0  0  0  0  0
   13.5853  -17.6805   22.5177 C   0  0  1  0  0  0  0  0  0  0  0  0
   14.2298  -16.4933   22.9347 O   0  0  0  0  0  0  0  0  0  0  0  0
   12.6541  -18.1040   23.6304 C   0  0  2  0  0  0  0  0  0  0  0  0
   11.6660  -17.0278   23.8197 N   0  0  0  0  0  0  0  0  0  0  0  0
   13.3827  -18.3651   24.8861 C   0  0  0  0  0  0  0  0  0  0  0  0
   14.2901  -19.4065   24.9707 O   0  0  0  0  0  0  0  0  0  0  0  0
   13.1835  -17.6388   25.8974 O   0  0  0  0  0  0  0  0  0  0  0  0
  2  3  1  6
  2  1  1  0
  4  5  1  1
  4  2  1  0
  6  4  1  0
  7  6  2  0
  8  6  1  0
  9  8  1  0
  9 10  1  1
 10 11  1  0
 11 19  1  0
 12 11  2  0
 12 13  1  0
 13 14  1  0
 14 15  1  0
 15 16  2  0
 17 16  1  0
 18 17  2  0
 19 14  2  0
 19 18  1  0
 20  9  1  0
 21 20  2  0
 23 22  1  6
 23 24  1  0
 23 25  1  0
 25 26  1  1
 26 20  1  0
 27 25  1  0
 27 28  1  0
 29 27  2  0
M  END
$$$$
