VWT.pdb
     RDKit          3D

 29 30  0  0  1  0  0  0  0  0999 V2000
    7.1906  -15.6572   18.1706 C   0  0  0  0  0  0  0  0  0  0  0  0
    8.1564  -15.4008   19.3412 C   0  0  2  0  0  0  0  0  0  0  0  0
    9.2670  -16.4078   19.2128 C   0  0  0  0  0  0  0  0  0  0  0  0
    7.3520  -15.6360   20.6069 C   0  0  2  0  0  0  0  0  0  0  0  0
    6.2354  -14.6832   20.5226 N   0  0  0  0  0  0  0  0  0  0  0  0
    8.1189  -15.3322   21.8339 C   0  0  0  0  0  0  0  0  0  0  0  0
    8.5518  -14.1673   21.9870 O   0  0  0  0  0  0  0  0  0  0  0  0
    8.3957  -16.2890   22.8636 N   0  0  0  0  0  0  0  0  0  0  0  0
    9.2515  -16.1204   23.9759 C   0  0  1  0  0  0  0  0  0  0  0  0
    8.7095  -16.2086   25.3378 C   0  0  0  0  0  0  0  0  0  0  0  0
    7.5409  -15.3349   25.6149 C   0  0  0  0  0  0  0  0  0  0  0  0
    6.1973  -15.6283   25.5901 C   0  0  0  0  0  0  0  0  0  0  0  0
    5.4826  -14.5024   25.9005 N   0  0  0  0  0  0  0  0  0  0  0  0
    6.3228  -13.4944   26.1236 C   0  0  0  0  0  0  0  0  0  0  0  0
    6.1529  -12.1655   26.4619 C   0  0  0  0  0  0  0  0  0  0  0  0
    7.2530  -11.3506   26.6244 C   0  0  0  0  0  0  0  0  0  0  0  0
    8.5410  -11.8580   26.4493 C   0  0  0  0  0  0  0  0  0  0  0  0
    8.7040  -13.1890   26.1108 C   0  0  0  0  0  0  0  0  0  0  0  0
    7.5982  -13.9750   25.9558 C   0  0  0  0  0  0  0  0  0  0  0  0
   10.4902  -16.9801   23.8724 C   0  0  0  0  0  0  0  0  0  0  0  0
   10.4839  -17.9404   23.0528 O   0  0  0  0  0  0  0  0  0  0  0  0
   11.9754  -17.4481   22.0285 C   0  0  0  0  0  0  0  0  0  0  0  0
   13.2214  -17.3590   22.8862 C   0  0  1  0  0  0  0  0  0  0  0  0
   13.7247  -16.0491   22.7151 O   0  0  0  0  0  0  0  0  0  0  0  0
   12.8982  -17.5311   24.3528 C   0  0  2  0  0  0  0  0  0  0  0  0
   11.6557  -16.7884   24.6263 N   0  0  0  0  0  0  0  0  0  0  0  0
   13.9919  -17.0469   25.2161 C   0  0  0  0  0  0  0  0  0  0  0  0
   13.8071  -15.9495   26.0386 O   0  0  0  0  0  0  0  0  0  0  0  0
   15.1093  -17.6311   25.2114 O   0  0  0  0  0  0  0  0  0  0  0  0
  2  3  1  6
  2  1  1  0
  4  5  1  6
  4  2  1  0
  6  4  1  0
  7  6  2  0
  8  6  1  0
  9  8  1  0
  9 10  1  1
 10 11  1  0
 11 19  1  0
 12 11  2  0
 12 13  1  0
 13 14  1  0
 14 15  1  0
 15 16  2  0
 17 16  1  0
 18 17  2  0
 19 14  2  0
 19 18  1  0
 20  9  1  0
 21 20  2  0
 23 22  1  6
 23 24  1  0
 23 25  1  0
 25 26  1  1
 26 20  1  0
 27 25  1  0
 27 28  1  0
 29 27  2  0
M  END
$$$$
