VWT.pdb
     RDKit          3D

 29 30  0  0  1  0  0  0  0  0999 V2000
    8.4012  -20.0790   20.5728 C   0  0  0  0  0  0  0  0  0  0  0  0
    7.1537  -19.2441   20.2327 C   0  0  2  0  0  0  0  0  0  0  0  0
    6.5730  -19.8292   18.9739 C   0  0  0  0  0  0  0  0  0  0  0  0
    7.6487  -17.8286   19.9969 C   0  0  2  0  0  0  0  0  0  0  0  0
    8.7218  -17.9687   19.0017 N   0  0  0  0  0  0  0  0  0  0  0  0
    8.2304  -17.2189   21.2118 C   0  0  0  0  0  0  0  0  0  0  0  0
    9.4248  -17.4742   21.4873 O   0  0  0  0  0  0  0  0  0  0  0  0
    7.5121  -16.3487   22.0945 N   0  0  0  0  0  0  0  0  0  0  0  0
    7.9963  -15.7467   23.2782 C   0  0  1  0  0  0  0  0  0  0  0  0
    7.3518  -14.5354   23.8012 C   0  0  0  0  0  0  0  0  0  0  0  0
    7.8034  -14.1065   25.1495 C   0  0  0  0  0  0  0  0  0  0  0  0
    8.8913  -14.5160   25.8847 C   0  0  0  0  0  0  0  0  0  0  0  0
    8.9012  -13.8557   27.0842 N   0  0  0  0  0  0  0  0  0  0  0  0
    7.8548  -13.0354   27.1445 C   0  0  0  0  0  0  0  0  0  0  0  0
    7.3846  -12.1544   28.0996 C   0  0  0  0  0  0  0  0  0  0  0  0
    6.2375  -11.4281   27.8606 C   0  0  0  0  0  0  0  0  0  0  0  0
    5.5446  -11.5755   26.6585 C   0  0  0  0  0  0  0  0  0  0  0  0
    6.0206  -12.4589   25.7068 C   0  0  0  0  0  0  0  0  0  0  0  0
    7.1589  -13.1664   25.9679 C   0  0  0  0  0  0  0  0  0  0  0  0
    8.1612  -16.7498   24.3967 C   0  0  0  0  0  0  0  0  0  0  0  0
    7.1211  -17.2059   24.9480 O   0  0  0  0  0  0  0  0  0  0  0  0
    9.4819  -19.9629   23.9587 C   0  0  0  0  0  0  0  0  0  0  0  0
   10.2333  -19.4536   25.1721 C   0  0  1  0  0  0  0  0  0  0  0  0
   11.4575  -18.9371   24.6892 O   0  0  0  0  0  0  0  0  0  0  0  0
    9.4966  -18.3172   25.8433 C   0  0  2  0  0  0  0  0  0  0  0  0
    9.3949  -17.2149   24.8712 N   0  0  0  0  0  0  0  0  0  0  0  0
   10.1835  -17.8658   27.0682 C   0  0  0  0  0  0  0  0  0  0  0  0
   10.1886  -18.6553   28.2048 O   0  0  0  0  0  0  0  0  0  0  0  0
   10.7738  -16.7518   27.0902 O   0  0  0  0  0  0  0  0  0  0  0  0
  2  3  1  6
  2  1  1  0
  4  5  1  6
  4  2  1  0
  6  4  1  0
  7  6  2  0
  8  6  1  0
  9  8  1  0
  9 10  1  1
 10 11  1  0
 11 19  1  0
 12 11  2  0
 12 13  1  0
 13 14  1  0
 14 15  1  0
 15 16  2  0
 17 16  1  0
 18 17  2  0
 19 14  2  0
 19 18  1  0
 20  9  1  0
 21 20  2  0
 23 22  1  6
 23 24  1  0
 23 25  1  0
 25 26  1  6
 26 20  1  0
 27 25  1  0
 27 28  1  0
 29 27  2  0
M  END
$$$$
