VWT.pdb
     RDKit          3D

 29 30  0  0  1  0  0  0  0  0999 V2000
    6.8743  -13.7319   18.6955 C   0  0  0  0  0  0  0  0  0  0  0  0
    7.7680  -13.6259   19.9441 C   0  0  2  0  0  0  0  0  0  0  0  0
    9.1914  -13.7157   19.4648 C   0  0  0  0  0  0  0  0  0  0  0  0
    7.4114  -14.8158   20.8166 C   0  0  2  0  0  0  0  0  0  0  0  0
    5.9722  -14.6689   21.0791 N   0  0  0  0  0  0  0  0  0  0  0  0
    8.1158  -14.8005   22.1164 C   0  0  0  0  0  0  0  0  0  0  0  0
    8.3942  -13.6905   22.6246 O   0  0  0  0  0  0  0  0  0  0  0  0
    8.4979  -15.9795   22.8349 N   0  0  0  0  0  0  0  0  0  0  0  0
    9.3618  -16.0547   23.9512 C   0  0  1  0  0  0  0  0  0  0  0  0
    8.8063  -16.2510   25.2962 C   0  0  0  0  0  0  0  0  0  0  0  0
    7.6093  -15.4319   25.6156 C   0  0  0  0  0  0  0  0  0  0  0  0
    6.2755  -15.7622   25.5559 C   0  0  0  0  0  0  0  0  0  0  0  0
    5.5243  -14.6804   25.9303 N   0  0  0  0  0  0  0  0  0  0  0  0
    6.3316  -13.6649   26.2281 C   0  0  0  0  0  0  0  0  0  0  0  0
    6.1186  -12.3664   26.6498 C   0  0  0  0  0  0  0  0  0  0  0  0
    7.1922  -11.5320   26.8777 C   0  0  0  0  0  0  0  0  0  0  0  0
    8.4965  -11.9890   26.6854 C   0  0  0  0  0  0  0  0  0  0  0  0
    8.7026  -13.2897   26.2632 C   0  0  0  0  0  0  0  0  0  0  0  0
    7.6225  -14.0959   26.0445 C   0  0  0  0  0  0  0  0  0  0  0  0
   10.4916  -17.0333   23.7275 C   0  0  0  0  0  0  0  0  0  0  0  0
   10.1993  -18.2289   23.4462 O   0  0  0  0  0  0  0  0  0  0  0  0
   13.4579  -16.8605   21.4520 C   0  0  0  0  0  0  0  0  0  0  0  0
   13.9965  -17.1993   22.8273 C   0  0  1  0  0  0  0  0  0  0  0  0
   14.4509  -15.9816   23.3833 O   0  0  0  0  0  0  0  0  0  0  0  0
   12.9093  -17.7316   23.7325 C   0  0  2  0  0  0  0  0  0  0  0  0
   11.8522  -16.7085   23.8103 N   0  0  0  0  0  0  0  0  0  0  0  0
   13.4227  -18.0494   25.0783 C   0  0  0  0  0  0  0  0  0  0  0  0
   14.3196  -19.0869   25.2635 O   0  0  0  0  0  0  0  0  0  0  0  0
   13.0467  -17.3757   26.0757 O   0  0  0  0  0  0  0  0  0  0  0  0
  2  3  1  6
  2  1  1  0
  4  5  1  1
  4  2  1  0
  6  4  1  0
  7  6  2  0
  8  6  1  0
  9  8  1  0
  9 10  1  1
 10 11  1  0
 11 19  1  0
 12 11  2  0
 12 13  1  0
 13 14  1  0
 14 15  1  0
 15 16  2  0
 17 16  1  0
 18 17  2  0
 19 14  2  0
 19 18  1  0
 20  9  1  0
 21 20  2  0
 23 22  1  6
 23 24  1  0
 23 25  1  0
 25 26  1  1
 26 20  1  0
 27 25  1  0
 27 28  1  0
 29 27  2  0
M  END
$$$$
