VWT.pdb
     RDKit          3D

 29 30  0  0  1  0  0  0  0  0999 V2000
    7.2861  -13.2092   21.6654 C   0  0  0  0  0  0  0  0  0  0  0  0
    8.2225  -13.5506   20.4925 C   0  0  2  0  0  0  0  0  0  0  0  0
    7.4172  -13.3783   19.2332 C   0  0  0  0  0  0  0  0  0  0  0  0
    8.6253  -15.0012   20.6868 C   0  0  2  0  0  0  0  0  0  0  0  0
    7.3609  -15.7499   20.6382 N   0  0  0  0  0  0  0  0  0  0  0  0
    9.2505  -15.2471   22.0038 C   0  0  0  0  0  0  0  0  0  0  0  0
   10.3555  -14.7091   22.2431 O   0  0  0  0  0  0  0  0  0  0  0  0
    8.6680  -16.0619   23.0281 N   0  0  0  0  0  0  0  0  0  0  0  0
    9.2340  -16.3900   24.2811 C   0  0  1  0  0  0  0  0  0  0  0  0
    8.3982  -16.3800   25.4883 C   0  0  0  0  0  0  0  0  0  0  0  0
    7.3855  -15.2955   25.5516 C   0  0  0  0  0  0  0  0  0  0  0  0
    6.0589  -15.3079   25.1884 C   0  0  0  0  0  0  0  0  0  0  0  0
    5.5174  -14.0701   25.4107 N   0  0  0  0  0  0  0  0  0  0  0  0
    6.4527  -13.2619   25.9044 C   0  0  0  0  0  0  0  0  0  0  0  0
    6.4608  -11.9374   26.2978 C   0  0  0  0  0  0  0  0  0  0  0  0
    7.6213  -11.3693   26.7786 C   0  0  0  0  0  0  0  0  0  0  0  0
    8.7919  -12.1229   26.8714 C   0  0  0  0  0  0  0  0  0  0  0  0
    8.7770  -13.4480   26.4759 C   0  0  0  0  0  0  0  0  0  0  0  0
    7.6148  -13.9869   26.0034 C   0  0  0  0  0  0  0  0  0  0  0  0
   10.0208  -17.6793   24.2265 C   0  0  0  0  0  0  0  0  0  0  0  0
    9.3826  -18.7686   24.2189 O   0  0  0  0  0  0  0  0  0  0  0  0
   12.2320  -18.7769   21.6254 C   0  0  0  0  0  0  0  0  0  0  0  0
   13.0289  -19.0015   22.8946 C   0  0  1  0  0  0  0  0  0  0  0  0
   13.8770  -17.8787   23.0311 O   0  0  0  0  0  0  0  0  0  0  0  0
   12.1333  -19.0421   24.1115 C   0  0  2  0  0  0  0  0  0  0  0  0
   11.4193  -17.7554   24.1836 N   0  0  0  0  0  0  0  0  0  0  0  0
   12.8998  -19.2792   25.3492 C   0  0  0  0  0  0  0  0  0  0  0  0
   12.9956  -18.2957   26.3180 O   0  0  0  0  0  0  0  0  0  0  0  0
   13.4771  -20.3847   25.5354 O   0  0  0  0  0  0  0  0  0  0  0  0
  2  3  1  6
  2  1  1  0
  4  5  1  1
  4  2  1  0
  6  4  1  0
  7  6  2  0
  8  6  1  0
  9  8  1  0
  9 10  1  1
 10 11  1  0
 11 19  1  0
 12 11  2  0
 12 13  1  0
 13 14  1  0
 14 15  1  0
 15 16  2  0
 17 16  1  0
 18 17  2  0
 19 14  2  0
 19 18  1  0
 20  9  1  0
 21 20  2  0
 23 22  1  6
 23 24  1  0
 23 25  1  0
 25 26  1  1
 26 20  1  0
 27 25  1  0
 27 28  1  0
 29 27  2  0
M  END
$$$$
