VWT.pdb
     RDKit          3D

 29 30  0  0  1  0  0  0  0  0999 V2000
    8.0134  -16.6037   17.9085 C   0  0  0  0  0  0  0  0  0  0  0  0
    9.0734  -17.7195   17.9151 C   0  0  2  0  0  0  0  0  0  0  0  0
    8.6110  -18.7598   16.9312 C   0  0  0  0  0  0  0  0  0  0  0  0
    9.0881  -18.2749   19.3278 C   0  0  2  0  0  0  0  0  0  0  0  0
    7.7453  -18.8418   19.5205 N   0  0  0  0  0  0  0  0  0  0  0  0
    9.2912  -17.2261   20.3499 C   0  0  0  0  0  0  0  0  0  0  0  0
   10.4264  -16.7066   20.4461 O   0  0  0  0  0  0  0  0  0  0  0  0
    8.2666  -16.7628   21.2376 N   0  0  0  0  0  0  0  0  0  0  0  0
    8.4185  -15.8684   22.3216 C   0  0  1  0  0  0  0  0  0  0  0  0
    7.2651  -15.0983   22.8038 C   0  0  0  0  0  0  0  0  0  0  0  0
    7.5914  -13.9515   23.6893 C   0  0  0  0  0  0  0  0  0  0  0  0
    8.1995  -12.7545   23.3908 C   0  0  0  0  0  0  0  0  0  0  0  0
    8.3068  -12.0047   24.5315 N   0  0  0  0  0  0  0  0  0  0  0  0
    7.7882  -12.6809   25.5539 C   0  0  0  0  0  0  0  0  0  0  0  0
    7.6378  -12.4108   26.9007 C   0  0  0  0  0  0  0  0  0  0  0  0
    7.0457  -13.3416   27.7274 C   0  0  0  0  0  0  0  0  0  0  0  0
    6.5955  -14.5586   27.2141 C   0  0  0  0  0  0  0  0  0  0  0  0
    6.7490  -14.8226   25.8653 C   0  0  0  0  0  0  0  0  0  0  0  0
    7.3387  -13.8841   25.0679 C   0  0  0  0  0  0  0  0  0  0  0  0
    9.1157  -16.5158   23.4960 C   0  0  0  0  0  0  0  0  0  0  0  0
    8.6236  -17.5765   23.9720 O   0  0  0  0  0  0  0  0  0  0  0  0
   13.3764  -17.5147   25.6520 C   0  0  0  0  0  0  0  0  0  0  0  0
   12.4980  -16.7663   24.6699 C   0  0  1  0  0  0  0  0  0  0  0  0
   12.6040  -17.4569   23.4409 O   0  0  0  0  0  0  0  0  0  0  0  0
   11.0452  -16.8039   25.0856 C   0  0  2  0  0  0  0  0  0  0  0  0
   10.2786  -16.0207   24.1010 N   0  0  0  0  0  0  0  0  0  0  0  0
   10.8490  -16.2628   26.4438 C   0  0  0  0  0  0  0  0  0  0  0  0
   11.2443  -16.9873   27.5547 O   0  0  0  0  0  0  0  0  0  0  0  0
   10.3169  -15.1311   26.6046 O   0  0  0  0  0  0  0  0  0  0  0  0
  2  3  1  6
  2  1  1  0
  4  5  1  1
  4  2  1  0
  6  4  1  0
  7  6  2  0
  8  6  1  0
  9  8  1  0
  9 10  1  1
 10 11  1  0
 11 19  1  0
 12 11  2  0
 12 13  1  0
 13 14  1  0
 14 15  1  0
 15 16  2  0
 17 16  1  0
 18 17  2  0
 19 14  2  0
 19 18  1  0
 20  9  1  0
 21 20  2  0
 23 22  1  1
 23 24  1  0
 23 25  1  0
 25 26  1  6
 26 20  1  0
 27 25  1  0
 27 28  1  0
 29 27  2  0
M  END
$$$$
