PGS.pdb
     RDKit          3D

 18 18  0  0  1  0  0  0  0  0999 V2000
   24.8528  -12.8009  -16.0500 N   0  0  0  0  0  0  0  0  0  0  0  0
   24.8417  -13.9743  -15.2338 C   0  0  0  0  0  0  0  0  0  0  0  0
   23.7166  -14.8680  -15.7545 C   0  0  0  0  0  0  0  0  0  0  0  0
   22.8059  -13.8073  -16.3872 C   0  0  0  0  0  0  0  0  0  0  0  0
   23.8598  -12.9339  -17.0696 C   0  0  1  0  0  0  0  0  0  0  0  0
   23.3264  -11.6280  -17.4621 C   0  0  0  0  0  0  0  0  0  0  0  0
   22.4178  -11.5742  -18.3294 O   0  0  0  0  0  0  0  0  0  0  0  0
   23.8083  -10.4101  -16.8879 N   0  0  0  0  0  0  0  0  0  0  0  0
   23.1178   -9.1970  -17.1960 C   0  0  0  0  0  0  0  0  0  0  0  0
   22.5909   -8.5421  -15.9452 C   0  0  0  0  0  0  0  0  0  0  0  0
   22.0913   -9.2216  -15.0112 O   0  0  0  0  0  0  0  0  0  0  0  0
   22.4765   -4.4306  -13.3968 O   0  0  0  0  0  0  0  0  0  0  0  0
   22.8447   -5.1133  -14.5426 C   0  0  0  0  0  0  0  0  0  0  0  0
   22.0779   -6.4337  -14.6670 C   0  0  2  0  0  0  0  0  0  0  0  0
   22.6378   -7.1409  -15.7736 N   0  0  0  0  0  0  0  0  0  0  0  0
   20.6473   -6.0891  -14.8639 C   0  0  0  0  0  0  0  0  0  0  0  0
   19.7337   -6.1486  -13.8239 O   0  0  0  0  0  0  0  0  0  0  0  0
   20.2104   -5.7286  -15.9880 O   0  0  0  0  0  0  0  0  0  0  0  0
  1  5  1  0
  1  2  1  0
  2  3  1  0
  4  3  1  0
  5  4  1  0
  6  8  1  0
  5  6  1  1
  7  6  2  0
  9  8  1  0
 10  9  1  0
 11 10  2  0
 12 13  1  0
 14 13  1  6
 14 16  1  0
 14 15  1  0
 15 10  1  0
 16 17  1  0
 18 16  2  0
M  END
$$$$
