PGS.pdb
     RDKit          3D

 18 18  0  0  1  0  0  0  0  0999 V2000
   25.4291  -33.1103   -6.7596 N   0  0  0  0  0  0  0  0  0  0  0  0
   24.7014  -32.0345   -7.3565 C   0  0  0  0  0  0  0  0  0  0  0  0
   25.2727  -31.8353   -8.7599 C   0  0  0  0  0  0  0  0  0  0  0  0
   26.6884  -32.3896   -8.5516 C   0  0  0  0  0  0  0  0  0  0  0  0
   26.3623  -33.6256   -7.7118 C   0  0  1  0  0  0  0  0  0  0  0  0
   27.5476  -34.1724   -7.0485 C   0  0  0  0  0  0  0  0  0  0  0  0
   28.4670  -34.6669   -7.7491 O   0  0  0  0  0  0  0  0  0  0  0  0
   27.6914  -34.1609   -5.6257 N   0  0  0  0  0  0  0  0  0  0  0  0
   28.8723  -34.7348   -5.0603 C   0  0  0  0  0  0  0  0  0  0  0  0
   28.5651  -35.4330   -3.7606 C   0  0  0  0  0  0  0  0  0  0  0  0
   27.4125  -35.4006   -3.2565 O   0  0  0  0  0  0  0  0  0  0  0  0
   31.0901  -38.4142   -2.1499 O   0  0  0  0  0  0  0  0  0  0  0  0
   30.7339  -37.3352   -1.3602 C   0  0  0  0  0  0  0  0  0  0  0  0
   29.3759  -36.7672   -1.7844 C   0  0  2  0  0  0  0  0  0  0  0  0
   29.5592  -36.1503   -3.0588 N   0  0  0  0  0  0  0  0  0  0  0  0
   28.9575  -35.8078   -0.7315 C   0  0  0  0  0  0  0  0  0  0  0  0
   28.4142  -36.2352    0.4694 O   0  0  0  0  0  0  0  0  0  0  0  0
   29.0818  -34.5655   -0.8921 O   0  0  0  0  0  0  0  0  0  0  0  0
  1  5  1  0
  1  2  1  0
  2  3  1  0
  4  3  1  0
  5  4  1  0
  6  8  1  0
  5  6  1  1
  7  6  2  0
  9  8  1  0
 10  9  1  0
 11 10  2  0
 12 13  1  0
 14 13  1  1
 14 16  1  0
 14 15  1  0
 15 10  1  0
 16 17  1  0
 18 16  2  0
M  END
$$$$
