PGS.pdb
     RDKit          3D

 18 18  0  0  1  0  0  0  0  0999 V2000
   18.9476   -9.2037  -16.0525 N   0  0  0  0  0  0  0  0  0  0  0  0
   18.9552   -8.7223  -17.3984 C   0  0  0  0  0  0  0  0  0  0  0  0
   20.3600   -8.1858  -17.6712 C   0  0  0  0  0  0  0  0  0  0  0  0
   20.7919   -7.8329  -16.2415 C   0  0  0  0  0  0  0  0  0  0  0  0
   20.2574   -9.0585  -15.4989 C   0  0  1  0  0  0  0  0  0  0  0  0
   20.1994   -8.8465  -14.0512 C   0  0  0  0  0  0  0  0  0  0  0  0
   21.2606   -8.5904  -13.4277 O   0  0  0  0  0  0  0  0  0  0  0  0
   18.9703   -8.9220  -13.3241 N   0  0  0  0  0  0  0  0  0  0  0  0
   18.9701   -8.5215  -11.9518 C   0  0  0  0  0  0  0  0  0  0  0  0
   18.0564   -7.3433  -11.7325 C   0  0  0  0  0  0  0  0  0  0  0  0
   17.9701   -6.4155  -12.5783 O   0  0  0  0  0  0  0  0  0  0  0  0
   14.7610   -7.8681   -9.7315 O   0  0  0  0  0  0  0  0  0  0  0  0
   14.9423   -6.7098  -10.4664 C   0  0  0  0  0  0  0  0  0  0  0  0
   16.3625   -6.1629  -10.2904 C   0  0  2  0  0  0  0  0  0  0  0  0
   17.2622   -7.2357  -10.5694 N   0  0  0  0  0  0  0  0  0  0  0  0
   16.4677   -5.6667   -8.8951 C   0  0  0  0  0  0  0  0  0  0  0  0
   15.8218   -4.5127   -8.4816 O   0  0  0  0  0  0  0  0  0  0  0  0
   17.1506   -6.2792   -8.0332 O   0  0  0  0  0  0  0  0  0  0  0  0
  1  5  1  0
  1  2  1  0
  2  3  1  0
  4  3  1  0
  5  4  1  0
  6  8  1  0
  5  6  1  1
  7  6  2  0
  9  8  1  0
 10  9  1  0
 11 10  2  0
 12 13  1  0
 14 13  1  1
 14 16  1  0
 14 15  1  0
 15 10  1  0
 16 17  1  0
 18 16  2  0
M  END
$$$$
