PGS.pdb
     RDKit          3D

 18 18  0  0  1  0  0  0  0  0999 V2000
   28.2969  -26.2624  -16.6459 N   0  0  0  0  0  0  0  0  0  0  0  0
   29.2304  -25.1798  -16.6481 C   0  0  0  0  0  0  0  0  0  0  0  0
   29.7956  -25.0825  -18.0647 C   0  0  0  0  0  0  0  0  0  0  0  0
   29.5996  -26.5319  -18.5291 C   0  0  0  0  0  0  0  0  0  0  0  0
   28.2019  -26.7977  -17.9679 C   0  0  1  0  0  0  0  0  0  0  0  0
   27.8797  -28.2257  -17.9386 C   0  0  0  0  0  0  0  0  0  0  0  0
   27.6615  -28.8257  -19.0216 O   0  0  0  0  0  0  0  0  0  0  0  0
   27.8057  -28.9598  -16.7135 N   0  0  0  0  0  0  0  0  0  0  0  0
   27.6067  -30.3737  -16.7827 C   0  0  0  0  0  0  0  0  0  0  0  0
   26.1388  -30.7143  -16.7708 C   0  0  0  0  0  0  0  0  0  0  0  0
   25.2969  -29.9631  -16.2136 O   0  0  0  0  0  0  0  0  0  0  0  0
   24.3053  -32.3206  -19.8438 O   0  0  0  0  0  0  0  0  0  0  0  0
   24.0923  -33.0969  -18.7184 C   0  0  0  0  0  0  0  0  0  0  0  0
   24.2784  -32.2746  -17.4393 C   0  0  2  0  0  0  0  0  0  0  0  0
   25.6521  -31.8897  -17.3846 N   0  0  0  0  0  0  0  0  0  0  0  0
   23.8737  -33.1402  -16.3030 C   0  0  0  0  0  0  0  0  0  0  0  0
   22.5429  -33.4226  -16.0402 O   0  0  0  0  0  0  0  0  0  0  0  0
   24.7289  -33.6512  -15.5335 O   0  0  0  0  0  0  0  0  0  0  0  0
  1  5  1  0
  1  2  1  0
  2  3  1  0
  4  3  1  0
  5  4  1  0
  6  8  1  0
  5  6  1  1
  7  6  2  0
  9  8  1  0
 10  9  1  0
 11 10  2  0
 12 13  1  0
 14 13  1  6
 14 16  1  0
 14 15  1  0
 15 10  1  0
 16 17  1  0
 18 16  2  0
M  END
$$$$
