PGS.pdb
     RDKit          3D

 18 18  0  0  1  0  0  0  0  0999 V2000
   23.9377  -12.4484  -16.5997 N   0  0  0  0  0  0  0  0  0  0  0  0
   24.9026  -13.2966  -15.9729 C   0  0  0  0  0  0  0  0  0  0  0  0
   24.1433  -14.1779  -14.9818 C   0  0  0  0  0  0  0  0  0  0  0  0
   22.9354  -13.2758  -14.6952 C   0  0  0  0  0  0  0  0  0  0  0  0
   22.6366  -12.7840  -16.1122 C   0  0  1  0  0  0  0  0  0  0  0  0
   21.7521  -11.6172  -16.1180 C   0  0  0  0  0  0  0  0  0  0  0  0
   20.5811  -11.7353  -15.6760 O   0  0  0  0  0  0  0  0  0  0  0  0
   22.1806  -10.3453  -16.6119 N   0  0  0  0  0  0  0  0  0  0  0  0
   21.2653   -9.2495  -16.5437 C   0  0  0  0  0  0  0  0  0  0  0  0
   21.9296   -8.0250  -15.9689 C   0  0  0  0  0  0  0  0  0  0  0  0
   23.1021   -8.0691  -15.5137 O   0  0  0  0  0  0  0  0  0  0  0  0
   21.2820   -3.2401  -15.2083 O   0  0  0  0  0  0  0  0  0  0  0  0
   20.8494   -4.4435  -15.7369 C   0  0  0  0  0  0  0  0  0  0  0  0
   21.8084   -5.5812  -15.3725 C   0  0  2  0  0  0  0  0  0  0  0  0
   21.2616   -6.7814  -15.9190 N   0  0  0  0  0  0  0  0  0  0  0  0
   21.9054   -5.6109  -13.8914 C   0  0  0  0  0  0  0  0  0  0  0  0
   22.8597   -4.8739  -13.2088 O   0  0  0  0  0  0  0  0  0  0  0  0
   21.1204   -6.3099  -13.1987 O   0  0  0  0  0  0  0  0  0  0  0  0
  1  5  1  0
  1  2  1  0
  2  3  1  0
  4  3  1  0
  5  4  1  0
  6  8  1  0
  5  6  1  1
  7  6  2  0
  9  8  1  0
 10  9  1  0
 11 10  2  0
 12 13  1  0
 14 13  1  1
 14 16  1  0
 14 15  1  0
 15 10  1  0
 16 17  1  0
 18 16  2  0
M  END
$$$$
