PGS.pdb
     RDKit          3D

 18 18  0  0  1  0  0  0  0  0999 V2000
   20.3969  -11.3088  -17.9550 N   0  0  0  0  0  0  0  0  0  0  0  0
   19.4195  -11.4438  -18.9893 C   0  0  0  0  0  0  0  0  0  0  0  0
   20.1537  -11.2794  -20.3196 C   0  0  0  0  0  0  0  0  0  0  0  0
   21.3436  -10.4248  -19.8625 C   0  0  0  0  0  0  0  0  0  0  0  0
   21.6843  -11.1343  -18.5511 C   0  0  1  0  0  0  0  0  0  0  0  0
   22.5581  -10.3281  -17.6966 C   0  0  0  0  0  0  0  0  0  0  0  0
   23.7316  -10.0860  -18.0772 O   0  0  0  0  0  0  0  0  0  0  0  0
   22.1165   -9.8069  -16.4402 N   0  0  0  0  0  0  0  0  0  0  0  0
   22.9959   -8.9395  -15.7206 C   0  0  0  0  0  0  0  0  0  0  0  0
   22.4864   -7.5214  -15.7331 C   0  0  0  0  0  0  0  0  0  0  0  0
   22.8227   -6.7128  -16.6368 O   0  0  0  0  0  0  0  0  0  0  0  0
   19.9485   -6.4664  -12.6826 O   0  0  0  0  0  0  0  0  0  0  0  0
   19.7338   -5.8420  -13.8986 C   0  0  0  0  0  0  0  0  0  0  0  0
   21.0340   -5.7406  -14.7025 C   0  0  2  0  0  0  0  0  0  0  0  0
   21.6119   -7.0458  -14.7309 N   0  0  0  0  0  0  0  0  0  0  0  0
   21.8925   -4.7420  -14.0170 C   0  0  0  0  0  0  0  0  0  0  0  0
   22.9935   -5.1208  -13.2661 O   0  0  0  0  0  0  0  0  0  0  0  0
   21.6501   -3.5091  -14.0936 O   0  0  0  0  0  0  0  0  0  0  0  0
  1  5  1  0
  1  2  1  0
  2  3  1  0
  4  3  1  0
  5  4  1  0
  6  8  1  0
  5  6  1  1
  7  6  2  0
  9  8  1  0
 10  9  1  0
 11 10  2  0
 12 13  1  0
 14 13  1  1
 14 16  1  0
 14 15  1  0
 15 10  1  0
 16 17  1  0
 18 16  2  0
M  END
$$$$
