DRN.pdb
     RDKit          3D

 28 27  0  0  1  0  0  0  0  0999 V2000
   13.2813  -16.9541   20.5384 N   0  0  0  0  0  0  0  0  0  0  0  0
   13.1750  -15.6004   21.0846 C   0  0  1  0  0  0  0  0  0  0  0  0
   13.0274  -14.6791   19.9103 C   0  0  0  0  0  0  0  0  0  0  0  0
   14.3596  -14.3407   19.3212 C   0  0  0  0  0  0  0  0  0  0  0  0
   15.4224  -14.5694   19.9447 O   0  0  0  0  0  0  0  0  0  0  0  0
   12.0942  -15.5168   22.0609 C   0  0  0  0  0  0  0  0  0  0  0  0
   11.9177  -14.4104   22.6678 O   0  0  0  0  0  0  0  0  0  0  0  0
   14.4159  -13.7633   18.0657 O   0  0  0  0  0  0  0  0  0  0  0  0
   11.5208  -21.1385   23.6787 N   0  0  0  0  0  0  0  0  0  0  0  0
   10.7456  -21.5922   22.5762 C   0  0  0  0  0  0  0  0  0  0  0  0
   11.2403  -22.3862   21.6752 N   0  0  0  0  0  0  0  0  0  0  0  0
    9.3864  -21.2129   22.3925 N   0  0  0  0  0  0  0  0  0  0  0  0
    8.9143  -19.9620   22.9270 C   0  0  0  0  0  0  0  0  0  0  0  0
    9.7361  -18.7793   22.4062 C   0  0  0  0  0  0  0  0  0  0  0  0
    9.1206  -17.5642   23.0313 C   0  0  0  0  0  0  0  0  0  0  0  0
   10.1312  -16.5237   23.3065 C   0  0  2  0  0  0  0  0  0  0  0  0
   11.2418  -16.5947   22.3605 N   0  0  0  0  0  0  0  0  0  0  0  0
   10.6841  -16.6208   24.6602 C   0  0  0  0  0  0  0  0  0  0  0  0
   11.8660  -17.0658   24.8220 O   0  0  0  0  0  0  0  0  0  0  0  0
   10.7398  -22.7294   20.8471 N   0  0  0  0  0  0  0  0  0  0  0  0
   11.2208  -13.8899   27.1911 C   0  0  0  0  0  0  0  0  0  0  0  0
   10.2287  -14.2745   28.1358 O   0  0  0  0  0  0  0  0  0  0  0  0
    9.6659  -13.4216   28.8408 C   0  0  0  0  0  0  0  0  0  0  0  0
    9.8996  -15.7109   28.2427 C   0  0  2  0  0  0  0  0  0  0  0  0
   10.5542  -16.4938   27.1157 N   0  0  0  0  0  0  0  0  0  0  0  0
    9.9578  -16.2369   25.8273 C   0  0  0  0  0  0  0  0  0  0  0  0
   10.4696  -17.9215   27.4323 O   0  0  0  0  0  0  0  0  0  0  0  0
   11.1414  -18.4831   28.5146 O   0  0  0  0  0  0  0  0  0  0  0  0
  2  1  1  6
  2  3  1  0
  3  4  1  0
  4  8  1  0
  5  4  2  0
  6  2  1  0
  6  7  2  0
  9 10  1  0
 10 12  1  0
 10 11  2  0
 12 13  1  0
 13 14  1  0
 16 15  1  6
 15 14  1  0
 16 17  1  0
 17  6  1  0
 18 16  1  0
 19 18  2  0
 20 21  1  0
 21 22  2  0
 21 23  1  0
 24 23  1  6
 24 26  1  0
 24 25  1  0
 25 18  1  0
 26 27  1  0
 28 26  2  0
M  END
$$$$
