DRN.pdb
     RDKit          3D

 28 27  0  0  1  0  0  0  0  0999 V2000
   11.5593  -18.4310   20.5379 N   0  0  0  0  0  0  0  0  0  0  0  0
   12.3908  -17.3416   21.0519 C   0  0  1  0  0  0  0  0  0  0  0  0
   12.8695  -16.5725   19.8565 C   0  0  0  0  0  0  0  0  0  0  0  0
   13.9123  -17.3382   19.1065 C   0  0  0  0  0  0  0  0  0  0  0  0
   14.7035  -18.1091   19.6985 O   0  0  0  0  0  0  0  0  0  0  0  0
   11.6589  -16.5464   22.0317 C   0  0  0  0  0  0  0  0  0  0  0  0
   12.2416  -15.5326   22.5380 O   0  0  0  0  0  0  0  0  0  0  0  0
   14.0037  -17.1891   17.7345 O   0  0  0  0  0  0  0  0  0  0  0  0
    8.1366  -14.4408   18.3223 N   0  0  0  0  0  0  0  0  0  0  0  0
    7.7568  -13.4124   19.2279 C   0  0  0  0  0  0  0  0  0  0  0  0
    7.6732  -12.1712   18.8546 N   0  0  0  0  0  0  0  0  0  0  0  0
    7.4409  -13.6748   20.5905 N   0  0  0  0  0  0  0  0  0  0  0  0
    8.0119  -14.8209   21.2492 C   0  0  0  0  0  0  0  0  0  0  0  0
    7.5163  -14.9477   22.6926 C   0  0  0  0  0  0  0  0  0  0  0  0
    8.1359  -16.2088   23.2141 C   0  0  0  0  0  0  0  0  0  0  0  0
    9.5911  -16.0578   23.4119 C   0  0  2  0  0  0  0  0  0  0  0  0
   10.3464  -16.8444   22.4400 N   0  0  0  0  0  0  0  0  0  0  0  0
   10.0215  -16.4630   24.7528 C   0  0  0  0  0  0  0  0  0  0  0  0
   10.8767  -17.3979   24.8789 O   0  0  0  0  0  0  0  0  0  0  0  0
    7.3677  -11.3918   19.4490 N   0  0  0  0  0  0  0  0  0  0  0  0
    9.5441  -12.9697   28.6598 C   0  0  0  0  0  0  0  0  0  0  0  0
   10.2863  -14.1076   28.2367 O   0  0  0  0  0  0  0  0  0  0  0  0
   11.4271  -13.9758   27.7651 C   0  0  0  0  0  0  0  0  0  0  0  0
    9.6530  -15.4348   28.3792 C   0  0  2  0  0  0  0  0  0  0  0  0
   10.0282  -16.3334   27.2116 N   0  0  0  0  0  0  0  0  0  0  0  0
    9.5261  -15.8563   25.9460 C   0  0  0  0  0  0  0  0  0  0  0  0
    9.5167  -17.6798   27.4792 O   0  0  0  0  0  0  0  0  0  0  0  0
    9.9471  -18.4351   28.5665 O   0  0  0  0  0  0  0  0  0  0  0  0
  2  1  1  6
  2  3  1  0
  3  4  1  0
  4  8  1  0
  5  4  2  0
  6  2  1  0
  6  7  2  0
  9 10  1  0
 10 12  1  0
 10 11  2  0
 12 13  1  0
 13 14  1  0
 16 15  1  1
 15 14  1  0
 16 17  1  0
 17  6  1  0
 18 16  1  0
 19 18  2  0
 20 21  1  0
 21 22  2  0
 21 23  1  0
 24 23  1  6
 24 26  1  0
 24 25  1  0
 25 18  1  0
 26 27  1  0
 28 26  2  0
M  END
$$$$
