DRN.pdb
     RDKit          3D

 28 27  0  0  1  0  0  0  0  0999 V2000
    9.5295  -18.8950   15.8424 N   0  0  0  0  0  0  0  0  0  0  0  0
   10.3416  -17.7399   16.2277 C   0  0  1  0  0  0  0  0  0  0  0  0
   10.2198  -16.7443   15.1125 C   0  0  0  0  0  0  0  0  0  0  0  0
   11.0638  -17.1402   13.9433 C   0  0  0  0  0  0  0  0  0  0  0  0
   11.6918  -18.2247   13.9331 O   0  0  0  0  0  0  0  0  0  0  0  0
    9.9416  -17.2363   17.5371 C   0  0  0  0  0  0  0  0  0  0  0  0
   10.6102  -16.2756   18.0407 O   0  0  0  0  0  0  0  0  0  0  0  0
   11.1519  -16.2906   12.8555 O   0  0  0  0  0  0  0  0  0  0  0  0
    3.4099  -20.7962   21.0242 N   0  0  0  0  0  0  0  0  0  0  0  0
    4.1065  -20.2519   19.9104 C   0  0  0  0  0  0  0  0  0  0  0  0
    3.7041  -20.4491   18.6913 N   0  0  0  0  0  0  0  0  0  0  0  0
    5.2779  -19.4574   20.0579 N   0  0  0  0  0  0  0  0  0  0  0  0
    5.8049  -19.1973   21.3725 C   0  0  0  0  0  0  0  0  0  0  0  0
    7.0537  -18.3128   21.3154 C   0  0  0  0  0  0  0  0  0  0  0  0
    7.0844  -17.7613   19.9222 C   0  0  0  0  0  0  0  0  0  0  0  0
    8.4256  -17.2567   19.5669 C   0  0  2  0  0  0  0  0  0  0  0  0
    8.8570  -17.7583   18.2646 N   0  0  0  0  0  0  0  0  0  0  0  0
    9.4447  -17.6257   20.5532 C   0  0  0  0  0  0  0  0  0  0  0  0
    9.9577  -18.7905   20.5158 O   0  0  0  0  0  0  0  0  0  0  0  0
    4.1913  -20.1290   17.8462 N   0  0  0  0  0  0  0  0  0  0  0  0
   13.6845  -17.2238   23.1378 C   0  0  0  0  0  0  0  0  0  0  0  0
   13.5595  -16.1502   22.2125 O   0  0  0  0  0  0  0  0  0  0  0  0
   14.5478  -15.4637   21.9068 C   0  0  0  0  0  0  0  0  0  0  0  0
   12.2239  -15.8885   21.6375 C   0  0  2  0  0  0  0  0  0  0  0  0
   11.2265  -16.9359   22.1061 N   0  0  0  0  0  0  0  0  0  0  0  0
    9.9018  -16.7355   21.5709 C   0  0  0  0  0  0  0  0  0  0  0  0
   11.1849  -16.9147   23.5703 O   0  0  0  0  0  0  0  0  0  0  0  0
   12.1965  -17.4685   24.3499 O   0  0  0  0  0  0  0  0  0  0  0  0
  2  1  1  6
  2  3  1  0
  3  4  1  0
  4  8  1  0
  5  4  2  0
  6  2  1  0
  6  7  2  0
  9 10  1  0
 10 12  1  0
 10 11  2  0
 12 13  1  0
 13 14  1  0
 16 15  1  1
 15 14  1  0
 16 17  1  0
 17  6  1  0
 18 16  1  0
 19 18  2  0
 20 21  1  0
 21 22  2  0
 21 23  1  0
 24 23  1  6
 24 26  1  0
 24 25  1  0
 25 18  1  0
 26 27  1  0
 28 26  2  0
M  END
$$$$
