DRN.pdb
     RDKit          3D

 28 27  0  0  1  0  0  0  0  0999 V2000
   12.6031  -15.8966   18.1161 N   0  0  0  0  0  0  0  0  0  0  0  0
   13.5072  -15.4897   19.1928 C   0  0  1  0  0  0  0  0  0  0  0  0
   14.1816  -14.2329   18.7288 C   0  0  0  0  0  0  0  0  0  0  0  0
   15.0781  -14.5025   17.5627 C   0  0  0  0  0  0  0  0  0  0  0  0
   15.3499  -15.6738   17.2095 O   0  0  0  0  0  0  0  0  0  0  0  0
   12.7880  -15.3616   20.4555 C   0  0  0  0  0  0  0  0  0  0  0  0
   13.4351  -14.9599   21.4770 O   0  0  0  0  0  0  0  0  0  0  0  0
   15.6169  -13.4370   16.8645 O   0  0  0  0  0  0  0  0  0  0  0  0
    7.5608  -12.8522   16.8684 N   0  0  0  0  0  0  0  0  0  0  0  0
    7.5508  -13.1337   18.2622 C   0  0  0  0  0  0  0  0  0  0  0  0
    8.0648  -12.3129   19.1277 N   0  0  0  0  0  0  0  0  0  0  0  0
    6.9770  -14.3216   18.7960 N   0  0  0  0  0  0  0  0  0  0  0  0
    7.3891  -14.7954   20.0918 C   0  0  0  0  0  0  0  0  0  0  0  0
    8.9008  -14.6530   20.2905 C   0  0  0  0  0  0  0  0  0  0  0  0
    9.2055  -15.3990   21.5542 C   0  0  0  0  0  0  0  0  0  0  0  0
   10.6566  -15.4429   21.8229 C   0  0  2  0  0  0  0  0  0  0  0  0
   11.4203  -15.6579   20.5964 N   0  0  0  0  0  0  0  0  0  0  0  0
   11.0210  -16.4979   22.7725 C   0  0  0  0  0  0  0  0  0  0  0  0
   10.8255  -17.7162   22.4585 O   0  0  0  0  0  0  0  0  0  0  0  0
    8.1033  -12.4672   20.1420 N   0  0  0  0  0  0  0  0  0  0  0  0
   15.0084  -15.9941   24.1146 C   0  0  0  0  0  0  0  0  0  0  0  0
   14.3108  -17.2201   24.3011 O   0  0  0  0  0  0  0  0  0  0  0  0
   14.5112  -18.1809   23.5408 C   0  0  0  0  0  0  0  0  0  0  0  0
   13.3508  -17.3027   25.4212 C   0  0  2  0  0  0  0  0  0  0  0  0
   11.9238  -17.3504   24.8987 N   0  0  0  0  0  0  0  0  0  0  0  0
   11.5932  -16.2297   24.0523 C   0  0  0  0  0  0  0  0  0  0  0  0
   11.0117  -17.4007   26.0440 O   0  0  0  0  0  0  0  0  0  0  0  0
   11.1181  -18.3718   27.0357 O   0  0  0  0  0  0  0  0  0  0  0  0
  2  1  1  6
  2  3  1  0
  3  4  1  0
  4  8  1  0
  5  4  2  0
  6  2  1  0
  6  7  2  0
  9 10  1  0
 10 12  1  0
 10 11  2  0
 12 13  1  0
 13 14  1  0
 16 15  1  6
 15 14  1  0
 16 17  1  0
 17  6  1  0
 18 16  1  0
 19 18  2  0
 20 21  1  0
 21 22  2  0
 21 23  1  0
 24 23  1  6
 24 26  1  0
 24 25  1  0
 25 18  1  0
 26 27  1  0
 28 26  2  0
M  END
$$$$
