DRN.pdb
     RDKit          3D

 28 27  0  0  1  0  0  0  0  0999 V2000
   11.1520  -17.2742   16.8450 N   0  0  0  0  0  0  0  0  0  0  0  0
   12.4080  -16.7257   17.3587 C   0  0  1  0  0  0  0  0  0  0  0  0
   12.8328  -15.6604   16.3921 C   0  0  0  0  0  0  0  0  0  0  0  0
   13.0803  -16.2343   15.0335 C   0  0  0  0  0  0  0  0  0  0  0  0
   12.1310  -16.5301   14.2706 O   0  0  0  0  0  0  0  0  0  0  0  0
   12.2516  -16.2685   18.7352 C   0  0  0  0  0  0  0  0  0  0  0  0
   13.2157  -15.6284   19.2684 O   0  0  0  0  0  0  0  0  0  0  0  0
   14.3820  -16.4427   14.6153 O   0  0  0  0  0  0  0  0  0  0  0  0
    7.9623  -14.3317   17.4030 N   0  0  0  0  0  0  0  0  0  0  0  0
    8.0520  -13.1532   18.1937 C   0  0  0  0  0  0  0  0  0  0  0  0
    7.4039  -12.0716   17.8822 N   0  0  0  0  0  0  0  0  0  0  0  0
    8.8477  -13.0841   19.3716 N   0  0  0  0  0  0  0  0  0  0  0  0
    8.5116  -13.8985   20.5106 C   0  0  0  0  0  0  0  0  0  0  0  0
    8.5349  -15.3902   20.1648 C   0  0  0  0  0  0  0  0  0  0  0  0
    9.4241  -16.0208   21.1934 C   0  0  0  0  0  0  0  0  0  0  0  0
   10.8478  -15.9212   20.8155 C   0  0  2  0  0  0  0  0  0  0  0  0
   11.0916  -16.4991   19.4963 N   0  0  0  0  0  0  0  0  0  0  0  0
   11.7319  -16.5919   21.7726 C   0  0  0  0  0  0  0  0  0  0  0  0
   11.7306  -17.8634   21.8397 O   0  0  0  0  0  0  0  0  0  0  0  0
    7.4393  -11.1875   18.4029 N   0  0  0  0  0  0  0  0  0  0  0  0
   15.4521  -14.5300   21.7395 C   0  0  0  0  0  0  0  0  0  0  0  0
   15.4103  -15.8741   22.2046 O   0  0  0  0  0  0  0  0  0  0  0  0
   15.7981  -16.8040   21.4792 C   0  0  0  0  0  0  0  0  0  0  0  0
   14.8937  -16.1154   23.5676 C   0  0  2  0  0  0  0  0  0  0  0  0
   13.4730  -16.6538   23.5125 N   0  0  0  0  0  0  0  0  0  0  0  0
   12.6097  -15.8856   22.6488 C   0  0  0  0  0  0  0  0  0  0  0  0
   12.9316  -16.6750   24.8735 O   0  0  0  0  0  0  0  0  0  0  0  0
   11.7354  -16.0456   25.2066 O   0  0  0  0  0  0  0  0  0  0  0  0
  2  1  1  6
  2  3  1  0
  3  4  1  0
  4  8  1  0
  5  4  2  0
  6  2  1  0
  6  7  2  0
  9 10  1  0
 10 12  1  0
 10 11  2  0
 12 13  1  0
 13 14  1  0
 16 15  1  1
 15 14  1  0
 16 17  1  0
 17  6  1  0
 18 16  1  0
 19 18  2  0
 20 21  1  0
 21 22  2  0
 21 23  1  0
 24 23  1  6
 24 26  1  0
 24 25  1  0
 25 18  1  0
 26 27  1  0
 28 26  2  0
M  END
$$$$
