DRN.pdb
     RDKit          3D

 28 27  0  0  1  0  0  0  0  0999 V2000
   13.2655  -16.1623   19.3006 N   0  0  0  0  0  0  0  0  0  0  0  0
   12.8710  -14.7697   19.0830 C   0  0  1  0  0  0  0  0  0  0  0  0
   12.7151  -14.5992   17.6010 C   0  0  0  0  0  0  0  0  0  0  0  0
   14.0001  -14.8790   16.8892 C   0  0  0  0  0  0  0  0  0  0  0  0
   15.1044  -14.5795   17.4005 O   0  0  0  0  0  0  0  0  0  0  0  0
   11.6818  -14.4383   19.8603 C   0  0  0  0  0  0  0  0  0  0  0  0
   11.1164  -13.3171   19.6440 O   0  0  0  0  0  0  0  0  0  0  0  0
   13.9653  -15.4778   15.6429 O   0  0  0  0  0  0  0  0  0  0  0  0
    9.3382  -12.8032   16.9811 N   0  0  0  0  0  0  0  0  0  0  0  0
    8.1152  -13.5277   16.9400 C   0  0  0  0  0  0  0  0  0  0  0  0
    7.4951  -13.7566   15.8220 N   0  0  0  0  0  0  0  0  0  0  0  0
    7.4985  -14.0493   18.1116 N   0  0  0  0  0  0  0  0  0  0  0  0
    7.4946  -13.2727   19.3242 C   0  0  0  0  0  0  0  0  0  0  0  0
    8.8155  -13.4097   20.0867 C   0  0  0  0  0  0  0  0  0  0  0  0
    8.7667  -14.7662   20.7221 C   0  0  0  0  0  0  0  0  0  0  0  0
    9.9291  -14.9959   21.6027 C   0  0  2  0  0  0  0  0  0  0  0  0
   11.1327  -15.2952   20.8310 N   0  0  0  0  0  0  0  0  0  0  0  0
    9.7117  -16.0968   22.5452 C   0  0  0  0  0  0  0  0  0  0  0  0
    9.0180  -17.1014   22.1835 O   0  0  0  0  0  0  0  0  0  0  0  0
    6.6059  -14.2614   15.7289 N   0  0  0  0  0  0  0  0  0  0  0  0
   12.3315  -20.0471   23.6393 C   0  0  0  0  0  0  0  0  0  0  0  0
   12.8644  -18.7948   24.0543 O   0  0  0  0  0  0  0  0  0  0  0  0
   13.8451  -18.7482   24.8141 C   0  0  0  0  0  0  0  0  0  0  0  0
   12.2122  -17.5682   23.5513 C   0  0  1  0  0  0  0  0  0  0  0  0
   10.9301  -17.2916   24.3202 N   0  0  0  0  0  0  0  0  0  0  0  0
   10.2445  -16.1050   23.8693 C   0  0  0  0  0  0  0  0  0  0  0  0
   11.2587  -17.1717   25.7427 O   0  0  0  0  0  0  0  0  0  0  0  0
   11.5189  -18.2822   26.5409 O   0  0  0  0  0  0  0  0  0  0  0  0
  2  1  1  6
  2  3  1  0
  3  4  1  0
  4  8  1  0
  5  4  2  0
  6  2  1  0
  6  7  2  0
  9 10  1  0
 10 12  1  0
 10 11  2  0
 12 13  1  0
 13 14  1  0
 16 15  1  6
 15 14  1  0
 16 17  1  0
 17  6  1  0
 18 16  1  0
 19 18  2  0
 20 21  1  0
 21 22  2  0
 21 23  1  0
 24 23  1  6
 24 26  1  0
 24 25  1  0
 25 18  1  0
 26 27  1  0
 28 26  2  0
M  END
$$$$
