DRN.pdb
     RDKit          3D

 28 27  0  0  1  0  0  0  0  0999 V2000
   12.8572  -15.5494   18.0379 N   0  0  0  0  0  0  0  0  0  0  0  0
   13.7043  -15.4578   19.2281 C   0  0  1  0  0  0  0  0  0  0  0  0
   14.6590  -14.3271   18.9837 C   0  0  0  0  0  0  0  0  0  0  0  0
   15.5266  -14.6024   17.7973 C   0  0  0  0  0  0  0  0  0  0  0  0
   15.4286  -15.6745   17.1557 O   0  0  0  0  0  0  0  0  0  0  0  0
   12.8945  -15.3184   20.4335 C   0  0  0  0  0  0  0  0  0  0  0  0
   13.4600  -14.8849   21.4898 O   0  0  0  0  0  0  0  0  0  0  0  0
   16.4544  -13.6548   17.4046 O   0  0  0  0  0  0  0  0  0  0  0  0
    8.7621  -12.0681   18.2117 N   0  0  0  0  0  0  0  0  0  0  0  0
    8.1337  -13.3250   17.9940 C   0  0  0  0  0  0  0  0  0  0  0  0
    8.0919  -13.8720   16.8166 N   0  0  0  0  0  0  0  0  0  0  0  0
    7.5190  -14.0622   19.0446 N   0  0  0  0  0  0  0  0  0  0  0  0
    7.6859  -13.6363   20.4099 C   0  0  0  0  0  0  0  0  0  0  0  0
    9.1421  -13.7619   20.8667 C   0  0  0  0  0  0  0  0  0  0  0  0
    9.2934  -15.1825   21.3197 C   0  0  0  0  0  0  0  0  0  0  0  0
   10.6924  -15.4939   21.6740 C   0  0  2  0  0  0  0  0  0  0  0  0
   11.5256  -15.6372   20.4828 N   0  0  0  0  0  0  0  0  0  0  0  0
   10.8129  -16.7248   22.4601 C   0  0  0  0  0  0  0  0  0  0  0  0
   10.6164  -17.8488   21.8951 O   0  0  0  0  0  0  0  0  0  0  0  0
    7.6904  -14.7927   16.6037 N   0  0  0  0  0  0  0  0  0  0  0  0
   14.6970  -17.8186   23.1315 C   0  0  0  0  0  0  0  0  0  0  0  0
   13.7724  -17.8986   24.2102 O   0  0  0  0  0  0  0  0  0  0  0  0
   13.9781  -17.2749   25.2637 C   0  0  0  0  0  0  0  0  0  0  0  0
   12.5735  -18.7426   24.0283 C   0  0  1  0  0  0  0  0  0  0  0  0
   11.3276  -18.0082   24.4973 N   0  0  0  0  0  0  0  0  0  0  0  0
   11.1444  -16.7328   23.8483 C   0  0  0  0  0  0  0  0  0  0  0  0
   11.4152  -17.8253   25.9481 O   0  0  0  0  0  0  0  0  0  0  0  0
   11.5518  -18.8980   26.8248 O   0  0  0  0  0  0  0  0  0  0  0  0
  2  1  1  6
  2  3  1  0
  3  4  1  0
  4  8  1  0
  5  4  2  0
  6  2  1  0
  6  7  2  0
  9 10  1  0
 10 12  1  0
 10 11  2  0
 12 13  1  0
 13 14  1  0
 16 15  1  6
 15 14  1  0
 16 17  1  0
 17  6  1  0
 18 16  1  0
 19 18  2  0
 20 21  1  0
 21 22  2  0
 21 23  1  0
 24 23  1  6
 24 26  1  0
 24 25  1  0
 25 18  1  0
 26 27  1  0
 28 26  2  0
M  END
$$$$
