DRN.pdb
     RDKit          3D

 28 27  0  0  1  0  0  0  0  0999 V2000
   12.7907  -16.8854   20.0496 N   0  0  0  0  0  0  0  0  0  0  0  0
   12.3008  -17.6198   21.2170 C   0  0  1  0  0  0  0  0  0  0  0  0
   13.4724  -18.3815   21.7618 C   0  0  0  0  0  0  0  0  0  0  0  0
   14.0481  -19.2951   20.7274 C   0  0  0  0  0  0  0  0  0  0  0  0
   15.2782  -19.3119   20.4879 O   0  0  0  0  0  0  0  0  0  0  0  0
   11.6673  -16.7166   22.1715 C   0  0  0  0  0  0  0  0  0  0  0  0
   12.3714  -15.7778   22.6680 O   0  0  0  0  0  0  0  0  0  0  0  0
   13.2044  -20.1345   20.0228 O   0  0  0  0  0  0  0  0  0  0  0  0
    8.2056  -14.1827   18.3600 N   0  0  0  0  0  0  0  0  0  0  0  0
    7.9153  -13.1279   19.2683 C   0  0  0  0  0  0  0  0  0  0  0  0
    7.9147  -11.8846   18.8924 N   0  0  0  0  0  0  0  0  0  0  0  0
    7.6039  -13.3642   20.6367 N   0  0  0  0  0  0  0  0  0  0  0  0
    8.1580  -14.5109   21.3086 C   0  0  0  0  0  0  0  0  0  0  0  0
    7.6376  -14.6304   22.7439 C   0  0  0  0  0  0  0  0  0  0  0  0
    8.1750  -15.9338   23.2523 C   0  0  0  0  0  0  0  0  0  0  0  0
    9.6386  -15.8822   23.4392 C   0  0  2  0  0  0  0  0  0  0  0  0
   10.3223  -16.8327   22.5659 N   0  0  0  0  0  0  0  0  0  0  0  0
   10.0396  -16.1681   24.8195 C   0  0  0  0  0  0  0  0  0  0  0  0
   10.3617  -17.3567   25.1432 O   0  0  0  0  0  0  0  0  0  0  0  0
    7.7189  -11.0807   19.5003 N   0  0  0  0  0  0  0  0  0  0  0  0
   11.9725  -15.8363   29.5742 C   0  0  0  0  0  0  0  0  0  0  0  0
   10.9099  -14.8932   29.4967 O   0  0  0  0  0  0  0  0  0  0  0  0
   10.3484  -14.4908   30.5282 C   0  0  0  0  0  0  0  0  0  0  0  0
   10.5069  -14.4184   28.1569 C   0  0  1  0  0  0  0  0  0  0  0  0
   10.5058  -15.5675   27.1613 N   0  0  0  0  0  0  0  0  0  0  0  0
   10.0900  -15.1698   25.8383 C   0  0  0  0  0  0  0  0  0  0  0  0
    9.6236  -16.6209   27.6694 O   0  0  0  0  0  0  0  0  0  0  0  0
   10.0775  -17.6211   28.5247 O   0  0  0  0  0  0  0  0  0  0  0  0
  2  1  1  6
  2  3  1  0
  3  4  1  0
  4  8  1  0
  5  4  2  0
  6  2  1  0
  6  7  2  0
  9 10  1  0
 10 12  1  0
 10 11  2  0
 12 13  1  0
 13 14  1  0
 16 15  1  1
 15 14  1  0
 16 17  1  0
 17  6  1  0
 18 16  1  0
 19 18  2  0
 20 21  1  0
 21 22  2  0
 21 23  1  0
 24 23  1  6
 24 26  1  0
 24 25  1  0
 25 18  1  0
 26 27  1  0
 28 26  2  0
M  END
$$$$
