DRN.pdb
     RDKit          3D

 28 27  0  0  1  0  0  0  0  0999 V2000
   14.3929  -15.0880   18.0276 N   0  0  0  0  0  0  0  0  0  0  0  0
   13.8621  -16.3293   18.5929 C   0  0  1  0  0  0  0  0  0  0  0  0
   15.0235  -17.2706   18.7156 C   0  0  0  0  0  0  0  0  0  0  0  0
   15.5305  -17.6780   17.3690 C   0  0  0  0  0  0  0  0  0  0  0  0
   14.8426  -17.5036   16.3360 O   0  0  0  0  0  0  0  0  0  0  0  0
   13.1555  -16.0714   19.8427 C   0  0  0  0  0  0  0  0  0  0  0  0
   13.7937  -15.5012   20.7866 O   0  0  0  0  0  0  0  0  0  0  0  0
   16.7812  -18.2592   17.2658 O   0  0  0  0  0  0  0  0  0  0  0  0
    6.6799  -13.3857   19.8485 N   0  0  0  0  0  0  0  0  0  0  0  0
    7.7228  -12.6257   19.2509 C   0  0  0  0  0  0  0  0  0  0  0  0
    7.6130  -11.3451   19.0645 N   0  0  0  0  0  0  0  0  0  0  0  0
    8.9472  -13.2135   18.8261 N   0  0  0  0  0  0  0  0  0  0  0  0
    9.3019  -14.5336   19.2788 C   0  0  0  0  0  0  0  0  0  0  0  0
    9.3566  -14.6108   20.8072 C   0  0  0  0  0  0  0  0  0  0  0  0
    9.6624  -16.0442   21.1202 C   0  0  0  0  0  0  0  0  0  0  0  0
   11.1087  -16.2593   21.3241 C   0  0  2  0  0  0  0  0  0  0  0  0
   11.8091  -16.4199   20.0524 N   0  0  0  0  0  0  0  0  0  0  0  0
   11.3913  -17.4383   22.1473 C   0  0  0  0  0  0  0  0  0  0  0  0
   11.8544  -18.4887   21.5963 O   0  0  0  0  0  0  0  0  0  0  0  0
    8.3485  -10.7345   18.6899 N   0  0  0  0  0  0  0  0  0  0  0  0
   13.4938  -19.9009   25.9496 C   0  0  0  0  0  0  0  0  0  0  0  0
   14.2277  -19.0694   25.0582 O   0  0  0  0  0  0  0  0  0  0  0  0
   15.4668  -19.1321   25.0143 C   0  0  0  0  0  0  0  0  0  0  0  0
   13.4658  -18.1406   24.1981 C   0  0  2  0  0  0  0  0  0  0  0  0
   11.9716  -18.3787   24.3475 N   0  0  0  0  0  0  0  0  0  0  0  0
   11.1725  -17.4742   23.5572 C   0  0  0  0  0  0  0  0  0  0  0  0
   11.6209  -18.2516   25.7642 O   0  0  0  0  0  0  0  0  0  0  0  0
   11.9393  -19.2328   26.6989 O   0  0  0  0  0  0  0  0  0  0  0  0
  2  1  1  1
  2  3  1  0
  3  4  1  0
  4  8  1  0
  5  4  2  0
  6  2  1  0
  6  7  2  0
  9 10  1  0
 10 12  1  0
 10 11  2  0
 12 13  1  0
 13 14  1  0
 16 15  1  6
 15 14  1  0
 16 17  1  0
 17  6  1  0
 18 16  1  0
 19 18  2  0
 20 21  1  0
 21 22  2  0
 21 23  1  0
 24 23  1  6
 24 26  1  0
 24 25  1  0
 25 18  1  0
 26 27  1  0
 28 26  2  0
M  END
$$$$
