STF.pdb
     RDKit          3D

 25 25  0  0  1  0  0  0  0  0999 V2000
    6.3043  -19.1596   23.8034 O   0  0  0  0  0  0  0  0  0  0  0  0
    5.2343  -18.7024   23.0605 C   0  0  0  0  0  0  0  0  0  0  0  0
    5.6127  -18.4173   21.6248 C   0  0  2  0  0  0  0  0  0  0  0  0
    5.6723  -19.6405   20.8866 N   0  0  0  0  0  0  0  0  0  0  0  0
    6.8924  -17.6692   21.6073 C   0  0  0  0  0  0  0  0  0  0  0  0
    7.9383  -18.2950   21.3460 O   0  0  0  0  0  0  0  0  0  0  0  0
    7.3553  -14.2632   19.8476 C   0  0  0  0  0  0  0  0  0  0  0  0
    7.9018  -14.1795   21.2589 C   0  0  1  0  0  0  0  0  0  0  0  0
    7.0122  -13.4947   22.0843 O   0  0  0  0  0  0  0  0  0  0  0  0
    8.1657  -15.5792   21.8080 C   0  0  2  0  0  0  0  0  0  0  0  0
    6.9271  -16.2799   21.8801 N   0  0  0  0  0  0  0  0  0  0  0  0
    8.7708  -15.3701   23.1717 C   0  0  0  0  0  0  0  0  0  0  0  0
    9.6502  -14.4914   23.3562 O   0  0  0  0  0  0  0  0  0  0  0  0
    8.3612  -16.1621   24.2823 N   0  0  0  0  0  0  0  0  0  0  0  0
    8.8428  -15.9636   25.6202 C   0  0  1  0  0  0  0  0  0  0  0  0
    7.7250  -15.5537   26.5504 C   0  0  0  0  0  0  0  0  0  0  0  0
    7.4407  -14.1073   26.5010 C   0  0  0  0  0  0  0  0  0  0  0  0
    8.4278  -13.1685   26.6989 C   0  0  0  0  0  0  0  0  0  0  0  0
    8.1567  -11.8041   26.6517 C   0  0  0  0  0  0  0  0  0  0  0  0
    6.8822  -11.3485   26.4035 C   0  0  0  0  0  0  0  0  0  0  0  0
    5.8873  -12.2800   26.2041 C   0  0  0  0  0  0  0  0  0  0  0  0
    6.1750  -13.6299   26.2547 C   0  0  0  0  0  0  0  0  0  0  0  0
    9.5733  -17.1546   26.1161 C   0  0  0  0  0  0  0  0  0  0  0  0
    9.6672  -18.2240   25.4995 O   0  0  0  0  0  0  0  0  0  0  0  0
   10.1952  -17.0684   27.3548 O   0  0  0  0  0  0  0  0  0  0  0  0
  2  1  1  0
  3  2  1  0
  3  4  1  6
  5  3  1  0
  6  5  2  0
  8  7  1  6
  8  9  1  0
  8 10  1  0
 10 11  1  1
 11  5  1  0
 12 10  1  0
 12 14  1  0
 13 12  2  0
 15 14  1  0
 15 23  1  0
 15 16  1  1
 16 17  1  0
 17 18  2  0
 18 19  1  0
 20 19  2  0
 21 22  2  0
 21 20  1  0
 22 17  1  0
 23 25  1  0
 24 23  2  0
M  END
$$$$
