STF.pdb
     RDKit          3D

 25 25  0  0  1  0  0  0  0  0999 V2000
    8.8293  -11.8526   19.0955 O   0  0  0  0  0  0  0  0  0  0  0  0
    9.5158  -13.0484   19.0263 C   0  0  0  0  0  0  0  0  0  0  0  0
    8.6154  -14.2065   18.6604 C   0  0  2  0  0  0  0  0  0  0  0  0
    7.4932  -13.7313   17.9124 N   0  0  0  0  0  0  0  0  0  0  0  0
    8.2237  -14.9177   19.9006 C   0  0  0  0  0  0  0  0  0  0  0  0
    7.0852  -14.7115   20.3646 O   0  0  0  0  0  0  0  0  0  0  0  0
    8.5617  -18.6705   22.8801 C   0  0  0  0  0  0  0  0  0  0  0  0
    8.9943  -17.9460   21.6210 C   0  0  1  0  0  0  0  0  0  0  0  0
    8.3283  -18.4616   20.5109 O   0  0  0  0  0  0  0  0  0  0  0  0
    8.7260  -16.4490   21.7532 C   0  0  2  0  0  0  0  0  0  0  0  0
    9.1183  -15.8084   20.5425 N   0  0  0  0  0  0  0  0  0  0  0  0
    9.5577  -15.9919   22.9233 C   0  0  0  0  0  0  0  0  0  0  0  0
   10.6400  -15.3795   22.7416 O   0  0  0  0  0  0  0  0  0  0  0  0
    9.1376  -16.2426   24.2608 N   0  0  0  0  0  0  0  0  0  0  0  0
    9.8231  -15.7374   25.4167 C   0  0  1  0  0  0  0  0  0  0  0  0
    9.8111  -14.2268   25.4450 C   0  0  0  0  0  0  0  0  0  0  0  0
    8.4984  -13.6720   25.8249 C   0  0  0  0  0  0  0  0  0  0  0  0
    8.1739  -13.4143   27.1375 C   0  0  0  0  0  0  0  0  0  0  0  0
    6.9343  -12.8906   27.4931 C   0  0  0  0  0  0  0  0  0  0  0  0
    5.9873  -12.6122   26.5344 C   0  0  0  0  0  0  0  0  0  0  0  0
    6.3023  -12.8665   25.2178 C   0  0  0  0  0  0  0  0  0  0  0  0
    7.5375  -13.3863   24.8837 C   0  0  0  0  0  0  0  0  0  0  0  0
    9.2832  -16.3235   26.6669 C   0  0  0  0  0  0  0  0  0  0  0  0
    9.7419  -16.1060   27.7960 O   0  0  0  0  0  0  0  0  0  0  0  0
    8.1897  -17.1739   26.5686 O   0  0  0  0  0  0  0  0  0  0  0  0
  2  1  1  0
  3  2  1  0
  3  4  1  1
  5  3  1  0
  6  5  2  0
  8  7  1  1
  8  9  1  0
  8 10  1  0
 10 11  1  6
 11  5  1  0
 12 10  1  0
 12 14  1  0
 13 12  2  0
 15 14  1  0
 15 23  1  0
 15 16  1  1
 16 17  1  0
 17 18  2  0
 18 19  1  0
 20 19  2  0
 21 22  2  0
 21 20  1  0
 22 17  1  0
 23 25  1  0
 24 23  2  0
M  END
$$$$
