STF.pdb
     RDKit          3D

 25 25  0  0  1  0  0  0  0  0999 V2000
   11.4846  -13.7543   18.2074 O   0  0  0  0  0  0  0  0  0  0  0  0
   10.6713  -13.6294   19.3159 C   0  0  0  0  0  0  0  0  0  0  0  0
    9.2383  -14.0111   19.0219 C   0  0  2  0  0  0  0  0  0  0  0  0
    8.5543  -12.9063   18.4251 N   0  0  0  0  0  0  0  0  0  0  0  0
    8.6003  -14.4758   20.2767 C   0  0  0  0  0  0  0  0  0  0  0  0
    8.1187  -13.6208   21.0456 O   0  0  0  0  0  0  0  0  0  0  0  0
    6.9812  -18.2198   23.0325 C   0  0  0  0  0  0  0  0  0  0  0  0
    7.6419  -17.7539   21.7505 C   0  0  1  0  0  0  0  0  0  0  0  0
    6.8139  -18.0053   20.6583 O   0  0  0  0  0  0  0  0  0  0  0  0
    7.9716  -16.2658   21.8356 C   0  0  2  0  0  0  0  0  0  0  0  0
    8.5387  -15.8544   20.5949 N   0  0  0  0  0  0  0  0  0  0  0  0
    8.9532  -16.1343   22.9708 C   0  0  0  0  0  0  0  0  0  0  0  0
   10.1902  -16.2094   22.7621 O   0  0  0  0  0  0  0  0  0  0  0  0
    8.5031  -15.9221   24.3052 N   0  0  0  0  0  0  0  0  0  0  0  0
    9.3830  -15.6497   25.4066 C   0  0  1  0  0  0  0  0  0  0  0  0
    9.4856  -14.1660   25.6728 C   0  0  0  0  0  0  0  0  0  0  0  0
    8.1943  -13.5616   26.0504 C   0  0  0  0  0  0  0  0  0  0  0  0
    7.8979  -13.2450   27.3568 C   0  0  0  0  0  0  0  0  0  0  0  0
    6.6784  -12.6748   27.7104 C   0  0  0  0  0  0  0  0  0  0  0  0
    5.7238  -12.4079   26.7560 C   0  0  0  0  0  0  0  0  0  0  0  0
    6.0108  -12.7210   25.4457 C   0  0  0  0  0  0  0  0  0  0  0  0
    7.2263  -13.2865   25.1135 C   0  0  0  0  0  0  0  0  0  0  0  0
    8.9873  -16.4081   26.6175 C   0  0  0  0  0  0  0  0  0  0  0  0
    9.6209  -16.4071   27.6810 O   0  0  0  0  0  0  0  0  0  0  0  0
    7.8290  -17.1718   26.5583 O   0  0  0  0  0  0  0  0  0  0  0  0
  2  1  1  0
  3  2  1  0
  3  4  1  1
  5  3  1  0
  6  5  2  0
  8  7  1  1
  8  9  1  0
  8 10  1  0
 10 11  1  6
 11  5  1  0
 12 10  1  0
 12 14  1  0
 13 12  2  0
 15 14  1  0
 15 23  1  0
 15 16  1  1
 16 17  1  0
 17 18  2  0
 18 19  1  0
 20 19  2  0
 21 22  2  0
 21 20  1  0
 22 17  1  0
 23 25  1  0
 24 23  2  0
M  END
$$$$
