STF.pdb
     RDKit          3D

 25 25  0  0  1  0  0  0  0  0999 V2000
    9.7961  -12.1362   19.6046 O   0  0  0  0  0  0  0  0  0  0  0  0
    9.9551  -13.5016   19.4764 C   0  0  0  0  0  0  0  0  0  0  0  0
    8.6943  -14.1833   18.9956 C   0  0  2  0  0  0  0  0  0  0  0  0
    7.9321  -13.2814   18.1892 N   0  0  0  0  0  0  0  0  0  0  0  0
    7.9427  -14.6828   20.1716 C   0  0  0  0  0  0  0  0  0  0  0  0
    6.7046  -14.7931   20.0774 O   0  0  0  0  0  0  0  0  0  0  0  0
    6.8723  -17.1781   20.5346 C   0  0  0  0  0  0  0  0  0  0  0  0
    7.7613  -17.2332   21.7609 C   0  0  1  0  0  0  0  0  0  0  0  0
    8.9953  -17.7961   21.4412 O   0  0  0  0  0  0  0  0  0  0  0  0
    7.9504  -15.8337   22.3407 C   0  0  2  0  0  0  0  0  0  0  0  0
    8.6123  -15.0259   21.3714 N   0  0  0  0  0  0  0  0  0  0  0  0
    8.7868  -16.0200   23.5797 C   0  0  0  0  0  0  0  0  0  0  0  0
   10.0417  -15.9896   23.5180 O   0  0  0  0  0  0  0  0  0  0  0  0
    8.1761  -16.2345   24.8483 N   0  0  0  0  0  0  0  0  0  0  0  0
    8.8369  -15.9906   26.0995 C   0  0  1  0  0  0  0  0  0  0  0  0
    7.8918  -15.3833   27.1097 C   0  0  0  0  0  0  0  0  0  0  0  0
    7.4420  -14.0305   26.7316 C   0  0  0  0  0  0  0  0  0  0  0  0
    6.1390  -13.7762   26.3682 C   0  0  0  0  0  0  0  0  0  0  0  0
    5.7172  -12.4985   26.0118 C   0  0  0  0  0  0  0  0  0  0  0  0
    6.5983  -11.4415   26.0120 C   0  0  0  0  0  0  0  0  0  0  0  0
    7.9047  -11.6856   26.3741 C   0  0  0  0  0  0  0  0  0  0  0  0
    8.3051  -12.9601   26.7248 C   0  0  0  0  0  0  0  0  0  0  0  0
    9.4923  -17.2166   26.6148 C   0  0  0  0  0  0  0  0  0  0  0  0
   10.2151  -17.2534   27.6192 O   0  0  0  0  0  0  0  0  0  0  0  0
    9.2837  -18.4049   25.9272 O   0  0  0  0  0  0  0  0  0  0  0  0
  2  1  1  0
  3  2  1  0
  3  4  1  1
  5  3  1  0
  6  5  2  0
  8  7  1  6
  8  9  1  0
  8 10  1  0
 10 11  1  6
 11  5  1  0
 12 10  1  0
 12 14  1  0
 13 12  2  0
 15 14  1  0
 15 23  1  0
 15 16  1  1
 16 17  1  0
 17 18  2  0
 18 19  1  0
 20 19  2  0
 21 22  2  0
 21 20  1  0
 22 17  1  0
 23 25  1  0
 24 23  2  0
M  END
$$$$
