STF.pdb
     RDKit          3D

 25 25  0  0  1  0  0  0  0  0999 V2000
   10.8601  -13.2247   19.6875 O   0  0  0  0  0  0  0  0  0  0  0  0
   10.2564  -14.1644   18.8761 C   0  0  0  0  0  0  0  0  0  0  0  0
    8.7553  -13.9934   18.8190 C   0  0  2  0  0  0  0  0  0  0  0  0
    8.4337  -12.6622   18.4078 N   0  0  0  0  0  0  0  0  0  0  0  0
    8.1837  -14.3436   20.1412 C   0  0  0  0  0  0  0  0  0  0  0  0
    7.6700  -13.4341   20.8216 O   0  0  0  0  0  0  0  0  0  0  0  0
    6.0629  -17.6210   20.6630 C   0  0  0  0  0  0  0  0  0  0  0  0
    7.0917  -17.4557   21.7636 C   0  0  1  0  0  0  0  0  0  0  0  0
    8.1766  -18.3025   21.5453 O   0  0  0  0  0  0  0  0  0  0  0  0
    7.5579  -16.0040   21.8385 C   0  0  2  0  0  0  0  0  0  0  0  0
    8.2197  -15.6759   20.6201 N   0  0  0  0  0  0  0  0  0  0  0  0
    8.4929  -15.9409   23.0181 C   0  0  0  0  0  0  0  0  0  0  0  0
    9.7358  -15.8620   22.8489 O   0  0  0  0  0  0  0  0  0  0  0  0
    7.9912  -15.9691   24.3506 N   0  0  0  0  0  0  0  0  0  0  0  0
    8.8181  -15.8152   25.5143 C   0  0  1  0  0  0  0  0  0  0  0  0
    8.0118  -15.3433   26.7017 C   0  0  0  0  0  0  0  0  0  0  0  0
    7.4264  -14.0046   26.5003 C   0  0  0  0  0  0  0  0  0  0  0  0
    6.0822  -13.7682   26.6788 C   0  0  0  0  0  0  0  0  0  0  0  0
    5.5323  -12.5039   26.4881 C   0  0  0  0  0  0  0  0  0  0  0  0
    6.3232  -11.4425   26.1119 C   0  0  0  0  0  0  0  0  0  0  0  0
    7.6698  -11.6687   25.9307 C   0  0  0  0  0  0  0  0  0  0  0  0
    8.1977  -12.9302   26.1246 C   0  0  0  0  0  0  0  0  0  0  0  0
    9.5743  -17.0556   25.8103 C   0  0  0  0  0  0  0  0  0  0  0  0
    9.3344  -18.1587   25.3022 O   0  0  0  0  0  0  0  0  0  0  0  0
   10.6226  -16.9786   26.7179 O   0  0  0  0  0  0  0  0  0  0  0  0
  2  1  1  0
  3  2  1  0
  3  4  1  1
  5  3  1  0
  6  5  2  0
  8  7  1  6
  8  9  1  0
  8 10  1  0
 10 11  1  6
 11  5  1  0
 12 10  1  0
 12 14  1  0
 13 12  2  0
 15 14  1  0
 15 23  1  0
 15 16  1  1
 16 17  1  0
 17 18  2  0
 18 19  1  0
 20 19  2  0
 21 22  2  0
 21 20  1  0
 22 17  1  0
 23 25  1  0
 24 23  2  0
M  END
$$$$
