STF.pdb
     RDKit          3D

 25 25  0  0  1  0  0  0  0  0999 V2000
   13.5012  -14.9551   20.0807 O   0  0  0  0  0  0  0  0  0  0  0  0
   12.7218  -15.8263   19.3462 C   0  0  0  0  0  0  0  0  0  0  0  0
   11.5687  -15.1272   18.6625 C   0  0  2  0  0  0  0  0  0  0  0  0
   12.0416  -13.9602   17.9849 N   0  0  0  0  0  0  0  0  0  0  0  0
   10.5259  -14.8261   19.6721 C   0  0  0  0  0  0  0  0  0  0  0  0
    9.8342  -13.8005   19.5183 O   0  0  0  0  0  0  0  0  0  0  0  0
    7.9290  -15.1761   19.4146 C   0  0  0  0  0  0  0  0  0  0  0  0
    7.9385  -15.9510   20.7172 C   0  0  1  0  0  0  0  0  0  0  0  0
    7.9665  -17.3215   20.4667 O   0  0  0  0  0  0  0  0  0  0  0  0
    9.1386  -15.5420   21.5675 C   0  0  2  0  0  0  0  0  0  0  0  0
   10.3197  -15.6803   20.7827 N   0  0  0  0  0  0  0  0  0  0  0  0
    9.1364  -16.4802   22.7462 C   0  0  0  0  0  0  0  0  0  0  0  0
   10.1593  -17.1507   23.0351 O   0  0  0  0  0  0  0  0  0  0  0  0
    7.9768  -16.6291   23.5595 N   0  0  0  0  0  0  0  0  0  0  0  0
    7.7414  -15.8683   24.7542 C   0  0  1  0  0  0  0  0  0  0  0  0
    7.6295  -14.3923   24.4514 C   0  0  0  0  0  0  0  0  0  0  0  0
    7.3773  -13.5786   25.6555 C   0  0  0  0  0  0  0  0  0  0  0  0
    8.3472  -13.3817   26.6121 C   0  0  0  0  0  0  0  0  0  0  0  0
    8.1065  -12.6133   27.7474 C   0  0  0  0  0  0  0  0  0  0  0  0
    6.8805  -12.0220   27.9495 C   0  0  0  0  0  0  0  0  0  0  0  0
    5.9031  -12.2130   26.9979 C   0  0  0  0  0  0  0  0  0  0  0  0
    6.1602  -12.9788   25.8776 C   0  0  0  0  0  0  0  0  0  0  0  0
    6.5637  -16.3765   25.4977 C   0  0  0  0  0  0  0  0  0  0  0  0
    5.4280  -16.4866   25.0176 O   0  0  0  0  0  0  0  0  0  0  0  0
    6.7430  -16.7553   26.8217 O   0  0  0  0  0  0  0  0  0  0  0  0
  2  1  1  0
  3  2  1  0
  3  4  1  1
  5  3  1  0
  6  5  2  0
  8  7  1  6
  8  9  1  0
  8 10  1  0
 10 11  1  6
 11  5  1  0
 12 10  1  0
 12 14  1  0
 13 12  2  0
 15 14  1  0
 15 23  1  0
 15 16  1  6
 16 17  1  0
 17 18  2  0
 18 19  1  0
 20 19  2  0
 21 22  2  0
 21 20  1  0
 22 17  1  0
 23 25  1  0
 24 23  2  0
M  END
$$$$
