STF.pdb
     RDKit          3D

 25 25  0  0  1  0  0  0  0  0999 V2000
   10.7524  -19.4597   19.5056 O   0  0  0  0  0  0  0  0  0  0  0  0
   11.3710  -18.2955   19.9154 C   0  0  0  0  0  0  0  0  0  0  0  0
   10.7928  -17.0713   19.2425 C   0  0  2  0  0  0  0  0  0  0  0  0
   11.7540  -16.5118   18.3438 N   0  0  0  0  0  0  0  0  0  0  0  0
   10.3530  -16.1150   20.2864 C   0  0  0  0  0  0  0  0  0  0  0  0
   11.1211  -15.1825   20.5938 O   0  0  0  0  0  0  0  0  0  0  0  0
    6.8858  -14.2799   20.7519 C   0  0  0  0  0  0  0  0  0  0  0  0
    7.2401  -15.1384   21.9498 C   0  0  1  0  0  0  0  0  0  0  0  0
    6.5485  -16.3472   21.9024 O   0  0  0  0  0  0  0  0  0  0  0  0
    8.7453  -15.3891   21.9945 C   0  0  2  0  0  0  0  0  0  0  0  0
    9.0936  -16.2559   20.9186 N   0  0  0  0  0  0  0  0  0  0  0  0
    9.0086  -16.0258   23.3342 C   0  0  0  0  0  0  0  0  0  0  0  0
    9.3264  -17.2389   23.4173 O   0  0  0  0  0  0  0  0  0  0  0  0
    8.9037  -15.2692   24.5362 N   0  0  0  0  0  0  0  0  0  0  0  0
    9.1356  -15.8174   25.8428 C   0  0  1  0  0  0  0  0  0  0  0  0
    9.3443  -14.7259   26.8665 C   0  0  0  0  0  0  0  0  0  0  0  0
    8.3022  -13.6836   26.8122 C   0  0  0  0  0  0  0  0  0  0  0  0
    8.5869  -12.3615   27.0686 C   0  0  0  0  0  0  0  0  0  0  0  0
    7.6016  -11.3798   27.0166 C   0  0  0  0  0  0  0  0  0  0  0  0
    6.3013  -11.7044   26.7045 C   0  0  0  0  0  0  0  0  0  0  0  0
    6.0061  -13.0248   26.4462 C   0  0  0  0  0  0  0  0  0  0  0  0
    6.9970  -13.9853   26.5025 C   0  0  0  0  0  0  0  0  0  0  0  0
    8.0564  -16.7541   26.2375 C   0  0  0  0  0  0  0  0  0  0  0  0
    8.0958  -17.4853   27.2356 O   0  0  0  0  0  0  0  0  0  0  0  0
    6.9240  -16.8182   25.4362 O   0  0  0  0  0  0  0  0  0  0  0  0
  2  1  1  0
  3  2  1  0
  3  4  1  6
  5  3  1  0
  6  5  2  0
  8  7  1  6
  8  9  1  0
  8 10  1  0
 10 11  1  6
 11  5  1  0
 12 10  1  0
 12 14  1  0
 13 12  2  0
 15 14  1  0
 15 23  1  0
 15 16  1  1
 16 17  1  0
 17 18  2  0
 18 19  1  0
 20 19  2  0
 21 22  2  0
 21 20  1  0
 22 17  1  0
 23 25  1  0
 24 23  2  0
M  END
$$$$
