PFD.pdb
     RDKit          3D

 27 28  0  0  1  0  0  0  0  0999 V2000
    7.4018  -14.9985   19.1704 N   0  0  0  0  0  0  0  0  0  0  0  0
    7.1225  -14.3195   17.9151 C   0  0  0  0  0  0  0  0  0  0  0  0
    7.5189  -12.8880   18.2874 C   0  0  0  0  0  0  0  0  0  0  0  0
    8.8648  -13.1353   18.9450 C   0  0  0  0  0  0  0  0  0  0  0  0
    8.7226  -14.5114   19.5217 C   0  0  1  0  0  0  0  0  0  0  0  0
    8.8817  -14.4300   20.9952 C   0  0  0  0  0  0  0  0  0  0  0  0
   10.0233  -14.2027   21.4574 O   0  0  0  0  0  0  0  0  0  0  0  0
    7.7425  -14.6111   21.8253 N   0  0  0  0  0  0  0  0  0  0  0  0
    7.8067  -14.4620   23.2431 C   0  0  1  0  0  0  0  0  0  0  0  0
    6.6043  -13.7682   23.8450 C   0  0  0  0  0  0  0  0  0  0  0  0
    6.8475  -13.4266   25.2695 C   0  0  0  0  0  0  0  0  0  0  0  0
    7.6701  -12.3474   25.5873 C   0  0  0  0  0  0  0  0  0  0  0  0
    7.8595  -12.0761   26.9222 C   0  0  0  0  0  0  0  0  0  0  0  0
    7.2719  -12.8250   27.9095 C   0  0  0  0  0  0  0  0  0  0  0  0
    6.4664  -13.8822   27.5689 C   0  0  0  0  0  0  0  0  0  0  0  0
    6.2469  -14.1927   26.2311 C   0  0  0  0  0  0  0  0  0  0  0  0
    8.0834  -15.7410   23.9469 C   0  0  0  0  0  0  0  0  0  0  0  0
    7.3262  -16.7013   23.7437 O   0  0  0  0  0  0  0  0  0  0  0  0
    9.1634  -15.8839   24.8208 N   0  0  0  0  0  0  0  0  0  0  0  0
    9.6564  -17.1607   25.3313 C   0  0  1  0  0  0  0  0  0  0  0  0
   10.9288  -17.5738   24.6626 C   0  0  0  0  0  0  0  0  0  0  0  0
   11.4235  -18.8278   25.2604 C   0  0  0  0  0  0  0  0  0  0  0  0
   10.6588  -19.8487   25.3861 O   0  0  0  0  0  0  0  0  0  0  0  0
    9.9332  -16.9176   26.7632 C   0  0  0  0  0  0  0  0  0  0  0  0
   10.2237  -15.7690   27.1514 O   0  0  0  0  0  0  0  0  0  0  0  0
   12.7096  -19.0316   25.7337 O   0  0  0  0  0  0  0  0  0  0  0  0
    9.8797  -17.9295   27.6886 O   0  0  0  0  0  0  0  0  0  0  0  0
  1  2  1  0
  3  2  1  0
  4  5  1  0
  4  3  1  0
  5  6  1  1
  5  1  1  0
  6  7  2  0
  8  9  1  0
  8  6  1  0
 10 11  1  0
  9 10  1  1
 11 16  2  0
 12 13  2  0
 12 11  1  0
 13 14  1  0
 14 15  2  0
 16 15  1  0
 17 18  2  0
 17  9  1  0
 19 17  1  0
 20 24  1  0
 20 19  1  0
 20 21  1  6
 22 21  1  0
 22 26  1  0
 23 22  2  0
 24 27  1  0
 25 24  2  0
M  END
$$$$
