PFD.pdb
     RDKit          3D

 27 28  0  0  1  0  0  0  0  0999 V2000
    7.4256  -15.1551   19.0529 N   0  0  0  0  0  0  0  0  0  0  0  0
    7.0232  -14.5326   17.8018 C   0  0  0  0  0  0  0  0  0  0  0  0
    7.2912  -13.0617   18.1327 C   0  0  0  0  0  0  0  0  0  0  0  0
    8.6836  -13.1612   18.7298 C   0  0  0  0  0  0  0  0  0  0  0  0
    8.7057  -14.5328   19.3338 C   0  0  1  0  0  0  0  0  0  0  0  0
    8.9228  -14.4062   20.7967 C   0  0  0  0  0  0  0  0  0  0  0  0
   10.0696  -14.1099   21.2034 O   0  0  0  0  0  0  0  0  0  0  0  0
    7.8306  -14.6240   21.6796 N   0  0  0  0  0  0  0  0  0  0  0  0
    7.9439  -14.4252   23.0883 C   0  0  1  0  0  0  0  0  0  0  0  0
    6.6933  -13.8710   23.7350 C   0  0  0  0  0  0  0  0  0  0  0  0
    6.9582  -13.4636   25.1382 C   0  0  0  0  0  0  0  0  0  0  0  0
    6.6719  -14.3476   26.1769 C   0  0  0  0  0  0  0  0  0  0  0  0
    6.9378  -13.9181   27.4561 C   0  0  0  0  0  0  0  0  0  0  0  0
    7.4617  -12.6773   27.7150 C   0  0  0  0  0  0  0  0  0  0  0  0
    7.7342  -11.8264   26.6737 C   0  0  0  0  0  0  0  0  0  0  0  0
    7.4810  -12.2193   25.3638 C   0  0  0  0  0  0  0  0  0  0  0  0
    8.4152  -15.6372   23.8070 C   0  0  0  0  0  0  0  0  0  0  0  0
    7.7451  -16.6759   23.7134 O   0  0  0  0  0  0  0  0  0  0  0  0
    9.5814  -15.6327   24.5756 N   0  0  0  0  0  0  0  0  0  0  0  0
   10.3059  -16.8301   24.9939 C   0  0  1  0  0  0  0  0  0  0  0  0
   11.7873  -16.6437   24.9058 C   0  0  0  0  0  0  0  0  0  0  0  0
   12.4717  -17.8953   25.2798 C   0  0  0  0  0  0  0  0  0  0  0  0
   12.7740  -18.1462   26.4998 O   0  0  0  0  0  0  0  0  0  0  0  0
    9.9382  -17.0221   26.4130 C   0  0  0  0  0  0  0  0  0  0  0  0
    9.9248  -16.0447   27.1869 O   0  0  0  0  0  0  0  0  0  0  0  0
   12.8495  -18.8918   24.3944 O   0  0  0  0  0  0  0  0  0  0  0  0
    9.6072  -18.2577   26.9101 O   0  0  0  0  0  0  0  0  0  0  0  0
  1  2  1  0
  3  2  1  0
  4  5  1  0
  4  3  1  0
  5  6  1  1
  5  1  1  0
  6  7  2  0
  8  9  1  0
  8  6  1  0
 10 11  1  0
  9 10  1  1
 11 16  2  0
 12 13  2  0
 12 11  1  0
 13 14  1  0
 14 15  2  0
 16 15  1  0
 17 18  2  0
 17  9  1  0
 19 17  1  0
 20 24  1  0
 20 19  1  0
 20 21  1  1
 22 21  1  0
 22 26  1  0
 23 22  2  0
 24 27  1  0
 25 24  2  0
M  END
$$$$
