PFD.pdb
     RDKit          3D

 27 28  0  0  1  0  0  0  0  0999 V2000
    7.6941  -15.1383   19.1159 N   0  0  0  0  0  0  0  0  0  0  0  0
    7.2454  -14.5589   17.8598 C   0  0  0  0  0  0  0  0  0  0  0  0
    7.2703  -13.0716   18.2233 C   0  0  0  0  0  0  0  0  0  0  0  0
    8.6390  -12.9678   18.8724 C   0  0  0  0  0  0  0  0  0  0  0  0
    8.8515  -14.3321   19.4558 C   0  0  1  0  0  0  0  0  0  0  0  0
    8.9936  -14.2045   20.9277 C   0  0  0  0  0  0  0  0  0  0  0  0
   10.0066  -13.6220   21.3782 O   0  0  0  0  0  0  0  0  0  0  0  0
    7.9834  -14.7434   21.7696 N   0  0  0  0  0  0  0  0  0  0  0  0
    8.0361  -14.6205   23.1905 C   0  0  1  0  0  0  0  0  0  0  0  0
    6.7157  -14.2439   23.8260 C   0  0  0  0  0  0  0  0  0  0  0  0
    6.9202  -13.7095   25.1962 C   0  0  0  0  0  0  0  0  0  0  0  0
    7.3160  -12.3840   25.3656 C   0  0  0  0  0  0  0  0  0  0  0  0
    7.4897  -11.9422   26.6564 C   0  0  0  0  0  0  0  0  0  0  0  0
    7.2863  -12.7577   27.7402 C   0  0  0  0  0  0  0  0  0  0  0  0
    6.8968  -14.0588   27.5452 C   0  0  0  0  0  0  0  0  0  0  0  0
    6.7092  -14.5479   26.2568 C   0  0  0  0  0  0  0  0  0  0  0  0
    8.6168  -15.8170   23.8529 C   0  0  0  0  0  0  0  0  0  0  0  0
    8.0217  -16.8989   23.7426 O   0  0  0  0  0  0  0  0  0  0  0  0
    9.8028  -15.7512   24.5875 N   0  0  0  0  0  0  0  0  0  0  0  0
   10.4180  -16.8831   25.2762 C   0  0  1  0  0  0  0  0  0  0  0  0
   11.9102  -16.8496   25.1792 C   0  0  0  0  0  0  0  0  0  0  0  0
   12.3202  -16.8897   23.7633 C   0  0  0  0  0  0  0  0  0  0  0  0
   11.9691  -17.8567   22.9989 O   0  0  0  0  0  0  0  0  0  0  0  0
   10.0337  -16.7212   26.6946 C   0  0  0  0  0  0  0  0  0  0  0  0
    9.4132  -15.7018   27.0556 O   0  0  0  0  0  0  0  0  0  0  0  0
   13.0974  -15.9322   23.1316 O   0  0  0  0  0  0  0  0  0  0  0  0
   10.3427  -17.6697   27.6370 O   0  0  0  0  0  0  0  0  0  0  0  0
  1  2  1  0
  3  2  1  0
  4  5  1  0
  4  3  1  0
  5  6  1  1
  5  1  1  0
  6  7  2  0
  8  9  1  0
  8  6  1  0
 10 11  1  0
  9 10  1  1
 11 16  2  0
 12 13  2  0
 12 11  1  0
 13 14  1  0
 14 15  2  0
 16 15  1  0
 17 18  2  0
 17  9  1  0
 19 17  1  0
 20 24  1  0
 20 19  1  0
 20 21  1  1
 22 21  1  0
 22 26  1  0
 23 22  2  0
 24 27  1  0
 25 24  2  0
M  END
$$$$
