PFD.pdb
     RDKit          3D

 27 28  0  0  1  0  0  0  0  0999 V2000
    7.0080  -14.5401   21.2969 N   0  0  0  0  0  0  0  0  0  0  0  0
    6.3560  -13.6536   20.3462 C   0  0  0  0  0  0  0  0  0  0  0  0
    7.4092  -12.5469   20.2416 C   0  0  0  0  0  0  0  0  0  0  0  0
    8.6653  -13.3772   20.0464 C   0  0  0  0  0  0  0  0  0  0  0  0
    8.3562  -14.6515   20.7726 C   0  0  1  0  0  0  0  0  0  0  0  0
    9.3386  -14.8245   21.8716 C   0  0  0  0  0  0  0  0  0  0  0  0
   10.5514  -14.9211   21.5742 O   0  0  0  0  0  0  0  0  0  0  0  0
    8.8738  -14.8743   23.2138 N   0  0  0  0  0  0  0  0  0  0  0  0
    9.7512  -15.1276   24.3105 C   0  0  1  0  0  0  0  0  0  0  0  0
    9.6650  -14.1009   25.4185 C   0  0  0  0  0  0  0  0  0  0  0  0
    8.2695  -13.6239   25.5919 C   0  0  0  0  0  0  0  0  0  0  0  0
    7.3090  -14.4845   26.1200 C   0  0  0  0  0  0  0  0  0  0  0  0
    6.0333  -13.9897   26.2591 C   0  0  0  0  0  0  0  0  0  0  0  0
    5.7046  -12.7079   25.8987 C   0  0  0  0  0  0  0  0  0  0  0  0
    6.6697  -11.8813   25.3810 C   0  0  0  0  0  0  0  0  0  0  0  0
    7.9732  -12.3400   25.2228 C   0  0  0  0  0  0  0  0  0  0  0  0
    9.6131  -16.5029   24.8554 C   0  0  0  0  0  0  0  0  0  0  0  0
    8.4809  -17.0049   24.9089 O   0  0  0  0  0  0  0  0  0  0  0  0
   10.7160  -17.2337   25.3030 N   0  0  0  0  0  0  0  0  0  0  0  0
   10.6561  -18.6021   25.8106 C   0  0  1  0  0  0  0  0  0  0  0  0
   11.9493  -19.3267   25.6120 C   0  0  0  0  0  0  0  0  0  0  0  0
   12.3943  -19.1811   24.2136 C   0  0  0  0  0  0  0  0  0  0  0  0
   11.7321  -19.7053   23.2495 O   0  0  0  0  0  0  0  0  0  0  0  0
   10.4130  -18.4601   27.2620 C   0  0  0  0  0  0  0  0  0  0  0  0
   10.4644  -17.3323   27.7911 O   0  0  0  0  0  0  0  0  0  0  0  0
   13.5272  -18.4957   23.8055 O   0  0  0  0  0  0  0  0  0  0  0  0
   10.1293  -19.5444   28.0539 O   0  0  0  0  0  0  0  0  0  0  0  0
  1  2  1  0
  3  2  1  0
  4  5  1  0
  4  3  1  0
  5  6  1  1
  5  1  1  0
  6  7  2  0
  8  9  1  0
  8  6  1  0
 10 11  1  0
  9 10  1  1
 11 16  2  0
 12 13  2  0
 12 11  1  0
 13 14  1  0
 14 15  2  0
 16 15  1  0
 17 18  2  0
 17  9  1  0
 19 17  1  0
 20 24  1  0
 20 19  1  0
 20 21  1  1
 22 21  1  0
 22 26  1  0
 23 22  2  0
 24 27  1  0
 25 24  2  0
M  END
$$$$
