PFD.pdb
     RDKit          3D

 27 28  0  0  1  0  0  0  0  0999 V2000
    7.0828  -14.9359   20.4851 N   0  0  0  0  0  0  0  0  0  0  0  0
    6.5648  -14.0639   19.4430 C   0  0  0  0  0  0  0  0  0  0  0  0
    7.1263  -12.7186   19.9115 C   0  0  0  0  0  0  0  0  0  0  0  0
    8.5693  -13.1016   20.1878 C   0  0  0  0  0  0  0  0  0  0  0  0
    8.4771  -14.5458   20.5783 C   0  0  1  0  0  0  0  0  0  0  0  0
    8.9770  -14.6970   21.9677 C   0  0  0  0  0  0  0  0  0  0  0  0
   10.1796  -14.4340   22.1979 O   0  0  0  0  0  0  0  0  0  0  0  0
    8.0813  -15.1318   22.9818 N   0  0  0  0  0  0  0  0  0  0  0  0
    8.4975  -15.3083   24.3355 C   0  0  1  0  0  0  0  0  0  0  0  0
    7.3651  -15.2706   25.3383 C   0  0  0  0  0  0  0  0  0  0  0  0
    7.1077  -13.8814   25.7952 C   0  0  0  0  0  0  0  0  0  0  0  0
    8.1813  -13.0238   26.0282 C   0  0  0  0  0  0  0  0  0  0  0  0
    7.8844  -11.7486   26.4492 C   0  0  0  0  0  0  0  0  0  0  0  0
    6.5938  -11.3240   26.6364 C   0  0  0  0  0  0  0  0  0  0  0  0
    5.5552  -12.1889   26.3998 C   0  0  0  0  0  0  0  0  0  0  0  0
    5.8092  -13.4879   25.9727 C   0  0  0  0  0  0  0  0  0  0  0  0
    9.3326  -16.5218   24.5299 C   0  0  0  0  0  0  0  0  0  0  0  0
    8.8685  -17.6182   24.1845 O   0  0  0  0  0  0  0  0  0  0  0  0
   10.6122  -16.4558   25.0857 N   0  0  0  0  0  0  0  0  0  0  0  0
   11.5231  -17.5907   25.2122 C   0  0  1  0  0  0  0  0  0  0  0  0
   12.9527  -17.1541   25.2631 C   0  0  0  0  0  0  0  0  0  0  0  0
   13.3487  -16.5864   23.9610 C   0  0  0  0  0  0  0  0  0  0  0  0
   12.9933  -17.1401   22.8611 O   0  0  0  0  0  0  0  0  0  0  0  0
   11.1748  -18.2171   26.5053 C   0  0  0  0  0  0  0  0  0  0  0  0
   11.7258  -19.2824   26.8457 O   0  0  0  0  0  0  0  0  0  0  0  0
   14.1165  -15.4458   23.7896 O   0  0  0  0  0  0  0  0  0  0  0  0
   10.2528  -17.6551   27.3523 O   0  0  0  0  0  0  0  0  0  0  0  0
  1  2  1  0
  3  2  1  0
  4  5  1  0
  4  3  1  0
  5  6  1  1
  5  1  1  0
  6  7  2  0
  8  9  1  0
  8  6  1  0
 10 11  1  0
  9 10  1  1
 11 16  2  0
 12 13  2  0
 12 11  1  0
 13 14  1  0
 14 15  2  0
 16 15  1  0
 17 18  2  0
 17  9  1  0
 19 17  1  0
 20 24  1  0
 20 19  1  0
 20 21  1  1
 22 21  1  0
 22 26  1  0
 23 22  2  0
 24 27  1  0
 25 24  2  0
M  END
$$$$
