PFD.pdb
     RDKit          3D

 27 28  0  0  1  0  0  0  0  0999 V2000
    7.0801  -15.5657   20.8129 N   0  0  0  0  0  0  0  0  0  0  0  0
    6.1826  -14.8895   19.8898 C   0  0  0  0  0  0  0  0  0  0  0  0
    6.4973  -13.4293   20.2265 C   0  0  0  0  0  0  0  0  0  0  0  0
    8.0152  -13.4621   20.2102 C   0  0  0  0  0  0  0  0  0  0  0  0
    8.3371  -14.8670   20.6215 C   0  0  1  0  0  0  0  0  0  0  0  0
    9.1178  -14.8276   21.8832 C   0  0  0  0  0  0  0  0  0  0  0  0
   10.3041  -14.4288   21.8353 O   0  0  0  0  0  0  0  0  0  0  0  0
    8.4980  -15.2404   23.0937 N   0  0  0  0  0  0  0  0  0  0  0  0
    9.1786  -15.1950   24.3473 C   0  0  1  0  0  0  0  0  0  0  0  0
    8.2612  -15.0497   25.5417 C   0  0  0  0  0  0  0  0  0  0  0  0
    9.0422  -14.8498   26.7887 C   0  0  0  0  0  0  0  0  0  0  0  0
    9.4514  -15.9574   27.5291 C   0  0  0  0  0  0  0  0  0  0  0  0
   10.1724  -15.7134   28.6746 C   0  0  0  0  0  0  0  0  0  0  0  0
   10.4833  -14.4420   29.0841 C   0  0  0  0  0  0  0  0  0  0  0  0
   10.0680  -13.3691   28.3364 C   0  0  0  0  0  0  0  0  0  0  0  0
    9.3364  -13.5692   27.1706 C   0  0  0  0  0  0  0  0  0  0  0  0
   10.1150  -16.3327   24.5381 C   0  0  0  0  0  0  0  0  0  0  0  0
    9.6632  -17.4852   24.4728 O   0  0  0  0  0  0  0  0  0  0  0  0
   11.4752  -16.1354   24.7861 N   0  0  0  0  0  0  0  0  0  0  0  0
   12.5026  -17.1651   24.6519 C   0  0  1  0  0  0  0  0  0  0  0  0
   13.7538  -16.6262   24.0347 C   0  0  0  0  0  0  0  0  0  0  0  0
   14.7842  -17.6802   23.9917 C   0  0  0  0  0  0  0  0  0  0  0  0
   14.4643  -18.9147   23.8637 O   0  0  0  0  0  0  0  0  0  0  0  0
   12.8034  -17.5865   26.0368 C   0  0  0  0  0  0  0  0  0  0  0  0
   13.0317  -16.7264   26.9100 O   0  0  0  0  0  0  0  0  0  0  0  0
   16.1496  -17.4636   24.0839 O   0  0  0  0  0  0  0  0  0  0  0  0
   12.8394  -18.9109   26.3946 O   0  0  0  0  0  0  0  0  0  0  0  0
  1  2  1  0
  3  2  1  0
  4  5  1  0
  4  3  1  0
  5  6  1  1
  5  1  1  0
  6  7  2  0
  8  9  1  0
  8  6  1  0
 10 11  1  0
  9 10  1  1
 11 16  2  0
 12 13  2  0
 12 11  1  0
 13 14  1  0
 14 15  2  0
 16 15  1  0
 17 18  2  0
 17  9  1  0
 19 17  1  0
 20 24  1  0
 20 19  1  0
 20 21  1  1
 22 21  1  0
 22 26  1  0
 23 22  2  0
 24 27  1  0
 25 24  2  0
M  END
$$$$
