PFD.pdb
     RDKit          3D

 27 28  0  0  1  0  0  0  0  0999 V2000
    7.2247  -15.1057   19.0878 N   0  0  0  0  0  0  0  0  0  0  0  0
    6.7864  -14.4212   17.8818 C   0  0  0  0  0  0  0  0  0  0  0  0
    7.1030  -12.9722   18.2625 C   0  0  0  0  0  0  0  0  0  0  0  0
    8.5159  -13.1282   18.7960 C   0  0  0  0  0  0  0  0  0  0  0  0
    8.5298  -14.5246   19.3406 C   0  0  1  0  0  0  0  0  0  0  0  0
    8.8095  -14.4657   20.7971 C   0  0  0  0  0  0  0  0  0  0  0  0
    9.9729  -14.1865   21.1675 O   0  0  0  0  0  0  0  0  0  0  0  0
    7.7562  -14.7261   21.7150 N   0  0  0  0  0  0  0  0  0  0  0  0
    7.9161  -14.5481   23.1219 C   0  0  1  0  0  0  0  0  0  0  0  0
    6.6392  -14.1808   23.8457 C   0  0  0  0  0  0  0  0  0  0  0  0
    6.9338  -13.6157   25.1869 C   0  0  0  0  0  0  0  0  0  0  0  0
    7.1919  -12.2524   25.3174 C   0  0  0  0  0  0  0  0  0  0  0  0
    7.4578  -11.7835   26.5827 C   0  0  0  0  0  0  0  0  0  0  0  0
    7.4722  -12.6083   27.6783 C   0  0  0  0  0  0  0  0  0  0  0  0
    7.2147  -13.9469   27.5218 C   0  0  0  0  0  0  0  0  0  0  0  0
    6.9408  -14.4644   26.2603 C   0  0  0  0  0  0  0  0  0  0  0  0
    8.5798  -15.7037   23.7790 C   0  0  0  0  0  0  0  0  0  0  0  0
    8.0997  -16.8340   23.6090 O   0  0  0  0  0  0  0  0  0  0  0  0
    9.7177  -15.5474   24.5736 N   0  0  0  0  0  0  0  0  0  0  0  0
   10.6726  -16.6105   24.8766 C   0  0  1  0  0  0  0  0  0  0  0  0
   12.0870  -16.1391   24.7571 C   0  0  0  0  0  0  0  0  0  0  0  0
   13.0107  -17.2501   25.0520 C   0  0  0  0  0  0  0  0  0  0  0  0
   12.9622  -17.8730   26.1712 O   0  0  0  0  0  0  0  0  0  0  0  0
   10.4116  -16.9668   26.2875 C   0  0  0  0  0  0  0  0  0  0  0  0
   10.2744  -16.0659   27.1385 O   0  0  0  0  0  0  0  0  0  0  0  0
   13.9908  -17.7206   24.1930 O   0  0  0  0  0  0  0  0  0  0  0  0
   10.3146  -18.2739   26.6939 O   0  0  0  0  0  0  0  0  0  0  0  0
  1  2  1  0
  3  2  1  0
  4  5  1  0
  4  3  1  0
  5  6  1  1
  5  1  1  0
  6  7  2  0
  8  9  1  0
  8  6  1  0
 10 11  1  0
  9 10  1  1
 11 16  2  0
 12 13  2  0
 12 11  1  0
 13 14  1  0
 14 15  2  0
 16 15  1  0
 17 18  2  0
 17  9  1  0
 19 17  1  0
 20 24  1  0
 20 19  1  0
 20 21  1  1
 22 21  1  0
 22 26  1  0
 23 22  2  0
 24 27  1  0
 25 24  2  0
M  END
$$$$
