PFD.pdb
     RDKit          3D

 27 28  0  0  1  0  0  0  0  0999 V2000
    7.5789  -14.9808   19.0528 N   0  0  0  0  0  0  0  0  0  0  0  0
    7.2468  -14.3559   17.7823 C   0  0  0  0  0  0  0  0  0  0  0  0
    7.5161  -12.8877   18.1240 C   0  0  0  0  0  0  0  0  0  0  0  0
    8.8758  -13.0030   18.7898 C   0  0  0  0  0  0  0  0  0  0  0  0
    8.8510  -14.3735   19.3962 C   0  0  1  0  0  0  0  0  0  0  0  0
    8.9965  -14.2467   20.8678 C   0  0  0  0  0  0  0  0  0  0  0  0
   10.1329  -14.0000   21.3330 O   0  0  0  0  0  0  0  0  0  0  0  0
    7.8507  -14.4081   21.6929 N   0  0  0  0  0  0  0  0  0  0  0  0
    7.9155  -14.2806   23.1129 C   0  0  1  0  0  0  0  0  0  0  0  0
    6.6927  -13.6383   23.7304 C   0  0  0  0  0  0  0  0  0  0  0  0
    6.9287  -13.3151   25.1604 C   0  0  0  0  0  0  0  0  0  0  0  0
    7.6902  -12.1973   25.4964 C   0  0  0  0  0  0  0  0  0  0  0  0
    7.8759  -11.9454   26.8356 C   0  0  0  0  0  0  0  0  0  0  0  0
    7.3419  -12.7492   27.8101 C   0  0  0  0  0  0  0  0  0  0  0  0
    6.5961  -13.8438   27.4517 C   0  0  0  0  0  0  0  0  0  0  0  0
    6.3826  -14.1364   26.1089 C   0  0  0  0  0  0  0  0  0  0  0  0
    8.2382  -15.5611   23.7940 C   0  0  0  0  0  0  0  0  0  0  0  0
    7.4892  -16.5316   23.6101 O   0  0  0  0  0  0  0  0  0  0  0  0
    9.3520  -15.6942   24.6261 N   0  0  0  0  0  0  0  0  0  0  0  0
    9.9331  -16.9690   25.0397 C   0  0  1  0  0  0  0  0  0  0  0  0
   11.3636  -17.0910   24.6203 C   0  0  0  0  0  0  0  0  0  0  0  0
   11.9150  -18.3748   25.0919 C   0  0  0  0  0  0  0  0  0  0  0  0
   11.8522  -18.7089   26.3277 O   0  0  0  0  0  0  0  0  0  0  0  0
    9.8743  -16.9535   26.5169 C   0  0  0  0  0  0  0  0  0  0  0  0
   10.0577  -15.8851   27.1328 O   0  0  0  0  0  0  0  0  0  0  0  0
   12.5366  -19.3177   24.2892 O   0  0  0  0  0  0  0  0  0  0  0  0
    9.6211  -18.0925   27.2393 O   0  0  0  0  0  0  0  0  0  0  0  0
  1  2  1  0
  3  2  1  0
  4  5  1  0
  4  3  1  0
  5  6  1  1
  5  1  1  0
  6  7  2  0
  8  9  1  0
  8  6  1  0
 10 11  1  0
  9 10  1  1
 11 16  2  0
 12 13  2  0
 12 11  1  0
 13 14  1  0
 14 15  2  0
 16 15  1  0
 17 18  2  0
 17  9  1  0
 19 17  1  0
 20 24  1  0
 20 19  1  0
 20 21  1  1
 22 21  1  0
 22 26  1  0
 23 22  2  0
 24 27  1  0
 25 24  2  0
M  END
$$$$
