GTK.pdb
     RDKit          3D

 21 20  0  0  1  0  0  0  0  0999 V2000
    2.6869  -19.0684   20.8736 N   0  0  0  0  0  0  0  0  0  0  0  0
    3.0372  -17.7562   21.3678 C   0  0  0  0  0  0  0  0  0  0  0  0
    4.5180  -17.7103   21.4902 C   0  0  0  0  0  0  0  0  0  0  0  0
    5.2315  -18.7587   21.5240 O   0  0  0  0  0  0  0  0  0  0  0  0
    6.6705  -15.2968   19.5095 C   0  0  0  0  0  0  0  0  0  0  0  0
    7.1408  -15.1825   20.9437 C   0  0  1  0  0  0  0  0  0  0  0  0
    6.6371  -14.0136   21.4835 O   0  0  0  0  0  0  0  0  0  0  0  0
    6.6537  -16.4024   21.7375 C   0  0  2  0  0  0  0  0  0  0  0  0
    5.2370  -16.4725   21.5783 N   0  0  0  0  0  0  0  0  0  0  0  0
    7.0845  -16.2745   23.1479 C   0  0  0  0  0  0  0  0  0  0  0  0
    6.3403  -15.6955   23.9738 O   0  0  0  0  0  0  0  0  0  0  0  0
    8.3171  -16.7910   23.5846 N   0  0  0  0  0  0  0  0  0  0  0  0
    8.7794  -16.6877   24.9790 C   0  0  1  0  0  0  0  0  0  0  0  0
    8.7578  -18.0753   25.5131 C   0  0  0  0  0  0  0  0  0  0  0  0
    8.5236  -18.2372   26.9701 C   0  0  0  0  0  0  0  0  0  0  0  0
    8.5306  -19.7522   27.2302 C   0  0  0  0  0  0  0  0  0  0  0  0
    8.4741  -20.0424   28.7086 C   0  0  0  0  0  0  0  0  0  0  0  0
    8.4561  -21.4861   28.8561 N   0  0  0  0  0  0  0  0  0  0  0  0
   10.1707  -16.1751   25.0275 C   0  0  0  0  0  0  0  0  0  0  0  0
   10.8037  -16.0963   23.9447 O   0  0  0  0  0  0  0  0  0  0  0  0
   10.8171  -15.7797   26.1721 O   0  0  0  0  0  0  0  0  0  0  0  0
  1  2  1  0
  2  3  1  0
  3  4  2  0
  6  5  1  6
  6  8  1  0
  7  6  1  0
  8 10  1  0
  9  3  1  0
  8  9  1  1
 10 12  1  0
 10 11  2  0
 12 13  1  0
 13 19  1  0
 13 14  1  6
 14 15  1  0
 15 16  1  0
 16 17  1  0
 17 18  1  0
 19 21  1  0
 20 19  2  0
M  END
$$$$
