GTK.pdb
     RDKit          3D

 21 20  0  0  1  0  0  0  0  0999 V2000
    7.1297  -14.2782   20.5584 N   0  0  0  0  0  0  0  0  0  0  0  0
    6.4313  -14.5292   21.7986 C   0  0  0  0  0  0  0  0  0  0  0  0
    7.4051  -14.3272   22.9035 C   0  0  0  0  0  0  0  0  0  0  0  0
    8.6517  -14.2095   22.6997 O   0  0  0  0  0  0  0  0  0  0  0  0
    7.0694  -11.9072   25.9368 C   0  0  0  0  0  0  0  0  0  0  0  0
    7.2619  -13.3166   26.4541 C   0  0  1  0  0  0  0  0  0  0  0  0
    6.0284  -13.8316   26.8071 O   0  0  0  0  0  0  0  0  0  0  0  0
    7.9172  -14.1740   25.3626 C   0  0  2  0  0  0  0  0  0  0  0  0
    6.9952  -14.2524   24.2759 N   0  0  0  0  0  0  0  0  0  0  0  0
    8.2799  -15.4938   25.9264 C   0  0  0  0  0  0  0  0  0  0  0  0
    7.4159  -16.3995   25.9910 O   0  0  0  0  0  0  0  0  0  0  0  0
    9.5797  -15.7557   26.3939 N   0  0  0  0  0  0  0  0  0  0  0  0
    9.9632  -17.0325   27.0198 C   0  0  1  0  0  0  0  0  0  0  0  0
   11.2173  -17.4522   26.3400 C   0  0  0  0  0  0  0  0  0  0  0  0
   11.1116  -17.8668   24.9184 C   0  0  0  0  0  0  0  0  0  0  0  0
   12.5391  -18.2327   24.4810 C   0  0  0  0  0  0  0  0  0  0  0  0
   12.5525  -18.7311   23.0581 C   0  0  0  0  0  0  0  0  0  0  0  0
   13.9439  -18.9062   22.6842 N   0  0  0  0  0  0  0  0  0  0  0  0
   10.2403  -16.8394   28.4643 C   0  0  0  0  0  0  0  0  0  0  0  0
   10.2823  -15.6615   28.9001 O   0  0  0  0  0  0  0  0  0  0  0  0
   10.4541  -17.8569   29.3606 O   0  0  0  0  0  0  0  0  0  0  0  0
  1  2  1  0
  2  3  1  0
  3  4  2  0
  6  5  1  6
  6  8  1  0
  7  6  1  0
  8 10  1  0
  9  3  1  0
  8  9  1  6
 10 12  1  0
 10 11  2  0
 12 13  1  0
 13 19  1  0
 13 14  1  6
 14 15  1  0
 15 16  1  0
 16 17  1  0
 17 18  1  0
 19 21  1  0
 20 19  2  0
M  END
$$$$
