GTK.pdb
     RDKit          3D

 21 20  0  0  1  0  0  0  0  0999 V2000
   13.2842  -14.4268   18.2814 N   0  0  0  0  0  0  0  0  0  0  0  0
   12.0787  -15.1989   18.4800 C   0  0  0  0  0  0  0  0  0  0  0  0
   11.3748  -14.6254   19.6571 C   0  0  0  0  0  0  0  0  0  0  0  0
   11.9919  -14.0637   20.6126 O   0  0  0  0  0  0  0  0  0  0  0  0
    7.9082  -12.6675   19.5116 C   0  0  0  0  0  0  0  0  0  0  0  0
    7.8347  -13.8167   20.4939 C   0  0  1  0  0  0  0  0  0  0  0  0
    7.2129  -14.8870   19.8781 O   0  0  0  0  0  0  0  0  0  0  0  0
    9.2534  -14.1955   20.9407 C   0  0  2  0  0  0  0  0  0  0  0  0
    9.9473  -14.6711   19.7877 N   0  0  0  0  0  0  0  0  0  0  0  0
    9.1748  -15.1893   22.0350 C   0  0  0  0  0  0  0  0  0  0  0  0
    9.2712  -16.4109   21.7717 O   0  0  0  0  0  0  0  0  0  0  0  0
    8.9932  -14.7913   23.3711 N   0  0  0  0  0  0  0  0  0  0  0  0
    8.7775  -15.7485   24.4693 C   0  0  1  0  0  0  0  0  0  0  0  0
    8.9884  -14.9762   25.7224 C   0  0  0  0  0  0  0  0  0  0  0  0
    8.6542  -15.6536   27.0005 C   0  0  0  0  0  0  0  0  0  0  0  0
    9.9014  -15.5133   27.8881 C   0  0  0  0  0  0  0  0  0  0  0  0
    9.6528  -16.0937   29.2572 C   0  0  0  0  0  0  0  0  0  0  0  0
   10.8292  -15.8081   30.0578 N   0  0  0  0  0  0  0  0  0  0  0  0
    7.3846  -16.2583   24.4470 C   0  0  0  0  0  0  0  0  0  0  0  0
    6.5157  -15.5626   23.8635 O   0  0  0  0  0  0  0  0  0  0  0  0
    6.9761  -17.4376   25.0185 O   0  0  0  0  0  0  0  0  0  0  0  0
  1  2  1  0
  2  3  1  0
  3  4  2  0
  6  5  1  6
  6  8  1  0
  7  6  1  0
  8 10  1  0
  9  3  1  0
  8  9  1  6
 10 12  1  0
 10 11  2  0
 12 13  1  0
 13 19  1  0
 13 14  1  1
 14 15  1  0
 15 16  1  0
 16 17  1  0
 17 18  1  0
 19 21  1  0
 20 19  2  0
M  END
$$$$
