GTK.pdb
     RDKit          3D

 21 20  0  0  1  0  0  0  0  0999 V2000
    8.3449  -15.8937   15.3097 N   0  0  0  0  0  0  0  0  0  0  0  0
    7.6321  -15.9625   16.5650 C   0  0  0  0  0  0  0  0  0  0  0  0
    8.5756  -15.5398   17.6332 C   0  0  0  0  0  0  0  0  0  0  0  0
    9.8345  -15.5634   17.4785 O   0  0  0  0  0  0  0  0  0  0  0  0
    7.8443  -12.4318   19.7775 C   0  0  0  0  0  0  0  0  0  0  0  0
    8.2676  -13.5333   20.7254 C   0  0  1  0  0  0  0  0  0  0  0  0
    7.1405  -14.0467   21.3398 O   0  0  0  0  0  0  0  0  0  0  0  0
    9.0039  -14.6264   19.9387 C   0  0  2  0  0  0  0  0  0  0  0  0
    8.1205  -15.0765   18.9120 N   0  0  0  0  0  0  0  0  0  0  0  0
    9.4267  -15.6992   20.8669 C   0  0  0  0  0  0  0  0  0  0  0  0
    8.6643  -16.6708   21.0807 O   0  0  0  0  0  0  0  0  0  0  0  0
   10.6719  -15.6525   21.5180 N   0  0  0  0  0  0  0  0  0  0  0  0
   11.1322  -16.7032   22.4416 C   0  0  1  0  0  0  0  0  0  0  0  0
   11.8655  -17.6851   21.5993 C   0  0  0  0  0  0  0  0  0  0  0  0
   11.2344  -19.0144   21.4030 C   0  0  0  0  0  0  0  0  0  0  0  0
   12.2249  -19.8275   20.5541 C   0  0  0  0  0  0  0  0  0  0  0  0
   11.6587  -21.1853   20.2236 C   0  0  0  0  0  0  0  0  0  0  0  0
   12.6574  -21.8788   19.4311 N   0  0  0  0  0  0  0  0  0  0  0  0
   12.0665  -16.1381   23.4458 C   0  0  0  0  0  0  0  0  0  0  0  0
   12.6353  -15.0519   23.1704 O   0  0  0  0  0  0  0  0  0  0  0  0
   12.3545  -16.7175   24.6565 O   0  0  0  0  0  0  0  0  0  0  0  0
  1  2  1  0
  2  3  1  0
  3  4  2  0
  6  5  1  6
  6  8  1  0
  7  6  1  0
  8 10  1  0
  9  3  1  0
  8  9  1  6
 10 12  1  0
 10 11  2  0
 12 13  1  0
 13 19  1  0
 13 14  1  6
 14 15  1  0
 15 16  1  0
 16 17  1  0
 17 18  1  0
 19 21  1  0
 20 19  2  0
M  END
$$$$
