GTK.pdb
     RDKit          3D

 21 20  0  0  1  0  0  0  0  0999 V2000
    8.6882  -16.0276   15.0271 N   0  0  0  0  0  0  0  0  0  0  0  0
    7.8353  -15.8755   16.1838 C   0  0  0  0  0  0  0  0  0  0  0  0
    8.7049  -15.4943   17.3277 C   0  0  0  0  0  0  0  0  0  0  0  0
    9.9706  -15.5588   17.2722 O   0  0  0  0  0  0  0  0  0  0  0  0
    8.0109  -12.3904   19.4902 C   0  0  0  0  0  0  0  0  0  0  0  0
    8.2551  -13.5445   20.4386 C   0  0  1  0  0  0  0  0  0  0  0  0
    7.0381  -13.9816   20.9275 O   0  0  0  0  0  0  0  0  0  0  0  0
    8.9780  -14.6732   19.6908 C   0  0  2  0  0  0  0  0  0  0  0  0
    8.1656  -15.0275   18.5720 N   0  0  0  0  0  0  0  0  0  0  0  0
    9.2266  -15.7979   20.6206 C   0  0  0  0  0  0  0  0  0  0  0  0
    8.4319  -16.7668   20.6488 O   0  0  0  0  0  0  0  0  0  0  0  0
   10.3408  -15.8037   21.4780 N   0  0  0  0  0  0  0  0  0  0  0  0
   10.6233  -16.9033   22.4161 C   0  0  1  0  0  0  0  0  0  0  0  0
   12.0845  -17.1571   22.3091 C   0  0  0  0  0  0  0  0  0  0  0  0
   12.6627  -18.1814   23.2148 C   0  0  0  0  0  0  0  0  0  0  0  0
   14.1512  -18.2775   22.8434 C   0  0  0  0  0  0  0  0  0  0  0  0
   14.8334  -19.3610   23.6395 C   0  0  0  0  0  0  0  0  0  0  0  0
   16.1999  -19.4437   23.1575 N   0  0  0  0  0  0  0  0  0  0  0  0
   10.3066  -16.4934   23.8062 C   0  0  0  0  0  0  0  0  0  0  0  0
   10.1496  -15.2675   24.0338 O   0  0  0  0  0  0  0  0  0  0  0  0
   10.1722  -17.3587   24.8633 O   0  0  0  0  0  0  0  0  0  0  0  0
  1  2  1  0
  2  3  1  0
  3  4  2  0
  6  5  1  6
  6  8  1  0
  7  6  1  0
  8 10  1  0
  9  3  1  0
  8  9  1  6
 10 12  1  0
 10 11  2  0
 12 13  1  0
 13 19  1  0
 13 14  1  1
 14 15  1  0
 15 16  1  0
 16 17  1  0
 17 18  1  0
 19 21  1  0
 20 19  2  0
M  END
$$$$
