GTK.pdb
     RDKit          3D

 21 20  0  0  1  0  0  0  0  0999 V2000
    6.0985  -18.7402   17.3987 N   0  0  0  0  0  0  0  0  0  0  0  0
    5.7618  -18.0063   18.5974 C   0  0  0  0  0  0  0  0  0  0  0  0
    6.9369  -17.1649   18.9456 C   0  0  0  0  0  0  0  0  0  0  0  0
    8.1298  -17.5823   18.8366 O   0  0  0  0  0  0  0  0  0  0  0  0
    8.5624  -12.7626   20.5941 C   0  0  0  0  0  0  0  0  0  0  0  0
    7.4308  -13.6078   20.0498 C   0  0  1  0  0  0  0  0  0  0  0  0
    7.0951  -13.1421   18.7920 O   0  0  0  0  0  0  0  0  0  0  0  0
    7.8770  -15.0749   19.9854 C   0  0  2  0  0  0  0  0  0  0  0  0
    6.7956  -15.8220   19.4290 N   0  0  0  0  0  0  0  0  0  0  0  0
    8.2739  -15.5274   21.3378 C   0  0  0  0  0  0  0  0  0  0  0  0
    7.4246  -15.5474   22.2594 O   0  0  0  0  0  0  0  0  0  0  0  0
    9.5902  -15.9376   21.6135 N   0  0  0  0  0  0  0  0  0  0  0  0
   10.0296  -16.3730   22.9499 C   0  0  1  0  0  0  0  0  0  0  0  0
   10.4876  -17.7780   22.7840 C   0  0  0  0  0  0  0  0  0  0  0  0
    9.4443  -18.8078   22.5494 C   0  0  0  0  0  0  0  0  0  0  0  0
   10.1930  -20.1455   22.4375 C   0  0  0  0  0  0  0  0  0  0  0  0
    9.2315  -21.2781   22.1813 C   0  0  0  0  0  0  0  0  0  0  0  0
   10.0251  -22.4866   22.0542 N   0  0  0  0  0  0  0  0  0  0  0  0
   11.1705  -15.5469   23.4155 C   0  0  0  0  0  0  0  0  0  0  0  0
   11.8246  -14.9115   22.5508 O   0  0  0  0  0  0  0  0  0  0  0  0
   11.5631  -15.4262   24.7252 O   0  0  0  0  0  0  0  0  0  0  0  0
  1  2  1  0
  2  3  1  0
  3  4  2  0
  6  5  1  6
  6  8  1  0
  7  6  1  0
  8 10  1  0
  9  3  1  0
  8  9  1  1
 10 12  1  0
 10 11  2  0
 12 13  1  0
 13 19  1  0
 13 14  1  6
 14 15  1  0
 15 16  1  0
 16 17  1  0
 17 18  1  0
 19 21  1  0
 20 19  2  0
M  END
$$$$
