GTK.pdb
     RDKit          3D

 21 20  0  0  1  0  0  0  0  0999 V2000
    7.6657  -13.1217   16.8615 N   0  0  0  0  0  0  0  0  0  0  0  0
    8.7733  -13.8986   17.3697 C   0  0  0  0  0  0  0  0  0  0  0  0
    8.3924  -14.3785   18.7242 C   0  0  0  0  0  0  0  0  0  0  0  0
    7.8836  -13.6141   19.5995 O   0  0  0  0  0  0  0  0  0  0  0  0
    6.6661  -17.7991   19.3907 C   0  0  0  0  0  0  0  0  0  0  0  0
    7.8644  -17.6892   20.3089 C   0  0  1  0  0  0  0  0  0  0  0  0
    8.8990  -18.4375   19.7787 O   0  0  0  0  0  0  0  0  0  0  0  0
    8.2711  -16.2151   20.4404 C   0  0  2  0  0  0  0  0  0  0  0  0
    8.5768  -15.7420   19.1289 N   0  0  0  0  0  0  0  0  0  0  0  0
    9.4018  -16.1002   21.3888 C   0  0  0  0  0  0  0  0  0  0  0  0
   10.5714  -15.9972   20.9502 O   0  0  0  0  0  0  0  0  0  0  0  0
    9.1920  -16.1042   22.7790 N   0  0  0  0  0  0  0  0  0  0  0  0
   10.2879  -15.9757   23.7543 C   0  0  1  0  0  0  0  0  0  0  0  0
    9.6775  -15.3682   24.9666 C   0  0  0  0  0  0  0  0  0  0  0  0
   10.5531  -15.1970   26.1531 C   0  0  0  0  0  0  0  0  0  0  0  0
    9.6890  -14.4975   27.2146 C   0  0  0  0  0  0  0  0  0  0  0  0
   10.4804  -14.2539   28.4745 C   0  0  0  0  0  0  0  0  0  0  0  0
    9.6128  -13.5311   29.3863 N   0  0  0  0  0  0  0  0  0  0  0  0
   10.8286  -17.3117   24.1059 C   0  0  0  0  0  0  0  0  0  0  0  0
   10.0708  -18.3047   23.9685 O   0  0  0  0  0  0  0  0  0  0  0  0
   12.0996  -17.5413   24.5709 O   0  0  0  0  0  0  0  0  0  0  0  0
  1  2  1  0
  2  3  1  0
  3  4  2  0
  6  5  1  6
  6  8  1  0
  7  6  1  0
  8 10  1  0
  9  3  1  0
  8  9  1  6
 10 12  1  0
 10 11  2  0
 12 13  1  0
 13 19  1  0
 13 14  1  1
 14 15  1  0
 15 16  1  0
 16 17  1  0
 17 18  1  0
 19 21  1  0
 20 19  2  0
M  END
$$$$
