GTK.pdb
     RDKit          3D

 21 20  0  0  1  0  0  0  0  0999 V2000
    7.5761  -13.2770   19.3815 N   0  0  0  0  0  0  0  0  0  0  0  0
    6.8665  -13.9538   20.4431 C   0  0  0  0  0  0  0  0  0  0  0  0
    7.7353  -13.9183   21.6488 C   0  0  0  0  0  0  0  0  0  0  0  0
    8.9634  -13.6051   21.5943 O   0  0  0  0  0  0  0  0  0  0  0  0
    6.9369  -12.3844   25.1044 C   0  0  0  0  0  0  0  0  0  0  0  0
    7.2760  -13.8453   25.3086 C   0  0  1  0  0  0  0  0  0  0  0  0
    6.0997  -14.5578   25.4504 O   0  0  0  0  0  0  0  0  0  0  0  0
    8.0784  -14.3546   24.1034 C   0  0  2  0  0  0  0  0  0  0  0  0
    7.2381  -14.2374   22.9556 N   0  0  0  0  0  0  0  0  0  0  0  0
    8.5321  -15.7391   24.3650 C   0  0  0  0  0  0  0  0  0  0  0  0
    7.8249  -16.7045   23.9924 O   0  0  0  0  0  0  0  0  0  0  0  0
    9.7459  -15.9971   25.0260 N   0  0  0  0  0  0  0  0  0  0  0  0
   10.1540  -17.3462   25.4526 C   0  0  1  0  0  0  0  0  0  0  0  0
   11.5031  -17.5620   24.8656 C   0  0  0  0  0  0  0  0  0  0  0  0
   12.1637  -18.8619   25.1445 C   0  0  0  0  0  0  0  0  0  0  0  0
   13.5466  -18.7811   24.4783 C   0  0  0  0  0  0  0  0  0  0  0  0
   14.3377  -20.0394   24.7312 C   0  0  0  0  0  0  0  0  0  0  0  0
   15.6555  -19.8330   24.1592 N   0  0  0  0  0  0  0  0  0  0  0  0
   10.2561  -17.4142   26.9310 C   0  0  0  0  0  0  0  0  0  0  0  0
   10.2088  -16.3339   27.5714 O   0  0  0  0  0  0  0  0  0  0  0  0
   10.3983  -18.5743   27.6508 O   0  0  0  0  0  0  0  0  0  0  0  0
  1  2  1  0
  2  3  1  0
  3  4  2  0
  6  5  1  6
  6  8  1  0
  7  6  1  0
  8 10  1  0
  9  3  1  0
  8  9  1  6
 10 12  1  0
 10 11  2  0
 12 13  1  0
 13 19  1  0
 13 14  1  6
 14 15  1  0
 15 16  1  0
 16 17  1  0
 17 18  1  0
 19 21  1  0
 20 19  2  0
M  END
$$$$
