GTK.pdb
     RDKit          3D

 21 20  0  0  1  0  0  0  0  0999 V2000
    7.9868  -12.0374   18.6150 N   0  0  0  0  0  0  0  0  0  0  0  0
    8.7837  -13.2242   18.8281 C   0  0  0  0  0  0  0  0  0  0  0  0
    8.4668  -13.7312   20.1892 C   0  0  0  0  0  0  0  0  0  0  0  0
    8.0180  -12.9808   21.1083 O   0  0  0  0  0  0  0  0  0  0  0  0
    6.6274  -17.0371   20.7846 C   0  0  0  0  0  0  0  0  0  0  0  0
    7.8476  -17.0497   21.6802 C   0  0  1  0  0  0  0  0  0  0  0  0
    8.8132  -17.8529   21.1024 O   0  0  0  0  0  0  0  0  0  0  0  0
    8.3658  -15.6155   21.8542 C   0  0  2  0  0  0  0  0  0  0  0  0
    8.6490  -15.1070   20.5510 N   0  0  0  0  0  0  0  0  0  0  0  0
    9.5413  -15.6238   22.7539 C   0  0  0  0  0  0  0  0  0  0  0  0
   10.6954  -15.5775   22.2671 O   0  0  0  0  0  0  0  0  0  0  0  0
    9.3913  -15.6826   24.1506 N   0  0  0  0  0  0  0  0  0  0  0  0
   10.5350  -15.7171   25.0777 C   0  0  1  0  0  0  0  0  0  0  0  0
    9.9927  -15.3058   26.3998 C   0  0  0  0  0  0  0  0  0  0  0  0
   10.9377  -15.2896   27.5447 C   0  0  0  0  0  0  0  0  0  0  0  0
   10.0852  -14.9886   28.7879 C   0  0  0  0  0  0  0  0  0  0  0  0
   10.9502  -14.8841   30.0183 C   0  0  0  0  0  0  0  0  0  0  0  0
   10.0710  -14.5637   31.1277 N   0  0  0  0  0  0  0  0  0  0  0  0
   11.0735  -17.0951   25.1860 C   0  0  0  0  0  0  0  0  0  0  0  0
   10.2885  -18.0500   24.9596 O   0  0  0  0  0  0  0  0  0  0  0  0
   12.3700  -17.4025   25.5160 O   0  0  0  0  0  0  0  0  0  0  0  0
  1  2  1  0
  2  3  1  0
  3  4  2  0
  6  5  1  6
  6  8  1  0
  7  6  1  0
  8 10  1  0
  9  3  1  0
  8  9  1  6
 10 12  1  0
 10 11  2  0
 12 13  1  0
 13 19  1  0
 13 14  1  1
 14 15  1  0
 15 16  1  0
 16 17  1  0
 17 18  1  0
 19 21  1  0
 20 19  2  0
M  END
$$$$
