YNG.pdb
     RDKit          3D

 25 25  0  0  1  0  0  0  0  0999 V2000
    5.4569  -10.5669   27.3803 O   0  0  0  0  0  0  0  0  0  0  0  0
    6.1964  -11.6157   26.8538 C   0  0  0  0  0  0  0  0  0  0  0  0
    6.7291  -11.5562   25.5895 C   0  0  0  0  0  0  0  0  0  0  0  0
    7.4586  -12.6033   25.0844 C   0  0  0  0  0  0  0  0  0  0  0  0
    7.6919  -13.7615   25.8176 C   0  0  0  0  0  0  0  0  0  0  0  0
    8.4882  -14.8795   25.2379 C   0  0  0  0  0  0  0  0  0  0  0  0
    7.6436  -15.5266   24.1553 C   0  0  2  0  0  0  0  0  0  0  0  0
    6.6755  -16.3847   24.8114 N   0  0  0  0  0  0  0  0  0  0  0  0
    8.4536  -16.3581   23.2417 C   0  0  0  0  0  0  0  0  0  0  0  0
    8.4290  -17.6057   23.3754 O   0  0  0  0  0  0  0  0  0  0  0  0
    7.1440  -13.7987   27.0923 C   0  0  0  0  0  0  0  0  0  0  0  0
    6.4090  -12.7395   27.5963 C   0  0  0  0  0  0  0  0  0  0  0  0
    7.5753  -17.4294   19.7030 N   0  0  0  0  0  0  0  0  0  0  0  0
    8.2898  -16.2400   19.4741 C   0  0  0  0  0  0  0  0  0  0  0  0
    7.7199  -15.2576   18.9658 O   0  0  0  0  0  0  0  0  0  0  0  0
    9.7129  -16.1530   19.8349 C   0  0  0  0  0  0  0  0  0  0  0  0
    9.9687  -16.6357   21.2504 C   0  0  2  0  0  0  0  0  0  0  0  0
    9.2621  -15.8075   22.2145 N   0  0  0  0  0  0  0  0  0  0  0  0
   11.3947  -16.6681   21.5853 C   0  0  0  0  0  0  0  0  0  0  0  0
   12.1984  -17.2722   20.8466 O   0  0  0  0  0  0  0  0  0  0  0  0
   11.8647  -16.0173   22.7434 N   0  0  0  0  0  0  0  0  0  0  0  0
   13.2357  -16.0169   23.1729 C   0  0  0  0  0  0  0  0  0  0  0  0
   13.5259  -17.2655   23.9080 C   0  0  0  0  0  0  0  0  0  0  0  0
   12.5893  -18.2904   23.9015 O   0  0  0  0  0  0  0  0  0  0  0  0
   14.5928  -17.4512   24.5487 O   0  0  0  0  0  0  0  0  0  0  0  0
  2  3  2  0
  2  1  1  0
  4  3  1  0
  5  4  2  0
  6  5  1  0
  6  7  1  0
  7  8  1  1
  9 18  1  0
  9  7  1  0
 10  9  2  0
 11  5  1  0
 11 12  2  0
 12  2  1  0
 14 13  1  0
 15 14  2  0
 16 14  1  0
 17 16  1  6
 17 19  1  0
 17 18  1  0
 19 20  2  0
 21 22  1  0
 21 19  1  0
 22 23  1  0
 23 25  2  0
 23 24  1  0
M  END
$$$$
