YNG.pdb
     RDKit          3D

 25 25  0  0  1  0  0  0  0  0999 V2000
    4.9345  -11.3279   26.9906 O   0  0  0  0  0  0  0  0  0  0  0  0
    6.0361  -12.0664   26.5844 C   0  0  0  0  0  0  0  0  0  0  0  0
    7.2219  -12.0286   27.2760 C   0  0  0  0  0  0  0  0  0  0  0  0
    8.3019  -12.7661   26.8600 C   0  0  0  0  0  0  0  0  0  0  0  0
    8.2505  -13.5781   25.7322 C   0  0  0  0  0  0  0  0  0  0  0  0
    9.4425  -14.3653   25.3087 C   0  0  0  0  0  0  0  0  0  0  0  0
    9.0166  -15.2490   24.1503 C   0  0  2  0  0  0  0  0  0  0  0  0
    8.0039  -16.1612   24.6466 N   0  0  0  0  0  0  0  0  0  0  0  0
   10.1393  -16.0493   23.6202 C   0  0  0  0  0  0  0  0  0  0  0  0
   11.1949  -15.4618   23.2800 O   0  0  0  0  0  0  0  0  0  0  0  0
    7.0423  -13.6005   25.0497 C   0  0  0  0  0  0  0  0  0  0  0  0
    5.9563  -12.8541   25.4742 C   0  0  0  0  0  0  0  0  0  0  0  0
   11.3700  -19.4947   26.2909 N   0  0  0  0  0  0  0  0  0  0  0  0
   12.0071  -19.0625   25.1141 C   0  0  0  0  0  0  0  0  0  0  0  0
   13.0283  -18.3546   25.1812 O   0  0  0  0  0  0  0  0  0  0  0  0
   11.4691  -19.4459   23.8002 C   0  0  0  0  0  0  0  0  0  0  0  0
   11.1799  -18.2358   22.9317 C   0  0  2  0  0  0  0  0  0  0  0  0
   10.0784  -17.4592   23.4777 N   0  0  0  0  0  0  0  0  0  0  0  0
   10.8830  -18.5971   21.5432 C   0  0  0  0  0  0  0  0  0  0  0  0
   11.6054  -19.4167   20.9407 O   0  0  0  0  0  0  0  0  0  0  0  0
    9.7803  -18.0203   20.8821 N   0  0  0  0  0  0  0  0  0  0  0  0
    9.3759  -18.3483   19.5431 C   0  0  0  0  0  0  0  0  0  0  0  0
   10.2717  -17.6802   18.5764 C   0  0  0  0  0  0  0  0  0  0  0  0
    9.8129  -17.4228   17.2915 O   0  0  0  0  0  0  0  0  0  0  0  0
   11.4455  -17.3271   18.8608 O   0  0  0  0  0  0  0  0  0  0  0  0
  2  3  2  0
  2  1  1  0
  4  3  1  0
  5  4  2  0
  6  5  1  0
  6  7  1  0
  7  8  1  1
  9 18  1  0
  9  7  1  0
 10  9  2  0
 11  5  1  0
 11 12  2  0
 12  2  1  0
 14 13  1  0
 15 14  2  0
 16 14  1  0
 17 16  1  1
 17 19  1  0
 17 18  1  0
 19 20  2  0
 21 22  1  0
 21 19  1  0
 22 23  1  0
 23 25  2  0
 23 24  1  0
M  END
$$$$
