YNG.pdb
     RDKit          3D

 25 25  0  0  1  0  0  0  0  0999 V2000
   12.1063  -20.6098   32.4454 O   0  0  0  0  0  0  0  0  0  0  0  0
   13.3859  -20.4973   31.9220 C   0  0  0  0  0  0  0  0  0  0  0  0
   14.4482  -21.1748   32.4681 C   0  0  0  0  0  0  0  0  0  0  0  0
   15.7078  -21.0521   31.9372 C   0  0  0  0  0  0  0  0  0  0  0  0
   15.9683  -20.2464   30.8342 C   0  0  0  0  0  0  0  0  0  0  0  0
   17.3484  -20.1359   30.2838 C   0  0  0  0  0  0  0  0  0  0  0  0
   17.3506  -20.8067   28.9221 C   0  0  2  0  0  0  0  0  0  0  0  0
   17.1258  -22.2240   29.1333 N   0  0  0  0  0  0  0  0  0  0  0  0
   18.6422  -20.6428   28.2242 C   0  0  0  0  0  0  0  0  0  0  0  0
   19.4645  -21.5908   28.2405 O   0  0  0  0  0  0  0  0  0  0  0  0
   14.8797  -19.5718   30.2994 C   0  0  0  0  0  0  0  0  0  0  0  0
   13.6114  -19.6994   30.8394 C   0  0  0  0  0  0  0  0  0  0  0  0
   19.4081  -20.3485   24.1733 N   0  0  0  0  0  0  0  0  0  0  0  0
   19.1943  -19.0484   24.6646 C   0  0  0  0  0  0  0  0  0  0  0  0
   18.2010  -18.3968   24.2943 O   0  0  0  0  0  0  0  0  0  0  0  0
   20.1437  -18.4543   25.6178 C   0  0  0  0  0  0  0  0  0  0  0  0
   20.2835  -19.2927   26.8747 C   0  0  2  0  0  0  0  0  0  0  0  0
   18.9970  -19.4564   27.5326 N   0  0  0  0  0  0  0  0  0  0  0  0
   21.2497  -18.7308   27.8219 C   0  0  0  0  0  0  0  0  0  0  0  0
   20.9603  -17.7128   28.4827 O   0  0  0  0  0  0  0  0  0  0  0  0
   22.5103  -19.3376   27.9908 N   0  0  0  0  0  0  0  0  0  0  0  0
   23.4752  -18.9401   28.9782 C   0  0  0  0  0  0  0  0  0  0  0  0
   23.9911  -17.5939   28.6543 C   0  0  0  0  0  0  0  0  0  0  0  0
   24.9799  -17.0354   29.4532 O   0  0  0  0  0  0  0  0  0  0  0  0
   23.5753  -16.9174   27.6782 O   0  0  0  0  0  0  0  0  0  0  0  0
  2  3  2  0
  2  1  1  0
  4  3  1  0
  5  4  2  0
  6  5  1  0
  6  7  1  0
  7  8  1  1
  9 18  1  0
  9  7  1  0
 10  9  2  0
 11  5  1  0
 11 12  2  0
 12  2  1  0
 14 13  1  0
 15 14  2  0
 16 14  1  0
 17 16  1  6
 17 19  1  0
 17 18  1  0
 19 20  2  0
 21 22  1  0
 21 19  1  0
 22 23  1  0
 23 25  2  0
 23 24  1  0
M  END
$$$$
