YNG.pdb
     RDKit          3D

 25 25  0  0  1  0  0  0  0  0999 V2000
    5.3808  -11.1707   28.6442 O   0  0  0  0  0  0  0  0  0  0  0  0
    6.0378  -11.8617   27.6368 C   0  0  0  0  0  0  0  0  0  0  0  0
    7.2372  -12.4915   27.8611 C   0  0  0  0  0  0  0  0  0  0  0  0
    7.8735  -13.1709   26.8526 C   0  0  0  0  0  0  0  0  0  0  0  0
    7.3428  -13.2547   25.5701 C   0  0  0  0  0  0  0  0  0  0  0  0
    8.0607  -14.0006   24.4986 C   0  0  0  0  0  0  0  0  0  0  0  0
    7.0747  -14.9782   23.8853 C   0  0  2  0  0  0  0  0  0  0  0  0
    6.9248  -16.0852   24.8104 N   0  0  0  0  0  0  0  0  0  0  0  0
    7.5548  -15.5157   22.5958 C   0  0  0  0  0  0  0  0  0  0  0  0
    8.1049  -16.6436   22.5763 O   0  0  0  0  0  0  0  0  0  0  0  0
    6.1301  -12.6108   25.3672 C   0  0  0  0  0  0  0  0  0  0  0  0
    5.4931  -11.9269   26.3884 C   0  0  0  0  0  0  0  0  0  0  0  0
    8.8259  -12.8236   18.2255 N   0  0  0  0  0  0  0  0  0  0  0  0
    8.2605  -14.0912   17.9997 C   0  0  0  0  0  0  0  0  0  0  0  0
    8.6011  -14.7585   17.0062 O   0  0  0  0  0  0  0  0  0  0  0  0
    7.2648  -14.6327   18.9369 C   0  0  0  0  0  0  0  0  0  0  0  0
    7.9173  -15.3387   20.1108 C   0  0  2  0  0  0  0  0  0  0  0  0
    7.4212  -14.8113   21.3719 N   0  0  0  0  0  0  0  0  0  0  0  0
    9.3792  -15.2451   20.0824 C   0  0  0  0  0  0  0  0  0  0  0  0
    9.9509  -14.2296   20.5280 O   0  0  0  0  0  0  0  0  0  0  0  0
   10.1459  -16.3015   19.5516 N   0  0  0  0  0  0  0  0  0  0  0  0
   11.5803  -16.3666   19.6014 C   0  0  0  0  0  0  0  0  0  0  0  0
   12.0468  -17.5793   18.8980 C   0  0  0  0  0  0  0  0  0  0  0  0
   13.3312  -17.6069   18.3713 O   0  0  0  0  0  0  0  0  0  0  0  0
   11.3307  -18.6032   18.7491 O   0  0  0  0  0  0  0  0  0  0  0  0
  2  3  2  0
  2  1  1  0
  4  3  1  0
  5  4  2  0
  6  5  1  0
  6  7  1  0
  7  8  1  1
  9 18  1  0
  9  7  1  0
 10  9  2  0
 11  5  1  0
 11 12  2  0
 12  2  1  0
 14 13  1  0
 15 14  2  0
 16 14  1  0
 17 16  1  6
 17 19  1  0
 17 18  1  0
 19 20  2  0
 21 22  1  0
 21 19  1  0
 22 23  1  0
 23 25  2  0
 23 24  1  0
M  END
$$$$
