YNG.pdb
     RDKit          3D

 25 25  0  0  1  0  0  0  0  0999 V2000
    5.3512  -10.3917   27.8991 O   0  0  0  0  0  0  0  0  0  0  0  0
    6.1231  -11.4089   27.3573 C   0  0  0  0  0  0  0  0  0  0  0  0
    6.1808  -11.6238   26.0023 C   0  0  0  0  0  0  0  0  0  0  0  0
    6.9500  -12.6349   25.4832 C   0  0  0  0  0  0  0  0  0  0  0  0
    7.6997  -13.4814   26.2925 C   0  0  0  0  0  0  0  0  0  0  0  0
    8.5237  -14.5696   25.6953 C   0  0  0  0  0  0  0  0  0  0  0  0
    7.6100  -15.4010   24.8132 C   0  0  2  0  0  0  0  0  0  0  0  0
    6.9669  -16.3885   25.6589 N   0  0  0  0  0  0  0  0  0  0  0  0
    8.3562  -16.1136   23.7561 C   0  0  0  0  0  0  0  0  0  0  0  0
    8.8035  -17.2609   23.9984 O   0  0  0  0  0  0  0  0  0  0  0  0
    7.6259  -13.2452   27.6582 C   0  0  0  0  0  0  0  0  0  0  0  0
    6.8480  -12.2237   28.1759 C   0  0  0  0  0  0  0  0  0  0  0  0
    6.6078  -15.2622   19.5447 N   0  0  0  0  0  0  0  0  0  0  0  0
    7.5339  -16.2554   19.9096 C   0  0  0  0  0  0  0  0  0  0  0  0
    7.1545  -17.4267   20.0896 O   0  0  0  0  0  0  0  0  0  0  0  0
    8.9542  -15.9133   20.0797 C   0  0  0  0  0  0  0  0  0  0  0  0
    9.4421  -16.2039   21.4867 C   0  0  2  0  0  0  0  0  0  0  0  0
    8.5911  -15.5573   22.4727 N   0  0  0  0  0  0  0  0  0  0  0  0
   10.8329  -15.7939   21.6964 C   0  0  0  0  0  0  0  0  0  0  0  0
   11.2351  -14.6958   21.2614 O   0  0  0  0  0  0  0  0  0  0  0  0
   11.7228  -16.6381   22.3901 N   0  0  0  0  0  0  0  0  0  0  0  0
   13.1154  -16.3524   22.5977 C   0  0  0  0  0  0  0  0  0  0  0  0
   13.7139  -17.3967   23.4548 C   0  0  0  0  0  0  0  0  0  0  0  0
   15.0628  -17.3214   23.7751 O   0  0  0  0  0  0  0  0  0  0  0  0
   13.0555  -18.3647   23.9163 O   0  0  0  0  0  0  0  0  0  0  0  0
  2  3  2  0
  2  1  1  0
  4  3  1  0
  5  4  2  0
  6  5  1  0
  6  7  1  0
  7  8  1  1
  9 18  1  0
  9  7  1  0
 10  9  2  0
 11  5  1  0
 11 12  2  0
 12  2  1  0
 14 13  1  0
 15 14  2  0
 16 14  1  0
 17 16  1  6
 17 19  1  0
 17 18  1  0
 19 20  2  0
 21 22  1  0
 21 19  1  0
 22 23  1  0
 23 25  2  0
 23 24  1  0
M  END
$$$$
