YNG.pdb
     RDKit          3D

 25 25  0  0  1  0  0  0  0  0999 V2000
   10.7008  -15.0397   29.9780 O   0  0  0  0  0  0  0  0  0  0  0  0
    9.9802  -14.7185   28.8372 C   0  0  0  0  0  0  0  0  0  0  0  0
    8.9958  -13.7612   28.8543 C   0  0  0  0  0  0  0  0  0  0  0  0
    8.2928  -13.4558   27.7160 C   0  0  0  0  0  0  0  0  0  0  0  0
    8.5386  -14.0917   26.5040 C   0  0  0  0  0  0  0  0  0  0  0  0
    7.7558  -13.7355   25.2873 C   0  0  0  0  0  0  0  0  0  0  0  0
    7.0813  -15.0022   24.7928 C   0  0  2  0  0  0  0  0  0  0  0  0
    7.2132  -16.0024   25.8349 N   0  0  0  0  0  0  0  0  0  0  0  0
    7.7156  -15.5266   23.5661 C   0  0  0  0  0  0  0  0  0  0  0  0
    7.4510  -16.6975   23.1999 O   0  0  0  0  0  0  0  0  0  0  0  0
    9.5377  -15.0550   26.5109 C   0  0  0  0  0  0  0  0  0  0  0  0
   10.2434  -15.3589   27.6624 C   0  0  0  0  0  0  0  0  0  0  0  0
    6.7918  -12.7114   19.9414 N   0  0  0  0  0  0  0  0  0  0  0  0
    7.3895  -13.9778   20.0695 C   0  0  0  0  0  0  0  0  0  0  0  0
    6.7185  -15.0073   19.8739 O   0  0  0  0  0  0  0  0  0  0  0  0
    8.8097  -14.0900   20.4348 C   0  0  0  0  0  0  0  0  0  0  0  0
    9.0467  -15.1864   21.4565 C   0  0  2  0  0  0  0  0  0  0  0  0
    8.6149  -14.7627   22.7789 N   0  0  0  0  0  0  0  0  0  0  0  0
   10.4477  -15.6113   21.5120 C   0  0  0  0  0  0  0  0  0  0  0  0
   11.0073  -16.0605   20.4914 O   0  0  0  0  0  0  0  0  0  0  0  0
   11.1694  -15.5146   22.7184 N   0  0  0  0  0  0  0  0  0  0  0  0
   11.8668  -16.6086   23.3355 C   0  0  0  0  0  0  0  0  0  0  0  0
   13.2691  -16.6288   22.8702 C   0  0  0  0  0  0  0  0  0  0  0  0
   13.7110  -17.6904   22.0920 O   0  0  0  0  0  0  0  0  0  0  0  0
   14.0958  -15.7212   23.1463 O   0  0  0  0  0  0  0  0  0  0  0  0
  2  3  2  0
  2  1  1  0
  4  3  1  0
  5  4  2  0
  6  5  1  0
  6  7  1  0
  7  8  1  1
  9 18  1  0
  9  7  1  0
 10  9  2  0
 11  5  1  0
 11 12  2  0
 12  2  1  0
 14 13  1  0
 15 14  2  0
 16 14  1  0
 17 16  1  6
 17 19  1  0
 17 18  1  0
 19 20  2  0
 21 22  1  0
 21 19  1  0
 22 23  1  0
 23 25  2  0
 23 24  1  0
M  END
$$$$
