YNG.pdb
     RDKit          3D

 25 25  0  0  1  0  0  0  0  0999 V2000
    7.4464  -11.6903   18.8430 O   0  0  0  0  0  0  0  0  0  0  0  0
    7.7170  -12.9928   19.2356 C   0  0  0  0  0  0  0  0  0  0  0  0
    8.9154  -13.5971   18.9448 C   0  0  0  0  0  0  0  0  0  0  0  0
    9.1665  -14.8868   19.3412 C   0  0  0  0  0  0  0  0  0  0  0  0
    8.2326  -15.6366   20.0478 C   0  0  0  0  0  0  0  0  0  0  0  0
    8.5383  -17.0347   20.4623 C   0  0  0  0  0  0  0  0  0  0  0  0
    9.4429  -17.6364   19.4023 C   0  0  2  0  0  0  0  0  0  0  0  0
    8.5926  -18.1877   18.3645 N   0  0  0  0  0  0  0  0  0  0  0  0
   10.2806  -18.7274   19.9411 C   0  0  0  0  0  0  0  0  0  0  0  0
    9.8742  -19.9104   19.8393 O   0  0  0  0  0  0  0  0  0  0  0  0
    7.0293  -15.0052   20.3302 C   0  0  0  0  0  0  0  0  0  0  0  0
    6.7818  -13.7040   19.9276 C   0  0  0  0  0  0  0  0  0  0  0  0
   15.4160  -21.0255   20.6632 N   0  0  0  0  0  0  0  0  0  0  0  0
   14.6913  -20.2495   21.5851 C   0  0  0  0  0  0  0  0  0  0  0  0
   14.7836  -20.4807   22.8043 O   0  0  0  0  0  0  0  0  0  0  0  0
   13.8220  -19.1617   21.1117 C   0  0  0  0  0  0  0  0  0  0  0  0
   12.3643  -19.5804   21.0673 C   0  0  2  0  0  0  0  0  0  0  0  0
   11.5303  -18.4973   20.5713 N   0  0  0  0  0  0  0  0  0  0  0  0
   11.8658  -20.0240   22.3716 C   0  0  0  0  0  0  0  0  0  0  0  0
   11.8949  -21.2338   22.6754 O   0  0  0  0  0  0  0  0  0  0  0  0
   11.3511  -19.0863   23.2889 N   0  0  0  0  0  0  0  0  0  0  0  0
   10.7868  -19.4268   24.5655 C   0  0  0  0  0  0  0  0  0  0  0  0
   11.8717  -19.7031   25.5298 C   0  0  0  0  0  0  0  0  0  0  0  0
   11.5491  -20.0137   26.8441 O   0  0  0  0  0  0  0  0  0  0  0  0
   13.0903  -19.6712   25.2179 O   0  0  0  0  0  0  0  0  0  0  0  0
  2  3  2  0
  2  1  1  0
  4  3  1  0
  5  4  2  0
  6  5  1  0
  6  7  1  0
  7  8  1  6
  9 18  1  0
  9  7  1  0
 10  9  2  0
 11  5  1  0
 11 12  2  0
 12  2  1  0
 14 13  1  0
 15 14  2  0
 16 14  1  0
 17 16  1  1
 17 19  1  0
 17 18  1  0
 19 20  2  0
 21 22  1  0
 21 19  1  0
 22 23  1  0
 23 25  2  0
 23 24  1  0
M  END
$$$$
