YNG.pdb
     RDKit          3D

 25 25  0  0  1  0  0  0  0  0999 V2000
    5.9646  -12.5687   18.3169 O   0  0  0  0  0  0  0  0  0  0  0  0
    7.1776  -13.1349   18.6801 C   0  0  0  0  0  0  0  0  0  0  0  0
    8.2587  -12.3605   19.0227 C   0  0  0  0  0  0  0  0  0  0  0  0
    9.4515  -12.9375   19.3798 C   0  0  0  0  0  0  0  0  0  0  0  0
    9.6233  -14.3170   19.4124 C   0  0  0  0  0  0  0  0  0  0  0  0
   10.9326  -14.9100   19.8046 C   0  0  0  0  0  0  0  0  0  0  0  0
   11.8782  -14.7439   18.6289 C   0  0  2  0  0  0  0  0  0  0  0  0
   11.2893  -15.4300   17.4947 N   0  0  0  0  0  0  0  0  0  0  0  0
   13.2032  -15.3413   18.8930 C   0  0  0  0  0  0  0  0  0  0  0  0
   13.3280  -16.5888   18.8352 O   0  0  0  0  0  0  0  0  0  0  0  0
    8.5173  -15.0791   19.0626 C   0  0  0  0  0  0  0  0  0  0  0  0
    7.3166  -14.4912   18.7030 C   0  0  0  0  0  0  0  0  0  0  0  0
   16.3819  -13.0878   16.7937 N   0  0  0  0  0  0  0  0  0  0  0  0
   16.6871  -14.2968   17.4438 C   0  0  0  0  0  0  0  0  0  0  0  0
   16.8922  -15.3284   16.7789 O   0  0  0  0  0  0  0  0  0  0  0  0
   16.7653  -14.3462   18.9116 C   0  0  0  0  0  0  0  0  0  0  0  0
   15.6371  -15.1644   19.5115 C   0  0  2  0  0  0  0  0  0  0  0  0
   14.3470  -14.5648   19.2103 N   0  0  0  0  0  0  0  0  0  0  0  0
   15.7723  -15.3327   20.9606 C   0  0  0  0  0  0  0  0  0  0  0  0
   15.0998  -16.1982   21.5565 O   0  0  0  0  0  0  0  0  0  0  0  0
   16.6624  -14.5174   21.6878 N   0  0  0  0  0  0  0  0  0  0  0  0
   16.8412  -14.5820   23.1119 C   0  0  0  0  0  0  0  0  0  0  0  0
   17.7794  -15.6738   23.4452 C   0  0  0  0  0  0  0  0  0  0  0  0
   18.1853  -15.8416   24.7623 O   0  0  0  0  0  0  0  0  0  0  0  0
   18.2363  -16.4710   22.5855 O   0  0  0  0  0  0  0  0  0  0  0  0
  2  3  2  0
  2  1  1  0
  4  3  1  0
  5  4  2  0
  6  5  1  0
  6  7  1  0
  7  8  1  6
  9 18  1  0
  9  7  1  0
 10  9  2  0
 11  5  1  0
 11 12  2  0
 12  2  1  0
 14 13  1  0
 15 14  2  0
 16 14  1  0
 17 16  1  1
 17 19  1  0
 17 18  1  0
 19 20  2  0
 21 22  1  0
 21 19  1  0
 22 23  1  0
 23 25  2  0
 23 24  1  0
M  END
$$$$
