YNG.pdb
     RDKit          3D

 25 25  0  0  1  0  0  0  0  0999 V2000
    9.8497  -13.6887   30.3690 O   0  0  0  0  0  0  0  0  0  0  0  0
   10.3500  -14.4594   29.3298 C   0  0  0  0  0  0  0  0  0  0  0  0
   10.8705  -15.7111   29.5489 C   0  0  0  0  0  0  0  0  0  0  0  0
   11.3611  -16.4601   28.5088 C   0  0  0  0  0  0  0  0  0  0  0  0
   11.3558  -15.9955   27.1982 C   0  0  0  0  0  0  0  0  0  0  0  0
   11.8969  -16.8353   26.0929 C   0  0  0  0  0  0  0  0  0  0  0  0
   10.7301  -17.2241   25.2032 C   0  0  2  0  0  0  0  0  0  0  0  0
    9.7557  -17.9054   26.0340 N   0  0  0  0  0  0  0  0  0  0  0  0
   11.1386  -18.1437   24.1216 C   0  0  0  0  0  0  0  0  0  0  0  0
   10.6001  -19.2751   24.0524 O   0  0  0  0  0  0  0  0  0  0  0  0
   10.8249  -14.7284   27.0011 C   0  0  0  0  0  0  0  0  0  0  0  0
   10.3317  -13.9775   28.0543 C   0  0  0  0  0  0  0  0  0  0  0  0
   11.3085  -16.0222   20.0612 N   0  0  0  0  0  0  0  0  0  0  0  0
   11.3624  -17.3923   20.3733 C   0  0  0  0  0  0  0  0  0  0  0  0
   10.3316  -18.0869   20.3140 O   0  0  0  0  0  0  0  0  0  0  0  0
   12.6370  -18.0091   20.7707 C   0  0  0  0  0  0  0  0  0  0  0  0
   12.5285  -18.7243   22.1045 C   0  0  2  0  0  0  0  0  0  0  0  0
   12.1169  -17.8039   23.1524 N   0  0  0  0  0  0  0  0  0  0  0  0
   13.7782  -19.3822   22.4940 C   0  0  0  0  0  0  0  0  0  0  0  0
   14.2634  -20.2808   21.7773 O   0  0  0  0  0  0  0  0  0  0  0  0
   14.4378  -19.0031   23.6802 N   0  0  0  0  0  0  0  0  0  0  0  0
   15.5907  -19.6725   24.2159 C   0  0  0  0  0  0  0  0  0  0  0  0
   16.8159  -19.1151   23.6066 C   0  0  0  0  0  0  0  0  0  0  0  0
   17.1504  -19.4714   22.3070 O   0  0  0  0  0  0  0  0  0  0  0  0
   17.5832  -18.3230   24.2125 O   0  0  0  0  0  0  0  0  0  0  0  0
  2  3  2  0
  2  1  1  0
  4  3  1  0
  5  4  2  0
  6  5  1  0
  6  7  1  0
  7  8  1  1
  9 18  1  0
  9  7  1  0
 10  9  2  0
 11  5  1  0
 11 12  2  0
 12  2  1  0
 14 13  1  0
 15 14  2  0
 16 14  1  0
 17 16  1  6
 17 19  1  0
 17 18  1  0
 19 20  2  0
 21 22  1  0
 21 19  1  0
 22 23  1  0
 23 25  2  0
 23 24  1  0
M  END
$$$$
