YNG.pdb
     RDKit          3D

 25 25  0  0  1  0  0  0  0  0999 V2000
    9.7979  -14.1780   30.6374 O   0  0  0  0  0  0  0  0  0  0  0  0
   10.2512  -14.6858   29.4288 C   0  0  0  0  0  0  0  0  0  0  0  0
   10.1257  -13.9775   28.2590 C   0  0  0  0  0  0  0  0  0  0  0  0
   10.5801  -14.4952   27.0719 C   0  0  0  0  0  0  0  0  0  0  0  0
   11.1823  -15.7462   26.9950 C   0  0  0  0  0  0  0  0  0  0  0  0
   11.6639  -16.2778   25.6891 C   0  0  0  0  0  0  0  0  0  0  0  0
   10.4409  -16.6304   24.8620 C   0  0  2  0  0  0  0  0  0  0  0  0
    9.6052  -17.5003   25.6675 N   0  0  0  0  0  0  0  0  0  0  0  0
   10.7975  -17.3506   23.6225 C   0  0  0  0  0  0  0  0  0  0  0  0
   10.6256  -18.5927   23.5723 O   0  0  0  0  0  0  0  0  0  0  0  0
   11.2983  -16.4432   28.1895 C   0  0  0  0  0  0  0  0  0  0  0  0
   10.8379  -15.9159   29.3839 C   0  0  0  0  0  0  0  0  0  0  0  0
    9.4498  -18.6070   20.1683 N   0  0  0  0  0  0  0  0  0  0  0  0
    9.8779  -17.4142   19.5588 C   0  0  0  0  0  0  0  0  0  0  0  0
    9.2372  -16.9357   18.6055 O   0  0  0  0  0  0  0  0  0  0  0  0
   11.0842  -16.7282   20.0459 C   0  0  0  0  0  0  0  0  0  0  0  0
   11.6738  -17.4155   21.2633 C   0  0  2  0  0  0  0  0  0  0  0  0
   11.3278  -16.6982   22.4800 N   0  0  0  0  0  0  0  0  0  0  0  0
   13.1292  -17.5611   21.1781 C   0  0  0  0  0  0  0  0  0  0  0  0
   13.6304  -18.4132   20.4169 O   0  0  0  0  0  0  0  0  0  0  0  0
   13.9694  -16.7394   21.9556 N   0  0  0  0  0  0  0  0  0  0  0  0
   15.3930  -16.9033   22.0593 C   0  0  0  0  0  0  0  0  0  0  0  0
   15.9740  -15.7512   22.7792 C   0  0  0  0  0  0  0  0  0  0  0  0
   15.1293  -14.7813   23.3022 O   0  0  0  0  0  0  0  0  0  0  0  0
   17.2122  -15.6009   22.9456 O   0  0  0  0  0  0  0  0  0  0  0  0
  2  3  2  0
  2  1  1  0
  4  3  1  0
  5  4  2  0
  6  5  1  0
  6  7  1  0
  7  8  1  1
  9 18  1  0
  9  7  1  0
 10  9  2  0
 11  5  1  0
 11 12  2  0
 12  2  1  0
 14 13  1  0
 15 14  2  0
 16 14  1  0
 17 16  1  6
 17 19  1  0
 17 18  1  0
 19 20  2  0
 21 22  1  0
 21 19  1  0
 22 23  1  0
 23 25  2  0
 23 24  1  0
M  END
$$$$
