YNG.pdb
     RDKit          3D

 25 25  0  0  1  0  0  0  0  0999 V2000
    5.2211  -10.4491   26.4723 O   0  0  0  0  0  0  0  0  0  0  0  0
    6.0070  -11.5764   26.2842 C   0  0  0  0  0  0  0  0  0  0  0  0
    7.0303  -11.5948   25.3687 C   0  0  0  0  0  0  0  0  0  0  0  0
    7.7983  -12.7190   25.1957 C   0  0  0  0  0  0  0  0  0  0  0  0
    7.5818  -13.8805   25.9290 C   0  0  0  0  0  0  0  0  0  0  0  0
    8.4347  -15.0833   25.7153 C   0  0  0  0  0  0  0  0  0  0  0  0
    7.8881  -15.8200   24.5059 C   0  0  2  0  0  0  0  0  0  0  0  0
    6.7297  -16.5761   24.9421 N   0  0  0  0  0  0  0  0  0  0  0  0
    8.8715  -16.7665   23.9409 C   0  0  0  0  0  0  0  0  0  0  0  0
    8.9246  -17.9326   24.4019 O   0  0  0  0  0  0  0  0  0  0  0  0
    6.5427  -13.8382   26.8481 C   0  0  0  0  0  0  0  0  0  0  0  0
    5.7713  -12.7013   27.0180 C   0  0  0  0  0  0  0  0  0  0  0  0
   10.0644  -17.9162   19.4702 N   0  0  0  0  0  0  0  0  0  0  0  0
   10.4469  -16.7497   20.1560 C   0  0  0  0  0  0  0  0  0  0  0  0
    9.9109  -15.6606   19.8820 O   0  0  0  0  0  0  0  0  0  0  0  0
   11.4814  -16.8128   21.1995 C   0  0  0  0  0  0  0  0  0  0  0  0
   10.9091  -17.2369   22.5392 C   0  0  2  0  0  0  0  0  0  0  0  0
    9.7631  -16.4155   22.8950 N   0  0  0  0  0  0  0  0  0  0  0  0
   11.9008  -17.1865   23.6165 C   0  0  0  0  0  0  0  0  0  0  0  0
   12.5327  -16.1337   23.8380 O   0  0  0  0  0  0  0  0  0  0  0  0
   12.1454  -18.3269   24.4073 N   0  0  0  0  0  0  0  0  0  0  0  0
   13.1062  -18.3826   25.4740 C   0  0  0  0  0  0  0  0  0  0  0  0
   12.9675  -19.6618   26.2005 C   0  0  0  0  0  0  0  0  0  0  0  0
   13.8072  -19.9274   27.2739 O   0  0  0  0  0  0  0  0  0  0  0  0
   12.1158  -20.5355   25.8931 O   0  0  0  0  0  0  0  0  0  0  0  0
  2  3  2  0
  2  1  1  0
  4  3  1  0
  5  4  2  0
  6  5  1  0
  6  7  1  0
  7  8  1  1
  9 18  1  0
  9  7  1  0
 10  9  2  0
 11  5  1  0
 11 12  2  0
 12  2  1  0
 14 13  1  0
 15 14  2  0
 16 14  1  0
 17 16  1  6
 17 19  1  0
 17 18  1  0
 19 20  2  0
 21 22  1  0
 21 19  1  0
 22 23  1  0
 23 25  2  0
 23 24  1  0
M  END
$$$$
