YNG.pdb
     RDKit          3D

 25 25  0  0  1  0  0  0  0  0999 V2000
    5.8382  -10.3880   26.9181 O   0  0  0  0  0  0  0  0  0  0  0  0
    6.2697  -11.6694   26.6086 C   0  0  0  0  0  0  0  0  0  0  0  0
    7.5047  -11.8977   26.0533 C   0  0  0  0  0  0  0  0  0  0  0  0
    7.9156  -13.1724   25.7536 C   0  0  0  0  0  0  0  0  0  0  0  0
    7.1129  -14.2821   25.9940 C   0  0  0  0  0  0  0  0  0  0  0  0
    7.5907  -15.6522   25.6558 C   0  0  0  0  0  0  0  0  0  0  0  0
    6.9571  -16.0418   24.3326 C   0  0  2  0  0  0  0  0  0  0  0  0
    6.2470  -17.2896   24.5393 N   0  0  0  0  0  0  0  0  0  0  0  0
    7.9661  -16.2543   23.2749 C   0  0  0  0  0  0  0  0  0  0  0  0
    8.5809  -17.3476   23.2344 O   0  0  0  0  0  0  0  0  0  0  0  0
    5.8696  -14.0269   26.5556 C   0  0  0  0  0  0  0  0  0  0  0  0
    5.4606  -12.7389   26.8556 C   0  0  0  0  0  0  0  0  0  0  0  0
    7.2758  -13.0539   19.4309 N   0  0  0  0  0  0  0  0  0  0  0  0
    7.9031  -14.3021   19.5916 C   0  0  0  0  0  0  0  0  0  0  0  0
    7.3398  -15.3391   19.1970 O   0  0  0  0  0  0  0  0  0  0  0  0
    9.2271  -14.3864   20.2264 C   0  0  0  0  0  0  0  0  0  0  0  0
    9.2843  -15.4831   21.2734 C   0  0  2  0  0  0  0  0  0  0  0  0
    8.2731  -15.2734   22.2973 N   0  0  0  0  0  0  0  0  0  0  0  0
   10.6027  -15.5925   21.9029 C   0  0  0  0  0  0  0  0  0  0  0  0
   11.3427  -14.5915   21.9859 O   0  0  0  0  0  0  0  0  0  0  0  0
   11.0410  -16.8291   22.4173 N   0  0  0  0  0  0  0  0  0  0  0  0
   12.3115  -17.0371   23.0550 C   0  0  0  0  0  0  0  0  0  0  0  0
   13.2032  -17.7919   22.1503 C   0  0  0  0  0  0  0  0  0  0  0  0
   14.4905  -18.1014   22.5685 O   0  0  0  0  0  0  0  0  0  0  0  0
   12.8520  -18.1743   21.0041 O   0  0  0  0  0  0  0  0  0  0  0  0
  2  3  2  0
  2  1  1  0
  4  3  1  0
  5  4  2  0
  6  5  1  0
  6  7  1  0
  7  8  1  1
  9 18  1  0
  9  7  1  0
 10  9  2  0
 11  5  1  0
 11 12  2  0
 12  2  1  0
 14 13  1  0
 15 14  2  0
 16 14  1  0
 17 16  1  6
 17 19  1  0
 17 18  1  0
 19 20  2  0
 21 22  1  0
 21 19  1  0
 22 23  1  0
 23 25  2  0
 23 24  1  0
M  END
$$$$
