YNG.pdb
     RDKit          3D

 25 25  0  0  1  0  0  0  0  0999 V2000
    6.8927  -13.1440   17.4869 O   0  0  0  0  0  0  0  0  0  0  0  0
    7.2603  -13.4007   18.7995 C   0  0  0  0  0  0  0  0  0  0  0  0
    6.3848  -13.9659   19.6939 C   0  0  0  0  0  0  0  0  0  0  0  0
    6.7654  -14.2132   20.9891 C   0  0  0  0  0  0  0  0  0  0  0  0
    8.0397  -13.9082   21.4547 C   0  0  0  0  0  0  0  0  0  0  0  0
    8.4193  -14.1900   22.8676 C   0  0  0  0  0  0  0  0  0  0  0  0
    9.0212  -15.5829   22.9083 C   0  0  2  0  0  0  0  0  0  0  0  0
    7.9402  -16.5312   22.7186 N   0  0  0  0  0  0  0  0  0  0  0  0
    9.6665  -15.8714   24.2054 C   0  0  0  0  0  0  0  0  0  0  0  0
    8.9575  -16.2771   25.1582 O   0  0  0  0  0  0  0  0  0  0  0  0
    8.9069  -13.3381   20.5331 C   0  0  0  0  0  0  0  0  0  0  0  0
    8.5172  -13.0908   19.2280 C   0  0  0  0  0  0  0  0  0  0  0  0
   11.7278  -19.9892   26.3387 N   0  0  0  0  0  0  0  0  0  0  0  0
   10.9859  -18.8984   25.8517 C   0  0  0  0  0  0  0  0  0  0  0  0
    9.8913  -18.6081   26.3675 O   0  0  0  0  0  0  0  0  0  0  0  0
   11.5010  -18.0968   24.7314 C   0  0  0  0  0  0  0  0  0  0  0  0
   11.8499  -16.6836   25.1597 C   0  0  2  0  0  0  0  0  0  0  0  0
   11.0587  -15.7103   24.4240 N   0  0  0  0  0  0  0  0  0  0  0  0
   13.2740  -16.3809   24.9958 C   0  0  0  0  0  0  0  0  0  0  0  0
   14.0939  -16.7321   25.8682 O   0  0  0  0  0  0  0  0  0  0  0  0
   13.7241  -15.6917   23.8521 N   0  0  0  0  0  0  0  0  0  0  0  0
   15.0883  -15.3031   23.6245 C   0  0  0  0  0  0  0  0  0  0  0  0
   15.8481  -16.4507   23.0868 C   0  0  0  0  0  0  0  0  0  0  0  0
   17.1506  -16.2563   22.6469 O   0  0  0  0  0  0  0  0  0  0  0  0
   15.3697  -17.6117   23.0057 O   0  0  0  0  0  0  0  0  0  0  0  0
  2  3  2  0
  2  1  1  0
  4  3  1  0
  5  4  2  0
  6  5  1  0
  6  7  1  0
  7  8  1  1
  9 18  1  0
  9  7  1  0
 10  9  2  0
 11  5  1  0
 11 12  2  0
 12  2  1  0
 14 13  1  0
 15 14  2  0
 16 14  1  0
 17 16  1  6
 17 19  1  0
 17 18  1  0
 19 20  2  0
 21 22  1  0
 21 19  1  0
 22 23  1  0
 23 25  2  0
 23 24  1  0
M  END
$$$$
