FHG.pdb
     RDKit          3D

 26 27  0  0  1  0  0  0  0  0999 V2000
   28.3685  -20.4160  -15.4020 N   0  0  0  0  0  0  0  0  0  0  0  0
   27.4914  -19.5998  -14.6329 C   0  0  1  0  0  0  0  0  0  0  0  0
   26.5546  -18.7587  -15.4381 C   0  0  0  0  0  0  0  0  0  0  0  0
   27.0782  -17.4816  -15.8829 C   0  0  0  0  0  0  0  0  0  0  0  0
   27.1386  -16.3485  -15.0827 C   0  0  0  0  0  0  0  0  0  0  0  0
   27.6486  -15.1657  -15.5688 C   0  0  0  0  0  0  0  0  0  0  0  0
   28.1084  -15.0944  -16.8659 C   0  0  0  0  0  0  0  0  0  0  0  0
   28.0582  -16.2079  -17.6793 C   0  0  0  0  0  0  0  0  0  0  0  0
   27.5467  -17.3948  -17.1924 C   0  0  0  0  0  0  0  0  0  0  0  0
   26.6748  -20.4717  -13.7573 C   0  0  0  0  0  0  0  0  0  0  0  0
   26.3340  -21.5999  -14.1786 O   0  0  0  0  0  0  0  0  0  0  0  0
   26.2607  -20.0849  -12.4602 N   0  0  0  0  0  0  0  0  0  0  0  0
   25.4716  -21.0091  -11.6748 C   0  0  1  0  0  0  0  0  0  0  0  0
   25.7242  -20.7668  -10.2030 C   0  0  0  0  0  0  0  0  0  0  0  0
   27.1297  -20.9500   -9.8042 C   0  0  0  0  0  0  0  0  0  0  0  0
   28.1553  -21.4390  -10.6198 C   0  0  0  0  0  0  0  0  0  0  0  0
   29.2982  -21.4754   -9.9448 N   0  0  0  0  0  0  0  0  0  0  0  0
   29.0602  -21.0233   -8.7010 C   0  0  0  0  0  0  0  0  0  0  0  0
   27.7561  -20.7107   -8.6270 N   0  0  0  0  0  0  0  0  0  0  0  0
   24.0163  -20.8275  -11.9293 C   0  0  0  0  0  0  0  0  0  0  0  0
   23.5462  -19.6749  -12.0552 O   0  0  0  0  0  0  0  0  0  0  0  0
   23.1190  -21.9227  -12.0378 N   0  0  0  0  0  0  0  0  0  0  0  0
   21.7650  -21.7449  -12.5838 C   0  0  0  0  0  0  0  0  0  0  0  0
   20.8002  -21.4818  -11.5124 C   0  0  0  0  0  0  0  0  0  0  0  0
   21.2553  -21.4194  -10.2067 O   0  0  0  0  0  0  0  0  0  0  0  0
   19.5790  -21.3119  -11.7403 O   0  0  0  0  0  0  0  0  0  0  0  0
  2  1  1  6
  2 10  1  0
  3  2  1  0
  4  9  1  0
  4  3  1  0
  5  4  2  0
  6  7  2  0
  6  5  1  0
  7  8  1  0
  8  9  2  0
 10 11  2  0
 10 12  1  0
 12 13  1  0
 13 14  1  1
 14 15  1  0
 15 16  2  0
 15 19  1  0
 16 17  1  0
 17 18  1  0
 19 18  2  0
 20 21  2  0
 20 13  1  0
 22 20  1  0
 23 22  1  0
 23 24  1  0
 24 25  1  0
 26 24  2  0
M  END
$$$$
