FHG.pdb
     RDKit          3D

 26 27  0  0  1  0  0  0  0  0999 V2000
   28.5800  -27.9603  -16.4049 N   0  0  0  0  0  0  0  0  0  0  0  0
   27.3015  -27.9538  -17.0313 C   0  0  1  0  0  0  0  0  0  0  0  0
   26.5259  -29.2224  -16.8803 C   0  0  0  0  0  0  0  0  0  0  0  0
   26.8223  -30.2612  -17.8479 C   0  0  0  0  0  0  0  0  0  0  0  0
   26.5956  -30.1361  -19.2120 C   0  0  0  0  0  0  0  0  0  0  0  0
   26.9004  -31.1630  -20.0768 C   0  0  0  0  0  0  0  0  0  0  0  0
   27.4385  -32.3356  -19.5924 C   0  0  0  0  0  0  0  0  0  0  0  0
   27.6724  -32.4822  -18.2404 C   0  0  0  0  0  0  0  0  0  0  0  0
   27.3668  -31.4524  -17.3723 C   0  0  0  0  0  0  0  0  0  0  0  0
   26.4917  -26.8587  -16.4495 C   0  0  0  0  0  0  0  0  0  0  0  0
   26.7815  -26.4354  -15.3079 O   0  0  0  0  0  0  0  0  0  0  0  0
   25.4002  -26.2668  -17.1292 N   0  0  0  0  0  0  0  0  0  0  0  0
   24.7282  -25.1388  -16.5213 C   0  0  1  0  0  0  0  0  0  0  0  0
   24.8023  -23.9455  -17.4484 C   0  0  0  0  0  0  0  0  0  0  0  0
   26.1147  -23.2778  -17.4523 C   0  0  0  0  0  0  0  0  0  0  0  0
   27.2394  -23.6782  -16.7237 C   0  0  0  0  0  0  0  0  0  0  0  0
   28.2536  -22.8539  -16.9586 N   0  0  0  0  0  0  0  0  0  0  0  0
   27.8333  -21.9152  -17.8247 C   0  0  0  0  0  0  0  0  0  0  0  0
   26.5487  -22.1785  -18.1147 N   0  0  0  0  0  0  0  0  0  0  0  0
   23.2922  -25.4383  -16.2687 C   0  0  0  0  0  0  0  0  0  0  0  0
   22.6828  -26.2364  -17.0151 O   0  0  0  0  0  0  0  0  0  0  0  0
   22.5674  -24.8490  -15.1992 N   0  0  0  0  0  0  0  0  0  0  0  0
   21.1712  -25.2242  -14.9294 C   0  0  0  0  0  0  0  0  0  0  0  0
   20.6860  -24.5844  -13.7033 C   0  0  0  0  0  0  0  0  0  0  0  0
   19.3708  -24.7867  -13.3218 O   0  0  0  0  0  0  0  0  0  0  0  0
   21.4222  -23.8615  -12.9909 O   0  0  0  0  0  0  0  0  0  0  0  0
  2  1  1  1
  2 10  1  0
  3  2  1  0
  4  9  1  0
  4  3  1  0
  5  4  2  0
  6  7  2  0
  6  5  1  0
  7  8  1  0
  8  9  2  0
 10 11  2  0
 10 12  1  0
 12 13  1  0
 13 14  1  6
 14 15  1  0
 15 16  2  0
 15 19  1  0
 16 17  1  0
 17 18  1  0
 19 18  2  0
 20 21  2  0
 20 13  1  0
 22 20  1  0
 23 22  1  0
 23 24  1  0
 24 25  1  0
 26 24  2  0
M  END
$$$$
