FHG.pdb
     RDKit          3D

 26 27  0  0  1  0  0  0  0  0999 V2000
   20.5302  -16.1429  -20.5444 N   0  0  0  0  0  0  0  0  0  0  0  0
   20.5311  -16.2071  -19.1221 C   0  0  1  0  0  0  0  0  0  0  0  0
   19.2052  -15.9450  -18.4844 C   0  0  0  0  0  0  0  0  0  0  0  0
   18.6402  -14.6308  -18.7225 C   0  0  0  0  0  0  0  0  0  0  0  0
   17.6316  -14.3767  -19.6423 C   0  0  0  0  0  0  0  0  0  0  0  0
   17.1398  -13.1029  -19.8189 C   0  0  0  0  0  0  0  0  0  0  0  0
   17.6484  -12.0585  -19.0777 C   0  0  0  0  0  0  0  0  0  0  0  0
   18.6510  -12.2876  -18.1577 C   0  0  0  0  0  0  0  0  0  0  0  0
   19.1449  -13.5651  -17.9800 C   0  0  0  0  0  0  0  0  0  0  0  0
   20.9716  -17.5588  -18.7067 C   0  0  0  0  0  0  0  0  0  0  0  0
   20.6543  -18.5405  -19.4152 O   0  0  0  0  0  0  0  0  0  0  0  0
   21.7382  -17.7913  -17.5398 N   0  0  0  0  0  0  0  0  0  0  0  0
   22.2388  -19.1253  -17.2877 C   0  0  1  0  0  0  0  0  0  0  0  0
   23.6038  -19.0401  -16.6408 C   0  0  0  0  0  0  0  0  0  0  0  0
   24.2458  -20.3492  -16.4355 C   0  0  0  0  0  0  0  0  0  0  0  0
   23.6434  -21.5963  -16.6305 C   0  0  0  0  0  0  0  0  0  0  0  0
   24.5049  -22.5683  -16.3541 N   0  0  0  0  0  0  0  0  0  0  0  0
   25.6651  -22.0007  -15.9803 C   0  0  0  0  0  0  0  0  0  0  0  0
   25.4991  -20.6690  -16.0324 N   0  0  0  0  0  0  0  0  0  0  0  0
   21.3388  -19.8748  -16.3691 C   0  0  0  0  0  0  0  0  0  0  0  0
   20.9288  -19.3309  -15.3196 O   0  0  0  0  0  0  0  0  0  0  0  0
   20.9155  -21.2041  -16.6335 N   0  0  0  0  0  0  0  0  0  0  0  0
   19.9342  -21.8758  -15.7680 C   0  0  0  0  0  0  0  0  0  0  0  0
   20.6058  -22.6759  -14.7400 C   0  0  0  0  0  0  0  0  0  0  0  0
   19.8372  -23.4680  -13.9046 O   0  0  0  0  0  0  0  0  0  0  0  0
   21.8510  -22.6657  -14.5934 O   0  0  0  0  0  0  0  0  0  0  0  0
  2  1  1  6
  2 10  1  0
  3  2  1  0
  4  9  1  0
  4  3  1  0
  5  4  2  0
  6  7  2  0
  6  5  1  0
  7  8  1  0
  8  9  2  0
 10 11  2  0
 10 12  1  0
 12 13  1  0
 13 14  1  1
 14 15  1  0
 15 16  2  0
 15 19  1  0
 16 17  1  0
 17 18  1  0
 19 18  2  0
 20 21  2  0
 20 13  1  0
 22 20  1  0
 23 22  1  0
 23 24  1  0
 24 25  1  0
 26 24  2  0
M  END
$$$$
