FHG.pdb
     RDKit          3D

 26 27  0  0  1  0  0  0  0  0999 V2000
   17.8215  -11.5497  -18.2705 N   0  0  0  0  0  0  0  0  0  0  0  0
   18.3196  -11.1888  -16.9865 C   0  0  1  0  0  0  0  0  0  0  0  0
   19.4937  -11.9897  -16.5244 C   0  0  0  0  0  0  0  0  0  0  0  0
   19.2461  -13.4016  -16.3044 C   0  0  0  0  0  0  0  0  0  0  0  0
   18.4954  -13.9005  -15.2483 C   0  0  0  0  0  0  0  0  0  0  0  0
   18.2990  -15.2549  -15.0979 C   0  0  0  0  0  0  0  0  0  0  0  0
   18.8506  -16.1362  -16.0023 C   0  0  0  0  0  0  0  0  0  0  0  0
   19.6004  -15.6630  -17.0596 C   0  0  0  0  0  0  0  0  0  0  0  0
   19.7978  -14.3045  -17.2111 C   0  0  0  0  0  0  0  0  0  0  0  0
   18.7289   -9.7657  -17.0173 C   0  0  0  0  0  0  0  0  0  0  0  0
   19.1098   -9.2712  -18.1021 O   0  0  0  0  0  0  0  0  0  0  0  0
   18.7086   -8.9364  -15.8704 N   0  0  0  0  0  0  0  0  0  0  0  0
   18.9503   -7.5187  -16.0298 C   0  0  1  0  0  0  0  0  0  0  0  0
   17.6877   -6.7503  -15.7070 C   0  0  0  0  0  0  0  0  0  0  0  0
   16.5584   -7.0633  -16.5986 C   0  0  0  0  0  0  0  0  0  0  0  0
   16.2687   -6.4243  -17.8085 C   0  0  0  0  0  0  0  0  0  0  0  0
   15.1811   -6.9537  -18.3562 N   0  0  0  0  0  0  0  0  0  0  0  0
   14.7392   -7.9286  -17.5424 C   0  0  0  0  0  0  0  0  0  0  0  0
   15.5726   -7.9863  -16.4907 N   0  0  0  0  0  0  0  0  0  0  0  0
   20.0241   -7.0480  -15.1127 C   0  0  0  0  0  0  0  0  0  0  0  0
   19.9738   -7.3367  -13.8964 O   0  0  0  0  0  0  0  0  0  0  0  0
   21.1244   -6.2713  -15.5627 N   0  0  0  0  0  0  0  0  0  0  0  0
   22.2678   -5.9907  -14.6812 C   0  0  0  0  0  0  0  0  0  0  0  0
   21.9470   -4.9187  -13.7348 C   0  0  0  0  0  0  0  0  0  0  0  0
   20.6828   -4.3557  -13.7694 O   0  0  0  0  0  0  0  0  0  0  0  0
   22.7788   -4.4962  -12.8971 O   0  0  0  0  0  0  0  0  0  0  0  0
  2  1  1  6
  2 10  1  0
  3  2  1  0
  4  9  1  0
  4  3  1  0
  5  4  2  0
  6  7  2  0
  6  5  1  0
  7  8  1  0
  8  9  2  0
 10 11  2  0
 10 12  1  0
 12 13  1  0
 13 14  1  1
 14 15  1  0
 15 16  2  0
 15 19  1  0
 16 17  1  0
 17 18  1  0
 19 18  2  0
 20 21  2  0
 20 13  1  0
 22 20  1  0
 23 22  1  0
 23 24  1  0
 24 25  1  0
 26 24  2  0
M  END
$$$$
