FHG.pdb
     RDKit          3D

 26 27  0  0  1  0  0  0  0  0999 V2000
   27.4770  -21.3486  -10.8859 N   0  0  0  0  0  0  0  0  0  0  0  0
   26.0848  -21.0970  -10.7253 C   0  0  1  0  0  0  0  0  0  0  0  0
   25.7589  -19.8912   -9.9047 C   0  0  0  0  0  0  0  0  0  0  0  0
   26.2958  -19.8817   -8.5576 C   0  0  0  0  0  0  0  0  0  0  0  0
   25.9193  -20.7797   -7.5678 C   0  0  0  0  0  0  0  0  0  0  0  0
   26.4694  -20.7148   -6.3074 C   0  0  0  0  0  0  0  0  0  0  0  0
   27.4076  -19.7491   -6.0135 C   0  0  0  0  0  0  0  0  0  0  0  0
   27.7969  -18.8462   -6.9816 C   0  0  0  0  0  0  0  0  0  0  0  0
   27.2454  -18.9107   -8.2461 C   0  0  0  0  0  0  0  0  0  0  0  0
   25.4774  -20.9094  -12.0630 C   0  0  0  0  0  0  0  0  0  0  0  0
   26.1465  -20.3405  -12.9546 O   0  0  0  0  0  0  0  0  0  0  0  0
   24.1688  -21.3463  -12.3797 N   0  0  0  0  0  0  0  0  0  0  0  0
   23.7034  -21.2246  -13.7443 C   0  0  1  0  0  0  0  0  0  0  0  0
   23.0507  -22.5201  -14.1741 C   0  0  0  0  0  0  0  0  0  0  0  0
   24.0039  -23.5329  -14.6574 C   0  0  0  0  0  0  0  0  0  0  0  0
   25.3889  -23.3694  -14.7634 C   0  0  0  0  0  0  0  0  0  0  0  0
   25.9455  -24.4791  -15.2346 N   0  0  0  0  0  0  0  0  0  0  0  0
   24.9671  -25.3771  -15.4451 C   0  0  0  0  0  0  0  0  0  0  0  0
   23.8060  -24.7995  -15.0957 N   0  0  0  0  0  0  0  0  0  0  0  0
   22.6977  -20.1352  -13.8763 C   0  0  0  0  0  0  0  0  0  0  0  0
   22.2545  -19.8317  -15.0063 O   0  0  0  0  0  0  0  0  0  0  0  0
   22.2083  -19.4101  -12.7578 N   0  0  0  0  0  0  0  0  0  0  0  0
   21.1910  -18.3601  -12.9186 C   0  0  0  0  0  0  0  0  0  0  0  0
   19.9047  -18.9362  -13.3201 C   0  0  0  0  0  0  0  0  0  0  0  0
   19.2752  -19.8226  -12.4632 O   0  0  0  0  0  0  0  0  0  0  0  0
   19.3576  -18.6527  -14.4121 O   0  0  0  0  0  0  0  0  0  0  0  0
  2  1  1  6
  2 10  1  0
  3  2  1  0
  4  9  1  0
  4  3  1  0
  5  4  2  0
  6  7  2  0
  6  5  1  0
  7  8  1  0
  8  9  2  0
 10 11  2  0
 10 12  1  0
 12 13  1  0
 13 14  1  1
 14 15  1  0
 15 16  2  0
 15 19  1  0
 16 17  1  0
 17 18  1  0
 19 18  2  0
 20 21  2  0
 20 13  1  0
 22 20  1  0
 23 22  1  0
 23 24  1  0
 24 25  1  0
 26 24  2  0
M  END
$$$$
