FHG.pdb
     RDKit          3D

 26 27  0  0  1  0  0  0  0  0999 V2000
   28.1963  -20.8956   -9.2036 N   0  0  0  0  0  0  0  0  0  0  0  0
   26.8368  -20.6607   -8.8519 C   0  0  1  0  0  0  0  0  0  0  0  0
   26.6279  -19.5505   -7.8734 C   0  0  0  0  0  0  0  0  0  0  0  0
   27.3599  -19.6632   -6.6266 C   0  0  0  0  0  0  0  0  0  0  0  0
   27.0823  -20.6091   -5.6487 C   0  0  0  0  0  0  0  0  0  0  0  0
   27.8177  -20.6611   -4.4860 C   0  0  0  0  0  0  0  0  0  0  0  0
   28.8457  -19.7668   -4.2797 C   0  0  0  0  0  0  0  0  0  0  0  0
   29.1394  -18.8182   -5.2378 C   0  0  0  0  0  0  0  0  0  0  0  0
   28.4021  -18.7654   -6.4045 C   0  0  0  0  0  0  0  0  0  0  0  0
   26.0779  -20.3282  -10.0795 C   0  0  0  0  0  0  0  0  0  0  0  0
   26.4709  -19.3775  -10.7924 O   0  0  0  0  0  0  0  0  0  0  0  0
   24.9235  -21.0401  -10.4845 N   0  0  0  0  0  0  0  0  0  0  0  0
   24.2194  -20.6100  -11.6732 C   0  0  1  0  0  0  0  0  0  0  0  0
   24.5167  -21.5626  -12.8103 C   0  0  0  0  0  0  0  0  0  0  0  0
   25.7936  -21.2926  -13.4920 C   0  0  0  0  0  0  0  0  0  0  0  0
   26.9846  -22.0033  -13.3115 C   0  0  0  0  0  0  0  0  0  0  0  0
   27.9408  -21.4961  -14.0807 N   0  0  0  0  0  0  0  0  0  0  0  0
   27.4174  -20.4661  -14.7686 C   0  0  0  0  0  0  0  0  0  0  0  0
   26.1286  -20.3524  -14.4081 N   0  0  0  0  0  0  0  0  0  0  0  0
   22.7473  -20.5983  -11.4539 C   0  0  0  0  0  0  0  0  0  0  0  0
   22.2579  -21.2216  -10.4857 O   0  0  0  0  0  0  0  0  0  0  0  0
   21.8548  -19.8992  -12.3089 N   0  0  0  0  0  0  0  0  0  0  0  0
   20.4113  -19.8575  -12.0306 C   0  0  0  0  0  0  0  0  0  0  0  0
   19.7536  -21.0808  -12.4984 C   0  0  0  0  0  0  0  0  0  0  0  0
   19.7871  -21.3803  -13.8494 O   0  0  0  0  0  0  0  0  0  0  0  0
   19.1632  -21.8627  -11.7159 O   0  0  0  0  0  0  0  0  0  0  0  0
  2  1  1  6
  2 10  1  0
  3  2  1  0
  4  9  1  0
  4  3  1  0
  5  4  2  0
  6  7  2  0
  6  5  1  0
  7  8  1  0
  8  9  2  0
 10 11  2  0
 10 12  1  0
 12 13  1  0
 13 14  1  6
 14 15  1  0
 15 16  2  0
 15 19  1  0
 16 17  1  0
 17 18  1  0
 19 18  2  0
 20 21  2  0
 20 13  1  0
 22 20  1  0
 23 22  1  0
 23 24  1  0
 24 25  1  0
 26 24  2  0
M  END
$$$$
