FHG.pdb
     RDKit          3D

 26 27  0  0  1  0  0  0  0  0999 V2000
   28.5533  -20.7398   -9.4063 N   0  0  0  0  0  0  0  0  0  0  0  0
   27.1867  -20.8360   -9.0187 C   0  0  1  0  0  0  0  0  0  0  0  0
   26.7954  -19.9453   -7.8842 C   0  0  0  0  0  0  0  0  0  0  0  0
   27.6427  -20.0123   -6.7092 C   0  0  0  0  0  0  0  0  0  0  0  0
   28.2372  -21.1796   -6.2490 C   0  0  0  0  0  0  0  0  0  0  0  0
   29.0317  -21.1730   -5.1246 C   0  0  0  0  0  0  0  0  0  0  0  0
   29.2464  -19.9971   -4.4390 C   0  0  0  0  0  0  0  0  0  0  0  0
   28.6657  -18.8249   -4.8781 C   0  0  0  0  0  0  0  0  0  0  0  0
   27.8686  -18.8308   -6.0059 C   0  0  0  0  0  0  0  0  0  0  0  0
   26.3367  -20.4863  -10.1801 C   0  0  0  0  0  0  0  0  0  0  0  0
   26.5565  -19.4140  -10.7871 O   0  0  0  0  0  0  0  0  0  0  0  0
   25.2825  -21.3135  -10.6363 N   0  0  0  0  0  0  0  0  0  0  0  0
   24.5205  -20.8983  -11.7941 C   0  0  1  0  0  0  0  0  0  0  0  0
   24.6580  -21.9337  -12.8887 C   0  0  0  0  0  0  0  0  0  0  0  0
   25.9223  -21.8411  -13.6376 C   0  0  0  0  0  0  0  0  0  0  0  0
   26.8880  -20.8396  -13.4936 C   0  0  0  0  0  0  0  0  0  0  0  0
   27.9024  -21.0604  -14.3215 N   0  0  0  0  0  0  0  0  0  0  0  0
   27.6373  -22.1827  -15.0129 C   0  0  0  0  0  0  0  0  0  0  0  0
   26.4469  -22.6434  -14.5950 N   0  0  0  0  0  0  0  0  0  0  0  0
   23.0748  -20.7610  -11.4677 C   0  0  0  0  0  0  0  0  0  0  0  0
   22.5899  -21.4033  -10.5098 O   0  0  0  0  0  0  0  0  0  0  0  0
   22.2032  -19.9185  -12.2072 N   0  0  0  0  0  0  0  0  0  0  0  0
   20.7997  -19.7374  -11.8064 C   0  0  0  0  0  0  0  0  0  0  0  0
   19.9560  -20.7977  -12.3649 C   0  0  0  0  0  0  0  0  0  0  0  0
   20.5441  -21.7703  -13.1550 O   0  0  0  0  0  0  0  0  0  0  0  0
   18.7218  -20.8517  -12.1505 O   0  0  0  0  0  0  0  0  0  0  0  0
  2  1  1  6
  2 10  1  0
  3  2  1  0
  4  9  1  0
  4  3  1  0
  5  4  2  0
  6  7  2  0
  6  5  1  0
  7  8  1  0
  8  9  2  0
 10 11  2  0
 10 12  1  0
 12 13  1  0
 13 14  1  6
 14 15  1  0
 15 16  2  0
 15 19  1  0
 16 17  1  0
 17 18  1  0
 19 18  2  0
 20 21  2  0
 20 13  1  0
 22 20  1  0
 23 22  1  0
 23 24  1  0
 24 25  1  0
 26 24  2  0
M  END
$$$$
