FHG.pdb
     RDKit          3D

 26 27  0  0  1  0  0  0  0  0999 V2000
   27.6252  -20.6463  -11.1770 N   0  0  0  0  0  0  0  0  0  0  0  0
   26.3513  -21.1717  -10.8191 C   0  0  1  0  0  0  0  0  0  0  0  0
   26.0245  -21.0797   -9.3636 C   0  0  0  0  0  0  0  0  0  0  0  0
   27.1089  -20.6539   -8.5000 C   0  0  0  0  0  0  0  0  0  0  0  0
   26.9508  -19.7806   -7.4321 C   0  0  0  0  0  0  0  0  0  0  0  0
   28.0245  -19.4170   -6.6509 C   0  0  0  0  0  0  0  0  0  0  0  0
   29.2778  -19.9207   -6.9238 C   0  0  0  0  0  0  0  0  0  0  0  0
   29.4585  -20.7901   -7.9801 C   0  0  0  0  0  0  0  0  0  0  0  0
   28.3818  -21.1553   -8.7642 C   0  0  0  0  0  0  0  0  0  0  0  0
   25.3053  -20.4330  -11.5633 C   0  0  0  0  0  0  0  0  0  0  0  0
   24.9660  -19.2979  -11.1597 O   0  0  0  0  0  0  0  0  0  0  0  0
   24.6696  -20.9550  -12.7153 N   0  0  0  0  0  0  0  0  0  0  0  0
   23.6804  -20.1459  -13.3938 C   0  0  1  0  0  0  0  0  0  0  0  0
   24.3610  -18.9776  -14.0727 C   0  0  0  0  0  0  0  0  0  0  0  0
   25.7805  -19.2164  -14.3827 C   0  0  0  0  0  0  0  0  0  0  0  0
   26.4861  -20.3977  -14.1319 C   0  0  0  0  0  0  0  0  0  0  0  0
   27.7450  -20.2726  -14.5352 N   0  0  0  0  0  0  0  0  0  0  0  0
   27.8960  -19.0388  -15.0479 C   0  0  0  0  0  0  0  0  0  0  0  0
   26.7114  -18.4131  -14.9516 N   0  0  0  0  0  0  0  0  0  0  0  0
   22.9634  -20.9310  -14.4354 C   0  0  0  0  0  0  0  0  0  0  0  0
   22.9162  -20.5065  -15.6114 O   0  0  0  0  0  0  0  0  0  0  0  0
   22.3177  -22.1633  -14.1512 N   0  0  0  0  0  0  0  0  0  0  0  0
   20.9728  -22.1975  -13.5567 C   0  0  0  0  0  0  0  0  0  0  0  0
   20.0349  -21.3883  -14.3400 C   0  0  0  0  0  0  0  0  0  0  0  0
   19.4352  -21.9534  -15.4522 O   0  0  0  0  0  0  0  0  0  0  0  0
   19.7590  -20.2037  -14.0355 O   0  0  0  0  0  0  0  0  0  0  0  0
  2  1  1  1
  2 10  1  0
  3  2  1  0
  4  9  1  0
  4  3  1  0
  5  4  2  0
  6  7  2  0
  6  5  1  0
  7  8  1  0
  8  9  2  0
 10 11  2  0
 10 12  1  0
 12 13  1  0
 13 14  1  6
 14 15  1  0
 15 16  2  0
 15 19  1  0
 16 17  1  0
 17 18  1  0
 19 18  2  0
 20 21  2  0
 20 13  1  0
 22 20  1  0
 23 22  1  0
 23 24  1  0
 24 25  1  0
 26 24  2  0
M  END
$$$$
