FHG.pdb
     RDKit          3D

 26 27  0  0  1  0  0  0  0  0999 V2000
   21.3233  -11.3871  -17.6883 N   0  0  0  0  0  0  0  0  0  0  0  0
   21.3872  -11.9725  -16.3920 C   0  0  1  0  0  0  0  0  0  0  0  0
   20.3799  -11.4486  -15.4201 C   0  0  0  0  0  0  0  0  0  0  0  0
   20.5612  -10.0708  -15.0057 C   0  0  0  0  0  0  0  0  0  0  0  0
   21.4687   -9.6671  -14.0355 C   0  0  0  0  0  0  0  0  0  0  0  0
   21.5903   -8.3402  -13.6891 C   0  0  0  0  0  0  0  0  0  0  0  0
   20.8053   -7.3914  -14.3076 C   0  0  0  0  0  0  0  0  0  0  0  0
   19.8966   -7.7695  -15.2747 C   0  0  0  0  0  0  0  0  0  0  0  0
   19.7741   -9.1005  -15.6227 C   0  0  0  0  0  0  0  0  0  0  0  0
   21.1749  -13.4328  -16.5179 C   0  0  0  0  0  0  0  0  0  0  0  0
   20.4779  -13.8613  -17.4650 O   0  0  0  0  0  0  0  0  0  0  0  0
   21.7269  -14.3695  -15.6115 N   0  0  0  0  0  0  0  0  0  0  0  0
   21.4969  -15.7798  -15.8389 C   0  0  1  0  0  0  0  0  0  0  0  0
   22.6515  -16.5786  -15.2751 C   0  0  0  0  0  0  0  0  0  0  0  0
   22.5720  -18.0204  -15.5628 C   0  0  0  0  0  0  0  0  0  0  0  0
   21.5653  -18.6545  -16.2981 C   0  0  0  0  0  0  0  0  0  0  0  0
   21.8014  -19.9595  -16.3655 N   0  0  0  0  0  0  0  0  0  0  0  0
   22.9390  -20.2107  -15.6941 C   0  0  0  0  0  0  0  0  0  0  0  0
   23.3934  -19.0406  -15.2164 N   0  0  0  0  0  0  0  0  0  0  0  0
   20.2487  -16.2377  -15.1696 C   0  0  0  0  0  0  0  0  0  0  0  0
   19.9699  -15.8226  -14.0227 O   0  0  0  0  0  0  0  0  0  0  0  0
   19.3419  -17.1414  -15.7839 N   0  0  0  0  0  0  0  0  0  0  0  0
   18.0671  -17.4939  -15.1407 C   0  0  0  0  0  0  0  0  0  0  0  0
   18.2160  -18.6898  -14.3066 C   0  0  0  0  0  0  0  0  0  0  0  0
   17.1105  -19.1683  -13.6247 O   0  0  0  0  0  0  0  0  0  0  0  0
   19.3099  -19.2916  -14.1913 O   0  0  0  0  0  0  0  0  0  0  0  0
  2  1  1  6
  2 10  1  0
  3  2  1  0
  4  9  1  0
  4  3  1  0
  5  4  2  0
  6  7  2  0
  6  5  1  0
  7  8  1  0
  8  9  2  0
 10 11  2  0
 10 12  1  0
 12 13  1  0
 13 14  1  1
 14 15  1  0
 15 16  2  0
 15 19  1  0
 16 17  1  0
 17 18  1  0
 19 18  2  0
 20 21  2  0
 20 13  1  0
 22 20  1  0
 23 22  1  0
 23 24  1  0
 24 25  1  0
 26 24  2  0
M  END
$$$$
