FHG.pdb
     RDKit          3D

 26 27  0  0  1  0  0  0  0  0999 V2000
   21.3293  -28.5728  -11.6248 N   0  0  0  0  0  0  0  0  0  0  0  0
   20.6637  -28.8772  -10.4035 C   0  0  1  0  0  0  0  0  0  0  0  0
   21.5563  -29.3751   -9.3132 C   0  0  0  0  0  0  0  0  0  0  0  0
   22.1875  -30.6586   -9.5524 C   0  0  0  0  0  0  0  0  0  0  0  0
   21.4887  -31.8488   -9.7039 C   0  0  0  0  0  0  0  0  0  0  0  0
   22.1513  -33.0344   -9.9292 C   0  0  0  0  0  0  0  0  0  0  0  0
   23.5270  -33.0513  -10.0072 C   0  0  0  0  0  0  0  0  0  0  0  0
   24.2423  -31.8806   -9.8596 C   0  0  0  0  0  0  0  0  0  0  0  0
   23.5782  -30.6909   -9.6336 C   0  0  0  0  0  0  0  0  0  0  0  0
   19.9898  -27.6538   -9.9108 C   0  0  0  0  0  0  0  0  0  0  0  0
   20.5128  -26.5412  -10.1456 O   0  0  0  0  0  0  0  0  0  0  0  0
   18.7761  -27.6863   -9.1832 N   0  0  0  0  0  0  0  0  0  0  0  0
   18.1524  -26.4352   -8.8098 C   0  0  1  0  0  0  0  0  0  0  0  0
   16.9859  -26.1559   -9.7319 C   0  0  0  0  0  0  0  0  0  0  0  0
   17.3811  -25.5998  -11.0368 C   0  0  0  0  0  0  0  0  0  0  0  0
   17.8066  -24.2886  -11.2732 C   0  0  0  0  0  0  0  0  0  0  0  0
   18.0844  -24.1234  -12.5611 N   0  0  0  0  0  0  0  0  0  0  0  0
   17.8549  -25.2904  -13.1883 C   0  0  0  0  0  0  0  0  0  0  0  0
   17.4333  -26.1697  -12.2648 N   0  0  0  0  0  0  0  0  0  0  0  0
   17.6360  -26.4849   -7.4146 C   0  0  0  0  0  0  0  0  0  0  0  0
   16.8299  -27.3819   -7.0816 O   0  0  0  0  0  0  0  0  0  0  0  0
   18.0233  -25.5435   -6.4247 N   0  0  0  0  0  0  0  0  0  0  0  0
   17.5213  -25.6406   -5.0456 C   0  0  0  0  0  0  0  0  0  0  0  0
   18.3049  -26.6074   -4.2715 C   0  0  0  0  0  0  0  0  0  0  0  0
   19.5399  -26.2221   -3.7792 O   0  0  0  0  0  0  0  0  0  0  0  0
   17.8934  -27.7692   -4.0414 O   0  0  0  0  0  0  0  0  0  0  0  0
  2  1  1  6
  2 10  1  0
  3  2  1  0
  4  9  1  0
  4  3  1  0
  5  4  2  0
  6  7  2  0
  6  5  1  0
  7  8  1  0
  8  9  2  0
 10 11  2  0
 10 12  1  0
 12 13  1  0
 13 14  1  6
 14 15  1  0
 15 16  2  0
 15 19  1  0
 16 17  1  0
 17 18  1  0
 19 18  2  0
 20 21  2  0
 20 13  1  0
 22 20  1  0
 23 22  1  0
 23 24  1  0
 24 25  1  0
 26 24  2  0
M  END
$$$$
