KGR.pdb
     RDKit          3D

 25 24  0  0  1  0  0  0  0  0999 V2000
    2.9741  -21.0280   20.4196 N   0  0  0  0  0  0  0  0  0  0  0  0
    2.0641  -20.0702   20.9587 C   0  0  1  0  0  0  0  0  0  0  0  0
    1.3680  -20.5402   22.1826 C   0  0  0  0  0  0  0  0  0  0  0  0
    0.0365  -21.1752   22.0014 C   0  0  0  0  0  0  0  0  0  0  0  0
   -1.1049  -20.5130   22.7206 C   0  0  0  0  0  0  0  0  0  0  0  0
   -2.3076  -21.4534   22.5375 C   0  0  0  0  0  0  0  0  0  0  0  0
   -3.4689  -20.9266   23.2148 N   0  0  0  0  0  0  0  0  0  0  0  0
    2.8345  -18.8117   21.1946 C   0  0  0  0  0  0  0  0  0  0  0  0
    2.2894  -17.7565   21.6235 O   0  0  0  0  0  0  0  0  0  0  0  0
    4.2252  -18.7562   20.9422 N   0  0  0  0  0  0  0  0  0  0  0  0
    4.9853  -17.5728   21.2053 C   0  0  0  0  0  0  0  0  0  0  0  0
    6.1443  -17.8731   22.1024 C   0  0  0  0  0  0  0  0  0  0  0  0
    6.8541  -18.9105   21.9374 O   0  0  0  0  0  0  0  0  0  0  0  0
    8.9376  -13.5530   29.1313 N   0  0  0  0  0  0  0  0  0  0  0  0
   10.0986  -14.3594   28.8115 C   0  0  0  0  0  0  0  0  0  0  0  0
   11.0096  -14.4795   29.7138 N   0  0  0  0  0  0  0  0  0  0  0  0
   10.1913  -14.9707   27.5525 N   0  0  0  0  0  0  0  0  0  0  0  0
    9.1747  -14.6753   26.5121 C   0  0  0  0  0  0  0  0  0  0  0  0
    8.9754  -15.9084   25.7263 C   0  0  0  0  0  0  0  0  0  0  0  0
    7.9740  -16.0515   24.6928 C   0  0  0  0  0  0  0  0  0  0  0  0
    7.7890  -17.3277   23.9405 C   0  0  2  0  0  0  0  0  0  0  0  0
    6.5069  -17.0271   23.1698 N   0  0  0  0  0  0  0  0  0  0  0  0
    7.4429  -18.4376   24.8454 C   0  0  0  0  0  0  0  0  0  0  0  0
    8.2938  -19.2953   25.4520 O   0  0  0  0  0  0  0  0  0  0  0  0
    6.1979  -18.6264   25.0886 O   0  0  0  0  0  0  0  0  0  0  0  0
  2  1  1  1
  3  2  1  0
  4  3  1  0
  5  4  1  0
  5  6  1  0
  6  7  1  0
  8  9  2  0
  8  2  1  0
 10  8  1  0
 11 10  1  0
 12 11  1  0
 12 22  1  0
 13 12  2  0
 15 14  1  0
 16 15  2  0
 17 15  1  0
 18 17  1  0
 19 18  1  0
 21 20  1  1
 20 19  1  0
 21 22  1  0
 23 21  1  0
 24 23  1  0
 25 23  2  0
M  END
$$$$
