KGR.pdb
     RDKit          3D

 25 24  0  0  1  0  0  0  0  0999 V2000
    8.8163  -22.0878   18.7054 N   0  0  0  0  0  0  0  0  0  0  0  0
    7.5945  -21.3511   18.7279 C   0  0  1  0  0  0  0  0  0  0  0  0
    6.3855  -22.2097   18.6615 C   0  0  0  0  0  0  0  0  0  0  0  0
    6.2232  -23.0563   17.4508 C   0  0  0  0  0  0  0  0  0  0  0  0
    6.3452  -22.3417   16.1344 C   0  0  0  0  0  0  0  0  0  0  0  0
    6.2060  -23.4325   15.0596 C   0  0  0  0  0  0  0  0  0  0  0  0
    6.5188  -22.8992   13.7548 N   0  0  0  0  0  0  0  0  0  0  0  0
    7.6150  -20.4976   19.9543 C   0  0  0  0  0  0  0  0  0  0  0  0
    6.6832  -19.6920   20.2321 O   0  0  0  0  0  0  0  0  0  0  0  0
    8.6967  -20.5626   20.8636 N   0  0  0  0  0  0  0  0  0  0  0  0
    8.6857  -19.8273   22.0910 C   0  0  0  0  0  0  0  0  0  0  0  0
    9.6517  -18.6861   22.0365 C   0  0  0  0  0  0  0  0  0  0  0  0
   10.4914  -18.5778   21.0929 O   0  0  0  0  0  0  0  0  0  0  0  0
    7.5756  -12.9403   17.6820 N   0  0  0  0  0  0  0  0  0  0  0  0
    7.9742  -12.9234   19.0753 C   0  0  0  0  0  0  0  0  0  0  0  0
    8.7915  -12.0021   19.4518 N   0  0  0  0  0  0  0  0  0  0  0  0
    7.4672  -13.8936   19.9521 N   0  0  0  0  0  0  0  0  0  0  0  0
    7.9208  -13.9204   21.3652 C   0  0  0  0  0  0  0  0  0  0  0  0
    8.9533  -14.9688   21.4781 C   0  0  0  0  0  0  0  0  0  0  0  0
    9.5584  -15.3715   22.7282 C   0  0  0  0  0  0  0  0  0  0  0  0
   10.5750  -16.4625   22.8009 C   0  0  2  0  0  0  0  0  0  0  0  0
    9.6805  -17.6787   23.0218 N   0  0  0  0  0  0  0  0  0  0  0  0
   11.3887  -16.3559   24.0244 C   0  0  0  0  0  0  0  0  0  0  0  0
   12.6067  -15.7831   24.1505 O   0  0  0  0  0  0  0  0  0  0  0  0
   10.9014  -16.8648   25.0960 O   0  0  0  0  0  0  0  0  0  0  0  0
  2  1  1  1
  3  2  1  0
  4  3  1  0
  5  4  1  0
  5  6  1  0
  6  7  1  0
  8  9  2  0
  8  2  1  0
 10  8  1  0
 11 10  1  0
 12 11  1  0
 12 22  1  0
 13 12  2  0
 15 14  1  0
 16 15  2  0
 17 15  1  0
 18 17  1  0
 19 18  1  0
 21 20  1  1
 20 19  1  0
 21 22  1  0
 23 21  1  0
 24 23  1  0
 25 23  2  0
M  END
$$$$
