KGR.pdb
     RDKit          3D

 25 24  0  0  1  0  0  0  0  0999 V2000
    9.5298  -16.3756   19.2976 N   0  0  0  0  0  0  0  0  0  0  0  0
    8.5152  -15.4166   19.5924 C   0  0  1  0  0  0  0  0  0  0  0  0
    7.7655  -14.9623   18.3946 C   0  0  0  0  0  0  0  0  0  0  0  0
    8.5656  -14.4696   17.2430 C   0  0  0  0  0  0  0  0  0  0  0  0
    7.7998  -14.2285   15.9726 C   0  0  0  0  0  0  0  0  0  0  0  0
    8.8551  -13.8422   14.9230 C   0  0  0  0  0  0  0  0  0  0  0  0
    8.2244  -13.5387   13.6601 N   0  0  0  0  0  0  0  0  0  0  0  0
    7.6195  -16.0228   20.6235 C   0  0  0  0  0  0  0  0  0  0  0  0
    7.6226  -17.2596   20.8778 O   0  0  0  0  0  0  0  0  0  0  0  0
    6.7211  -15.2197   21.3645 N   0  0  0  0  0  0  0  0  0  0  0  0
    5.8146  -15.7924   22.3118 C   0  0  0  0  0  0  0  0  0  0  0  0
    6.4541  -15.9050   23.6597 C   0  0  0  0  0  0  0  0  0  0  0  0
    5.8075  -16.3339   24.6623 O   0  0  0  0  0  0  0  0  0  0  0  0
   11.7887  -19.8536   21.8533 N   0  0  0  0  0  0  0  0  0  0  0  0
   11.6527  -20.0918   23.2765 C   0  0  0  0  0  0  0  0  0  0  0  0
   11.4442  -21.3027   23.6624 N   0  0  0  0  0  0  0  0  0  0  0  0
   11.7497  -19.0158   24.1708 N   0  0  0  0  0  0  0  0  0  0  0  0
   11.4516  -17.6388   23.7035 C   0  0  0  0  0  0  0  0  0  0  0  0
   10.0950  -17.2968   24.1731 C   0  0  0  0  0  0  0  0  0  0  0  0
    9.7861  -16.1190   24.9533 C   0  0  0  0  0  0  0  0  0  0  0  0
    8.3821  -15.7331   25.2829 C   0  0  2  0  0  0  0  0  0  0  0  0
    7.7976  -15.5439   23.8862 N   0  0  0  0  0  0  0  0  0  0  0  0
    8.3255  -14.4001   25.9076 C   0  0  0  0  0  0  0  0  0  0  0  0
    8.3531  -14.1129   27.2284 O   0  0  0  0  0  0  0  0  0  0  0  0
    8.2336  -13.3904   25.1222 O   0  0  0  0  0  0  0  0  0  0  0  0
  2  1  1  6
  3  2  1  0
  4  3  1  0
  5  4  1  0
  5  6  1  0
  6  7  1  0
  8  9  2  0
  8  2  1  0
 10  8  1  0
 11 10  1  0
 12 11  1  0
 12 22  1  0
 13 12  2  0
 15 14  1  0
 16 15  2  0
 17 15  1  0
 18 17  1  0
 19 18  1  0
 21 20  1  6
 20 19  1  0
 21 22  1  0
 23 21  1  0
 24 23  1  0
 25 23  2  0
M  END
$$$$
