KGR.pdb
     RDKit          3D

 25 24  0  0  1  0  0  0  0  0999 V2000
    9.0867  -17.8359   18.9358 N   0  0  0  0  0  0  0  0  0  0  0  0
    9.8523  -18.8678   18.3151 C   0  0  1  0  0  0  0  0  0  0  0  0
   10.2381  -18.5569   16.9159 C   0  0  0  0  0  0  0  0  0  0  0  0
    9.1398  -18.4444   15.9209 C   0  0  0  0  0  0  0  0  0  0  0  0
    9.5702  -18.3030   14.4880 C   0  0  0  0  0  0  0  0  0  0  0  0
    8.2684  -18.2188   13.6738 C   0  0  0  0  0  0  0  0  0  0  0  0
    8.5596  -18.1395   12.2618 N   0  0  0  0  0  0  0  0  0  0  0  0
   11.0399  -19.1222   19.1857 C   0  0  0  0  0  0  0  0  0  0  0  0
   12.0240  -19.8134   18.8005 O   0  0  0  0  0  0  0  0  0  0  0  0
   11.1059  -18.5888   20.4942 N   0  0  0  0  0  0  0  0  0  0  0  0
   12.2990  -17.9747   20.9910 C   0  0  0  0  0  0  0  0  0  0  0  0
   11.9812  -16.9951   22.0763 C   0  0  0  0  0  0  0  0  0  0  0  0
   12.8838  -16.2736   22.5979 O   0  0  0  0  0  0  0  0  0  0  0  0
    8.6871  -11.9402   19.9798 N   0  0  0  0  0  0  0  0  0  0  0  0
    8.4164  -13.1539   19.2353 C   0  0  0  0  0  0  0  0  0  0  0  0
    8.8605  -13.2264   18.0286 N   0  0  0  0  0  0  0  0  0  0  0  0
    7.6917  -14.1906   19.8414 N   0  0  0  0  0  0  0  0  0  0  0  0
    7.6009  -14.2602   21.3213 C   0  0  0  0  0  0  0  0  0  0  0  0
    8.8917  -14.7737   21.8195 C   0  0  0  0  0  0  0  0  0  0  0  0
    9.1157  -15.2022   23.1824 C   0  0  0  0  0  0  0  0  0  0  0  0
   10.4276  -15.7536   23.6338 C   0  0  2  0  0  0  0  0  0  0  0  0
   10.6737  -16.8225   22.5732 N   0  0  0  0  0  0  0  0  0  0  0  0
   10.2905  -16.4929   24.9008 C   0  0  0  0  0  0  0  0  0  0  0  0
   10.2878  -15.9804   26.1517 O   0  0  0  0  0  0  0  0  0  0  0  0
   10.1652  -17.7669   24.8230 O   0  0  0  0  0  0  0  0  0  0  0  0
  2  1  1  1
  3  2  1  0
  4  3  1  0
  5  4  1  0
  5  6  1  0
  6  7  1  0
  8  9  2  0
  8  2  1  0
 10  8  1  0
 11 10  1  0
 12 11  1  0
 12 22  1  0
 13 12  2  0
 15 14  1  0
 16 15  2  0
 17 15  1  0
 18 17  1  0
 19 18  1  0
 21 20  1  6
 20 19  1  0
 21 22  1  0
 23 21  1  0
 24 23  1  0
 25 23  2  0
M  END
$$$$
