KGR.pdb
     RDKit          3D

 25 24  0  0  1  0  0  0  0  0999 V2000
    7.9871  -15.6942   17.5277 N   0  0  0  0  0  0  0  0  0  0  0  0
    8.8465  -14.5575   17.4535 C   0  0  1  0  0  0  0  0  0  0  0  0
    8.5130  -13.6366   16.3382 C   0  0  0  0  0  0  0  0  0  0  0  0
    8.3185  -14.2435   14.9955 C   0  0  0  0  0  0  0  0  0  0  0  0
    8.9784  -13.5240   13.8530 C   0  0  0  0  0  0  0  0  0  0  0  0
    8.4690  -14.2195   12.5796 C   0  0  0  0  0  0  0  0  0  0  0  0
    9.0046  -13.5757   11.4034 N   0  0  0  0  0  0  0  0  0  0  0  0
    8.7959  -13.8770   18.7829 C   0  0  0  0  0  0  0  0  0  0  0  0
    9.6429  -13.0067   19.1287 O   0  0  0  0  0  0  0  0  0  0  0  0
    7.7803  -14.1879   19.7171 N   0  0  0  0  0  0  0  0  0  0  0  0
    7.6787  -13.4985   20.9668 C   0  0  0  0  0  0  0  0  0  0  0  0
    7.1859  -14.4149   22.0418 C   0  0  0  0  0  0  0  0  0  0  0  0
    6.0374  -14.2679   22.5580 O   0  0  0  0  0  0  0  0  0  0  0  0
    9.7117  -20.9779   26.2695 N   0  0  0  0  0  0  0  0  0  0  0  0
   10.5714  -19.8260   26.4553 C   0  0  0  0  0  0  0  0  0  0  0  0
   10.9280  -19.5343   27.6579 N   0  0  0  0  0  0  0  0  0  0  0  0
   10.9788  -19.0793   25.3401 N   0  0  0  0  0  0  0  0  0  0  0  0
   10.5782  -17.6551   25.2193 C   0  0  0  0  0  0  0  0  0  0  0  0
    9.1137  -17.6217   25.0406 C   0  0  0  0  0  0  0  0  0  0  0  0
    8.4627  -17.3920   23.7699 C   0  0  0  0  0  0  0  0  0  0  0  0
    7.3705  -16.3869   23.6098 C   0  0  2  0  0  0  0  0  0  0  0  0
    7.9643  -15.4816   22.5347 N   0  0  0  0  0  0  0  0  0  0  0  0
    7.2471  -15.5348   24.8053 C   0  0  0  0  0  0  0  0  0  0  0  0
    6.4303  -15.7248   25.8656 O   0  0  0  0  0  0  0  0  0  0  0  0
    7.9876  -14.4889   24.8560 O   0  0  0  0  0  0  0  0  0  0  0  0
  2  1  1  1
  3  2  1  0
  4  3  1  0
  5  4  1  0
  5  6  1  0
  6  7  1  0
  8  9  2  0
  8  2  1  0
 10  8  1  0
 11 10  1  0
 12 11  1  0
 12 22  1  0
 13 12  2  0
 15 14  1  0
 16 15  2  0
 17 15  1  0
 18 17  1  0
 19 18  1  0
 21 20  1  1
 20 19  1  0
 21 22  1  0
 23 21  1  0
 24 23  1  0
 25 23  2  0
M  END
$$$$
