KGR.pdb
     RDKit          3D

 25 24  0  0  1  0  0  0  0  0999 V2000
    8.5581  -12.1552   18.9109 N   0  0  0  0  0  0  0  0  0  0  0  0
    7.6309  -13.2180   19.1279 C   0  0  1  0  0  0  0  0  0  0  0  0
    6.8152  -13.5439   17.9313 C   0  0  0  0  0  0  0  0  0  0  0  0
    7.5345  -13.6708   16.6369 C   0  0  0  0  0  0  0  0  0  0  0  0
    7.9325  -15.0663   16.2464 C   0  0  0  0  0  0  0  0  0  0  0  0
    8.5204  -14.9456   14.8307 C   0  0  0  0  0  0  0  0  0  0  0  0
    9.1172  -16.1955   14.4229 N   0  0  0  0  0  0  0  0  0  0  0  0
    8.4123  -14.3941   19.6167 C   0  0  0  0  0  0  0  0  0  0  0  0
    7.9150  -15.5526   19.6888 O   0  0  0  0  0  0  0  0  0  0  0  0
    9.7597  -14.2500   20.0226 N   0  0  0  0  0  0  0  0  0  0  0  0
   10.5833  -15.3878   20.2952 C   0  0  0  0  0  0  0  0  0  0  0  0
   10.4177  -15.8375   21.7125 C   0  0  0  0  0  0  0  0  0  0  0  0
    9.8941  -15.0831   22.5865 O   0  0  0  0  0  0  0  0  0  0  0  0
   14.0459  -21.2267   25.3457 N   0  0  0  0  0  0  0  0  0  0  0  0
   12.9826  -22.1842   25.5769 C   0  0  0  0  0  0  0  0  0  0  0  0
   13.2626  -23.4334   25.4366 N   0  0  0  0  0  0  0  0  0  0  0  0
   11.7066  -21.7277   25.9380 N   0  0  0  0  0  0  0  0  0  0  0  0
   10.8165  -21.1345   24.9089 C   0  0  0  0  0  0  0  0  0  0  0  0
   11.1432  -19.6983   24.8169 C   0  0  0  0  0  0  0  0  0  0  0  0
   11.0232  -18.9216   23.6030 C   0  0  0  0  0  0  0  0  0  0  0  0
   10.6614  -17.4732   23.6220 C   0  0  2  0  0  0  0  0  0  0  0  0
   10.8308  -17.1123   22.1492 N   0  0  0  0  0  0  0  0  0  0  0  0
   11.6767  -16.6767   24.3327 C   0  0  0  0  0  0  0  0  0  0  0  0
   11.6584  -16.2961   25.6298 O   0  0  0  0  0  0  0  0  0  0  0  0
   12.6944  -16.2892   23.6553 O   0  0  0  0  0  0  0  0  0  0  0  0
  2  1  1  6
  3  2  1  0
  4  3  1  0
  5  4  1  0
  5  6  1  0
  6  7  1  0
  8  9  2  0
  8  2  1  0
 10  8  1  0
 11 10  1  0
 12 11  1  0
 12 22  1  0
 13 12  2  0
 15 14  1  0
 16 15  2  0
 17 15  1  0
 18 17  1  0
 19 18  1  0
 21 20  1  6
 20 19  1  0
 21 22  1  0
 23 21  1  0
 24 23  1  0
 25 23  2  0
M  END
$$$$
