YQI.pdb
     RDKit          3D

 30 30  0  0  1  0  0  0  0  0999 V2000
    8.8557  -13.2982   16.3471 O   0  0  0  0  0  0  0  0  0  0  0  0
    8.3883  -13.6114   17.6288 C   0  0  0  0  0  0  0  0  0  0  0  0
    8.3988  -14.9248   18.0449 C   0  0  0  0  0  0  0  0  0  0  0  0
    7.9343  -15.2285   19.3141 C   0  0  0  0  0  0  0  0  0  0  0  0
    7.4605  -14.2559   20.1771 C   0  0  0  0  0  0  0  0  0  0  0  0
    6.9965  -14.6863   21.5251 C   0  0  0  0  0  0  0  0  0  0  0  0
    7.1784  -16.1684   21.6102 C   0  0  2  0  0  0  0  0  0  0  0  0
    5.9208  -16.8588   21.3350 N   0  0  0  0  0  0  0  0  0  0  0  0
    7.7146  -16.6371   22.9286 C   0  0  0  0  0  0  0  0  0  0  0  0
    7.0174  -16.6873   23.9520 O   0  0  0  0  0  0  0  0  0  0  0  0
    7.4581  -12.9521   19.7444 C   0  0  0  0  0  0  0  0  0  0  0  0
    7.9253  -12.6372   18.4638 C   0  0  0  0  0  0  0  0  0  0  0  0
   13.3163  -19.8304   23.9179 N   0  0  0  0  0  0  0  0  0  0  0  0
   12.8199  -19.4929   25.2020 C   0  0  0  0  0  0  0  0  0  0  0  0
   13.4336  -19.9140   26.2148 O   0  0  0  0  0  0  0  0  0  0  0  0
   11.6100  -18.6734   25.3539 C   0  0  0  0  0  0  0  0  0  0  0  0
   10.9994  -18.2657   24.0218 C   0  0  0  0  0  0  0  0  0  0  0  0
    9.7585  -17.4297   24.2363 C   0  0  2  0  0  0  0  0  0  0  0  0
    9.0871  -17.0462   23.0334 N   0  0  0  0  0  0  0  0  0  0  0  0
    9.9440  -16.3064   25.1723 C   0  0  0  0  0  0  0  0  0  0  0  0
   10.7373  -15.3473   24.9243 O   0  0  0  0  0  0  0  0  0  0  0  0
    7.0730  -12.3598   26.3645 C   0  0  0  0  0  0  0  0  0  0  0  0
    8.1734  -13.3622   26.2415 C   0  0  0  0  0  0  0  0  0  0  0  0
    8.6019  -14.0303   27.5045 C   0  0  2  0  0  0  0  0  0  0  0  0
    9.1625  -13.0031   28.5017 C   0  0  0  0  0  0  0  0  0  0  0  0
    9.5495  -15.1491   27.3668 C   0  0  2  0  0  0  0  0  0  0  0  0
    9.2524  -16.1904   26.4390 N   0  0  0  0  0  0  0  0  0  0  0  0
   10.0424  -15.6617   28.7042 C   0  0  0  0  0  0  0  0  0  0  0  0
    9.7887  -16.8016   29.1099 O   0  0  0  0  0  0  0  0  0  0  0  0
   10.7996  -14.7633   29.4372 O   0  0  0  0  0  0  0  0  0  0  0  0
  1  2  1  0
  2 12  2  0
  3  4  2  0
  3  2  1  0
  4  5  1  0
  5  6  1  0
  5 11  2  0
  7  8  1  1
  7  6  1  0
  9  7  1  0
  9 10  2  0
 12 11  1  0
 13 14  1  0
 14 15  2  0
 16 17  1  0
 16 14  1  0
 18 17  1  6
 18 19  1  0
 18 20  1  0
 19  9  1  0
 20 27  1  0
 21 20  2  0
 22 23  1  0
 23 24  1  0
 24 25  1  1
 24 26  1  0
 26 28  1  0
 26 27  1  1
 28 29  2  0
 28 30  1  0
M  END
$$$$
