YQI.pdb
     RDKit          3D

 30 30  0  0  1  0  0  0  0  0999 V2000
    9.1940  -12.2252   18.3065 O   0  0  0  0  0  0  0  0  0  0  0  0
    8.3865  -12.9821   19.1635 C   0  0  0  0  0  0  0  0  0  0  0  0
    7.6935  -14.0594   18.6558 C   0  0  0  0  0  0  0  0  0  0  0  0
    6.8955  -14.8041   19.5086 C   0  0  0  0  0  0  0  0  0  0  0  0
    6.7720  -14.5013   20.8534 C   0  0  0  0  0  0  0  0  0  0  0  0
    5.8989  -15.3734   21.6867 C   0  0  0  0  0  0  0  0  0  0  0  0
    6.4881  -16.7480   21.6675 C   0  0  2  0  0  0  0  0  0  0  0  0
    5.4464  -17.7527   21.4693 N   0  0  0  0  0  0  0  0  0  0  0  0
    7.2675  -17.0891   22.9010 C   0  0  0  0  0  0  0  0  0  0  0  0
    6.7222  -17.4154   23.9650 O   0  0  0  0  0  0  0  0  0  0  0  0
    7.4707  -13.4237   21.3410 C   0  0  0  0  0  0  0  0  0  0  0  0
    8.2786  -12.6664   20.4861 C   0  0  0  0  0  0  0  0  0  0  0  0
   11.6390  -20.5970   23.9819 N   0  0  0  0  0  0  0  0  0  0  0  0
   12.0337  -19.6723   24.9812 C   0  0  0  0  0  0  0  0  0  0  0  0
   12.6816  -20.0956   25.9714 O   0  0  0  0  0  0  0  0  0  0  0  0
   11.6906  -18.2479   24.8715 C   0  0  0  0  0  0  0  0  0  0  0  0
   10.8876  -17.9264   23.6204 C   0  0  0  0  0  0  0  0  0  0  0  0
    9.5723  -17.2757   23.9822 C   0  0  2  0  0  0  0  0  0  0  0  0
    8.7024  -17.0402   22.8720 N   0  0  0  0  0  0  0  0  0  0  0  0
    9.7036  -16.1035   24.8660 C   0  0  0  0  0  0  0  0  0  0  0  0
    9.4990  -14.9215   24.4516 O   0  0  0  0  0  0  0  0  0  0  0  0
    6.9605  -12.9473   25.9819 C   0  0  0  0  0  0  0  0  0  0  0  0
    8.2492  -13.6995   25.9159 C   0  0  0  0  0  0  0  0  0  0  0  0
    8.7300  -14.2985   27.1946 C   0  0  2  0  0  0  0  0  0  0  0  0
    8.8292  -13.2288   28.2945 C   0  0  0  0  0  0  0  0  0  0  0  0
    9.9908  -15.0565   27.1315 C   0  0  2  0  0  0  0  0  0  0  0  0
   10.0707  -16.1856   26.2642 N   0  0  0  0  0  0  0  0  0  0  0  0
   10.5859  -15.3107   28.5011 C   0  0  0  0  0  0  0  0  0  0  0  0
   10.4199  -16.3753   29.1072 O   0  0  0  0  0  0  0  0  0  0  0  0
   11.3312  -14.2667   29.0230 O   0  0  0  0  0  0  0  0  0  0  0  0
  1  2  1  0
  2 12  2  0
  3  4  2  0
  3  2  1  0
  4  5  1  0
  5  6  1  0
  5 11  2  0
  7  8  1  1
  7  6  1  0
  9  7  1  0
  9 10  2  0
 12 11  1  0
 13 14  1  0
 14 15  2  0
 16 17  1  0
 16 14  1  0
 18 17  1  6
 18 19  1  0
 18 20  1  0
 19  9  1  0
 20 27  1  0
 21 20  2  0
 22 23  1  0
 23 24  1  0
 24 25  1  1
 24 26  1  0
 26 28  1  0
 26 27  1  1
 28 29  2  0
 28 30  1  0
M  END
$$$$
