YQI.pdb
     RDKit          3D

 30 30  0  0  1  0  0  0  0  0999 V2000
    7.6280  -11.6451   17.2158 O   0  0  0  0  0  0  0  0  0  0  0  0
    7.7276  -12.5307   18.2952 C   0  0  0  0  0  0  0  0  0  0  0  0
    6.8119  -13.5536   18.4112 C   0  0  0  0  0  0  0  0  0  0  0  0
    6.9153  -14.4263   19.4820 C   0  0  0  0  0  0  0  0  0  0  0  0
    7.9081  -14.3040   20.4383 C   0  0  0  0  0  0  0  0  0  0  0  0
    7.9390  -15.3028   21.5424 C   0  0  0  0  0  0  0  0  0  0  0  0
    8.8819  -16.3907   21.1371 C   0  0  2  0  0  0  0  0  0  0  0  0
    8.4083  -17.0595   19.9278 N   0  0  0  0  0  0  0  0  0  0  0  0
    9.1150  -17.4172   22.2036 C   0  0  0  0  0  0  0  0  0  0  0  0
    8.5645  -18.5276   22.1918 O   0  0  0  0  0  0  0  0  0  0  0  0
    8.8119  -13.2780   20.3055 C   0  0  0  0  0  0  0  0  0  0  0  0
    8.7140  -12.3922   19.2270 C   0  0  0  0  0  0  0  0  0  0  0  0
   12.2481  -21.6084   22.7908 N   0  0  0  0  0  0  0  0  0  0  0  0
   12.7876  -20.3447   22.4423 C   0  0  0  0  0  0  0  0  0  0  0  0
   13.7852  -20.3056   21.6789 O   0  0  0  0  0  0  0  0  0  0  0  0
   12.2019  -19.1023   22.9637 C   0  0  0  0  0  0  0  0  0  0  0  0
   10.9647  -19.3424   23.8154 C   0  0  0  0  0  0  0  0  0  0  0  0
   10.4015  -18.0338   24.3204 C   0  0  2  0  0  0  0  0  0  0  0  0
   10.0047  -17.1232   23.2917 N   0  0  0  0  0  0  0  0  0  0  0  0
   11.2144  -17.3937   25.3700 C   0  0  0  0  0  0  0  0  0  0  0  0
   12.1762  -16.6128   25.0945 O   0  0  0  0  0  0  0  0  0  0  0  0
    9.0957  -13.4709   28.7890 C   0  0  0  0  0  0  0  0  0  0  0  0
   10.3526  -14.1804   28.4050 C   0  0  0  0  0  0  0  0  0  0  0  0
   10.2030  -15.3204   27.4547 C   0  0  2  0  0  0  0  0  0  0  0  0
    8.7301  -15.7470   27.3423 C   0  0  0  0  0  0  0  0  0  0  0  0
   11.0391  -16.5047   27.7131 C   0  0  2  0  0  0  0  0  0  0  0  0
   10.9982  -17.5893   26.7882 N   0  0  0  0  0  0  0  0  0  0  0  0
   10.9859  -16.9498   29.1600 C   0  0  0  0  0  0  0  0  0  0  0  0
   11.5088  -16.2990   30.0718 O   0  0  0  0  0  0  0  0  0  0  0  0
   10.3070  -18.1351   29.3876 O   0  0  0  0  0  0  0  0  0  0  0  0
  1  2  1  0
  2 12  2  0
  3  4  2  0
  3  2  1  0
  4  5  1  0
  5  6  1  0
  5 11  2  0
  7  8  1  6
  7  6  1  0
  9  7  1  0
  9 10  2  0
 12 11  1  0
 13 14  1  0
 14 15  2  0
 16 17  1  0
 16 14  1  0
 18 17  1  6
 18 19  1  0
 18 20  1  0
 19  9  1  0
 20 27  1  0
 21 20  2  0
 22 23  1  0
 23 24  1  0
 24 25  1  1
 24 26  1  0
 26 28  1  0
 26 27  1  6
 28 29  2  0
 28 30  1  0
M  END
$$$$
