YQI.pdb
     RDKit          3D

 30 30  0  0  1  0  0  0  0  0999 V2000
    8.9469  -13.7035   14.5416 O   0  0  0  0  0  0  0  0  0  0  0  0
    8.5309  -13.8735   15.8672 C   0  0  0  0  0  0  0  0  0  0  0  0
    9.3875  -14.4664   16.7690 C   0  0  0  0  0  0  0  0  0  0  0  0
    8.9697  -14.6325   18.0792 C   0  0  0  0  0  0  0  0  0  0  0  0
    7.7206  -14.2223   18.5114 C   0  0  0  0  0  0  0  0  0  0  0  0
    7.3744  -14.4349   19.9441 C   0  0  0  0  0  0  0  0  0  0  0  0
    7.3807  -15.9096   20.1933 C   0  0  2  0  0  0  0  0  0  0  0  0
    6.3932  -16.5791   19.3502 N   0  0  0  0  0  0  0  0  0  0  0  0
    7.1347  -16.2822   21.6236 C   0  0  0  0  0  0  0  0  0  0  0  0
    6.0860  -15.9925   22.2171 O   0  0  0  0  0  0  0  0  0  0  0  0
    6.8808  -13.6332   17.5978 C   0  0  0  0  0  0  0  0  0  0  0  0
    7.2951  -13.4621   16.2725 C   0  0  0  0  0  0  0  0  0  0  0  0
    6.6746  -20.1821   25.1515 N   0  0  0  0  0  0  0  0  0  0  0  0
    7.5724  -19.6107   26.0879 C   0  0  0  0  0  0  0  0  0  0  0  0
    7.3681  -19.8032   27.3130 O   0  0  0  0  0  0  0  0  0  0  0  0
    8.7168  -18.8038   25.6433 C   0  0  0  0  0  0  0  0  0  0  0  0
    8.7519  -18.6054   24.1356 C   0  0  0  0  0  0  0  0  0  0  0  0
    8.1146  -17.2887   23.7550 C   0  0  2  0  0  0  0  0  0  0  0  0
    8.1405  -17.0007   22.3546 N   0  0  0  0  0  0  0  0  0  0  0  0
    8.5479  -16.1488   24.5827 C   0  0  0  0  0  0  0  0  0  0  0  0
    9.6585  -15.5639   24.3948 O   0  0  0  0  0  0  0  0  0  0  0  0
    6.7835  -10.9060   27.1948 C   0  0  0  0  0  0  0  0  0  0  0  0
    7.7436  -12.0460   27.0977 C   0  0  0  0  0  0  0  0  0  0  0  0
    7.2371  -13.2805   26.4308 C   0  0  2  0  0  0  0  0  0  0  0  0
    5.9110  -13.7361   27.0614 C   0  0  0  0  0  0  0  0  0  0  0  0
    8.1672  -14.4203   26.3655 C   0  0  2  0  0  0  0  0  0  0  0  0
    7.7640  -15.5966   25.6675 N   0  0  0  0  0  0  0  0  0  0  0  0
    8.8250  -14.7113   27.6985 C   0  0  0  0  0  0  0  0  0  0  0  0
    9.4090  -13.8395   28.3522 O   0  0  0  0  0  0  0  0  0  0  0  0
    8.7221  -16.0221   28.1330 O   0  0  0  0  0  0  0  0  0  0  0  0
  1  2  1  0
  2 12  2  0
  3  4  2  0
  3  2  1  0
  4  5  1  0
  5  6  1  0
  5 11  2  0
  7  8  1  6
  7  6  1  0
  9  7  1  0
  9 10  2  0
 12 11  1  0
 13 14  1  0
 14 15  2  0
 16 17  1  0
 16 14  1  0
 18 17  1  6
 18 19  1  0
 18 20  1  0
 19  9  1  0
 20 27  1  0
 21 20  2  0
 22 23  1  0
 23 24  1  0
 24 25  1  1
 24 26  1  0
 26 28  1  0
 26 27  1  1
 28 29  2  0
 28 30  1  0
M  END
$$$$
