YQI.pdb
     RDKit          3D

 30 30  0  0  1  0  0  0  0  0999 V2000
    8.0516  -13.3923   15.0874 O   0  0  0  0  0  0  0  0  0  0  0  0
    7.9064  -13.6710   16.4514 C   0  0  0  0  0  0  0  0  0  0  0  0
    8.4753  -14.8150   16.9672 C   0  0  0  0  0  0  0  0  0  0  0  0
    8.3275  -15.0857   18.3176 C   0  0  0  0  0  0  0  0  0  0  0  0
    7.6275  -14.2447   19.1649 C   0  0  0  0  0  0  0  0  0  0  0  0
    7.5391  -14.6205   20.6031 C   0  0  0  0  0  0  0  0  0  0  0  0
    7.4703  -16.1129   20.6736 C   0  0  2  0  0  0  0  0  0  0  0  0
    6.2319  -16.6008   20.0717 N   0  0  0  0  0  0  0  0  0  0  0  0
    7.5855  -16.6584   22.0645 C   0  0  0  0  0  0  0  0  0  0  0  0
    6.6558  -16.6015   22.8820 O   0  0  0  0  0  0  0  0  0  0  0  0
    7.0677  -13.1089   18.6322 C   0  0  0  0  0  0  0  0  0  0  0  0
    7.2122  -12.8286   17.2692 C   0  0  0  0  0  0  0  0  0  0  0  0
   12.3492  -18.9713   25.4610 N   0  0  0  0  0  0  0  0  0  0  0  0
   12.5082  -18.7395   24.0717 C   0  0  0  0  0  0  0  0  0  0  0  0
   13.6708  -18.6139   23.6111 O   0  0  0  0  0  0  0  0  0  0  0  0
   11.3423  -18.6406   23.1830 C   0  0  0  0  0  0  0  0  0  0  0  0
   10.0267  -18.9012   23.9005 C   0  0  0  0  0  0  0  0  0  0  0  0
    9.1250  -17.6909   23.8194 C   0  0  2  0  0  0  0  0  0  0  0  0
    8.8122  -17.2730   22.4882 N   0  0  0  0  0  0  0  0  0  0  0  0
    9.5369  -16.5742   24.6888 C   0  0  0  0  0  0  0  0  0  0  0  0
   10.4358  -15.7477   24.3429 O   0  0  0  0  0  0  0  0  0  0  0  0
    8.0303  -11.5949   27.4496 C   0  0  0  0  0  0  0  0  0  0  0  0
    8.8769  -12.8212   27.5517 C   0  0  0  0  0  0  0  0  0  0  0  0
    8.4969  -13.9610   26.6677 C   0  0  2  0  0  0  0  0  0  0  0  0
    7.0198  -14.3376   26.8680 C   0  0  0  0  0  0  0  0  0  0  0  0
    9.3298  -15.1717   26.7627 C   0  0  2  0  0  0  0  0  0  0  0  0
    8.9668  -16.3170   25.9946 N   0  0  0  0  0  0  0  0  0  0  0  0
    9.7111  -15.5048   28.1903 C   0  0  0  0  0  0  0  0  0  0  0  0
    9.4570  -16.6000   28.7044 O   0  0  0  0  0  0  0  0  0  0  0  0
   10.3670  -14.4962   28.8759 O   0  0  0  0  0  0  0  0  0  0  0  0
  1  2  1  0
  2 12  2  0
  3  4  2  0
  3  2  1  0
  4  5  1  0
  5  6  1  0
  5 11  2  0
  7  8  1  1
  7  6  1  0
  9  7  1  0
  9 10  2  0
 12 11  1  0
 13 14  1  0
 14 15  2  0
 16 17  1  0
 16 14  1  0
 18 17  1  6
 18 19  1  0
 18 20  1  0
 19  9  1  0
 20 27  1  0
 21 20  2  0
 22 23  1  0
 23 24  1  0
 24 25  1  1
 24 26  1  0
 26 28  1  0
 26 27  1  1
 28 29  2  0
 28 30  1  0
M  END
$$$$
