YQI.pdb
     RDKit          3D

 30 30  0  0  1  0  0  0  0  0999 V2000
    7.5540  -11.8406   16.7353 O   0  0  0  0  0  0  0  0  0  0  0  0
    7.6130  -12.5728   17.9268 C   0  0  0  0  0  0  0  0  0  0  0  0
    6.4774  -13.2062   18.3826 C   0  0  0  0  0  0  0  0  0  0  0  0
    6.5419  -13.9286   19.5627 C   0  0  0  0  0  0  0  0  0  0  0  0
    7.7094  -14.0349   20.2981 C   0  0  0  0  0  0  0  0  0  0  0  0
    7.6756  -14.8468   21.5460 C   0  0  0  0  0  0  0  0  0  0  0  0
    8.5544  -16.0376   21.3306 C   0  0  2  0  0  0  0  0  0  0  0  0
    7.9971  -16.9100   20.2999 N   0  0  0  0  0  0  0  0  0  0  0  0
    8.7983  -16.8414   22.5715 C   0  0  0  0  0  0  0  0  0  0  0  0
    7.9076  -17.5042   23.1223 O   0  0  0  0  0  0  0  0  0  0  0  0
    8.8312  -13.3967   19.8275 C   0  0  0  0  0  0  0  0  0  0  0  0
    8.7742  -12.6647   18.6366 C   0  0  0  0  0  0  0  0  0  0  0  0
   13.3228  -20.6497   23.8002 N   0  0  0  0  0  0  0  0  0  0  0  0
   12.3839  -20.3607   22.7783 C   0  0  0  0  0  0  0  0  0  0  0  0
   12.4390  -21.0156   21.7070 O   0  0  0  0  0  0  0  0  0  0  0  0
   11.3683  -19.3144   22.9581 C   0  0  0  0  0  0  0  0  0  0  0  0
   11.5223  -18.5581   24.2688 C   0  0  0  0  0  0  0  0  0  0  0  0
   10.4622  -17.4883   24.3961 C   0  0  2  0  0  0  0  0  0  0  0  0
   10.1066  -16.8567   23.1635 N   0  0  0  0  0  0  0  0  0  0  0  0
   10.7072  -16.5246   25.4840 C   0  0  0  0  0  0  0  0  0  0  0  0
   11.6791  -15.7089   25.4549 O   0  0  0  0  0  0  0  0  0  0  0  0
    7.4613  -13.0283   27.0886 C   0  0  0  0  0  0  0  0  0  0  0  0
    8.8037  -13.6563   26.9032 C   0  0  0  0  0  0  0  0  0  0  0  0
    9.3401  -14.4223   28.0653 C   0  0  2  0  0  0  0  0  0  0  0  0
   10.0444  -13.4838   29.0589 C   0  0  0  0  0  0  0  0  0  0  0  0
   10.2234  -15.5580   27.7518 C   0  0  2  0  0  0  0  0  0  0  0  0
    9.8791  -16.4169   26.6668 N   0  0  0  0  0  0  0  0  0  0  0  0
   10.6687  -16.3077   28.9904 C   0  0  0  0  0  0  0  0  0  0  0  0
   10.4022  -17.5011   29.1728 O   0  0  0  0  0  0  0  0  0  0  0  0
   11.3979  -15.5614   29.9009 O   0  0  0  0  0  0  0  0  0  0  0  0
  1  2  1  0
  2 12  2  0
  3  4  2  0
  3  2  1  0
  4  5  1  0
  5  6  1  0
  5 11  2  0
  7  8  1  6
  7  6  1  0
  9  7  1  0
  9 10  2  0
 12 11  1  0
 13 14  1  0
 14 15  2  0
 16 17  1  0
 16 14  1  0
 18 17  1  6
 18 19  1  0
 18 20  1  0
 19  9  1  0
 20 27  1  0
 21 20  2  0
 22 23  1  0
 23 24  1  0
 24 25  1  1
 24 26  1  0
 26 28  1  0
 26 27  1  6
 28 29  2  0
 28 30  1  0
M  END
$$$$
