YQI.pdb
     RDKit          3D

 30 30  0  0  1  0  0  0  0  0999 V2000
    7.5916  -11.7291   17.1312 O   0  0  0  0  0  0  0  0  0  0  0  0
    7.6784  -12.5090   18.2904 C   0  0  0  0  0  0  0  0  0  0  0  0
    8.8824  -12.5921   18.9551 C   0  0  0  0  0  0  0  0  0  0  0  0
    8.9621  -13.3661   20.1012 C   0  0  0  0  0  0  0  0  0  0  0  0
    7.8721  -14.0579   20.5998 C   0  0  0  0  0  0  0  0  0  0  0  0
    8.0605  -14.8503   21.8465 C   0  0  0  0  0  0  0  0  0  0  0  0
    8.7301  -16.1326   21.4663 C   0  0  2  0  0  0  0  0  0  0  0  0
    7.8850  -16.9065   20.5603 N   0  0  0  0  0  0  0  0  0  0  0  0
    9.1042  -16.9896   22.6371 C   0  0  0  0  0  0  0  0  0  0  0  0
    8.2761  -17.3675   23.4782 O   0  0  0  0  0  0  0  0  0  0  0  0
    6.6803  -13.9625   19.9234 C   0  0  0  0  0  0  0  0  0  0  0  0
    6.5917  -13.1831   18.7649 C   0  0  0  0  0  0  0  0  0  0  0  0
   13.9260  -21.1380   22.9487 N   0  0  0  0  0  0  0  0  0  0  0  0
   12.7310  -21.0179   22.1958 C   0  0  0  0  0  0  0  0  0  0  0  0
   12.6137  -21.6905   21.1406 O   0  0  0  0  0  0  0  0  0  0  0  0
   11.6500  -20.1229   22.6304 C   0  0  0  0  0  0  0  0  0  0  0  0
   12.1194  -19.0596   23.6116 C   0  0  0  0  0  0  0  0  0  0  0  0
   10.9967  -18.1023   23.9396 C   0  0  2  0  0  0  0  0  0  0  0  0
   10.4696  -17.3984   22.8120 N   0  0  0  0  0  0  0  0  0  0  0  0
   11.2738  -17.2202   25.0874 C   0  0  0  0  0  0  0  0  0  0  0  0
   12.3028  -16.4786   25.1337 O   0  0  0  0  0  0  0  0  0  0  0  0
    9.8499  -12.8661   28.8789 C   0  0  0  0  0  0  0  0  0  0  0  0
   10.4892  -14.2087   28.7392 C   0  0  0  0  0  0  0  0  0  0  0  0
   10.1158  -14.9947   27.5277 C   0  0  2  0  0  0  0  0  0  0  0  0
    8.5902  -15.1606   27.4340 C   0  0  0  0  0  0  0  0  0  0  0  0
   10.7632  -16.3081   27.3717 C   0  0  2  0  0  0  0  0  0  0  0  0
   10.4161  -17.1159   26.2491 N   0  0  0  0  0  0  0  0  0  0  0  0
   10.8250  -17.0840   28.6712 C   0  0  0  0  0  0  0  0  0  0  0  0
   11.3185  -16.6110   29.7012 O   0  0  0  0  0  0  0  0  0  0  0  0
   10.2862  -18.3588   28.6227 O   0  0  0  0  0  0  0  0  0  0  0  0
  1  2  1  0
  2 12  2  0
  3  4  2  0
  3  2  1  0
  4  5  1  0
  5  6  1  0
  5 11  2  0
  7  8  1  6
  7  6  1  0
  9  7  1  0
  9 10  2  0
 12 11  1  0
 13 14  1  0
 14 15  2  0
 16 17  1  0
 16 14  1  0
 18 17  1  6
 18 19  1  0
 18 20  1  0
 19  9  1  0
 20 27  1  0
 21 20  2  0
 22 23  1  0
 23 24  1  0
 24 25  1  1
 24 26  1  0
 26 28  1  0
 26 27  1  6
 28 29  2  0
 28 30  1  0
M  END
$$$$
