YQI.pdb
     RDKit          3D

 30 30  0  0  1  0  0  0  0  0999 V2000
    7.5558  -12.2080   15.9845 O   0  0  0  0  0  0  0  0  0  0  0  0
    7.5411  -12.8161   17.2451 C   0  0  0  0  0  0  0  0  0  0  0  0
    6.5167  -13.6817   17.5612 C   0  0  0  0  0  0  0  0  0  0  0  0
    6.5073  -14.2798   18.8106 C   0  0  0  0  0  0  0  0  0  0  0  0
    7.4931  -14.0363   19.7509 C   0  0  0  0  0  0  0  0  0  0  0  0
    7.3972  -14.7407   21.0594 C   0  0  0  0  0  0  0  0  0  0  0  0
    8.0900  -16.0580   20.9117 C   0  0  2  0  0  0  0  0  0  0  0  0
    7.3239  -16.9490   20.0439 N   0  0  0  0  0  0  0  0  0  0  0  0
    8.3538  -16.7517   22.2134 C   0  0  0  0  0  0  0  0  0  0  0  0
    7.4434  -17.1106   22.9740 O   0  0  0  0  0  0  0  0  0  0  0  0
    8.5062  -13.1705   19.4173 C   0  0  0  0  0  0  0  0  0  0  0  0
    8.5226  -12.5622   18.1576 C   0  0  0  0  0  0  0  0  0  0  0  0
   12.1608  -20.7470   24.6871 N   0  0  0  0  0  0  0  0  0  0  0  0
   12.1694  -19.7802   25.7238 C   0  0  0  0  0  0  0  0  0  0  0  0
   12.4695  -20.1477   26.8876 O   0  0  0  0  0  0  0  0  0  0  0  0
   11.8295  -18.3769   25.4522 C   0  0  0  0  0  0  0  0  0  0  0  0
   11.4203  -18.1353   24.0073 C   0  0  0  0  0  0  0  0  0  0  0  0
   10.1399  -17.3347   23.9414 C   0  0  2  0  0  0  0  0  0  0  0  0
    9.7061  -17.0189   22.6159 N   0  0  0  0  0  0  0  0  0  0  0  0
   10.1098  -16.1719   24.8465 C   0  0  0  0  0  0  0  0  0  0  0  0
   10.9044  -15.1916   24.7101 O   0  0  0  0  0  0  0  0  0  0  0  0
    7.2194  -11.6558   27.4427 C   0  0  0  0  0  0  0  0  0  0  0  0
    8.2687  -12.7066   27.6030 C   0  0  0  0  0  0  0  0  0  0  0  0
    8.1679  -13.8843   26.6931 C   0  0  2  0  0  0  0  0  0  0  0  0
    6.7859  -14.5476   26.8107 C   0  0  0  0  0  0  0  0  0  0  0  0
    9.2174  -14.9086   26.8261 C   0  0  2  0  0  0  0  0  0  0  0  0
    9.1891  -16.0379   25.9559 N   0  0  0  0  0  0  0  0  0  0  0  0
    9.4953  -15.2725   28.2700 C   0  0  0  0  0  0  0  0  0  0  0  0
    9.7635  -14.4224   29.1265 O   0  0  0  0  0  0  0  0  0  0  0  0
    9.4238  -16.6244   28.5614 O   0  0  0  0  0  0  0  0  0  0  0  0
  1  2  1  0
  2 12  2  0
  3  4  2  0
  3  2  1  0
  4  5  1  0
  5  6  1  0
  5 11  2  0
  7  8  1  6
  7  6  1  0
  9  7  1  0
  9 10  2  0
 12 11  1  0
 13 14  1  0
 14 15  2  0
 16 17  1  0
 16 14  1  0
 18 17  1  6
 18 19  1  0
 18 20  1  0
 19  9  1  0
 20 27  1  0
 21 20  2  0
 22 23  1  0
 23 24  1  0
 24 25  1  1
 24 26  1  0
 26 28  1  0
 26 27  1  6
 28 29  2  0
 28 30  1  0
M  END
$$$$
