GYY.pdb
     RDKit          3D

 29 30  0  0  1  0  0  0  0  0999 V2000
   24.1005  -36.8411   -6.5098 N   0  0  0  0  0  0  0  0  0  0  0  0
   24.4011  -35.9482   -5.4097 C   0  0  0  0  0  0  0  0  0  0  0  0
   25.8442  -35.5874   -5.4754 C   0  0  0  0  0  0  0  0  0  0  0  0
   26.5930  -36.0658   -6.3660 O   0  0  0  0  0  0  0  0  0  0  0  0
   25.3208  -31.6276   -9.8030 O   0  0  0  0  0  0  0  0  0  0  0  0
   26.0077  -31.9524   -8.6245 C   0  0  0  0  0  0  0  0  0  0  0  0
   27.3285  -32.3304   -8.6342 C   0  0  0  0  0  0  0  0  0  0  0  0
   27.9791  -32.6445   -7.4582 C   0  0  0  0  0  0  0  0  0  0  0  0
   27.3475  -32.5958   -6.2340 C   0  0  0  0  0  0  0  0  0  0  0  0
   28.0814  -32.9381   -5.0075 C   0  0  0  0  0  0  0  0  0  0  0  0
   27.8565  -34.3587   -4.5411 C   0  0  2  0  0  0  0  0  0  0  0  0
   26.4403  -34.6938   -4.5443 N   0  0  0  0  0  0  0  0  0  0  0  0
   28.4790  -34.6567   -3.2349 C   0  0  0  0  0  0  0  0  0  0  0  0
   28.3152  -33.8178   -2.3016 O   0  0  0  0  0  0  0  0  0  0  0  0
   26.0260  -32.2167   -6.2323 C   0  0  0  0  0  0  0  0  0  0  0  0
   25.3557  -31.8965   -7.4129 C   0  0  0  0  0  0  0  0  0  0  0  0
   33.7268  -36.7802   -7.7822 O   0  0  0  0  0  0  0  0  0  0  0  0
   33.1296  -36.2627   -6.6203 C   0  0  0  0  0  0  0  0  0  0  0  0
   32.1265  -35.3377   -6.7098 C   0  0  0  0  0  0  0  0  0  0  0  0
   31.5137  -34.8045   -5.5982 C   0  0  0  0  0  0  0  0  0  0  0  0
   31.9239  -35.2159   -4.3488 C   0  0  0  0  0  0  0  0  0  0  0  0
   31.3454  -34.7115   -3.0960 C   0  0  0  0  0  0  0  0  0  0  0  0
   30.5550  -35.7532   -2.3249 C   0  0  2  0  0  0  0  0  0  0  0  0
   29.2394  -35.7998   -2.9412 N   0  0  0  0  0  0  0  0  0  0  0  0
   30.5120  -35.4826   -0.8903 C   0  0  0  0  0  0  0  0  0  0  0  0
   29.4508  -35.4186   -0.2294 O   0  0  0  0  0  0  0  0  0  0  0  0
   32.9360  -36.1495   -4.2477 C   0  0  0  0  0  0  0  0  0  0  0  0
   33.5321  -36.6671   -5.3682 C   0  0  0  0  0  0  0  0  0  0  0  0
   31.6939  -35.2821   -0.1953 O   0  0  0  0  0  0  0  0  0  0  0  0
  1  2  1  0
  3  4  2  0
  3  2  1  0
  6  5  1  0
  6 16  2  0
  7  6  1  0
  8  7  2  0
  8  9  1  0
  9 15  2  0
 10  9  1  0
 11 10  1  1
 11 12  1  0
 12  3  1  0
 13 24  1  0
 13 11  1  0
 14 13  2  0
 15 16  1  0
 18 28  2  0
 18 17  1  0
 19 18  1  0
 20 21  1  0
 20 19  2  0
 21 27  2  0
 22 21  1  0
 23 22  1  6
 23 24  1  0
 25 29  1  0
 25 23  1  0
 26 25  2  0
 27 28  1  0
M  END
$$$$
