GYY.pdb
     RDKit          3D

 29 30  0  0  1  0  0  0  0  0999 V2000
   26.0946  -20.9043  -20.6571 N   0  0  0  0  0  0  0  0  0  0  0  0
   26.2623  -20.3373  -19.3348 C   0  0  0  0  0  0  0  0  0  0  0  0
   25.5929  -21.2309  -18.3497 C   0  0  0  0  0  0  0  0  0  0  0  0
   24.9094  -22.2171  -18.7276 O   0  0  0  0  0  0  0  0  0  0  0  0
   28.9499  -26.5681  -17.4328 O   0  0  0  0  0  0  0  0  0  0  0  0
   28.1863  -25.5565  -16.8330 C   0  0  0  0  0  0  0  0  0  0  0  0
   28.6547  -24.2713  -16.7056 C   0  0  0  0  0  0  0  0  0  0  0  0
   27.8806  -23.2960  -16.1105 C   0  0  0  0  0  0  0  0  0  0  0  0
   26.6186  -23.5570  -15.6215 C   0  0  0  0  0  0  0  0  0  0  0  0
   25.8301  -22.4858  -14.9964 C   0  0  0  0  0  0  0  0  0  0  0  0
   24.9220  -21.7572  -15.9612 C   0  0  2  0  0  0  0  0  0  0  0  0
   25.6924  -21.0154  -16.9481 N   0  0  0  0  0  0  0  0  0  0  0  0
   23.9240  -20.8949  -15.2958 C   0  0  0  0  0  0  0  0  0  0  0  0
   24.3281  -19.8010  -14.8040 O   0  0  0  0  0  0  0  0  0  0  0  0
   26.1566  -24.8452  -15.7526 C   0  0  0  0  0  0  0  0  0  0  0  0
   26.9278  -25.8411  -16.3517 C   0  0  0  0  0  0  0  0  0  0  0  0
   19.2050  -20.2768  -20.6050 O   0  0  0  0  0  0  0  0  0  0  0  0
   19.8039  -19.9760  -19.3700 C   0  0  0  0  0  0  0  0  0  0  0  0
   21.1655  -19.9342  -19.2519 C   0  0  0  0  0  0  0  0  0  0  0  0
   21.7941  -19.6439  -18.0620 C   0  0  0  0  0  0  0  0  0  0  0  0
   21.0258  -19.3856  -16.9476 C   0  0  0  0  0  0  0  0  0  0  0  0
   21.5882  -19.0699  -15.6276 C   0  0  0  0  0  0  0  0  0  0  0  0
   21.5763  -20.2414  -14.6622 C   0  0  2  0  0  0  0  0  0  0  0  0
   22.5574  -21.1888  -15.1647 N   0  0  0  0  0  0  0  0  0  0  0  0
   20.2466  -20.8212  -14.4930 C   0  0  0  0  0  0  0  0  0  0  0  0
   19.9379  -21.9705  -14.8815 O   0  0  0  0  0  0  0  0  0  0  0  0
   19.6500  -19.4253  -17.0564 C   0  0  0  0  0  0  0  0  0  0  0  0
   19.0454  -19.7166  -18.2515 C   0  0  0  0  0  0  0  0  0  0  0  0
   19.2516  -20.0836  -13.8717 O   0  0  0  0  0  0  0  0  0  0  0  0
  1  2  1  0
  3  4  2  0
  3  2  1  0
  6  5  1  0
  6 16  2  0
  7  6  1  0
  8  7  2  0
  8  9  1  0
  9 15  2  0
 10  9  1  0
 11 10  1  1
 11 12  1  0
 12  3  1  0
 13 24  1  0
 13 11  1  0
 14 13  2  0
 15 16  1  0
 18 28  2  0
 18 17  1  0
 19 18  1  0
 20 21  1  0
 20 19  2  0
 21 27  2  0
 22 21  1  0
 23 22  1  6
 23 24  1  0
 25 29  1  0
 25 23  1  0
 26 25  2  0
 27 28  1  0
M  END
$$$$
