GYY.pdb
     RDKit          3D

 29 30  0  0  1  0  0  0  0  0999 V2000
   24.5171  -25.5396  -14.3299 N   0  0  0  0  0  0  0  0  0  0  0  0
   24.5908  -24.2731  -15.0290 C   0  0  0  0  0  0  0  0  0  0  0  0
   24.1015  -23.2019  -14.1180 C   0  0  0  0  0  0  0  0  0  0  0  0
   23.6200  -23.4794  -12.9893 O   0  0  0  0  0  0  0  0  0  0  0  0
   28.7386  -20.9960   -9.7932 O   0  0  0  0  0  0  0  0  0  0  0  0
   27.7125  -20.6626  -10.6888 C   0  0  0  0  0  0  0  0  0  0  0  0
   26.4810  -20.2343  -10.2559 C   0  0  0  0  0  0  0  0  0  0  0  0
   25.4897  -19.9129  -11.1608 C   0  0  0  0  0  0  0  0  0  0  0  0
   25.6812  -20.0038  -12.5227 C   0  0  0  0  0  0  0  0  0  0  0  0
   24.5962  -19.6497  -13.4487 C   0  0  0  0  0  0  0  0  0  0  0  0
   23.5919  -20.7598  -13.6611 C   0  0  2  0  0  0  0  0  0  0  0  0
   24.1540  -21.8270  -14.4754 N   0  0  0  0  0  0  0  0  0  0  0  0
   22.2996  -20.2912  -14.2023 C   0  0  0  0  0  0  0  0  0  0  0  0
   22.1277  -20.3605  -15.4543 O   0  0  0  0  0  0  0  0  0  0  0  0
   26.9159  -20.4330  -12.9484 C   0  0  0  0  0  0  0  0  0  0  0  0
   27.9272  -20.7613  -12.0455 C   0  0  0  0  0  0  0  0  0  0  0  0
   17.8593  -24.7718  -11.4726 O   0  0  0  0  0  0  0  0  0  0  0  0
   18.1328  -23.4381  -11.8204 C   0  0  0  0  0  0  0  0  0  0  0  0
   18.2205  -22.4741  -10.8545 C   0  0  0  0  0  0  0  0  0  0  0  0
   18.4866  -21.1560  -11.1501 C   0  0  0  0  0  0  0  0  0  0  0  0
   18.6717  -20.7919  -12.4662 C   0  0  0  0  0  0  0  0  0  0  0  0
   18.9555  -19.4164  -12.8971 C   0  0  0  0  0  0  0  0  0  0  0  0
   19.9824  -19.3245  -14.0113 C   0  0  2  0  0  0  0  0  0  0  0  0
   21.2406  -19.7744  -13.4390 N   0  0  0  0  0  0  0  0  0  0  0  0
   20.0597  -17.9904  -14.6005 C   0  0  0  0  0  0  0  0  0  0  0  0
   21.0752  -17.2615  -14.5331 O   0  0  0  0  0  0  0  0  0  0  0  0
   18.5851  -21.7579  -13.4488 C   0  0  0  0  0  0  0  0  0  0  0  0
   18.3192  -23.0645  -13.1315 C   0  0  0  0  0  0  0  0  0  0  0  0
   18.9656  -17.4763  -15.2779 O   0  0  0  0  0  0  0  0  0  0  0  0
  1  2  1  0
  3  4  2  0
  3  2  1  0
  6  5  1  0
  6 16  2  0
  7  6  1  0
  8  7  2  0
  8  9  1  0
  9 15  2  0
 10  9  1  0
 11 10  1  6
 11 12  1  0
 12  3  1  0
 13 24  1  0
 13 11  1  0
 14 13  2  0
 15 16  1  0
 18 28  2  0
 18 17  1  0
 19 18  1  0
 20 21  1  0
 20 19  2  0
 21 27  2  0
 22 21  1  0
 23 22  1  1
 23 24  1  0
 25 29  1  0
 25 23  1  0
 26 25  2  0
 27 28  1  0
M  END
$$$$
