GYY.pdb
     RDKit          3D

 29 30  0  0  1  0  0  0  0  0999 V2000
   34.7927  -27.4608  -17.4499 N   0  0  0  0  0  0  0  0  0  0  0  0
   35.4121  -28.6414  -18.0161 C   0  0  0  0  0  0  0  0  0  0  0  0
   34.3910  -29.7228  -18.0858 C   0  0  0  0  0  0  0  0  0  0  0  0
   33.2197  -29.5377  -17.6656 O   0  0  0  0  0  0  0  0  0  0  0  0
   30.0473  -28.0918  -22.1296 O   0  0  0  0  0  0  0  0  0  0  0  0
   30.8269  -29.1412  -21.6228 C   0  0  0  0  0  0  0  0  0  0  0  0
   30.2633  -30.2968  -21.1386 C   0  0  0  0  0  0  0  0  0  0  0  0
   31.0560  -31.3134  -20.6456 C   0  0  0  0  0  0  0  0  0  0  0  0
   32.4310  -31.2229  -20.6144 C   0  0  0  0  0  0  0  0  0  0  0  0
   33.2345  -32.3319  -20.0810 C   0  0  0  0  0  0  0  0  0  0  0  0
   33.7303  -32.1003  -18.6715 C   0  0  2  0  0  0  0  0  0  0  0  0
   34.6866  -31.0043  -18.6253 N   0  0  0  0  0  0  0  0  0  0  0  0
   34.2704  -33.3158  -18.0285 C   0  0  0  0  0  0  0  0  0  0  0  0
   35.5238  -33.3876  -17.8684 O   0  0  0  0  0  0  0  0  0  0  0  0
   32.9877  -30.0637  -21.1005 C   0  0  0  0  0  0  0  0  0  0  0  0
   32.1992  -29.0281  -21.6017 C   0  0  0  0  0  0  0  0  0  0  0  0
   37.0085  -39.1062  -12.4167 O   0  0  0  0  0  0  0  0  0  0  0  0
   36.4599  -38.1068  -13.2382 C   0  0  0  0  0  0  0  0  0  0  0  0
   36.8467  -37.9941  -14.5449 C   0  0  0  0  0  0  0  0  0  0  0  0
   36.3356  -37.0305  -15.3849 C   0  0  0  0  0  0  0  0  0  0  0  0
   35.4000  -36.1460  -14.8939 C   0  0  0  0  0  0  0  0  0  0  0  0
   34.7918  -35.0767  -15.6971 C   0  0  0  0  0  0  0  0  0  0  0  0
   34.0751  -35.5770  -16.9383 C   0  0  2  0  0  0  0  0  0  0  0  0
   33.5047  -34.4023  -17.5765 N   0  0  0  0  0  0  0  0  0  0  0  0
   33.0872  -36.6112  -16.6425 C   0  0  0  0  0  0  0  0  0  0  0  0
   31.8531  -36.4026  -16.6163 O   0  0  0  0  0  0  0  0  0  0  0  0
   35.0029  -36.2514  -13.5758 C   0  0  0  0  0  0  0  0  0  0  0  0
   35.5252  -37.2188  -12.7573 C   0  0  0  0  0  0  0  0  0  0  0  0
   33.5080  -37.9036  -16.3727 O   0  0  0  0  0  0  0  0  0  0  0  0
  1  2  1  0
  3  4  2  0
  3  2  1  0
  6  5  1  0
  6 16  2  0
  7  6  1  0
  8  7  2  0
  8  9  1  0
  9 15  2  0
 10  9  1  0
 11 10  1  6
 11 12  1  0
 12  3  1  0
 13 24  1  0
 13 11  1  0
 14 13  2  0
 15 16  1  0
 18 28  2  0
 18 17  1  0
 19 18  1  0
 20 21  1  0
 20 19  2  0
 21 27  2  0
 22 21  1  0
 23 22  1  1
 23 24  1  0
 25 29  1  0
 25 23  1  0
 26 25  2  0
 27 28  1  0
M  END
$$$$
