GYY.pdb
     RDKit          3D

 29 30  0  0  1  0  0  0  0  0999 V2000
   19.8085   -3.7530  -22.3721 N   0  0  0  0  0  0  0  0  0  0  0  0
   20.6031   -3.3900  -21.2167 C   0  0  0  0  0  0  0  0  0  0  0  0
   20.0942   -4.1441  -20.0380 C   0  0  0  0  0  0  0  0  0  0  0  0
   18.9130   -3.9942  -19.6321 O   0  0  0  0  0  0  0  0  0  0  0  0
   18.6523  -10.2465  -13.8639 O   0  0  0  0  0  0  0  0  0  0  0  0
   19.1560   -9.5084  -14.9444 C   0  0  0  0  0  0  0  0  0  0  0  0
   20.4866   -9.1806  -15.0430 C   0  0  0  0  0  0  0  0  0  0  0  0
   20.9541   -8.4528  -16.1185 C   0  0  0  0  0  0  0  0  0  0  0  0
   20.1237   -8.0245  -17.1319 C   0  0  0  0  0  0  0  0  0  0  0  0
   20.6670   -7.2525  -18.2584 C   0  0  0  0  0  0  0  0  0  0  0  0
   20.4758   -5.7591  -18.1201 C   0  0  2  0  0  0  0  0  0  0  0  0
   20.9101   -5.0612  -19.3211 N   0  0  0  0  0  0  0  0  0  0  0  0
   21.1051   -5.1930  -16.9093 C   0  0  0  0  0  0  0  0  0  0  0  0
   22.3416   -4.9282  -16.9595 O   0  0  0  0  0  0  0  0  0  0  0  0
   18.7938   -8.3563  -17.0263 C   0  0  0  0  0  0  0  0  0  0  0  0
   18.3071   -9.0912  -15.9453 C   0  0  0  0  0  0  0  0  0  0  0  0
   17.2460   -6.8003  -10.0220 O   0  0  0  0  0  0  0  0  0  0  0  0
   17.9352   -6.0054  -10.9535 C   0  0  0  0  0  0  0  0  0  0  0  0
   19.2421   -5.6640  -10.7407 C   0  0  0  0  0  0  0  0  0  0  0  0
   19.9552   -4.8877  -11.6263 C   0  0  0  0  0  0  0  0  0  0  0  0
   19.3319   -4.4368  -12.7696 C   0  0  0  0  0  0  0  0  0  0  0  0
   19.9930   -3.5997  -13.7799 C   0  0  0  0  0  0  0  0  0  0  0  0
   21.0874   -4.3186  -14.5481 C   0  0  2  0  0  0  0  0  0  0  0  0
   20.4414   -4.9215  -15.7022 N   0  0  0  0  0  0  0  0  0  0  0  0
   21.8170   -5.2803  -13.7261 C   0  0  0  0  0  0  0  0  0  0  0  0
   21.6087   -6.5144  -13.7550 O   0  0  0  0  0  0  0  0  0  0  0  0
   18.0124   -4.7760  -12.9936 C   0  0  0  0  0  0  0  0  0  0  0  0
   17.3218   -5.5502  -12.0980 C   0  0  0  0  0  0  0  0  0  0  0  0
   22.7997   -4.8328  -12.8577 O   0  0  0  0  0  0  0  0  0  0  0  0
  1  2  1  0
  3  4  2  0
  3  2  1  0
  6  5  1  0
  6 16  2  0
  7  6  1  0
  8  7  2  0
  8  9  1  0
  9 15  2  0
 10  9  1  0
 11 10  1  6
 11 12  1  0
 12  3  1  0
 13 24  1  0
 13 11  1  0
 14 13  2  0
 15 16  1  0
 18 28  2  0
 18 17  1  0
 19 18  1  0
 20 21  1  0
 20 19  2  0
 21 27  2  0
 22 21  1  0
 23 22  1  1
 23 24  1  0
 25 29  1  0
 25 23  1  0
 26 25  2  0
 27 28  1  0
M  END
$$$$
