GYY.pdb
     RDKit          3D

 29 30  0  0  1  0  0  0  0  0999 V2000
   18.9763  -10.1459  -17.2149 N   0  0  0  0  0  0  0  0  0  0  0  0
   19.8561  -11.2862  -17.0608 C   0  0  0  0  0  0  0  0  0  0  0  0
   19.0869  -12.5218  -17.3748 C   0  0  0  0  0  0  0  0  0  0  0  0
   17.8297  -12.5335  -17.3274 O   0  0  0  0  0  0  0  0  0  0  0  0
   17.4243  -12.2220  -23.6420 O   0  0  0  0  0  0  0  0  0  0  0  0
   17.8962  -13.0307  -22.5983 C   0  0  0  0  0  0  0  0  0  0  0  0
   17.1190  -14.0109  -22.0303 C   0  0  0  0  0  0  0  0  0  0  0  0
   17.6103  -14.7919  -21.0039 C   0  0  0  0  0  0  0  0  0  0  0  0
   18.8849  -14.6312  -20.5044 C   0  0  0  0  0  0  0  0  0  0  0  0
   19.3655  -15.4874  -19.4108 C   0  0  0  0  0  0  0  0  0  0  0  0
   19.0144  -14.9696  -18.0343 C   0  0  2  0  0  0  0  0  0  0  0  0
   19.7289  -13.7364  -17.7398 N   0  0  0  0  0  0  0  0  0  0  0  0
   19.1990  -15.9696  -16.9626 C   0  0  0  0  0  0  0  0  0  0  0  0
   20.3170  -15.9956  -16.3701 O   0  0  0  0  0  0  0  0  0  0  0  0
   19.6567  -13.6486  -21.0778 C   0  0  0  0  0  0  0  0  0  0  0  0
   19.1735  -12.8517  -22.1156 C   0  0  0  0  0  0  0  0  0  0  0  0
   18.1843  -19.5910   -9.2470 O   0  0  0  0  0  0  0  0  0  0  0  0
   18.2497  -18.9078  -10.4731 C   0  0  0  0  0  0  0  0  0  0  0  0
   19.4541  -18.4989  -10.9753 C   0  0  0  0  0  0  0  0  0  0  0  0
   19.5644  -17.8270  -12.1719 C   0  0  0  0  0  0  0  0  0  0  0  0
   18.4214  -17.5553  -12.8919 C   0  0  0  0  0  0  0  0  0  0  0  0
   18.4198  -16.8418  -14.1762 C   0  0  0  0  0  0  0  0  0  0  0  0
   18.3939  -17.7595  -15.3852 C   0  0  2  0  0  0  0  0  0  0  0  0
   18.2315  -16.8968  -16.5437 N   0  0  0  0  0  0  0  0  0  0  0  0
   17.3686  -18.7949  -15.2872 C   0  0  0  0  0  0  0  0  0  0  0  0
   16.1844  -18.6341  -15.6601 O   0  0  0  0  0  0  0  0  0  0  0  0
   17.2004  -17.9639  -12.3934 C   0  0  0  0  0  0  0  0  0  0  0  0
   17.1142  -18.6316  -11.1996 C   0  0  0  0  0  0  0  0  0  0  0  0
   17.6940  -20.0334  -14.7576 O   0  0  0  0  0  0  0  0  0  0  0  0
  1  2  1  0
  3  4  2  0
  3  2  1  0
  6  5  1  0
  6 16  2  0
  7  6  1  0
  8  7  2  0
  8  9  1  0
  9 15  2  0
 10  9  1  0
 11 10  1  6
 11 12  1  0
 12  3  1  0
 13 24  1  0
 13 11  1  0
 14 13  2  0
 15 16  1  0
 18 28  2  0
 18 17  1  0
 19 18  1  0
 20 21  1  0
 20 19  2  0
 21 27  2  0
 22 21  1  0
 23 22  1  1
 23 24  1  0
 25 29  1  0
 25 23  1  0
 26 25  2  0
 27 28  1  0
M  END
$$$$
