GYY.pdb
     RDKit          3D

 29 30  0  0  1  0  0  0  0  0999 V2000
   14.5134  -23.5289   -5.6378 N   0  0  0  0  0  0  0  0  0  0  0  0
   14.8711  -23.4141   -4.2389 C   0  0  0  0  0  0  0  0  0  0  0  0
   15.3216  -24.7485   -3.7558 C   0  0  0  0  0  0  0  0  0  0  0  0
   14.6488  -25.7851   -3.9911 O   0  0  0  0  0  0  0  0  0  0  0  0
   18.0136  -27.2323   -8.7196 O   0  0  0  0  0  0  0  0  0  0  0  0
   18.0755  -27.0806   -7.3271 C   0  0  0  0  0  0  0  0  0  0  0  0
   18.5502  -25.9319   -6.7417 C   0  0  0  0  0  0  0  0  0  0  0  0
   18.5995  -25.8108   -5.3678 C   0  0  0  0  0  0  0  0  0  0  0  0
   18.1818  -26.8195   -4.5264 C   0  0  0  0  0  0  0  0  0  0  0  0
   18.2520  -26.6450   -3.0687 C   0  0  0  0  0  0  0  0  0  0  0  0
   16.9520  -26.1853   -2.4484 C   0  0  2  0  0  0  0  0  0  0  0  0
   16.5219  -24.9147   -3.0126 N   0  0  0  0  0  0  0  0  0  0  0  0
   16.9871  -26.1365   -0.9722 C   0  0  0  0  0  0  0  0  0  0  0  0
   17.7089  -25.2487   -0.4313 O   0  0  0  0  0  0  0  0  0  0  0  0
   17.7080  -27.9658   -5.1193 C   0  0  0  0  0  0  0  0  0  0  0  0
   17.6524  -28.1023   -6.5063 C   0  0  0  0  0  0  0  0  0  0  0  0
   14.2959  -20.8123    1.0834 O   0  0  0  0  0  0  0  0  0  0  0  0
   14.4661  -22.1960    1.2591 C   0  0  0  0  0  0  0  0  0  0  0  0
   15.2366  -22.6750    2.2821 C   0  0  0  0  0  0  0  0  0  0  0  0
   15.4304  -24.0219    2.4913 C   0  0  0  0  0  0  0  0  0  0  0  0
   14.8272  -24.9224    1.6404 C   0  0  0  0  0  0  0  0  0  0  0  0
   14.9682  -26.3794    1.7656 C   0  0  0  0  0  0  0  0  0  0  0  0
   16.3269  -26.9013    1.3341 C   0  0  2  0  0  0  0  0  0  0  0  0
   16.2812  -26.9962   -0.1156 N   0  0  0  0  0  0  0  0  0  0  0  0
   16.6819  -28.1597    1.9848 C   0  0  0  0  0  0  0  0  0  0  0  0
   16.8225  -28.2834    3.2226 O   0  0  0  0  0  0  0  0  0  0  0  0
   14.0471  -24.4488    0.6043 C   0  0  0  0  0  0  0  0  0  0  0  0
   13.8680  -23.1032    0.4149 C   0  0  0  0  0  0  0  0  0  0  0  0
   16.8800  -29.2960    1.2169 O   0  0  0  0  0  0  0  0  0  0  0  0
  1  2  1  0
  3  4  2  0
  3  2  1  0
  6  5  1  0
  6 16  2  0
  7  6  1  0
  8  7  2  0
  8  9  1  0
  9 15  2  0
 10  9  1  0
 11 10  1  6
 11 12  1  0
 12  3  1  0
 13 24  1  0
 13 11  1  0
 14 13  2  0
 15 16  1  0
 18 28  2  0
 18 17  1  0
 19 18  1  0
 20 21  1  0
 20 19  2  0
 21 27  2  0
 22 21  1  0
 23 22  1  1
 23 24  1  0
 25 29  1  0
 25 23  1  0
 26 25  2  0
 27 28  1  0
M  END
$$$$
