GYY.pdb
     RDKit          3D

 29 30  0  0  1  0  0  0  0  0999 V2000
   27.9177  -24.5584  -16.6682 N   0  0  0  0  0  0  0  0  0  0  0  0
   28.6983  -23.3427  -16.5634 C   0  0  0  0  0  0  0  0  0  0  0  0
   27.8029  -22.2449  -16.1051 C   0  0  0  0  0  0  0  0  0  0  0  0
   26.5537  -22.3333  -16.2248 O   0  0  0  0  0  0  0  0  0  0  0  0
   24.8222  -21.3100   -9.4620 O   0  0  0  0  0  0  0  0  0  0  0  0
   25.5829  -20.8269  -10.5363 C   0  0  0  0  0  0  0  0  0  0  0  0
   26.8838  -21.2189  -10.7397 C   0  0  0  0  0  0  0  0  0  0  0  0
   27.6085  -20.7266  -11.8062 C   0  0  0  0  0  0  0  0  0  0  0  0
   27.0730  -19.8312  -12.7069 C   0  0  0  0  0  0  0  0  0  0  0  0
   27.8828  -19.3347  -13.8285 C   0  0  0  0  0  0  0  0  0  0  0  0
   27.4827  -19.9100  -15.1683 C   0  0  2  0  0  0  0  0  0  0  0  0
   28.3108  -21.0551  -15.5158 N   0  0  0  0  0  0  0  0  0  0  0  0
   27.4589  -18.9108  -16.2563 C   0  0  0  0  0  0  0  0  0  0  0  0
   28.5357  -18.2977  -16.5139 O   0  0  0  0  0  0  0  0  0  0  0  0
   25.7708  -19.4436  -12.4969 C   0  0  0  0  0  0  0  0  0  0  0  0
   25.0264  -19.9328  -11.4236 C   0  0  0  0  0  0  0  0  0  0  0  0
   25.7953  -23.3205  -21.3185 O   0  0  0  0  0  0  0  0  0  0  0  0
   26.1917  -22.0842  -20.7808 C   0  0  0  0  0  0  0  0  0  0  0  0
   25.7246  -20.9149  -21.3139 C   0  0  0  0  0  0  0  0  0  0  0  0
   26.0865  -19.6822  -20.8190 C   0  0  0  0  0  0  0  0  0  0  0  0
   26.9507  -19.6214  -19.7474 C   0  0  0  0  0  0  0  0  0  0  0  0
   27.4076  -18.3633  -19.1416 C   0  0  0  0  0  0  0  0  0  0  0  0
   26.3918  -17.7304  -18.2077 C   0  0  2  0  0  0  0  0  0  0  0  0
   26.3358  -18.5848  -17.0331 N   0  0  0  0  0  0  0  0  0  0  0  0
   25.0903  -17.5305  -18.8396 C   0  0  0  0  0  0  0  0  0  0  0  0
   24.9158  -16.8196  -19.8552 O   0  0  0  0  0  0  0  0  0  0  0  0
   27.4279  -20.7965  -19.2019 C   0  0  0  0  0  0  0  0  0  0  0  0
   27.0541  -22.0129  -19.7110 C   0  0  0  0  0  0  0  0  0  0  0  0
   23.9692  -18.1486  -18.3095 O   0  0  0  0  0  0  0  0  0  0  0  0
  1  2  1  0
  3  4  2  0
  3  2  1  0
  6  5  1  0
  6 16  2  0
  7  6  1  0
  8  7  2  0
  8  9  1  0
  9 15  2  0
 10  9  1  0
 11 10  1  1
 11 12  1  0
 12  3  1  0
 13 24  1  0
 13 11  1  0
 14 13  2  0
 15 16  1  0
 18 28  2  0
 18 17  1  0
 19 18  1  0
 20 21  1  0
 20 19  2  0
 21 27  2  0
 22 21  1  0
 23 22  1  6
 23 24  1  0
 25 29  1  0
 25 23  1  0
 26 25  2  0
 27 28  1  0
M  END
$$$$
