GYY.pdb
     RDKit          3D

 29 30  0  0  1  0  0  0  0  0999 V2000
   27.4246  -16.7025  -18.3499 N   0  0  0  0  0  0  0  0  0  0  0  0
   26.9786  -18.0556  -18.0888 C   0  0  0  0  0  0  0  0  0  0  0  0
   25.4904  -18.0779  -18.1277 C   0  0  0  0  0  0  0  0  0  0  0  0
   24.8288  -17.0172  -18.2693 O   0  0  0  0  0  0  0  0  0  0  0  0
   23.3401  -17.7828  -24.2156 O   0  0  0  0  0  0  0  0  0  0  0  0
   23.2017  -18.3782  -22.9537 C   0  0  0  0  0  0  0  0  0  0  0  0
   24.1963  -19.1477  -22.4004 C   0  0  0  0  0  0  0  0  0  0  0  0
   24.0321  -19.7215  -21.1560 C   0  0  0  0  0  0  0  0  0  0  0  0
   22.8808  -19.5548  -20.4168 C   0  0  0  0  0  0  0  0  0  0  0  0
   22.7512  -20.1845  -19.0951 C   0  0  0  0  0  0  0  0  0  0  0  0
   23.2982  -19.3426  -17.9645 C   0  0  2  0  0  0  0  0  0  0  0  0
   24.7518  -19.2865  -18.0080 N   0  0  0  0  0  0  0  0  0  0  0  0
   22.8134  -19.7572  -16.6319 C   0  0  0  0  0  0  0  0  0  0  0  0
   23.3664  -20.7592  -16.0917 O   0  0  0  0  0  0  0  0  0  0  0  0
   21.8900  -18.7835  -20.9768 C   0  0  0  0  0  0  0  0  0  0  0  0
   22.0420  -18.1974  -22.2334 C   0  0  0  0  0  0  0  0  0  0  0  0
   17.6355  -19.5954   -9.3621 O   0  0  0  0  0  0  0  0  0  0  0  0
   18.4178  -19.2913  -10.4892 C   0  0  0  0  0  0  0  0  0  0  0  0
   19.7565  -19.0458  -10.3578 C   0  0  0  0  0  0  0  0  0  0  0  0
   20.5601  -18.7443  -11.4342 C   0  0  0  0  0  0  0  0  0  0  0  0
   19.9978  -18.6871  -12.6909 C   0  0  0  0  0  0  0  0  0  0  0  0
   20.7574  -18.3705  -13.9080 C   0  0  0  0  0  0  0  0  0  0  0  0
   21.3098  -19.5927  -14.6189 C   0  0  2  0  0  0  0  0  0  0  0  0
   21.7865  -19.1275  -15.9109 N   0  0  0  0  0  0  0  0  0  0  0  0
   20.3365  -20.6771  -14.7182 C   0  0  0  0  0  0  0  0  0  0  0  0
   20.2604  -21.6167  -13.8945 O   0  0  0  0  0  0  0  0  0  0  0  0
   18.6468  -18.9334  -12.8341 C   0  0  0  0  0  0  0  0  0  0  0  0
   17.8657  -19.2318  -11.7481 C   0  0  0  0  0  0  0  0  0  0  0  0
   19.4346  -20.6940  -15.7701 O   0  0  0  0  0  0  0  0  0  0  0  0
  1  2  1  0
  3  4  2  0
  3  2  1  0
  6  5  1  0
  6 16  2  0
  7  6  1  0
  8  7  2  0
  8  9  1  0
  9 15  2  0
 10  9  1  0
 11 10  1  6
 11 12  1  0
 12  3  1  0
 13 24  1  0
 13 11  1  0
 14 13  2  0
 15 16  1  0
 18 28  2  0
 18 17  1  0
 19 18  1  0
 20 21  1  0
 20 19  2  0
 21 27  2  0
 22 21  1  0
 23 22  1  6
 23 24  1  0
 25 29  1  0
 25 23  1  0
 26 25  2  0
 27 28  1  0
M  END
$$$$
