IFL.pdb
     RDKit          3D

 28 28  0  0  1  0  0  0  0  0999 V2000
   27.7017  -18.5677  -17.5615 C   0  0  0  0  0  0  0  0  0  0  0  0
   27.1293  -19.9306  -17.8206 C   0  0  0  0  0  0  0  0  0  0  0  0
   26.1681  -20.4033  -16.7635 C   0  0  2  0  0  0  0  0  0  0  0  0
   24.9367  -19.5184  -16.7821 C   0  0  0  0  0  0  0  0  0  0  0  0
   26.7639  -20.4853  -15.3769 C   0  0  2  0  0  0  0  0  0  0  0  0
   27.8501  -21.5025  -15.4523 N   0  0  0  0  0  0  0  0  0  0  0  0
   25.8548  -20.9524  -14.3346 C   0  0  0  0  0  0  0  0  0  0  0  0
   25.3462  -22.1272  -14.4416 O   0  0  0  0  0  0  0  0  0  0  0  0
   25.4466  -20.2521  -13.1751 N   0  0  0  0  0  0  0  0  0  0  0  0
   24.4522  -20.7348  -12.2508 C   0  0  1  0  0  0  0  0  0  0  0  0
   24.7781  -20.1827  -10.8798 C   0  0  0  0  0  0  0  0  0  0  0  0
   26.1877  -20.4811  -10.5168 C   0  0  0  0  0  0  0  0  0  0  0  0
   27.1078  -19.4626  -10.3405 C   0  0  0  0  0  0  0  0  0  0  0  0
   28.3948  -19.7650  -10.0075 C   0  0  0  0  0  0  0  0  0  0  0  0
   28.7743  -21.0932   -9.8473 C   0  0  0  0  0  0  0  0  0  0  0  0
   27.8439  -22.0941  -10.0271 C   0  0  0  0  0  0  0  0  0  0  0  0
   26.5406  -21.8081  -10.3634 C   0  0  0  0  0  0  0  0  0  0  0  0
   23.0794  -20.3003  -12.5924 C   0  0  0  0  0  0  0  0  0  0  0  0
   22.8142  -19.3850  -13.4045 O   0  0  0  0  0  0  0  0  0  0  0  0
   20.2543  -22.5502  -16.2472 C   0  0  0  0  0  0  0  0  0  0  0  0
   20.4122  -21.4736  -15.2293 C   0  0  1  0  0  0  0  0  0  0  0  0
   19.0256  -20.8641  -15.0214 C   0  0  0  0  0  0  0  0  0  0  0  0
   21.0725  -21.8329  -13.9714 C   0  0  0  0  0  0  0  0  0  0  0  0
   20.7389  -21.1965  -12.6938 C   0  0  2  0  0  0  0  0  0  0  0  0
   22.0056  -20.9693  -11.9542 N   0  0  0  0  0  0  0  0  0  0  0  0
   19.7431  -21.7575  -11.8036 C   0  0  0  0  0  0  0  0  0  0  0  0
   18.4552  -21.3464  -11.5924 O   0  0  0  0  0  0  0  0  0  0  0  0
   20.0808  -22.7848  -11.0891 O   0  0  0  0  0  0  0  0  0  0  0  0
  2  1  1  0
  3  2  1  0
  3  4  1  1
  5  3  1  0
  5  6  1  6
  7  5  1  0
  8  7  2  0
  9  7  1  0
 10  9  1  0
 11 12  1  0
 10 11  1  1
 12 13  2  0
 13 14  1  0
 15 14  2  0
 16 15  1  0
 17 12  1  0
 17 16  2  0
 18 10  1  0
 18 19  2  0
 21 20  1  6
 22 21  1  0
 24 23  1  6
 23 21  1  0
 24 25  1  0
 25 18  1  0
 26 24  1  0
 27 26  1  0
 28 26  2  0
M  END
$$$$
