IFL.pdb
     RDKit          3D

 28 28  0  0  1  0  0  0  0  0999 V2000
   26.6685  -23.7275  -19.3678 C   0  0  0  0  0  0  0  0  0  0  0  0
   26.2563  -24.8300  -18.4368 C   0  0  0  0  0  0  0  0  0  0  0  0
   27.2610  -25.9448  -18.3235 C   0  0  2  0  0  0  0  0  0  0  0  0
   27.6131  -26.4375  -19.7138 C   0  0  0  0  0  0  0  0  0  0  0  0
   26.8237  -27.0843  -17.4320 C   0  0  2  0  0  0  0  0  0  0  0  0
   26.8546  -26.5558  -16.0392 N   0  0  0  0  0  0  0  0  0  0  0  0
   27.7028  -28.2496  -17.4336 C   0  0  0  0  0  0  0  0  0  0  0  0
   28.7728  -28.2154  -16.7235 O   0  0  0  0  0  0  0  0  0  0  0  0
   27.5212  -29.4604  -18.1425 N   0  0  0  0  0  0  0  0  0  0  0  0
   28.4304  -30.5764  -18.0769 C   0  0  1  0  0  0  0  0  0  0  0  0
   27.6168  -31.8321  -17.8487 C   0  0  0  0  0  0  0  0  0  0  0  0
   27.1559  -31.9082  -16.4382 C   0  0  0  0  0  0  0  0  0  0  0  0
   25.8501  -31.6005  -16.0988 C   0  0  0  0  0  0  0  0  0  0  0  0
   25.4541  -31.6790  -14.7967 C   0  0  0  0  0  0  0  0  0  0  0  0
   26.3636  -32.0671  -13.8190 C   0  0  0  0  0  0  0  0  0  0  0  0
   27.6600  -32.3696  -14.1761 C   0  0  0  0  0  0  0  0  0  0  0  0
   28.0779  -32.2962  -15.4851 C   0  0  0  0  0  0  0  0  0  0  0  0
   29.2083  -30.7682  -19.3211 C   0  0  0  0  0  0  0  0  0  0  0  0
   28.8680  -30.3175  -20.4386 O   0  0  0  0  0  0  0  0  0  0  0  0
   34.6378  -30.2256  -19.2849 C   0  0  0  0  0  0  0  0  0  0  0  0
   33.1997  -30.2572  -19.6735 C   0  0  1  0  0  0  0  0  0  0  0  0
   33.0119  -29.1743  -20.7361 C   0  0  0  0  0  0  0  0  0  0  0  0
   32.6422  -31.5522  -20.0729 C   0  0  0  0  0  0  0  0  0  0  0  0
   31.2354  -31.7257  -20.4461 C   0  0  2  0  0  0  0  0  0  0  0  0
   30.4122  -31.5100  -19.2299 N   0  0  0  0  0  0  0  0  0  0  0  0
   30.7764  -32.9070  -21.1479 C   0  0  0  0  0  0  0  0  0  0  0  0
   29.9220  -33.8831  -20.7125 O   0  0  0  0  0  0  0  0  0  0  0  0
   31.2161  -33.1049  -22.3509 O   0  0  0  0  0  0  0  0  0  0  0  0
  2  1  1  0
  3  2  1  0
  3  4  1  6
  5  3  1  0
  5  6  1  1
  7  5  1  0
  8  7  2  0
  9  7  1  0
 10  9  1  0
 11 12  1  0
 10 11  1  6
 12 13  2  0
 13 14  1  0
 15 14  2  0
 16 15  1  0
 17 12  1  0
 17 16  2  0
 18 10  1  0
 18 19  2  0
 21 20  1  6
 22 21  1  0
 24 23  1  1
 23 21  1  0
 24 25  1  0
 25 18  1  0
 26 24  1  0
 27 26  1  0
 28 26  2  0
M  END
$$$$
