IFL.pdb
     RDKit          3D

 28 28  0  0  1  0  0  0  0  0999 V2000
   19.5076  -15.4826  -19.1684 C   0  0  0  0  0  0  0  0  0  0  0  0
   19.2841  -14.6188  -17.9617 C   0  0  0  0  0  0  0  0  0  0  0  0
   19.7661  -13.2024  -18.1235 C   0  0  2  0  0  0  0  0  0  0  0  0
   21.2383  -13.2184  -18.4868 C   0  0  0  0  0  0  0  0  0  0  0  0
   19.5064  -12.3192  -16.9247 C   0  0  2  0  0  0  0  0  0  0  0  0
   18.0428  -12.4023  -16.6583 N   0  0  0  0  0  0  0  0  0  0  0  0
   19.7938  -10.9015  -17.1212 C   0  0  0  0  0  0  0  0  0  0  0  0
   20.9896  -10.5529  -17.4356 O   0  0  0  0  0  0  0  0  0  0  0  0
   18.8900   -9.8191  -17.0076 N   0  0  0  0  0  0  0  0  0  0  0  0
   19.2774   -8.4338  -17.0926 C   0  0  1  0  0  0  0  0  0  0  0  0
   18.2222   -7.6992  -17.8912 C   0  0  0  0  0  0  0  0  0  0  0  0
   18.3038   -8.0662  -19.3287 C   0  0  0  0  0  0  0  0  0  0  0  0
   19.2039   -7.4399  -20.1728 C   0  0  0  0  0  0  0  0  0  0  0  0
   19.2575   -7.7965  -21.4876 C   0  0  0  0  0  0  0  0  0  0  0  0
   18.4086   -8.7858  -21.9715 C   0  0  0  0  0  0  0  0  0  0  0  0
   17.5186   -9.3983  -21.1156 C   0  0  0  0  0  0  0  0  0  0  0  0
   17.4501   -9.0518  -19.7857 C   0  0  0  0  0  0  0  0  0  0  0  0
   19.3772   -7.7745  -15.7715 C   0  0  0  0  0  0  0  0  0  0  0  0
   18.6554   -8.0586  -14.7886 O   0  0  0  0  0  0  0  0  0  0  0  0
   23.3795   -7.5759  -13.3580 C   0  0  0  0  0  0  0  0  0  0  0  0
   22.0247   -8.1793  -13.5013 C   0  0  1  0  0  0  0  0  0  0  0  0
   21.9768   -9.3735  -12.5479 C   0  0  0  0  0  0  0  0  0  0  0  0
   20.8738   -7.2842  -13.3538 C   0  0  0  0  0  0  0  0  0  0  0  0
   20.6089   -6.1786  -14.2791 C   0  0  2  0  0  0  0  0  0  0  0  0
   20.3544   -6.7595  -15.6211 N   0  0  0  0  0  0  0  0  0  0  0  0
   21.5122   -5.0519  -14.3939 C   0  0  0  0  0  0  0  0  0  0  0  0
   21.8986   -4.1629  -13.4280 O   0  0  0  0  0  0  0  0  0  0  0  0
   22.0424   -4.8173  -15.5531 O   0  0  0  0  0  0  0  0  0  0  0  0
  2  1  1  0
  3  2  1  0
  3  4  1  1
  5  3  1  0
  5  6  1  6
  7  5  1  0
  8  7  2  0
  9  7  1  0
 10  9  1  0
 11 12  1  0
 10 11  1  6
 12 13  2  0
 13 14  1  0
 15 14  2  0
 16 15  1  0
 17 12  1  0
 17 16  2  0
 18 10  1  0
 18 19  2  0
 21 20  1  1
 22 21  1  0
 24 23  1  1
 23 21  1  0
 24 25  1  0
 25 18  1  0
 26 24  1  0
 27 26  1  0
 28 26  2  0
M  END
$$$$
