IFL.pdb
     RDKit          3D

 28 28  0  0  1  0  0  0  0  0999 V2000
   29.2094  -19.3852  -19.8930 C   0  0  0  0  0  0  0  0  0  0  0  0
   28.6186  -18.6429  -18.7303 C   0  0  0  0  0  0  0  0  0  0  0  0
   27.8079  -19.5049  -17.8004 C   0  0  2  0  0  0  0  0  0  0  0  0
   26.8195  -20.3179  -18.6138 C   0  0  0  0  0  0  0  0  0  0  0  0
   27.1131  -18.7415  -16.6963 C   0  0  2  0  0  0  0  0  0  0  0  0
   28.1774  -17.9742  -15.9901 N   0  0  0  0  0  0  0  0  0  0  0  0
   26.4746  -19.5660  -15.6748 C   0  0  0  0  0  0  0  0  0  0  0  0
   26.0190  -20.7194  -16.0100 O   0  0  0  0  0  0  0  0  0  0  0  0
   26.2867  -19.2478  -14.3092 N   0  0  0  0  0  0  0  0  0  0  0  0
   25.5200  -20.0529  -13.3926 C   0  0  1  0  0  0  0  0  0  0  0  0
   26.0461  -19.8037  -11.9955 C   0  0  0  0  0  0  0  0  0  0  0  0
   27.4685  -20.2200  -11.8897 C   0  0  0  0  0  0  0  0  0  0  0  0
   27.8216  -21.3858  -11.2329 C   0  0  0  0  0  0  0  0  0  0  0  0
   29.1344  -21.7439  -11.1510 C   0  0  0  0  0  0  0  0  0  0  0  0
   30.1092  -20.9366  -11.7270 C   0  0  0  0  0  0  0  0  0  0  0  0
   29.7384  -19.7792  -12.3771 C   0  0  0  0  0  0  0  0  0  0  0  0
   28.4184  -19.4015  -12.4700 C   0  0  0  0  0  0  0  0  0  0  0  0
   24.0777  -19.7219  -13.3923 C   0  0  0  0  0  0  0  0  0  0  0  0
   23.6245  -18.5567  -13.3232 O   0  0  0  0  0  0  0  0  0  0  0  0
   20.4335  -20.0199  -17.3754 C   0  0  0  0  0  0  0  0  0  0  0  0
   20.8159  -19.3876  -16.0816 C   0  0  1  0  0  0  0  0  0  0  0  0
   19.5405  -19.3068  -15.2426 C   0  0  0  0  0  0  0  0  0  0  0  0
   21.9418  -19.9794  -15.3539 C   0  0  0  0  0  0  0  0  0  0  0  0
   21.7991  -20.5641  -14.0173 C   0  0  2  0  0  0  0  0  0  0  0  0
   23.1611  -20.7993  -13.4759 N   0  0  0  0  0  0  0  0  0  0  0  0
   20.9686  -21.7276  -13.7826 C   0  0  0  0  0  0  0  0  0  0  0  0
   19.6753  -21.7804  -13.3387 O   0  0  0  0  0  0  0  0  0  0  0  0
   21.4858  -22.8949  -14.0059 O   0  0  0  0  0  0  0  0  0  0  0  0
  2  1  1  0
  3  2  1  0
  3  4  1  6
  5  3  1  0
  5  6  1  1
  7  5  1  0
  8  7  2  0
  9  7  1  0
 10  9  1  0
 11 12  1  0
 10 11  1  1
 12 13  2  0
 13 14  1  0
 15 14  2  0
 16 15  1  0
 17 12  1  0
 17 16  2  0
 18 10  1  0
 18 19  2  0
 21 20  1  6
 22 21  1  0
 24 23  1  6
 23 21  1  0
 24 25  1  0
 25 18  1  0
 26 24  1  0
 27 26  1  0
 28 26  2  0
M  END
$$$$
