IFL.pdb
     RDKit          3D

 28 28  0  0  1  0  0  0  0  0999 V2000
   22.2454  -23.3906  -20.1258 C   0  0  0  0  0  0  0  0  0  0  0  0
   23.7055  -23.0700  -19.9937 C   0  0  0  0  0  0  0  0  0  0  0  0
   24.2045  -23.0566  -18.5739 C   0  0  2  0  0  0  0  0  0  0  0  0
   23.3400  -22.1187  -17.7538 C   0  0  0  0  0  0  0  0  0  0  0  0
   25.6700  -22.7137  -18.4358 C   0  0  2  0  0  0  0  0  0  0  0  0
   26.4216  -23.8970  -18.9407 N   0  0  0  0  0  0  0  0  0  0  0  0
   26.1345  -22.5029  -17.0681 C   0  0  0  0  0  0  0  0  0  0  0  0
   26.3718  -23.5292  -16.3328 O   0  0  0  0  0  0  0  0  0  0  0  0
   26.3684  -21.2660  -16.4224 N   0  0  0  0  0  0  0  0  0  0  0  0
   26.7340  -21.1383  -15.0345 C   0  0  1  0  0  0  0  0  0  0  0  0
   27.7955  -20.0649  -14.9254 C   0  0  0  0  0  0  0  0  0  0  0  0
   28.3740  -20.0378  -13.5570 C   0  0  0  0  0  0  0  0  0  0  0  0
   29.3257  -20.9641  -13.1685 C   0  0  0  0  0  0  0  0  0  0  0  0
   29.8398  -20.9159  -11.9067 C   0  0  0  0  0  0  0  0  0  0  0  0
   29.4050  -19.9375  -11.0193 C   0  0  0  0  0  0  0  0  0  0  0  0
   28.4563  -19.0234  -11.4243 C   0  0  0  0  0  0  0  0  0  0  0  0
   27.9261  -19.0564  -12.6937 C   0  0  0  0  0  0  0  0  0  0  0  0
   25.6030  -20.7375  -14.1684 C   0  0  0  0  0  0  0  0  0  0  0  0
   24.7958  -19.8217  -14.4465 O   0  0  0  0  0  0  0  0  0  0  0  0
   26.7693  -22.1642  -10.2692 C   0  0  0  0  0  0  0  0  0  0  0  0
   25.5364  -21.4570   -9.8223 C   0  0  1  0  0  0  0  0  0  0  0  0
   25.8951  -20.7350   -8.5234 C   0  0  0  0  0  0  0  0  0  0  0  0
   24.8741  -20.5851  -10.7963 C   0  0  0  0  0  0  0  0  0  0  0  0
   24.3063  -21.0890  -12.0502 C   0  0  2  0  0  0  0  0  0  0  0  0
   25.4327  -21.4414  -12.9505 N   0  0  0  0  0  0  0  0  0  0  0  0
   23.3050  -20.3423  -12.7841 C   0  0  0  0  0  0  0  0  0  0  0  0
   23.4236  -19.1241  -13.3958 O   0  0  0  0  0  0  0  0  0  0  0  0
   22.1227  -20.8619  -12.8934 O   0  0  0  0  0  0  0  0  0  0  0  0
  2  1  1  0
  3  2  1  0
  3  4  1  1
  5  3  1  0
  5  6  1  1
  7  5  1  0
  8  7  2  0
  9  7  1  0
 10  9  1  0
 11 12  1  0
 10 11  1  6
 12 13  2  0
 13 14  1  0
 15 14  2  0
 16 15  1  0
 17 12  1  0
 17 16  2  0
 18 10  1  0
 18 19  2  0
 21 20  1  6
 22 21  1  0
 24 23  1  1
 23 21  1  0
 24 25  1  0
 25 18  1  0
 26 24  1  0
 27 26  1  0
 28 26  2  0
M  END
$$$$
