IFL.pdb
     RDKit          3D

 28 28  0  0  1  0  0  0  0  0999 V2000
   33.5297  -22.6319   -9.9846 C   0  0  0  0  0  0  0  0  0  0  0  0
   32.7826  -22.5902  -11.2855 C   0  0  0  0  0  0  0  0  0  0  0  0
   31.4397  -21.9161  -11.2002 C   0  0  2  0  0  0  0  0  0  0  0  0
   30.6401  -22.5452  -10.0756 C   0  0  0  0  0  0  0  0  0  0  0  0
   30.6614  -21.9201  -12.4958 C   0  0  2  0  0  0  0  0  0  0  0  0
   31.4656  -21.1234  -13.4646 N   0  0  0  0  0  0  0  0  0  0  0  0
   29.3540  -21.2734  -12.4393 C   0  0  0  0  0  0  0  0  0  0  0  0
   29.3032  -19.9944  -12.3302 O   0  0  0  0  0  0  0  0  0  0  0  0
   28.0852  -21.8969  -12.4933 N   0  0  0  0  0  0  0  0  0  0  0  0
   26.8367  -21.1995  -12.3171 C   0  0  1  0  0  0  0  0  0  0  0  0
   25.9017  -21.6222  -13.4297 C   0  0  0  0  0  0  0  0  0  0  0  0
   24.6333  -20.8506  -13.3692 C   0  0  0  0  0  0  0  0  0  0  0  0
   24.5815  -19.5328  -13.7881 C   0  0  0  0  0  0  0  0  0  0  0  0
   23.4043  -18.8485  -13.7216 C   0  0  0  0  0  0  0  0  0  0  0  0
   22.2644  -19.4782  -13.2340 C   0  0  0  0  0  0  0  0  0  0  0  0
   22.3353  -20.7914  -12.8213 C   0  0  0  0  0  0  0  0  0  0  0  0
   23.5146  -21.4980  -12.8809 C   0  0  0  0  0  0  0  0  0  0  0  0
   26.1715  -21.5107  -11.0324 C   0  0  0  0  0  0  0  0  0  0  0  0
   25.9714  -22.6716  -10.6083 O   0  0  0  0  0  0  0  0  0  0  0  0
   27.2472  -18.5020   -6.5345 C   0  0  0  0  0  0  0  0  0  0  0  0
   26.8626  -19.6727   -7.3722 C   0  0  1  0  0  0  0  0  0  0  0  0
   27.0911  -20.9166   -6.5132 C   0  0  0  0  0  0  0  0  0  0  0  0
   25.5362  -19.6441   -7.9945 C   0  0  0  0  0  0  0  0  0  0  0  0
   25.0818  -20.6733   -8.9341 C   0  0  2  0  0  0  0  0  0  0  0  0
   25.7381  -20.4182  -10.2407 N   0  0  0  0  0  0  0  0  0  0  0  0
   23.6738  -20.9482   -9.1361 C   0  0  0  0  0  0  0  0  0  0  0  0
   22.8679  -21.8254   -8.4626 O   0  0  0  0  0  0  0  0  0  0  0  0
   23.0599  -20.3005  -10.0760 O   0  0  0  0  0  0  0  0  0  0  0  0
  2  1  1  0
  3  2  1  0
  3  4  1  1
  5  3  1  0
  5  6  1  6
  7  5  1  0
  8  7  2  0
  9  7  1  0
 10  9  1  0
 11 12  1  0
 10 11  1  6
 12 13  2  0
 13 14  1  0
 15 14  2  0
 16 15  1  0
 17 12  1  0
 17 16  2  0
 18 10  1  0
 18 19  2  0
 21 20  1  1
 22 21  1  0
 24 23  1  1
 23 21  1  0
 24 25  1  0
 25 18  1  0
 26 24  1  0
 27 26  1  0
 28 26  2  0
M  END
$$$$
