IFL.pdb
     RDKit          3D

 28 28  0  0  1  0  0  0  0  0999 V2000
   19.9902  -20.8623  -15.5857 C   0  0  0  0  0  0  0  0  0  0  0  0
   19.8079  -20.1608  -14.2716 C   0  0  0  0  0  0  0  0  0  0  0  0
   21.0925  -19.6925  -13.6430 C   0  0  2  0  0  0  0  0  0  0  0  0
   21.6297  -18.5143  -14.4323 C   0  0  0  0  0  0  0  0  0  0  0  0
   22.1378  -20.7736  -13.4912 C   0  0  2  0  0  0  0  0  0  0  0  0
   21.4924  -21.8671  -12.7116 N   0  0  0  0  0  0  0  0  0  0  0  0
   23.3239  -20.3913  -12.7311 C   0  0  0  0  0  0  0  0  0  0  0  0
   24.0115  -19.3815  -13.1282 O   0  0  0  0  0  0  0  0  0  0  0  0
   23.8337  -21.0122  -11.5665 N   0  0  0  0  0  0  0  0  0  0  0  0
   25.0743  -20.6425  -10.9338 C   0  0  1  0  0  0  0  0  0  0  0  0
   25.0942  -21.2506   -9.5480 C   0  0  0  0  0  0  0  0  0  0  0  0
   26.1720  -20.6433   -8.7251 C   0  0  0  0  0  0  0  0  0  0  0  0
   25.9799  -19.4332   -8.0819 C   0  0  0  0  0  0  0  0  0  0  0  0
   26.9861  -18.8989   -7.3332 C   0  0  0  0  0  0  0  0  0  0  0  0
   28.1975  -19.5723   -7.2205 C   0  0  0  0  0  0  0  0  0  0  0  0
   28.3704  -20.7766   -7.8684 C   0  0  0  0  0  0  0  0  0  0  0  0
   27.3664  -21.3313   -8.6285 C   0  0  0  0  0  0  0  0  0  0  0  0
   26.2671  -21.1379  -11.6560 C   0  0  0  0  0  0  0  0  0  0  0  0
   26.4270  -22.3266  -12.0154 O   0  0  0  0  0  0  0  0  0  0  0  0
   28.0064  -18.2565  -15.8838 C   0  0  0  0  0  0  0  0  0  0  0  0
   27.7070  -19.3711  -14.9414 C   0  0  1  0  0  0  0  0  0  0  0  0
   27.5330  -20.6278  -15.7945 C   0  0  0  0  0  0  0  0  0  0  0  0
   28.6294  -19.5656  -13.8195 C   0  0  0  0  0  0  0  0  0  0  0  0
   28.4321  -20.6054  -12.8053 C   0  0  2  0  0  0  0  0  0  0  0  0
   27.2858  -20.1991  -11.9543 N   0  0  0  0  0  0  0  0  0  0  0  0
   29.5226  -21.0702  -11.9727 C   0  0  0  0  0  0  0  0  0  0  0  0
   30.5416  -21.9246  -12.2954 O   0  0  0  0  0  0  0  0  0  0  0  0
   29.5718  -20.6471  -10.7486 O   0  0  0  0  0  0  0  0  0  0  0  0
  2  1  1  0
  3  2  1  0
  3  4  1  6
  5  3  1  0
  5  6  1  1
  7  5  1  0
  8  7  2  0
  9  7  1  0
 10  9  1  0
 11 12  1  0
 10 11  1  1
 12 13  2  0
 13 14  1  0
 15 14  2  0
 16 15  1  0
 17 12  1  0
 17 16  2  0
 18 10  1  0
 18 19  2  0
 21 20  1  6
 22 21  1  0
 24 23  1  1
 23 21  1  0
 24 25  1  0
 25 18  1  0
 26 24  1  0
 27 26  1  0
 28 26  2  0
M  END
$$$$
