IFL.pdb
     RDKit          3D

 28 28  0  0  1  0  0  0  0  0999 V2000
   12.0230  -11.2576  -16.5305 C   0  0  0  0  0  0  0  0  0  0  0  0
   13.0454  -10.3275  -17.1153 C   0  0  0  0  0  0  0  0  0  0  0  0
   14.2333  -10.0834  -16.2242 C   0  0  2  0  0  0  0  0  0  0  0  0
   13.7516   -9.5301  -14.8969 C   0  0  0  0  0  0  0  0  0  0  0  0
   15.2942   -9.1972  -16.8355 C   0  0  2  0  0  0  0  0  0  0  0  0
   15.6021   -9.7809  -18.1714 N   0  0  0  0  0  0  0  0  0  0  0  0
   16.5644   -9.1593  -16.1171 C   0  0  0  0  0  0  0  0  0  0  0  0
   16.5743   -8.7343  -14.9048 O   0  0  0  0  0  0  0  0  0  0  0  0
   17.8359   -9.5470  -16.6012 N   0  0  0  0  0  0  0  0  0  0  0  0
   19.0623   -9.3881  -15.8616 C   0  0  1  0  0  0  0  0  0  0  0  0
   20.0566  -10.4062  -16.3768 C   0  0  0  0  0  0  0  0  0  0  0  0
   21.3723  -10.2385  -15.7070 C   0  0  0  0  0  0  0  0  0  0  0  0
   21.6460  -10.8724  -14.5077 C   0  0  0  0  0  0  0  0  0  0  0  0
   22.8618  -10.7010  -13.9151 C   0  0  0  0  0  0  0  0  0  0  0  0
   23.8178   -9.8915  -14.5186 C   0  0  0  0  0  0  0  0  0  0  0  0
   23.5271   -9.2683  -15.7132 C   0  0  0  0  0  0  0  0  0  0  0  0
   22.3057   -9.4294  -16.3261 C   0  0  0  0  0  0  0  0  0  0  0  0
   19.6705   -8.0487  -16.0225 C   0  0  0  0  0  0  0  0  0  0  0  0
   19.8738   -7.4980  -17.1284 O   0  0  0  0  0  0  0  0  0  0  0  0
   18.9318   -2.6168  -15.2582 C   0  0  0  0  0  0  0  0  0  0  0  0
   20.0642   -3.5790  -15.1487 C   0  0  1  0  0  0  0  0  0  0  0  0
   20.9715   -3.0586  -14.0337 C   0  0  0  0  0  0  0  0  0  0  0  0
   19.7261   -4.9966  -14.9953 C   0  0  0  0  0  0  0  0  0  0  0  0
   20.7432   -6.0511  -14.9499 C   0  0  2  0  0  0  0  0  0  0  0  0
   20.0421   -7.3551  -14.8440 N   0  0  0  0  0  0  0  0  0  0  0  0
   21.8423   -6.0055  -14.0073 C   0  0  0  0  0  0  0  0  0  0  0  0
   21.8924   -6.4861  -12.7271 O   0  0  0  0  0  0  0  0  0  0  0  0
   22.9424   -5.4356  -14.3880 O   0  0  0  0  0  0  0  0  0  0  0  0
  2  1  1  0
  3  2  1  0
  3  4  1  1
  5  3  1  0
  5  6  1  6
  7  5  1  0
  8  7  2  0
  9  7  1  0
 10  9  1  0
 11 12  1  0
 10 11  1  6
 12 13  2  0
 13 14  1  0
 15 14  2  0
 16 15  1  0
 17 12  1  0
 17 16  2  0
 18 10  1  0
 18 19  2  0
 21 20  1  1
 22 21  1  0
 24 23  1  1
 23 21  1  0
 24 25  1  0
 25 18  1  0
 26 24  1  0
 27 26  1  0
 28 26  2  0
M  END
$$$$
