MNL.pdb
     RDKit          3D

 25 24  0  0  1  0  0  0  0  0999 V2000
   30.0601  -20.2959  -17.4530 C   0  0  0  0  0  0  0  0  0  0  0  0
   28.4929  -19.4275  -17.3624 S   0  0  0  0  0  0  0  0  0  0  0  0
   27.1574  -20.5877  -16.9320 C   0  0  0  0  0  0  0  0  0  0  0  0
   27.4355  -21.9003  -17.6328 C   0  0  0  0  0  0  0  0  0  0  0  0
   26.3273  -22.8996  -17.3498 C   0  0  2  0  0  0  0  0  0  0  0  0
   26.1120  -22.8842  -15.9151 N   0  0  0  0  0  0  0  0  0  0  0  0
   26.8354  -24.2537  -17.7761 C   0  0  0  0  0  0  0  0  0  0  0  0
   27.3796  -24.3620  -18.9102 O   0  0  0  0  0  0  0  0  0  0  0  0
   30.4871  -25.9964  -15.4494 N   0  0  0  0  0  0  0  0  0  0  0  0
   29.6493  -26.3542  -16.5388 C   0  0  0  0  0  0  0  0  0  0  0  0
   30.0260  -26.0314  -17.6905 O   0  0  0  0  0  0  0  0  0  0  0  0
   28.3751  -27.0813  -16.3410 C   0  0  0  0  0  0  0  0  0  0  0  0
   27.3114  -26.6443  -17.3008 C   0  0  2  0  0  0  0  0  0  0  0  0
   26.7177  -25.3839  -16.9485 N   0  0  0  0  0  0  0  0  0  0  0  0
   26.2676  -27.7070  -17.4794 C   0  0  0  0  0  0  0  0  0  0  0  0
   25.2785  -27.7474  -16.7050 O   0  0  0  0  0  0  0  0  0  0  0  0
   23.4053  -28.9524  -20.9650 C   0  0  0  0  0  0  0  0  0  0  0  0
   24.7845  -29.4711  -21.0076 C   0  0  2  0  0  0  0  0  0  0  0  0
   24.9860  -30.1809  -22.3798 C   0  0  0  0  0  0  0  0  0  0  0  0
   25.3134  -30.3055  -19.9226 C   0  0  0  0  0  0  0  0  0  0  0  0
   25.3110  -29.7481  -18.5599 C   0  0  2  0  0  0  0  0  0  0  0  0
   26.3601  -28.6771  -18.5023 N   0  0  0  0  0  0  0  0  0  0  0  0
   25.7068  -30.6906  -17.5158 C   0  0  0  0  0  0  0  0  0  0  0  0
   26.8678  -30.7461  -17.0638 O   0  0  0  0  0  0  0  0  0  0  0  0
   24.7241  -31.5744  -16.9997 O   0  0  0  0  0  0  0  0  0  0  0  0
  2  1  1  0
  3  2  1  0
  4  3  1  0
  5  4  1  0
  5  6  1  1
  7  8  2  0
  7  5  1  0
  9 10  1  0
 10 12  1  0
 10 11  2  0
 13 12  1  1
 13 14  1  0
 14  7  1  0
 15 16  2  0
 15 13  1  0
 18 17  1  1
 18 20  1  0
 18 19  1  0
 21 20  1  6
 21 22  1  0
 22 15  1  0
 23 21  1  0
 24 23  2  0
 25 23  1  0
M  END
$$$$
