MNL.pdb
     RDKit          3D

 25 24  0  0  1  0  0  0  0  0999 V2000
   22.7097  -14.5593  -14.7850 C   0  0  0  0  0  0  0  0  0  0  0  0
   22.8112  -14.7571  -16.5651 S   0  0  0  0  0  0  0  0  0  0  0  0
   21.1486  -14.6658  -17.3017 C   0  0  0  0  0  0  0  0  0  0  0  0
   20.6607  -13.2382  -17.1774 C   0  0  0  0  0  0  0  0  0  0  0  0
   19.2267  -13.1219  -17.6642 C   0  0  2  0  0  0  0  0  0  0  0  0
   19.2171  -13.5857  -19.0388 N   0  0  0  0  0  0  0  0  0  0  0  0
   18.8620  -11.6597  -17.6154 C   0  0  0  0  0  0  0  0  0  0  0  0
   19.0497  -10.9583  -18.6483 O   0  0  0  0  0  0  0  0  0  0  0  0
   15.3610   -7.3699  -14.9403 N   0  0  0  0  0  0  0  0  0  0  0  0
   16.4315   -7.9116  -15.7001 C   0  0  0  0  0  0  0  0  0  0  0  0
   17.0847   -7.1241  -16.4251 O   0  0  0  0  0  0  0  0  0  0  0  0
   16.7778   -9.3499  -15.6504 C   0  0  0  0  0  0  0  0  0  0  0  0
   18.0421   -9.6605  -16.3912 C   0  0  2  0  0  0  0  0  0  0  0  0
   18.3244  -11.0679  -16.4590 N   0  0  0  0  0  0  0  0  0  0  0  0
   19.2054   -8.8983  -15.8285 C   0  0  0  0  0  0  0  0  0  0  0  0
   19.0333   -7.7366  -15.3806 O   0  0  0  0  0  0  0  0  0  0  0  0
   22.1589  -10.4542  -12.5712 C   0  0  0  0  0  0  0  0  0  0  0  0
   22.5378  -10.6752  -13.9786 C   0  0  2  0  0  0  0  0  0  0  0  0
   23.7864  -11.6070  -13.9968 C   0  0  0  0  0  0  0  0  0  0  0  0
   22.7339   -9.5468  -14.8959 C   0  0  0  0  0  0  0  0  0  0  0  0
   21.5939   -8.6464  -15.1352 C   0  0  2  0  0  0  0  0  0  0  0  0
   20.5055   -9.4495  -15.7844 N   0  0  0  0  0  0  0  0  0  0  0  0
   21.8578   -7.5696  -16.0872 C   0  0  0  0  0  0  0  0  0  0  0  0
   22.5416   -6.5676  -15.7977 O   0  0  0  0  0  0  0  0  0  0  0  0
   21.3111   -7.6765  -17.3921 O   0  0  0  0  0  0  0  0  0  0  0  0
  2  1  1  0
  3  2  1  0
  4  3  1  0
  5  4  1  0
  5  6  1  6
  7  8  2  0
  7  5  1  0
  9 10  1  0
 10 12  1  0
 10 11  2  0
 13 12  1  1
 13 14  1  0
 14  7  1  0
 15 16  2  0
 15 13  1  0
 18 17  1  1
 18 20  1  0
 18 19  1  0
 21 20  1  6
 21 22  1  0
 22 15  1  0
 23 21  1  0
 24 23  2  0
 25 23  1  0
M  END
$$$$
