MNL.pdb
     RDKit          3D

 25 24  0  0  1  0  0  0  0  0999 V2000
   27.2566  -18.7997   -8.0803 C   0  0  0  0  0  0  0  0  0  0  0  0
   26.9413  -20.5571   -7.9058 S   0  0  0  0  0  0  0  0  0  0  0  0
   27.4066  -21.4320   -9.4333 C   0  0  0  0  0  0  0  0  0  0  0  0
   26.1382  -21.7396  -10.2000 C   0  0  0  0  0  0  0  0  0  0  0  0
   26.2633  -21.2792  -11.6419 C   0  0  2  0  0  0  0  0  0  0  0  0
   26.5413  -19.8559  -11.5996 N   0  0  0  0  0  0  0  0  0  0  0  0
   24.9277  -21.5200  -12.2989 C   0  0  0  0  0  0  0  0  0  0  0  0
   24.5917  -22.7086  -12.5602 O   0  0  0  0  0  0  0  0  0  0  0  0
   19.9442  -22.2947  -13.4789 N   0  0  0  0  0  0  0  0  0  0  0  0
   20.3672  -20.9949  -13.0937 C   0  0  0  0  0  0  0  0  0  0  0  0
   19.6179  -20.0318  -13.3831 O   0  0  0  0  0  0  0  0  0  0  0  0
   21.6419  -20.7665  -12.3767 C   0  0  0  0  0  0  0  0  0  0  0  0
   22.8149  -20.6884  -13.3050 C   0  0  2  0  0  0  0  0  0  0  0  0
   24.0595  -20.4628  -12.6226 N   0  0  0  0  0  0  0  0  0  0  0  0
   22.5916  -19.6678  -14.3818 C   0  0  0  0  0  0  0  0  0  0  0  0
   22.7181  -18.4452  -14.1196 O   0  0  0  0  0  0  0  0  0  0  0  0
   23.0699  -18.7882  -20.3197 C   0  0  0  0  0  0  0  0  0  0  0  0
   23.1028  -18.2888  -18.9331 C   0  0  2  0  0  0  0  0  0  0  0  0
   24.3150  -17.3187  -18.8031 C   0  0  0  0  0  0  0  0  0  0  0  0
   23.0691  -19.2136  -17.7944 C   0  0  0  0  0  0  0  0  0  0  0  0
   22.0906  -18.9557  -16.7250 C   0  0  2  0  0  0  0  0  0  0  0  0
   22.2391  -20.0397  -15.6984 N   0  0  0  0  0  0  0  0  0  0  0  0
   20.6934  -19.0497  -17.1423 C   0  0  0  0  0  0  0  0  0  0  0  0
   20.0369  -20.1072  -17.0637 O   0  0  0  0  0  0  0  0  0  0  0  0
   20.0649  -17.8858  -17.6557 O   0  0  0  0  0  0  0  0  0  0  0  0
  2  1  1  0
  3  2  1  0
  4  3  1  0
  5  4  1  0
  5  6  1  1
  7  8  2  0
  7  5  1  0
  9 10  1  0
 10 12  1  0
 10 11  2  0
 13 12  1  1
 13 14  1  0
 14  7  1  0
 15 16  2  0
 15 13  1  0
 18 17  1  6
 18 20  1  0
 18 19  1  0
 21 20  1  6
 21 22  1  0
 22 15  1  0
 23 21  1  0
 24 23  2  0
 25 23  1  0
M  END
$$$$
