MNL.pdb
     RDKit          3D

 25 24  0  0  1  0  0  0  0  0999 V2000
   27.1958  -22.4112  -22.9335 C   0  0  0  0  0  0  0  0  0  0  0  0
   25.9223  -21.1717  -23.1791 S   0  0  0  0  0  0  0  0  0  0  0  0
   25.6830  -20.2081  -21.6530 C   0  0  0  0  0  0  0  0  0  0  0  0
   26.3598  -20.9509  -20.5209 C   0  0  0  0  0  0  0  0  0  0  0  0
   25.9658  -20.3526  -19.1816 C   0  0  2  0  0  0  0  0  0  0  0  0
   26.4640  -18.9900  -19.1740 N   0  0  0  0  0  0  0  0  0  0  0  0
   26.6649  -21.1586  -18.1162 C   0  0  0  0  0  0  0  0  0  0  0  0
   27.9032  -20.9822  -17.9443 O   0  0  0  0  0  0  0  0  0  0  0  0
   24.0697  -21.4716  -14.2059 N   0  0  0  0  0  0  0  0  0  0  0  0
   25.4281  -21.8191  -14.4313 C   0  0  0  0  0  0  0  0  0  0  0  0
   26.3051  -21.0075  -14.0507 O   0  0  0  0  0  0  0  0  0  0  0  0
   25.8132  -23.0878  -15.0895 C   0  0  0  0  0  0  0  0  0  0  0  0
   26.6468  -22.8675  -16.3143 C   0  0  2  0  0  0  0  0  0  0  0  0
   25.9762  -22.0905  -17.3202 N   0  0  0  0  0  0  0  0  0  0  0  0
   27.1483  -24.1661  -16.8738 C   0  0  0  0  0  0  0  0  0  0  0  0
   26.4835  -24.7639  -17.7572 O   0  0  0  0  0  0  0  0  0  0  0  0
   30.5758  -24.9203  -19.5116 C   0  0  0  0  0  0  0  0  0  0  0  0
   30.8978  -24.9561  -18.0735 C   0  0  2  0  0  0  0  0  0  0  0  0
   32.4492  -24.9794  -17.9316 C   0  0  0  0  0  0  0  0  0  0  0  0
   30.2925  -25.9564  -17.1869 C   0  0  0  0  0  0  0  0  0  0  0  0
   28.8234  -26.0071  -17.1056 C   0  0  2  0  0  0  0  0  0  0  0  0
   28.3588  -24.7478  -16.4353 N   0  0  0  0  0  0  0  0  0  0  0  0
   28.2968  -27.0757  -16.2595 C   0  0  0  0  0  0  0  0  0  0  0  0
   27.7979  -26.8615  -15.1367 O   0  0  0  0  0  0  0  0  0  0  0  0
   28.3584  -28.4084  -16.7425 O   0  0  0  0  0  0  0  0  0  0  0  0
  2  1  1  0
  3  2  1  0
  4  3  1  0
  5  4  1  0
  5  6  1  6
  7  8  2  0
  7  5  1  0
  9 10  1  0
 10 12  1  0
 10 11  2  0
 13 12  1  1
 13 14  1  0
 14  7  1  0
 15 16  2  0
 15 13  1  0
 18 17  1  6
 18 20  1  0
 18 19  1  0
 21 20  1  1
 21 22  1  0
 22 15  1  0
 23 21  1  0
 24 23  2  0
 25 23  1  0
M  END
$$$$
