MNL.pdb
     RDKit          3D

 25 24  0  0  1  0  0  0  0  0999 V2000
   29.6993  -20.2845  -19.2429 C   0  0  0  0  0  0  0  0  0  0  0  0
   28.3246  -21.4372  -19.2553 S   0  0  0  0  0  0  0  0  0  0  0  0
   27.2908  -21.1955  -17.7762 C   0  0  0  0  0  0  0  0  0  0  0  0
   28.1834  -20.7003  -16.6585 C   0  0  0  0  0  0  0  0  0  0  0  0
   27.9540  -21.5118  -15.3953 C   0  0  2  0  0  0  0  0  0  0  0  0
   26.9486  -22.5065  -15.7189 N   0  0  0  0  0  0  0  0  0  0  0  0
   27.4178  -20.5630  -14.3533 C   0  0  0  0  0  0  0  0  0  0  0  0
   27.2513  -19.3524  -14.6710 O   0  0  0  0  0  0  0  0  0  0  0  0
   24.1990  -18.7519  -13.6443 N   0  0  0  0  0  0  0  0  0  0  0  0
   23.8805  -20.1203  -13.8516 C   0  0  0  0  0  0  0  0  0  0  0  0
   22.8951  -20.3822  -14.5817 O   0  0  0  0  0  0  0  0  0  0  0  0
   24.6711  -21.2102  -13.2366 C   0  0  0  0  0  0  0  0  0  0  0  0
   25.8345  -20.6973  -12.4447 C   0  0  2  0  0  0  0  0  0  0  0  0
   27.1033  -20.9918  -13.0520 N   0  0  0  0  0  0  0  0  0  0  0  0
   25.7845  -21.1815  -11.0256 C   0  0  0  0  0  0  0  0  0  0  0  0
   25.7542  -22.4152  -10.7872 O   0  0  0  0  0  0  0  0  0  0  0  0
   28.6193  -20.6212   -7.4749 C   0  0  0  0  0  0  0  0  0  0  0  0
   27.6013  -19.5790   -7.6995 C   0  0  2  0  0  0  0  0  0  0  0  0
   27.9558  -18.3616   -6.7941 C   0  0  0  0  0  0  0  0  0  0  0  0
   26.1697  -19.8851   -7.5999 C   0  0  0  0  0  0  0  0  0  0  0  0
   25.6032  -20.8525   -8.5542 C   0  0  2  0  0  0  0  0  0  0  0  0
   25.7701  -20.2857   -9.9333 N   0  0  0  0  0  0  0  0  0  0  0  0
   24.1625  -21.0611   -8.4271 C   0  0  0  0  0  0  0  0  0  0  0  0
   23.6563  -21.7111   -7.4909 O   0  0  0  0  0  0  0  0  0  0  0  0
   23.3117  -20.4968   -9.4125 O   0  0  0  0  0  0  0  0  0  0  0  0
  2  1  1  0
  3  2  1  0
  4  3  1  0
  5  4  1  0
  5  6  1  6
  7  8  2  0
  7  5  1  0
  9 10  1  0
 10 12  1  0
 10 11  2  0
 13 12  1  6
 13 14  1  0
 14  7  1  0
 15 16  2  0
 15 13  1  0
 18 17  1  1
 18 20  1  0
 18 19  1  0
 21 20  1  1
 21 22  1  0
 22 15  1  0
 23 21  1  0
 24 23  2  0
 25 23  1  0
M  END
$$$$
