MNL.pdb
     RDKit          3D

 25 24  0  0  1  0  0  0  0  0999 V2000
   26.4689  -18.3511  -19.2742 C   0  0  0  0  0  0  0  0  0  0  0  0
   27.9958  -17.9948  -18.4025 S   0  0  0  0  0  0  0  0  0  0  0  0
   28.5619  -19.4718  -17.5007 C   0  0  0  0  0  0  0  0  0  0  0  0
   27.3976  -19.9979  -16.6890 C   0  0  0  0  0  0  0  0  0  0  0  0
   27.8532  -21.1171  -15.7689 C   0  0  2  0  0  0  0  0  0  0  0  0
   28.0355  -22.2904  -16.6025 N   0  0  0  0  0  0  0  0  0  0  0  0
   26.7383  -21.3585  -14.7829 C   0  0  0  0  0  0  0  0  0  0  0  0
   25.8475  -22.2033  -15.0775 O   0  0  0  0  0  0  0  0  0  0  0  0
   24.8427  -21.5653   -9.2403 N   0  0  0  0  0  0  0  0  0  0  0  0
   24.7546  -20.6504  -10.3229 C   0  0  0  0  0  0  0  0  0  0  0  0
   23.6750  -20.0299  -10.4714 O   0  0  0  0  0  0  0  0  0  0  0  0
   25.8850  -20.4249  -11.2516 C   0  0  0  0  0  0  0  0  0  0  0  0
   25.5675  -20.8470  -12.6533 C   0  0  2  0  0  0  0  0  0  0  0  0
   26.6701  -20.6718  -13.5582 N   0  0  0  0  0  0  0  0  0  0  0  0
   24.3319  -20.1646  -13.1619 C   0  0  0  0  0  0  0  0  0  0  0  0
   24.4222  -19.0388  -13.7134 O   0  0  0  0  0  0  0  0  0  0  0  0
   20.1525  -19.0919  -15.9172 C   0  0  0  0  0  0  0  0  0  0  0  0
   21.3056  -19.9321  -16.2879 C   0  0  2  0  0  0  0  0  0  0  0  0
   20.7671  -21.1592  -17.0827 C   0  0  0  0  0  0  0  0  0  0  0  0
   22.2794  -20.3682  -15.2805 C   0  0  0  0  0  0  0  0  0  0  0  0
   21.9321  -20.1865  -13.8614 C   0  0  2  0  0  0  0  0  0  0  0  0
   23.0531  -20.7525  -13.0403 N   0  0  0  0  0  0  0  0  0  0  0  0
   20.7561  -20.9340  -13.4216 C   0  0  0  0  0  0  0  0  0  0  0  0
   19.6463  -20.3958  -13.2372 O   0  0  0  0  0  0  0  0  0  0  0  0
   20.8904  -22.3288  -13.1984 O   0  0  0  0  0  0  0  0  0  0  0  0
  2  1  1  0
  3  2  1  0
  4  3  1  0
  5  4  1  0
  5  6  1  6
  7  8  2  0
  7  5  1  0
  9 10  1  0
 10 12  1  0
 10 11  2  0
 13 12  1  1
 13 14  1  0
 14  7  1  0
 15 16  2  0
 15 13  1  0
 18 17  1  1
 18 20  1  0
 18 19  1  0
 21 20  1  6
 21 22  1  0
 22 15  1  0
 23 21  1  0
 24 23  2  0
 25 23  1  0
M  END
$$$$
