MNL.pdb
     RDKit          3D

 25 24  0  0  1  0  0  0  0  0999 V2000
   27.3145  -15.3861  -17.1056 C   0  0  0  0  0  0  0  0  0  0  0  0
   28.2248  -16.6134  -18.0455 S   0  0  0  0  0  0  0  0  0  0  0  0
   28.3256  -18.1717  -17.1093 C   0  0  0  0  0  0  0  0  0  0  0  0
   27.4617  -18.0311  -15.8743 C   0  0  0  0  0  0  0  0  0  0  0  0
   27.6273  -19.2392  -14.9689 C   0  0  2  0  0  0  0  0  0  0  0  0
   27.4426  -20.4111  -15.8042 N   0  0  0  0  0  0  0  0  0  0  0  0
   26.5310  -19.1695  -13.9362 C   0  0  0  0  0  0  0  0  0  0  0  0
   26.4702  -18.1519  -13.1914 O   0  0  0  0  0  0  0  0  0  0  0  0
   21.8170  -18.6709  -14.3885 N   0  0  0  0  0  0  0  0  0  0  0  0
   22.7513  -19.7286  -14.5462 C   0  0  0  0  0  0  0  0  0  0  0  0
   23.1965  -19.9421  -15.6990 O   0  0  0  0  0  0  0  0  0  0  0  0
   23.1947  -20.5588  -13.4037 C   0  0  0  0  0  0  0  0  0  0  0  0
   24.5076  -20.1060  -12.8423 C   0  0  2  0  0  0  0  0  0  0  0  0
   25.5869  -20.2004  -13.7865 N   0  0  0  0  0  0  0  0  0  0  0  0
   24.8341  -20.8277  -11.5681 C   0  0  0  0  0  0  0  0  0  0  0  0
   25.0900  -22.0579  -11.5949 O   0  0  0  0  0  0  0  0  0  0  0  0
   28.1252  -20.8725   -8.5479 C   0  0  0  0  0  0  0  0  0  0  0  0
   27.0851  -19.8429   -8.3710 C   0  0  2  0  0  0  0  0  0  0  0  0
   27.6057  -18.8123   -7.3249 C   0  0  0  0  0  0  0  0  0  0  0  0
   25.6972  -20.2128   -8.0710 C   0  0  0  0  0  0  0  0  0  0  0  0
   24.9586  -20.9938   -9.0770 C   0  0  2  0  0  0  0  0  0  0  0  0
   24.8641  -20.1623  -10.3222 N   0  0  0  0  0  0  0  0  0  0  0  0
   23.5672  -21.2737   -8.7295 C   0  0  0  0  0  0  0  0  0  0  0  0
   23.2466  -22.0163   -7.7803 O   0  0  0  0  0  0  0  0  0  0  0  0
   22.5452  -20.6712   -9.5079 O   0  0  0  0  0  0  0  0  0  0  0  0
  2  1  1  0
  3  2  1  0
  4  3  1  0
  5  4  1  0
  5  6  1  6
  7  8  2  0
  7  5  1  0
  9 10  1  0
 10 12  1  0
 10 11  2  0
 13 12  1  6
 13 14  1  0
 14  7  1  0
 15 16  2  0
 15 13  1  0
 18 17  1  1
 18 20  1  0
 18 19  1  0
 21 20  1  1
 21 22  1  0
 22 15  1  0
 23 21  1  0
 24 23  2  0
 25 23  1  0
M  END
$$$$
