MNL.pdb
     RDKit          3D

 25 24  0  0  1  0  0  0  0  0999 V2000
   17.9055  -14.8949  -15.4910 C   0  0  0  0  0  0  0  0  0  0  0  0
   17.9333  -13.1200  -15.7509 S   0  0  0  0  0  0  0  0  0  0  0  0
   16.9203  -12.2859  -14.4887 C   0  0  0  0  0  0  0  0  0  0  0  0
   17.0675  -10.7921  -14.6843 C   0  0  0  0  0  0  0  0  0  0  0  0
   15.7828  -10.0767  -14.3040 C   0  0  2  0  0  0  0  0  0  0  0  0
   15.0137   -9.9291  -15.5254 N   0  0  0  0  0  0  0  0  0  0  0  0
   16.1737   -8.7185  -13.7786 C   0  0  0  0  0  0  0  0  0  0  0  0
   15.5613   -7.7051  -14.2169 O   0  0  0  0  0  0  0  0  0  0  0  0
   16.1490   -8.5163   -9.2938 N   0  0  0  0  0  0  0  0  0  0  0  0
   16.3434   -7.4426  -10.2026 C   0  0  0  0  0  0  0  0  0  0  0  0
   15.3593   -6.7050  -10.4478 O   0  0  0  0  0  0  0  0  0  0  0  0
   17.6521   -7.1883  -10.8461 C   0  0  0  0  0  0  0  0  0  0  0  0
   17.5791   -7.2611  -12.3405 C   0  0  2  0  0  0  0  0  0  0  0  0
   17.1925   -8.5583  -12.8233 N   0  0  0  0  0  0  0  0  0  0  0  0
   18.8612   -6.8047  -12.9721 C   0  0  0  0  0  0  0  0  0  0  0  0
   19.3632   -5.7015  -12.6397 O   0  0  0  0  0  0  0  0  0  0  0  0
   22.6684   -8.1185  -12.2437 C   0  0  0  0  0  0  0  0  0  0  0  0
   22.1087   -8.8337  -13.4049 C   0  0  2  0  0  0  0  0  0  0  0  0
   23.0452  -10.0381  -13.7212 C   0  0  0  0  0  0  0  0  0  0  0  0
   21.7657   -8.1200  -14.6402 C   0  0  0  0  0  0  0  0  0  0  0  0
   20.7830   -7.0271  -14.5552 C   0  0  2  0  0  0  0  0  0  0  0  0
   19.5323   -7.5836  -13.9411 N   0  0  0  0  0  0  0  0  0  0  0  0
   20.3426   -6.5023  -15.8459 C   0  0  0  0  0  0  0  0  0  0  0  0
   19.2349   -6.7842  -16.3448 O   0  0  0  0  0  0  0  0  0  0  0  0
   21.2162   -5.6367  -16.5536 O   0  0  0  0  0  0  0  0  0  0  0  0
  2  1  1  0
  3  2  1  0
  4  3  1  0
  5  4  1  0
  5  6  1  6
  7  8  2  0
  7  5  1  0
  9 10  1  0
 10 12  1  0
 10 11  2  0
 13 12  1  1
 13 14  1  0
 14  7  1  0
 15 16  2  0
 15 13  1  0
 18 17  1  1
 18 20  1  0
 18 19  1  0
 21 20  1  6
 21 22  1  0
 22 15  1  0
 23 21  1  0
 24 23  2  0
 25 23  1  0
M  END
$$$$
