CFC.pdb
     RDKit          3D

 24 24  0  0  1  0  0  0  0  0999 V2000
   27.1141  -23.2053  -17.7744 N   0  0  0  0  0  0  0  0  0  0  0  0
   27.1834  -21.9489  -17.0944 C   0  0  1  0  0  0  0  0  0  0  0  0
   26.5536  -20.8843  -17.9443 C   0  0  0  0  0  0  0  0  0  0  0  0
   27.6792  -20.5299  -19.3227 S   0  0  0  0  0  0  0  0  0  0  0  0
   26.5365  -22.0689  -15.7618 C   0  0  0  0  0  0  0  0  0  0  0  0
   25.5384  -22.8189  -15.6041 O   0  0  0  0  0  0  0  0  0  0  0  0
   26.9943  -21.3624  -14.6155 N   0  0  0  0  0  0  0  0  0  0  0  0
   26.2856  -21.3188  -13.3599 C   0  0  1  0  0  0  0  0  0  0  0  0
   27.1621  -20.8775  -12.2185 C   0  0  0  0  0  0  0  0  0  0  0  0
   26.4646  -20.7469  -10.9404 C   0  0  0  0  0  0  0  0  0  0  0  0
   26.1340  -19.5140  -10.4193 C   0  0  0  0  0  0  0  0  0  0  0  0
   25.4692  -19.3928   -9.1999 C   0  0  0  0  0  0  0  0  0  0  0  0
   25.1289  -20.5152   -8.4896 C   0  0  0  0  0  0  0  0  0  0  0  0
   25.4463  -21.7523   -8.9861 C   0  0  0  0  0  0  0  0  0  0  0  0
   26.1127  -21.8597  -10.2094 C   0  0  0  0  0  0  0  0  0  0  0  0
   25.0052  -20.5964  -13.4564 C   0  0  0  0  0  0  0  0  0  0  0  0
   25.0018  -19.3728  -13.8078 O   0  0  0  0  0  0  0  0  0  0  0  0
   23.7480  -21.1825  -13.1794 N   0  0  0  0  0  0  0  0  0  0  0  0
   22.5111  -20.3901  -13.1548 C   0  0  1  0  0  0  0  0  0  0  0  0
   21.6959  -20.8786  -14.3595 C   0  0  0  0  0  0  0  0  0  0  0  0
   22.5641  -20.5925  -15.9031 S   0  0  0  0  0  0  0  0  0  0  0  0
   21.6991  -20.6662  -11.9646 C   0  0  0  0  0  0  0  0  0  0  0  0
   20.6132  -19.8329  -11.7272 O   0  0  0  0  0  0  0  0  0  0  0  0
   21.9556  -21.6040  -11.1859 O   0  0  0  0  0  0  0  0  0  0  0  0
  2  5  1  0
  2  1  1  6
  3  2  1  0
  4  3  1  0
  5  7  1  0
  6  5  2  0
  7  8  1  0
  8  9  1  1
  9 10  1  0
 10 15  2  0
 11 10  1  0
 11 12  2  0
 12 13  1  0
 13 14  2  0
 15 14  1  0
 16 17  2  0
 16  8  1  0
 18 16  1  0
 19 18  1  0
 19 22  1  0
 19 20  1  6
 21 20  1  0
 22 23  1  0
 24 22  2  0
M  END
$$$$
