CFC.pdb
     RDKit          3D

 24 24  0  0  1  0  0  0  0  0999 V2000
   28.3600  -23.4367  -17.7593 N   0  0  0  0  0  0  0  0  0  0  0  0
   27.8843  -22.1460  -17.3676 C   0  0  1  0  0  0  0  0  0  0  0  0
   27.0501  -21.5639  -18.4710 C   0  0  0  0  0  0  0  0  0  0  0  0
   28.1700  -21.0106  -19.7870 S   0  0  0  0  0  0  0  0  0  0  0  0
   27.1359  -22.2595  -16.0886 C   0  0  0  0  0  0  0  0  0  0  0  0
   26.3598  -23.2298  -15.8894 O   0  0  0  0  0  0  0  0  0  0  0  0
   27.2488  -21.3041  -15.0411 N   0  0  0  0  0  0  0  0  0  0  0  0
   26.4327  -21.3124  -13.8518 C   0  0  1  0  0  0  0  0  0  0  0  0
   27.0623  -20.5520  -12.7156 C   0  0  0  0  0  0  0  0  0  0  0  0
   26.2849  -20.5678  -11.4776 C   0  0  0  0  0  0  0  0  0  0  0  0
   25.2643  -19.6686  -11.2527 C   0  0  0  0  0  0  0  0  0  0  0  0
   24.5251  -19.6861  -10.0707 C   0  0  0  0  0  0  0  0  0  0  0  0
   24.8063  -20.6121   -9.0994 C   0  0  0  0  0  0  0  0  0  0  0  0
   25.8160  -21.5167   -9.2989 C   0  0  0  0  0  0  0  0  0  0  0  0
   26.5491  -21.4884  -10.4879 C   0  0  0  0  0  0  0  0  0  0  0  0
   25.0313  -20.9475  -14.1234 C   0  0  0  0  0  0  0  0  0  0  0  0
   24.7726  -19.8426  -14.7003 O   0  0  0  0  0  0  0  0  0  0  0  0
   23.9257  -21.7601  -13.7796 N   0  0  0  0  0  0  0  0  0  0  0  0
   22.5415  -21.3240  -14.0083 C   0  0  1  0  0  0  0  0  0  0  0  0
   21.8340  -22.5372  -14.6265 C   0  0  0  0  0  0  0  0  0  0  0  0
   22.4860  -22.9231  -16.2526 S   0  0  0  0  0  0  0  0  0  0  0  0
   21.8391  -21.0280  -12.7548 C   0  0  0  0  0  0  0  0  0  0  0  0
   20.5889  -20.4301  -12.8514 O   0  0  0  0  0  0  0  0  0  0  0  0
   22.3258  -21.2936  -11.6394 O   0  0  0  0  0  0  0  0  0  0  0  0
  2  5  1  0
  2  1  1  6
  3  2  1  0
  4  3  1  0
  5  7  1  0
  6  5  2  0
  7  8  1  0
  8  9  1  1
  9 10  1  0
 10 15  2  0
 11 10  1  0
 11 12  2  0
 12 13  1  0
 13 14  2  0
 15 14  1  0
 16 17  2  0
 16  8  1  0
 18 16  1  0
 19 18  1  0
 19 22  1  0
 19 20  1  1
 21 20  1  0
 22 23  1  0
 24 22  2  0
M  END
$$$$
