CFC.pdb
     RDKit          3D

 24 24  0  0  1  0  0  0  0  0999 V2000
   28.9108  -22.9320  -17.9191 N   0  0  0  0  0  0  0  0  0  0  0  0
   28.4442  -21.6848  -17.3970 C   0  0  1  0  0  0  0  0  0  0  0  0
   27.6885  -20.9471  -18.4634 C   0  0  0  0  0  0  0  0  0  0  0  0
   28.8972  -20.1290  -19.5414 S   0  0  0  0  0  0  0  0  0  0  0  0
   27.6213  -21.9307  -16.1841 C   0  0  0  0  0  0  0  0  0  0  0  0
   26.8956  -22.9557  -16.1043 O   0  0  0  0  0  0  0  0  0  0  0  0
   27.6048  -21.0460  -15.0705 N   0  0  0  0  0  0  0  0  0  0  0  0
   26.7300  -21.1981  -13.9338 C   0  0  1  0  0  0  0  0  0  0  0  0
   27.2085  -20.4293  -12.7314 C   0  0  0  0  0  0  0  0  0  0  0  0
   26.3345  -20.5334  -11.5642 C   0  0  0  0  0  0  0  0  0  0  0  0
   26.5545  -21.4704  -10.5770 C   0  0  0  0  0  0  0  0  0  0  0  0
   25.7188  -21.5673   -9.4652 C   0  0  0  0  0  0  0  0  0  0  0  0
   24.6492  -20.7193   -9.3350 C   0  0  0  0  0  0  0  0  0  0  0  0
   24.4092  -19.7793  -10.3027 C   0  0  0  0  0  0  0  0  0  0  0  0
   25.2544  -19.6928  -11.4119 C   0  0  0  0  0  0  0  0  0  0  0  0
   25.3142  -20.9731  -14.2739 C   0  0  0  0  0  0  0  0  0  0  0  0
   24.9908  -19.9547  -14.9659 O   0  0  0  0  0  0  0  0  0  0  0  0
   24.2630  -21.8318  -13.8756 N   0  0  0  0  0  0  0  0  0  0  0  0
   22.8533  -21.4962  -14.1174 C   0  0  1  0  0  0  0  0  0  0  0  0
   22.3102  -22.6397  -14.9845 C   0  0  0  0  0  0  0  0  0  0  0  0
   20.5241  -22.5634  -15.1336 S   0  0  0  0  0  0  0  0  0  0  0  0
   22.0624  -21.5003  -12.8818 C   0  0  0  0  0  0  0  0  0  0  0  0
   20.8984  -20.7422  -12.8682 O   0  0  0  0  0  0  0  0  0  0  0  0
   22.4028  -22.1500  -11.8750 O   0  0  0  0  0  0  0  0  0  0  0  0
  2  5  1  0
  2  1  1  6
  3  2  1  0
  4  3  1  0
  5  7  1  0
  6  5  2  0
  7  8  1  0
  8  9  1  1
  9 10  1  0
 10 15  2  0
 11 10  1  0
 11 12  2  0
 12 13  1  0
 13 14  2  0
 15 14  1  0
 16 17  2  0
 16  8  1  0
 18 16  1  0
 19 18  1  0
 19 22  1  0
 19 20  1  6
 21 20  1  0
 22 23  1  0
 24 22  2  0
M  END
$$$$
