CFC.pdb
     RDKit          3D

 24 24  0  0  1  0  0  0  0  0999 V2000
   29.0807  -22.3897  -17.8959 N   0  0  0  0  0  0  0  0  0  0  0  0
   28.2953  -21.2552  -17.5192 C   0  0  1  0  0  0  0  0  0  0  0  0
   27.3730  -20.8889  -18.6451 C   0  0  0  0  0  0  0  0  0  0  0  0
   26.7394  -19.2184  -18.3285 S   0  0  0  0  0  0  0  0  0  0  0  0
   27.5645  -21.5530  -16.2599 C   0  0  0  0  0  0  0  0  0  0  0  0
   27.1433  -22.7159  -16.0282 O   0  0  0  0  0  0  0  0  0  0  0  0
   27.3042  -20.5679  -15.2675 N   0  0  0  0  0  0  0  0  0  0  0  0
   26.5521  -20.8177  -14.0623 C   0  0  1  0  0  0  0  0  0  0  0  0
   27.0631  -20.0247  -12.8894 C   0  0  0  0  0  0  0  0  0  0  0  0
   26.3624  -20.2888  -11.6338 C   0  0  0  0  0  0  0  0  0  0  0  0
   25.3195  -19.4948  -11.2065 C   0  0  0  0  0  0  0  0  0  0  0  0
   24.6536  -19.7492  -10.0083 C   0  0  0  0  0  0  0  0  0  0  0  0
   25.0317  -20.8090   -9.2250 C   0  0  0  0  0  0  0  0  0  0  0  0
   26.0655  -21.6132   -9.6277 C   0  0  0  0  0  0  0  0  0  0  0  0
   26.7244  -21.3473  -10.8306 C   0  0  0  0  0  0  0  0  0  0  0  0
   25.0970  -20.7219  -14.2720 C   0  0  0  0  0  0  0  0  0  0  0  0
   24.6171  -19.7100  -14.8774 O   0  0  0  0  0  0  0  0  0  0  0  0
   24.1729  -21.7006  -13.8372 N   0  0  0  0  0  0  0  0  0  0  0  0
   22.7221  -21.5116  -13.9710 C   0  0  1  0  0  0  0  0  0  0  0  0
   22.1453  -22.9242  -14.1334 C   0  0  0  0  0  0  0  0  0  0  0  0
   20.3546  -22.9219  -14.0254 S   0  0  0  0  0  0  0  0  0  0  0  0
   22.1208  -20.9549  -12.7542 C   0  0  0  0  0  0  0  0  0  0  0  0
   21.0800  -20.0490  -12.9153 O   0  0  0  0  0  0  0  0  0  0  0  0
   22.5123  -21.2682  -11.6140 O   0  0  0  0  0  0  0  0  0  0  0  0
  2  5  1  0
  2  1  1  6
  3  2  1  0
  4  3  1  0
  5  7  1  0
  6  5  2  0
  7  8  1  0
  8  9  1  1
  9 10  1  0
 10 15  2  0
 11 10  1  0
 11 12  2  0
 12 13  1  0
 13 14  2  0
 15 14  1  0
 16 17  2  0
 16  8  1  0
 18 16  1  0
 19 18  1  0
 19 22  1  0
 19 20  1  1
 21 20  1  0
 22 23  1  0
 24 22  2  0
M  END
$$$$
