CFC.pdb
     RDKit          3D

 24 24  0  0  1  0  0  0  0  0999 V2000
   23.2974  -20.5362  -17.5887 N   0  0  0  0  0  0  0  0  0  0  0  0
   22.4359  -19.7328  -16.7775 C   0  0  1  0  0  0  0  0  0  0  0  0
   21.1353  -19.5134  -17.4935 C   0  0  0  0  0  0  0  0  0  0  0  0
   21.2744  -17.9766  -18.4481 S   0  0  0  0  0  0  0  0  0  0  0  0
   22.2531  -20.3818  -15.4531 C   0  0  0  0  0  0  0  0  0  0  0  0
   22.2876  -21.6353  -15.3483 O   0  0  0  0  0  0  0  0  0  0  0  0
   22.0339  -19.6448  -14.2565 N   0  0  0  0  0  0  0  0  0  0  0  0
   21.8539  -20.2498  -12.9594 C   0  0  1  0  0  0  0  0  0  0  0  0
   22.4553  -19.4272  -11.8515 C   0  0  0  0  0  0  0  0  0  0  0  0
   22.3561  -20.0382  -10.5271 C   0  0  0  0  0  0  0  0  0  0  0  0
   21.2217  -19.9093   -9.7542 C   0  0  0  0  0  0  0  0  0  0  0  0
   21.1304  -20.4929   -8.4913 C   0  0  0  0  0  0  0  0  0  0  0  0
   22.1835  -21.2147   -7.9913 C   0  0  0  0  0  0  0  0  0  0  0  0
   23.3222  -21.3573   -8.7401 C   0  0  0  0  0  0  0  0  0  0  0  0
   23.4007  -20.7675  -10.0042 C   0  0  0  0  0  0  0  0  0  0  0  0
   20.4623  -20.6687  -12.7175 C   0  0  0  0  0  0  0  0  0  0  0  0
   19.5223  -19.8193  -12.8414 O   0  0  0  0  0  0  0  0  0  0  0  0
   20.0886  -21.9822  -12.3484 N   0  0  0  0  0  0  0  0  0  0  0  0
   18.6894  -22.3464  -12.0880 C   0  0  1  0  0  0  0  0  0  0  0  0
   18.4731  -23.6713  -12.8312 C   0  0  0  0  0  0  0  0  0  0  0  0
   18.7069  -23.4813  -14.5997 S   0  0  0  0  0  0  0  0  0  0  0  0
   18.4431  -22.6218  -10.6682 C   0  0  0  0  0  0  0  0  0  0  0  0
   17.1255  -22.8268  -10.2785 O   0  0  0  0  0  0  0  0  0  0  0  0
   19.3632  -22.6741   -9.8302 O   0  0  0  0  0  0  0  0  0  0  0  0
  2  5  1  0
  2  1  1  6
  3  2  1  0
  4  3  1  0
  5  7  1  0
  6  5  2  0
  7  8  1  0
  8  9  1  1
  9 10  1  0
 10 15  2  0
 11 10  1  0
 11 12  2  0
 12 13  1  0
 13 14  2  0
 15 14  1  0
 16 17  2  0
 16  8  1  0
 18 16  1  0
 19 18  1  0
 19 22  1  0
 19 20  1  6
 21 20  1  0
 22 23  1  0
 24 22  2  0
M  END
$$$$
