CFC.pdb
     RDKit          3D

 24 24  0  0  1  0  0  0  0  0999 V2000
   27.5403  -20.6340  -21.3450 N   0  0  0  0  0  0  0  0  0  0  0  0
   26.5664  -21.6597  -21.1323 C   0  0  1  0  0  0  0  0  0  0  0  0
   26.2517  -22.3296  -22.4379 C   0  0  0  0  0  0  0  0  0  0  0  0
   24.9305  -21.3854  -23.2472 S   0  0  0  0  0  0  0  0  0  0  0  0
   27.0664  -22.6149  -20.1094 C   0  0  0  0  0  0  0  0  0  0  0  0
   28.2769  -22.9584  -20.0970 O   0  0  0  0  0  0  0  0  0  0  0  0
   26.2291  -23.1830  -19.1097 N   0  0  0  0  0  0  0  0  0  0  0  0
   26.7137  -23.9881  -18.0153 C   0  0  1  0  0  0  0  0  0  0  0  0
   26.5136  -23.3246  -16.6792 C   0  0  0  0  0  0  0  0  0  0  0  0
   27.1250  -22.0014  -16.5672 C   0  0  0  0  0  0  0  0  0  0  0  0
   28.4929  -21.8318  -16.5969 C   0  0  0  0  0  0  0  0  0  0  0  0
   29.0729  -20.5685  -16.4895 C   0  0  0  0  0  0  0  0  0  0  0  0
   28.2794  -19.4589  -16.3506 C   0  0  0  0  0  0  0  0  0  0  0  0
   26.9170  -19.6011  -16.3183 C   0  0  0  0  0  0  0  0  0  0  0  0
   26.3485  -20.8728  -16.4269 C   0  0  0  0  0  0  0  0  0  0  0  0
   26.2343  -25.3798  -18.0797 C   0  0  0  0  0  0  0  0  0  0  0  0
   25.0854  -25.6241  -18.5705 O   0  0  0  0  0  0  0  0  0  0  0  0
   26.9808  -26.4913  -17.6233 N   0  0  0  0  0  0  0  0  0  0  0  0
   26.4723  -27.8652  -17.7331 C   0  0  1  0  0  0  0  0  0  0  0  0
   27.6970  -28.7657  -17.5240 C   0  0  0  0  0  0  0  0  0  0  0  0
   28.4893  -28.4457  -15.9466 S   0  0  0  0  0  0  0  0  0  0  0  0
   25.5271  -28.1941  -16.6604 C   0  0  0  0  0  0  0  0  0  0  0  0
   24.8881  -29.4256  -16.7302 O   0  0  0  0  0  0  0  0  0  0  0  0
   25.2927  -27.4154  -15.7169 O   0  0  0  0  0  0  0  0  0  0  0  0
  2  5  1  0
  2  1  1  6
  3  2  1  0
  4  3  1  0
  5  7  1  0
  6  5  2  0
  7  8  1  0
  8  9  1  1
  9 10  1  0
 10 15  2  0
 11 10  1  0
 11 12  2  0
 12 13  1  0
 13 14  2  0
 15 14  1  0
 16 17  2  0
 16  8  1  0
 18 16  1  0
 19 18  1  0
 19 22  1  0
 19 20  1  1
 21 20  1  0
 22 23  1  0
 24 22  2  0
M  END
$$$$
