CFC.pdb
     RDKit          3D

 24 24  0  0  1  0  0  0  0  0999 V2000
   17.6586  -17.3225  -18.3941 N   0  0  0  0  0  0  0  0  0  0  0  0
   17.5341  -15.9825  -18.8787 C   0  0  1  0  0  0  0  0  0  0  0  0
   16.1258  -15.7461  -19.3404 C   0  0  0  0  0  0  0  0  0  0  0  0
   15.8898  -16.6441  -20.8993 S   0  0  0  0  0  0  0  0  0  0  0  0
   17.9518  -15.0297  -17.8174 C   0  0  0  0  0  0  0  0  0  0  0  0
   17.3946  -15.0492  -16.6893 O   0  0  0  0  0  0  0  0  0  0  0  0
   18.9789  -14.0644  -18.0079 N   0  0  0  0  0  0  0  0  0  0  0  0
   19.4325  -13.1577  -16.9818 C   0  0  1  0  0  0  0  0  0  0  0  0
   20.8304  -13.4665  -16.5169 C   0  0  0  0  0  0  0  0  0  0  0  0
   20.9737  -14.7669  -15.8646 C   0  0  0  0  0  0  0  0  0  0  0  0
   20.6859  -14.9412  -14.5276 C   0  0  0  0  0  0  0  0  0  0  0  0
   20.8240  -16.1827  -13.9083 C   0  0  0  0  0  0  0  0  0  0  0  0
   21.2549  -17.2654  -14.6308 C   0  0  0  0  0  0  0  0  0  0  0  0
   21.5475  -17.1181  -15.9613 C   0  0  0  0  0  0  0  0  0  0  0  0
   21.4048  -15.8685  -16.5697 C   0  0  0  0  0  0  0  0  0  0  0  0
   19.2083  -11.7448  -17.3342 C   0  0  0  0  0  0  0  0  0  0  0  0
   19.5817  -11.3170  -18.4736 O   0  0  0  0  0  0  0  0  0  0  0  0
   18.5910  -10.8073  -16.4735 N   0  0  0  0  0  0  0  0  0  0  0  0
   18.4245   -9.3979  -16.8531 C   0  0  1  0  0  0  0  0  0  0  0  0
   16.9254   -9.1121  -16.6929 C   0  0  0  0  0  0  0  0  0  0  0  0
   15.9708   -9.8262  -18.0335 S   0  0  0  0  0  0  0  0  0  0  0  0
   19.1207   -8.4901  -15.9347 C   0  0  0  0  0  0  0  0  0  0  0  0
   19.0361   -7.1289  -16.1988 O   0  0  0  0  0  0  0  0  0  0  0  0
   19.7665   -8.9022  -14.9526 O   0  0  0  0  0  0  0  0  0  0  0  0
  2  5  1  0
  2  1  1  1
  3  2  1  0
  4  3  1  0
  5  7  1  0
  6  5  2  0
  7  8  1  0
  8  9  1  6
  9 10  1  0
 10 15  2  0
 11 10  1  0
 11 12  2  0
 12 13  1  0
 13 14  2  0
 15 14  1  0
 16 17  2  0
 16  8  1  0
 18 16  1  0
 19 18  1  0
 19 22  1  0
 19 20  1  1
 21 20  1  0
 22 23  1  0
 24 22  2  0
M  END
$$$$
