CFC.pdb
     RDKit          3D

 24 24  0  0  1  0  0  0  0  0999 V2000
   22.2606   -4.7398  -16.6784 N   0  0  0  0  0  0  0  0  0  0  0  0
   21.8575   -4.8229  -15.3086 C   0  0  1  0  0  0  0  0  0  0  0  0
   21.3509   -3.4854  -14.8539 C   0  0  0  0  0  0  0  0  0  0  0  0
   22.7821   -2.3947  -14.6207 S   0  0  0  0  0  0  0  0  0  0  0  0
   20.8427   -5.8976  -15.1539 C   0  0  0  0  0  0  0  0  0  0  0  0
   20.1813   -6.2964  -16.1474 O   0  0  0  0  0  0  0  0  0  0  0  0
   20.5655   -6.5232  -13.9070 N   0  0  0  0  0  0  0  0  0  0  0  0
   19.5270   -7.5051  -13.7117 C   0  0  1  0  0  0  0  0  0  0  0  0
   19.9721   -8.6490  -12.8405 C   0  0  0  0  0  0  0  0  0  0  0  0
   20.8933   -9.5783  -13.4923 C   0  0  0  0  0  0  0  0  0  0  0  0
   20.4906  -10.3824  -14.5374 C   0  0  0  0  0  0  0  0  0  0  0  0
   21.3716  -11.2680  -15.1567 C   0  0  0  0  0  0  0  0  0  0  0  0
   22.6715  -11.3538  -14.7291 C   0  0  0  0  0  0  0  0  0  0  0  0
   23.0962  -10.5652  -13.6922 C   0  0  0  0  0  0  0  0  0  0  0  0
   22.2032   -9.6819  -13.0803 C   0  0  0  0  0  0  0  0  0  0  0  0
   18.2439   -6.9014  -13.3119 C   0  0  0  0  0  0  0  0  0  0  0  0
   18.0146   -6.6767  -12.0801 O   0  0  0  0  0  0  0  0  0  0  0  0
   17.2238   -6.5444  -14.2246 N   0  0  0  0  0  0  0  0  0  0  0  0
   15.9968   -5.8637  -13.7893 C   0  0  1  0  0  0  0  0  0  0  0  0
   15.6480   -4.8956  -14.9275 C   0  0  0  0  0  0  0  0  0  0  0  0
   16.8152   -3.5363  -15.0183 S   0  0  0  0  0  0  0  0  0  0  0  0
   14.8634   -6.7873  -13.6679 C   0  0  0  0  0  0  0  0  0  0  0  0
   13.7004   -6.2955  -13.0887 O   0  0  0  0  0  0  0  0  0  0  0  0
   14.9207   -7.9678  -14.0614 O   0  0  0  0  0  0  0  0  0  0  0  0
  2  5  1  0
  2  1  1  6
  3  2  1  0
  4  3  1  0
  5  7  1  0
  6  5  2  0
  7  8  1  0
  8  9  1  1
  9 10  1  0
 10 15  2  0
 11 10  1  0
 11 12  2  0
 12 13  1  0
 13 14  2  0
 15 14  1  0
 16 17  2  0
 16  8  1  0
 18 16  1  0
 19 18  1  0
 19 22  1  0
 19 20  1  6
 21 20  1  0
 22 23  1  0
 24 22  2  0
M  END
$$$$
