CFC.pdb
     RDKit          3D

 24 24  0  0  1  0  0  0  0  0999 V2000
   29.6246  -23.2225  -17.6861 N   0  0  0  0  0  0  0  0  0  0  0  0
   28.7191  -22.1262  -17.5314 C   0  0  1  0  0  0  0  0  0  0  0  0
   27.8557  -22.0138  -18.7539 C   0  0  0  0  0  0  0  0  0  0  0  0
   28.7554  -21.0315  -19.9860 S   0  0  0  0  0  0  0  0  0  0  0  0
   27.9242  -22.3100  -16.2892 C   0  0  0  0  0  0  0  0  0  0  0  0
   27.5363  -23.4568  -15.9456 O   0  0  0  0  0  0  0  0  0  0  0  0
   27.5636  -21.2299  -15.4370 N   0  0  0  0  0  0  0  0  0  0  0  0
   26.7220  -21.3679  -14.2737 C   0  0  1  0  0  0  0  0  0  0  0  0
   26.9917  -20.3090  -13.2385 C   0  0  0  0  0  0  0  0  0  0  0  0
   26.2030  -20.4490  -12.0155 C   0  0  0  0  0  0  0  0  0  0  0  0
   24.9282  -19.9338  -11.9139 C   0  0  0  0  0  0  0  0  0  0  0  0
   24.1789  -20.0687  -10.7459 C   0  0  0  0  0  0  0  0  0  0  0  0
   24.7065  -20.7258   -9.6644 C   0  0  0  0  0  0  0  0  0  0  0  0
   25.9715  -21.2469   -9.7403 C   0  0  0  0  0  0  0  0  0  0  0  0
   26.7118  -21.1048  -10.9166 C   0  0  0  0  0  0  0  0  0  0  0  0
   25.2991  -21.5301  -14.6196 C   0  0  0  0  0  0  0  0  0  0  0  0
   24.7769  -20.7680  -15.4954 O   0  0  0  0  0  0  0  0  0  0  0  0
   24.4516  -22.4983  -14.0319 N   0  0  0  0  0  0  0  0  0  0  0  0
   23.0224  -22.5809  -14.3616 C   0  0  1  0  0  0  0  0  0  0  0  0
   22.7138  -24.0818  -14.4420 C   0  0  0  0  0  0  0  0  0  0  0  0
   23.8394  -24.9279  -15.5534 S   0  0  0  0  0  0  0  0  0  0  0  0
   22.1747  -22.0394  -13.2936 C   0  0  0  0  0  0  0  0  0  0  0  0
   20.8090  -21.9699  -13.5381 O   0  0  0  0  0  0  0  0  0  0  0  0
   22.6402  -21.6523  -12.2050 O   0  0  0  0  0  0  0  0  0  0  0  0
  2  5  1  0
  2  1  1  6
  3  2  1  0
  4  3  1  0
  5  7  1  0
  6  5  2  0
  7  8  1  0
  8  9  1  1
  9 10  1  0
 10 15  2  0
 11 10  1  0
 11 12  2  0
 12 13  1  0
 13 14  2  0
 15 14  1  0
 16 17  2  0
 16  8  1  0
 18 16  1  0
 19 18  1  0
 19 22  1  0
 19 20  1  1
 21 20  1  0
 22 23  1  0
 24 22  2  0
M  END
$$$$
