CFC.pdb
     RDKit          3D

 24 24  0  0  1  0  0  0  0  0999 V2000
   27.4031  -22.8913  -17.7235 N   0  0  0  0  0  0  0  0  0  0  0  0
   27.2091  -21.6405  -17.0574 C   0  0  1  0  0  0  0  0  0  0  0  0
   26.3340  -20.7566  -17.8973 C   0  0  0  0  0  0  0  0  0  0  0  0
   27.3543  -19.3950  -18.5276 S   0  0  0  0  0  0  0  0  0  0  0  0
   26.6428  -21.8807  -15.7045 C   0  0  0  0  0  0  0  0  0  0  0  0
   25.7765  -22.7760  -15.5269 O   0  0  0  0  0  0  0  0  0  0  0  0
   27.0354  -21.1332  -14.5599 N   0  0  0  0  0  0  0  0  0  0  0  0
   26.3467  -21.1783  -13.2933 C   0  0  1  0  0  0  0  0  0  0  0  0
   27.1790  -20.6306  -12.1650 C   0  0  0  0  0  0  0  0  0  0  0  0
   26.5082  -20.6343  -10.8662 C   0  0  0  0  0  0  0  0  0  0  0  0
   26.4856  -21.7574  -10.0668 C   0  0  0  0  0  0  0  0  0  0  0  0
   25.8446  -21.7578   -8.8287 C   0  0  0  0  0  0  0  0  0  0  0  0
   25.2174  -20.6238   -8.3807 C   0  0  0  0  0  0  0  0  0  0  0  0
   25.2256  -19.4945   -9.1566 C   0  0  0  0  0  0  0  0  0  0  0  0
   25.8716  -19.5075  -10.3953 C   0  0  0  0  0  0  0  0  0  0  0  0
   24.9847  -20.6215  -13.3685 C   0  0  0  0  0  0  0  0  0  0  0  0
   24.8195  -19.4226  -13.7633 O   0  0  0  0  0  0  0  0  0  0  0  0
   23.8187  -21.3447  -13.0245 N   0  0  0  0  0  0  0  0  0  0  0  0
   22.4847  -20.7306  -13.0653 C   0  0  1  0  0  0  0  0  0  0  0  0
   21.6312  -21.6783  -13.9186 C   0  0  0  0  0  0  0  0  0  0  0  0
   22.1088  -21.6203  -15.6468 S   0  0  0  0  0  0  0  0  0  0  0  0
   21.8550  -20.6836  -11.7411 C   0  0  0  0  0  0  0  0  0  0  0  0
   22.4796  -21.3799  -10.7140 O   0  0  0  0  0  0  0  0  0  0  0  0
   20.8037  -20.0513  -11.5252 O   0  0  0  0  0  0  0  0  0  0  0  0
  2  5  1  0
  2  1  1  6
  3  2  1  0
  4  3  1  0
  5  7  1  0
  6  5  2  0
  7  8  1  0
  8  9  1  1
  9 10  1  0
 10 15  2  0
 11 10  1  0
 11 12  2  0
 12 13  1  0
 13 14  2  0
 15 14  1  0
 16 17  2  0
 16  8  1  0
 18 16  1  0
 19 18  1  0
 19 22  1  0
 19 20  1  6
 21 20  1  0
 22 23  1  0
 24 22  2  0
M  END
$$$$
