TSK.pdb
     RDKit          3D

 23 22  0  0  1  0  0  0  0  0999 V2000
   18.7036  -12.0682  -19.2432 C   0  0  0  0  0  0  0  0  0  0  0  0
   19.1944  -11.1492  -18.1459 C   0  0  1  0  0  0  0  0  0  0  0  0
   18.1694  -10.3156  -17.7351 O   0  0  0  0  0  0  0  0  0  0  0  0
   19.7681  -11.9569  -16.9904 C   0  0  2  0  0  0  0  0  0  0  0  0
   18.7179  -12.7968  -16.4521 N   0  0  0  0  0  0  0  0  0  0  0  0
   20.3172  -11.0265  -15.9880 C   0  0  0  0  0  0  0  0  0  0  0  0
   19.5086  -10.4877  -15.1923 O   0  0  0  0  0  0  0  0  0  0  0  0
   24.4969  -10.1831  -15.6461 O   0  0  0  0  0  0  0  0  0  0  0  0
   23.6504   -9.9591  -14.5902 C   0  0  0  0  0  0  0  0  0  0  0  0
   22.2257   -9.7164  -14.9962 C   0  0  2  0  0  0  0  0  0  0  0  0
   21.6929  -10.7099  -15.8742 N   0  0  0  0  0  0  0  0  0  0  0  0
   22.1325   -8.3717  -15.6108 C   0  0  0  0  0  0  0  0  0  0  0  0
   22.1462   -8.2442  -16.8613 O   0  0  0  0  0  0  0  0  0  0  0  0
   22.0267   -7.2038  -14.8306 N   0  0  0  0  0  0  0  0  0  0  0  0
   22.0038   -5.8498  -15.5448 C   0  0  1  0  0  0  0  0  0  0  0  0
   20.5728   -5.6305  -15.8163 C   0  0  0  0  0  0  0  0  0  0  0  0
   20.0895   -4.3717  -16.3702 C   0  0  0  0  0  0  0  0  0  0  0  0
   18.6551   -4.2530  -16.6683 C   0  0  0  0  0  0  0  0  0  0  0  0
   18.3556   -2.8430  -17.2454 C   0  0  0  0  0  0  0  0  0  0  0  0
   16.9516   -2.7543  -17.5072 N   0  0  0  0  0  0  0  0  0  0  0  0
   22.5860   -4.9772  -14.4974 C   0  0  0  0  0  0  0  0  0  0  0  0
   23.2021   -3.7621  -14.6534 O   0  0  0  0  0  0  0  0  0  0  0  0
   22.5245   -5.3865  -13.2846 O   0  0  0  0  0  0  0  0  0  0  0  0
  2  1  1  6
  2  4  1  0
  3  2  1  0
  4  5  1  1
  6  4  1  0
  6  7  2  0
  8  9  1  0
 10  9  1  6
 10 11  1  0
 10 12  1  0
 11  6  1  0
 12 14  1  0
 13 12  2  0
 14 15  1  0
 15 21  1  0
 16 17  1  0
 15 16  1  1
 18 19  1  0
 18 17  1  0
 20 19  1  0
 21 23  2  0
 21 22  1  0
M  END
$$$$
