TSK.pdb
     RDKit          3D

 23 22  0  0  1  0  0  0  0  0999 V2000
   27.0639  -10.4893  -15.3554 C   0  0  0  0  0  0  0  0  0  0  0  0
   27.2815  -11.0312  -16.7513 C   0  0  1  0  0  0  0  0  0  0  0  0
   28.3834  -11.8676  -16.7663 O   0  0  0  0  0  0  0  0  0  0  0  0
   26.0275  -11.7336  -17.2523 C   0  0  2  0  0  0  0  0  0  0  0  0
   26.3286  -12.3569  -18.5247 N   0  0  0  0  0  0  0  0  0  0  0  0
   24.9381  -10.7461  -17.3505 C   0  0  0  0  0  0  0  0  0  0  0  0
   24.9564   -9.9573  -18.3277 O   0  0  0  0  0  0  0  0  0  0  0  0
   21.9121  -10.2431  -14.3220 O   0  0  0  0  0  0  0  0  0  0  0  0
   21.6466   -9.9691  -15.6397 C   0  0  0  0  0  0  0  0  0  0  0  0
   22.8671   -9.6338  -16.4470 C   0  0  2  0  0  0  0  0  0  0  0  0
   23.8822  -10.6389  -16.4128 N   0  0  0  0  0  0  0  0  0  0  0  0
   23.4019   -8.3347  -15.9769 C   0  0  0  0  0  0  0  0  0  0  0  0
   24.3252   -8.3008  -15.1245 O   0  0  0  0  0  0  0  0  0  0  0  0
   22.9047   -7.1082  -16.4589 N   0  0  0  0  0  0  0  0  0  0  0  0
   23.5097   -5.8118  -15.9138 C   0  0  1  0  0  0  0  0  0  0  0  0
   23.4029   -4.8805  -17.0499 C   0  0  0  0  0  0  0  0  0  0  0  0
   23.7157   -3.4643  -16.9024 C   0  0  0  0  0  0  0  0  0  0  0  0
   23.6590   -2.6153  -18.1009 C   0  0  0  0  0  0  0  0  0  0  0  0
   24.0018   -1.1495  -17.7204 C   0  0  0  0  0  0  0  0  0  0  0  0
   23.9402   -0.3519  -18.9069 N   0  0  0  0  0  0  0  0  0  0  0  0
   22.5907   -5.5339  -14.7844 C   0  0  0  0  0  0  0  0  0  0  0  0
   22.8384   -4.8029  -13.6510 O   0  0  0  0  0  0  0  0  0  0  0  0
   21.4110   -6.0306  -14.8452 O   0  0  0  0  0  0  0  0  0  0  0  0
  2  1  1  1
  2  4  1  0
  3  2  1  0
  4  5  1  6
  6  4  1  0
  6  7  2  0
  8  9  1  0
 10  9  1  1
 10 11  1  0
 10 12  1  0
 11  6  1  0
 12 14  1  0
 13 12  2  0
 14 15  1  0
 15 21  1  0
 16 17  1  0
 15 16  1  6
 18 19  1  0
 18 17  1  0
 20 19  1  0
 21 23  2  0
 21 22  1  0
M  END
$$$$
