TSK.pdb
     RDKit          3D

 23 22  0  0  1  0  0  0  0  0999 V2000
   24.4098  -20.1843  -14.3162 C   0  0  0  0  0  0  0  0  0  0  0  0
   23.5221  -19.7486  -15.4614 C   0  0  1  0  0  0  0  0  0  0  0  0
   24.2570  -19.6898  -16.6321 O   0  0  0  0  0  0  0  0  0  0  0  0
   22.3222  -20.6765  -15.5893 C   0  0  2  0  0  0  0  0  0  0  0  0
   21.5581  -20.2799  -16.7542 N   0  0  0  0  0  0  0  0  0  0  0  0
   21.5343  -20.6066  -14.3459 C   0  0  0  0  0  0  0  0  0  0  0  0
   21.8594  -19.7358  -13.5012 O   0  0  0  0  0  0  0  0  0  0  0  0
   17.6173  -21.0985  -14.1780 O   0  0  0  0  0  0  0  0  0  0  0  0
   18.3287  -20.6456  -13.0960 C   0  0  0  0  0  0  0  0  0  0  0  0
   19.6297  -21.3635  -12.8823 C   0  0  2  0  0  0  0  0  0  0  0  0
   20.4415  -21.4590  -14.0543 N   0  0  0  0  0  0  0  0  0  0  0  0
   19.3418  -22.7095  -12.3347 C   0  0  0  0  0  0  0  0  0  0  0  0
   19.4854  -23.7303  -13.0544 O   0  0  0  0  0  0  0  0  0  0  0  0
   18.9034  -22.8944  -11.0090 N   0  0  0  0  0  0  0  0  0  0  0  0
   18.5803  -24.3154  -10.5397 C   0  0  1  0  0  0  0  0  0  0  0  0
   18.6315  -24.2105   -9.0714 C   0  0  0  0  0  0  0  0  0  0  0  0
   18.2087  -25.3129   -8.2164 C   0  0  0  0  0  0  0  0  0  0  0  0
   18.1756  -25.0882   -6.7642 C   0  0  0  0  0  0  0  0  0  0  0  0
   17.6387  -26.3583   -6.0504 C   0  0  0  0  0  0  0  0  0  0  0  0
   17.5518  -26.0823   -4.6490 N   0  0  0  0  0  0  0  0  0  0  0  0
   17.2236  -24.4911  -11.1105 C   0  0  0  0  0  0  0  0  0  0  0  0
   16.2973  -23.5242  -11.4060 O   0  0  0  0  0  0  0  0  0  0  0  0
   16.8392  -25.6866  -11.3657 O   0  0  0  0  0  0  0  0  0  0  0  0
  2  1  1  1
  2  4  1  0
  3  2  1  0
  4  5  1  6
  6  4  1  0
  6  7  2  0
  8  9  1  0
 10  9  1  6
 10 11  1  0
 10 12  1  0
 11  6  1  0
 12 14  1  0
 13 12  2  0
 14 15  1  0
 15 21  1  0
 16 17  1  0
 15 16  1  1
 18 19  1  0
 18 17  1  0
 20 19  1  0
 21 23  2  0
 21 22  1  0
M  END
$$$$
