TSK.pdb
     RDKit          3D

 23 22  0  0  1  0  0  0  0  0999 V2000
   19.4508  -11.3224  -20.3882 C   0  0  0  0  0  0  0  0  0  0  0  0
   19.9082  -10.5752  -19.1545 C   0  0  1  0  0  0  0  0  0  0  0  0
   19.0085   -9.5687  -18.8519 O   0  0  0  0  0  0  0  0  0  0  0  0
   20.0999  -11.5357  -17.9894 C   0  0  2  0  0  0  0  0  0  0  0  0
   18.8360  -12.1909  -17.7227 N   0  0  0  0  0  0  0  0  0  0  0  0
   20.6001  -10.7786  -16.8282 C   0  0  0  0  0  0  0  0  0  0  0  0
   19.7492  -10.2674  -16.0587 O   0  0  0  0  0  0  0  0  0  0  0  0
   24.7544   -9.9175  -16.2489 O   0  0  0  0  0  0  0  0  0  0  0  0
   23.9239  -10.0047  -15.1606 C   0  0  0  0  0  0  0  0  0  0  0  0
   22.4761   -9.7724  -15.4826 C   0  0  2  0  0  0  0  0  0  0  0  0
   21.9739  -10.5978  -16.5353 N   0  0  0  0  0  0  0  0  0  0  0  0
   22.2888   -8.3392  -15.8075 C   0  0  0  0  0  0  0  0  0  0  0  0
   22.1426   -7.9741  -17.0016 O   0  0  0  0  0  0  0  0  0  0  0  0
   22.2677   -7.3472  -14.8080 N   0  0  0  0  0  0  0  0  0  0  0  0
   22.1398   -5.8830  -15.2368 C   0  0  1  0  0  0  0  0  0  0  0  0
   20.7980   -5.8196  -15.8408 C   0  0  0  0  0  0  0  0  0  0  0  0
   20.1394   -4.5440  -16.0947 C   0  0  0  0  0  0  0  0  0  0  0  0
   18.7763   -4.5671  -16.6442 C   0  0  0  0  0  0  0  0  0  0  0  0
   18.2744   -3.1136  -16.8595 C   0  0  0  0  0  0  0  0  0  0  0  0
   16.9567   -3.1716  -17.4143 N   0  0  0  0  0  0  0  0  0  0  0  0
   22.2728   -5.2010  -13.9274 C   0  0  0  0  0  0  0  0  0  0  0  0
   22.5739   -3.8855  -13.6842 O   0  0  0  0  0  0  0  0  0  0  0  0
   22.0940   -5.9058  -12.8721 O   0  0  0  0  0  0  0  0  0  0  0  0
  2  1  1  6
  2  4  1  0
  3  2  1  0
  4  5  1  1
  6  4  1  0
  6  7  2  0
  8  9  1  0
 10  9  1  6
 10 11  1  0
 10 12  1  0
 11  6  1  0
 12 14  1  0
 13 12  2  0
 14 15  1  0
 15 21  1  0
 16 17  1  0
 15 16  1  1
 18 19  1  0
 18 17  1  0
 20 19  1  0
 21 23  2  0
 21 22  1  0
M  END
$$$$
