TSK.pdb
     RDKit          3D

 23 22  0  0  1  0  0  0  0  0999 V2000
   28.2823  -10.7269  -16.1241 C   0  0  0  0  0  0  0  0  0  0  0  0
   28.8764   -9.6873  -17.0493 C   0  0  1  0  0  0  0  0  0  0  0  0
   29.6584   -8.8042  -16.3264 O   0  0  0  0  0  0  0  0  0  0  0  0
   29.6608  -10.3559  -18.1693 C   0  0  2  0  0  0  0  0  0  0  0  0
   30.2814   -9.3236  -18.9739 N   0  0  0  0  0  0  0  0  0  0  0  0
   28.7431  -11.2052  -18.9494 C   0  0  0  0  0  0  0  0  0  0  0  0
   27.9417  -10.6311  -19.7276 O   0  0  0  0  0  0  0  0  0  0  0  0
   29.4028  -15.1965  -20.0990 O   0  0  0  0  0  0  0  0  0  0  0  0
   28.1704  -14.9126  -19.5674 C   0  0  0  0  0  0  0  0  0  0  0  0
   27.8166  -13.4541  -19.6022 C   0  0  2  0  0  0  0  0  0  0  0  0
   28.7157  -12.6190  -18.8703 N   0  0  0  0  0  0  0  0  0  0  0  0
   26.4307  -13.2925  -19.1044 C   0  0  0  0  0  0  0  0  0  0  0  0
   26.2107  -13.1633  -17.8734 O   0  0  0  0  0  0  0  0  0  0  0  0
   25.3248  -13.2777  -19.9765 N   0  0  0  0  0  0  0  0  0  0  0  0
   23.9405  -12.9818  -19.3932 C   0  0  1  0  0  0  0  0  0  0  0  0
   23.2937  -12.1733  -20.4407 C   0  0  0  0  0  0  0  0  0  0  0  0
   21.8920  -11.7849  -20.3426 C   0  0  0  0  0  0  0  0  0  0  0  0
   21.3038  -11.0309  -21.4589 C   0  0  0  0  0  0  0  0  0  0  0  0
   19.8015  -10.7614  -21.1741 C   0  0  0  0  0  0  0  0  0  0  0  0
   19.2440  -10.0878  -22.3068 N   0  0  0  0  0  0  0  0  0  0  0  0
   23.4074  -14.3566  -19.2409 C   0  0  0  0  0  0  0  0  0  0  0  0
   22.2725  -14.7570  -18.5837 O   0  0  0  0  0  0  0  0  0  0  0  0
   24.0726  -15.3120  -19.7764 O   0  0  0  0  0  0  0  0  0  0  0  0
  2  1  1  1
  2  4  1  0
  3  2  1  0
  4  5  1  6
  6  4  1  0
  6  7  2  0
  8  9  1  0
 10  9  1  1
 10 11  1  0
 10 12  1  0
 11  6  1  0
 12 14  1  0
 13 12  2  0
 14 15  1  0
 15 21  1  0
 16 17  1  0
 15 16  1  6
 18 19  1  0
 18 17  1  0
 20 19  1  0
 21 23  2  0
 21 22  1  0
M  END
$$$$
