TSK.pdb
     RDKit          3D

 23 22  0  0  1  0  0  0  0  0999 V2000
   18.2597  -12.5270  -18.8640 C   0  0  0  0  0  0  0  0  0  0  0  0
   18.8526  -11.6283  -17.8007 C   0  0  1  0  0  0  0  0  0  0  0  0
   17.8648  -10.8282  -17.2547 O   0  0  0  0  0  0  0  0  0  0  0  0
   19.5654  -12.4553  -16.7401 C   0  0  2  0  0  0  0  0  0  0  0  0
   18.6016  -13.3484  -16.1307 N   0  0  0  0  0  0  0  0  0  0  0  0
   20.1852  -11.5416  -15.7639 C   0  0  0  0  0  0  0  0  0  0  0  0
   19.4329  -11.0026  -14.9149 O   0  0  0  0  0  0  0  0  0  0  0  0
   24.3363  -10.6554  -15.8366 O   0  0  0  0  0  0  0  0  0  0  0  0
   23.6519  -10.4966  -14.6584 C   0  0  0  0  0  0  0  0  0  0  0  0
   22.1737  -10.3049  -14.8371 C   0  0  2  0  0  0  0  0  0  0  0  0
   21.5689  -11.2412  -15.7312 N   0  0  0  0  0  0  0  0  0  0  0  0
   21.9292   -8.9160  -15.2908 C   0  0  0  0  0  0  0  0  0  0  0  0
   21.5538   -8.6913  -16.4693 O   0  0  0  0  0  0  0  0  0  0  0  0
   22.1051   -7.8124  -14.4336 N   0  0  0  0  0  0  0  0  0  0  0  0
   21.8543   -6.4089  -14.9915 C   0  0  1  0  0  0  0  0  0  0  0  0
   20.4176   -6.4215  -15.3159 C   0  0  0  0  0  0  0  0  0  0  0  0
   19.6704   -5.1837  -15.5015 C   0  0  0  0  0  0  0  0  0  0  0  0
   18.2242   -5.2791  -15.7462 C   0  0  0  0  0  0  0  0  0  0  0  0
   17.6252   -3.8553  -15.9037 C   0  0  0  0  0  0  0  0  0  0  0  0
   16.2382   -3.9858  -16.2305 N   0  0  0  0  0  0  0  0  0  0  0  0
   22.2276   -5.5780  -13.8221 C   0  0  0  0  0  0  0  0  0  0  0  0
   22.4921   -5.9889  -12.5409 O   0  0  0  0  0  0  0  0  0  0  0  0
   22.3172   -4.3121  -13.9999 O   0  0  0  0  0  0  0  0  0  0  0  0
  2  1  1  6
  2  4  1  0
  3  2  1  0
  4  5  1  1
  6  4  1  0
  6  7  2  0
  8  9  1  0
 10  9  1  6
 10 11  1  0
 10 12  1  0
 11  6  1  0
 12 14  1  0
 13 12  2  0
 14 15  1  0
 15 21  1  0
 16 17  1  0
 15 16  1  1
 18 19  1  0
 18 17  1  0
 20 19  1  0
 21 23  2  0
 21 22  1  0
M  END
$$$$
