TSK.pdb
     RDKit          3D

 23 22  0  0  1  0  0  0  0  0999 V2000
   25.1987  -13.0003  -19.6769 C   0  0  0  0  0  0  0  0  0  0  0  0
   24.8130  -14.2330  -18.8886 C   0  0  1  0  0  0  0  0  0  0  0  0
   24.9212  -15.3571  -19.6878 O   0  0  0  0  0  0  0  0  0  0  0  0
   25.6598  -14.3472  -17.6290 C   0  0  2  0  0  0  0  0  0  0  0  0
   25.4000  -15.6342  -17.0171 N   0  0  0  0  0  0  0  0  0  0  0  0
   25.3352  -13.2209  -16.7357 C   0  0  0  0  0  0  0  0  0  0  0  0
   24.2038  -13.2203  -16.1905 O   0  0  0  0  0  0  0  0  0  0  0  0
   27.6125   -9.6115  -16.6950 O   0  0  0  0  0  0  0  0  0  0  0  0
   27.0013  -10.0113  -15.5338 C   0  0  0  0  0  0  0  0  0  0  0  0
   25.8624  -10.9660  -15.7458 C   0  0  2  0  0  0  0  0  0  0  0  0
   26.2204  -12.1500  -16.4612 N   0  0  0  0  0  0  0  0  0  0  0  0
   24.7671  -10.2480  -16.4383 C   0  0  0  0  0  0  0  0  0  0  0  0
   24.7673  -10.1492  -17.6915 O   0  0  0  0  0  0  0  0  0  0  0  0
   23.7013   -9.6583  -15.7310 N   0  0  0  0  0  0  0  0  0  0  0  0
   22.6659   -8.8481  -16.5154 C   0  0  1  0  0  0  0  0  0  0  0  0
   21.4653   -9.7005  -16.4785 C   0  0  0  0  0  0  0  0  0  0  0  0
   20.1865   -9.2336  -16.9999 C   0  0  0  0  0  0  0  0  0  0  0  0
   19.0663  -10.1844  -17.0370 C   0  0  0  0  0  0  0  0  0  0  0  0
   17.8731   -9.5573  -17.8076 C   0  0  0  0  0  0  0  0  0  0  0  0
   16.9060  -10.5839  -18.0495 N   0  0  0  0  0  0  0  0  0  0  0  0
   22.5919   -7.6215  -15.6863 C   0  0  0  0  0  0  0  0  0  0  0  0
   23.0346   -7.4398  -14.4013 O   0  0  0  0  0  0  0  0  0  0  0  0
   22.0462   -6.5863  -16.2084 O   0  0  0  0  0  0  0  0  0  0  0  0
  2  1  1  6
  2  4  1  0
  3  2  1  0
  4  5  1  1
  6  4  1  0
  6  7  2  0
  8  9  1  0
 10  9  1  6
 10 11  1  0
 10 12  1  0
 11  6  1  0
 12 14  1  0
 13 12  2  0
 14 15  1  0
 15 21  1  0
 16 17  1  0
 15 16  1  1
 18 19  1  0
 18 17  1  0
 20 19  1  0
 21 23  2  0
 21 22  1  0
M  END
$$$$
