TSK.pdb
     RDKit          3D

 23 22  0  0  1  0  0  0  0  0999 V2000
   26.7235  -21.0445  -15.0122 C   0  0  0  0  0  0  0  0  0  0  0  0
   25.3724  -20.5894  -14.5052 C   0  0  1  0  0  0  0  0  0  0  0  0
   24.7990  -19.7143  -15.4104 O   0  0  0  0  0  0  0  0  0  0  0  0
   24.4760  -21.7876  -14.2265 C   0  0  2  0  0  0  0  0  0  0  0  0
   24.2364  -22.4811  -15.4754 N   0  0  0  0  0  0  0  0  0  0  0  0
   23.2315  -21.3122  -13.5963 C   0  0  0  0  0  0  0  0  0  0  0  0
   23.3084  -20.8647  -12.4254 O   0  0  0  0  0  0  0  0  0  0  0  0
   19.7138  -20.6704  -15.7628 O   0  0  0  0  0  0  0  0  0  0  0  0
   19.8082  -20.1819  -14.4844 C   0  0  0  0  0  0  0  0  0  0  0  0
   20.7371  -20.9654  -13.6030 C   0  0  2  0  0  0  0  0  0  0  0  0
   21.9663  -21.3322  -14.2325 N   0  0  0  0  0  0  0  0  0  0  0  0
   20.0219  -22.1668  -13.1133 C   0  0  0  0  0  0  0  0  0  0  0  0
   20.1690  -23.2722  -13.6936 O   0  0  0  0  0  0  0  0  0  0  0  0
   19.1640  -22.1175  -11.9973 N   0  0  0  0  0  0  0  0  0  0  0  0
   18.4452  -23.4011  -11.5733 C   0  0  1  0  0  0  0  0  0  0  0  0
   18.4490  -23.3252  -10.1024 C   0  0  0  0  0  0  0  0  0  0  0  0
   18.1690  -24.4967   -9.2812 C   0  0  0  0  0  0  0  0  0  0  0  0
   18.1635  -24.3318   -7.8206 C   0  0  0  0  0  0  0  0  0  0  0  0
   17.6485  -25.6336   -7.1491 C   0  0  0  0  0  0  0  0  0  0  0  0
   17.6292  -25.4304   -5.7327 N   0  0  0  0  0  0  0  0  0  0  0  0
   17.1221  -23.1977  -12.2100 C   0  0  0  0  0  0  0  0  0  0  0  0
   16.4734  -22.0150  -12.4562 O   0  0  0  0  0  0  0  0  0  0  0  0
   16.4783  -24.2410  -12.5832 O   0  0  0  0  0  0  0  0  0  0  0  0
  2  1  1  6
  2  4  1  0
  3  2  1  0
  4  5  1  6
  6  4  1  0
  6  7  2  0
  8  9  1  0
 10  9  1  6
 10 11  1  0
 10 12  1  0
 11  6  1  0
 12 14  1  0
 13 12  2  0
 14 15  1  0
 15 21  1  0
 16 17  1  0
 15 16  1  1
 18 19  1  0
 18 17  1  0
 20 19  1  0
 21 23  2  0
 21 22  1  0
M  END
$$$$
