TSK.pdb
     RDKit          3D

 23 22  0  0  1  0  0  0  0  0999 V2000
   21.2775  -10.9466  -20.3910 C   0  0  0  0  0  0  0  0  0  0  0  0
   20.1492  -10.4578  -19.5093 C   0  0  1  0  0  0  0  0  0  0  0  0
   18.9691  -10.4207  -20.2305 O   0  0  0  0  0  0  0  0  0  0  0  0
   20.0286  -11.3274  -18.2659 C   0  0  2  0  0  0  0  0  0  0  0  0
   18.6407  -11.7100  -18.1068 N   0  0  0  0  0  0  0  0  0  0  0  0
   20.5434  -10.5739  -17.1087 C   0  0  0  0  0  0  0  0  0  0  0  0
   19.7044  -10.0048  -16.3673 O   0  0  0  0  0  0  0  0  0  0  0  0
   23.9996  -11.2212  -14.7174 O   0  0  0  0  0  0  0  0  0  0  0  0
   23.8552  -10.0093  -15.3438 C   0  0  0  0  0  0  0  0  0  0  0  0
   22.4366   -9.6807  -15.7086 C   0  0  2  0  0  0  0  0  0  0  0  0
   21.9184  -10.4576  -16.7901 N   0  0  0  0  0  0  0  0  0  0  0  0
   22.3513   -8.2341  -16.0164 C   0  0  0  0  0  0  0  0  0  0  0  0
   22.5669   -7.8209  -17.1839 O   0  0  0  0  0  0  0  0  0  0  0  0
   22.0307   -7.2819  -15.0293 N   0  0  0  0  0  0  0  0  0  0  0  0
   21.9399   -5.8096  -15.4390 C   0  0  1  0  0  0  0  0  0  0  0  0
   20.5197   -5.6394  -15.7906 C   0  0  0  0  0  0  0  0  0  0  0  0
   19.9636   -4.3251  -16.0880 C   0  0  0  0  0  0  0  0  0  0  0  0
   18.5258   -4.2326  -16.3790 C   0  0  0  0  0  0  0  0  0  0  0  0
   18.1406   -2.7526  -16.6472 C   0  0  0  0  0  0  0  0  0  0  0  0
   16.7553   -2.7070  -17.0032 N   0  0  0  0  0  0  0  0  0  0  0  0
   22.3597   -5.1482  -14.1806 C   0  0  0  0  0  0  0  0  0  0  0  0
   22.8303   -3.8715  -14.0108 O   0  0  0  0  0  0  0  0  0  0  0  0
   22.2893   -5.8333  -13.0999 O   0  0  0  0  0  0  0  0  0  0  0  0
  2  1  1  6
  2  4  1  0
  3  2  1  0
  4  5  1  1
  6  4  1  0
  6  7  2  0
  8  9  1  0
 10  9  1  6
 10 11  1  0
 10 12  1  0
 11  6  1  0
 12 14  1  0
 13 12  2  0
 14 15  1  0
 15 21  1  0
 16 17  1  0
 15 16  1  1
 18 19  1  0
 18 17  1  0
 20 19  1  0
 21 23  2  0
 21 22  1  0
M  END
$$$$
