VRL.pdb
     RDKit          3D

 27 26  0  0  1  0  0  0  0  0999 V2000
   26.9244  -12.4904  -17.8444 C   0  0  0  0  0  0  0  0  0  0  0  0
   27.5835  -11.2088  -17.3865 C   0  0  2  0  0  0  0  0  0  0  0  0
   28.9703  -11.5788  -16.8862 C   0  0  0  0  0  0  0  0  0  0  0  0
   26.8338  -10.5699  -16.2271 C   0  0  2  0  0  0  0  0  0  0  0  0
   26.6881  -11.5140  -15.1347 N   0  0  0  0  0  0  0  0  0  0  0  0
   25.4535  -10.1614  -16.6686 C   0  0  0  0  0  0  0  0  0  0  0  0
   25.2901   -9.3122  -17.5704 O   0  0  0  0  0  0  0  0  0  0  0  0
   17.5352  -11.9784  -15.0950 N   0  0  0  0  0  0  0  0  0  0  0  0
   17.3321  -11.6636  -16.4624 C   0  0  0  0  0  0  0  0  0  0  0  0
   16.1805  -11.2989  -16.8903 N   0  0  0  0  0  0  0  0  0  0  0  0
   18.4081  -11.7545  -17.3585 N   0  0  0  0  0  0  0  0  0  0  0  0
   19.7090  -12.2739  -17.0142 C   0  0  0  0  0  0  0  0  0  0  0  0
   20.6372  -11.0723  -16.8467 C   0  0  0  0  0  0  0  0  0  0  0  0
   22.0556  -11.4930  -16.5777 C   0  0  0  0  0  0  0  0  0  0  0  0
   22.9834  -10.3394  -16.3744 C   0  0  2  0  0  0  0  0  0  0  0  0
   24.3312  -10.7515  -16.0495 N   0  0  0  0  0  0  0  0  0  0  0  0
   22.4942   -9.3028  -15.4394 C   0  0  0  0  0  0  0  0  0  0  0  0
   22.4491   -9.4354  -14.1962 O   0  0  0  0  0  0  0  0  0  0  0  0
   16.0191  -11.0070  -17.8778 C   0  0  0  0  0  0  0  0  0  0  0  0
   21.9721   -3.2612  -15.3475 C   0  0  2  0  0  0  0  0  0  0  0  0
   21.7318   -4.5507  -14.5502 C   0  0  0  0  0  0  0  0  0  0  0  0
   22.4260   -4.3860  -13.2427 C   0  0  0  0  0  0  0  0  0  0  0  0
   22.2017   -5.6702  -15.4055 C   0  0  2  0  0  0  0  0  0  0  0  0
   21.5962   -7.0158  -15.0828 N   0  0  0  0  0  0  0  0  0  0  0  0
   22.0341   -8.0539  -15.9510 C   0  0  0  0  0  0  0  0  0  0  0  0
   20.1185   -6.9583  -14.9360 O   0  0  0  0  0  0  0  0  0  0  0  0
   19.3206   -7.2317  -15.8635 O   0  0  0  0  0  0  0  0  0  0  0  0
  2  1  1  1
  2  3  1  0
  4  2  1  0
  4  5  1  1
  6  4  1  0
  6  7  2  0
  9 10  2  0
  9  8  1  0
 11  9  1  0
 12 13  1  0
 12 11  1  0
 13 14  1  0
 15 14  1  1
 15 16  1  0
 16  6  1  0
 17 15  1  0
 18 17  2  0
 20 19  1  1
 20 22  1  0
 21 20  1  0
 23 22  1  1
 23 24  1  0
 24 17  1  0
 25 23  1  0
 25 27  1  0
 26 25  2  0
M  END
$$$$
