VRL.pdb
     RDKit          3D

 27 26  0  0  1  0  0  0  0  0999 V2000
   27.7710  -18.8816  -16.2436 C   0  0  0  0  0  0  0  0  0  0  0  0
   27.0131  -18.7020  -14.9475 C   0  0  2  0  0  0  0  0  0  0  0  0
   27.4743  -17.3853  -14.3441 C   0  0  0  0  0  0  0  0  0  0  0  0
   27.3348  -19.8018  -13.9468 C   0  0  2  0  0  0  0  0  0  0  0  0
   26.9841  -21.1010  -14.4900 N   0  0  0  0  0  0  0  0  0  0  0  0
   26.5371  -19.6005  -12.6857 C   0  0  0  0  0  0  0  0  0  0  0  0
   26.5879  -18.5225  -12.0561 O   0  0  0  0  0  0  0  0  0  0  0  0
   21.5596  -22.5979   -7.3983 N   0  0  0  0  0  0  0  0  0  0  0  0
   20.3868  -22.1515   -8.0583 C   0  0  0  0  0  0  0  0  0  0  0  0
   19.2421  -22.6559   -7.7802 N   0  0  0  0  0  0  0  0  0  0  0  0
   20.4833  -21.1441   -9.0303 N   0  0  0  0  0  0  0  0  0  0  0  0
   21.1972  -21.2841  -10.2758 C   0  0  0  0  0  0  0  0  0  0  0  0
   22.6341  -20.8348  -10.0173 C   0  0  0  0  0  0  0  0  0  0  0  0
   23.4920  -20.9662  -11.2454 C   0  0  0  0  0  0  0  0  0  0  0  0
   24.8952  -20.4968  -11.0364 C   0  0  2  0  0  0  0  0  0  0  0  0
   25.7214  -20.6506  -12.2135 N   0  0  0  0  0  0  0  0  0  0  0  0
   25.5617  -21.0396   -9.8326 C   0  0  0  0  0  0  0  0  0  0  0  0
   25.9963  -22.2083   -9.7305 O   0  0  0  0  0  0  0  0  0  0  0  0
   18.3689  -22.3595   -8.2661 C   0  0  0  0  0  0  0  0  0  0  0  0
   26.9782  -20.1582   -4.6313 C   0  0  1  0  0  0  0  0  0  0  0  0
   28.0711  -20.1943   -5.7085 C   0  0  0  0  0  0  0  0  0  0  0  0
   29.1949  -19.3522   -5.2123 C   0  0  0  0  0  0  0  0  0  0  0  0
   27.4315  -19.7544   -6.9745 C   0  0  2  0  0  0  0  0  0  0  0  0
   26.3750  -20.6898   -7.5131 N   0  0  0  0  0  0  0  0  0  0  0  0
   25.7399  -20.2054   -8.6900 C   0  0  0  0  0  0  0  0  0  0  0  0
   25.4150  -21.1315   -6.4682 O   0  0  0  0  0  0  0  0  0  0  0  0
   24.3222  -20.5584   -6.2469 O   0  0  0  0  0  0  0  0  0  0  0  0
  2  1  1  6
  2  3  1  0
  4  2  1  0
  4  5  1  6
  6  4  1  0
  6  7  2  0
  9 10  2  0
  9  8  1  0
 11  9  1  0
 12 13  1  0
 12 11  1  0
 13 14  1  0
 15 14  1  6
 15 16  1  0
 16  6  1  0
 17 15  1  0
 18 17  2  0
 20 19  1  1
 20 22  1  0
 21 20  1  0
 23 22  1  6
 23 24  1  0
 24 17  1  0
 25 23  1  0
 25 27  1  0
 26 25  2  0
M  END
$$$$
