VRL.pdb
     RDKit          3D

 27 26  0  0  1  0  0  0  0  0999 V2000
   26.3927  -18.5974  -15.5933 C   0  0  0  0  0  0  0  0  0  0  0  0
   27.8157  -18.5411  -15.0850 C   0  0  2  0  0  0  0  0  0  0  0  0
   28.7236  -18.7223  -16.2904 C   0  0  0  0  0  0  0  0  0  0  0  0
   28.1144  -19.6723  -14.1126 C   0  0  2  0  0  0  0  0  0  0  0  0
   27.8285  -20.9567  -14.7244 N   0  0  0  0  0  0  0  0  0  0  0  0
   27.2465  -19.5427  -12.8890 C   0  0  0  0  0  0  0  0  0  0  0  0
   27.2579  -18.5019  -12.1980 O   0  0  0  0  0  0  0  0  0  0  0  0
   22.1654  -23.6220  -13.6805 N   0  0  0  0  0  0  0  0  0  0  0  0
   21.2220  -22.5636  -13.6654 C   0  0  0  0  0  0  0  0  0  0  0  0
   19.9770  -22.7940  -13.4676 N   0  0  0  0  0  0  0  0  0  0  0  0
   21.6596  -21.2464  -13.8713 N   0  0  0  0  0  0  0  0  0  0  0  0
   23.0427  -20.8378  -13.8472 C   0  0  0  0  0  0  0  0  0  0  0  0
   23.3049  -20.2381  -12.4670 C   0  0  0  0  0  0  0  0  0  0  0  0
   24.1843  -21.1243  -11.6287 C   0  0  0  0  0  0  0  0  0  0  0  0
   25.5359  -20.5404  -11.3731 C   0  0  2  0  0  0  0  0  0  0  0  0
   26.4093  -20.6181  -12.5233 N   0  0  0  0  0  0  0  0  0  0  0  0
   26.2068  -21.0323  -10.1500 C   0  0  0  0  0  0  0  0  0  0  0  0
   27.3240  -21.5951  -10.1332 O   0  0  0  0  0  0  0  0  0  0  0  0
   19.2577  -22.0406  -13.5035 C   0  0  0  0  0  0  0  0  0  0  0  0
   27.2908  -19.6948   -5.2000 C   0  0  1  0  0  0  0  0  0  0  0  0
   28.2409  -20.2203   -6.2850 C   0  0  0  0  0  0  0  0  0  0  0  0
   29.4912  -19.4163   -6.1909 C   0  0  0  0  0  0  0  0  0  0  0  0
   27.5023  -20.1358   -7.5706 C   0  0  2  0  0  0  0  0  0  0  0  0
   26.2898  -21.0312   -7.6687 N   0  0  0  0  0  0  0  0  0  0  0  0
   25.5690  -20.8731   -8.8847 C   0  0  0  0  0  0  0  0  0  0  0  0
   25.4261  -20.9595   -6.4615 O   0  0  0  0  0  0  0  0  0  0  0  0
   25.7905  -21.3487   -5.3268 O   0  0  0  0  0  0  0  0  0  0  0  0
  2  1  1  6
  2  3  1  0
  4  2  1  0
  4  5  1  6
  6  4  1  0
  6  7  2  0
  9 10  2  0
  9  8  1  0
 11  9  1  0
 12 13  1  0
 12 11  1  0
 13 14  1  0
 15 14  1  6
 15 16  1  0
 16  6  1  0
 17 15  1  0
 18 17  2  0
 20 19  1  1
 20 22  1  0
 21 20  1  0
 23 22  1  6
 23 24  1  0
 24 17  1  0
 25 23  1  0
 25 27  1  0
 26 25  2  0
M  END
$$$$
