VRL.pdb
     RDKit          3D

 27 26  0  0  1  0  0  0  0  0999 V2000
   17.6671  -14.6258  -19.8367 C   0  0  0  0  0  0  0  0  0  0  0  0
   18.8389  -15.4443  -19.3433 C   0  0  2  0  0  0  0  0  0  0  0  0
   18.3270  -16.8574  -19.1161 C   0  0  0  0  0  0  0  0  0  0  0  0
   19.3685  -14.9298  -18.0132 C   0  0  2  0  0  0  0  0  0  0  0  0
   18.3559  -15.0539  -16.9812 N   0  0  0  0  0  0  0  0  0  0  0  0
   19.7284  -13.4725  -18.1309 C   0  0  0  0  0  0  0  0  0  0  0  0
   20.6319  -13.0923  -18.9056 O   0  0  0  0  0  0  0  0  0  0  0  0
   13.7668   -7.9745  -18.7192 N   0  0  0  0  0  0  0  0  0  0  0  0
   14.0053   -9.2722  -18.2002 C   0  0  0  0  0  0  0  0  0  0  0  0
   13.0644   -9.9430  -17.6462 N   0  0  0  0  0  0  0  0  0  0  0  0
   15.2905   -9.8274  -18.2944 N   0  0  0  0  0  0  0  0  0  0  0  0
   16.4075   -9.1828  -18.9404 C   0  0  0  0  0  0  0  0  0  0  0  0
   17.5840  -10.1543  -18.8678 C   0  0  0  0  0  0  0  0  0  0  0  0
   18.1542  -10.2412  -17.4790 C   0  0  0  0  0  0  0  0  0  0  0  0
   19.3601  -11.1194  -17.3915 C   0  0  2  0  0  0  0  0  0  0  0  0
   19.0297  -12.5268  -17.3507 N   0  0  0  0  0  0  0  0  0  0  0  0
   20.3193  -10.7575  -16.3252 C   0  0  0  0  0  0  0  0  0  0  0  0
   20.1507  -10.9998  -15.1095 O   0  0  0  0  0  0  0  0  0  0  0  0
   13.2050  -10.9129  -17.2914 C   0  0  0  0  0  0  0  0  0  0  0  0
   26.2372  -10.0737  -15.4532 C   0  0  1  0  0  0  0  0  0  0  0  0
   24.8563   -9.6909  -14.9030 C   0  0  0  0  0  0  0  0  0  0  0  0
   24.7454  -10.3032  -13.5497 C   0  0  0  0  0  0  0  0  0  0  0  0
   23.8609  -10.1400  -15.9094 C   0  0  2  0  0  0  0  0  0  0  0  0
   22.4483   -9.6647  -15.6643 N   0  0  0  0  0  0  0  0  0  0  0  0
   21.5300  -10.0857  -16.6656 C   0  0  0  0  0  0  0  0  0  0  0  0
   22.3760   -8.2083  -15.3774 O   0  0  0  0  0  0  0  0  0  0  0  0
   22.2894   -7.3316  -16.2693 O   0  0  0  0  0  0  0  0  0  0  0  0
  2  1  1  1
  2  3  1  0
  4  2  1  0
  4  5  1  1
  6  4  1  0
  6  7  2  0
  9 10  2  0
  9  8  1  0
 11  9  1  0
 12 13  1  0
 12 11  1  0
 13 14  1  0
 15 14  1  1
 15 16  1  0
 16  6  1  0
 17 15  1  0
 18 17  2  0
 20 19  1  1
 20 22  1  0
 21 20  1  0
 23 22  1  1
 23 24  1  0
 24 17  1  0
 25 23  1  0
 25 27  1  0
 26 25  2  0
M  END
$$$$
