VRL.pdb
     RDKit          3D

 27 26  0  0  1  0  0  0  0  0999 V2000
   24.5592  -14.8746  -15.6537 C   0  0  0  0  0  0  0  0  0  0  0  0
   25.9232  -15.4146  -15.2872 C   0  0  2  0  0  0  0  0  0  0  0  0
   26.9287  -14.3136  -15.5822 C   0  0  0  0  0  0  0  0  0  0  0  0
   26.3014  -16.6195  -16.1354 C   0  0  2  0  0  0  0  0  0  0  0  0
   26.2644  -16.2795  -17.5456 N   0  0  0  0  0  0  0  0  0  0  0  0
   25.3208  -17.7389  -15.9067 C   0  0  0  0  0  0  0  0  0  0  0  0
   24.3396  -17.9008  -16.6632 O   0  0  0  0  0  0  0  0  0  0  0  0
   22.4450  -23.8940  -12.7436 N   0  0  0  0  0  0  0  0  0  0  0  0
   23.3145  -24.7651  -13.4474 C   0  0  0  0  0  0  0  0  0  0  0  0
   22.8750  -25.8436  -13.9823 N   0  0  0  0  0  0  0  0  0  0  0  0
   24.6752  -24.4407  -13.5578 N   0  0  0  0  0  0  0  0  0  0  0  0
   25.2474  -23.1870  -13.1319 C   0  0  0  0  0  0  0  0  0  0  0  0
   24.5672  -22.0884  -13.9466 C   0  0  0  0  0  0  0  0  0  0  0  0
   25.1362  -20.7303  -13.6412 C   0  0  0  0  0  0  0  0  0  0  0  0
   24.5586  -19.6453  -14.4910 C   0  0  2  0  0  0  0  0  0  0  0  0
   25.5195  -18.6153  -14.8188 N   0  0  0  0  0  0  0  0  0  0  0  0
   23.2941  -19.0655  -13.9882 C   0  0  0  0  0  0  0  0  0  0  0  0
   23.1760  -17.9015  -13.5452 O   0  0  0  0  0  0  0  0  0  0  0  0
   23.4956  -26.5040  -14.4972 C   0  0  0  0  0  0  0  0  0  0  0  0
   19.8312  -16.7212  -14.7314 C   0  0  1  0  0  0  0  0  0  0  0  0
   20.9896  -17.1144  -15.6586 C   0  0  0  0  0  0  0  0  0  0  0  0
   20.7970  -16.3662  -16.9320 C   0  0  0  0  0  0  0  0  0  0  0  0
   20.9667  -18.5959  -15.7587 C   0  0  2  0  0  0  0  0  0  0  0  0
   20.8660  -19.3222  -14.4382 N   0  0  0  0  0  0  0  0  0  0  0  0
   22.1069  -19.8553  -13.9919 C   0  0  0  0  0  0  0  0  0  0  0  0
   19.7589  -20.3132  -14.4128 O   0  0  0  0  0  0  0  0  0  0  0  0
   19.9146  -21.5302  -14.6706 O   0  0  0  0  0  0  0  0  0  0  0  0
  2  1  1  6
  2  3  1  0
  4  2  1  0
  4  5  1  6
  6  4  1  0
  6  7  2  0
  9 10  2  0
  9  8  1  0
 11  9  1  0
 12 13  1  0
 12 11  1  0
 13 14  1  0
 15 14  1  1
 15 16  1  0
 16  6  1  0
 17 15  1  0
 18 17  2  0
 20 19  1  1
 20 22  1  0
 21 20  1  0
 23 22  1  1
 23 24  1  0
 24 17  1  0
 25 23  1  0
 25 27  1  0
 26 25  2  0
M  END
$$$$
