VRL.pdb
     RDKit          3D

 27 26  0  0  1  0  0  0  0  0999 V2000
   27.0678  -17.4733  -18.8835 C   0  0  0  0  0  0  0  0  0  0  0  0
   28.1691  -17.8358  -17.9128 C   0  0  2  0  0  0  0  0  0  0  0  0
   29.3940  -18.1830  -18.7431 C   0  0  0  0  0  0  0  0  0  0  0  0
   27.8136  -19.0623  -17.0860 C   0  0  2  0  0  0  0  0  0  0  0  0
   27.6394  -20.2199  -17.9437 N   0  0  0  0  0  0  0  0  0  0  0  0
   26.5175  -18.8330  -16.3548 C   0  0  0  0  0  0  0  0  0  0  0  0
   26.4467  -18.0211  -15.4077 O   0  0  0  0  0  0  0  0  0  0  0  0
   18.8219  -17.3724  -15.6326 N   0  0  0  0  0  0  0  0  0  0  0  0
   19.4032  -16.8166  -16.8003 C   0  0  0  0  0  0  0  0  0  0  0  0
   19.2218  -15.5849  -17.1040 N   0  0  0  0  0  0  0  0  0  0  0  0
   20.1867  -17.6286  -17.6344 N   0  0  0  0  0  0  0  0  0  0  0  0
   20.4751  -19.0180  -17.3759 C   0  0  0  0  0  0  0  0  0  0  0  0
   21.6269  -19.0537  -16.3732 C   0  0  0  0  0  0  0  0  0  0  0  0
   22.9544  -19.2520  -17.0514 C   0  0  0  0  0  0  0  0  0  0  0  0
   24.0948  -19.3631  -16.0922 C   0  0  2  0  0  0  0  0  0  0  0  0
   25.3686  -19.5498  -16.7512 N   0  0  0  0  0  0  0  0  0  0  0  0
   23.9002  -20.3445  -15.0027 C   0  0  0  0  0  0  0  0  0  0  0  0
   24.3308  -21.5190  -15.0228 O   0  0  0  0  0  0  0  0  0  0  0  0
   19.6585  -15.1471  -17.9430 C   0  0  0  0  0  0  0  0  0  0  0  0
   25.5301  -22.2376  -11.8122 C   0  0  2  0  0  0  0  0  0  0  0  0
   25.4246  -20.7085  -11.7294 C   0  0  0  0  0  0  0  0  0  0  0  0
   26.3284  -20.2719  -10.6289 C   0  0  0  0  0  0  0  0  0  0  0  0
   23.9835  -20.3930  -11.5585 C   0  0  2  0  0  0  0  0  0  0  0  0
   23.0970  -20.8239  -12.7029 N   0  0  0  0  0  0  0  0  0  0  0  0
   23.1780  -19.9645  -13.8335 C   0  0  0  0  0  0  0  0  0  0  0  0
   21.7009  -21.0982  -12.2737 O   0  0  0  0  0  0  0  0  0  0  0  0
   20.7956  -20.2310  -12.2708 O   0  0  0  0  0  0  0  0  0  0  0  0
  2  1  1  6
  2  3  1  0
  4  2  1  0
  4  5  1  6
  6  4  1  0
  6  7  2  0
  9 10  2  0
  9  8  1  0
 11  9  1  0
 12 13  1  0
 12 11  1  0
 13 14  1  0
 15 14  1  6
 15 16  1  0
 16  6  1  0
 17 15  1  0
 18 17  2  0
 20 19  1  6
 20 22  1  0
 21 20  1  0
 23 22  1  6
 23 24  1  0
 24 17  1  0
 25 23  1  0
 25 27  1  0
 26 25  2  0
M  END
$$$$
