VRL.pdb
     RDKit          3D

 27 26  0  0  1  0  0  0  0  0999 V2000
   20.3926  -29.6675  -12.6422 C   0  0  0  0  0  0  0  0  0  0  0  0
   20.5470  -28.8274  -13.8899 C   0  0  2  0  0  0  0  0  0  0  0  0
   21.8823  -29.2011  -14.5124 C   0  0  0  0  0  0  0  0  0  0  0  0
   20.5912  -27.3409  -13.5695 C   0  0  2  0  0  0  0  0  0  0  0  0
   21.7580  -27.0293  -12.7650 N   0  0  0  0  0  0  0  0  0  0  0  0
   19.3707  -26.9473  -12.7804 C   0  0  0  0  0  0  0  0  0  0  0  0
   18.2395  -26.9264  -13.3107 O   0  0  0  0  0  0  0  0  0  0  0  0
   18.1451  -25.7707   -3.9544 N   0  0  0  0  0  0  0  0  0  0  0  0
   16.9741  -25.4226   -4.6741 C   0  0  0  0  0  0  0  0  0  0  0  0
   15.9010  -25.0832   -4.0613 N   0  0  0  0  0  0  0  0  0  0  0  0
   16.9922  -25.4518   -6.0769 N   0  0  0  0  0  0  0  0  0  0  0  0
   17.5746  -26.5149   -6.8587 C   0  0  0  0  0  0  0  0  0  0  0  0
   17.3672  -26.1510   -8.3277 C   0  0  0  0  0  0  0  0  0  0  0  0
   18.5825  -26.4587   -9.1583 C   0  0  0  0  0  0  0  0  0  0  0  0
   18.3791  -26.2032  -10.6165 C   0  0  2  0  0  0  0  0  0  0  0  0
   19.5144  -26.5980  -11.4209 N   0  0  0  0  0  0  0  0  0  0  0  0
   17.9267  -24.8357  -10.9531 C   0  0  0  0  0  0  0  0  0  0  0  0
   18.6594  -23.8219  -10.9292 O   0  0  0  0  0  0  0  0  0  0  0  0
   15.0226  -24.8406   -4.5673 C   0  0  0  0  0  0  0  0  0  0  0  0
   14.0897  -24.2046  -13.6437 C   0  0  1  0  0  0  0  0  0  0  0  0
   14.8284  -22.8697  -13.8126 C   0  0  0  0  0  0  0  0  0  0  0  0
   14.8482  -22.5682  -15.2711 C   0  0  0  0  0  0  0  0  0  0  0  0
   16.1518  -23.0334  -13.1589 C   0  0  1  0  0  0  0  0  0  0  0  0
   16.0992  -23.3190  -11.6767 N   0  0  0  0  0  0  0  0  0  0  0  0
   16.5706  -24.6168  -11.3355 C   0  0  0  0  0  0  0  0  0  0  0  0
   14.7768  -22.9993  -11.0787 O   0  0  0  0  0  0  0  0  0  0  0  0
   14.1984  -21.8973  -11.2291 O   0  0  0  0  0  0  0  0  0  0  0  0
  2  1  1  1
  2  3  1  0
  4  2  1  0
  4  5  1  1
  6  4  1  0
  6  7  2  0
  9 10  2  0
  9  8  1  0
 11  9  1  0
 12 13  1  0
 12 11  1  0
 13 14  1  0
 15 14  1  1
 15 16  1  0
 16  6  1  0
 17 15  1  0
 18 17  2  0
 20 19  1  1
 20 22  1  0
 21 20  1  0
 23 22  1  1
 23 24  1  0
 24 17  1  0
 25 23  1  0
 25 27  1  0
 26 25  2  0
M  END
$$$$
