VRL.pdb
     RDKit          3D

 27 26  0  0  1  0  0  0  0  0999 V2000
   27.3246  -22.2197  -19.4555 C   0  0  0  0  0  0  0  0  0  0  0  0
   28.0311  -22.8817  -18.2940 C   0  0  2  0  0  0  0  0  0  0  0  0
   27.4658  -24.2877  -18.1757 C   0  0  0  0  0  0  0  0  0  0  0  0
   27.7549  -22.1651  -16.9808 C   0  0  2  0  0  0  0  0  0  0  0  0
   28.5019  -22.7806  -15.8996 N   0  0  0  0  0  0  0  0  0  0  0  0
   26.2913  -22.2596  -16.6401 C   0  0  0  0  0  0  0  0  0  0  0  0
   25.4189  -21.8143  -17.4158 O   0  0  0  0  0  0  0  0  0  0  0  0
   20.5204  -27.6095  -12.8409 N   0  0  0  0  0  0  0  0  0  0  0  0
   21.5907  -27.6922  -13.7671 C   0  0  0  0  0  0  0  0  0  0  0  0
   21.6834  -28.6783  -14.5802 N   0  0  0  0  0  0  0  0  0  0  0  0
   22.5618  -26.6796  -13.7913 N   0  0  0  0  0  0  0  0  0  0  0  0
   22.5616  -25.5341  -12.9147 C   0  0  0  0  0  0  0  0  0  0  0  0
   22.8022  -24.3051  -13.7893 C   0  0  0  0  0  0  0  0  0  0  0  0
   24.2510  -24.1600  -14.1656 C   0  0  0  0  0  0  0  0  0  0  0  0
   24.5158  -22.9804  -15.0440 C   0  0  2  0  0  0  0  0  0  0  0  0
   25.9063  -22.8621  -15.4236 N   0  0  0  0  0  0  0  0  0  0  0  0
   23.9807  -21.6960  -14.5418 C   0  0  0  0  0  0  0  0  0  0  0  0
   24.5072  -21.0172  -13.6323 O   0  0  0  0  0  0  0  0  0  0  0  0
   22.4134  -28.7223  -15.3228 C   0  0  0  0  0  0  0  0  0  0  0  0
   23.9302  -17.7199  -15.8632 C   0  0  2  0  0  0  0  0  0  0  0  0
   22.9935  -18.6143  -16.6870 C   0  0  0  0  0  0  0  0  0  0  0  0
   22.6271  -17.8462  -17.9095 C   0  0  0  0  0  0  0  0  0  0  0  0
   21.8724  -18.9923  -15.7896 C   0  0  2  0  0  0  0  0  0  0  0  0
   22.2461  -19.9238  -14.6609 N   0  0  0  0  0  0  0  0  0  0  0  0
   22.7855  -21.1621  -15.1069 C   0  0  0  0  0  0  0  0  0  0  0  0
   21.1542  -20.0843  -13.6657 O   0  0  0  0  0  0  0  0  0  0  0  0
   20.5725  -21.1732  -13.4474 O   0  0  0  0  0  0  0  0  0  0  0  0
  2  1  1  6
  2  3  1  0
  4  2  1  0
  4  5  1  1
  6  4  1  0
  6  7  2  0
  9 10  2  0
  9  8  1  0
 11  9  1  0
 12 13  1  0
 12 11  1  0
 13 14  1  0
 15 14  1  1
 15 16  1  0
 16  6  1  0
 17 15  1  0
 18 17  2  0
 20 19  1  6
 20 22  1  0
 21 20  1  0
 23 22  1  1
 23 24  1  0
 24 17  1  0
 25 23  1  0
 25 27  1  0
 26 25  2  0
M  END
$$$$
