VRL.pdb
     RDKit          3D

 27 26  0  0  1  0  0  0  0  0999 V2000
   21.6901  -27.7001  -16.6754 C   0  0  0  0  0  0  0  0  0  0  0  0
   21.7169  -28.1021  -15.2179 C   0  0  2  0  0  0  0  0  0  0  0  0
   20.8974  -29.3764  -15.0954 C   0  0  0  0  0  0  0  0  0  0  0  0
   21.0667  -27.0524  -14.3293 C   0  0  2  0  0  0  0  0  0  0  0  0
   19.6658  -26.8932  -14.6729 N   0  0  0  0  0  0  0  0  0  0  0  0
   21.7421  -25.7211  -14.5256 C   0  0  0  0  0  0  0  0  0  0  0  0
   22.9480  -25.5618  -14.2399 O   0  0  0  0  0  0  0  0  0  0  0  0
   21.4201  -18.0427  -15.9654 N   0  0  0  0  0  0  0  0  0  0  0  0
   21.9599  -18.2148  -17.2651 C   0  0  0  0  0  0  0  0  0  0  0  0
   22.7856  -17.3650  -17.7531 N   0  0  0  0  0  0  0  0  0  0  0  0
   21.5825  -19.3314  -18.0265 N   0  0  0  0  0  0  0  0  0  0  0  0
   20.7048  -20.3750  -17.5564 C   0  0  0  0  0  0  0  0  0  0  0  0
   21.4904  -21.1867  -16.5281 C   0  0  0  0  0  0  0  0  0  0  0  0
   20.8991  -22.5541  -16.3230 C   0  0  0  0  0  0  0  0  0  0  0  0
   21.5935  -23.3426  -15.2605 C   0  0  2  0  0  0  0  0  0  0  0  0
   20.9949  -24.6407  -15.0410 N   0  0  0  0  0  0  0  0  0  0  0  0
   21.8049  -22.6216  -13.9863 C   0  0  0  0  0  0  0  0  0  0  0  0
   20.9144  -22.4199  -13.1311 O   0  0  0  0  0  0  0  0  0  0  0  0
   23.1726  -17.4533  -18.7168 C   0  0  0  0  0  0  0  0  0  0  0  0
   26.5512  -20.6625  -10.6149 C   0  0  2  0  0  0  0  0  0  0  0  0
   25.0235  -20.7879  -10.6953 C   0  0  0  0  0  0  0  0  0  0  0  0
   24.5716  -21.3938   -9.4119 C   0  0  0  0  0  0  0  0  0  0  0  0
   24.7272  -21.5632  -11.9267 C   0  0  2  0  0  0  0  0  0  0  0  0
   23.3331  -21.3763  -12.4772 N   0  0  0  0  0  0  0  0  0  0  0  0
   23.0974  -22.1062  -13.6750 C   0  0  0  0  0  0  0  0  0  0  0  0
   22.9437  -19.9455  -12.5759 O   0  0  0  0  0  0  0  0  0  0  0  0
   23.2193  -19.2206  -13.5609 O   0  0  0  0  0  0  0  0  0  0  0  0
  2  1  1  6
  2  3  1  0
  4  2  1  0
  4  5  1  6
  6  4  1  0
  6  7  2  0
  9 10  2  0
  9  8  1  0
 11  9  1  0
 12 13  1  0
 12 11  1  0
 13 14  1  0
 15 14  1  6
 15 16  1  0
 16  6  1  0
 17 15  1  0
 18 17  2  0
 20 19  1  1
 20 22  1  0
 21 20  1  0
 23 22  1  1
 23 24  1  0
 24 17  1  0
 25 23  1  0
 25 27  1  0
 26 25  2  0
M  END
$$$$
