ICP.pdb
     RDKit          3D

 22 22  0  0  1  0  0  0  0  0999 V2000
   10.2549  -14.2910   29.9087 C   0  0  0  0  0  0  0  0  0  0  0  0
    9.9645  -14.8686   28.5631 C   0  0  0  0  0  0  0  0  0  0  0  0
    9.9177  -16.3572   28.5324 C   0  0  2  0  0  0  0  0  0  0  0  0
   10.9400  -16.8560   27.5313 C   0  0  0  0  0  0  0  0  0  0  0  0
    8.5347  -16.9025   28.2602 C   0  0  2  0  0  0  0  0  0  0  0  0
    8.5751  -18.3737   28.2586 N   0  0  0  0  0  0  0  0  0  0  0  0
    8.0192  -16.5106   26.9272 C   0  0  0  0  0  0  0  0  0  0  0  0
    7.9943  -17.4324   26.0434 O   0  0  0  0  0  0  0  0  0  0  0  0
    7.5717  -15.2029   26.6126 N   0  0  0  0  0  0  0  0  0  0  0  0
    7.3138  -14.8675   25.2591 C   0  0  1  0  0  0  0  0  0  0  0  0
    7.0827  -13.3506   25.2057 C   0  0  0  0  0  0  0  0  0  0  0  0
    5.7324  -12.8404   26.2661 S   0  0  0  0  0  0  0  0  0  0  0  0
    8.3256  -15.2589   24.2747 C   0  0  0  0  0  0  0  0  0  0  0  0
    9.3493  -15.8320   24.7920 O   0  0  0  0  0  0  0  0  0  0  0  0
    8.2666  -15.0655   22.8770 N   0  0  0  0  0  0  0  0  0  0  0  0
    7.3581  -14.1057   22.2266 C   0  0  0  0  0  0  0  0  0  0  0  0
    6.7299  -15.0281   21.1728 C   0  0  0  0  0  0  0  0  0  0  0  0
    8.0172  -15.6187   20.5825 C   0  0  0  0  0  0  0  0  0  0  0  0
    8.9732  -15.6633   21.7793 C   0  0  1  0  0  0  0  0  0  0  0  0
   10.1529  -14.8457   21.3784 C   0  0  0  0  0  0  0  0  0  0  0  0
   10.9327  -15.3321   20.5238 O   0  0  0  0  0  0  0  0  0  0  0  0
   10.4027  -13.6009   21.9089 O   0  0  0  0  0  0  0  0  0  0  0  0
  1  2  1  0
  2  3  1  0
  3  4  1  6
  5  6  1  6
  5  3  1  0
  7  5  1  0
  7  9  1  0
  8  7  2  0
 10  9  1  0
 10 11  1  1
 11 12  1  0
 13 10  1  0
 14 13  2  0
 15 13  1  0
 15 16  1  0
 17 16  1  0
 18 19  1  0
 18 17  1  0
 19 20  1  6
 19 15  1  0
 20 22  1  0
 21 20  2  0
M  END
$$$$
