ICP.pdb
     RDKit          3D

 22 22  0  0  1  0  0  0  0  0999 V2000
    6.8220  -13.0119   20.2032 C   0  0  0  0  0  0  0  0  0  0  0  0
    8.2862  -13.0209   20.4943 C   0  0  0  0  0  0  0  0  0  0  0  0
    8.9334  -14.3537   20.3398 C   0  0  2  0  0  0  0  0  0  0  0  0
    8.7056  -14.8445   18.9244 C   0  0  0  0  0  0  0  0  0  0  0  0
    8.4804  -15.3574   21.3749 C   0  0  2  0  0  0  0  0  0  0  0  0
    7.0583  -15.6744   21.1665 N   0  0  0  0  0  0  0  0  0  0  0  0
    8.5797  -14.8348   22.7581 C   0  0  0  0  0  0  0  0  0  0  0  0
    9.7526  -14.5221   23.1555 O   0  0  0  0  0  0  0  0  0  0  0  0
    7.4647  -14.6768   23.6189 N   0  0  0  0  0  0  0  0  0  0  0  0
    7.6846  -14.3658   24.9849 C   0  0  1  0  0  0  0  0  0  0  0  0
    6.3053  -14.2392   25.6471 C   0  0  0  0  0  0  0  0  0  0  0  0
    6.4305  -13.7953   27.3778 S   0  0  0  0  0  0  0  0  0  0  0  0
    8.5280  -15.2892   25.7477 C   0  0  0  0  0  0  0  0  0  0  0  0
    8.6692  -16.4346   25.1893 O   0  0  0  0  0  0  0  0  0  0  0  0
    9.1634  -15.0322   26.9825 N   0  0  0  0  0  0  0  0  0  0  0  0
    8.7910  -13.9189   27.8724 C   0  0  0  0  0  0  0  0  0  0  0  0
   10.1802  -13.3107   28.1094 C   0  0  0  0  0  0  0  0  0  0  0  0
   10.9308  -14.5896   28.5035 C   0  0  0  0  0  0  0  0  0  0  0  0
   10.2385  -15.6804   27.6794 C   0  0  1  0  0  0  0  0  0  0  0  0
    9.7293  -16.6681   28.6724 C   0  0  0  0  0  0  0  0  0  0  0  0
    8.4897  -16.7121   28.8640 O   0  0  0  0  0  0  0  0  0  0  0  0
   10.5638  -17.5127   29.3678 O   0  0  0  0  0  0  0  0  0  0  0  0
  1  2  1  0
  2  3  1  0
  3  4  1  6
  5  6  1  6
  5  3  1  0
  7  5  1  0
  7  9  1  0
  8  7  2  0
 10  9  1  0
 10 11  1  1
 11 12  1  0
 13 10  1  0
 14 13  2  0
 15 13  1  0
 15 16  1  0
 17 16  1  0
 18 19  1  0
 18 17  1  0
 19 20  1  1
 19 15  1  0
 20 22  1  0
 21 20  2  0
M  END
$$$$
