ICP.pdb
     RDKit          3D

 22 22  0  0  1  0  0  0  0  0999 V2000
    5.6038  -11.3048   26.9629 C   0  0  0  0  0  0  0  0  0  0  0  0
    6.5188  -12.2534   27.6641 C   0  0  0  0  0  0  0  0  0  0  0  0
    7.2338  -13.1966   26.7597 C   0  0  2  0  0  0  0  0  0  0  0  0
    8.1842  -12.4054   25.8840 C   0  0  0  0  0  0  0  0  0  0  0  0
    6.2998  -14.0677   25.9516 C   0  0  2  0  0  0  0  0  0  0  0  0
    5.6291  -15.0302   26.8403 N   0  0  0  0  0  0  0  0  0  0  0  0
    7.0121  -14.8813   24.9383 C   0  0  0  0  0  0  0  0  0  0  0  0
    7.6157  -15.9183   25.3764 O   0  0  0  0  0  0  0  0  0  0  0  0
    7.0452  -14.5616   23.5577 N   0  0  0  0  0  0  0  0  0  0  0  0
    7.8577  -15.3336   22.6888 C   0  0  1  0  0  0  0  0  0  0  0  0
    7.6732  -14.7656   21.2744 C   0  0  0  0  0  0  0  0  0  0  0  0
    8.6805  -15.6265   20.0694 S   0  0  0  0  0  0  0  0  0  0  0  0
    9.2829  -15.4201   23.0162 C   0  0  0  0  0  0  0  0  0  0  0  0
    9.7746  -14.3219   23.4589 O   0  0  0  0  0  0  0  0  0  0  0  0
   10.1135  -16.5553   22.8896 N   0  0  0  0  0  0  0  0  0  0  0  0
    9.6360  -17.8624   22.4065 C   0  0  0  0  0  0  0  0  0  0  0  0
   10.1835  -18.7595   23.5251 C   0  0  0  0  0  0  0  0  0  0  0  0
   11.6339  -18.2589   23.5369 C   0  0  0  0  0  0  0  0  0  0  0  0
   11.5059  -16.7795   23.1586 C   0  0  1  0  0  0  0  0  0  0  0  0
   12.3341  -16.6083   21.9315 C   0  0  0  0  0  0  0  0  0  0  0  0
   11.7507  -16.6817   20.8227 O   0  0  0  0  0  0  0  0  0  0  0  0
   13.6896  -16.3774   21.9822 O   0  0  0  0  0  0  0  0  0  0  0  0
  1  2  1  0
  2  3  1  0
  3  4  1  6
  5  6  1  1
  5  3  1  0
  7  5  1  0
  7  9  1  0
  8  7  2  0
 10  9  1  0
 10 11  1  6
 11 12  1  0
 13 10  1  0
 14 13  2  0
 15 13  1  0
 15 16  1  0
 17 16  1  0
 18 19  1  0
 18 17  1  0
 19 20  1  6
 19 15  1  0
 20 22  1  0
 21 20  2  0
M  END
$$$$
