ICP.pdb
     RDKit          3D

 22 22  0  0  1  0  0  0  0  0999 V2000
    7.1394  -12.3663   19.7144 C   0  0  0  0  0  0  0  0  0  0  0  0
    7.2795  -13.4952   20.6811 C   0  0  0  0  0  0  0  0  0  0  0  0
    8.5036  -14.3212   20.4853 C   0  0  2  0  0  0  0  0  0  0  0  0
    8.5154  -14.8449   19.0634 C   0  0  0  0  0  0  0  0  0  0  0  0
    8.6430  -15.4276   21.5053 C   0  0  2  0  0  0  0  0  0  0  0  0
    7.4942  -16.3419   21.4026 N   0  0  0  0  0  0  0  0  0  0  0  0
    8.6350  -14.9232   22.8988 C   0  0  0  0  0  0  0  0  0  0  0  0
    9.3305  -13.8746   23.1186 O   0  0  0  0  0  0  0  0  0  0  0  0
    7.9124  -15.5385   23.9516 N   0  0  0  0  0  0  0  0  0  0  0  0
    8.1146  -15.0915   25.2822 C   0  0  1  0  0  0  0  0  0  0  0  0
    6.8556  -15.4613   26.0792 C   0  0  0  0  0  0  0  0  0  0  0  0
    5.3869  -14.6828   25.4121 S   0  0  0  0  0  0  0  0  0  0  0  0
    9.3106  -15.5814   25.9717 C   0  0  0  0  0  0  0  0  0  0  0  0
    9.9768  -16.4419   25.2937 O   0  0  0  0  0  0  0  0  0  0  0  0
    9.7637  -15.2022   27.2545 N   0  0  0  0  0  0  0  0  0  0  0  0
    9.0291  -14.2785   28.1360 C   0  0  0  0  0  0  0  0  0  0  0  0
   10.1652  -13.3075   28.4857 C   0  0  0  0  0  0  0  0  0  0  0  0
   11.2260  -14.3321   28.9090 C   0  0  0  0  0  0  0  0  0  0  0  0
   10.9327  -15.5421   28.0155 C   0  0  1  0  0  0  0  0  0  0  0  0
   10.6674  -16.6728   28.9493 C   0  0  0  0  0  0  0  0  0  0  0  0
    9.4728  -17.0194   29.1164 O   0  0  0  0  0  0  0  0  0  0  0  0
   11.6749  -17.3305   29.6169 O   0  0  0  0  0  0  0  0  0  0  0  0
  1  2  1  0
  2  3  1  0
  3  4  1  6
  5  6  1  1
  5  3  1  0
  7  5  1  0
  7  9  1  0
  8  7  2  0
 10  9  1  0
 10 11  1  1
 11 12  1  0
 13 10  1  0
 14 13  2  0
 15 13  1  0
 15 16  1  0
 17 16  1  0
 18 19  1  0
 18 17  1  0
 19 20  1  1
 19 15  1  0
 20 22  1  0
 21 20  2  0
M  END
$$$$
