ICP.pdb
     RDKit          3D

 22 22  0  0  1  0  0  0  0  0999 V2000
   11.0401  -16.5062   18.1438 C   0  0  0  0  0  0  0  0  0  0  0  0
   10.1566  -17.3467   19.0051 C   0  0  0  0  0  0  0  0  0  0  0  0
    9.3806  -16.5798   20.0194 C   0  0  2  0  0  0  0  0  0  0  0  0
   10.3500  -15.8169   20.8993 C   0  0  0  0  0  0  0  0  0  0  0  0
    8.4355  -17.4439   20.8219 C   0  0  2  0  0  0  0  0  0  0  0  0
    7.3449  -17.9198   19.9556 N   0  0  0  0  0  0  0  0  0  0  0  0
    7.7810  -16.7015   21.9249 C   0  0  0  0  0  0  0  0  0  0  0  0
    7.0447  -15.7172   21.5778 O   0  0  0  0  0  0  0  0  0  0  0  0
    7.9376  -17.0324   23.2944 N   0  0  0  0  0  0  0  0  0  0  0  0
    7.3129  -16.2227   24.2768 C   0  0  1  0  0  0  0  0  0  0  0  0
    6.4939  -17.1574   25.1783 C   0  0  0  0  0  0  0  0  0  0  0  0
    7.5348  -18.3082   26.0729 S   0  0  0  0  0  0  0  0  0  0  0  0
    8.1871  -15.3745   25.0906 C   0  0  0  0  0  0  0  0  0  0  0  0
    9.4357  -15.5666   24.8722 O   0  0  0  0  0  0  0  0  0  0  0  0
    7.7857  -14.4142   26.0452 N   0  0  0  0  0  0  0  0  0  0  0  0
    6.3771  -14.1228   26.3627 C   0  0  0  0  0  0  0  0  0  0  0  0
    6.4001  -12.5939   26.2293 C   0  0  0  0  0  0  0  0  0  0  0  0
    7.6200  -12.3009   27.1127 C   0  0  0  0  0  0  0  0  0  0  0  0
    8.5188  -13.5237   26.9002 C   0  0  1  0  0  0  0  0  0  0  0  0
    8.7215  -14.1102   28.2551 C   0  0  0  0  0  0  0  0  0  0  0  0
    9.4972  -13.5092   29.0376 O   0  0  0  0  0  0  0  0  0  0  0  0
    8.0948  -15.2662   28.6602 O   0  0  0  0  0  0  0  0  0  0  0  0
  1  2  1  0
  2  3  1  0
  3  4  1  1
  5  6  1  6
  5  3  1  0
  7  5  1  0
  7  9  1  0
  8  7  2  0
 10  9  1  0
 10 11  1  1
 11 12  1  0
 13 10  1  0
 14 13  2  0
 15 13  1  0
 15 16  1  0
 17 16  1  0
 18 19  1  0
 18 17  1  0
 19 20  1  1
 19 15  1  0
 20 22  1  0
 21 20  2  0
M  END
$$$$
