ICP.pdb
     RDKit          3D

 22 22  0  0  1  0  0  0  0  0999 V2000
   10.1775  -19.8231   27.0753 C   0  0  0  0  0  0  0  0  0  0  0  0
    8.8117  -19.2263   27.1583 C   0  0  0  0  0  0  0  0  0  0  0  0
    8.5074  -18.2407   26.0835 C   0  0  2  0  0  0  0  0  0  0  0  0
    9.5706  -17.1611   26.0976 C   0  0  0  0  0  0  0  0  0  0  0  0
    7.1105  -17.6716   26.1776 C   0  0  2  0  0  0  0  0  0  0  0  0
    6.1256  -18.7339   25.9175 N   0  0  0  0  0  0  0  0  0  0  0  0
    6.8520  -16.6231   25.1627 C   0  0  0  0  0  0  0  0  0  0  0  0
    6.4991  -17.0374   24.0071 O   0  0  0  0  0  0  0  0  0  0  0  0
    6.9777  -15.2348   25.4196 N   0  0  0  0  0  0  0  0  0  0  0  0
    7.0267  -14.3315   24.3274 C   0  0  1  0  0  0  0  0  0  0  0  0
    7.1559  -12.9190   24.9150 C   0  0  0  0  0  0  0  0  0  0  0  0
    7.6833  -12.9503   26.6264 S   0  0  0  0  0  0  0  0  0  0  0  0
    8.0706  -14.5589   23.3252 C   0  0  0  0  0  0  0  0  0  0  0  0
    8.9739  -15.3858   23.7047 O   0  0  0  0  0  0  0  0  0  0  0  0
    8.1568  -13.9712   22.0439 N   0  0  0  0  0  0  0  0  0  0  0  0
    7.4547  -12.7317   21.6689 C   0  0  0  0  0  0  0  0  0  0  0  0
    6.7890  -13.2031   20.3687 C   0  0  0  0  0  0  0  0  0  0  0  0
    8.0213  -13.8046   19.6803 C   0  0  0  0  0  0  0  0  0  0  0  0
    8.8578  -14.3412   20.8467 C   0  0  1  0  0  0  0  0  0  0  0  0
   10.1730  -13.6476   20.7469 C   0  0  0  0  0  0  0  0  0  0  0  0
   10.3396  -12.6163   21.4425 O   0  0  0  0  0  0  0  0  0  0  0  0
   11.1851  -14.0985   19.9311 O   0  0  0  0  0  0  0  0  0  0  0  0
  1  2  1  0
  2  3  1  0
  3  4  1  1
  5  6  1  6
  5  3  1  0
  7  5  1  0
  7  9  1  0
  8  7  2  0
 10  9  1  0
 10 11  1  1
 11 12  1  0
 13 10  1  0
 14 13  2  0
 15 13  1  0
 15 16  1  0
 17 16  1  0
 18 19  1  0
 18 17  1  0
 19 20  1  1
 19 15  1  0
 20 22  1  0
 21 20  2  0
M  END
$$$$
