ICP.pdb
     RDKit          3D

 22 22  0  0  1  0  0  0  0  0999 V2000
    8.0597  -22.2804   23.6693 C   0  0  0  0  0  0  0  0  0  0  0  0
    6.9324  -21.4466   24.1819 C   0  0  0  0  0  0  0  0  0  0  0  0
    7.0102  -20.0092   23.7989 C   0  0  2  0  0  0  0  0  0  0  0  0
    8.3376  -19.4508   24.2703 C   0  0  0  0  0  0  0  0  0  0  0  0
    5.8369  -19.1975   24.2976 C   0  0  2  0  0  0  0  0  0  0  0  0
    4.5989  -19.6763   23.6616 N   0  0  0  0  0  0  0  0  0  0  0  0
    5.9444  -17.7624   23.9436 C   0  0  0  0  0  0  0  0  0  0  0  0
    5.8831  -17.4869   22.6979 O   0  0  0  0  0  0  0  0  0  0  0  0
    6.1060  -16.7286   24.8999 N   0  0  0  0  0  0  0  0  0  0  0  0
    6.7175  -15.5115   24.5053 C   0  0  1  0  0  0  0  0  0  0  0  0
    6.9638  -14.6950   25.7819 C   0  0  0  0  0  0  0  0  0  0  0  0
    7.8171  -13.1577   25.4405 S   0  0  0  0  0  0  0  0  0  0  0  0
    7.9529  -15.6128   23.7246 C   0  0  0  0  0  0  0  0  0  0  0  0
    8.7391  -16.5419   24.1274 O   0  0  0  0  0  0  0  0  0  0  0  0
    8.3267  -14.8115   22.6232 N   0  0  0  0  0  0  0  0  0  0  0  0
    7.7240  -13.4997   22.3303 C   0  0  0  0  0  0  0  0  0  0  0  0
    7.3738  -13.7084   20.8506 C   0  0  0  0  0  0  0  0  0  0  0  0
    8.7328  -14.2247   20.3597 C   0  0  0  0  0  0  0  0  0  0  0  0
    9.2834  -14.9902   21.5677 C   0  0  1  0  0  0  0  0  0  0  0  0
   10.5842  -14.3400   21.8931 C   0  0  0  0  0  0  0  0  0  0  0  0
   11.5182  -14.4633   21.0639 O   0  0  0  0  0  0  0  0  0  0  0  0
   10.7824  -13.6250   23.0519 O   0  0  0  0  0  0  0  0  0  0  0  0
  1  2  1  0
  2  3  1  0
  3  4  1  1
  5  6  1  6
  5  3  1  0
  7  5  1  0
  7  9  1  0
  8  7  2  0
 10  9  1  0
 10 11  1  1
 11 12  1  0
 13 10  1  0
 14 13  2  0
 15 13  1  0
 15 16  1  0
 17 16  1  0
 18 19  1  0
 18 17  1  0
 19 20  1  1
 19 15  1  0
 20 22  1  0
 21 20  2  0
M  END
$$$$
