ICP.pdb
     RDKit          3D

 22 22  0  0  1  0  0  0  0  0999 V2000
    2.5356  -18.6388   19.7326 C   0  0  0  0  0  0  0  0  0  0  0  0
    3.1668  -18.5572   21.0830 C   0  0  0  0  0  0  0  0  0  0  0  0
    4.4671  -19.2751   21.1959 C   0  0  2  0  0  0  0  0  0  0  0  0
    4.2742  -20.7068   20.7383 C   0  0  0  0  0  0  0  0  0  0  0  0
    5.0738  -19.1913   22.5775 C   0  0  2  0  0  0  0  0  0  0  0  0
    4.0479  -19.4988   23.5871 N   0  0  0  0  0  0  0  0  0  0  0  0
    5.5664  -17.8320   22.9027 C   0  0  0  0  0  0  0  0  0  0  0  0
    4.6776  -16.9820   23.2478 O   0  0  0  0  0  0  0  0  0  0  0  0
    6.9327  -17.4584   22.8463 N   0  0  0  0  0  0  0  0  0  0  0  0
    7.2694  -16.1080   22.5740 C   0  0  1  0  0  0  0  0  0  0  0  0
    8.0079  -15.5691   23.8073 C   0  0  0  0  0  0  0  0  0  0  0  0
    9.2342  -16.7255   24.4131 S   0  0  0  0  0  0  0  0  0  0  0  0
    8.0538  -15.8514   21.3637 C   0  0  0  0  0  0  0  0  0  0  0  0
    8.4709  -16.9181   20.7875 O   0  0  0  0  0  0  0  0  0  0  0  0
    8.3702  -14.5908   20.8111 N   0  0  0  0  0  0  0  0  0  0  0  0
    8.0237  -13.3113   21.4535 C   0  0  0  0  0  0  0  0  0  0  0  0
    7.3529  -12.6071   20.2660 C   0  0  0  0  0  0  0  0  0  0  0  0
    8.4426  -12.8394   19.2110 C   0  0  0  0  0  0  0  0  0  0  0  0
    9.0385  -14.1957   19.6033 C   0  0  1  0  0  0  0  0  0  0  0  0
   10.4880  -13.9417   19.8386 C   0  0  0  0  0  0  0  0  0  0  0  0
   11.2255  -13.8121   18.8314 O   0  0  0  0  0  0  0  0  0  0  0  0
   11.0252  -13.8480   21.1018 O   0  0  0  0  0  0  0  0  0  0  0  0
  1  2  1  0
  2  3  1  0
  3  4  1  1
  5  6  1  1
  5  3  1  0
  7  5  1  0
  7  9  1  0
  8  7  2  0
 10  9  1  0
 10 11  1  1
 11 12  1  0
 13 10  1  0
 14 13  2  0
 15 13  1  0
 15 16  1  0
 17 16  1  0
 18 19  1  0
 18 17  1  0
 19 20  1  1
 19 15  1  0
 20 22  1  0
 21 20  2  0
M  END
$$$$
