ICP.pdb
     RDKit          3D

 22 22  0  0  1  0  0  0  0  0999 V2000
    6.6246  -22.5747   22.8036 C   0  0  0  0  0  0  0  0  0  0  0  0
    7.4519  -21.3500   23.0140 C   0  0  0  0  0  0  0  0  0  0  0  0
    6.7938  -20.0848   22.5837 C   0  0  2  0  0  0  0  0  0  0  0  0
    7.5786  -19.4960   21.4289 C   0  0  0  0  0  0  0  0  0  0  0  0
    6.6079  -19.0981   23.7133 C   0  0  2  0  0  0  0  0  0  0  0  0
    5.2891  -19.3007   24.3344 N   0  0  0  0  0  0  0  0  0  0  0  0
    6.6246  -17.6905   23.2498 C   0  0  0  0  0  0  0  0  0  0  0  0
    5.7108  -17.3637   22.4194 O   0  0  0  0  0  0  0  0  0  0  0  0
    7.5797  -16.7348   23.6784 N   0  0  0  0  0  0  0  0  0  0  0  0
    7.6690  -15.4937   22.9981 C   0  0  1  0  0  0  0  0  0  0  0  0
    8.3197  -14.4944   23.9651 C   0  0  0  0  0  0  0  0  0  0  0  0
    7.4093  -14.3580   25.5014 S   0  0  0  0  0  0  0  0  0  0  0  0
    8.3773  -15.4900   21.7159 C   0  0  0  0  0  0  0  0  0  0  0  0
    8.8234  -16.6421   21.3733 O   0  0  0  0  0  0  0  0  0  0  0  0
    8.5964  -14.3783   20.8727 N   0  0  0  0  0  0  0  0  0  0  0  0
    8.1611  -13.0100   21.2016 C   0  0  0  0  0  0  0  0  0  0  0  0
    7.4322  -12.6576   19.8976 C   0  0  0  0  0  0  0  0  0  0  0  0
    8.5288  -13.0578   18.9018 C   0  0  0  0  0  0  0  0  0  0  0  0
    9.2254  -14.2366   19.5899 C   0  0  1  0  0  0  0  0  0  0  0  0
   10.6539  -13.8333   19.7232 C   0  0  0  0  0  0  0  0  0  0  0  0
   11.4889  -14.3996   18.9766 O   0  0  0  0  0  0  0  0  0  0  0  0
   11.0705  -12.8788   20.6224 O   0  0  0  0  0  0  0  0  0  0  0  0
  1  2  1  0
  2  3  1  0
  3  4  1  6
  5  6  1  6
  5  3  1  0
  7  5  1  0
  7  9  1  0
  8  7  2  0
 10  9  1  0
 10 11  1  1
 11 12  1  0
 13 10  1  0
 14 13  2  0
 15 13  1  0
 15 16  1  0
 17 16  1  0
 18 19  1  0
 18 17  1  0
 19 20  1  1
 19 15  1  0
 20 22  1  0
 21 20  2  0
M  END
$$$$
