DWN.pdb
     RDKit          3D

 31 32  0  0  1  0  0  0  0  0999 V2000
   29.4621  -32.0162  -15.5299 N   0  0  0  0  0  0  0  0  0  0  0  0
   28.3567  -32.3607  -16.3955 C   0  0  1  0  0  0  0  0  0  0  0  0
   28.8087  -33.5122  -17.2555 C   0  0  0  0  0  0  0  0  0  0  0  0
   30.2921  -33.4781  -17.4005 C   0  0  0  0  0  0  0  0  0  0  0  0
   30.9772  -32.5550  -16.8663 O   0  0  0  0  0  0  0  0  0  0  0  0
   27.1865  -32.8177  -15.6124 C   0  0  0  0  0  0  0  0  0  0  0  0
   27.3371  -33.4770  -14.5606 O   0  0  0  0  0  0  0  0  0  0  0  0
   30.9469  -34.4463  -18.1184 O   0  0  0  0  0  0  0  0  0  0  0  0
   25.8736  -32.5093  -16.0467 N   0  0  0  0  0  0  0  0  0  0  0  0
   24.7065  -32.8442  -15.2983 C   0  0  1  0  0  0  0  0  0  0  0  0
   23.5496  -31.9331  -15.4414 C   0  0  0  0  0  0  0  0  0  0  0  0
   22.3639  -32.3032  -14.6721 C   0  0  0  0  0  0  0  0  0  0  0  0
   22.2558  -32.3905  -13.3096 C   0  0  0  0  0  0  0  0  0  0  0  0
   21.0066  -32.7593  -12.9551 N   0  0  0  0  0  0  0  0  0  0  0  0
   20.3135  -32.9086  -14.0871 C   0  0  0  0  0  0  0  0  0  0  0  0
   18.9875  -33.2796  -14.2375 C   0  0  0  0  0  0  0  0  0  0  0  0
   18.5035  -33.3639  -15.5350 C   0  0  0  0  0  0  0  0  0  0  0  0
   19.2957  -33.0924  -16.6415 C   0  0  0  0  0  0  0  0  0  0  0  0
   20.6144  -32.7252  -16.4621 C   0  0  0  0  0  0  0  0  0  0  0  0
   21.1276  -32.6327  -15.1855 C   0  0  0  0  0  0  0  0  0  0  0  0
   24.2773  -34.2099  -15.7931 C   0  0  0  0  0  0  0  0  0  0  0  0
   24.2200  -34.4939  -17.0107 O   0  0  0  0  0  0  0  0  0  0  0  0
   27.1132  -37.7444  -15.6920 N   0  0  0  0  0  0  0  0  0  0  0  0
   25.7482  -37.5769  -16.0504 C   0  0  0  0  0  0  0  0  0  0  0  0
   25.4337  -37.4991  -17.2551 O   0  0  0  0  0  0  0  0  0  0  0  0
   24.7113  -37.5021  -14.9998 C   0  0  0  0  0  0  0  0  0  0  0  0
   23.5578  -36.5687  -15.3871 C   0  0  2  0  0  0  0  0  0  0  0  0
   23.9145  -35.2503  -14.8905 N   0  0  0  0  0  0  0  0  0  0  0  0
   22.2854  -37.0035  -14.7483 C   0  0  0  0  0  0  0  0  0  0  0  0
   21.7593  -36.3807  -13.6334 O   0  0  0  0  0  0  0  0  0  0  0  0
   21.5970  -37.9887  -15.1921 O   0  0  0  0  0  0  0  0  0  0  0  0
  2  1  1  1
  3  4  1  0
  3  2  1  0
  4  5  2  0
  4  8  1  0
  6  2  1  0
  6  7  2  0
  9  6  1  0
 10  9  1  0
 10 11  1  6
 12 11  1  0
 12 13  2  0
 14 13  1  0
 15 14  1  0
 16 15  2  0
 17 16  1  0
 18 17  2  0
 18 19  1  0
 19 20  2  0
 20 15  1  0
 20 12  1  0
 21 10  1  0
 22 21  2  0
 23 24  1  0
 24 25  2  0
 26 24  1  0
 27 26  1  1
 27 28  1  0
 27 29  1  0
 28 21  1  0
 29 30  1  0
 31 29  2  0
M  END
$$$$
