DWN.pdb
     RDKit          3D

 31 32  0  0  1  0  0  0  0  0999 V2000
   11.5072  -17.1294    1.8013 N   0  0  0  0  0  0  0  0  0  0  0  0
   11.7810  -17.7278    3.0884 C   0  0  1  0  0  0  0  0  0  0  0  0
   11.0278  -19.0317    3.1408 C   0  0  0  0  0  0  0  0  0  0  0  0
   10.3168  -19.1483    4.4461 C   0  0  0  0  0  0  0  0  0  0  0  0
   10.3435  -18.2015    5.2886 O   0  0  0  0  0  0  0  0  0  0  0  0
   13.2213  -18.0352    3.2398 C   0  0  0  0  0  0  0  0  0  0  0  0
   13.7913  -18.8331    2.4639 O   0  0  0  0  0  0  0  0  0  0  0  0
    9.6194  -20.2860    4.7631 O   0  0  0  0  0  0  0  0  0  0  0  0
   13.9763  -17.4231    4.2706 N   0  0  0  0  0  0  0  0  0  0  0  0
   15.3760  -17.6363    4.4429 C   0  0  1  0  0  0  0  0  0  0  0  0
   16.1838  -16.4479    4.7954 C   0  0  0  0  0  0  0  0  0  0  0  0
   17.1748  -16.0480    3.7991 C   0  0  0  0  0  0  0  0  0  0  0  0
   17.5106  -16.7163    2.6518 C   0  0  0  0  0  0  0  0  0  0  0  0
   18.4661  -16.0456    1.9740 N   0  0  0  0  0  0  0  0  0  0  0  0
   18.7437  -14.9488    2.6840 C   0  0  0  0  0  0  0  0  0  0  0  0
   19.6590  -13.9501    2.3956 C   0  0  0  0  0  0  0  0  0  0  0  0
   19.7575  -12.9080    3.3062 C   0  0  0  0  0  0  0  0  0  0  0  0
   18.9831  -12.8522    4.4565 C   0  0  0  0  0  0  0  0  0  0  0  0
   18.0788  -13.8619    4.7190 C   0  0  0  0  0  0  0  0  0  0  0  0
   17.9565  -14.9130    3.8349 C   0  0  0  0  0  0  0  0  0  0  0  0
   15.5049  -18.6304    5.5784 C   0  0  0  0  0  0  0  0  0  0  0  0
   14.8251  -18.5432    6.6256 O   0  0  0  0  0  0  0  0  0  0  0  0
   16.6283  -23.9233    7.3941 N   0  0  0  0  0  0  0  0  0  0  0  0
   17.5468  -22.8604    7.1788 C   0  0  0  0  0  0  0  0  0  0  0  0
   18.5692  -22.7778    7.8888 O   0  0  0  0  0  0  0  0  0  0  0  0
   17.2913  -21.8658    6.1158 C   0  0  0  0  0  0  0  0  0  0  0  0
   16.5858  -20.6131    6.6494 C   0  0  2  0  0  0  0  0  0  0  0  0
   16.4135  -19.7252    5.5118 N   0  0  0  0  0  0  0  0  0  0  0  0
   17.4185  -19.9324    7.6786 C   0  0  0  0  0  0  0  0  0  0  0  0
   17.2962  -20.1933    9.0294 O   0  0  0  0  0  0  0  0  0  0  0  0
   18.3024  -19.0558    7.3755 O   0  0  0  0  0  0  0  0  0  0  0  0
  2  1  1  6
  3  4  1  0
  3  2  1  0
  4  5  2  0
  4  8  1  0
  6  2  1  0
  6  7  2  0
  9  6  1  0
 10  9  1  0
 10 11  1  1
 12 11  1  0
 12 13  2  0
 14 13  1  0
 15 14  1  0
 16 15  2  0
 17 16  1  0
 18 17  2  0
 18 19  1  0
 19 20  2  0
 20 15  1  0
 20 12  1  0
 21 10  1  0
 22 21  2  0
 23 24  1  0
 24 25  2  0
 26 24  1  0
 27 26  1  6
 27 28  1  0
 27 29  1  0
 28 21  1  0
 29 30  1  0
 31 29  2  0
M  END
$$$$
