LFG.pdb
     RDKit          3D

 24 24  0  0  1  0  0  0  0  0999 V2000
    8.5550  -14.1540   18.4469 C   0  0  0  0  0  0  0  0  0  0  0  0
    7.5821  -13.5938   19.4349 C   0  0  2  0  0  0  0  0  0  0  0  0
    7.1498  -12.2178   18.9659 C   0  0  0  0  0  0  0  0  0  0  0  0
    8.1285  -13.5139   20.8358 C   0  0  0  0  0  0  0  0  0  0  0  0
    8.4778  -14.9002   21.3238 C   0  0  2  0  0  0  0  0  0  0  0  0
    7.3755  -15.8134   21.1881 N   0  0  0  0  0  0  0  0  0  0  0  0
    8.9879  -14.9231   22.6897 C   0  0  0  0  0  0  0  0  0  0  0  0
    9.9315  -14.2084   23.1190 O   0  0  0  0  0  0  0  0  0  0  0  0
    8.4021  -15.8056   23.6385 N   0  0  0  0  0  0  0  0  0  0  0  0
    8.8521  -15.8465   25.0385 C   0  0  1  0  0  0  0  0  0  0  0  0
    7.6707  -15.6454   25.9485 C   0  0  0  0  0  0  0  0  0  0  0  0
    7.2930  -14.2725   26.2519 C   0  0  0  0  0  0  0  0  0  0  0  0
    8.1875  -13.4225   26.9198 C   0  0  0  0  0  0  0  0  0  0  0  0
    7.8572  -12.1212   27.2192 C   0  0  0  0  0  0  0  0  0  0  0  0
    6.6286  -11.6096   26.8693 C   0  0  0  0  0  0  0  0  0  0  0  0
    5.7261  -12.4143   26.2132 C   0  0  0  0  0  0  0  0  0  0  0  0
    6.0661  -13.7165   25.9177 C   0  0  0  0  0  0  0  0  0  0  0  0
    9.4488  -17.1840   25.2399 C   0  0  0  0  0  0  0  0  0  0  0  0
    8.7157  -18.2369   25.2120 O   0  0  0  0  0  0  0  0  0  0  0  0
   10.8284  -17.4381   25.4703 N   0  0  0  0  0  0  0  0  0  0  0  0
   11.3475  -18.8084   25.5293 C   0  0  0  0  0  0  0  0  0  0  0  0
   11.6969  -19.1997   26.9033 C   0  0  0  0  0  0  0  0  0  0  0  0
   10.8474  -19.1391   27.8081 O   0  0  0  0  0  0  0  0  0  0  0  0
   12.9700  -19.6334   27.1810 O   0  0  0  0  0  0  0  0  0  0  0  0
  2  1  1  6
  3  2  1  0
  4  2  1  0
  4  5  1  0
  5  6  1  1
  7  5  1  0
  7  8  2  0
  9  7  1  0
 10  9  1  0
 10 11  1  1
 11 12  1  0
 12 17  2  0
 13 12  1  0
 13 14  2  0
 14 15  1  0
 15 16  2  0
 17 16  1  0
 18 10  1  0
 19 18  2  0
 20 18  1  0
 21 22  1  0
 21 20  1  0
 22 24  1  0
 23 22  2  0
M  END
$$$$
