LFG.pdb
     RDKit          3D

 24 24  0  0  1  0  0  0  0  0999 V2000
    8.5171  -14.3082   18.5877 C   0  0  0  0  0  0  0  0  0  0  0  0
    7.5665  -13.6885   19.5616 C   0  0  2  0  0  0  0  0  0  0  0  0
    7.1394  -12.3337   19.0301 C   0  0  0  0  0  0  0  0  0  0  0  0
    8.1370  -13.5432   20.9475 C   0  0  0  0  0  0  0  0  0  0  0  0
    8.5374  -14.9005   21.4759 C   0  0  2  0  0  0  0  0  0  0  0  0
    7.4442  -15.8341   21.4481 N   0  0  0  0  0  0  0  0  0  0  0  0
    9.1278  -14.8533   22.8084 C   0  0  0  0  0  0  0  0  0  0  0  0
   10.0803  -14.1033   23.1489 O   0  0  0  0  0  0  0  0  0  0  0  0
    8.6175  -15.7028   23.8282 N   0  0  0  0  0  0  0  0  0  0  0  0
    9.0453  -15.5732   25.2298 C   0  0  1  0  0  0  0  0  0  0  0  0
    7.8337  -15.4221   26.1094 C   0  0  0  0  0  0  0  0  0  0  0  0
    7.3314  -14.0721   26.3206 C   0  0  0  0  0  0  0  0  0  0  0  0
    5.9731  -13.7819   26.1207 C   0  0  0  0  0  0  0  0  0  0  0  0
    5.4713  -12.5157   26.3128 C   0  0  0  0  0  0  0  0  0  0  0  0
    6.2937  -11.4865   26.7103 C   0  0  0  0  0  0  0  0  0  0  0  0
    7.6312  -11.7343   26.9158 C   0  0  0  0  0  0  0  0  0  0  0  0
    8.1246  -13.0060   26.7208 C   0  0  0  0  0  0  0  0  0  0  0  0
    9.7776  -16.8160   25.5531 C   0  0  0  0  0  0  0  0  0  0  0  0
   10.0795  -17.0987   26.7679 O   0  0  0  0  0  0  0  0  0  0  0  0
   10.2017  -17.7860   24.6044 N   0  0  0  0  0  0  0  0  0  0  0  0
   10.8178  -19.0463   25.0321 C   0  0  0  0  0  0  0  0  0  0  0  0
   12.2850  -18.9921   24.9459 C   0  0  0  0  0  0  0  0  0  0  0  0
   12.8559  -17.9369   24.6222 O   0  0  0  0  0  0  0  0  0  0  0  0
   13.0219  -20.1166   25.2258 O   0  0  0  0  0  0  0  0  0  0  0  0
  2  1  1  6
  3  2  1  0
  4  2  1  0
  4  5  1  0
  5  6  1  1
  7  5  1  0
  7  8  2  0
  9  7  1  0
 10  9  1  0
 10 11  1  1
 11 12  1  0
 12 17  2  0
 13 12  1  0
 13 14  2  0
 14 15  1  0
 15 16  2  0
 17 16  1  0
 18 10  1  0
 19 18  2  0
 20 18  1  0
 21 22  1  0
 21 20  1  0
 22 24  1  0
 23 22  2  0
M  END
$$$$
