LFG.pdb
     RDKit          3D

 24 24  0  0  1  0  0  0  0  0999 V2000
    6.0197  -16.2671   20.0325 C   0  0  0  0  0  0  0  0  0  0  0  0
    7.3146  -17.0029   19.8970 C   0  0  2  0  0  0  0  0  0  0  0  0
    7.0177  -18.4612   19.6048 C   0  0  0  0  0  0  0  0  0  0  0  0
    8.1993  -16.8889   21.1101 C   0  0  0  0  0  0  0  0  0  0  0  0
    8.3937  -15.4325   21.4610 C   0  0  2  0  0  0  0  0  0  0  0  0
    9.1776  -14.7400   20.4744 N   0  0  0  0  0  0  0  0  0  0  0  0
    8.9571  -15.2261   22.7900 C   0  0  0  0  0  0  0  0  0  0  0  0
   10.0767  -14.6997   23.0248 O   0  0  0  0  0  0  0  0  0  0  0  0
    8.2173  -15.6367   23.9329 N   0  0  0  0  0  0  0  0  0  0  0  0
    8.7454  -15.4742   25.2963 C   0  0  1  0  0  0  0  0  0  0  0  0
    7.6123  -15.1647   26.2368 C   0  0  0  0  0  0  0  0  0  0  0  0
    7.2274  -13.7674   26.3748 C   0  0  0  0  0  0  0  0  0  0  0  0
    8.1700  -12.8090   26.7772 C   0  0  0  0  0  0  0  0  0  0  0  0
    7.8342  -11.4824   26.9157 C   0  0  0  0  0  0  0  0  0  0  0  0
    6.5523  -11.0516   26.6616 C   0  0  0  0  0  0  0  0  0  0  0  0
    5.6016  -11.9635   26.2650 C   0  0  0  0  0  0  0  0  0  0  0  0
    5.9475  -13.2903   26.1290 C   0  0  0  0  0  0  0  0  0  0  0  0
    9.3825  -16.7613   25.6469 C   0  0  0  0  0  0  0  0  0  0  0  0
    9.7655  -16.9941   26.8494 O   0  0  0  0  0  0  0  0  0  0  0  0
    9.6242  -17.8285   24.7394 N   0  0  0  0  0  0  0  0  0  0  0  0
   10.2278  -19.0863   25.1914 C   0  0  0  0  0  0  0  0  0  0  0  0
   11.6971  -19.0214   25.1769 C   0  0  0  0  0  0  0  0  0  0  0  0
   12.2839  -18.0008   25.5745 O   0  0  0  0  0  0  0  0  0  0  0  0
   12.4180  -20.0974   24.7206 O   0  0  0  0  0  0  0  0  0  0  0  0
  2  1  1  1
  3  2  1  0
  4  2  1  0
  4  5  1  0
  5  6  1  6
  7  5  1  0
  7  8  2  0
  9  7  1  0
 10  9  1  0
 10 11  1  1
 11 12  1  0
 12 17  2  0
 13 12  1  0
 13 14  2  0
 14 15  1  0
 15 16  2  0
 17 16  1  0
 18 10  1  0
 19 18  2  0
 20 18  1  0
 21 22  1  0
 21 20  1  0
 22 24  1  0
 23 22  2  0
M  END
$$$$
