LFG.pdb
     RDKit          3D

 24 24  0  0  1  0  0  0  0  0999 V2000
    8.4937  -14.2792   18.7027 C   0  0  0  0  0  0  0  0  0  0  0  0
    7.7655  -13.4913   19.7444 C   0  0  2  0  0  0  0  0  0  0  0  0
    7.5613  -12.0785   19.2319 C   0  0  0  0  0  0  0  0  0  0  0  0
    8.4693  -13.4613   21.0752 C   0  0  0  0  0  0  0  0  0  0  0  0
    8.6369  -14.8708   21.5921 C   0  0  2  0  0  0  0  0  0  0  0  0
    7.3953  -15.5959   21.5936 N   0  0  0  0  0  0  0  0  0  0  0  0
    9.2616  -14.9357   22.9081 C   0  0  0  0  0  0  0  0  0  0  0  0
   10.3426  -14.3711   23.2218 O   0  0  0  0  0  0  0  0  0  0  0  0
    8.6338  -15.6829   23.9424 N   0  0  0  0  0  0  0  0  0  0  0  0
    9.1186  -15.6419   25.3307 C   0  0  1  0  0  0  0  0  0  0  0  0
    7.9573  -15.4059   26.2581 C   0  0  0  0  0  0  0  0  0  0  0  0
    7.5161  -14.0295   26.4320 C   0  0  0  0  0  0  0  0  0  0  0  0
    6.1831  -13.6746   26.1747 C   0  0  0  0  0  0  0  0  0  0  0  0
    5.7390  -12.3821   26.3305 C   0  0  0  0  0  0  0  0  0  0  0  0
    6.5963  -11.3897   26.7471 C   0  0  0  0  0  0  0  0  0  0  0  0
    7.9106  -11.7011   27.0086 C   0  0  0  0  0  0  0  0  0  0  0  0
    8.3462  -12.9986   26.8496 C   0  0  0  0  0  0  0  0  0  0  0  0
    9.7382  -16.9589   25.5893 C   0  0  0  0  0  0  0  0  0  0  0  0
   10.0224  -17.3231   26.7866 O   0  0  0  0  0  0  0  0  0  0  0  0
   10.0662  -17.9185   24.5930 N   0  0  0  0  0  0  0  0  0  0  0  0
   10.6934  -19.1958   24.9477 C   0  0  0  0  0  0  0  0  0  0  0  0
   12.1612  -19.1071   24.9235 C   0  0  0  0  0  0  0  0  0  0  0  0
   12.8543  -20.1142   25.1459 O   0  0  0  0  0  0  0  0  0  0  0  0
   12.7626  -17.9025   24.6532 O   0  0  0  0  0  0  0  0  0  0  0  0
  2  1  1  6
  3  2  1  0
  4  2  1  0
  4  5  1  0
  5  6  1  1
  7  5  1  0
  7  8  2  0
  9  7  1  0
 10  9  1  0
 10 11  1  1
 11 12  1  0
 12 17  2  0
 13 12  1  0
 13 14  2  0
 14 15  1  0
 15 16  2  0
 17 16  1  0
 18 10  1  0
 19 18  2  0
 20 18  1  0
 21 22  1  0
 21 20  1  0
 22 24  1  0
 23 22  2  0
M  END
$$$$
