LFG.pdb
     RDKit          3D

 24 24  0  0  1  0  0  0  0  0999 V2000
    8.1865  -14.6651   18.6233 C   0  0  0  0  0  0  0  0  0  0  0  0
    7.4440  -13.8978   19.6704 C   0  0  2  0  0  0  0  0  0  0  0  0
    7.0325  -12.5576   19.0917 C   0  0  0  0  0  0  0  0  0  0  0  0
    8.2325  -13.6935   20.9368 C   0  0  0  0  0  0  0  0  0  0  0  0
    8.5451  -15.0329   21.5613 C   0  0  2  0  0  0  0  0  0  0  0  0
    7.3789  -15.8685   21.6573 N   0  0  0  0  0  0  0  0  0  0  0  0
    9.2005  -14.9289   22.8598 C   0  0  0  0  0  0  0  0  0  0  0  0
   10.2257  -14.2373   23.0966 O   0  0  0  0  0  0  0  0  0  0  0  0
    8.6725  -15.6476   23.9674 N   0  0  0  0  0  0  0  0  0  0  0  0
    9.2265  -15.4986   25.3220 C   0  0  1  0  0  0  0  0  0  0  0  0
    8.0994  -15.3893   26.3129 C   0  0  0  0  0  0  0  0  0  0  0  0
    7.4858  -14.0794   26.4780 C   0  0  0  0  0  0  0  0  0  0  0  0
    8.2454  -12.9941   26.9406 C   0  0  0  0  0  0  0  0  0  0  0  0
    7.6918  -11.7459   27.1059 C   0  0  0  0  0  0  0  0  0  0  0  0
    6.3645  -11.5222   26.8200 C   0  0  0  0  0  0  0  0  0  0  0  0
    5.5891  -12.5632   26.3642 C   0  0  0  0  0  0  0  0  0  0  0  0
    6.1526  -13.8100   26.2018 C   0  0  0  0  0  0  0  0  0  0  0  0
   10.0311  -16.7130   25.5734 C   0  0  0  0  0  0  0  0  0  0  0  0
   10.6838  -16.8485   26.6701 O   0  0  0  0  0  0  0  0  0  0  0  0
   10.1603  -17.8089   24.6771 N   0  0  0  0  0  0  0  0  0  0  0  0
   11.0068  -18.9607   25.0047 C   0  0  0  0  0  0  0  0  0  0  0  0
   10.4497  -19.7479   26.1152 C   0  0  0  0  0  0  0  0  0  0  0  0
    9.3493  -19.4467   26.6074 O   0  0  0  0  0  0  0  0  0  0  0  0
   11.1542  -20.8196   26.6059 O   0  0  0  0  0  0  0  0  0  0  0  0
  2  1  1  6
  3  2  1  0
  4  2  1  0
  4  5  1  0
  5  6  1  1
  7  5  1  0
  7  8  2  0
  9  7  1  0
 10  9  1  0
 10 11  1  1
 11 12  1  0
 12 17  2  0
 13 12  1  0
 13 14  2  0
 14 15  1  0
 15 16  2  0
 17 16  1  0
 18 10  1  0
 19 18  2  0
 20 18  1  0
 21 22  1  0
 21 20  1  0
 22 24  1  0
 23 22  2  0
M  END
$$$$
