LFG.pdb
     RDKit          3D

 24 24  0  0  1  0  0  0  0  0999 V2000
    7.9394  -20.8700   18.9243 C   0  0  0  0  0  0  0  0  0  0  0  0
    9.4315  -20.7831   18.9742 C   0  0  2  0  0  0  0  0  0  0  0  0
    9.9876  -22.1515   19.3188 C   0  0  0  0  0  0  0  0  0  0  0  0
    9.9405  -19.7575   19.9521 C   0  0  0  0  0  0  0  0  0  0  0  0
    9.4091  -18.3935   19.5791 C   0  0  2  0  0  0  0  0  0  0  0  0
    9.6126  -18.0977   18.1868 N   0  0  0  0  0  0  0  0  0  0  0  0
    9.9404  -17.3175   20.4074 C   0  0  0  0  0  0  0  0  0  0  0  0
   10.8717  -16.5402   20.0696 O   0  0  0  0  0  0  0  0  0  0  0  0
    9.3921  -17.0969   21.7008 N   0  0  0  0  0  0  0  0  0  0  0  0
    9.8303  -15.9758   22.5465 C   0  0  1  0  0  0  0  0  0  0  0  0
    8.6376  -15.1400   22.9247 C   0  0  0  0  0  0  0  0  0  0  0  0
    7.9532  -14.4358   21.8499 C   0  0  0  0  0  0  0  0  0  0  0  0
    6.7136  -14.8946   21.3787 C   0  0  0  0  0  0  0  0  0  0  0  0
    6.0449  -14.2491   20.3647 C   0  0  0  0  0  0  0  0  0  0  0  0
    6.5764  -13.1242   19.7768 C   0  0  0  0  0  0  0  0  0  0  0  0
    7.7901  -12.6458   20.2132 C   0  0  0  0  0  0  0  0  0  0  0  0
    8.4525  -13.2991   21.2296 C   0  0  0  0  0  0  0  0  0  0  0  0
   10.4486  -16.5816   23.7449 C   0  0  0  0  0  0  0  0  0  0  0  0
   10.8331  -15.8461   24.7238 O   0  0  0  0  0  0  0  0  0  0  0  0
   10.6697  -17.9727   23.9368 N   0  0  0  0  0  0  0  0  0  0  0  0
   11.2844  -18.4801   25.1679 C   0  0  0  0  0  0  0  0  0  0  0  0
   12.7327  -18.2261   25.1982 C   0  0  0  0  0  0  0  0  0  0  0  0
   13.2747  -17.5755   24.2888 O   0  0  0  0  0  0  0  0  0  0  0  0
   13.4840  -18.7130   26.2395 O   0  0  0  0  0  0  0  0  0  0  0  0
  2  1  1  1
  3  2  1  0
  4  2  1  0
  4  5  1  0
  5  6  1  6
  7  5  1  0
  7  8  2  0
  9  7  1  0
 10  9  1  0
 10 11  1  1
 11 12  1  0
 12 17  2  0
 13 12  1  0
 13 14  2  0
 14 15  1  0
 15 16  2  0
 17 16  1  0
 18 10  1  0
 19 18  2  0
 20 18  1  0
 21 22  1  0
 21 20  1  0
 22 24  1  0
 23 22  2  0
M  END
$$$$
