LFG.pdb
     RDKit          3D

 24 24  0  0  1  0  0  0  0  0999 V2000
    6.5935  -17.5125   17.8624 C   0  0  0  0  0  0  0  0  0  0  0  0
    8.0855  -17.4271   17.8090 C   0  0  2  0  0  0  0  0  0  0  0  0
    8.6403  -18.8003   17.4822 C   0  0  0  0  0  0  0  0  0  0  0  0
    8.7029  -16.9099   19.0812 C   0  0  0  0  0  0  0  0  0  0  0  0
    8.1069  -15.5648   19.4239 C   0  0  2  0  0  0  0  0  0  0  0  0
    8.3398  -14.5927   18.3905 N   0  0  0  0  0  0  0  0  0  0  0  0
    8.5474  -15.0467   20.7138 C   0  0  0  0  0  0  0  0  0  0  0  0
    9.5374  -14.2879   20.8860 O   0  0  0  0  0  0  0  0  0  0  0  0
    7.8314  -15.4021   21.8899 N   0  0  0  0  0  0  0  0  0  0  0  0
    8.1936  -14.8623   23.2096 C   0  0  1  0  0  0  0  0  0  0  0  0
    6.9411  -14.5860   23.9966 C   0  0  0  0  0  0  0  0  0  0  0  0
    7.0771  -13.7714   25.1955 C   0  0  0  0  0  0  0  0  0  0  0  0
    6.2830  -12.6276   25.3691 C   0  0  0  0  0  0  0  0  0  0  0  0
    6.3904  -11.8398   26.4916 C   0  0  0  0  0  0  0  0  0  0  0  0
    7.2878  -12.1527   27.4867 C   0  0  0  0  0  0  0  0  0  0  0  0
    8.0829  -13.2671   27.3504 C   0  0  0  0  0  0  0  0  0  0  0  0
    7.9681  -14.0501   26.2225 C   0  0  0  0  0  0  0  0  0  0  0  0
    9.0101  -15.9029   23.8698 C   0  0  0  0  0  0  0  0  0  0  0  0
    8.4614  -16.9654   24.3356 O   0  0  0  0  0  0  0  0  0  0  0  0
   10.4193  -15.8463   24.0480 N   0  0  0  0  0  0  0  0  0  0  0  0
   11.1398  -16.9200   24.7401 C   0  0  0  0  0  0  0  0  0  0  0  0
   12.5659  -16.6005   24.9050 C   0  0  0  0  0  0  0  0  0  0  0  0
   12.9396  -15.8567   25.8276 O   0  0  0  0  0  0  0  0  0  0  0  0
   13.4840  -17.1300   24.0317 O   0  0  0  0  0  0  0  0  0  0  0  0
  2  1  1  1
  3  2  1  0
  4  2  1  0
  4  5  1  0
  5  6  1  6
  7  5  1  0
  7  8  2  0
  9  7  1  0
 10  9  1  0
 10 11  1  1
 11 12  1  0
 12 17  2  0
 13 12  1  0
 13 14  2  0
 14 15  1  0
 15 16  2  0
 17 16  1  0
 18 10  1  0
 19 18  2  0
 20 18  1  0
 21 22  1  0
 21 20  1  0
 22 24  1  0
 23 22  2  0
M  END
$$$$
