LFG.pdb
     RDKit          3D

 24 24  0  0  1  0  0  0  0  0999 V2000
    7.8797  -14.5397   18.7954 C   0  0  0  0  0  0  0  0  0  0  0  0
    7.6617  -13.6821   20.0010 C   0  0  2  0  0  0  0  0  0  0  0  0
    7.5189  -12.2401   19.5531 C   0  0  0  0  0  0  0  0  0  0  0  0
    8.7583  -13.7983   21.0263 C   0  0  0  0  0  0  0  0  0  0  0  0
    8.6701  -15.1409   21.7131 C   0  0  2  0  0  0  0  0  0  0  0  0
    7.3185  -15.6272   21.7753 N   0  0  0  0  0  0  0  0  0  0  0  0
    9.2737  -15.1543   23.0405 C   0  0  0  0  0  0  0  0  0  0  0  0
   10.3276  -14.5436   23.3595 O   0  0  0  0  0  0  0  0  0  0  0  0
    8.6555  -15.9017   24.0804 N   0  0  0  0  0  0  0  0  0  0  0  0
    9.1431  -15.8480   25.4674 C   0  0  1  0  0  0  0  0  0  0  0  0
    8.0065  -15.4795   26.3820 C   0  0  0  0  0  0  0  0  0  0  0  0
    7.5411  -14.1007   26.3397 C   0  0  0  0  0  0  0  0  0  0  0  0
    8.3996  -13.0515   26.7017 C   0  0  0  0  0  0  0  0  0  0  0  0
    7.9866  -11.7398   26.6711 C   0  0  0  0  0  0  0  0  0  0  0  0
    6.7077  -11.4145   26.2811 C   0  0  0  0  0  0  0  0  0  0  0  0
    5.8384  -12.4174   25.9192 C   0  0  0  0  0  0  0  0  0  0  0  0
    6.2613  -13.7284   25.9530 C   0  0  0  0  0  0  0  0  0  0  0  0
    9.6498  -17.2016   25.7781 C   0  0  0  0  0  0  0  0  0  0  0  0
   10.0561  -17.4912   26.9604 O   0  0  0  0  0  0  0  0  0  0  0  0
    9.7342  -18.2762   24.8513 N   0  0  0  0  0  0  0  0  0  0  0  0
   10.9642  -18.5295   24.0938 C   0  0  0  0  0  0  0  0  0  0  0  0
   12.0223  -19.0930   24.9459 C   0  0  0  0  0  0  0  0  0  0  0  0
   12.5118  -20.2050   24.6854 O   0  0  0  0  0  0  0  0  0  0  0  0
   12.4669  -18.3817   26.0332 O   0  0  0  0  0  0  0  0  0  0  0  0
  2  1  1  6
  3  2  1  0
  4  2  1  0
  4  5  1  0
  5  6  1  1
  7  5  1  0
  7  8  2  0
  9  7  1  0
 10  9  1  0
 10 11  1  1
 11 12  1  0
 12 17  2  0
 13 12  1  0
 13 14  2  0
 14 15  1  0
 15 16  2  0
 17 16  1  0
 18 10  1  0
 19 18  2  0
 20 18  1  0
 21 22  1  0
 21 20  1  0
 22 24  1  0
 23 22  2  0
M  END
$$$$
