LFG.pdb
     RDKit          3D

 24 24  0  0  1  0  0  0  0  0999 V2000
    6.2719  -16.0257   18.6574 C   0  0  0  0  0  0  0  0  0  0  0  0
    7.6596  -15.5541   18.3605 C   0  0  2  0  0  0  0  0  0  0  0  0
    8.3477  -16.5852   17.4867 C   0  0  0  0  0  0  0  0  0  0  0  0
    8.4813  -15.2921   19.5948 C   0  0  0  0  0  0  0  0  0  0  0  0
    7.7955  -14.2521   20.4493 C   0  0  2  0  0  0  0  0  0  0  0  0
    7.6950  -12.9841   19.7787 N   0  0  0  0  0  0  0  0  0  0  0  0
    8.4089  -14.0827   21.7613 C   0  0  0  0  0  0  0  0  0  0  0  0
    9.1850  -13.1433   22.0785 O   0  0  0  0  0  0  0  0  0  0  0  0
    8.1349  -15.0288   22.7869 N   0  0  0  0  0  0  0  0  0  0  0  0
    8.8206  -14.9810   24.0876 C   0  0  1  0  0  0  0  0  0  0  0  0
    7.8053  -15.1007   25.1917 C   0  0  0  0  0  0  0  0  0  0  0  0
    7.2710  -13.8619   25.7389 C   0  0  0  0  0  0  0  0  0  0  0  0
    8.1307  -12.9077   26.3040 C   0  0  0  0  0  0  0  0  0  0  0  0
    7.6534  -11.7290   26.8282 C   0  0  0  0  0  0  0  0  0  0  0  0
    6.3065  -11.4478   26.8139 C   0  0  0  0  0  0  0  0  0  0  0  0
    5.4338  -12.3604   26.2678 C   0  0  0  0  0  0  0  0  0  0  0  0
    5.9214  -13.5384   25.7451 C   0  0  0  0  0  0  0  0  0  0  0  0
    9.7524  -16.1285   24.1040 C   0  0  0  0  0  0  0  0  0  0  0  0
    9.3074  -17.3315   24.0641 O   0  0  0  0  0  0  0  0  0  0  0  0
   11.1696  -16.0309   24.1583 N   0  0  0  0  0  0  0  0  0  0  0  0
   12.0153  -17.2270   24.0884 C   0  0  0  0  0  0  0  0  0  0  0  0
   13.4446  -16.8888   24.1657 C   0  0  0  0  0  0  0  0  0  0  0  0
   13.8066  -15.7009   24.2102 O   0  0  0  0  0  0  0  0  0  0  0  0
   14.3784  -17.8953   24.1883 O   0  0  0  0  0  0  0  0  0  0  0  0
  2  1  1  1
  3  2  1  0
  4  2  1  0
  4  5  1  0
  5  6  1  6
  7  5  1  0
  7  8  2  0
  9  7  1  0
 10  9  1  0
 10 11  1  1
 11 12  1  0
 12 17  2  0
 13 12  1  0
 13 14  2  0
 14 15  1  0
 15 16  2  0
 17 16  1  0
 18 10  1  0
 19 18  2  0
 20 18  1  0
 21 22  1  0
 21 20  1  0
 22 24  1  0
 23 22  2  0
M  END
$$$$
