LFG.pdb
     RDKit          3D

 24 24  0  0  1  0  0  0  0  0999 V2000
    7.6220  -14.6020   19.0379 C   0  0  0  0  0  0  0  0  0  0  0  0
    7.6008  -13.5883   20.1372 C   0  0  2  0  0  0  0  0  0  0  0  0
    7.5757  -12.2026   19.5212 C   0  0  0  0  0  0  0  0  0  0  0  0
    8.7620  -13.7100   21.0881 C   0  0  0  0  0  0  0  0  0  0  0  0
    8.6669  -15.0165   21.8403 C   0  0  2  0  0  0  0  0  0  0  0  0
    7.3345  -15.5564   21.8171 N   0  0  0  0  0  0  0  0  0  0  0  0
    9.1546  -14.9332   23.2119 C   0  0  0  0  0  0  0  0  0  0  0  0
    9.9761  -14.0774   23.6343 O   0  0  0  0  0  0  0  0  0  0  0  0
    8.6915  -15.8710   24.1753 N   0  0  0  0  0  0  0  0  0  0  0  0
    9.1080  -15.8028   25.5846 C   0  0  1  0  0  0  0  0  0  0  0  0
    7.9151  -15.4778   26.4424 C   0  0  0  0  0  0  0  0  0  0  0  0
    7.4789  -14.0892   26.4735 C   0  0  0  0  0  0  0  0  0  0  0  0
    6.1901  -13.7413   26.0411 C   0  0  0  0  0  0  0  0  0  0  0  0
    5.7516  -12.4376   26.0595 C   0  0  0  0  0  0  0  0  0  0  0  0
    6.5712  -11.4267   26.5065 C   0  0  0  0  0  0  0  0  0  0  0  0
    7.8416  -11.7308   26.9381 C   0  0  0  0  0  0  0  0  0  0  0  0
    8.2718  -13.0396   26.9159 C   0  0  0  0  0  0  0  0  0  0  0  0
    9.6476  -17.1378   25.9193 C   0  0  0  0  0  0  0  0  0  0  0  0
   10.1024  -17.3825   27.0941 O   0  0  0  0  0  0  0  0  0  0  0  0
    9.7146  -18.2408   25.0250 N   0  0  0  0  0  0  0  0  0  0  0  0
   10.8444  -18.4029   24.1041 C   0  0  0  0  0  0  0  0  0  0  0  0
   12.0199  -18.9731   24.7795 C   0  0  0  0  0  0  0  0  0  0  0  0
   12.2039  -18.7754   25.9923 O   0  0  0  0  0  0  0  0  0  0  0  0
   12.9148  -19.7268   24.0604 O   0  0  0  0  0  0  0  0  0  0  0  0
  2  1  1  6
  3  2  1  0
  4  2  1  0
  4  5  1  0
  5  6  1  1
  7  5  1  0
  7  8  2  0
  9  7  1  0
 10  9  1  0
 10 11  1  1
 11 12  1  0
 12 17  2  0
 13 12  1  0
 13 14  2  0
 14 15  1  0
 15 16  2  0
 17 16  1  0
 18 10  1  0
 19 18  2  0
 20 18  1  0
 21 22  1  0
 21 20  1  0
 22 24  1  0
 23 22  2  0
M  END
$$$$
