LFG.pdb
     RDKit          3D

 24 24  0  0  1  0  0  0  0  0999 V2000
    8.3356  -14.4347   18.6583 C   0  0  0  0  0  0  0  0  0  0  0  0
    7.5515  -13.6713   19.6775 C   0  0  2  0  0  0  0  0  0  0  0  0
    7.2617  -12.2863   19.1314 C   0  0  0  0  0  0  0  0  0  0  0  0
    8.2425  -13.5665   21.0112 C   0  0  0  0  0  0  0  0  0  0  0  0
    8.4768  -14.9498   21.5710 C   0  0  2  0  0  0  0  0  0  0  0  0
    7.2625  -15.7166   21.6398 N   0  0  0  0  0  0  0  0  0  0  0  0
    9.1460  -14.9457   22.8666 C   0  0  0  0  0  0  0  0  0  0  0  0
   10.1981  -14.3071   23.1327 O   0  0  0  0  0  0  0  0  0  0  0  0
    8.6006  -15.7079   23.9360 N   0  0  0  0  0  0  0  0  0  0  0  0
    9.1454  -15.6281   25.3002 C   0  0  1  0  0  0  0  0  0  0  0  0
    8.0183  -15.4273   26.2768 C   0  0  0  0  0  0  0  0  0  0  0  0
    7.4773  -14.0811   26.3978 C   0  0  0  0  0  0  0  0  0  0  0  0
    6.1144  -13.8414   26.1649 C   0  0  0  0  0  0  0  0  0  0  0  0
    5.5764  -12.5800   26.2721 C   0  0  0  0  0  0  0  0  0  0  0  0
    6.3657  -11.5059   26.6140 C   0  0  0  0  0  0  0  0  0  0  0  0
    7.7066  -11.7036   26.8497 C   0  0  0  0  0  0  0  0  0  0  0  0
    8.2364  -12.9708   26.7399 C   0  0  0  0  0  0  0  0  0  0  0  0
    9.8303  -16.9149   25.5457 C   0  0  0  0  0  0  0  0  0  0  0  0
   10.1201  -17.2828   26.7406 O   0  0  0  0  0  0  0  0  0  0  0  0
   10.2189  -17.8400   24.5387 N   0  0  0  0  0  0  0  0  0  0  0  0
   10.8705  -19.1076   24.8842 C   0  0  0  0  0  0  0  0  0  0  0  0
   12.3362  -18.9994   24.8290 C   0  0  0  0  0  0  0  0  0  0  0  0
   12.8749  -17.9182   24.5377 O   0  0  0  0  0  0  0  0  0  0  0  0
   13.1075  -20.1024   25.1016 O   0  0  0  0  0  0  0  0  0  0  0  0
  2  1  1  6
  3  2  1  0
  4  2  1  0
  4  5  1  0
  5  6  1  1
  7  5  1  0
  7  8  2  0
  9  7  1  0
 10  9  1  0
 10 11  1  1
 11 12  1  0
 12 17  2  0
 13 12  1  0
 13 14  2  0
 14 15  1  0
 15 16  2  0
 17 16  1  0
 18 10  1  0
 19 18  2  0
 20 18  1  0
 21 22  1  0
 21 20  1  0
 22 24  1  0
 23 22  2  0
M  END
$$$$
