LFG.pdb
     RDKit          3D

 24 24  0  0  1  0  0  0  0  0999 V2000
    8.2411  -14.4942   18.4280 C   0  0  0  0  0  0  0  0  0  0  0  0
    7.7150  -13.6308   19.5299 C   0  0  2  0  0  0  0  0  0  0  0  0
    7.4796  -12.2352   18.9847 C   0  0  0  0  0  0  0  0  0  0  0  0
    8.6223  -13.5704   20.7301 C   0  0  0  0  0  0  0  0  0  0  0  0
    8.7524  -14.9474   21.3373 C   0  0  2  0  0  0  0  0  0  0  0  0
    7.5145  -15.6772   21.2894 N   0  0  0  0  0  0  0  0  0  0  0  0
    9.2792  -14.9345   22.6970 C   0  0  0  0  0  0  0  0  0  0  0  0
   10.3412  -14.3594   23.0534 O   0  0  0  0  0  0  0  0  0  0  0  0
    8.5691  -15.6109   23.7268 N   0  0  0  0  0  0  0  0  0  0  0  0
    8.9591  -15.4954   25.1406 C   0  0  1  0  0  0  0  0  0  0  0  0
    7.7305  -15.2737   25.9806 C   0  0  0  0  0  0  0  0  0  0  0  0
    7.3128  -13.8955   26.1944 C   0  0  0  0  0  0  0  0  0  0  0  0
    5.9600  -13.5396   26.0832 C   0  0  0  0  0  0  0  0  0  0  0  0
    5.5373  -12.2455   26.2799 C   0  0  0  0  0  0  0  0  0  0  0  0
    6.4365  -11.2524   26.5944 C   0  0  0  0  0  0  0  0  0  0  0  0
    7.7711  -11.5649   26.7117 C   0  0  0  0  0  0  0  0  0  0  0  0
    8.1850  -12.8640   26.5128 C   0  0  0  0  0  0  0  0  0  0  0  0
    9.6128  -16.7737   25.4928 C   0  0  0  0  0  0  0  0  0  0  0  0
    9.8817  -17.0542   26.7159 O   0  0  0  0  0  0  0  0  0  0  0  0
    9.9915  -17.7819   24.5649 N   0  0  0  0  0  0  0  0  0  0  0  0
   10.5431  -19.0624   25.0197 C   0  0  0  0  0  0  0  0  0  0  0  0
   11.9960  -19.1369   24.8037 C   0  0  0  0  0  0  0  0  0  0  0  0
   12.6339  -18.1232   24.4728 O   0  0  0  0  0  0  0  0  0  0  0  0
   12.6449  -20.3357   24.9701 O   0  0  0  0  0  0  0  0  0  0  0  0
  2  1  1  6
  3  2  1  0
  4  2  1  0
  4  5  1  0
  5  6  1  1
  7  5  1  0
  7  8  2  0
  9  7  1  0
 10  9  1  0
 10 11  1  1
 11 12  1  0
 12 17  2  0
 13 12  1  0
 13 14  2  0
 14 15  1  0
 15 16  2  0
 17 16  1  0
 18 10  1  0
 19 18  2  0
 20 18  1  0
 21 22  1  0
 21 20  1  0
 22 24  1  0
 23 22  2  0
M  END
$$$$
