QYA.pdb
     RDKit          3D

 27 27  0  0  1  0  0  0  0  0999 V2000
    8.9627  -21.6709   19.8216 N   0  0  0  0  0  0  0  0  0  0  0  0
    8.2925  -20.4686   19.4250 C   0  0  0  0  0  0  0  0  0  0  0  0
    7.0751  -20.5625   19.1982 O   0  0  0  0  0  0  0  0  0  0  0  0
    9.0851  -19.2313   19.3184 C   0  0  0  0  0  0  0  0  0  0  0  0
    8.7875  -18.2257   20.4007 C   0  0  0  0  0  0  0  0  0  0  0  0
    9.5357  -16.9349   20.2611 C   0  0  2  0  0  0  0  0  0  0  0  0
   10.6903  -17.1711   19.4170 N   0  0  0  0  0  0  0  0  0  0  0  0
    9.9173  -16.4368   21.6021 C   0  0  0  0  0  0  0  0  0  0  0  0
   11.0551  -16.7633   22.0287 O   0  0  0  0  0  0  0  0  0  0  0  0
    9.1920  -13.1005   29.7399 O   0  0  0  0  0  0  0  0  0  0  0  0
    8.9624  -13.3805   28.3998 C   0  0  0  0  0  0  0  0  0  0  0  0
   10.0191  -13.6637   27.5803 C   0  0  0  0  0  0  0  0  0  0  0  0
    9.8069  -13.9414   26.2573 C   0  0  0  0  0  0  0  0  0  0  0  0
    8.5409  -13.9484   25.6995 C   0  0  0  0  0  0  0  0  0  0  0  0
    8.4077  -14.2565   24.2742 C   0  0  0  0  0  0  0  0  0  0  0  0
    9.4474  -15.2382   23.7721 C   0  0  2  0  0  0  0  0  0  0  0  0
    9.1068  -15.6341   22.4225 N   0  0  0  0  0  0  0  0  0  0  0  0
    9.3737  -16.4333   24.6422 C   0  0  0  0  0  0  0  0  0  0  0  0
    8.2777  -16.9967   24.7982 O   0  0  0  0  0  0  0  0  0  0  0  0
    7.4697  -13.6641   26.5179 C   0  0  0  0  0  0  0  0  0  0  0  0
    7.6918  -13.3872   27.8411 C   0  0  0  0  0  0  0  0  0  0  0  0
   11.6943  -19.0197   25.8157 C   0  0  0  0  0  0  0  0  0  0  0  0
   10.5446  -18.0861   26.1201 C   0  0  2  0  0  0  0  0  0  0  0  0
   10.5322  -16.9251   25.2855 N   0  0  0  0  0  0  0  0  0  0  0  0
   10.6646  -17.7165   27.5534 C   0  0  0  0  0  0  0  0  0  0  0  0
   11.0545  -16.4555   27.9714 O   0  0  0  0  0  0  0  0  0  0  0  0
   10.3973  -18.5972   28.4098 O   0  0  0  0  0  0  0  0  0  0  0  0
  1  2  1  0
  2  3  2  0
  4  2  1  0
  5  4  1  0
  6  5  1  0
  6  7  1  6
  8  9  2  0
  8  6  1  0
 10 11  1  0
 11 12  2  0
 12 13  1  0
 14 15  1  0
 14 13  2  0
 16 15  1  1
 16 17  1  0
 17  8  1  0
 18 16  1  0
 18 24  1  0
 19 18  2  0
 20 14  1  0
 21 20  2  0
 21 11  1  0
 23 25  1  0
 23 24  1  0
 23 22  1  6
 25 26  1  0
 27 25  2  0
M  END
$$$$
