QYA.pdb
     RDKit          3D

 27 27  0  0  1  0  0  0  0  0999 V2000
    8.6213  -21.8013   20.3414 N   0  0  0  0  0  0  0  0  0  0  0  0
    9.6453  -21.1393   19.5895 C   0  0  0  0  0  0  0  0  0  0  0  0
   10.6705  -21.7983   19.3512 O   0  0  0  0  0  0  0  0  0  0  0  0
    9.4083  -19.7494   19.1623 C   0  0  0  0  0  0  0  0  0  0  0  0
    9.7227  -18.7270   20.2239 C   0  0  0  0  0  0  0  0  0  0  0  0
    9.4668  -17.3108   19.8063 C   0  0  2  0  0  0  0  0  0  0  0  0
   10.4492  -16.9513   18.8028 N   0  0  0  0  0  0  0  0  0  0  0  0
    9.5308  -16.4264   20.9920 C   0  0  0  0  0  0  0  0  0  0  0  0
   10.6562  -15.9454   21.2840 O   0  0  0  0  0  0  0  0  0  0  0  0
    7.0433  -11.4975   27.9255 O   0  0  0  0  0  0  0  0  0  0  0  0
    7.0566  -12.2805   26.7793 C   0  0  0  0  0  0  0  0  0  0  0  0
    7.7213  -11.8387   25.6696 C   0  0  0  0  0  0  0  0  0  0  0  0
    7.7424  -12.6005   24.5331 C   0  0  0  0  0  0  0  0  0  0  0  0
    7.1061  -13.8266   24.4557 C   0  0  0  0  0  0  0  0  0  0  0  0
    7.1811  -14.5739   23.1988 C   0  0  0  0  0  0  0  0  0  0  0  0
    8.5171  -15.2564   22.9845 C   0  0  2  0  0  0  0  0  0  0  0  0
    8.4350  -16.0904   21.8047 N   0  0  0  0  0  0  0  0  0  0  0  0
    8.7538  -16.1279   24.1572 C   0  0  0  0  0  0  0  0  0  0  0  0
    7.9447  -17.0379   24.4030 O   0  0  0  0  0  0  0  0  0  0  0  0
    6.4336  -14.2800   25.5694 C   0  0  0  0  0  0  0  0  0  0  0  0
    6.4179  -13.5104   26.7027 C   0  0  0  0  0  0  0  0  0  0  0  0
   11.7356  -17.2061   25.9586 C   0  0  0  0  0  0  0  0  0  0  0  0
   10.2737  -16.8261   26.0252 C   0  0  2  0  0  0  0  0  0  0  0  0
    9.8824  -15.9274   24.9841 N   0  0  0  0  0  0  0  0  0  0  0  0
   10.0506  -16.2263   27.3653 C   0  0  0  0  0  0  0  0  0  0  0  0
   10.2706  -16.9208   28.5426 O   0  0  0  0  0  0  0  0  0  0  0  0
    9.6449  -15.0373   27.4146 O   0  0  0  0  0  0  0  0  0  0  0  0
  1  2  1  0
  2  3  2  0
  4  2  1  0
  5  4  1  0
  6  5  1  0
  6  7  1  6
  8  9  2  0
  8  6  1  0
 10 11  1  0
 11 12  2  0
 12 13  1  0
 14 15  1  0
 14 13  2  0
 16 15  1  1
 16 17  1  0
 17  8  1  0
 18 16  1  0
 18 24  1  0
 19 18  2  0
 20 14  1  0
 21 20  2  0
 21 11  1  0
 23 25  1  0
 23 24  1  0
 23 22  1  6
 25 26  1  0
 27 25  2  0
M  END
$$$$
