QYA.pdb
     RDKit          3D

 27 27  0  0  1  0  0  0  0  0999 V2000
    8.5164  -12.1217   19.1004 N   0  0  0  0  0  0  0  0  0  0  0  0
    7.9848  -13.2529   18.4008 C   0  0  0  0  0  0  0  0  0  0  0  0
    7.6479  -13.0654   17.2203 O   0  0  0  0  0  0  0  0  0  0  0  0
    7.8801  -14.5329   19.1227 C   0  0  0  0  0  0  0  0  0  0  0  0
    8.2899  -14.4476   20.5704 C   0  0  0  0  0  0  0  0  0  0  0  0
    8.7091  -15.7566   21.1673 C   0  0  2  0  0  0  0  0  0  0  0  0
    7.6145  -16.6944   21.0131 N   0  0  0  0  0  0  0  0  0  0  0  0
    9.0775  -15.5572   22.5874 C   0  0  0  0  0  0  0  0  0  0  0  0
    9.9979  -14.7336   22.8270 O   0  0  0  0  0  0  0  0  0  0  0  0
    6.4228  -10.2763   26.3599 O   0  0  0  0  0  0  0  0  0  0  0  0
    6.7635  -11.6185   26.2623 C   0  0  0  0  0  0  0  0  0  0  0  0
    5.8732  -12.5013   25.7179 C   0  0  0  0  0  0  0  0  0  0  0  0
    6.1961  -13.8271   25.6157 C   0  0  0  0  0  0  0  0  0  0  0  0
    7.4119  -14.3251   26.0490 C   0  0  0  0  0  0  0  0  0  0  0  0
    7.6723  -15.7583   25.9003 C   0  0  0  0  0  0  0  0  0  0  0  0
    8.8908  -16.0627   25.0523 C   0  0  2  0  0  0  0  0  0  0  0  0
    8.4778  -16.2161   23.6739 N   0  0  0  0  0  0  0  0  0  0  0  0
    9.4368  -17.3555   25.5230 C   0  0  0  0  0  0  0  0  0  0  0  0
    8.7901  -18.3945   25.3099 O   0  0  0  0  0  0  0  0  0  0  0  0
    8.3156  -13.4425   26.5992 C   0  0  0  0  0  0  0  0  0  0  0  0
    7.9835  -12.1170   26.6974 C   0  0  0  0  0  0  0  0  0  0  0  0
   12.7301  -18.6440   26.7146 C   0  0  0  0  0  0  0  0  0  0  0  0
   11.2198  -18.6005   26.7710 C   0  0  2  0  0  0  0  0  0  0  0  0
   10.6741  -17.4065   26.2044 N   0  0  0  0  0  0  0  0  0  0  0  0
   10.8433  -18.7377   28.2010 C   0  0  0  0  0  0  0  0  0  0  0  0
   11.1566  -19.8566   28.9538 O   0  0  0  0  0  0  0  0  0  0  0  0
   10.2141  -17.7891   28.7347 O   0  0  0  0  0  0  0  0  0  0  0  0
  1  2  1  0
  2  3  2  0
  4  2  1  0
  5  4  1  0
  6  5  1  0
  6  7  1  1
  8  9  2  0
  8  6  1  0
 10 11  1  0
 11 12  2  0
 12 13  1  0
 14 15  1  0
 14 13  2  0
 16 15  1  1
 16 17  1  0
 17  8  1  0
 18 16  1  0
 18 24  1  0
 19 18  2  0
 20 14  1  0
 21 20  2  0
 21 11  1  0
 23 25  1  0
 23 24  1  0
 23 22  1  1
 25 26  1  0
 27 25  2  0
M  END
$$$$
