QYA.pdb
     RDKit          3D

 27 27  0  0  1  0  0  0  0  0999 V2000
    5.4966  -18.8616   18.3290 N   0  0  0  0  0  0  0  0  0  0  0  0
    6.6289  -19.7020   18.5812 C   0  0  0  0  0  0  0  0  0  0  0  0
    6.7414  -20.7092   17.8636 O   0  0  0  0  0  0  0  0  0  0  0  0
    7.5596  -19.3139   19.6553 C   0  0  0  0  0  0  0  0  0  0  0  0
    7.1363  -18.0782   20.4070 C   0  0  0  0  0  0  0  0  0  0  0  0
    8.1009  -16.9362   20.3025 C   0  0  2  0  0  0  0  0  0  0  0  0
    8.9534  -17.1688   19.1533 N   0  0  0  0  0  0  0  0  0  0  0  0
    8.8759  -16.8268   21.5593 C   0  0  0  0  0  0  0  0  0  0  0  0
    8.9338  -17.8536   22.2841 O   0  0  0  0  0  0  0  0  0  0  0  0
    6.2289  -11.9267   27.9789 O   0  0  0  0  0  0  0  0  0  0  0  0
    6.6545  -12.5038   26.7902 C   0  0  0  0  0  0  0  0  0  0  0  0
    6.2151  -13.7536   26.4532 C   0  0  0  0  0  0  0  0  0  0  0  0
    6.6267  -14.3342   25.2846 C   0  0  0  0  0  0  0  0  0  0  0  0
    7.4878  -13.6976   24.4086 C   0  0  0  0  0  0  0  0  0  0  0  0
    7.8755  -14.3946   23.1806 C   0  0  0  0  0  0  0  0  0  0  0  0
    9.2692  -14.9867   23.2403 C   0  0  2  0  0  0  0  0  0  0  0  0
    9.5436  -15.6695   21.9942 N   0  0  0  0  0  0  0  0  0  0  0  0
    9.2709  -15.9871   24.3314 C   0  0  0  0  0  0  0  0  0  0  0  0
    8.2057  -16.5516   24.6309 O   0  0  0  0  0  0  0  0  0  0  0  0
    7.9359  -12.4377   24.7400 C   0  0  0  0  0  0  0  0  0  0  0  0
    7.5184  -11.8643   25.9121 C   0  0  0  0  0  0  0  0  0  0  0  0
   11.8770  -18.0460   26.0004 C   0  0  0  0  0  0  0  0  0  0  0  0
   10.5620  -17.3005   26.0327 C   0  0  2  0  0  0  0  0  0  0  0  0
   10.4655  -16.2943   25.0212 N   0  0  0  0  0  0  0  0  0  0  0  0
   10.4401  -16.7113   27.3904 C   0  0  0  0  0  0  0  0  0  0  0  0
   10.4142  -17.4808   28.5411 O   0  0  0  0  0  0  0  0  0  0  0  0
   10.3580  -15.4600   27.4807 O   0  0  0  0  0  0  0  0  0  0  0  0
  1  2  1  0
  2  3  2  0
  4  2  1  0
  5  4  1  0
  6  5  1  0
  6  7  1  6
  8  9  2  0
  8  6  1  0
 10 11  1  0
 11 12  2  0
 12 13  1  0
 14 15  1  0
 14 13  2  0
 16 15  1  6
 16 17  1  0
 17  8  1  0
 18 16  1  0
 18 24  1  0
 19 18  2  0
 20 14  1  0
 21 20  2  0
 21 11  1  0
 23 25  1  0
 23 24  1  0
 23 22  1  1
 25 26  1  0
 27 25  2  0
M  END
$$$$
