QYA.pdb
     RDKit          3D

 27 27  0  0  1  0  0  0  0  0999 V2000
    8.6551  -13.3729   16.9422 N   0  0  0  0  0  0  0  0  0  0  0  0
    8.7143  -14.8034   16.9880 C   0  0  0  0  0  0  0  0  0  0  0  0
    7.8568  -15.4142   16.3294 O   0  0  0  0  0  0  0  0  0  0  0  0
    9.7714  -15.4318   17.7993 C   0  0  0  0  0  0  0  0  0  0  0  0
    9.8731  -14.8773   19.1969 C   0  0  0  0  0  0  0  0  0  0  0  0
    9.7083  -15.9029   20.2771 C   0  0  2  0  0  0  0  0  0  0  0  0
    8.5306  -16.6922   19.9746 N   0  0  0  0  0  0  0  0  0  0  0  0
    9.6046  -15.2262   21.5899 C   0  0  0  0  0  0  0  0  0  0  0  0
   10.6179  -14.5948   21.9870 O   0  0  0  0  0  0  0  0  0  0  0  0
    6.3115  -10.9138   28.5007 O   0  0  0  0  0  0  0  0  0  0  0  0
    6.4550  -11.6575   27.3373 C   0  0  0  0  0  0  0  0  0  0  0  0
    7.4013  -11.2962   26.4195 C   0  0  0  0  0  0  0  0  0  0  0  0
    7.5534  -12.0205   25.2686 C   0  0  0  0  0  0  0  0  0  0  0  0
    6.7736  -13.1279   24.9861 C   0  0  0  0  0  0  0  0  0  0  0  0
    7.0059  -13.8431   23.7297 C   0  0  0  0  0  0  0  0  0  0  0  0
    8.3570  -14.5267   23.6685 C   0  0  2  0  0  0  0  0  0  0  0  0
    8.4666  -15.2396   22.4139 N   0  0  0  0  0  0  0  0  0  0  0  0
    8.3962  -15.5132   24.7713 C   0  0  0  0  0  0  0  0  0  0  0  0
    8.5501  -15.1078   25.9353 O   0  0  0  0  0  0  0  0  0  0  0  0
    5.8172  -13.4995   25.9055 C   0  0  0  0  0  0  0  0  0  0  0  0
    5.6722  -12.7683   27.0550 C   0  0  0  0  0  0  0  0  0  0  0  0
    7.5568  -19.1643   25.1126 C   0  0  0  0  0  0  0  0  0  0  0  0
    8.2923  -17.9058   25.5140 C   0  0  2  0  0  0  0  0  0  0  0  0
    8.2609  -16.8944   24.5036 N   0  0  0  0  0  0  0  0  0  0  0  0
    9.6867  -18.3094   25.8273 C   0  0  0  0  0  0  0  0  0  0  0  0
   10.0026  -19.1638   26.8700 O   0  0  0  0  0  0  0  0  0  0  0  0
   10.6066  -17.8470   25.1058 O   0  0  0  0  0  0  0  0  0  0  0  0
  1  2  1  0
  2  3  2  0
  4  2  1  0
  5  4  1  0
  6  5  1  0
  6  7  1  6
  8  9  2  0
  8  6  1  0
 10 11  1  0
 11 12  2  0
 12 13  1  0
 14 15  1  0
 14 13  2  0
 16 15  1  6
 16 17  1  0
 17  8  1  0
 18 16  1  0
 18 24  1  0
 19 18  2  0
 20 14  1  0
 21 20  2  0
 21 11  1  0
 23 25  1  0
 23 24  1  0
 23 22  1  6
 25 26  1  0
 27 25  2  0
M  END
$$$$
