QYA.pdb
     RDKit          3D

 27 27  0  0  1  0  0  0  0  0999 V2000
   13.5397  -14.3410   17.8257 N   0  0  0  0  0  0  0  0  0  0  0  0
   13.2921  -15.6616   17.3290 C   0  0  0  0  0  0  0  0  0  0  0  0
   13.8617  -15.9703   16.2696 O   0  0  0  0  0  0  0  0  0  0  0  0
   12.3952  -16.5397   18.1004 C   0  0  0  0  0  0  0  0  0  0  0  0
   11.9316  -15.9392   19.4025 C   0  0  0  0  0  0  0  0  0  0  0  0
   11.4716  -16.9459   20.4128 C   0  0  2  0  0  0  0  0  0  0  0  0
   10.4103  -17.7324   19.8158 N   0  0  0  0  0  0  0  0  0  0  0  0
   11.0261  -16.2472   21.6397 C   0  0  0  0  0  0  0  0  0  0  0  0
   11.9009  -15.6116   22.2830 O   0  0  0  0  0  0  0  0  0  0  0  0
    7.8082  -11.9443   18.2907 O   0  0  0  0  0  0  0  0  0  0  0  0
    7.8738  -12.6401   19.4902 C   0  0  0  0  0  0  0  0  0  0  0  0
    7.1707  -13.8035   19.6332 C   0  0  0  0  0  0  0  0  0  0  0  0
    7.2264  -14.4993   20.8101 C   0  0  0  0  0  0  0  0  0  0  0  0
    7.9803  -14.0674   21.8867 C   0  0  0  0  0  0  0  0  0  0  0  0
    7.9811  -14.8758   23.1076 C   0  0  0  0  0  0  0  0  0  0  0  0
    9.2941  -15.5915   23.3533 C   0  0  2  0  0  0  0  0  0  0  0  0
    9.7095  -16.2444   22.1305 N   0  0  0  0  0  0  0  0  0  0  0  0
    9.0382  -16.6318   24.3747 C   0  0  0  0  0  0  0  0  0  0  0  0
    8.0256  -17.3433   24.2675 O   0  0  0  0  0  0  0  0  0  0  0  0
    8.6923  -12.8957   21.7517 C   0  0  0  0  0  0  0  0  0  0  0  0
    8.6305  -12.2058   20.5697 C   0  0  0  0  0  0  0  0  0  0  0  0
   10.4273  -19.1651   25.9423 C   0  0  0  0  0  0  0  0  0  0  0  0
    9.8151  -17.8658   26.4145 C   0  0  2  0  0  0  0  0  0  0  0  0
    9.9319  -16.8122   25.4547 N   0  0  0  0  0  0  0  0  0  0  0  0
   10.4956  -17.5121   27.6862 C   0  0  0  0  0  0  0  0  0  0  0  0
   10.3500  -18.2555   28.8451 O   0  0  0  0  0  0  0  0  0  0  0  0
   11.2307  -16.4923   27.6933 O   0  0  0  0  0  0  0  0  0  0  0  0
  1  2  1  0
  2  3  2  0
  4  2  1  0
  5  4  1  0
  6  5  1  0
  6  7  1  6
  8  9  2  0
  8  6  1  0
 10 11  1  0
 11 12  2  0
 12 13  1  0
 14 15  1  0
 14 13  2  0
 16 15  1  6
 16 17  1  0
 17  8  1  0
 18 16  1  0
 18 24  1  0
 19 18  2  0
 20 14  1  0
 21 20  2  0
 21 11  1  0
 23 25  1  0
 23 24  1  0
 23 22  1  6
 25 26  1  0
 27 25  2  0
M  END
$$$$
