QYA.pdb
     RDKit          3D

 27 27  0  0  1  0  0  0  0  0999 V2000
    7.1870  -16.1050   15.4170 N   0  0  0  0  0  0  0  0  0  0  0  0
    8.3674  -16.5699   16.0823 C   0  0  0  0  0  0  0  0  0  0  0  0
    9.3578  -16.7869   15.3653 O   0  0  0  0  0  0  0  0  0  0  0  0
    8.3181  -16.7519   17.5435 C   0  0  0  0  0  0  0  0  0  0  0  0
    9.0859  -15.7066   18.3108 C   0  0  0  0  0  0  0  0  0  0  0  0
    8.2566  -14.5409   18.7572 C   0  0  2  0  0  0  0  0  0  0  0  0
    8.4968  -13.4402   17.8450 N   0  0  0  0  0  0  0  0  0  0  0  0
    8.6028  -14.1938   20.1542 C   0  0  0  0  0  0  0  0  0  0  0  0
    9.6632  -13.5405   20.3329 O   0  0  0  0  0  0  0  0  0  0  0  0
    7.3184  -12.4725   28.7833 O   0  0  0  0  0  0  0  0  0  0  0  0
    7.2064  -12.7556   27.4290 C   0  0  0  0  0  0  0  0  0  0  0  0
    6.6799  -13.9531   27.0326 C   0  0  0  0  0  0  0  0  0  0  0  0
    6.5638  -14.2450   25.7008 C   0  0  0  0  0  0  0  0  0  0  0  0
    6.9650  -13.3613   24.7148 C   0  0  0  0  0  0  0  0  0  0  0  0
    6.8034  -13.7574   23.3145 C   0  0  0  0  0  0  0  0  0  0  0  0
    8.1142  -14.0829   22.6271 C   0  0  2  0  0  0  0  0  0  0  0  0
    7.8387  -14.5391   21.2816 N   0  0  0  0  0  0  0  0  0  0  0  0
    8.7357  -15.1958   23.3796 C   0  0  0  0  0  0  0  0  0  0  0  0
    9.0287  -15.0237   24.5745 O   0  0  0  0  0  0  0  0  0  0  0  0
    7.4969  -12.1518   25.1050 C   0  0  0  0  0  0  0  0  0  0  0  0
    7.6093  -11.8683   26.4406 C   0  0  0  0  0  0  0  0  0  0  0  0
    9.4279  -18.8443   22.6083 C   0  0  0  0  0  0  0  0  0  0  0  0
    9.5229  -17.5759   23.4257 C   0  0  2  0  0  0  0  0  0  0  0  0
    8.9920  -16.4340   22.7482 N   0  0  0  0  0  0  0  0  0  0  0  0
   10.9592  -17.3871   23.7529 C   0  0  0  0  0  0  0  0  0  0  0  0
   11.6778  -16.2730   23.3539 O   0  0  0  0  0  0  0  0  0  0  0  0
   11.5308  -18.2859   24.4206 O   0  0  0  0  0  0  0  0  0  0  0  0
  1  2  1  0
  2  3  2  0
  4  2  1  0
  5  4  1  0
  6  5  1  0
  6  7  1  6
  8  9  2  0
  8  6  1  0
 10 11  1  0
 11 12  2  0
 12 13  1  0
 14 15  1  0
 14 13  2  0
 16 15  1  1
 16 17  1  0
 17  8  1  0
 18 16  1  0
 18 24  1  0
 19 18  2  0
 20 14  1  0
 21 20  2  0
 21 11  1  0
 23 25  1  0
 23 24  1  0
 23 22  1  6
 25 26  1  0
 27 25  2  0
M  END
$$$$
