QYA.pdb
     RDKit          3D

 27 27  0  0  1  0  0  0  0  0999 V2000
    9.1018  -13.0031   15.7179 N   0  0  0  0  0  0  0  0  0  0  0  0
    8.4882  -14.2666   15.4369 C   0  0  0  0  0  0  0  0  0  0  0  0
    8.1216  -14.4556   14.2656 O   0  0  0  0  0  0  0  0  0  0  0  0
    8.3413  -15.2311   16.5409 C   0  0  0  0  0  0  0  0  0  0  0  0
    8.7786  -14.6923   17.8787 C   0  0  0  0  0  0  0  0  0  0  0  0
    9.0487  -15.7486   18.9067 C   0  0  2  0  0  0  0  0  0  0  0  0
    7.9974  -16.7428   18.8197 N   0  0  0  0  0  0  0  0  0  0  0  0
    9.1190  -15.1265   20.2484 C   0  0  0  0  0  0  0  0  0  0  0  0
   10.1809  -14.5174   20.5390 O   0  0  0  0  0  0  0  0  0  0  0  0
    7.0286  -12.3917   28.4017 O   0  0  0  0  0  0  0  0  0  0  0  0
    6.9818  -12.8581   27.0951 C   0  0  0  0  0  0  0  0  0  0  0  0
    7.4618  -12.0748   26.0829 C   0  0  0  0  0  0  0  0  0  0  0  0
    7.4217  -12.5222   24.7904 C   0  0  0  0  0  0  0  0  0  0  0  0
    6.9049  -13.7609   24.4549 C   0  0  0  0  0  0  0  0  0  0  0  0
    6.9022  -14.1578   23.0454 C   0  0  0  0  0  0  0  0  0  0  0  0
    8.2334  -14.7071   22.5735 C   0  0  2  0  0  0  0  0  0  0  0  0
    8.0943  -15.1683   21.2088 N   0  0  0  0  0  0  0  0  0  0  0  0
    8.5521  -15.8716   23.4299 C   0  0  0  0  0  0  0  0  0  0  0  0
    7.7990  -16.8592   23.4061 O   0  0  0  0  0  0  0  0  0  0  0  0
    6.4187  -14.5573   25.4686 C   0  0  0  0  0  0  0  0  0  0  0  0
    6.4630  -14.1010   26.7596 C   0  0  0  0  0  0  0  0  0  0  0  0
   11.5944  -17.3522   24.6883 C   0  0  0  0  0  0  0  0  0  0  0  0
   10.1565  -16.9978   24.9933 C   0  0  2  0  0  0  0  0  0  0  0  0
    9.6948  -15.8593   24.2615 N   0  0  0  0  0  0  0  0  0  0  0  0
   10.0773  -16.7638   26.4577 C   0  0  0  0  0  0  0  0  0  0  0  0
   10.3215  -17.7586   27.3892 O   0  0  0  0  0  0  0  0  0  0  0  0
    9.7746  -15.6087   26.8508 O   0  0  0  0  0  0  0  0  0  0  0  0
  1  2  1  0
  2  3  2  0
  4  2  1  0
  5  4  1  0
  6  5  1  0
  6  7  1  1
  8  9  2  0
  8  6  1  0
 10 11  1  0
 11 12  2  0
 12 13  1  0
 14 15  1  0
 14 13  2  0
 16 15  1  1
 16 17  1  0
 17  8  1  0
 18 16  1  0
 18 24  1  0
 19 18  2  0
 20 14  1  0
 21 20  2  0
 21 11  1  0
 23 25  1  0
 23 24  1  0
 23 22  1  6
 25 26  1  0
 27 25  2  0
M  END
$$$$
