TFL.pdb
     RDKit          3D

 27 27  0  0  1  0  0  0  0  0999 V2000
   10.5494  -19.4980   21.7509 C   0  0  0  0  0  0  0  0  0  0  0  0
   11.4735  -18.7836   20.7890 C   0  0  1  0  0  0  0  0  0  0  0  0
   11.8242  -19.6322   19.7537 O   0  0  0  0  0  0  0  0  0  0  0  0
   10.7215  -17.5803   20.2078 C   0  0  2  0  0  0  0  0  0  0  0  0
   11.6091  -16.9406   19.2601 N   0  0  0  0  0  0  0  0  0  0  0  0
   10.4223  -16.6315   21.2933 C   0  0  0  0  0  0  0  0  0  0  0  0
   11.3406  -15.9444   21.7852 O   0  0  0  0  0  0  0  0  0  0  0  0
    9.1151  -16.4447   21.8305 N   0  0  0  0  0  0  0  0  0  0  0  0
    8.8247  -15.6347   22.9794 C   0  0  1  0  0  0  0  0  0  0  0  0
    7.4050  -15.1133   22.9271 C   0  0  0  0  0  0  0  0  0  0  0  0
    7.0742  -14.2521   24.0819 C   0  0  0  0  0  0  0  0  0  0  0  0
    7.4002  -12.9106   24.0681 C   0  0  0  0  0  0  0  0  0  0  0  0
    7.1002  -12.0818   25.1399 C   0  0  0  0  0  0  0  0  0  0  0  0
    6.4634  -12.5659   26.2635 C   0  0  0  0  0  0  0  0  0  0  0  0
    6.1386  -13.9063   26.2753 C   0  0  0  0  0  0  0  0  0  0  0  0
    6.4358  -14.7323   25.2110 C   0  0  0  0  0  0  0  0  0  0  0  0
    9.1308  -16.3162   24.2569 C   0  0  0  0  0  0  0  0  0  0  0  0
    8.9433  -17.5579   24.3277 O   0  0  0  0  0  0  0  0  0  0  0  0
   10.3669  -14.1453   29.6585 C   0  0  0  0  0  0  0  0  0  0  0  0
    9.8568  -14.6741   28.3634 C   0  0  1  0  0  0  0  0  0  0  0  0
    8.9177  -13.6728   27.6836 C   0  0  0  0  0  0  0  0  0  0  0  0
   10.8211  -15.2559   27.4172 C   0  0  0  0  0  0  0  0  0  0  0  0
   10.4245  -16.2905   26.4463 C   0  0  2  0  0  0  0  0  0  0  0  0
    9.6203  -15.6071   25.3745 N   0  0  0  0  0  0  0  0  0  0  0  0
    9.6359  -17.4309   26.8712 C   0  0  0  0  0  0  0  0  0  0  0  0
   10.1383  -18.3100   27.6562 O   0  0  0  0  0  0  0  0  0  0  0  0
    8.3342  -17.6816   26.5076 O   0  0  0  0  0  0  0  0  0  0  0  0
  2  4  1  0
  2  1  1  1
  2  3  1  0
  4  5  1  6
  6  7  2  0
  6  4  1  0
  8  6  1  0
  9  8  1  0
 10 11  1  0
  9 10  1  1
 11 12  2  0
 11 16  1  0
 12 13  1  0
 13 14  2  0
 15 14  1  0
 16 15  2  0
 17 24  1  0
 17  9  1  0
 18 17  2  0
 20 22  1  0
 20 19  1  1
 21 20  1  0
 23 24  1  0
 23 22  1  1
 25 23  1  0
 26 25  2  0
 27 25  1  0
M  END
$$$$
