TFL.pdb
     RDKit          3D

 27 27  0  0  1  0  0  0  0  0999 V2000
   11.0508  -19.6273   22.0823 C   0  0  0  0  0  0  0  0  0  0  0  0
   11.8336  -18.7577   21.1228 C   0  0  1  0  0  0  0  0  0  0  0  0
   12.2440  -19.5073   20.0345 O   0  0  0  0  0  0  0  0  0  0  0  0
   10.9098  -17.6373   20.6303 C   0  0  2  0  0  0  0  0  0  0  0  0
   11.6581  -16.8622   19.6638 N   0  0  0  0  0  0  0  0  0  0  0  0
   10.5603  -16.7690   21.7671 C   0  0  0  0  0  0  0  0  0  0  0  0
   11.4299  -16.0294   22.2711 O   0  0  0  0  0  0  0  0  0  0  0  0
    9.2567  -16.7202   22.3419 N   0  0  0  0  0  0  0  0  0  0  0  0
    8.9098  -15.9239   23.4848 C   0  0  1  0  0  0  0  0  0  0  0  0
    7.4729  -15.4567   23.4008 C   0  0  0  0  0  0  0  0  0  0  0  0
    7.1154  -14.5234   24.4897 C   0  0  0  0  0  0  0  0  0  0  0  0
    7.4557  -13.1880   24.4042 C   0  0  0  0  0  0  0  0  0  0  0  0
    7.1312  -12.2924   25.4133 C   0  0  0  0  0  0  0  0  0  0  0  0
    6.4548  -12.7011   26.5437 C   0  0  0  0  0  0  0  0  0  0  0  0
    6.1157  -14.0354   26.6272 C   0  0  0  0  0  0  0  0  0  0  0  0
    6.4372  -14.9278   25.6253 C   0  0  0  0  0  0  0  0  0  0  0  0
    9.2125  -16.5957   24.7682 C   0  0  0  0  0  0  0  0  0  0  0  0
    8.8400  -17.7878   24.9172 O   0  0  0  0  0  0  0  0  0  0  0  0
   10.2322  -13.3939   29.0943 C   0  0  0  0  0  0  0  0  0  0  0  0
   10.3659  -14.2741   27.9009 C   0  0  1  0  0  0  0  0  0  0  0  0
   11.4096  -13.7296   26.9207 C   0  0  0  0  0  0  0  0  0  0  0  0
   10.5113  -15.7225   28.1130 C   0  0  0  0  0  0  0  0  0  0  0  0
   10.4373  -16.6795   26.9955 C   0  0  2  0  0  0  0  0  0  0  0  0
    9.8994  -15.9312   25.8066 N   0  0  0  0  0  0  0  0  0  0  0  0
    9.6314  -17.8796   27.1100 C   0  0  0  0  0  0  0  0  0  0  0  0
    8.5100  -17.9682   26.4968 O   0  0  0  0  0  0  0  0  0  0  0  0
    9.9613  -18.9961   27.8407 O   0  0  0  0  0  0  0  0  0  0  0  0
  2  4  1  0
  2  1  1  1
  2  3  1  0
  4  5  1  6
  6  7  2  0
  6  4  1  0
  8  6  1  0
  9  8  1  0
 10 11  1  0
  9 10  1  1
 11 12  2  0
 11 16  1  0
 12 13  1  0
 13 14  2  0
 15 14  1  0
 16 15  2  0
 17 24  1  0
 17  9  1  0
 18 17  2  0
 20 22  1  0
 20 19  1  1
 21 20  1  0
 23 24  1  0
 23 22  1  1
 25 23  1  0
 26 25  2  0
 27 25  1  0
M  END
$$$$
