TFL.pdb
     RDKit          3D

 27 27  0  0  1  0  0  0  0  0999 V2000
    9.7541  -19.4501   21.3219 C   0  0  0  0  0  0  0  0  0  0  0  0
   10.8228  -18.7499   20.5112 C   0  0  1  0  0  0  0  0  0  0  0  0
   11.0353  -19.4290   19.3244 O   0  0  0  0  0  0  0  0  0  0  0  0
   10.3281  -17.3349   20.1885 C   0  0  2  0  0  0  0  0  0  0  0  0
   11.3303  -16.7146   19.3483 N   0  0  0  0  0  0  0  0  0  0  0  0
   10.2175  -16.5680   21.4407 C   0  0  0  0  0  0  0  0  0  0  0  0
   11.2512  -16.1785   22.0212 O   0  0  0  0  0  0  0  0  0  0  0  0
    8.9706  -16.2346   22.0459 N   0  0  0  0  0  0  0  0  0  0  0  0
    8.8397  -15.4523   23.2423 C   0  0  1  0  0  0  0  0  0  0  0  0
    7.4243  -14.9409   23.4004 C   0  0  0  0  0  0  0  0  0  0  0  0
    7.3001  -13.9406   24.4814 C   0  0  0  0  0  0  0  0  0  0  0  0
    8.3855  -13.6360   25.2785 C   0  0  0  0  0  0  0  0  0  0  0  0
    8.2939  -12.7006   26.2995 C   0  0  0  0  0  0  0  0  0  0  0  0
    7.1130  -12.0368   26.5591 C   0  0  0  0  0  0  0  0  0  0  0  0
    6.0300  -12.3424   25.7616 C   0  0  0  0  0  0  0  0  0  0  0  0
    6.1186  -13.2720   24.7460 C   0  0  0  0  0  0  0  0  0  0  0  0
    9.3242  -16.1594   24.4488 C   0  0  0  0  0  0  0  0  0  0  0  0
    9.1195  -17.3975   24.5342 O   0  0  0  0  0  0  0  0  0  0  0  0
   10.3382  -15.1451   29.8666 C   0  0  0  0  0  0  0  0  0  0  0  0
   10.3580  -14.6053   28.4790 C   0  0  1  0  0  0  0  0  0  0  0  0
   10.4661  -13.0773   28.4769 C   0  0  0  0  0  0  0  0  0  0  0  0
   11.2661  -15.2238   27.5009 C   0  0  0  0  0  0  0  0  0  0  0  0
   10.7904  -16.2204   26.5258 C   0  0  2  0  0  0  0  0  0  0  0  0
    9.9990  -15.4781   25.4841 N   0  0  0  0  0  0  0  0  0  0  0  0
    9.9514  -17.3229   26.9541 C   0  0  0  0  0  0  0  0  0  0  0  0
    8.6792  -17.2606   26.8165 O   0  0  0  0  0  0  0  0  0  0  0  0
   10.3984  -18.4944   27.5174 O   0  0  0  0  0  0  0  0  0  0  0  0
  2  4  1  0
  2  1  1  1
  2  3  1  0
  4  5  1  6
  6  7  2  0
  6  4  1  0
  8  6  1  0
  9  8  1  0
 10 11  1  0
  9 10  1  1
 11 12  2  0
 11 16  1  0
 12 13  1  0
 13 14  2  0
 15 14  1  0
 16 15  2  0
 17 24  1  0
 17  9  1  0
 18 17  2  0
 20 22  1  0
 20 19  1  1
 21 20  1  0
 23 24  1  0
 23 22  1  1
 25 23  1  0
 26 25  2  0
 27 25  1  0
M  END
$$$$
