TFL.pdb
     RDKit          3D

 27 27  0  0  1  0  0  0  0  0999 V2000
    9.4992  -16.6622   19.4460 C   0  0  0  0  0  0  0  0  0  0  0  0
    9.6076  -15.2502   18.9127 C   0  0  1  0  0  0  0  0  0  0  0  0
    9.4880  -15.2562   17.5342 O   0  0  0  0  0  0  0  0  0  0  0  0
    8.4579  -14.4260   19.5044 C   0  0  2  0  0  0  0  0  0  0  0  0
    8.4846  -13.1317   18.8570 N   0  0  0  0  0  0  0  0  0  0  0  0
    8.6927  -14.2407   20.9462 C   0  0  0  0  0  0  0  0  0  0  0  0
    9.5912  -13.4655   21.3321 O   0  0  0  0  0  0  0  0  0  0  0  0
    7.9377  -14.9093   21.9537 N   0  0  0  0  0  0  0  0  0  0  0  0
    8.1003  -14.6871   23.3625 C   0  0  1  0  0  0  0  0  0  0  0  0
    6.7642  -14.7224   24.0721 C   0  0  0  0  0  0  0  0  0  0  0  0
    6.6347  -13.6591   25.0905 C   0  0  0  0  0  0  0  0  0  0  0  0
    7.4089  -12.5186   25.0112 C   0  0  0  0  0  0  0  0  0  0  0  0
    7.3055  -11.5066   25.9549 C   0  0  0  0  0  0  0  0  0  0  0  0
    6.4239  -11.5996   27.0115 C   0  0  0  0  0  0  0  0  0  0  0  0
    5.6514  -12.7396   27.0890 C   0  0  0  0  0  0  0  0  0  0  0  0
    5.7523  -13.7472   26.1519 C   0  0  0  0  0  0  0  0  0  0  0  0
    9.0924  -15.5965   23.9782 C   0  0  0  0  0  0  0  0  0  0  0  0
    9.4501  -16.6127   23.3291 O   0  0  0  0  0  0  0  0  0  0  0  0
   10.4729  -15.0547   29.4164 C   0  0  0  0  0  0  0  0  0  0  0  0
   10.3178  -14.8185   27.9545 C   0  0  1  0  0  0  0  0  0  0  0  0
   10.2110  -13.3231   27.6398 C   0  0  0  0  0  0  0  0  0  0  0  0
   11.2310  -15.5121   27.0333 C   0  0  0  0  0  0  0  0  0  0  0  0
   10.7395  -16.1918   25.8222 C   0  0  2  0  0  0  0  0  0  0  0  0
    9.6321  -15.3447   25.2576 N   0  0  0  0  0  0  0  0  0  0  0  0
   10.2105  -17.5396   25.9015 C   0  0  0  0  0  0  0  0  0  0  0  0
   10.9764  -18.5194   26.2095 O   0  0  0  0  0  0  0  0  0  0  0  0
    8.9030  -17.8988   25.6753 O   0  0  0  0  0  0  0  0  0  0  0  0
  2  4  1  0
  2  1  1  1
  2  3  1  0
  4  5  1  6
  6  7  2  0
  6  4  1  0
  8  6  1  0
  9  8  1  0
 10 11  1  0
  9 10  1  1
 11 12  2  0
 11 16  1  0
 12 13  1  0
 13 14  2  0
 15 14  1  0
 16 15  2  0
 17 24  1  0
 17  9  1  0
 18 17  2  0
 20 22  1  0
 20 19  1  1
 21 20  1  0
 23 24  1  0
 23 22  1  1
 25 23  1  0
 26 25  2  0
 27 25  1  0
M  END
$$$$
