TFL.pdb
     RDKit          3D

 27 27  0  0  1  0  0  0  0  0999 V2000
   10.6015  -20.3983   20.0481 C   0  0  0  0  0  0  0  0  0  0  0  0
   10.5577  -19.1969   20.9671 C   0  0  1  0  0  0  0  0  0  0  0  0
   11.8444  -18.7990   21.2847 O   0  0  0  0  0  0  0  0  0  0  0  0
    9.8560  -18.0529   20.2256 C   0  0  2  0  0  0  0  0  0  0  0  0
   10.7068  -17.6796   19.1157 N   0  0  0  0  0  0  0  0  0  0  0  0
    9.7267  -16.9007   21.1334 C   0  0  0  0  0  0  0  0  0  0  0  0
   10.5720  -15.9835   21.0933 O   0  0  0  0  0  0  0  0  0  0  0  0
    8.6687  -16.7650   22.0790 N   0  0  0  0  0  0  0  0  0  0  0  0
    8.5330  -15.6578   22.9825 C   0  0  1  0  0  0  0  0  0  0  0  0
    7.1563  -15.6394   23.6104 C   0  0  0  0  0  0  0  0  0  0  0  0
    6.9517  -14.4726   24.4943 C   0  0  0  0  0  0  0  0  0  0  0  0
    7.4659  -13.2381   24.1508 C   0  0  0  0  0  0  0  0  0  0  0  0
    7.2871  -12.1279   24.9638 C   0  0  0  0  0  0  0  0  0  0  0  0
    6.5875  -12.2134   26.1494 C   0  0  0  0  0  0  0  0  0  0  0  0
    6.0747  -13.4474   26.4908 C   0  0  0  0  0  0  0  0  0  0  0  0
    6.2510  -14.5526   25.6841 C   0  0  0  0  0  0  0  0  0  0  0  0
    9.6156  -15.6005   23.9900 C   0  0  0  0  0  0  0  0  0  0  0  0
   10.6731  -14.9885   23.6916 O   0  0  0  0  0  0  0  0  0  0  0  0
   10.3303  -13.3170   28.8949 C   0  0  0  0  0  0  0  0  0  0  0  0
   10.4153  -14.6974   28.3433 C   0  0  1  0  0  0  0  0  0  0  0  0
    9.2921  -15.5854   28.8879 C   0  0  0  0  0  0  0  0  0  0  0  0
   10.5931  -14.8608   26.8922 C   0  0  0  0  0  0  0  0  0  0  0  0
   10.6015  -16.1908   26.2587 C   0  0  2  0  0  0  0  0  0  0  0  0
    9.4810  -16.2105   25.2554 N   0  0  0  0  0  0  0  0  0  0  0  0
   10.4389  -17.3868   27.0624 C   0  0  0  0  0  0  0  0  0  0  0  0
   11.3995  -17.8092   27.7975 O   0  0  0  0  0  0  0  0  0  0  0  0
    9.3012  -18.1554   27.1292 O   0  0  0  0  0  0  0  0  0  0  0  0
  2  4  1  0
  2  1  1  6
  2  3  1  0
  4  5  1  6
  6  7  2  0
  6  4  1  0
  8  6  1  0
  9  8  1  0
 10 11  1  0
  9 10  1  1
 11 12  2  0
 11 16  1  0
 12 13  1  0
 13 14  2  0
 15 14  1  0
 16 15  2  0
 17 24  1  0
 17  9  1  0
 18 17  2  0
 20 22  1  0
 20 19  1  6
 21 20  1  0
 23 24  1  0
 23 22  1  1
 25 23  1  0
 26 25  2  0
 27 25  1  0
M  END
$$$$
