TFL.pdb
     RDKit          3D

 27 27  0  0  1  0  0  0  0  0999 V2000
   12.3589  -17.8480   18.5227 C   0  0  0  0  0  0  0  0  0  0  0  0
   11.9286  -16.9222   19.6396 C   0  0  1  0  0  0  0  0  0  0  0  0
   10.9711  -16.0372   19.1761 O   0  0  0  0  0  0  0  0  0  0  0  0
   11.3140  -17.7740   20.7568 C   0  0  2  0  0  0  0  0  0  0  0  0
   10.1406  -18.4174   20.2052 N   0  0  0  0  0  0  0  0  0  0  0  0
   10.8975  -16.8912   21.8593 C   0  0  0  0  0  0  0  0  0  0  0  0
   11.7583  -16.2587   22.5045 O   0  0  0  0  0  0  0  0  0  0  0  0
    9.5371  -16.7101   22.2447 N   0  0  0  0  0  0  0  0  0  0  0  0
    9.1167  -15.9266   23.3716 C   0  0  1  0  0  0  0  0  0  0  0  0
    7.6493  -15.5724   23.2653 C   0  0  0  0  0  0  0  0  0  0  0  0
    7.2258  -14.5963   24.2912 C   0  0  0  0  0  0  0  0  0  0  0  0
    7.5286  -13.2569   24.1474 C   0  0  0  0  0  0  0  0  0  0  0  0
    7.1419  -12.3215   25.0967 C   0  0  0  0  0  0  0  0  0  0  0  0
    6.4386  -12.6930   26.2235 C   0  0  0  0  0  0  0  0  0  0  0  0
    6.1371  -14.0314   26.3653 C   0  0  0  0  0  0  0  0  0  0  0  0
    6.5204  -14.9633   25.4229 C   0  0  0  0  0  0  0  0  0  0  0  0
    9.4549  -16.5549   24.6682 C   0  0  0  0  0  0  0  0  0  0  0  0
    9.4812  -17.8108   24.7309 O   0  0  0  0  0  0  0  0  0  0  0  0
   10.7599  -12.8846   28.6813 C   0  0  0  0  0  0  0  0  0  0  0  0
   10.8088  -13.9636   27.6563 C   0  0  1  0  0  0  0  0  0  0  0  0
   12.1278  -13.9335   26.8778 C   0  0  0  0  0  0  0  0  0  0  0  0
   10.4375  -15.3286   28.0597 C   0  0  0  0  0  0  0  0  0  0  0  0
   10.2719  -16.4092   27.0722 C   0  0  2  0  0  0  0  0  0  0  0  0
    9.7424  -15.7805   25.8124 N   0  0  0  0  0  0  0  0  0  0  0  0
    9.4001  -17.5331   27.3545 C   0  0  0  0  0  0  0  0  0  0  0  0
    9.7198  -18.3926   28.2492 O   0  0  0  0  0  0  0  0  0  0  0  0
    8.1990  -17.7869   26.7361 O   0  0  0  0  0  0  0  0  0  0  0  0
  2  4  1  0
  2  1  1  6
  2  3  1  0
  4  5  1  6
  6  7  2  0
  6  4  1  0
  8  6  1  0
  9  8  1  0
 10 11  1  0
  9 10  1  1
 11 12  2  0
 11 16  1  0
 12 13  1  0
 13 14  2  0
 15 14  1  0
 16 15  2  0
 17 24  1  0
 17  9  1  0
 18 17  2  0
 20 22  1  0
 20 19  1  1
 21 20  1  0
 23 24  1  0
 23 22  1  1
 25 23  1  0
 26 25  2  0
 27 25  1  0
M  END
$$$$
