TFL.pdb
     RDKit          3D

 27 27  0  0  1  0  0  0  0  0999 V2000
   10.5635  -19.7311   22.5217 C   0  0  0  0  0  0  0  0  0  0  0  0
   11.1286  -19.1194   21.2583 C   0  0  1  0  0  0  0  0  0  0  0  0
   11.3908  -20.1118   20.3303 O   0  0  0  0  0  0  0  0  0  0  0  0
   10.0781  -18.1654   20.6775 C   0  0  2  0  0  0  0  0  0  0  0  0
   10.5654  -17.7308   19.3857 N   0  0  0  0  0  0  0  0  0  0  0  0
    9.9564  -16.9918   21.5585 C   0  0  0  0  0  0  0  0  0  0  0  0
   10.9094  -16.1926   21.6598 O   0  0  0  0  0  0  0  0  0  0  0  0
    8.7873  -16.7052   22.3221 N   0  0  0  0  0  0  0  0  0  0  0  0
    8.6697  -15.6002   23.2309 C   0  0  1  0  0  0  0  0  0  0  0  0
    7.2392  -15.4333   23.6952 C   0  0  0  0  0  0  0  0  0  0  0  0
    7.0444  -14.2120   24.5046 C   0  0  0  0  0  0  0  0  0  0  0  0
    6.2804  -14.2508   25.6540 C   0  0  0  0  0  0  0  0  0  0  0  0
    6.0829  -13.1178   26.4304 C   0  0  0  0  0  0  0  0  0  0  0  0
    6.6429  -11.9057   26.0845 C   0  0  0  0  0  0  0  0  0  0  0  0
    7.4058  -11.8690   24.9360 C   0  0  0  0  0  0  0  0  0  0  0  0
    7.6036  -12.9941   24.1624 C   0  0  0  0  0  0  0  0  0  0  0  0
    9.6255  -15.6774   24.3582 C   0  0  0  0  0  0  0  0  0  0  0  0
   10.6149  -14.9008   24.3526 O   0  0  0  0  0  0  0  0  0  0  0  0
    9.5204  -12.8587   28.2101 C   0  0  0  0  0  0  0  0  0  0  0  0
   10.2678  -14.0941   27.8463 C   0  0  1  0  0  0  0  0  0  0  0  0
   11.3164  -14.4438   28.9069 C   0  0  0  0  0  0  0  0  0  0  0  0
    9.5015  -15.2745   27.4182 C   0  0  0  0  0  0  0  0  0  0  0  0
   10.1465  -16.4104   26.7371 C   0  0  2  0  0  0  0  0  0  0  0  0
    9.4462  -16.5916   25.4183 N   0  0  0  0  0  0  0  0  0  0  0  0
   10.1716  -17.7201   27.3592 C   0  0  0  0  0  0  0  0  0  0  0  0
    9.2416  -18.5685   27.1212 O   0  0  0  0  0  0  0  0  0  0  0  0
   11.1417  -18.1770   28.2192 O   0  0  0  0  0  0  0  0  0  0  0  0
  2  4  1  0
  2  1  1  1
  2  3  1  0
  4  5  1  6
  6  7  2  0
  6  4  1  0
  8  6  1  0
  9  8  1  0
 10 11  1  0
  9 10  1  1
 11 12  2  0
 11 16  1  0
 12 13  1  0
 13 14  2  0
 15 14  1  0
 16 15  2  0
 17 24  1  0
 17  9  1  0
 18 17  2  0
 20 22  1  0
 20 19  1  1
 21 20  1  0
 23 24  1  0
 23 22  1  1
 25 23  1  0
 26 25  2  0
 27 25  1  0
M  END
$$$$
