TFL.pdb
     RDKit          3D

 27 27  0  0  1  0  0  0  0  0999 V2000
   11.3683  -19.4914   21.7834 C   0  0  0  0  0  0  0  0  0  0  0  0
   11.8759  -18.6808   20.6109 C   0  0  1  0  0  0  0  0  0  0  0  0
   12.2399  -19.5247   19.5765 O   0  0  0  0  0  0  0  0  0  0  0  0
   10.7385  -17.7720   20.1296 C   0  0  2  0  0  0  0  0  0  0  0  0
   11.2163  -17.0791   18.9520 N   0  0  0  0  0  0  0  0  0  0  0  0
   10.4413  -16.7800   21.1764 C   0  0  0  0  0  0  0  0  0  0  0  0
   11.2631  -15.8733   21.4209 O   0  0  0  0  0  0  0  0  0  0  0  0
    9.2421  -16.7919   21.9471 N   0  0  0  0  0  0  0  0  0  0  0  0
    8.9389  -15.8419   22.9797 C   0  0  1  0  0  0  0  0  0  0  0  0
    7.4568  -15.5388   23.0157 C   0  0  0  0  0  0  0  0  0  0  0  0
    7.1046  -14.5535   24.0596 C   0  0  0  0  0  0  0  0  0  0  0  0
    6.4886  -14.9622   25.2257 C   0  0  0  0  0  0  0  0  0  0  0  0
    6.1482  -14.0563   26.2203 C   0  0  0  0  0  0  0  0  0  0  0  0
    6.4120  -12.7095   26.0834 C   0  0  0  0  0  0  0  0  0  0  0  0
    7.0275  -12.3033   24.9178 C   0  0  0  0  0  0  0  0  0  0  0  0
    7.3669  -13.2019   23.9276 C   0  0  0  0  0  0  0  0  0  0  0  0
    9.4674  -16.2414   24.3031 C   0  0  0  0  0  0  0  0  0  0  0  0
    9.3674  -17.4482   24.6432 O   0  0  0  0  0  0  0  0  0  0  0  0
   10.6539  -13.2768   29.6154 C   0  0  0  0  0  0  0  0  0  0  0  0
   10.7560  -14.5391   28.8324 C   0  0  1  0  0  0  0  0  0  0  0  0
   10.0927  -15.7071   29.5690 C   0  0  0  0  0  0  0  0  0  0  0  0
   10.3938  -14.5091   27.4070 C   0  0  0  0  0  0  0  0  0  0  0  0
   10.5305  -15.6986   26.5487 C   0  0  2  0  0  0  0  0  0  0  0  0
   10.0698  -15.3063   25.1716 N   0  0  0  0  0  0  0  0  0  0  0  0
    9.8228  -16.9220   26.8731 C   0  0  0  0  0  0  0  0  0  0  0  0
   10.4560  -17.9318   27.3430 O   0  0  0  0  0  0  0  0  0  0  0  0
    8.4709  -17.1247   26.7287 O   0  0  0  0  0  0  0  0  0  0  0  0
  2  4  1  0
  2  1  1  1
  2  3  1  0
  4  5  1  6
  6  7  2  0
  6  4  1  0
  8  6  1  0
  9  8  1  0
 10 11  1  0
  9 10  1  1
 11 12  2  0
 11 16  1  0
 12 13  1  0
 13 14  2  0
 15 14  1  0
 16 15  2  0
 17 24  1  0
 17  9  1  0
 18 17  2  0
 20 22  1  0
 20 19  1  1
 21 20  1  0
 23 24  1  0
 23 22  1  1
 25 23  1  0
 26 25  2  0
 27 25  1  0
M  END
$$$$
