TFL.pdb
     RDKit          3D

 27 27  0  0  1  0  0  0  0  0999 V2000
   11.0974  -19.6210   22.7999 C   0  0  0  0  0  0  0  0  0  0  0  0
   11.3643  -19.0090   21.4419 C   0  0  1  0  0  0  0  0  0  0  0  0
   11.6893  -20.0008   20.5334 O   0  0  0  0  0  0  0  0  0  0  0  0
   10.0830  -18.3099   20.9723 C   0  0  2  0  0  0  0  0  0  0  0  0
   10.2722  -17.9646   19.5794 N   0  0  0  0  0  0  0  0  0  0  0  0
    9.9001  -17.0716   21.7478 C   0  0  0  0  0  0  0  0  0  0  0  0
   10.7199  -16.1386   21.6263 O   0  0  0  0  0  0  0  0  0  0  0  0
    8.8168  -16.8679   22.6518 N   0  0  0  0  0  0  0  0  0  0  0  0
    8.6519  -15.6926   23.4593 C   0  0  1  0  0  0  0  0  0  0  0  0
    7.2058  -15.5188   23.8700 C   0  0  0  0  0  0  0  0  0  0  0  0
    6.9806  -14.2783   24.6414 C   0  0  0  0  0  0  0  0  0  0  0  0
    7.4031  -13.0612   24.1450 C   0  0  0  0  0  0  0  0  0  0  0  0
    7.2032  -11.8830   24.8504 C   0  0  0  0  0  0  0  0  0  0  0  0
    6.5734  -11.8807   26.0774 C   0  0  0  0  0  0  0  0  0  0  0  0
    6.1520  -13.0975   26.5716 C   0  0  0  0  0  0  0  0  0  0  0  0
    6.3496  -14.2702   25.8723 C   0  0  0  0  0  0  0  0  0  0  0  0
    9.5770  -15.6523   24.6137 C   0  0  0  0  0  0  0  0  0  0  0  0
   10.5371  -14.8406   24.5777 O   0  0  0  0  0  0  0  0  0  0  0  0
    8.9893  -13.7414   29.0845 C   0  0  0  0  0  0  0  0  0  0  0  0
    9.6339  -14.3945   27.9119 C   0  0  1  0  0  0  0  0  0  0  0  0
   10.8523  -13.5999   27.4314 C   0  0  0  0  0  0  0  0  0  0  0  0
    9.9084  -15.8381   27.9789 C   0  0  0  0  0  0  0  0  0  0  0  0
   10.4356  -16.5800   26.8205 C   0  0  2  0  0  0  0  0  0  0  0  0
    9.4010  -16.4950   25.7320 N   0  0  0  0  0  0  0  0  0  0  0  0
   10.7733  -17.9851   26.9416 C   0  0  0  0  0  0  0  0  0  0  0  0
   11.7842  -18.3510   27.6384 O   0  0  0  0  0  0  0  0  0  0  0  0
   10.0847  -19.0244   26.3628 O   0  0  0  0  0  0  0  0  0  0  0  0
  2  4  1  0
  2  1  1  1
  2  3  1  0
  4  5  1  6
  6  7  2  0
  6  4  1  0
  8  6  1  0
  9  8  1  0
 10 11  1  0
  9 10  1  1
 11 12  2  0
 11 16  1  0
 12 13  1  0
 13 14  2  0
 15 14  1  0
 16 15  2  0
 17 24  1  0
 17  9  1  0
 18 17  2  0
 20 22  1  0
 20 19  1  1
 21 20  1  0
 23 24  1  0
 23 22  1  1
 25 23  1  0
 26 25  2  0
 27 25  1  0
M  END
$$$$
