CGL.pdb
     RDKit          3D

 19 18  0  0  1  0  0  0  0  0999 V2000
    8.9668  -15.2183   18.3022 N   0  0  0  0  0  0  0  0  0  0  0  0
    8.7868  -14.0314   19.0822 C   0  0  1  0  0  0  0  0  0  0  0  0
    7.7726  -13.1491   18.4090 C   0  0  0  0  0  0  0  0  0  0  0  0
    7.8976  -13.2102   16.6182 S   0  0  0  0  0  0  0  0  0  0  0  0
    8.2960  -14.3385   20.4588 C   0  0  0  0  0  0  0  0  0  0  0  0
    8.1408  -13.3905   21.2710 O   0  0  0  0  0  0  0  0  0  0  0  0
    8.0029  -15.6691   20.8676 N   0  0  0  0  0  0  0  0  0  0  0  0
    7.3136  -15.8507   22.1180 C   0  0  0  0  0  0  0  0  0  0  0  0
    8.1448  -15.5101   23.2880 C   0  0  0  0  0  0  0  0  0  0  0  0
    9.3994  -15.5751   23.3107 O   0  0  0  0  0  0  0  0  0  0  0  0
    5.6258  -12.1380   26.8092 C   0  0  0  0  0  0  0  0  0  0  0  0
    6.6465  -12.7472   25.8540 C   0  0  1  0  0  0  0  0  0  0  0  0
    7.7312  -11.6721   25.7061 C   0  0  0  0  0  0  0  0  0  0  0  0
    7.2514  -13.9407   26.5309 C   0  0  0  0  0  0  0  0  0  0  0  0
    8.2479  -14.6896   25.6752 C   0  0  2  0  0  0  0  0  0  0  0  0
    7.4966  -15.0788   24.4735 N   0  0  0  0  0  0  0  0  0  0  0  0
    8.7172  -15.8623   26.4174 C   0  0  0  0  0  0  0  0  0  0  0  0
    8.1249  -16.9727   26.2110 O   0  0  0  0  0  0  0  0  0  0  0  0
    9.7423  -15.8739   27.3193 O   0  0  0  0  0  0  0  0  0  0  0  0
  2  5  1  0
  2  1  1  6
  3  2  1  0
  4  3  1  0
  5  6  2  0
  7  8  1  0
  7  5  1  0
  9 10  2  0
  9  8  1  0
 12 11  1  1
 12 13  1  0
 12 14  1  0
 15 14  1  1
 15 16  1  0
 15 17  1  0
 16  9  1  0
 17 19  1  0
 18 17  2  0
M  END
$$$$
