CGL.pdb
     RDKit          3D

 19 18  0  0  1  0  0  0  0  0999 V2000
    6.0747  -20.0016   22.3770 N   0  0  0  0  0  0  0  0  0  0  0  0
    6.3458  -18.9509   23.3109 C   0  0  1  0  0  0  0  0  0  0  0  0
    6.7443  -19.5544   24.6289 C   0  0  0  0  0  0  0  0  0  0  0  0
    6.8971  -18.3204   25.9252 S   0  0  0  0  0  0  0  0  0  0  0  0
    7.4574  -18.0674   22.8482 C   0  0  0  0  0  0  0  0  0  0  0  0
    8.5381  -18.5968   22.4820 O   0  0  0  0  0  0  0  0  0  0  0  0
    7.3210  -16.6519   22.8132 N   0  0  0  0  0  0  0  0  0  0  0  0
    8.4677  -15.8766   22.4185 C   0  0  0  0  0  0  0  0  0  0  0  0
    9.0676  -15.1259   23.5376 C   0  0  0  0  0  0  0  0  0  0  0  0
   10.1592  -14.5072   23.4731 O   0  0  0  0  0  0  0  0  0  0  0  0
    5.6407  -12.5534   26.4972 C   0  0  0  0  0  0  0  0  0  0  0  0
    6.8584  -13.0177   25.7054 C   0  0  1  0  0  0  0  0  0  0  0  0
    7.5771  -11.7235   25.3022 C   0  0  0  0  0  0  0  0  0  0  0  0
    7.7477  -13.7822   26.6400 C   0  0  0  0  0  0  0  0  0  0  0  0
    8.9340  -14.4303   25.9627 C   0  0  2  0  0  0  0  0  0  0  0  0
    8.3756  -15.0924   24.7752 N   0  0  0  0  0  0  0  0  0  0  0  0
    9.5311  -15.3987   26.8857 C   0  0  0  0  0  0  0  0  0  0  0  0
    9.3754  -16.6383   26.6294 O   0  0  0  0  0  0  0  0  0  0  0  0
   10.2469  -15.0908   28.0068 O   0  0  0  0  0  0  0  0  0  0  0  0
  2  5  1  0
  2  1  1  6
  3  2  1  0
  4  3  1  0
  5  6  2  0
  7  8  1  0
  7  5  1  0
  9 10  2  0
  9  8  1  0
 12 11  1  1
 12 13  1  0
 12 14  1  0
 15 14  1  1
 15 16  1  0
 15 17  1  0
 16  9  1  0
 17 19  1  0
 18 17  2  0
M  END
$$$$
