CGL.pdb
     RDKit          3D

 19 18  0  0  1  0  0  0  0  0999 V2000
    7.5422  -20.1172   19.0467 N   0  0  0  0  0  0  0  0  0  0  0  0
    8.1831  -18.9173   19.4929 C   0  0  1  0  0  0  0  0  0  0  0  0
    8.5996  -18.1075   18.2966 C   0  0  0  0  0  0  0  0  0  0  0  0
    9.3189  -16.5281   18.7596 S   0  0  0  0  0  0  0  0  0  0  0  0
    7.2742  -18.0782   20.3296 C   0  0  0  0  0  0  0  0  0  0  0  0
    6.3324  -17.4619   19.7677 O   0  0  0  0  0  0  0  0  0  0  0  0
    7.4495  -17.9621   21.7364 N   0  0  0  0  0  0  0  0  0  0  0  0
    6.6755  -16.9659   22.4294 C   0  0  0  0  0  0  0  0  0  0  0  0
    7.5113  -15.9767   23.1358 C   0  0  0  0  0  0  0  0  0  0  0  0
    8.7052  -15.7175   22.8427 O   0  0  0  0  0  0  0  0  0  0  0  0
    7.5760  -11.3610   25.5430 C   0  0  0  0  0  0  0  0  0  0  0  0
    7.2039  -12.3942   26.6010 C   0  0  1  0  0  0  0  0  0  0  0  0
    6.0442  -11.7564   27.3770 C   0  0  0  0  0  0  0  0  0  0  0  0
    6.6873  -13.6101   25.8914 C   0  0  0  0  0  0  0  0  0  0  0  0
    7.7049  -14.2701   24.9885 C   0  0  2  0  0  0  0  0  0  0  0  0
    6.9406  -15.2634   24.2207 N   0  0  0  0  0  0  0  0  0  0  0  0
    8.7285  -14.9073   25.8206 C   0  0  0  0  0  0  0  0  0  0  0  0
    8.4231  -15.9970   26.4085 O   0  0  0  0  0  0  0  0  0  0  0  0
    9.9932  -14.4351   26.0253 O   0  0  0  0  0  0  0  0  0  0  0  0
  2  5  1  0
  2  1  1  6
  3  2  1  0
  4  3  1  0
  5  6  2  0
  7  8  1  0
  7  5  1  0
  9 10  2  0
  9  8  1  0
 12 11  1  6
 12 13  1  0
 12 14  1  0
 15 14  1  1
 15 16  1  0
 15 17  1  0
 16  9  1  0
 17 19  1  0
 18 17  2  0
M  END
$$$$
