CGL.pdb
     RDKit          3D

 19 18  0  0  1  0  0  0  0  0999 V2000
    5.2486  -17.6013   23.0876 N   0  0  0  0  0  0  0  0  0  0  0  0
    5.3522  -17.7966   21.6732 C   0  0  1  0  0  0  0  0  0  0  0  0
    3.9747  -17.7757   21.0712 C   0  0  0  0  0  0  0  0  0  0  0  0
    2.8742  -18.9654   21.8458 S   0  0  0  0  0  0  0  0  0  0  0  0
    6.1617  -16.7247   21.0206 C   0  0  0  0  0  0  0  0  0  0  0  0
    6.5655  -16.9043   19.8427 O   0  0  0  0  0  0  0  0  0  0  0  0
    6.4831  -15.5153   21.6969 N   0  0  0  0  0  0  0  0  0  0  0  0
    7.8241  -15.0090   21.5662 C   0  0  0  0  0  0  0  0  0  0  0  0
    8.5711  -15.0236   22.8381 C   0  0  0  0  0  0  0  0  0  0  0  0
    9.8167  -15.1613   22.9283 O   0  0  0  0  0  0  0  0  0  0  0  0
    5.9677  -12.3046   26.6193 C   0  0  0  0  0  0  0  0  0  0  0  0
    7.0985  -12.8062   25.7277 C   0  0  1  0  0  0  0  0  0  0  0  0
    8.2260  -11.7827   25.9162 C   0  0  0  0  0  0  0  0  0  0  0  0
    7.5599  -14.1251   26.2721 C   0  0  0  0  0  0  0  0  0  0  0  0
    8.5109  -14.8650   25.3588 C   0  0  2  0  0  0  0  0  0  0  0  0
    7.8463  -14.8729   24.0479 N   0  0  0  0  0  0  0  0  0  0  0  0
    8.6961  -16.2238   25.8743 C   0  0  0  0  0  0  0  0  0  0  0  0
    9.2492  -16.3563   27.0158 O   0  0  0  0  0  0  0  0  0  0  0  0
    8.3259  -17.3729   25.2365 O   0  0  0  0  0  0  0  0  0  0  0  0
  2  5  1  0
  2  1  1  1
  3  2  1  0
  4  3  1  0
  5  6  2  0
  7  8  1  0
  7  5  1  0
  9 10  2  0
  9  8  1  0
 12 11  1  1
 12 13  1  0
 12 14  1  0
 15 14  1  1
 15 16  1  0
 15 17  1  0
 16  9  1  0
 17 19  1  0
 18 17  2  0
M  END
$$$$
