CGL.pdb
     RDKit          3D

 19 18  0  0  1  0  0  0  0  0999 V2000
   -1.8851  -25.2363   23.9998 N   0  0  0  0  0  0  0  0  0  0  0  0
   -2.8197  -24.1944   24.3008 C   0  0  1  0  0  0  0  0  0  0  0  0
   -3.8617  -24.1400   23.2184 C   0  0  0  0  0  0  0  0  0  0  0  0
   -3.1823  -23.6030   21.6447 S   0  0  0  0  0  0  0  0  0  0  0  0
   -3.5129  -24.4270   25.6030 C   0  0  0  0  0  0  0  0  0  0  0  0
   -3.9486  -25.5790   25.8588 O   0  0  0  0  0  0  0  0  0  0  0  0
   -3.6894  -23.3822   26.5521 N   0  0  0  0  0  0  0  0  0  0  0  0
   -4.4753  -23.6656   27.7240 C   0  0  0  0  0  0  0  0  0  0  0  0
   -5.5954  -22.7234   27.9074 C   0  0  0  0  0  0  0  0  0  0  0  0
   -5.6180  -21.5511   27.4559 O   0  0  0  0  0  0  0  0  0  0  0  0
   -9.9323  -23.3832   25.8125 C   0  0  0  0  0  0  0  0  0  0  0  0
   -8.8274  -22.6278   26.5431 C   0  0  1  0  0  0  0  0  0  0  0  0
   -9.1247  -21.1468   26.2739 C   0  0  0  0  0  0  0  0  0  0  0  0
   -8.9912  -22.8846   28.0115 C   0  0  0  0  0  0  0  0  0  0  0  0
   -7.8932  -22.2885   28.8631 C   0  0  2  0  0  0  0  0  0  0  0  0
   -6.7290  -23.1576   28.6409 N   0  0  0  0  0  0  0  0  0  0  0  0
   -8.3201  -22.3116   30.2643 C   0  0  0  0  0  0  0  0  0  0  0  0
   -8.1385  -23.3882   30.9234 O   0  0  0  0  0  0  0  0  0  0  0  0
   -8.9005  -21.2737   30.9353 O   0  0  0  0  0  0  0  0  0  0  0  0
  2  5  1  0
  2  1  1  6
  3  2  1  0
  4  3  1  0
  5  6  2  0
  7  8  1  0
  7  5  1  0
  9 10  2  0
  9  8  1  0
 12 11  1  6
 12 13  1  0
 12 14  1  0
 15 14  1  6
 15 16  1  0
 15 17  1  0
 16  9  1  0
 17 19  1  0
 18 17  2  0
M  END
$$$$
