CGL.pdb
     RDKit          3D

 19 18  0  0  1  0  0  0  0  0999 V2000
    7.1596  -15.1253   18.0632 N   0  0  0  0  0  0  0  0  0  0  0  0
    8.0594  -14.5568   19.0207 C   0  0  1  0  0  0  0  0  0  0  0  0
    7.6070  -13.1624   19.3541 C   0  0  0  0  0  0  0  0  0  0  0  0
    8.6708  -12.3723   20.5668 S   0  0  0  0  0  0  0  0  0  0  0  0
    8.0992  -15.3485   20.2864 C   0  0  0  0  0  0  0  0  0  0  0  0
    7.0169  -15.7684   20.7712 O   0  0  0  0  0  0  0  0  0  0  0  0
    9.3244  -15.6354   20.9496 N   0  0  0  0  0  0  0  0  0  0  0  0
    9.2738  -16.4680   22.1226 C   0  0  0  0  0  0  0  0  0  0  0  0
    9.4766  -15.7128   23.3734 C   0  0  0  0  0  0  0  0  0  0  0  0
   10.5464  -15.7046   24.0322 O   0  0  0  0  0  0  0  0  0  0  0  0
    7.7983  -11.7009   26.6892 C   0  0  0  0  0  0  0  0  0  0  0  0
    6.9189  -12.9467   26.6804 C   0  0  1  0  0  0  0  0  0  0  0  0
    5.4832  -12.4102   26.7519 C   0  0  0  0  0  0  0  0  0  0  0  0
    7.1046  -13.6287   25.3578 C   0  0  0  0  0  0  0  0  0  0  0  0
    8.4483  -14.3040   25.2011 C   0  0  2  0  0  0  0  0  0  0  0  0
    8.3992  -14.9400   23.8770 N   0  0  0  0  0  0  0  0  0  0  0  0
    8.6027  -15.2967   26.2674 C   0  0  0  0  0  0  0  0  0  0  0  0
    9.3985  -15.0214   27.2252 O   0  0  0  0  0  0  0  0  0  0  0  0
    7.9646  -16.5022   26.3292 O   0  0  0  0  0  0  0  0  0  0  0  0
  2  5  1  0
  2  1  1  6
  3  2  1  0
  4  3  1  0
  5  6  2  0
  7  8  1  0
  7  5  1  0
  9 10  2  0
  9  8  1  0
 12 11  1  6
 12 13  1  0
 12 14  1  0
 15 14  1  1
 15 16  1  0
 15 17  1  0
 16  9  1  0
 17 19  1  0
 18 17  2  0
M  END
$$$$
