CGL.pdb
     RDKit          3D

 19 18  0  0  1  0  0  0  0  0999 V2000
    5.1003  -18.9346   23.4232 N   0  0  0  0  0  0  0  0  0  0  0  0
    5.2365  -18.3031   22.1456 C   0  0  1  0  0  0  0  0  0  0  0  0
    3.8894  -18.2412   21.4810 C   0  0  0  0  0  0  0  0  0  0  0  0
    3.3009  -19.8630   20.9811 S   0  0  0  0  0  0  0  0  0  0  0  0
    5.7606  -16.9098   22.2659 C   0  0  0  0  0  0  0  0  0  0  0  0
    5.1957  -16.1180   23.0637 O   0  0  0  0  0  0  0  0  0  0  0  0
    6.8757  -16.4631   21.5040 N   0  0  0  0  0  0  0  0  0  0  0  0
    7.3359  -15.1156   21.7143 C   0  0  0  0  0  0  0  0  0  0  0  0
    8.1958  -14.9805   22.9052 C   0  0  0  0  0  0  0  0  0  0  0  0
    9.4101  -14.6596   22.8713 O   0  0  0  0  0  0  0  0  0  0  0  0
    5.7866  -12.6085   26.8338 C   0  0  0  0  0  0  0  0  0  0  0  0
    6.8190  -13.1035   25.8266 C   0  0  1  0  0  0  0  0  0  0  0  0
    7.9003  -12.0151   25.8107 C   0  0  0  0  0  0  0  0  0  0  0  0
    7.4228  -14.3633   26.3718 C   0  0  0  0  0  0  0  0  0  0  0  0
    8.3869  -15.0398   25.4236 C   0  0  2  0  0  0  0  0  0  0  0  0
    7.6257  -15.2265   24.1803 N   0  0  0  0  0  0  0  0  0  0  0  0
    8.7925  -16.3232   26.0020 C   0  0  0  0  0  0  0  0  0  0  0  0
    9.5273  -16.3000   27.0441 O   0  0  0  0  0  0  0  0  0  0  0  0
    8.4509  -17.5547   25.5214 O   0  0  0  0  0  0  0  0  0  0  0  0
  2  5  1  0
  2  1  1  1
  3  2  1  0
  4  3  1  0
  5  6  2  0
  7  8  1  0
  7  5  1  0
  9 10  2  0
  9  8  1  0
 12 11  1  1
 12 13  1  0
 12 14  1  0
 15 14  1  1
 15 16  1  0
 15 17  1  0
 16  9  1  0
 17 19  1  0
 18 17  2  0
M  END
$$$$
