CGL.pdb
     RDKit          3D

 19 18  0  0  1  0  0  0  0  0999 V2000
   10.0812  -16.7401   18.8822 N   0  0  0  0  0  0  0  0  0  0  0  0
    9.5776  -17.8404   19.6473 C   0  0  1  0  0  0  0  0  0  0  0  0
   10.7304  -18.5659   20.2836 C   0  0  0  0  0  0  0  0  0  0  0  0
   11.7044  -17.4967   21.3487 S   0  0  0  0  0  0  0  0  0  0  0  0
    8.6557  -17.3891   20.7320 C   0  0  0  0  0  0  0  0  0  0  0  0
    8.0600  -18.2578   21.4197 O   0  0  0  0  0  0  0  0  0  0  0  0
    8.4389  -16.0094   21.0018 N   0  0  0  0  0  0  0  0  0  0  0  0
    7.5910  -15.6679   22.1136 C   0  0  0  0  0  0  0  0  0  0  0  0
    8.3495  -15.3237   23.3311 C   0  0  0  0  0  0  0  0  0  0  0  0
    9.6000  -15.3921   23.4316 O   0  0  0  0  0  0  0  0  0  0  0  0
    5.6838  -11.8571   26.6371 C   0  0  0  0  0  0  0  0  0  0  0  0
    6.6809  -12.5626   25.7241 C   0  0  1  0  0  0  0  0  0  0  0  0
    7.7829  -11.5244   25.4753 C   0  0  0  0  0  0  0  0  0  0  0  0
    7.2728  -13.7074   26.4908 C   0  0  0  0  0  0  0  0  0  0  0  0
    8.3074  -14.4924   25.7164 C   0  0  2  0  0  0  0  0  0  0  0  0
    7.6306  -14.8845   24.4721 N   0  0  0  0  0  0  0  0  0  0  0  0
    8.6976  -15.6628   26.5064 C   0  0  0  0  0  0  0  0  0  0  0  0
    8.1030  -16.7657   26.2686 O   0  0  0  0  0  0  0  0  0  0  0  0
    9.6505  -15.6797   27.4841 O   0  0  0  0  0  0  0  0  0  0  0  0
  2  5  1  0
  2  1  1  1
  3  2  1  0
  4  3  1  0
  5  6  2  0
  7  8  1  0
  7  5  1  0
  9 10  2  0
  9  8  1  0
 12 11  1  1
 12 13  1  0
 12 14  1  0
 15 14  1  1
 15 16  1  0
 15 17  1  0
 16  9  1  0
 17 19  1  0
 18 17  2  0
M  END
$$$$
