QQR.pdb
     RDKit          3D

 30 29  0  0  1  0  0  0  0  0999 V2000
    0.3838  -24.2233   18.9811 N   0  0  0  0  0  0  0  0  0  0  0  0
   -0.0865  -25.1981   19.9158 C   0  0  0  0  0  0  0  0  0  0  0  0
   -1.0199  -25.9461   19.5387 O   0  0  0  0  0  0  0  0  0  0  0  0
    0.4724  -25.3540   21.2785 C   0  0  0  0  0  0  0  0  0  0  0  0
    1.5757  -24.3673   21.4681 C   0  0  0  0  0  0  0  0  0  0  0  0
    2.8446  -24.9394   22.0146 C   0  0  2  0  0  0  0  0  0  0  0  0
    2.8771  -26.3660   21.9465 N   0  0  0  0  0  0  0  0  0  0  0  0
    3.1802  -24.4835   23.3746 C   0  0  0  0  0  0  0  0  0  0  0  0
    3.1514  -23.2739   23.7303 O   0  0  0  0  0  0  0  0  0  0  0  0
    1.7830  -26.9142   28.5886 N   0  0  0  0  0  0  0  0  0  0  0  0
    2.7778  -26.0543   29.1286 C   0  0  0  0  0  0  0  0  0  0  0  0
    2.9236  -25.9366   30.3786 O   0  0  0  0  0  0  0  0  0  0  0  0
    3.6310  -25.3063   28.1549 C   0  0  0  0  0  0  0  0  0  0  0  0
    3.1500  -25.6548   26.7778 C   0  0  0  0  0  0  0  0  0  0  0  0
    3.9729  -25.0597   25.6846 C   0  0  2  0  0  0  0  0  0  0  0  0
    3.5598  -25.4373   24.3551 N   0  0  0  0  0  0  0  0  0  0  0  0
    5.4375  -25.2671   25.8850 C   0  0  0  0  0  0  0  0  0  0  0  0
    5.9452  -26.4190   25.8656 O   0  0  0  0  0  0  0  0  0  0  0  0
   10.1770  -20.5505   21.6925 N   0  0  0  0  0  0  0  0  0  0  0  0
    8.8368  -20.5738   22.1415 C   0  0  0  0  0  0  0  0  0  0  0  0
    8.0083  -19.6450   21.8298 N   0  0  0  0  0  0  0  0  0  0  0  0
    8.4032  -21.6610   22.9647 N   0  0  0  0  0  0  0  0  0  0  0  0
    9.2196  -22.8383   23.1517 C   0  0  0  0  0  0  0  0  0  0  0  0
    8.4090  -23.8296   24.0286 C   0  0  0  0  0  0  0  0  0  0  0  0
    8.5812  -23.4765   25.4792 C   0  0  0  0  0  0  0  0  0  0  0  0
    7.7601  -24.3577   26.3345 C   0  0  2  0  0  0  0  0  0  0  0  0
    6.3314  -24.1868   26.1073 N   0  0  0  0  0  0  0  0  0  0  0  0
    8.0985  -24.2108   27.7593 C   0  0  0  0  0  0  0  0  0  0  0  0
    9.0582  -25.0828   28.2843 O   0  0  0  0  0  0  0  0  0  0  0  0
    7.6161  -23.3903   28.5367 O   0  0  0  0  0  0  0  0  0  0  0  0
  1  2  1  0
  2  3  2  0
  2  4  1  0
  4  5  1  0
  5  6  1  0
  6  7  1  1
  8  6  1  0
  8 16  1  0
  9  8  2  0
 11 12  2  0
 11 10  1  0
 13 11  1  0
 14 13  1  0
 15 16  1  0
 15 14  1  1
 17 27  1  0
 17 15  1  0
 18 17  2  0
 20 19  1  0
 20 22  1  0
 21 20  2  0
 23 22  1  0
 24 23  1  0
 25 24  1  0
 26 27  1  0
 26 25  1  6
 28 26  1  0
 29 28  1  0
 30 28  2  0
M  END
$$$$
