QQR.pdb
     RDKit          3D

 30 29  0  0  1  0  0  0  0  0999 V2000
    8.9356  -13.4720   14.5324 N   0  0  0  0  0  0  0  0  0  0  0  0
    7.5484  -13.7721   14.7076 C   0  0  0  0  0  0  0  0  0  0  0  0
    6.7318  -13.1207   14.0134 O   0  0  0  0  0  0  0  0  0  0  0  0
    7.0515  -14.7970   15.6543 C   0  0  0  0  0  0  0  0  0  0  0  0
    6.8528  -14.1681   16.9929 C   0  0  0  0  0  0  0  0  0  0  0  0
    8.1069  -13.9464   17.7765 C   0  0  2  0  0  0  0  0  0  0  0  0
    9.0480  -13.1241   17.0844 N   0  0  0  0  0  0  0  0  0  0  0  0
    8.7554  -15.1825   18.2474 C   0  0  0  0  0  0  0  0  0  0  0  0
    8.1283  -16.1380   18.7805 O   0  0  0  0  0  0  0  0  0  0  0  0
   13.7226  -17.6404   15.8026 N   0  0  0  0  0  0  0  0  0  0  0  0
   13.5452  -18.6036   16.8329 C   0  0  0  0  0  0  0  0  0  0  0  0
   14.2508  -19.6518   16.8686 O   0  0  0  0  0  0  0  0  0  0  0  0
   12.4953  -18.3169   17.8580 C   0  0  0  0  0  0  0  0  0  0  0  0
   11.8980  -16.9818   17.5263 C   0  0  0  0  0  0  0  0  0  0  0  0
   10.8568  -16.5310   18.4954 C   0  0  2  0  0  0  0  0  0  0  0  0
   10.1600  -15.3298   18.1050 N   0  0  0  0  0  0  0  0  0  0  0  0
   11.3700  -16.4391   19.8941 C   0  0  0  0  0  0  0  0  0  0  0  0
   11.9910  -15.4217   20.2991 O   0  0  0  0  0  0  0  0  0  0  0  0
   10.7501  -21.5209   27.3742 N   0  0  0  0  0  0  0  0  0  0  0  0
   11.5525  -20.3924   27.6584 C   0  0  0  0  0  0  0  0  0  0  0  0
   11.9851  -20.1577   28.8433 N   0  0  0  0  0  0  0  0  0  0  0  0
   11.8830  -19.4945   26.5943 N   0  0  0  0  0  0  0  0  0  0  0  0
   11.2865  -19.6242   25.2848 C   0  0  0  0  0  0  0  0  0  0  0  0
   11.8007  -18.4408   24.4223 C   0  0  0  0  0  0  0  0  0  0  0  0
   11.2806  -18.5764   23.0189 C   0  0  0  0  0  0  0  0  0  0  0  0
   11.7948  -17.4888   22.1615 C   0  0  2  0  0  0  0  0  0  0  0  0
   11.1884  -17.4848   20.8370 N   0  0  0  0  0  0  0  0  0  0  0  0
   13.2642  -17.5024   22.0793 C   0  0  0  0  0  0  0  0  0  0  0  0
   13.9636  -16.6603   22.9504 O   0  0  0  0  0  0  0  0  0  0  0  0
   13.9398  -18.1870   21.3145 O   0  0  0  0  0  0  0  0  0  0  0  0
  1  2  1  0
  2  3  2  0
  2  4  1  0
  4  5  1  0
  5  6  1  0
  6  7  1  6
  8  6  1  0
  8 16  1  0
  9  8  2  0
 11 12  2  0
 11 10  1  0
 13 11  1  0
 14 13  1  0
 15 16  1  0
 15 14  1  6
 17 27  1  0
 17 15  1  0
 18 17  2  0
 20 19  1  0
 20 22  1  0
 21 20  2  0
 23 22  1  0
 24 23  1  0
 25 24  1  0
 26 27  1  0
 26 25  1  1
 28 26  1  0
 29 28  1  0
 30 28  2  0
M  END
$$$$
