QQR.pdb
     RDKit          3D

 30 29  0  0  1  0  0  0  0  0999 V2000
    8.2381  -12.1727   16.6139 N   0  0  0  0  0  0  0  0  0  0  0  0
    7.7044  -13.4786   16.8480 C   0  0  0  0  0  0  0  0  0  0  0  0
    7.6805  -14.2681   15.8738 O   0  0  0  0  0  0  0  0  0  0  0  0
    7.1913  -13.9233   18.1643 C   0  0  0  0  0  0  0  0  0  0  0  0
    8.3413  -14.1159   19.0956 C   0  0  0  0  0  0  0  0  0  0  0  0
    8.1532  -15.1955   20.1130 C   0  0  2  0  0  0  0  0  0  0  0  0
    6.7866  -15.5890   20.2490 N   0  0  0  0  0  0  0  0  0  0  0  0
    8.7333  -14.8938   21.4330 C   0  0  0  0  0  0  0  0  0  0  0  0
    9.9716  -14.7687   21.6371 O   0  0  0  0  0  0  0  0  0  0  0  0
    5.8618  -12.0605   26.0358 N   0  0  0  0  0  0  0  0  0  0  0  0
    7.0573  -12.3687   26.7404 C   0  0  0  0  0  0  0  0  0  0  0  0
    7.2751  -11.8875   27.8888 O   0  0  0  0  0  0  0  0  0  0  0  0
    8.0305  -13.2788   26.0623 C   0  0  0  0  0  0  0  0  0  0  0  0
    7.4828  -13.5856   24.7002 C   0  0  0  0  0  0  0  0  0  0  0  0
    8.3705  -14.4581   23.8774 C   0  0  2  0  0  0  0  0  0  0  0  0
    7.8738  -14.7311   22.5509 N   0  0  0  0  0  0  0  0  0  0  0  0
    8.7663  -15.7114   24.5850 C   0  0  0  0  0  0  0  0  0  0  0  0
    7.9196  -16.5978   24.8718 O   0  0  0  0  0  0  0  0  0  0  0  0
   14.3920  -21.6371   22.9712 N   0  0  0  0  0  0  0  0  0  0  0  0
   14.6778  -21.5297   24.3515 C   0  0  0  0  0  0  0  0  0  0  0  0
   15.5239  -22.3060   24.9241 N   0  0  0  0  0  0  0  0  0  0  0  0
   14.0011  -20.5310   25.1211 N   0  0  0  0  0  0  0  0  0  0  0  0
   12.7637  -19.9388   24.6677 C   0  0  0  0  0  0  0  0  0  0  0  0
   12.3143  -18.9200   25.7489 C   0  0  0  0  0  0  0  0  0  0  0  0
   11.8858  -17.6400   25.0883 C   0  0  0  0  0  0  0  0  0  0  0  0
   10.5469  -17.2296   25.5588 C   0  0  2  0  0  0  0  0  0  0  0  0
   10.1076  -15.9711   24.9711 N   0  0  0  0  0  0  0  0  0  0  0  0
   10.4687  -17.1922   27.0280 C   0  0  0  0  0  0  0  0  0  0  0  0
   10.4286  -18.4186   27.7000 O   0  0  0  0  0  0  0  0  0  0  0  0
   10.4354  -16.1810   27.7255 O   0  0  0  0  0  0  0  0  0  0  0  0
  1  2  1  0
  2  3  2  0
  2  4  1  0
  4  5  1  0
  5  6  1  0
  6  7  1  1
  8  6  1  0
  8 16  1  0
  9  8  2  0
 11 12  2  0
 11 10  1  0
 13 11  1  0
 14 13  1  0
 15 16  1  0
 15 14  1  1
 17 27  1  0
 17 15  1  0
 18 17  2  0
 20 19  1  0
 20 22  1  0
 21 20  2  0
 23 22  1  0
 24 23  1  0
 25 24  1  0
 26 27  1  0
 26 25  1  1
 28 26  1  0
 29 28  1  0
 30 28  2  0
M  END
$$$$
