QQR.pdb
     RDKit          3D

 30 29  0  0  1  0  0  0  0  0999 V2000
   16.3199  -15.1761   18.1209 N   0  0  0  0  0  0  0  0  0  0  0  0
   15.5012  -14.0338   18.3855 C   0  0  0  0  0  0  0  0  0  0  0  0
   15.8561  -13.2832   19.3255 O   0  0  0  0  0  0  0  0  0  0  0  0
   14.2804  -13.7116   17.6113 C   0  0  0  0  0  0  0  0  0  0  0  0
   13.0819  -13.9683   18.4625 C   0  0  0  0  0  0  0  0  0  0  0  0
   12.9333  -15.3808   18.9304 C   0  0  2  0  0  0  0  0  0  0  0  0
   12.8351  -16.3093   17.8492 N   0  0  0  0  0  0  0  0  0  0  0  0
   11.8335  -15.5910   19.8878 C   0  0  0  0  0  0  0  0  0  0  0  0
   11.6170  -14.8375   20.8756 O   0  0  0  0  0  0  0  0  0  0  0  0
    6.3704  -19.5751   19.0006 N   0  0  0  0  0  0  0  0  0  0  0  0
    7.7667  -19.4674   18.7571 C   0  0  0  0  0  0  0  0  0  0  0  0
    8.4297  -20.4582   18.3369 O   0  0  0  0  0  0  0  0  0  0  0  0
    8.4021  -18.1398   19.0202 C   0  0  0  0  0  0  0  0  0  0  0  0
    9.1405  -18.2465   20.3212 C   0  0  0  0  0  0  0  0  0  0  0  0
    9.9299  -17.0283   20.6666 C   0  0  2  0  0  0  0  0  0  0  0  0
   10.9572  -16.6936   19.7108 N   0  0  0  0  0  0  0  0  0  0  0  0
   10.4648  -17.0618   22.0597 C   0  0  0  0  0  0  0  0  0  0  0  0
   11.5968  -17.5494   22.3158 O   0  0  0  0  0  0  0  0  0  0  0  0
    9.9158  -13.5774   29.2104 N   0  0  0  0  0  0  0  0  0  0  0  0
   10.4481  -14.7727   29.7453 C   0  0  0  0  0  0  0  0  0  0  0  0
   10.9217  -14.8223   30.9368 N   0  0  0  0  0  0  0  0  0  0  0  0
   10.4578  -15.9493   28.9312 N   0  0  0  0  0  0  0  0  0  0  0  0
    9.6439  -16.0508   27.7418 C   0  0  0  0  0  0  0  0  0  0  0  0
   10.3469  -15.2300   26.6279 C   0  0  0  0  0  0  0  0  0  0  0  0
    9.6215  -15.4222   25.3258 C   0  0  0  0  0  0  0  0  0  0  0  0
   10.2647  -16.4787   24.5181 C   0  0  2  0  0  0  0  0  0  0  0  0
    9.7331  -16.5508   23.1637 N   0  0  0  0  0  0  0  0  0  0  0  0
   10.2123  -17.7892   25.1859 C   0  0  0  0  0  0  0  0  0  0  0  0
    9.1350  -18.6256   24.8744 O   0  0  0  0  0  0  0  0  0  0  0  0
   11.0292  -18.2220   25.9955 O   0  0  0  0  0  0  0  0  0  0  0  0
  1  2  1  0
  2  3  2  0
  2  4  1  0
  4  5  1  0
  5  6  1  0
  6  7  1  6
  8  6  1  0
  8 16  1  0
  9  8  2  0
 11 12  2  0
 11 10  1  0
 13 11  1  0
 14 13  1  0
 15 16  1  0
 15 14  1  6
 17 27  1  0
 17 15  1  0
 18 17  2  0
 20 19  1  0
 20 22  1  0
 21 20  2  0
 23 22  1  0
 24 23  1  0
 25 24  1  0
 26 27  1  0
 26 25  1  1
 28 26  1  0
 29 28  1  0
 30 28  2  0
M  END
$$$$
