QQR.pdb
     RDKit          3D

 30 29  0  0  1  0  0  0  0  0999 V2000
    5.8068  -18.8792   20.2273 N   0  0  0  0  0  0  0  0  0  0  0  0
    7.1108  -19.1016   19.6841 C   0  0  0  0  0  0  0  0  0  0  0  0
    7.1922  -19.8602   18.6887 O   0  0  0  0  0  0  0  0  0  0  0  0
    8.3384  -18.4859   20.2385 C   0  0  0  0  0  0  0  0  0  0  0  0
    7.9784  -17.6799   21.4417 C   0  0  0  0  0  0  0  0  0  0  0  0
    8.1175  -16.2006   21.2728 C   0  0  2  0  0  0  0  0  0  0  0  0
    8.8899  -15.8500   20.1233 N   0  0  0  0  0  0  0  0  0  0  0  0
    8.6243  -15.4983   22.4644 C   0  0  0  0  0  0  0  0  0  0  0  0
    9.8506  -15.3830   22.7355 O   0  0  0  0  0  0  0  0  0  0  0  0
    5.8929  -10.7124   25.9748 N   0  0  0  0  0  0  0  0  0  0  0  0
    6.3816  -11.7379   26.8293 C   0  0  0  0  0  0  0  0  0  0  0  0
    5.8457  -11.9550   27.9534 O   0  0  0  0  0  0  0  0  0  0  0  0
    7.5463  -12.5355   26.3367 C   0  0  0  0  0  0  0  0  0  0  0  0
    7.1070  -13.2481   25.0923 C   0  0  0  0  0  0  0  0  0  0  0  0
    8.1259  -14.1930   24.5486 C   0  0  2  0  0  0  0  0  0  0  0  0
    7.7034  -14.9119   23.3716 N   0  0  0  0  0  0  0  0  0  0  0  0
    8.6734  -15.1136   25.5883 C   0  0  0  0  0  0  0  0  0  0  0  0
    7.9240  -15.8895   26.2372 O   0  0  0  0  0  0  0  0  0  0  0  0
   14.8787  -20.0070   27.9253 N   0  0  0  0  0  0  0  0  0  0  0  0
   14.2330  -19.5396   29.0927 C   0  0  0  0  0  0  0  0  0  0  0  0
   14.8404  -19.4909   30.2219 N   0  0  0  0  0  0  0  0  0  0  0  0
   12.8692  -19.1156   29.0047 N   0  0  0  0  0  0  0  0  0  0  0  0
   12.3659  -18.4299   27.8368 C   0  0  0  0  0  0  0  0  0  0  0  0
   12.6039  -16.9115   28.0527 C   0  0  0  0  0  0  0  0  0  0  0  0
   12.0696  -16.1450   26.8756 C   0  0  0  0  0  0  0  0  0  0  0  0
   10.6082  -15.9610   26.9890 C   0  0  2  0  0  0  0  0  0  0  0  0
   10.0574  -15.1645   25.9008 N   0  0  0  0  0  0  0  0  0  0  0  0
   10.2235  -15.4165   28.3011 C   0  0  0  0  0  0  0  0  0  0  0  0
   10.0752  -14.0291   28.4017 O   0  0  0  0  0  0  0  0  0  0  0  0
   10.0182  -16.0677   29.3228 O   0  0  0  0  0  0  0  0  0  0  0  0
  1  2  1  0
  2  3  2  0
  2  4  1  0
  4  5  1  0
  5  6  1  0
  6  7  1  6
  8  6  1  0
  8 16  1  0
  9  8  2  0
 11 12  2  0
 11 10  1  0
 13 11  1  0
 14 13  1  0
 15 16  1  0
 15 14  1  1
 17 27  1  0
 17 15  1  0
 18 17  2  0
 20 19  1  0
 20 22  1  0
 21 20  2  0
 23 22  1  0
 24 23  1  0
 25 24  1  0
 26 27  1  0
 26 25  1  1
 28 26  1  0
 29 28  1  0
 30 28  2  0
M  END
$$$$
