YLP.pdb
     RDKit          3D

 28 29  0  0  1  0  0  0  0  0999 V2000
   15.1166  -14.4132   19.3300 O   0  0  0  0  0  0  0  0  0  0  0  0
   13.8998  -14.9361   19.7623 C   0  0  0  0  0  0  0  0  0  0  0  0
   12.7804  -14.1425   19.9086 C   0  0  0  0  0  0  0  0  0  0  0  0
   11.5723  -14.6587   20.3372 C   0  0  0  0  0  0  0  0  0  0  0  0
   11.4719  -16.0006   20.6291 C   0  0  0  0  0  0  0  0  0  0  0  0
   10.1748  -16.5513   21.0884 C   0  0  0  0  0  0  0  0  0  0  0  0
    9.1373  -15.4259   21.0602 C   0  0  2  0  0  0  0  0  0  0  0  0
    9.4740  -14.4805   20.0391 N   0  0  0  0  0  0  0  0  0  0  0  0
    9.1915  -14.7704   22.3850 C   0  0  0  0  0  0  0  0  0  0  0  0
    9.8877  -13.7182   22.4762 O   0  0  0  0  0  0  0  0  0  0  0  0
   12.5827  -16.8090   20.4880 C   0  0  0  0  0  0  0  0  0  0  0  0
   13.7933  -16.2772   20.0557 C   0  0  0  0  0  0  0  0  0  0  0  0
    7.4440  -13.5709   27.6433 C   0  0  0  0  0  0  0  0  0  0  0  0
    7.0823  -13.0872   26.2815 C   0  0  2  0  0  0  0  0  0  0  0  0
    5.5540  -12.7948   26.2539 C   0  0  0  0  0  0  0  0  0  0  0  0
    7.3481  -13.9231   25.1181 C   0  0  0  0  0  0  0  0  0  0  0  0
    8.6583  -14.4930   24.7737 C   0  0  2  0  0  0  0  0  0  0  0  0
    8.5130  -15.2668   23.5098 N   0  0  0  0  0  0  0  0  0  0  0  0
    9.2654  -15.3733   25.7631 C   0  0  0  0  0  0  0  0  0  0  0  0
    9.4690  -16.6241   25.4270 O   0  0  0  0  0  0  0  0  0  0  0  0
    9.6850  -15.0955   27.0722 N   0  0  0  0  0  0  0  0  0  0  0  0
    9.4013  -14.1115   28.0773 C   0  0  0  0  0  0  0  0  0  0  0  0
   10.8408  -13.6335   28.3801 C   0  0  0  0  0  0  0  0  0  0  0  0
   11.5445  -14.9658   28.5555 C   0  0  0  0  0  0  0  0  0  0  0  0
   10.7019  -15.9455   27.7801 C   0  0  1  0  0  0  0  0  0  0  0  0
    9.9394  -16.8810   28.6216 C   0  0  0  0  0  0  0  0  0  0  0  0
    8.6871  -16.8571   28.7584 O   0  0  0  0  0  0  0  0  0  0  0  0
   10.5947  -17.8898   29.3449 O   0  0  0  0  0  0  0  0  0  0  0  0
  2  1  1  0
  3  2  2  0
  4  3  1  0
  5  4  2  0
  5 11  1  0
  6  5  1  0
  7  6  1  0
  7  8  1  6
  9 18  1  0
  9  7  1  0
 10  9  2  0
 11 12  2  0
 12  2  1  0
 14 13  1  1
 14 15  1  0
 17 16  1  1
 16 14  1  0
 17 18  1  0
 19 17  1  0
 20 19  2  0
 21 19  1  0
 21 22  1  0
 23 22  1  0
 24 25  1  0
 24 23  1  0
 25 21  1  0
 25 26  1  1
 27 26  2  0
 28 26  1  0
M  END
$$$$
