YLP.pdb
     RDKit          3D

 28 29  0  0  1  0  0  0  0  0999 V2000
    7.0253  -22.4582   18.9838 O   0  0  0  0  0  0  0  0  0  0  0  0
    7.5063  -21.4686   19.8382 C   0  0  0  0  0  0  0  0  0  0  0  0
    8.7885  -20.9715   19.7232 C   0  0  0  0  0  0  0  0  0  0  0  0
    9.2681  -19.9900   20.5694 C   0  0  0  0  0  0  0  0  0  0  0  0
    8.4522  -19.4871   21.5582 C   0  0  0  0  0  0  0  0  0  0  0  0
    8.9694  -18.4343   22.4641 C   0  0  0  0  0  0  0  0  0  0  0  0
    8.5610  -17.0710   21.8999 C   0  0  2  0  0  0  0  0  0  0  0  0
    9.3535  -16.7651   20.7475 N   0  0  0  0  0  0  0  0  0  0  0  0
    8.8248  -16.0789   22.9648 C   0  0  0  0  0  0  0  0  0  0  0  0
    9.9879  -15.5839   23.0122 O   0  0  0  0  0  0  0  0  0  0  0  0
    7.1661  -19.9735   21.6871 C   0  0  0  0  0  0  0  0  0  0  0  0
    6.6951  -20.9619   20.8288 C   0  0  0  0  0  0  0  0  0  0  0  0
    5.8131  -12.5062   26.9701 C   0  0  0  0  0  0  0  0  0  0  0  0
    7.1167  -12.8777   26.3522 C   0  0  2  0  0  0  0  0  0  0  0  0
    7.7929  -11.5827   25.8160 C   0  0  0  0  0  0  0  0  0  0  0  0
    7.1545  -13.8310   25.2510 C   0  0  0  0  0  0  0  0  0  0  0  0
    8.2840  -14.7212   24.9476 C   0  0  2  0  0  0  0  0  0  0  0  0
    7.8512  -15.6824   23.8959 N   0  0  0  0  0  0  0  0  0  0  0  0
    8.8195  -15.4950   26.0597 C   0  0  0  0  0  0  0  0  0  0  0  0
    8.4206  -16.7371   26.1897 O   0  0  0  0  0  0  0  0  0  0  0  0
    9.7284  -15.1171   27.0588 N   0  0  0  0  0  0  0  0  0  0  0  0
   10.2167  -13.8911   27.6223 C   0  0  0  0  0  0  0  0  0  0  0  0
   11.7372  -14.1241   27.4614 C   0  0  0  0  0  0  0  0  0  0  0  0
   11.8651  -15.5246   28.0298 C   0  0  0  0  0  0  0  0  0  0  0  0
   10.4949  -16.1290   27.8626 C   0  0  1  0  0  0  0  0  0  0  0  0
    9.7539  -16.2976   29.1225 C   0  0  0  0  0  0  0  0  0  0  0  0
    8.7925  -15.5690   29.4862 O   0  0  0  0  0  0  0  0  0  0  0  0
   10.0940  -17.3209   30.0211 O   0  0  0  0  0  0  0  0  0  0  0  0
  2  1  1  0
  3  2  2  0
  4  3  1  0
  5  4  2  0
  5 11  1  0
  6  5  1  0
  7  6  1  0
  7  8  1  6
  9 18  1  0
  9  7  1  0
 10  9  2  0
 11 12  2  0
 12  2  1  0
 14 13  1  6
 14 15  1  0
 17 16  1  1
 16 14  1  0
 17 18  1  0
 19 17  1  0
 20 19  2  0
 21 19  1  0
 21 22  1  0
 23 22  1  0
 24 25  1  0
 24 23  1  0
 25 21  1  0
 25 26  1  1
 27 26  2  0
 28 26  1  0
M  END
$$$$
