YLP.pdb
     RDKit          3D

 28 29  0  0  1  0  0  0  0  0999 V2000
   11.1524  -19.8692   30.1870 O   0  0  0  0  0  0  0  0  0  0  0  0
   10.4294  -19.7146   29.0062 C   0  0  0  0  0  0  0  0  0  0  0  0
   10.7186  -18.7104   28.1049 C   0  0  0  0  0  0  0  0  0  0  0  0
   10.0029  -18.5549   26.9331 C   0  0  0  0  0  0  0  0  0  0  0  0
    8.9707  -19.4204   26.6472 C   0  0  0  0  0  0  0  0  0  0  0  0
    8.2051  -19.2511   25.3895 C   0  0  0  0  0  0  0  0  0  0  0  0
    6.8503  -18.6256   25.7315 C   0  0  2  0  0  0  0  0  0  0  0  0
    5.7936  -19.4899   25.3001 N   0  0  0  0  0  0  0  0  0  0  0  0
    6.7802  -17.3451   24.9945 C   0  0  0  0  0  0  0  0  0  0  0  0
    6.0861  -17.3291   23.9371 O   0  0  0  0  0  0  0  0  0  0  0  0
    8.6681  -20.4310   27.5385 C   0  0  0  0  0  0  0  0  0  0  0  0
    9.3962  -20.5770   28.7150 C   0  0  0  0  0  0  0  0  0  0  0  0
    5.6736  -12.9252   26.6543 C   0  0  0  0  0  0  0  0  0  0  0  0
    7.0855  -13.3990   26.6185 C   0  0  2  0  0  0  0  0  0  0  0  0
    7.9965  -12.2715   27.1848 C   0  0  0  0  0  0  0  0  0  0  0  0
    7.6872  -13.7980   25.3529 C   0  0  0  0  0  0  0  0  0  0  0  0
    7.2884  -14.9733   24.5657 C   0  0  2  0  0  0  0  0  0  0  0  0
    7.4413  -16.1821   25.4218 N   0  0  0  0  0  0  0  0  0  0  0  0
    8.0251  -15.2103   23.3314 C   0  0  0  0  0  0  0  0  0  0  0  0
    8.6997  -16.3296   23.2262 O   0  0  0  0  0  0  0  0  0  0  0  0
    8.1400  -14.4063   22.1880 N   0  0  0  0  0  0  0  0  0  0  0  0
    7.8689  -13.0424   21.8341 C   0  0  0  0  0  0  0  0  0  0  0  0
    6.9781  -13.2735   20.5909 C   0  0  0  0  0  0  0  0  0  0  0  0
    7.8186  -14.2819   19.8309 C   0  0  0  0  0  0  0  0  0  0  0  0
    8.6670  -14.9422   20.8870 C   0  0  1  0  0  0  0  0  0  0  0  0
   10.0893  -14.5688   20.8362 C   0  0  0  0  0  0  0  0  0  0  0  0
   10.8791  -14.8972   19.9111 O   0  0  0  0  0  0  0  0  0  0  0  0
   10.6630  -13.7958   21.8577 O   0  0  0  0  0  0  0  0  0  0  0  0
  2  1  1  0
  3  2  2  0
  4  3  1  0
  5  4  2  0
  5 11  1  0
  6  5  1  0
  7  6  1  0
  7  8  1  6
  9 18  1  0
  9  7  1  0
 10  9  2  0
 11 12  2  0
 12  2  1  0
 14 13  1  6
 14 15  1  0
 17 16  1  1
 16 14  1  0
 17 18  1  0
 19 17  1  0
 20 19  2  0
 21 19  1  0
 21 22  1  0
 23 22  1  0
 24 25  1  0
 24 23  1  0
 25 21  1  0
 25 26  1  6
 27 26  2  0
 28 26  1  0
M  END
$$$$
