YLP.pdb
     RDKit          3D

 28 29  0  0  1  0  0  0  0  0999 V2000
   11.3471  -20.5060   30.3095 O   0  0  0  0  0  0  0  0  0  0  0  0
   10.6247  -20.1465   29.1738 C   0  0  0  0  0  0  0  0  0  0  0  0
    9.9472  -21.0821   28.4189 C   0  0  0  0  0  0  0  0  0  0  0  0
    9.2300  -20.7281   27.2920 C   0  0  0  0  0  0  0  0  0  0  0  0
    9.1836  -19.4081   26.9029 C   0  0  0  0  0  0  0  0  0  0  0  0
    8.4133  -19.0315   25.6940 C   0  0  0  0  0  0  0  0  0  0  0  0
    7.0739  -18.4406   26.1416 C   0  0  2  0  0  0  0  0  0  0  0  0
    6.0273  -19.3943   25.9300 N   0  0  0  0  0  0  0  0  0  0  0  0
    6.8388  -17.2467   25.3007 C   0  0  0  0  0  0  0  0  0  0  0  0
    6.0238  -17.3721   24.3415 O   0  0  0  0  0  0  0  0  0  0  0  0
    9.8560  -18.4589   27.6473 C   0  0  0  0  0  0  0  0  0  0  0  0
   10.5746  -18.8281   28.7798 C   0  0  0  0  0  0  0  0  0  0  0  0
    5.4415  -12.6826   26.2372 C   0  0  0  0  0  0  0  0  0  0  0  0
    6.8623  -13.1216   26.3267 C   0  0  2  0  0  0  0  0  0  0  0  0
    7.7206  -11.9135   26.8015 C   0  0  0  0  0  0  0  0  0  0  0  0
    7.5364  -13.6492   25.1477 C   0  0  0  0  0  0  0  0  0  0  0  0
    7.2424  -14.9454   24.5204 C   0  0  2  0  0  0  0  0  0  0  0  0
    7.4744  -16.0155   25.5296 N   0  0  0  0  0  0  0  0  0  0  0  0
    8.0150  -15.2836   23.3326 C   0  0  0  0  0  0  0  0  0  0  0  0
    8.7284  -16.3834   23.3587 O   0  0  0  0  0  0  0  0  0  0  0  0
    8.1300  -14.5996   22.1136 N   0  0  0  0  0  0  0  0  0  0  0  0
    7.8042  -13.2969   21.6079 C   0  0  0  0  0  0  0  0  0  0  0  0
    6.9702  -13.7047   20.3707 C   0  0  0  0  0  0  0  0  0  0  0  0
    7.8858  -14.7415   19.7483 C   0  0  0  0  0  0  0  0  0  0  0  0
    8.7283  -15.2409   20.8936 C   0  0  1  0  0  0  0  0  0  0  0  0
   10.1312  -14.8000   20.8453 C   0  0  0  0  0  0  0  0  0  0  0  0
   10.6275  -13.9206   21.5988 O   0  0  0  0  0  0  0  0  0  0  0  0
   11.0255  -15.3595   19.9194 O   0  0  0  0  0  0  0  0  0  0  0  0
  2  1  1  0
  3  2  2  0
  4  3  1  0
  5  4  2  0
  5 11  1  0
  6  5  1  0
  7  6  1  0
  7  8  1  6
  9 18  1  0
  9  7  1  0
 10  9  2  0
 11 12  2  0
 12  2  1  0
 14 13  1  6
 14 15  1  0
 17 16  1  1
 16 14  1  0
 17 18  1  0
 19 17  1  0
 20 19  2  0
 21 19  1  0
 21 22  1  0
 23 22  1  0
 24 25  1  0
 24 23  1  0
 25 21  1  0
 25 26  1  6
 27 26  2  0
 28 26  1  0
M  END
$$$$
