YLP.pdb
     RDKit          3D

 28 29  0  0  1  0  0  0  0  0999 V2000
   11.0826  -14.3508   30.3996 O   0  0  0  0  0  0  0  0  0  0  0  0
   10.5474  -15.3145   29.5477 C   0  0  0  0  0  0  0  0  0  0  0  0
   10.1625  -16.5569   30.0088 C   0  0  0  0  0  0  0  0  0  0  0  0
    9.6315  -17.5144   29.1658 C   0  0  0  0  0  0  0  0  0  0  0  0
    9.4780  -17.2314   27.8270 C   0  0  0  0  0  0  0  0  0  0  0  0
    8.9080  -18.2605   26.9255 C   0  0  0  0  0  0  0  0  0  0  0  0
    7.4020  -18.0134   26.8047 C   0  0  2  0  0  0  0  0  0  0  0  0
    6.7324  -19.2392   26.4901 N   0  0  0  0  0  0  0  0  0  0  0  0
    7.2214  -17.0479   25.6989 C   0  0  0  0  0  0  0  0  0  0  0  0
    6.7023  -17.4876   24.6325 O   0  0  0  0  0  0  0  0  0  0  0  0
    9.8581  -15.9928   27.3490 C   0  0  0  0  0  0  0  0  0  0  0  0
   10.3915  -15.0372   28.2080 C   0  0  0  0  0  0  0  0  0  0  0  0
    5.3854  -12.6791   26.4417 C   0  0  0  0  0  0  0  0  0  0  0  0
    6.8564  -12.8625   26.2941 C   0  0  2  0  0  0  0  0  0  0  0  0
    7.5441  -11.4775   26.4691 C   0  0  0  0  0  0  0  0  0  0  0  0
    7.3998  -13.4235   25.0641 C   0  0  0  0  0  0  0  0  0  0  0  0
    7.2524  -14.8234   24.6414 C   0  0  2  0  0  0  0  0  0  0  0  0
    7.5977  -15.6984   25.7958 N   0  0  0  0  0  0  0  0  0  0  0  0
    8.0613  -15.2492   23.5071 C   0  0  0  0  0  0  0  0  0  0  0  0
    8.9482  -16.1938   23.7076 O   0  0  0  0  0  0  0  0  0  0  0  0
    8.0512  -14.7974   22.1794 N   0  0  0  0  0  0  0  0  0  0  0  0
    7.5681  -13.6497   21.4664 C   0  0  0  0  0  0  0  0  0  0  0  0
    6.7299  -14.3598   20.3776 C   0  0  0  0  0  0  0  0  0  0  0  0
    7.7226  -15.4019   19.8988 C   0  0  0  0  0  0  0  0  0  0  0  0
    8.6613  -15.5951   21.0617 C   0  0  1  0  0  0  0  0  0  0  0  0
   10.0064  -15.0383   20.8480 C   0  0  0  0  0  0  0  0  0  0  0  0
   10.4164  -13.9559   21.3457 O   0  0  0  0  0  0  0  0  0  0  0  0
   10.9405  -15.7121   20.0457 O   0  0  0  0  0  0  0  0  0  0  0  0
  2  1  1  0
  3  2  2  0
  4  3  1  0
  5  4  2  0
  5 11  1  0
  6  5  1  0
  7  6  1  0
  7  8  1  6
  9 18  1  0
  9  7  1  0
 10  9  2  0
 11 12  2  0
 12  2  1  0
 14 13  1  6
 14 15  1  0
 17 16  1  1
 16 14  1  0
 17 18  1  0
 19 17  1  0
 20 19  2  0
 21 19  1  0
 21 22  1  0
 23 22  1  0
 24 25  1  0
 24 23  1  0
 25 21  1  0
 25 26  1  6
 27 26  2  0
 28 26  1  0
M  END
$$$$
