YLP.pdb
     RDKit          3D

 28 29  0  0  1  0  0  0  0  0999 V2000
   10.3212  -21.0676   29.8562 O   0  0  0  0  0  0  0  0  0  0  0  0
    9.6843  -20.7998   28.6465 C   0  0  0  0  0  0  0  0  0  0  0  0
    9.9777  -19.6727   27.9062 C   0  0  0  0  0  0  0  0  0  0  0  0
    9.3473  -19.4049   26.7061 C   0  0  0  0  0  0  0  0  0  0  0  0
    8.3987  -20.2803   26.2264 C   0  0  0  0  0  0  0  0  0  0  0  0
    7.7246  -19.9903   24.9388 C   0  0  0  0  0  0  0  0  0  0  0  0
    6.3516  -19.3839   25.2404 C   0  0  2  0  0  0  0  0  0  0  0  0
    5.3333  -20.1239   24.5584 N   0  0  0  0  0  0  0  0  0  0  0  0
    6.3843  -17.9951   24.7325 C   0  0  0  0  0  0  0  0  0  0  0  0
    6.0099  -17.8122   23.5382 O   0  0  0  0  0  0  0  0  0  0  0  0
    8.0933  -21.4131   26.9548 C   0  0  0  0  0  0  0  0  0  0  0  0
    8.7349  -21.6715   28.1618 C   0  0  0  0  0  0  0  0  0  0  0  0
    8.4513  -12.5881   25.9641 C   0  0  0  0  0  0  0  0  0  0  0  0
    7.0991  -13.1264   25.6460 C   0  0  2  0  0  0  0  0  0  0  0  0
    6.0477  -12.3365   26.4780 C   0  0  0  0  0  0  0  0  0  0  0  0
    6.8059  -14.5359   25.8702 C   0  0  0  0  0  0  0  0  0  0  0  0
    6.8631  -15.5812   24.8385 C   0  0  2  0  0  0  0  0  0  0  0  0
    6.8058  -16.9070   25.5140 N   0  0  0  0  0  0  0  0  0  0  0  0
    8.0344  -15.5772   23.9723 C   0  0  0  0  0  0  0  0  0  0  0  0
    8.9911  -16.4353   24.2319 O   0  0  0  0  0  0  0  0  0  0  0  0
    8.3237  -14.7731   22.8601 N   0  0  0  0  0  0  0  0  0  0  0  0
    7.9758  -13.4604   22.3968 C   0  0  0  0  0  0  0  0  0  0  0  0
    7.4559  -13.8176   20.9846 C   0  0  0  0  0  0  0  0  0  0  0  0
    8.5796  -14.7098   20.4926 C   0  0  0  0  0  0  0  0  0  0  0  0
    9.2190  -15.2430   21.7487 C   0  0  1  0  0  0  0  0  0  0  0  0
   10.5501  -14.6830   22.0306 C   0  0  0  0  0  0  0  0  0  0  0  0
   10.7975  -13.8671   22.9582 O   0  0  0  0  0  0  0  0  0  0  0  0
   11.6584  -15.0438   21.2484 O   0  0  0  0  0  0  0  0  0  0  0  0
  2  1  1  0
  3  2  2  0
  4  3  1  0
  5  4  2  0
  5 11  1  0
  6  5  1  0
  7  6  1  0
  7  8  1  6
  9 18  1  0
  9  7  1  0
 10  9  2  0
 11 12  2  0
 12  2  1  0
 14 13  1  1
 14 15  1  0
 17 16  1  1
 16 14  1  0
 17 18  1  0
 19 17  1  0
 20 19  2  0
 21 19  1  0
 21 22  1  0
 23 22  1  0
 24 25  1  0
 24 23  1  0
 25 21  1  0
 25 26  1  1
 27 26  2  0
 28 26  1  0
M  END
$$$$
