YLP.pdb
     RDKit          3D

 28 29  0  0  1  0  0  0  0  0999 V2000
   11.4699  -14.2461   29.4255 O   0  0  0  0  0  0  0  0  0  0  0  0
   10.7586  -15.3002   28.8565 C   0  0  0  0  0  0  0  0  0  0  0  0
   10.0450  -16.1940   29.6286 C   0  0  0  0  0  0  0  0  0  0  0  0
    9.3387  -17.2403   29.0667 C   0  0  0  0  0  0  0  0  0  0  0  0
    9.3404  -17.4047   27.6995 C   0  0  0  0  0  0  0  0  0  0  0  0
    8.5818  -18.5279   27.0998 C   0  0  0  0  0  0  0  0  0  0  0  0
    7.1123  -18.1125   26.9920 C   0  0  2  0  0  0  0  0  0  0  0  0
    6.3102  -19.2485   26.6513 N   0  0  0  0  0  0  0  0  0  0  0  0
    7.0377  -17.1064   25.9104 C   0  0  0  0  0  0  0  0  0  0  0  0
    6.7227  -17.5244   24.7589 O   0  0  0  0  0  0  0  0  0  0  0  0
   10.0495  -16.5191   26.9121 C   0  0  0  0  0  0  0  0  0  0  0  0
   10.7566  -15.4696   27.4900 C   0  0  0  0  0  0  0  0  0  0  0  0
    5.1171  -12.6283   26.3332 C   0  0  0  0  0  0  0  0  0  0  0  0
    6.5878  -12.8253   26.4653 C   0  0  2  0  0  0  0  0  0  0  0  0
    7.2519  -11.4349   26.6834 C   0  0  0  0  0  0  0  0  0  0  0  0
    7.3367  -13.4588   25.3879 C   0  0  0  0  0  0  0  0  0  0  0  0
    7.1525  -14.8460   24.9384 C   0  0  2  0  0  0  0  0  0  0  0  0
    7.2981  -15.7422   26.1186 N   0  0  0  0  0  0  0  0  0  0  0  0
    8.0645  -15.3223   23.9071 C   0  0  0  0  0  0  0  0  0  0  0  0
    8.9345  -16.2457   24.2378 O   0  0  0  0  0  0  0  0  0  0  0  0
    8.1738  -14.9409   22.5618 N   0  0  0  0  0  0  0  0  0  0  0  0
    7.7445  -13.8414   21.7458 C   0  0  0  0  0  0  0  0  0  0  0  0
    7.0228  -14.6232   20.6232 C   0  0  0  0  0  0  0  0  0  0  0  0
    8.0706  -15.6701   20.2964 C   0  0  0  0  0  0  0  0  0  0  0  0
    8.8977  -15.7844   21.5509 C   0  0  1  0  0  0  0  0  0  0  0  0
   10.2492  -15.2145   21.4344 C   0  0  0  0  0  0  0  0  0  0  0  0
   11.1541  -15.6744   20.6881 O   0  0  0  0  0  0  0  0  0  0  0  0
   10.6149  -14.0825   22.1794 O   0  0  0  0  0  0  0  0  0  0  0  0
  2  1  1  0
  3  2  2  0
  4  3  1  0
  5  4  2  0
  5 11  1  0
  6  5  1  0
  7  6  1  0
  7  8  1  6
  9 18  1  0
  9  7  1  0
 10  9  2  0
 11 12  2  0
 12  2  1  0
 14 13  1  6
 14 15  1  0
 17 16  1  1
 16 14  1  0
 17 18  1  0
 19 17  1  0
 20 19  2  0
 21 19  1  0
 21 22  1  0
 23 22  1  0
 24 25  1  0
 24 23  1  0
 25 21  1  0
 25 26  1  6
 27 26  2  0
 28 26  1  0
M  END
$$$$
