YLP.pdb
     RDKit          3D

 28 29  0  0  1  0  0  0  0  0999 V2000
   10.7171  -19.9815   30.3922 O   0  0  0  0  0  0  0  0  0  0  0  0
   10.0719  -19.7810   29.1739 C   0  0  0  0  0  0  0  0  0  0  0  0
   10.6883  -20.0625   27.9718 C   0  0  0  0  0  0  0  0  0  0  0  0
   10.0506  -19.8644   26.7620 C   0  0  0  0  0  0  0  0  0  0  0  0
    8.7644  -19.3730   26.7443 C   0  0  0  0  0  0  0  0  0  0  0  0
    8.0829  -19.1618   25.4451 C   0  0  0  0  0  0  0  0  0  0  0  0
    6.6996  -18.5658   25.7187 C   0  0  2  0  0  0  0  0  0  0  0  0
    5.6861  -19.4286   25.1913 N   0  0  0  0  0  0  0  0  0  0  0  0
    6.6578  -17.2621   25.0213 C   0  0  0  0  0  0  0  0  0  0  0  0
    6.1080  -17.2383   23.8824 O   0  0  0  0  0  0  0  0  0  0  0  0
    8.1328  -19.0861   27.9384 C   0  0  0  0  0  0  0  0  0  0  0  0
    8.7857  -19.2898   29.1499 C   0  0  0  0  0  0  0  0  0  0  0  0
    5.5962  -12.6286   26.4008 C   0  0  0  0  0  0  0  0  0  0  0  0
    6.9612  -13.1905   26.6016 C   0  0  2  0  0  0  0  0  0  0  0  0
    7.8702  -12.0736   27.1916 C   0  0  0  0  0  0  0  0  0  0  0  0
    7.6942  -13.7432   25.4702 C   0  0  0  0  0  0  0  0  0  0  0  0
    7.2627  -14.8999   24.6727 C   0  0  2  0  0  0  0  0  0  0  0  0
    7.1940  -16.0860   25.5704 N   0  0  0  0  0  0  0  0  0  0  0  0
    8.1005  -15.2549   23.5351 C   0  0  0  0  0  0  0  0  0  0  0  0
    8.7741  -16.3780   23.5974 O   0  0  0  0  0  0  0  0  0  0  0  0
    8.3181  -14.5661   22.3329 N   0  0  0  0  0  0  0  0  0  0  0  0
    8.0797  -13.2461   21.8232 C   0  0  0  0  0  0  0  0  0  0  0  0
    7.3051  -13.6064   20.5339 C   0  0  0  0  0  0  0  0  0  0  0  0
    8.2111  -14.6768   19.9557 C   0  0  0  0  0  0  0  0  0  0  0  0
    8.9607  -15.2224   21.1438 C   0  0  1  0  0  0  0  0  0  0  0  0
   10.3816  -14.8427   21.1846 C   0  0  0  0  0  0  0  0  0  0  0  0
   11.2347  -15.1833   20.3222 O   0  0  0  0  0  0  0  0  0  0  0  0
   10.8805  -14.0490   22.2293 O   0  0  0  0  0  0  0  0  0  0  0  0
  2  1  1  0
  3  2  2  0
  4  3  1  0
  5  4  2  0
  5 11  1  0
  6  5  1  0
  7  6  1  0
  7  8  1  6
  9 18  1  0
  9  7  1  0
 10  9  2  0
 11 12  2  0
 12  2  1  0
 14 13  1  6
 14 15  1  0
 17 16  1  1
 16 14  1  0
 17 18  1  0
 19 17  1  0
 20 19  2  0
 21 19  1  0
 21 22  1  0
 23 22  1  0
 24 25  1  0
 24 23  1  0
 25 21  1  0
 25 26  1  6
 27 26  2  0
 28 26  1  0
M  END
$$$$
