YLP.pdb
     RDKit          3D

 28 29  0  0  1  0  0  0  0  0999 V2000
   11.4460  -16.2123   31.8903 O   0  0  0  0  0  0  0  0  0  0  0  0
   10.9488  -16.6797   30.6757 C   0  0  0  0  0  0  0  0  0  0  0  0
   10.7085  -18.0210   30.4583 C   0  0  0  0  0  0  0  0  0  0  0  0
   10.2153  -18.4871   29.2545 C   0  0  0  0  0  0  0  0  0  0  0  0
    9.9529  -17.5968   28.2372 C   0  0  0  0  0  0  0  0  0  0  0  0
    9.4238  -18.0998   26.9474 C   0  0  0  0  0  0  0  0  0  0  0  0
    7.8992  -17.9625   26.9664 C   0  0  2  0  0  0  0  0  0  0  0  0
    7.2936  -19.2384   26.7318 N   0  0  0  0  0  0  0  0  0  0  0  0
    7.5467  -17.0336   25.8706 C   0  0  0  0  0  0  0  0  0  0  0  0
    6.8153  -17.4899   24.9449 O   0  0  0  0  0  0  0  0  0  0  0  0
   10.1876  -16.2509   28.4382 C   0  0  0  0  0  0  0  0  0  0  0  0
   10.6844  -15.7942   29.6548 C   0  0  0  0  0  0  0  0  0  0  0  0
    5.7627  -12.6384   26.4956 C   0  0  0  0  0  0  0  0  0  0  0  0
    7.2224  -12.8306   26.2688 C   0  0  2  0  0  0  0  0  0  0  0  0
    7.9162  -11.4389   26.3284 C   0  0  0  0  0  0  0  0  0  0  0  0
    7.6915  -13.4562   25.0393 C   0  0  0  0  0  0  0  0  0  0  0  0
    7.5031  -14.8716   24.6911 C   0  0  2  0  0  0  0  0  0  0  0  0
    7.9868  -15.7007   25.8296 N   0  0  0  0  0  0  0  0  0  0  0  0
    8.1752  -15.3404   23.4866 C   0  0  0  0  0  0  0  0  0  0  0  0
    9.0265  -16.3304   23.6062 O   0  0  0  0  0  0  0  0  0  0  0  0
    8.0607  -14.8896   22.1634 N   0  0  0  0  0  0  0  0  0  0  0  0
    7.4827  -13.7647   21.4856 C   0  0  0  0  0  0  0  0  0  0  0  0
    6.6094  -14.5116   20.4504 C   0  0  0  0  0  0  0  0  0  0  0  0
    7.6150  -15.5085   19.9067 C   0  0  0  0  0  0  0  0  0  0  0  0
    8.6334  -15.6595   21.0072 C   0  0  1  0  0  0  0  0  0  0  0  0
    9.9361  -15.0434   20.7100 C   0  0  0  0  0  0  0  0  0  0  0  0
   10.3582  -13.9804   21.2385 O   0  0  0  0  0  0  0  0  0  0  0  0
   10.8116  -15.6324   19.7844 O   0  0  0  0  0  0  0  0  0  0  0  0
  2  1  1  0
  3  2  2  0
  4  3  1  0
  5  4  2  0
  5 11  1  0
  6  5  1  0
  7  6  1  0
  7  8  1  6
  9 18  1  0
  9  7  1  0
 10  9  2  0
 11 12  2  0
 12  2  1  0
 14 13  1  6
 14 15  1  0
 17 16  1  1
 16 14  1  0
 17 18  1  0
 19 17  1  0
 20 19  2  0
 21 19  1  0
 21 22  1  0
 23 22  1  0
 24 25  1  0
 24 23  1  0
 25 21  1  0
 25 26  1  6
 27 26  2  0
 28 26  1  0
M  END
$$$$
