YLP.pdb
     RDKit          3D

 28 29  0  0  1  0  0  0  0  0999 V2000
    6.2737  -14.4037   16.4205 O   0  0  0  0  0  0  0  0  0  0  0  0
    7.2249  -14.5246   17.4313 C   0  0  0  0  0  0  0  0  0  0  0  0
    8.0388  -15.6344   17.5323 C   0  0  0  0  0  0  0  0  0  0  0  0
    8.9829  -15.7566   18.5339 C   0  0  0  0  0  0  0  0  0  0  0  0
    9.1237  -14.7490   19.4618 C   0  0  0  0  0  0  0  0  0  0  0  0
   10.1374  -14.8830   20.5347 C   0  0  0  0  0  0  0  0  0  0  0  0
    9.6364  -15.9203   21.5431 C   0  0  2  0  0  0  0  0  0  0  0  0
    8.3164  -16.3454   21.1873 N   0  0  0  0  0  0  0  0  0  0  0  0
    9.6060  -15.2467   22.8596 C   0  0  0  0  0  0  0  0  0  0  0  0
   10.6592  -14.6467   23.2213 O   0  0  0  0  0  0  0  0  0  0  0  0
    8.3171  -13.6314   19.3751 C   0  0  0  0  0  0  0  0  0  0  0  0
    7.3702  -13.5202   18.3620 C   0  0  0  0  0  0  0  0  0  0  0  0
    5.6730  -12.9233   27.0101 C   0  0  0  0  0  0  0  0  0  0  0  0
    7.0589  -13.1178   26.4996 C   0  0  2  0  0  0  0  0  0  0  0  0
    7.6238  -11.7321   26.0722 C   0  0  0  0  0  0  0  0  0  0  0  0
    7.3010  -14.0102   25.3736 C   0  0  0  0  0  0  0  0  0  0  0  0
    8.6114  -14.5662   25.0079 C   0  0  2  0  0  0  0  0  0  0  0  0
    8.4763  -15.2535   23.6938 N   0  0  0  0  0  0  0  0  0  0  0  0
    9.2000  -15.5148   25.9439 C   0  0  0  0  0  0  0  0  0  0  0  0
    9.2773  -16.7707   25.5757 O   0  0  0  0  0  0  0  0  0  0  0  0
    9.7187  -15.3007   27.2293 N   0  0  0  0  0  0  0  0  0  0  0  0
    9.5725  -14.3228   28.2691 C   0  0  0  0  0  0  0  0  0  0  0  0
   11.0599  -13.9610   28.4902 C   0  0  0  0  0  0  0  0  0  0  0  0
   11.6698  -15.3458   28.5952 C   0  0  0  0  0  0  0  0  0  0  0  0
   10.7095  -16.2410   27.8552 C   0  0  1  0  0  0  0  0  0  0  0  0
    9.9310  -17.1371   28.7245 C   0  0  0  0  0  0  0  0  0  0  0  0
    8.7024  -17.0018   28.9689 O   0  0  0  0  0  0  0  0  0  0  0  0
   10.5420  -18.2339   29.3521 O   0  0  0  0  0  0  0  0  0  0  0  0
  2  1  1  0
  3  2  2  0
  4  3  1  0
  5  4  2  0
  5 11  1  0
  6  5  1  0
  7  6  1  0
  7  8  1  6
  9 18  1  0
  9  7  1  0
 10  9  2  0
 11 12  2  0
 12  2  1  0
 14 13  1  6
 14 15  1  0
 17 16  1  1
 16 14  1  0
 17 18  1  0
 19 17  1  0
 20 19  2  0
 21 19  1  0
 21 22  1  0
 23 22  1  0
 24 25  1  0
 24 23  1  0
 25 21  1  0
 25 26  1  1
 27 26  2  0
 28 26  1  0
M  END
$$$$
