WMI.pdb
     RDKit          3D

 31 32  0  0  1  0  0  0  0  0999 V2000
    6.2508  -19.1390   25.0803 N   0  0  0  0  0  0  0  0  0  0  0  0
    6.4940  -17.7248   24.9240 C   0  0  1  0  0  0  0  0  0  0  0  0
    6.9050  -17.1000   26.2393 C   0  0  0  0  0  0  0  0  0  0  0  0
    6.3716  -15.7206   26.3107 C   0  0  0  0  0  0  0  0  0  0  0  0
    5.0468  -15.3870   26.1800 C   0  0  0  0  0  0  0  0  0  0  0  0
    4.9129  -14.0331   26.2985 N   0  0  0  0  0  0  0  0  0  0  0  0
    6.1349  -13.5068   26.5023 C   0  0  0  0  0  0  0  0  0  0  0  0
    6.5151  -12.1981   26.6795 C   0  0  0  0  0  0  0  0  0  0  0  0
    7.8531  -11.9278   26.8717 C   0  0  0  0  0  0  0  0  0  0  0  0
    8.8112  -12.9355   26.8899 C   0  0  0  0  0  0  0  0  0  0  0  0
    8.3958  -14.2424   26.7085 C   0  0  0  0  0  0  0  0  0  0  0  0
    7.0635  -14.5493   26.5133 C   0  0  0  0  0  0  0  0  0  0  0  0
    7.5027  -17.5129   23.8689 C   0  0  0  0  0  0  0  0  0  0  0  0
    8.3719  -18.3641   23.5597 O   0  0  0  0  0  0  0  0  0  0  0  0
    8.6955  -12.0846   19.6458 C   0  0  0  0  0  0  0  0  0  0  0  0
    8.8522  -13.6826   18.8038 S   0  0  0  0  0  0  0  0  0  0  0  0
    9.1464  -15.0207   19.9979 C   0  0  0  0  0  0  0  0  0  0  0  0
    8.1913  -14.9491   21.1656 C   0  0  0  0  0  0  0  0  0  0  0  0
    8.5102  -16.0279   22.1341 C   0  0  2  0  0  0  0  0  0  0  0  0
    7.5460  -16.3089   23.1305 N   0  0  0  0  0  0  0  0  0  0  0  0
    9.8249  -15.8140   22.8059 C   0  0  0  0  0  0  0  0  0  0  0  0
   10.8319  -15.7723   22.0314 O   0  0  0  0  0  0  0  0  0  0  0  0
   10.1967  -14.3576   28.3392 C   0  0  0  0  0  0  0  0  0  0  0  0
   10.3645  -15.2556   27.1302 C   0  0  0  0  0  0  0  0  0  0  0  0
   11.1082  -14.5461   26.0225 C   0  0  2  0  0  0  0  0  0  0  0  0
   10.4671  -13.2188   25.8066 C   0  0  0  0  0  0  0  0  0  0  0  0
   11.2869  -15.3817   24.8067 C   0  0  2  0  0  0  0  0  0  0  0  0
    9.9805  -15.6649   24.1933 N   0  0  0  0  0  0  0  0  0  0  0  0
   11.9935  -16.6491   24.9877 C   0  0  0  0  0  0  0  0  0  0  0  0
   11.5132  -17.7837   24.7441 O   0  0  0  0  0  0  0  0  0  0  0  0
   13.2974  -16.6234   25.4635 O   0  0  0  0  0  0  0  0  0  0  0  0
  2  1  1  1
  2  3  1  0
  4  3  1  0
  5  4  2  0
  6  5  1  0
  7  6  1  0
  7 12  2  0
  8  7  1  0
  9  8  2  0
  9 10  1  0
 10 11  2  0
 11 12  1  0
 12  4  1  0
 13 20  1  0
 13  2  1  0
 14 13  2  0
 16 15  1  0
 17 16  1  0
 18 17  1  0
 19 18  1  1
 19 20  1  0
 21 19  1  0
 22 21  2  0
 23 24  1  0
 24 25  1  0
 25 26  1  6
 27 25  1  0
 27 28  1  1
 28 21  1  0
 29 31  1  0
 29 27  1  0
 30 29  2  0
M  END
$$$$
