WMI.pdb
     RDKit          3D

 31 32  0  0  1  0  0  0  0  0999 V2000
    7.9649  -19.9951   26.8967 N   0  0  0  0  0  0  0  0  0  0  0  0
    8.2169  -18.5803   26.7618 C   0  0  1  0  0  0  0  0  0  0  0  0
    9.6789  -18.3184   26.4732 C   0  0  0  0  0  0  0  0  0  0  0  0
   10.2579  -17.5206   27.5780 C   0  0  0  0  0  0  0  0  0  0  0  0
   10.7716  -18.0471   28.7366 C   0  0  0  0  0  0  0  0  0  0  0  0
   11.2184  -17.0297   29.5306 N   0  0  0  0  0  0  0  0  0  0  0  0
   10.9940  -15.8676   28.8894 C   0  0  0  0  0  0  0  0  0  0  0  0
   11.2662  -14.5776   29.2770 C   0  0  0  0  0  0  0  0  0  0  0  0
   10.9287  -13.5534   28.4182 C   0  0  0  0  0  0  0  0  0  0  0  0
   10.3281  -13.7942   27.1874 C   0  0  0  0  0  0  0  0  0  0  0  0
   10.0674  -15.1039   26.8269 C   0  0  0  0  0  0  0  0  0  0  0  0
   10.3922  -16.1544   27.6627 C   0  0  0  0  0  0  0  0  0  0  0  0
    7.3359  -18.0210   25.7194 C   0  0  0  0  0  0  0  0  0  0  0  0
    6.9168  -18.6819   24.7379 O   0  0  0  0  0  0  0  0  0  0  0  0
    7.2257  -11.3970   27.3659 C   0  0  0  0  0  0  0  0  0  0  0  0
    6.0077  -12.2921   26.3647 S   0  0  0  0  0  0  0  0  0  0  0  0
    6.5854  -13.9734   25.9874 C   0  0  0  0  0  0  0  0  0  0  0  0
    5.6771  -14.6694   25.0018 C   0  0  0  0  0  0  0  0  0  0  0  0
    6.1931  -16.0346   24.7304 C   0  0  2  0  0  0  0  0  0  0  0  0
    6.9053  -16.6761   25.7709 N   0  0  0  0  0  0  0  0  0  0  0  0
    7.0263  -16.0886   23.4942 C   0  0  0  0  0  0  0  0  0  0  0  0
    6.6265  -16.9020   22.6030 O   0  0  0  0  0  0  0  0  0  0  0  0
    7.4082  -12.2152   20.4047 C   0  0  0  0  0  0  0  0  0  0  0  0
    7.4539  -13.6337   20.9356 C   0  0  0  0  0  0  0  0  0  0  0  0
    8.8535  -14.0123   21.3614 C   0  0  2  0  0  0  0  0  0  0  0  0
    9.7626  -13.8208   20.1968 C   0  0  0  0  0  0  0  0  0  0  0  0
    8.9261  -15.3398   22.0252 C   0  0  2  0  0  0  0  0  0  0  0  0
    8.1782  -15.3118   23.2913 N   0  0  0  0  0  0  0  0  0  0  0  0
   10.2664  -15.8587   22.2951 C   0  0  0  0  0  0  0  0  0  0  0  0
   10.7348  -16.0865   23.4379 O   0  0  0  0  0  0  0  0  0  0  0  0
   11.1050  -16.1292   21.2225 O   0  0  0  0  0  0  0  0  0  0  0  0
  2  1  1  6
  2  3  1  0
  4  3  1  0
  5  4  2  0
  6  5  1  0
  7  6  1  0
  7 12  2  0
  8  7  1  0
  9  8  2  0
  9 10  1  0
 10 11  2  0
 11 12  1  0
 12  4  1  0
 13 20  1  0
 13  2  1  0
 14 13  2  0
 16 15  1  0
 17 16  1  0
 18 17  1  0
 19 18  1  1
 19 20  1  0
 21 19  1  0
 22 21  2  0
 23 24  1  0
 24 25  1  0
 25 26  1  6
 27 25  1  0
 27 28  1  1
 28 21  1  0
 29 31  1  0
 29 27  1  0
 30 29  2  0
M  END
$$$$
