WMI.pdb
     RDKit          3D

 31 32  0  0  1  0  0  0  0  0999 V2000
    6.3319  -18.7375   25.2381 N   0  0  0  0  0  0  0  0  0  0  0  0
    6.6274  -17.3420   25.0172 C   0  0  1  0  0  0  0  0  0  0  0  0
    7.1549  -16.6964   26.2798 C   0  0  0  0  0  0  0  0  0  0  0  0
    6.5022  -15.3800   26.4627 C   0  0  0  0  0  0  0  0  0  0  0  0
    5.1468  -15.1854   26.5543 C   0  0  0  0  0  0  0  0  0  0  0  0
    4.8963  -13.8530   26.7185 N   0  0  0  0  0  0  0  0  0  0  0  0
    6.0750  -13.2031   26.7320 C   0  0  0  0  0  0  0  0  0  0  0  0
    6.3434  -11.8624   26.8702 C   0  0  0  0  0  0  0  0  0  0  0  0
    7.6602  -11.4550   26.8487 C   0  0  0  0  0  0  0  0  0  0  0  0
    8.7062  -12.3578   26.6926 C   0  0  0  0  0  0  0  0  0  0  0  0
    8.4025  -13.7004   26.5560 C   0  0  0  0  0  0  0  0  0  0  0  0
    7.0945  -14.1435   26.5730 C   0  0  0  0  0  0  0  0  0  0  0  0
    7.5704  -17.2113   23.8906 C   0  0  0  0  0  0  0  0  0  0  0  0
    8.5308  -17.9958   23.6957 O   0  0  0  0  0  0  0  0  0  0  0  0
    7.8771  -12.1578   19.3577 C   0  0  0  0  0  0  0  0  0  0  0  0
    8.7815  -13.5472   18.6237 S   0  0  0  0  0  0  0  0  0  0  0  0
    9.1038  -14.8393   19.8606 C   0  0  0  0  0  0  0  0  0  0  0  0
    8.0736  -14.8267   20.9648 C   0  0  0  0  0  0  0  0  0  0  0  0
    8.4262  -15.8470   21.9837 C   0  0  2  0  0  0  0  0  0  0  0  0
    7.4400  -16.1688   22.9456 N   0  0  0  0  0  0  0  0  0  0  0  0
    9.6883  -15.5127   22.7054 C   0  0  0  0  0  0  0  0  0  0  0  0
    9.6570  -14.4423   23.3902 O   0  0  0  0  0  0  0  0  0  0  0  0
   11.6910  -17.0739   26.9596 C   0  0  0  0  0  0  0  0  0  0  0  0
   11.6064  -17.1645   25.4494 C   0  0  0  0  0  0  0  0  0  0  0  0
   11.8579  -15.8200   24.8071 C   0  0  2  0  0  0  0  0  0  0  0  0
   10.7783  -14.8884   25.2384 C   0  0  0  0  0  0  0  0  0  0  0  0
   12.0903  -15.9039   23.3418 C   0  0  2  0  0  0  0  0  0  0  0  0
   10.8503  -16.2992   22.6567 N   0  0  0  0  0  0  0  0  0  0  0  0
   13.1617  -16.7979   22.9042 C   0  0  0  0  0  0  0  0  0  0  0  0
   12.9904  -17.9025   22.3318 O   0  0  0  0  0  0  0  0  0  0  0  0
   14.4785  -16.4189   23.1262 O   0  0  0  0  0  0  0  0  0  0  0  0
  2  1  1  1
  2  3  1  0
  4  3  1  0
  5  4  2  0
  6  5  1  0
  7  6  1  0
  7 12  2  0
  8  7  1  0
  9  8  2  0
  9 10  1  0
 10 11  2  0
 11 12  1  0
 12  4  1  0
 13 20  1  0
 13  2  1  0
 14 13  2  0
 16 15  1  0
 17 16  1  0
 18 17  1  0
 19 18  1  1
 19 20  1  0
 21 19  1  0
 22 21  2  0
 23 24  1  0
 24 25  1  0
 25 26  1  6
 27 25  1  0
 27 28  1  6
 28 21  1  0
 29 31  1  0
 29 27  1  0
 30 29  2  0
M  END
$$$$
