WMI.pdb
     RDKit          3D

 31 32  0  0  1  0  0  0  0  0999 V2000
    7.6066  -19.9647   26.0554 N   0  0  0  0  0  0  0  0  0  0  0  0
    8.1010  -18.6763   26.4786 C   0  0  1  0  0  0  0  0  0  0  0  0
    9.6113  -18.6813   26.5680 C   0  0  0  0  0  0  0  0  0  0  0  0
   10.0364  -17.7950   27.6752 C   0  0  0  0  0  0  0  0  0  0  0  0
   10.2918  -18.2129   28.9573 C   0  0  0  0  0  0  0  0  0  0  0  0
   10.6595  -17.1370   29.7136 N   0  0  0  0  0  0  0  0  0  0  0  0
   10.6400  -16.0449   28.9270 C   0  0  0  0  0  0  0  0  0  0  0  0
   10.9300  -14.7352   29.2258 C   0  0  0  0  0  0  0  0  0  0  0  0
   10.8290  -13.7986   28.2194 C   0  0  0  0  0  0  0  0  0  0  0  0
   10.4460  -14.1455   26.9285 C   0  0  0  0  0  0  0  0  0  0  0  0
   10.1609  -15.4722   26.6602 C   0  0  0  0  0  0  0  0  0  0  0  0
   10.2516  -16.4368   27.6445 C   0  0  0  0  0  0  0  0  0  0  0  0
    7.6020  -17.6331   25.5629 C   0  0  0  0  0  0  0  0  0  0  0  0
    7.2510  -17.8597   24.3792 O   0  0  0  0  0  0  0  0  0  0  0  0
    5.5306  -11.5639   27.3766 C   0  0  0  0  0  0  0  0  0  0  0  0
    5.6967  -11.3866   25.5799 S   0  0  0  0  0  0  0  0  0  0  0  0
    6.1839  -12.9608   24.8133 C   0  0  0  0  0  0  0  0  0  0  0  0
    6.6720  -13.9556   25.8394 C   0  0  0  0  0  0  0  0  0  0  0  0
    6.9501  -15.2548   25.1774 C   0  0  2  0  0  0  0  0  0  0  0  0
    7.4895  -16.2877   25.9797 N   0  0  0  0  0  0  0  0  0  0  0  0
    7.8159  -15.1015   23.9723 C   0  0  0  0  0  0  0  0  0  0  0  0
    8.8719  -14.4152   24.1441 O   0  0  0  0  0  0  0  0  0  0  0  0
    8.4613  -11.6996   20.0024 C   0  0  0  0  0  0  0  0  0  0  0  0
    8.3293  -13.2081   19.9457 C   0  0  0  0  0  0  0  0  0  0  0  0
    7.7819  -13.7572   21.2428 C   0  0  2  0  0  0  0  0  0  0  0  0
    8.1325  -12.8073   22.3356 C   0  0  0  0  0  0  0  0  0  0  0  0
    8.1487  -15.1775   21.4801 C   0  0  2  0  0  0  0  0  0  0  0  0
    7.5197  -15.6603   22.7188 N   0  0  0  0  0  0  0  0  0  0  0  0
    9.5787  -15.4770   21.5443 C   0  0  0  0  0  0  0  0  0  0  0  0
   10.3239  -15.2294   22.5244 O   0  0  0  0  0  0  0  0  0  0  0  0
   10.1827  -16.0825   20.4509 O   0  0  0  0  0  0  0  0  0  0  0  0
  2  1  1  6
  2  3  1  0
  4  3  1  0
  5  4  2  0
  6  5  1  0
  7  6  1  0
  7 12  2  0
  8  7  1  0
  9  8  2  0
  9 10  1  0
 10 11  2  0
 11 12  1  0
 12  4  1  0
 13 20  1  0
 13  2  1  0
 14 13  2  0
 16 15  1  0
 17 16  1  0
 18 17  1  0
 19 18  1  1
 19 20  1  0
 21 19  1  0
 22 21  2  0
 23 24  1  0
 24 25  1  0
 25 26  1  1
 27 25  1  0
 27 28  1  1
 28 21  1  0
 29 31  1  0
 29 27  1  0
 30 29  2  0
M  END
$$$$
