WMI.pdb
     RDKit          3D

 31 32  0  0  1  0  0  0  0  0999 V2000
    5.8558  -18.4186   24.3774 N   0  0  0  0  0  0  0  0  0  0  0  0
    6.4728  -17.1145   24.4227 C   0  0  1  0  0  0  0  0  0  0  0  0
    7.0963  -16.8600   25.7777 C   0  0  0  0  0  0  0  0  0  0  0  0
    6.6141  -15.5609   26.2992 C   0  0  0  0  0  0  0  0  0  0  0  0
    5.4896  -15.3961   27.0685 C   0  0  0  0  0  0  0  0  0  0  0  0
    5.3447  -14.0724   27.3711 N   0  0  0  0  0  0  0  0  0  0  0  0
    6.3624  -13.3984   26.8036 C   0  0  0  0  0  0  0  0  0  0  0  0
    6.6518  -12.0551   26.8217 C   0  0  0  0  0  0  0  0  0  0  0  0
    7.7731  -11.6202   26.1479 C   0  0  0  0  0  0  0  0  0  0  0  0
    8.6044  -12.4982   25.4612 C   0  0  0  0  0  0  0  0  0  0  0  0
    8.2854  -13.8442   25.4623 C   0  0  0  0  0  0  0  0  0  0  0  0
    7.1697  -14.3146   26.1268 C   0  0  0  0  0  0  0  0  0  0  0  0
    7.4546  -16.9965   23.3283 C   0  0  0  0  0  0  0  0  0  0  0  0
    8.0690  -17.9760   22.8395 O   0  0  0  0  0  0  0  0  0  0  0  0
    8.4982  -12.1012   18.4420 C   0  0  0  0  0  0  0  0  0  0  0  0
    7.5334  -13.6307   18.5731 S   0  0  0  0  0  0  0  0  0  0  0  0
    7.3551  -14.1404   20.3084 C   0  0  0  0  0  0  0  0  0  0  0  0
    8.6947  -14.2759   20.9925 C   0  0  0  0  0  0  0  0  0  0  0  0
    8.7387  -15.5527   21.7484 C   0  0  2  0  0  0  0  0  0  0  0  0
    7.7643  -15.7421   22.7563 N   0  0  0  0  0  0  0  0  0  0  0  0
   10.0815  -15.8104   22.3451 C   0  0  0  0  0  0  0  0  0  0  0  0
   10.4853  -14.9366   23.1753 O   0  0  0  0  0  0  0  0  0  0  0  0
   11.5557  -20.2011   24.7479 C   0  0  0  0  0  0  0  0  0  0  0  0
   11.4650  -18.7521   24.3142 C   0  0  0  0  0  0  0  0  0  0  0  0
   12.3758  -18.4757   23.1405 C   0  0  2  0  0  0  0  0  0  0  0  0
   13.7605  -18.8714   23.5220 C   0  0  0  0  0  0  0  0  0  0  0  0
   12.2253  -17.1032   22.5912 C   0  0  2  0  0  0  0  0  0  0  0  0
   10.8743  -16.9275   22.0370 N   0  0  0  0  0  0  0  0  0  0  0  0
   13.1950  -16.7008   21.5733 C   0  0  0  0  0  0  0  0  0  0  0  0
   13.0517  -16.8641   20.3364 O   0  0  0  0  0  0  0  0  0  0  0  0
   14.3726  -16.0883   21.9796 O   0  0  0  0  0  0  0  0  0  0  0  0
  2  1  1  1
  2  3  1  0
  4  3  1  0
  5  4  2  0
  6  5  1  0
  7  6  1  0
  7 12  2  0
  8  7  1  0
  9  8  2  0
  9 10  1  0
 10 11  2  0
 11 12  1  0
 12  4  1  0
 13 20  1  0
 13  2  1  0
 14 13  2  0
 16 15  1  0
 17 16  1  0
 18 17  1  0
 19 18  1  1
 19 20  1  0
 21 19  1  0
 22 21  2  0
 23 24  1  0
 24 25  1  0
 25 26  1  1
 27 25  1  0
 27 28  1  6
 28 21  1  0
 29 31  1  0
 29 27  1  0
 30 29  2  0
M  END
$$$$
