WMI.pdb
     RDKit          3D

 31 32  0  0  1  0  0  0  0  0999 V2000
    6.0009  -18.2258   24.9189 N   0  0  0  0  0  0  0  0  0  0  0  0
    6.6214  -16.9380   24.7183 C   0  0  1  0  0  0  0  0  0  0  0  0
    7.0324  -16.3261   26.0396 C   0  0  0  0  0  0  0  0  0  0  0  0
    6.1589  -15.1669   26.3320 C   0  0  0  0  0  0  0  0  0  0  0  0
    4.8889  -15.2547   26.8448 C   0  0  0  0  0  0  0  0  0  0  0  0
    4.3765  -13.9969   26.9879 N   0  0  0  0  0  0  0  0  0  0  0  0
    5.3053  -13.1157   26.5724 C   0  0  0  0  0  0  0  0  0  0  0  0
    5.2611  -11.7431   26.5219 C   0  0  0  0  0  0  0  0  0  0  0  0
    6.3669  -11.0718   26.0456 C   0  0  0  0  0  0  0  0  0  0  0  0
    7.5083  -11.7436   25.6218 C   0  0  0  0  0  0  0  0  0  0  0  0
    7.5209  -13.1254   25.6855 C   0  0  0  0  0  0  0  0  0  0  0  0
    6.4307  -13.8300   26.1572 C   0  0  0  0  0  0  0  0  0  0  0  0
    7.7615  -17.0802   23.7933 C   0  0  0  0  0  0  0  0  0  0  0  0
    8.5789  -18.0317   23.8413 O   0  0  0  0  0  0  0  0  0  0  0  0
    8.9633  -11.6622   19.7848 C   0  0  0  0  0  0  0  0  0  0  0  0
    7.9873  -13.1483   19.4297 S   0  0  0  0  0  0  0  0  0  0  0  0
    7.9976  -14.2868   20.8463 C   0  0  0  0  0  0  0  0  0  0  0  0
    9.2063  -15.1920   20.8282 C   0  0  0  0  0  0  0  0  0  0  0  0
    9.2096  -16.0395   22.0470 C   0  0  2  0  0  0  0  0  0  0  0  0
    8.0010  -16.1282   22.7769 N   0  0  0  0  0  0  0  0  0  0  0  0
   10.2988  -15.6631   22.9943 C   0  0  0  0  0  0  0  0  0  0  0  0
   10.1560  -14.5385   23.5693 O   0  0  0  0  0  0  0  0  0  0  0  0
   10.5076  -14.6027   27.3137 C   0  0  0  0  0  0  0  0  0  0  0  0
   10.9228  -14.7714   25.8662 C   0  0  0  0  0  0  0  0  0  0  0  0
   11.6084  -16.1000   25.6465 C   0  0  2  0  0  0  0  0  0  0  0  0
   12.3990  -16.4238   26.8670 C   0  0  0  0  0  0  0  0  0  0  0  0
   12.3489  -16.1725   24.3601 C   0  0  2  0  0  0  0  0  0  0  0  0
   11.4191  -16.4670   23.2593 N   0  0  0  0  0  0  0  0  0  0  0  0
   13.4516  -17.1311   24.2985 C   0  0  0  0  0  0  0  0  0  0  0  0
   14.6668  -16.8415   24.4274 O   0  0  0  0  0  0  0  0  0  0  0  0
   13.1590  -18.4708   24.0826 O   0  0  0  0  0  0  0  0  0  0  0  0
  2  1  1  1
  2  3  1  0
  4  3  1  0
  5  4  2  0
  6  5  1  0
  7  6  1  0
  7 12  2  0
  8  7  1  0
  9  8  2  0
  9 10  1  0
 10 11  2  0
 11 12  1  0
 12  4  1  0
 13 20  1  0
 13  2  1  0
 14 13  2  0
 16 15  1  0
 17 16  1  0
 18 17  1  0
 19 18  1  6
 19 20  1  0
 21 19  1  0
 22 21  2  0
 23 24  1  0
 24 25  1  0
 25 26  1  1
 27 25  1  0
 27 28  1  6
 28 21  1  0
 29 31  1  0
 29 27  1  0
 30 29  2  0
M  END
$$$$
