WMI.pdb
     RDKit          3D

 31 32  0  0  1  0  0  0  0  0999 V2000
    7.4103  -20.5743   26.0787 N   0  0  0  0  0  0  0  0  0  0  0  0
    7.8312  -19.2601   26.5022 C   0  0  1  0  0  0  0  0  0  0  0  0
    9.3315  -19.1088   26.3785 C   0  0  0  0  0  0  0  0  0  0  0  0
    9.8421  -18.3510   27.5436 C   0  0  0  0  0  0  0  0  0  0  0  0
   10.1271  -18.8995   28.7689 C   0  0  0  0  0  0  0  0  0  0  0  0
   10.5757  -17.9175   29.6051 N   0  0  0  0  0  0  0  0  0  0  0  0
   10.5782  -16.7560   28.9248 C   0  0  0  0  0  0  0  0  0  0  0  0
   10.9427  -15.4947   29.3310 C   0  0  0  0  0  0  0  0  0  0  0  0
   10.8477  -14.4634   28.4212 C   0  0  0  0  0  0  0  0  0  0  0  0
   10.3980  -14.6691   27.1216 C   0  0  0  0  0  0  0  0  0  0  0  0
   10.0388  -15.9505   26.7440 C   0  0  0  0  0  0  0  0  0  0  0  0
   10.1213  -17.0071   27.6297 C   0  0  0  0  0  0  0  0  0  0  0  0
    7.1038  -18.2373   25.7273 C   0  0  0  0  0  0  0  0  0  0  0  0
    6.6509  -18.4338   24.5732 O   0  0  0  0  0  0  0  0  0  0  0  0
    4.9022  -10.6730   24.8778 C   0  0  0  0  0  0  0  0  0  0  0  0
    5.1386  -12.0123   26.0768 S   0  0  0  0  0  0  0  0  0  0  0  0
    5.5930  -13.5608   25.2408 C   0  0  0  0  0  0  0  0  0  0  0  0
    6.0902  -14.5994   26.2179 C   0  0  0  0  0  0  0  0  0  0  0  0
    6.4269  -15.8469   25.4871 C   0  0  2  0  0  0  0  0  0  0  0  0
    6.8717  -16.9477   26.2563 N   0  0  0  0  0  0  0  0  0  0  0  0
    7.4154  -15.6129   24.3946 C   0  0  0  0  0  0  0  0  0  0  0  0
    6.9371  -15.1257   23.3224 O   0  0  0  0  0  0  0  0  0  0  0  0
   10.7155  -12.1811   24.8474 C   0  0  0  0  0  0  0  0  0  0  0  0
    9.8603  -13.1768   24.0901 C   0  0  0  0  0  0  0  0  0  0  0  0
   10.6159  -14.4596   23.8314 C   0  0  2  0  0  0  0  0  0  0  0  0
   11.7461  -14.1568   22.9094 C   0  0  0  0  0  0  0  0  0  0  0  0
    9.7368  -15.5870   23.4259 C   0  0  2  0  0  0  0  0  0  0  0  0
    8.7859  -15.8977   24.5041 N   0  0  0  0  0  0  0  0  0  0  0  0
   10.4079  -16.8259   23.0345 C   0  0  0  0  0  0  0  0  0  0  0  0
   11.2283  -16.9341   22.0899 O   0  0  0  0  0  0  0  0  0  0  0  0
   10.1349  -17.9857   23.7468 O   0  0  0  0  0  0  0  0  0  0  0  0
  2  1  1  6
  2  3  1  0
  4  3  1  0
  5  4  2  0
  6  5  1  0
  7  6  1  0
  7 12  2  0
  8  7  1  0
  9  8  2  0
  9 10  1  0
 10 11  2  0
 11 12  1  0
 12  4  1  0
 13 20  1  0
 13  2  1  0
 14 13  2  0
 16 15  1  0
 17 16  1  0
 18 17  1  0
 19 18  1  1
 19 20  1  0
 21 19  1  0
 22 21  2  0
 23 24  1  0
 24 25  1  0
 25 26  1  6
 27 25  1  0
 27 28  1  1
 28 21  1  0
 29 31  1  0
 29 27  1  0
 30 29  2  0
M  END
$$$$
