WMI.pdb
     RDKit          3D

 31 32  0  0  1  0  0  0  0  0999 V2000
    6.2706  -18.0392   24.1208 N   0  0  0  0  0  0  0  0  0  0  0  0
    7.1364  -16.8921   24.2552 C   0  0  1  0  0  0  0  0  0  0  0  0
    7.2919  -16.5014   25.7086 C   0  0  0  0  0  0  0  0  0  0  0  0
    6.5614  -15.2370   25.9536 C   0  0  0  0  0  0  0  0  0  0  0  0
    5.2669  -15.1564   26.4022 C   0  0  0  0  0  0  0  0  0  0  0  0
    4.9141  -13.8420   26.5160 N   0  0  0  0  0  0  0  0  0  0  0  0
    5.9679  -13.0911   26.1455 C   0  0  0  0  0  0  0  0  0  0  0  0
    6.1033  -11.7247   26.0891 C   0  0  0  0  0  0  0  0  0  0  0  0
    7.3085  -11.2053   25.6672 C   0  0  0  0  0  0  0  0  0  0  0  0
    8.3735  -12.0219   25.3031 C   0  0  0  0  0  0  0  0  0  0  0  0
    8.2050  -13.3932   25.3710 C   0  0  0  0  0  0  0  0  0  0  0  0
    7.0112  -13.9477   25.7892 C   0  0  0  0  0  0  0  0  0  0  0  0
    8.4341  -17.1778   23.6148 C   0  0  0  0  0  0  0  0  0  0  0  0
    9.0015  -18.2963   23.6664 O   0  0  0  0  0  0  0  0  0  0  0  0
   14.7509  -14.7859   19.4686 C   0  0  0  0  0  0  0  0  0  0  0  0
   12.9743  -14.5474   19.7409 S   0  0  0  0  0  0  0  0  0  0  0  0
   12.3740  -15.6121   21.0860 C   0  0  0  0  0  0  0  0  0  0  0  0
   10.9040  -15.3965   21.3570 C   0  0  0  0  0  0  0  0  0  0  0  0
   10.4561  -16.3219   22.4277 C   0  0  2  0  0  0  0  0  0  0  0  0
    9.1264  -16.1817   22.8900 N   0  0  0  0  0  0  0  0  0  0  0  0
   11.3647  -16.2999   23.6107 C   0  0  0  0  0  0  0  0  0  0  0  0
   12.5848  -16.5580   23.3651 O   0  0  0  0  0  0  0  0  0  0  0  0
    9.6835  -14.5631   28.8736 C   0  0  0  0  0  0  0  0  0  0  0  0
   10.1499  -15.5302   27.8044 C   0  0  0  0  0  0  0  0  0  0  0  0
   11.3598  -14.9945   27.0744 C   0  0  2  0  0  0  0  0  0  0  0  0
   11.0462  -13.6175   26.6005 C   0  0  0  0  0  0  0  0  0  0  0  0
   11.8840  -15.9278   26.0437 C   0  0  2  0  0  0  0  0  0  0  0  0
   10.9404  -16.0184   24.9191 N   0  0  0  0  0  0  0  0  0  0  0  0
   12.1941  -17.2844   26.4932 C   0  0  0  0  0  0  0  0  0  0  0  0
   13.1345  -17.5903   27.2673 O   0  0  0  0  0  0  0  0  0  0  0  0
   11.4023  -18.3326   26.0445 O   0  0  0  0  0  0  0  0  0  0  0  0
  2  1  1  1
  2  3  1  0
  4  3  1  0
  5  4  2  0
  6  5  1  0
  7  6  1  0
  7 12  2  0
  8  7  1  0
  9  8  2  0
  9 10  1  0
 10 11  2  0
 11 12  1  0
 12  4  1  0
 13 20  1  0
 13  2  1  0
 14 13  2  0
 16 15  1  0
 17 16  1  0
 18 17  1  0
 19 18  1  6
 19 20  1  0
 21 19  1  0
 22 21  2  0
 23 24  1  0
 24 25  1  0
 25 26  1  6
 27 25  1  0
 27 28  1  6
 28 21  1  0
 29 31  1  0
 29 27  1  0
 30 29  2  0
M  END
$$$$
