WMI.pdb
     RDKit          3D

 31 32  0  0  1  0  0  0  0  0999 V2000
    6.0774  -18.7881   23.8609 N   0  0  0  0  0  0  0  0  0  0  0  0
    6.5812  -17.4673   24.1528 C   0  0  1  0  0  0  0  0  0  0  0  0
    6.6121  -17.2199   25.6451 C   0  0  0  0  0  0  0  0  0  0  0  0
    6.0275  -15.8897   25.9303 C   0  0  0  0  0  0  0  0  0  0  0  0
    4.8257  -15.6826   26.5598 C   0  0  0  0  0  0  0  0  0  0  0  0
    4.5975  -14.3397   26.6572 N   0  0  0  0  0  0  0  0  0  0  0  0
    5.6386  -13.6955   26.0979 C   0  0  0  0  0  0  0  0  0  0  0  0
    5.8699  -12.3486   25.9528 C   0  0  0  0  0  0  0  0  0  0  0  0
    7.0343  -11.9497   25.3322 C   0  0  0  0  0  0  0  0  0  0  0  0
    7.9654  -12.8670   24.8574 C   0  0  0  0  0  0  0  0  0  0  0  0
    7.7030  -14.2154   25.0190 C   0  0  0  0  0  0  0  0  0  0  0  0
    6.5464  -14.6504   25.6360 C   0  0  0  0  0  0  0  0  0  0  0  0
    7.9097  -17.2998   23.5342 C   0  0  0  0  0  0  0  0  0  0  0  0
    8.7759  -18.2075   23.4955 O   0  0  0  0  0  0  0  0  0  0  0  0
    8.6696  -11.7239   20.3948 C   0  0  0  0  0  0  0  0  0  0  0  0
    8.6086  -13.2067   19.3532 S   0  0  0  0  0  0  0  0  0  0  0  0
    8.6120  -14.7145   20.3678 C   0  0  0  0  0  0  0  0  0  0  0  0
    9.6678  -14.6612   21.4463 C   0  0  0  0  0  0  0  0  0  0  0  0
    9.5431  -15.8534   22.3219 C   0  0  2  0  0  0  0  0  0  0  0  0
    8.2885  -16.0768   22.9364 N   0  0  0  0  0  0  0  0  0  0  0  0
   10.5929  -15.8891   23.3812 C   0  0  0  0  0  0  0  0  0  0  0  0
   11.7906  -15.8041   22.9640 O   0  0  0  0  0  0  0  0  0  0  0  0
    9.6878  -13.6337   28.2676 C   0  0  0  0  0  0  0  0  0  0  0  0
   10.2643  -14.0917   26.9432 C   0  0  0  0  0  0  0  0  0  0  0  0
   10.8549  -15.4781   27.0553 C   0  0  2  0  0  0  0  0  0  0  0  0
   11.8120  -15.4859   28.1969 C   0  0  0  0  0  0  0  0  0  0  0  0
   11.3833  -15.9967   25.7669 C   0  0  2  0  0  0  0  0  0  0  0  0
   10.3179  -16.0075   24.7529 N   0  0  0  0  0  0  0  0  0  0  0  0
   11.9959  -17.3241   25.8032 C   0  0  0  0  0  0  0  0  0  0  0  0
   11.4297  -18.3894   25.4543 O   0  0  0  0  0  0  0  0  0  0  0  0
   13.3037  -17.4427   26.2534 O   0  0  0  0  0  0  0  0  0  0  0  0
  2  1  1  1
  2  3  1  0
  4  3  1  0
  5  4  2  0
  6  5  1  0
  7  6  1  0
  7 12  2  0
  8  7  1  0
  9  8  2  0
  9 10  1  0
 10 11  2  0
 11 12  1  0
 12  4  1  0
 13 20  1  0
 13  2  1  0
 14 13  2  0
 16 15  1  0
 17 16  1  0
 18 17  1  0
 19 18  1  1
 19 20  1  0
 21 19  1  0
 22 21  2  0
 23 24  1  0
 24 25  1  0
 25 26  1  1
 27 25  1  0
 27 28  1  6
 28 21  1  0
 29 31  1  0
 29 27  1  0
 30 29  2  0
M  END
$$$$
