FSI.pdb
     RDKit          3D

 26 26  0  0  1  0  0  0  0  0999 V2000
   26.3196  -19.3383  -18.8402 N   0  0  0  0  0  0  0  0  0  0  0  0
   25.1081  -19.9377  -18.3222 C   0  0  1  0  0  0  0  0  0  0  0  0
   25.2407  -21.4355  -18.4742 C   0  0  0  0  0  0  0  0  0  0  0  0
   24.8214  -21.7899  -19.8666 C   0  0  0  0  0  0  0  0  0  0  0  0
   25.6936  -22.1956  -20.8410 C   0  0  0  0  0  0  0  0  0  0  0  0
   25.2829  -22.5186  -22.1252 C   0  0  0  0  0  0  0  0  0  0  0  0
   23.9511  -22.4296  -22.4368 C   0  0  0  0  0  0  0  0  0  0  0  0
   23.0393  -22.0268  -21.4908 C   0  0  0  0  0  0  0  0  0  0  0  0
   23.4722  -21.7128  -20.2261 C   0  0  0  0  0  0  0  0  0  0  0  0
   24.9424  -19.5216  -16.9178 C   0  0  0  0  0  0  0  0  0  0  0  0
   25.9564  -19.4168  -16.1895 O   0  0  0  0  0  0  0  0  0  0  0  0
   21.1713  -18.9025  -15.3682 O   0  0  0  0  0  0  0  0  0  0  0  0
   22.1693  -18.0160  -14.9129 C   0  0  0  0  0  0  0  0  0  0  0  0
   23.4778  -18.7790  -14.9797 C   0  0  2  0  0  0  0  0  0  0  0  0
   23.6834  -19.2250  -16.3233 N   0  0  0  0  0  0  0  0  0  0  0  0
   23.3972  -19.8610  -13.9862 C   0  0  0  0  0  0  0  0  0  0  0  0
   22.9607  -20.9718  -14.3716 O   0  0  0  0  0  0  0  0  0  0  0  0
   26.5949  -20.3588   -9.2802 C   0  0  0  0  0  0  0  0  0  0  0  0
   25.8264  -20.5699  -10.5450 C   0  0  0  0  0  0  0  0  0  0  0  0
   24.3582  -20.7195  -10.4016 C   0  0  2  0  0  0  0  0  0  0  0  0
   24.0902  -21.8854   -9.4719 C   0  0  0  0  0  0  0  0  0  0  0  0
   23.5445  -20.7580  -11.6383 C   0  0  2  0  0  0  0  0  0  0  0  0
   23.7751  -19.7501  -12.6158 N   0  0  0  0  0  0  0  0  0  0  0  0
   22.1214  -20.9020  -11.2607 C   0  0  0  0  0  0  0  0  0  0  0  0
   21.7302  -22.0151  -10.8366 O   0  0  0  0  0  0  0  0  0  0  0  0
   21.2067  -19.8774  -11.3516 O   0  0  0  0  0  0  0  0  0  0  0  0
  2  1  1  1
  2 10  1  0
  3  2  1  0
  3  4  1  0
  4  5  2  0
  4  9  1  0
  5  6  1  0
  6  7  2  0
  8  7  1  0
  9  8  2  0
 10 11  2  0
 12 13  1  0
 14 13  1  6
 14 16  1  0
 15 14  1  0
 15 10  1  0
 16 23  1  0
 16 17  2  0
 18 19  1  0
 19 20  1  0
 20 22  1  0
 20 21  1  6
 22 24  1  0
 22 23  1  1
 24 25  2  0
 24 26  1  0
M  END
$$$$
