FSI.pdb
     RDKit          3D

 26 26  0  0  1  0  0  0  0  0999 V2000
   27.3845  -20.1368  -11.7567 N   0  0  0  0  0  0  0  0  0  0  0  0
   26.4347  -21.1316  -11.3055 C   0  0  1  0  0  0  0  0  0  0  0  0
   25.9933  -20.7408   -9.9140 C   0  0  0  0  0  0  0  0  0  0  0  0
   27.2143  -20.6779   -9.0507 C   0  0  0  0  0  0  0  0  0  0  0  0
   27.2661  -20.0070   -7.8582 C   0  0  0  0  0  0  0  0  0  0  0  0
   28.4090  -19.9615   -7.0746 C   0  0  0  0  0  0  0  0  0  0  0  0
   29.5349  -20.6126   -7.5069 C   0  0  0  0  0  0  0  0  0  0  0  0
   29.5295  -21.2988   -8.6975 C   0  0  0  0  0  0  0  0  0  0  0  0
   28.3844  -21.3285   -9.4547 C   0  0  0  0  0  0  0  0  0  0  0  0
   25.3157  -21.1803  -12.2638 C   0  0  0  0  0  0  0  0  0  0  0  0
   24.8295  -20.1064  -12.6882 O   0  0  0  0  0  0  0  0  0  0  0  0
   24.5714  -24.2898  -14.8408 O   0  0  0  0  0  0  0  0  0  0  0  0
   23.4578  -23.9400  -14.0493 C   0  0  0  0  0  0  0  0  0  0  0  0
   23.6483  -22.4851  -13.6674 C   0  0  2  0  0  0  0  0  0  0  0  0
   24.7405  -22.3888  -12.7486 N   0  0  0  0  0  0  0  0  0  0  0  0
   22.3628  -22.0072  -13.1348 C   0  0  0  0  0  0  0  0  0  0  0  0
   22.1099  -22.2434  -11.9294 O   0  0  0  0  0  0  0  0  0  0  0  0
   20.4591  -16.9683  -13.7836 C   0  0  0  0  0  0  0  0  0  0  0  0
   20.8288  -18.3625  -13.3904 C   0  0  0  0  0  0  0  0  0  0  0  0
   19.7915  -19.4000  -13.6050 C   0  0  2  0  0  0  0  0  0  0  0  0
   18.5285  -18.9602  -12.8931 C   0  0  0  0  0  0  0  0  0  0  0  0
   20.1575  -20.8085  -13.3313 C   0  0  2  0  0  0  0  0  0  0  0  0
   21.3767  -21.2958  -13.8795 N   0  0  0  0  0  0  0  0  0  0  0  0
   18.9893  -21.6650  -13.6319 C   0  0  0  0  0  0  0  0  0  0  0  0
   18.9190  -22.1953  -14.7660 O   0  0  0  0  0  0  0  0  0  0  0  0
   17.9773  -21.9086  -12.7312 O   0  0  0  0  0  0  0  0  0  0  0  0
  2  1  1  6
  2 10  1  0
  3  2  1  0
  3  4  1  0
  4  5  2  0
  4  9  1  0
  5  6  1  0
  6  7  2  0
  8  7  1  0
  9  8  2  0
 10 11  2  0
 12 13  1  0
 14 13  1  1
 14 16  1  0
 15 14  1  0
 15 10  1  0
 16 23  1  0
 16 17  2  0
 18 19  1  0
 19 20  1  0
 20 22  1  0
 20 21  1  1
 22 24  1  0
 22 23  1  6
 24 25  2  0
 24 26  1  0
M  END
$$$$
