FSI.pdb
     RDKit          3D

 26 26  0  0  1  0  0  0  0  0999 V2000
   24.2224  -13.2536  -18.2570 N   0  0  0  0  0  0  0  0  0  0  0  0
   23.8708  -12.6891  -16.9712 C   0  0  1  0  0  0  0  0  0  0  0  0
   25.1529  -12.4878  -16.1970 C   0  0  0  0  0  0  0  0  0  0  0  0
   25.7449  -13.8380  -15.9389 C   0  0  0  0  0  0  0  0  0  0  0  0
   26.8701  -14.3047  -16.5640 C   0  0  0  0  0  0  0  0  0  0  0  0
   27.4008  -15.5601  -16.3098 C   0  0  0  0  0  0  0  0  0  0  0  0
   26.7775  -16.3702  -15.3967 C   0  0  0  0  0  0  0  0  0  0  0  0
   25.6453  -15.9438  -14.7448 C   0  0  0  0  0  0  0  0  0  0  0  0
   25.1401  -14.6959  -15.0148 C   0  0  0  0  0  0  0  0  0  0  0  0
   23.1393  -11.4293  -17.1964 C   0  0  0  0  0  0  0  0  0  0  0  0
   23.6356  -10.5632  -17.9536 O   0  0  0  0  0  0  0  0  0  0  0  0
   19.4463  -11.1229  -15.6911 O   0  0  0  0  0  0  0  0  0  0  0  0
   19.6485  -10.2840  -16.8067 C   0  0  0  0  0  0  0  0  0  0  0  0
   21.1234   -9.9323  -16.8119 C   0  0  2  0  0  0  0  0  0  0  0  0
   21.8827  -11.1260  -16.6001 N   0  0  0  0  0  0  0  0  0  0  0  0
   21.3230   -8.8956  -15.7873 C   0  0  0  0  0  0  0  0  0  0  0  0
   21.6355   -9.2729  -14.6328 O   0  0  0  0  0  0  0  0  0  0  0  0
   23.4983   -3.8399  -16.8606 C   0  0  0  0  0  0  0  0  0  0  0  0
   23.0204   -5.1854  -16.4178 C   0  0  0  0  0  0  0  0  0  0  0  0
   21.9346   -5.1949  -15.4081 C   0  0  2  0  0  0  0  0  0  0  0  0
   22.3653   -4.3281  -14.2424 C   0  0  0  0  0  0  0  0  0  0  0  0
   21.3908   -6.5078  -14.9918 C   0  0  2  0  0  0  0  0  0  0  0  0
   21.1890   -7.4920  -15.9994 N   0  0  0  0  0  0  0  0  0  0  0  0
   20.2011   -6.2767  -14.1435 C   0  0  0  0  0  0  0  0  0  0  0  0
   19.0810   -6.1985  -14.7016 O   0  0  0  0  0  0  0  0  0  0  0  0
   20.2616   -6.1433  -12.7748 O   0  0  0  0  0  0  0  0  0  0  0  0
  2  1  1  6
  2 10  1  0
  3  2  1  0
  3  4  1  0
  4  5  2  0
  4  9  1  0
  5  6  1  0
  6  7  2  0
  8  7  1  0
  9  8  2  0
 10 11  2  0
 12 13  1  0
 14 13  1  1
 14 16  1  0
 15 14  1  0
 15 10  1  0
 16 23  1  0
 16 17  2  0
 18 19  1  0
 19 20  1  0
 20 22  1  0
 20 21  1  1
 22 24  1  0
 22 23  1  6
 24 25  2  0
 24 26  1  0
M  END
$$$$
