FSI.pdb
     RDKit          3D

 26 26  0  0  1  0  0  0  0  0999 V2000
   18.2502  -12.9284  -15.8050 N   0  0  0  0  0  0  0  0  0  0  0  0
   18.9428  -11.9981  -16.6712 C   0  0  1  0  0  0  0  0  0  0  0  0
   18.1152  -11.8426  -17.9261 C   0  0  0  0  0  0  0  0  0  0  0  0
   18.2477  -13.1060  -18.7174 C   0  0  0  0  0  0  0  0  0  0  0  0
   19.3180  -13.3870  -19.5238 C   0  0  0  0  0  0  0  0  0  0  0  0
   19.4196  -14.5644  -20.2488 C   0  0  0  0  0  0  0  0  0  0  0  0
   18.4104  -15.4873  -20.1582 C   0  0  0  0  0  0  0  0  0  0  0  0
   17.3165  -15.2481  -19.3613 C   0  0  0  0  0  0  0  0  0  0  0  0
   17.2405  -14.0740  -18.6533 C   0  0  0  0  0  0  0  0  0  0  0  0
   19.1209  -10.7267  -15.9468 C   0  0  0  0  0  0  0  0  0  0  0  0
   18.1795  -10.2869  -15.2467 O   0  0  0  0  0  0  0  0  0  0  0  0
   22.5565   -8.7288  -16.5149 O   0  0  0  0  0  0  0  0  0  0  0  0
   21.9686   -8.3676  -15.2848 C   0  0  0  0  0  0  0  0  0  0  0  0
   20.4852   -8.6486  -15.4242 C   0  0  2  0  0  0  0  0  0  0  0  0
   20.3139   -9.9511  -15.9902 N   0  0  0  0  0  0  0  0  0  0  0  0
   19.9133   -7.5571  -16.2278 C   0  0  0  0  0  0  0  0  0  0  0  0
   19.7983   -7.7440  -17.4627 O   0  0  0  0  0  0  0  0  0  0  0  0
   15.3276   -3.9986  -17.3288 C   0  0  0  0  0  0  0  0  0  0  0  0
   16.8214   -4.0304  -17.2788 C   0  0  0  0  0  0  0  0  0  0  0  0
   17.4260   -5.1067  -16.4575 C   0  0  2  0  0  0  0  0  0  0  0  0
   16.8870   -4.9845  -15.0468 C   0  0  0  0  0  0  0  0  0  0  0  0
   18.8968   -5.2710  -16.5099 C   0  0  2  0  0  0  0  0  0  0  0  0
   19.4782   -6.2992  -15.7166 N   0  0  0  0  0  0  0  0  0  0  0  0
   19.5255   -3.9461  -16.3152 C   0  0  0  0  0  0  0  0  0  0  0  0
   19.4024   -3.0919  -17.2248 O   0  0  0  0  0  0  0  0  0  0  0  0
   20.2376   -3.6044  -15.1879 O   0  0  0  0  0  0  0  0  0  0  0  0
  2  1  1  1
  2 10  1  0
  3  2  1  0
  3  4  1  0
  4  5  2  0
  4  9  1  0
  5  6  1  0
  6  7  2  0
  8  7  1  0
  9  8  2  0
 10 11  2  0
 12 13  1  0
 14 13  1  6
 14 16  1  0
 15 14  1  0
 15 10  1  0
 16 23  1  0
 16 17  2  0
 18 19  1  0
 19 20  1  0
 20 22  1  0
 20 21  1  1
 22 24  1  0
 22 23  1  1
 24 25  2  0
 24 26  1  0
M  END
$$$$
