FSI.pdb
     RDKit          3D

 26 26  0  0  1  0  0  0  0  0999 V2000
   28.7105  -20.2493  -14.9402 N   0  0  0  0  0  0  0  0  0  0  0  0
   27.6639  -19.6636  -14.1296 C   0  0  1  0  0  0  0  0  0  0  0  0
   26.6933  -18.9800  -15.0647 C   0  0  0  0  0  0  0  0  0  0  0  0
   27.3339  -17.7128  -15.5379 C   0  0  0  0  0  0  0  0  0  0  0  0
   27.3535  -16.5545  -14.8081 C   0  0  0  0  0  0  0  0  0  0  0  0
   27.9526  -15.3913  -15.2668 C   0  0  0  0  0  0  0  0  0  0  0  0
   28.5505  -15.3962  -16.5001 C   0  0  0  0  0  0  0  0  0  0  0  0
   28.5554  -16.5359  -17.2680 C   0  0  0  0  0  0  0  0  0  0  0  0
   27.9551  -17.6747  -16.7902 C   0  0  0  0  0  0  0  0  0  0  0  0
   27.0312  -20.7330  -13.3364 C   0  0  0  0  0  0  0  0  0  0  0  0
   26.7971  -21.8375  -13.8795 O   0  0  0  0  0  0  0  0  0  0  0  0
   25.6573  -19.5182   -9.7484 O   0  0  0  0  0  0  0  0  0  0  0  0
   25.6006  -20.9241   -9.8462 C   0  0  0  0  0  0  0  0  0  0  0  0
   25.5637  -21.2457  -11.3274 C   0  0  2  0  0  0  0  0  0  0  0  0
   26.6624  -20.5916  -11.9688 N   0  0  0  0  0  0  0  0  0  0  0  0
   24.2403  -20.8382  -11.8243 C   0  0  0  0  0  0  0  0  0  0  0  0
   24.0925  -19.6411  -12.1679 O   0  0  0  0  0  0  0  0  0  0  0  0
   22.7901  -22.1937  -16.3878 C   0  0  0  0  0  0  0  0  0  0  0  0
   22.9203  -21.6034  -15.0205 C   0  0  0  0  0  0  0  0  0  0  0  0
   21.8273  -21.9123  -14.0673 C   0  0  2  0  0  0  0  0  0  0  0  0
   20.5089  -21.5797  -14.7357 C   0  0  0  0  0  0  0  0  0  0  0  0
   21.9385  -21.3745  -12.6921 C   0  0  2  0  0  0  0  0  0  0  0  0
   23.1073  -21.6952  -11.9468 N   0  0  0  0  0  0  0  0  0  0  0  0
   20.6792  -21.6625  -11.9711 C   0  0  0  0  0  0  0  0  0  0  0  0
   20.5914  -22.7417  -11.3390 O   0  0  0  0  0  0  0  0  0  0  0  0
   19.6009  -20.8069  -11.9594 O   0  0  0  0  0  0  0  0  0  0  0  0
  2  1  1  6
  2 10  1  0
  3  2  1  0
  3  4  1  0
  4  5  2  0
  4  9  1  0
  5  6  1  0
  6  7  2  0
  8  7  1  0
  9  8  2  0
 10 11  2  0
 12 13  1  0
 14 13  1  1
 14 16  1  0
 15 14  1  0
 15 10  1  0
 16 23  1  0
 16 17  2  0
 18 19  1  0
 19 20  1  0
 20 22  1  0
 20 21  1  6
 22 24  1  0
 22 23  1  1
 24 25  2  0
 24 26  1  0
M  END
$$$$
