FSI.pdb
     RDKit          3D

 26 26  0  0  1  0  0  0  0  0999 V2000
   23.0625  -21.9399  -13.0567 N   0  0  0  0  0  0  0  0  0  0  0  0
   23.7942  -20.7733  -12.6105 C   0  0  1  0  0  0  0  0  0  0  0  0
   22.7814  -19.7461  -12.1600 C   0  0  0  0  0  0  0  0  0  0  0  0
   22.1626  -19.1499  -13.3854 C   0  0  0  0  0  0  0  0  0  0  0  0
   22.8570  -18.4023  -14.2984 C   0  0  0  0  0  0  0  0  0  0  0  0
   22.2629  -17.8587  -15.4271 C   0  0  0  0  0  0  0  0  0  0  0  0
   20.9267  -18.0757  -15.6417 C   0  0  0  0  0  0  0  0  0  0  0  0
   20.1895  -18.8198  -14.7522 C   0  0  0  0  0  0  0  0  0  0  0  0
   20.8022  -19.3472  -13.6422 C   0  0  0  0  0  0  0  0  0  0  0  0
   24.7107  -21.1796  -11.5298 C   0  0  0  0  0  0  0  0  0  0  0  0
   24.2543  -21.8116  -10.5490 O   0  0  0  0  0  0  0  0  0  0  0  0
   28.5949  -20.1033  -11.7985 O   0  0  0  0  0  0  0  0  0  0  0  0
   28.4271  -21.3225  -11.1096 C   0  0  0  0  0  0  0  0  0  0  0  0
   27.0349  -21.2837  -10.5102 C   0  0  2  0  0  0  0  0  0  0  0  0
   26.1059  -20.8970  -11.5269 N   0  0  0  0  0  0  0  0  0  0  0  0
   27.0874  -20.3719   -9.3568 C   0  0  0  0  0  0  0  0  0  0  0  0
   26.5665  -19.2386   -9.4884 O   0  0  0  0  0  0  0  0  0  0  0  0
   26.0307  -21.3517   -4.0022 C   0  0  0  0  0  0  0  0  0  0  0  0
   26.2312  -20.8040   -5.3787 C   0  0  0  0  0  0  0  0  0  0  0  0
   27.5586  -20.2054   -5.6581 C   0  0  2  0  0  0  0  0  0  0  0  0
   27.8358  -19.1554   -4.6016 C   0  0  0  0  0  0  0  0  0  0  0  0
   27.8268  -19.7342   -7.0361 C   0  0  2  0  0  0  0  0  0  0  0  0
   27.6847  -20.6714   -8.0973 N   0  0  0  0  0  0  0  0  0  0  0  0
   29.1231  -19.0213   -7.0456 C   0  0  0  0  0  0  0  0  0  0  0  0
   30.1310  -19.6294   -7.4774 O   0  0  0  0  0  0  0  0  0  0  0  0
   29.2782  -17.7265   -6.6051 O   0  0  0  0  0  0  0  0  0  0  0  0
  2  1  1  1
  2 10  1  0
  3  2  1  0
  3  4  1  0
  4  5  2  0
  4  9  1  0
  5  6  1  0
  6  7  2  0
  8  7  1  0
  9  8  2  0
 10 11  2  0
 12 13  1  0
 14 13  1  6
 14 16  1  0
 15 14  1  0
 15 10  1  0
 16 23  1  0
 16 17  2  0
 18 19  1  0
 19 20  1  0
 20 22  1  0
 20 21  1  1
 22 24  1  0
 22 23  1  6
 24 25  2  0
 24 26  1  0
M  END
$$$$
