FSI.pdb
     RDKit          3D

 26 26  0  0  1  0  0  0  0  0999 V2000
   23.5699   -9.6078  -17.7078 N   0  0  0  0  0  0  0  0  0  0  0  0
   23.3267   -8.8091  -16.5253 C   0  0  1  0  0  0  0  0  0  0  0  0
   24.5221   -7.9045  -16.3337 C   0  0  0  0  0  0  0  0  0  0  0  0
   25.7256   -8.7747  -16.1486 C   0  0  0  0  0  0  0  0  0  0  0  0
   25.8597   -9.6760  -15.1267 C   0  0  0  0  0  0  0  0  0  0  0  0
   26.9846  -10.4720  -14.9741 C   0  0  0  0  0  0  0  0  0  0  0  0
   28.0064  -10.3554  -15.8802 C   0  0  0  0  0  0  0  0  0  0  0  0
   27.9158   -9.4639  -16.9221 C   0  0  0  0  0  0  0  0  0  0  0  0
   26.7906   -8.6874  -17.0507 C   0  0  0  0  0  0  0  0  0  0  0  0
   22.0717   -8.0596  -16.7156 C   0  0  0  0  0  0  0  0  0  0  0  0
   21.7854   -7.6299  -17.8571 O   0  0  0  0  0  0  0  0  0  0  0  0
   17.9520   -6.4405  -14.7065 O   0  0  0  0  0  0  0  0  0  0  0  0
   19.1889   -7.0794  -14.4805 C   0  0  0  0  0  0  0  0  0  0  0  0
   19.9409   -7.0267  -15.7961 C   0  0  2  0  0  0  0  0  0  0  0  0
   21.1458   -7.7872  -15.6691 N   0  0  0  0  0  0  0  0  0  0  0  0
   20.1502   -5.6061  -16.1165 C   0  0  0  0  0  0  0  0  0  0  0  0
   21.2368   -5.0862  -15.7675 O   0  0  0  0  0  0  0  0  0  0  0  0
   20.7116   -1.1306  -19.8994 C   0  0  0  0  0  0  0  0  0  0  0  0
   20.1085   -1.5067  -18.5842 C   0  0  0  0  0  0  0  0  0  0  0  0
   19.8911   -2.9553  -18.3541 C   0  0  2  0  0  0  0  0  0  0  0  0
   19.0515   -3.4944  -19.4942 C   0  0  0  0  0  0  0  0  0  0  0  0
   19.4064   -3.3769  -17.0199 C   0  0  2  0  0  0  0  0  0  0  0  0
   19.2153   -4.7685  -16.7927 N   0  0  0  0  0  0  0  0  0  0  0  0
   18.2308   -2.5522  -16.6642 C   0  0  0  0  0  0  0  0  0  0  0  0
   18.4143   -1.3395  -16.4036 O   0  0  0  0  0  0  0  0  0  0  0  0
   16.9482   -3.0480  -16.6049 O   0  0  0  0  0  0  0  0  0  0  0  0
  2  1  1  6
  2 10  1  0
  3  2  1  0
  3  4  1  0
  4  5  2  0
  4  9  1  0
  5  6  1  0
  6  7  2  0
  8  7  1  0
  9  8  2  0
 10 11  2  0
 12 13  1  0
 14 13  1  1
 14 16  1  0
 15 14  1  0
 15 10  1  0
 16 23  1  0
 16 17  2  0
 18 19  1  0
 19 20  1  0
 20 22  1  0
 20 21  1  6
 22 24  1  0
 22 23  1  6
 24 25  2  0
 24 26  1  0
M  END
$$$$
