FSI.pdb
     RDKit          3D

 26 26  0  0  1  0  0  0  0  0999 V2000
   25.8424  -21.8009  -17.0404 N   0  0  0  0  0  0  0  0  0  0  0  0
   26.2791  -22.3614  -15.7792 C   0  0  1  0  0  0  0  0  0  0  0  0
   27.6513  -22.9562  -15.9966 C   0  0  0  0  0  0  0  0  0  0  0  0
   27.4864  -24.1851  -16.8348 C   0  0  0  0  0  0  0  0  0  0  0  0
   27.9183  -24.2829  -18.1304 C   0  0  0  0  0  0  0  0  0  0  0  0
   27.7543  -25.4318  -18.8889 C   0  0  0  0  0  0  0  0  0  0  0  0
   27.1352  -26.5161  -18.3235 C   0  0  0  0  0  0  0  0  0  0  0  0
   26.6852  -26.4637  -17.0260 C   0  0  0  0  0  0  0  0  0  0  0  0
   26.8603  -25.3137  -16.2963 C   0  0  0  0  0  0  0  0  0  0  0  0
   26.2777  -21.2916  -14.7650 C   0  0  0  0  0  0  0  0  0  0  0  0
   26.5161  -20.1142  -15.1208 O   0  0  0  0  0  0  0  0  0  0  0  0
   23.5705  -20.6712  -12.5535 O   0  0  0  0  0  0  0  0  0  0  0  0
   24.6150  -19.7257  -12.6176 C   0  0  0  0  0  0  0  0  0  0  0  0
   25.8999  -20.4956  -12.3825 C   0  0  2  0  0  0  0  0  0  0  0  0
   26.0182  -21.5115  -13.3827 N   0  0  0  0  0  0  0  0  0  0  0  0
   25.8515  -21.0042  -11.0029 C   0  0  0  0  0  0  0  0  0  0  0  0
   25.3588  -22.1431  -10.8210 O   0  0  0  0  0  0  0  0  0  0  0  0
   27.8270  -18.2273   -6.1011 C   0  0  0  0  0  0  0  0  0  0  0  0
   26.8771  -18.8086   -7.0985 C   0  0  0  0  0  0  0  0  0  0  0  0
   27.1303  -20.2125   -7.5026 C   0  0  2  0  0  0  0  0  0  0  0  0
   28.6010  -20.3496   -7.8401 C   0  0  0  0  0  0  0  0  0  0  0  0
   26.2377  -20.8087   -8.5227 C   0  0  2  0  0  0  0  0  0  0  0  0
   26.3195  -20.3059   -9.8513 N   0  0  0  0  0  0  0  0  0  0  0  0
   24.8601  -20.8363   -7.9841 C   0  0  0  0  0  0  0  0  0  0  0  0
   23.9825  -20.1548   -8.5652 O   0  0  0  0  0  0  0  0  0  0  0  0
   24.4938  -21.5708   -6.8791 O   0  0  0  0  0  0  0  0  0  0  0  0
  2  1  1  6
  2 10  1  0
  3  2  1  0
  3  4  1  0
  4  5  2  0
  4  9  1  0
  5  6  1  0
  6  7  2  0
  8  7  1  0
  9  8  2  0
 10 11  2  0
 12 13  1  0
 14 13  1  6
 14 16  1  0
 15 14  1  0
 15 10  1  0
 16 23  1  0
 16 17  2  0
 18 19  1  0
 19 20  1  0
 20 22  1  0
 20 21  1  6
 22 24  1  0
 22 23  1  6
 24 25  2  0
 24 26  1  0
M  END
$$$$
