EKN.pdb
     RDKit          3D

 27 26  0  0  1  0  0  0  0  0999 V2000
   24.7472  -21.9289  -13.8761 N   0  0  0  0  0  0  0  0  0  0  0  0
   24.2351  -22.2163  -15.1543 C   0  0  1  0  0  0  0  0  0  0  0  0
   24.7931  -23.3745  -15.8767 C   0  0  0  0  0  0  0  0  0  0  0  0
   25.3844  -24.4845  -15.1055 C   0  0  0  0  0  0  0  0  0  0  0  0
   25.9235  -25.6144  -15.8716 C   0  0  0  0  0  0  0  0  0  0  0  0
   26.4365  -26.6328  -15.3766 O   0  0  0  0  0  0  0  0  0  0  0  0
   22.7414  -22.1956  -15.1690 C   0  0  0  0  0  0  0  0  0  0  0  0
   22.1123  -22.4380  -16.2472 O   0  0  0  0  0  0  0  0  0  0  0  0
   25.8509  -25.5314  -17.2567 O   0  0  0  0  0  0  0  0  0  0  0  0
   21.9963  -21.9105  -14.0116 N   0  0  0  0  0  0  0  0  0  0  0  0
   20.5637  -21.9510  -13.8620 C   0  0  1  0  0  0  0  0  0  0  0  0
   20.0924  -22.6169  -12.5592 C   0  0  0  0  0  0  0  0  0  0  0  0
   20.0479  -24.1038  -12.6602 C   0  0  0  0  0  0  0  0  0  0  0  0
   19.6064  -24.7028  -11.3217 C   0  0  0  0  0  0  0  0  0  0  0  0
   19.6598  -26.2110  -11.4114 C   0  0  0  0  0  0  0  0  0  0  0  0
   19.2807  -26.7667  -10.1380 N   0  0  0  0  0  0  0  0  0  0  0  0
   19.8469  -20.7217  -14.1023 C   0  0  0  0  0  0  0  0  0  0  0  0
   20.0601  -19.6984  -13.3719 O   0  0  0  0  0  0  0  0  0  0  0  0
   17.2076  -16.6282  -16.0960 N   0  0  0  0  0  0  0  0  0  0  0  0
   16.8439  -17.8237  -16.7579 C   0  0  0  0  0  0  0  0  0  0  0  0
   15.8275  -17.7374  -17.5300 O   0  0  0  0  0  0  0  0  0  0  0  0
   17.5331  -19.1182  -16.6268 C   0  0  0  0  0  0  0  0  0  0  0  0
   18.1871  -19.2097  -15.2917 C   0  0  2  0  0  0  0  0  0  0  0  0
   18.8720  -20.5040  -15.1190 N   0  0  0  0  0  0  0  0  0  0  0  0
   17.1432  -19.2113  -14.2042 C   0  0  0  0  0  0  0  0  0  0  0  0
   16.4992  -20.2250  -13.8818 O   0  0  0  0  0  0  0  0  0  0  0  0
   16.8567  -18.0383  -13.5022 O   0  0  0  0  0  0  0  0  0  0  0  0
  2  1  1  1
  2  3  1  0
  2  7  1  0
  4  3  1  0
  5  4  1  0
  5  9  1  0
  6  5  2  0
  7 10  1  0
  7  8  2  0
 10 11  1  0
 11 12  1  1
 13 14  1  0
 13 12  1  0
 14 15  1  0
 16 15  1  0
 17 11  1  0
 17 18  2  0
 20 19  1  0
 20 22  1  0
 21 20  2  0
 23 22  1  6
 23 24  1  0
 24 17  1  0
 25 27  1  0
 25 23  1  0
 26 25  2  0
M  END
$$$$
