EKN.pdb
     RDKit          3D

 27 26  0  0  1  0  0  0  0  0999 V2000
   16.0814  -11.3470  -16.7462 N   0  0  0  0  0  0  0  0  0  0  0  0
   17.0743  -11.0547  -15.7937 C   0  0  1  0  0  0  0  0  0  0  0  0
   18.1844  -12.0129  -15.6379 C   0  0  0  0  0  0  0  0  0  0  0  0
   18.2987  -13.1389  -16.5844 C   0  0  0  0  0  0  0  0  0  0  0  0
   19.2901  -14.1746  -16.2702 C   0  0  0  0  0  0  0  0  0  0  0  0
   20.4192  -14.2611  -16.7830 O   0  0  0  0  0  0  0  0  0  0  0  0
   17.5466   -9.6416  -15.9031 C   0  0  0  0  0  0  0  0  0  0  0  0
   18.4219   -9.3287  -16.7710 O   0  0  0  0  0  0  0  0  0  0  0  0
   18.9308  -15.1281  -15.3256 O   0  0  0  0  0  0  0  0  0  0  0  0
   17.0487   -8.6304  -15.0632 N   0  0  0  0  0  0  0  0  0  0  0  0
   17.3905   -7.2307  -15.0825 C   0  0  1  0  0  0  0  0  0  0  0  0
   16.1915   -6.2941  -14.8629 C   0  0  0  0  0  0  0  0  0  0  0  0
   15.2604   -6.2739  -16.0272 C   0  0  0  0  0  0  0  0  0  0  0  0
   14.0408   -5.4065  -15.7026 C   0  0  0  0  0  0  0  0  0  0  0  0
   13.1147   -5.3855  -16.8973 C   0  0  0  0  0  0  0  0  0  0  0  0
   11.9082   -4.6856  -16.5387 N   0  0  0  0  0  0  0  0  0  0  0  0
   18.5185   -6.8226  -14.2801 C   0  0  0  0  0  0  0  0  0  0  0  0
   18.5811   -7.1423  -13.0472 O   0  0  0  0  0  0  0  0  0  0  0  0
   23.3324   -6.3524  -15.9466 N   0  0  0  0  0  0  0  0  0  0  0  0
   22.2425   -6.9924  -15.3127 C   0  0  0  0  0  0  0  0  0  0  0  0
   21.5868   -7.8136  -16.0424 O   0  0  0  0  0  0  0  0  0  0  0  0
   21.8250   -6.7884  -13.9156 C   0  0  0  0  0  0  0  0  0  0  0  0
   20.7741   -5.7349  -13.8507 C   0  0  2  0  0  0  0  0  0  0  0  0
   19.6355   -6.0600  -14.7293 N   0  0  0  0  0  0  0  0  0  0  0  0
   21.3031   -4.4419  -14.4170 C   0  0  0  0  0  0  0  0  0  0  0  0
   22.2778   -3.8378  -13.9360 O   0  0  0  0  0  0  0  0  0  0  0  0
   20.6970   -3.8629  -15.5341 O   0  0  0  0  0  0  0  0  0  0  0  0
  2  1  1  6
  2  3  1  0
  2  7  1  0
  4  3  1  0
  5  4  1  0
  5  9  1  0
  6  5  2  0
  7 10  1  0
  7  8  2  0
 10 11  1  0
 11 12  1  1
 13 14  1  0
 13 12  1  0
 14 15  1  0
 16 15  1  0
 17 11  1  0
 17 18  2  0
 20 19  1  0
 20 22  1  0
 21 20  2  0
 23 22  1  6
 23 24  1  0
 24 17  1  0
 25 27  1  0
 25 23  1  0
 26 25  2  0
M  END
$$$$
