EKN.pdb
     RDKit          3D

 27 26  0  0  1  0  0  0  0  0999 V2000
   18.3580  -11.3019  -17.4996 N   0  0  0  0  0  0  0  0  0  0  0  0
   18.0719  -10.8025  -16.2161 C   0  0  1  0  0  0  0  0  0  0  0  0
   17.5001  -11.7332  -15.2253 C   0  0  0  0  0  0  0  0  0  0  0  0
   16.6566  -12.8497  -15.6926 C   0  0  0  0  0  0  0  0  0  0  0  0
   16.0345  -13.6904  -14.6629 C   0  0  0  0  0  0  0  0  0  0  0  0
   16.1707  -13.5360  -13.4369 O   0  0  0  0  0  0  0  0  0  0  0  0
   19.2102  -10.0065  -15.6661 C   0  0  0  0  0  0  0  0  0  0  0  0
   19.1715   -9.5858  -14.4667 O   0  0  0  0  0  0  0  0  0  0  0  0
   15.2331  -14.7376  -15.1006 O   0  0  0  0  0  0  0  0  0  0  0  0
   20.3402   -9.7006  -16.4442 N   0  0  0  0  0  0  0  0  0  0  0  0
   21.5155   -8.9758  -16.0321 C   0  0  1  0  0  0  0  0  0  0  0  0
   22.7999   -9.4083  -16.7575 C   0  0  0  0  0  0  0  0  0  0  0  0
   23.0799  -10.8649  -16.6057 C   0  0  0  0  0  0  0  0  0  0  0  0
   24.3646  -11.2282  -17.3557 C   0  0  0  0  0  0  0  0  0  0  0  0
   24.5775  -12.7230  -17.2800 C   0  0  0  0  0  0  0  0  0  0  0  0
   25.7178  -13.0723  -18.0874 N   0  0  0  0  0  0  0  0  0  0  0  0
   21.4110   -7.5373  -15.9802 C   0  0  0  0  0  0  0  0  0  0  0  0
   20.9412   -6.8895  -16.9730 O   0  0  0  0  0  0  0  0  0  0  0  0
   19.7282   -2.5287  -15.7936 N   0  0  0  0  0  0  0  0  0  0  0  0
   19.9251   -3.4760  -14.7624 C   0  0  0  0  0  0  0  0  0  0  0  0
   19.9247   -3.0030  -13.5737 O   0  0  0  0  0  0  0  0  0  0  0  0
   20.1211   -4.9225  -14.9552 C   0  0  0  0  0  0  0  0  0  0  0  0
   21.5726   -5.2494  -14.8871 C   0  0  2  0  0  0  0  0  0  0  0  0
   21.7934   -6.7073  -14.8865 N   0  0  0  0  0  0  0  0  0  0  0  0
   22.1413   -4.8026  -13.5644 C   0  0  0  0  0  0  0  0  0  0  0  0
   22.2176   -5.5470  -12.5713 O   0  0  0  0  0  0  0  0  0  0  0  0
   22.6150   -3.4982  -13.4069 O   0  0  0  0  0  0  0  0  0  0  0  0
  2  1  1  6
  2  3  1  0
  2  7  1  0
  4  3  1  0
  5  4  1  0
  5  9  1  0
  6  5  2  0
  7 10  1  0
  7  8  2  0
 10 11  1  0
 11 12  1  6
 13 14  1  0
 13 12  1  0
 14 15  1  0
 16 15  1  0
 17 11  1  0
 17 18  2  0
 20 19  1  0
 20 22  1  0
 21 20  2  0
 23 22  1  1
 23 24  1  0
 24 17  1  0
 25 27  1  0
 25 23  1  0
 26 25  2  0
M  END
$$$$
