EKN.pdb
     RDKit          3D

 27 26  0  0  1  0  0  0  0  0999 V2000
   21.0681  -20.3150  -12.9665 N   0  0  0  0  0  0  0  0  0  0  0  0
   20.4158  -19.0719  -13.0549 C   0  0  1  0  0  0  0  0  0  0  0  0
   20.2471  -18.2915  -11.8151 C   0  0  0  0  0  0  0  0  0  0  0  0
   19.7616  -18.9718  -10.5993 C   0  0  0  0  0  0  0  0  0  0  0  0
   18.4702  -19.6628  -10.6938 C   0  0  0  0  0  0  0  0  0  0  0  0
   18.1769  -20.7129  -10.0966 O   0  0  0  0  0  0  0  0  0  0  0  0
   20.9448  -18.2490  -14.1840 C   0  0  0  0  0  0  0  0  0  0  0  0
   20.8867  -16.9799  -14.1280 O   0  0  0  0  0  0  0  0  0  0  0  0
   17.5065  -19.0925  -11.5164 O   0  0  0  0  0  0  0  0  0  0  0  0
   21.5122  -18.8410  -15.3256 N   0  0  0  0  0  0  0  0  0  0  0  0
   22.0221  -18.1722  -16.4957 C   0  0  1  0  0  0  0  0  0  0  0  0
   22.9638  -19.0387  -17.3473 C   0  0  0  0  0  0  0  0  0  0  0  0
   24.1195  -19.5654  -16.5664 C   0  0  0  0  0  0  0  0  0  0  0  0
   25.0185  -20.4100  -17.4738 C   0  0  0  0  0  0  0  0  0  0  0  0
   26.1989  -20.9125  -16.6741 C   0  0  0  0  0  0  0  0  0  0  0  0
   26.9982  -21.7688  -17.5120 N   0  0  0  0  0  0  0  0  0  0  0  0
   21.0622  -17.4840  -17.3250 C   0  0  0  0  0  0  0  0  0  0  0  0
   19.9266  -18.0106  -17.5684 O   0  0  0  0  0  0  0  0  0  0  0  0
   18.3751  -12.8986  -15.5533 N   0  0  0  0  0  0  0  0  0  0  0  0
   18.8494  -13.6447  -16.6568 C   0  0  0  0  0  0  0  0  0  0  0  0
   18.3728  -13.3065  -17.7949 O   0  0  0  0  0  0  0  0  0  0  0  0
   19.8242  -14.7460  -16.5897 C   0  0  0  0  0  0  0  0  0  0  0  0
   20.1833  -15.1879  -17.9661 C   0  0  2  0  0  0  0  0  0  0  0  0
   21.2445  -16.2112  -17.9398 N   0  0  0  0  0  0  0  0  0  0  0  0
   20.8074  -14.0470  -18.7285 C   0  0  0  0  0  0  0  0  0  0  0  0
   20.1772  -13.0292  -19.0648 O   0  0  0  0  0  0  0  0  0  0  0  0
   22.1546  -14.0981  -19.0932 O   0  0  0  0  0  0  0  0  0  0  0  0
  2  1  1  1
  2  3  1  0
  2  7  1  0
  4  3  1  0
  5  4  1  0
  5  9  1  0
  6  5  2  0
  7 10  1  0
  7  8  2  0
 10 11  1  0
 11 12  1  6
 13 14  1  0
 13 12  1  0
 14 15  1  0
 16 15  1  0
 17 11  1  0
 17 18  2  0
 20 19  1  0
 20 22  1  0
 21 20  2  0
 23 22  1  1
 23 24  1  0
 24 17  1  0
 25 27  1  0
 25 23  1  0
 26 25  2  0
M  END
$$$$
