EKN.pdb
     RDKit          3D

 27 26  0  0  1  0  0  0  0  0999 V2000
   15.8123  -13.7045  -14.7345 N   0  0  0  0  0  0  0  0  0  0  0  0
   16.7047  -13.4654  -15.7952 C   0  0  1  0  0  0  0  0  0  0  0  0
   16.4564  -14.1554  -17.0747 C   0  0  0  0  0  0  0  0  0  0  0  0
   15.9313  -15.5340  -17.0565 C   0  0  0  0  0  0  0  0  0  0  0  0
   16.7687  -16.5569  -16.4188 C   0  0  0  0  0  0  0  0  0  0  0  0
   16.6097  -16.9924  -15.2653 O   0  0  0  0  0  0  0  0  0  0  0  0
   16.9748  -12.0068  -15.9724 C   0  0  0  0  0  0  0  0  0  0  0  0
   17.6380  -11.6002  -16.9784 O   0  0  0  0  0  0  0  0  0  0  0  0
   17.8179  -17.0732  -17.1692 O   0  0  0  0  0  0  0  0  0  0  0  0
   16.5143  -11.0537  -15.0476 N   0  0  0  0  0  0  0  0  0  0  0  0
   16.6511   -9.6214  -15.1264 C   0  0  1  0  0  0  0  0  0  0  0  0
   15.4539   -8.8489  -14.5495 C   0  0  0  0  0  0  0  0  0  0  0  0
   14.1724   -9.1858  -15.2330 C   0  0  0  0  0  0  0  0  0  0  0  0
   13.0256   -8.3828  -14.6126 C   0  0  0  0  0  0  0  0  0  0  0  0
   11.7236   -8.7949  -15.2612 C   0  0  0  0  0  0  0  0  0  0  0  0
   10.6405   -8.1022  -14.6122 N   0  0  0  0  0  0  0  0  0  0  0  0
   17.8985   -9.0583  -14.6684 C   0  0  0  0  0  0  0  0  0  0  0  0
   18.4117   -9.4414  -13.5657 O   0  0  0  0  0  0  0  0  0  0  0  0
   23.4503   -9.3544  -14.6860 N   0  0  0  0  0  0  0  0  0  0  0  0
   22.3036   -8.5317  -14.5968 C   0  0  0  0  0  0  0  0  0  0  0  0
   22.4959   -7.3736  -14.0883 O   0  0  0  0  0  0  0  0  0  0  0  0
   20.9483   -8.9022  -15.0368 C   0  0  0  0  0  0  0  0  0  0  0  0
   20.0437   -7.7233  -14.9348 C   0  0  2  0  0  0  0  0  0  0  0  0
   18.6690   -8.0667  -15.3425 N   0  0  0  0  0  0  0  0  0  0  0  0
   20.4567   -6.6677  -15.9286 C   0  0  0  0  0  0  0  0  0  0  0  0
   21.0167   -5.6071  -15.6003 O   0  0  0  0  0  0  0  0  0  0  0  0
   20.2162   -6.8525  -17.2920 O   0  0  0  0  0  0  0  0  0  0  0  0
  2  1  1  1
  2  3  1  0
  2  7  1  0
  4  3  1  0
  5  4  1  0
  5  9  1  0
  6  5  2  0
  7 10  1  0
  7  8  2  0
 10 11  1  0
 11 12  1  1
 13 14  1  0
 13 12  1  0
 14 15  1  0
 16 15  1  0
 17 11  1  0
 17 18  2  0
 20 19  1  0
 20 22  1  0
 21 20  2  0
 23 22  1  6
 23 24  1  0
 24 17  1  0
 25 27  1  0
 25 23  1  0
 26 25  2  0
M  END
$$$$
