EKN.pdb
     RDKit          3D

 27 26  0  0  1  0  0  0  0  0999 V2000
   22.1146  -20.0085   -9.4013 N   0  0  0  0  0  0  0  0  0  0  0  0
   21.5008  -20.5728  -10.5342 C   0  0  1  0  0  0  0  0  0  0  0  0
   20.0272  -20.6101  -10.5738 C   0  0  0  0  0  0  0  0  0  0  0  0
   19.2962  -21.2743   -9.4779 C   0  0  0  0  0  0  0  0  0  0  0  0
   18.7775  -22.6212   -9.7440 C   0  0  0  0  0  0  0  0  0  0  0  0
   18.9343  -23.2500  -10.8048 O   0  0  0  0  0  0  0  0  0  0  0  0
   22.0965  -20.0536  -11.8021 C   0  0  0  0  0  0  0  0  0  0  0  0
   21.9644  -18.8273  -12.1116 O   0  0  0  0  0  0  0  0  0  0  0  0
   18.0565  -23.2337   -8.7263 O   0  0  0  0  0  0  0  0  0  0  0  0
   22.8079  -20.8902  -12.6795 N   0  0  0  0  0  0  0  0  0  0  0  0
   23.3064  -20.5604  -13.9906 C   0  0  1  0  0  0  0  0  0  0  0  0
   24.5573  -21.3549  -14.3991 C   0  0  0  0  0  0  0  0  0  0  0  0
   25.1283  -20.8955  -15.6975 C   0  0  0  0  0  0  0  0  0  0  0  0
   26.3718  -21.7212  -16.0398 C   0  0  0  0  0  0  0  0  0  0  0  0
   26.9495  -21.2292  -17.3474 C   0  0  0  0  0  0  0  0  0  0  0  0
   28.2024  -21.8990  -17.5840 N   0  0  0  0  0  0  0  0  0  0  0  0
   22.3438  -20.5240  -15.0653 C   0  0  0  0  0  0  0  0  0  0  0  0
   21.3520  -21.3254  -15.0689 O   0  0  0  0  0  0  0  0  0  0  0  0
   18.7874  -17.9607  -17.8172 N   0  0  0  0  0  0  0  0  0  0  0  0
   19.3042  -17.5443  -16.5686 C   0  0  0  0  0  0  0  0  0  0  0  0
   18.6450  -16.6180  -15.9818 O   0  0  0  0  0  0  0  0  0  0  0  0
   20.5076  -18.0870  -15.9165 C   0  0  0  0  0  0  0  0  0  0  0  0
   21.1450  -19.1043  -16.7981 C   0  0  2  0  0  0  0  0  0  0  0  0
   22.3729  -19.6469  -16.1883 N   0  0  0  0  0  0  0  0  0  0  0  0
   21.6348  -18.4541  -18.0669 C   0  0  0  0  0  0  0  0  0  0  0  0
   22.6241  -17.7018  -18.1069 O   0  0  0  0  0  0  0  0  0  0  0  0
   20.9729  -18.6825  -19.2754 O   0  0  0  0  0  0  0  0  0  0  0  0
  2  1  1  1
  2  3  1  0
  2  7  1  0
  4  3  1  0
  5  4  1  0
  5  9  1  0
  6  5  2  0
  7 10  1  0
  7  8  2  0
 10 11  1  0
 11 12  1  6
 13 14  1  0
 13 12  1  0
 14 15  1  0
 16 15  1  0
 17 11  1  0
 17 18  2  0
 20 19  1  0
 20 22  1  0
 21 20  2  0
 23 22  1  1
 23 24  1  0
 24 17  1  0
 25 27  1  0
 25 23  1  0
 26 25  2  0
M  END
$$$$
