EKN.pdb
     RDKit          3D

 27 26  0  0  1  0  0  0  0  0999 V2000
   27.1991  -22.5363  -15.6144 N   0  0  0  0  0  0  0  0  0  0  0  0
   27.0651  -21.3843  -14.8184 C   0  0  1  0  0  0  0  0  0  0  0  0
   27.3366  -20.0773  -15.4450 C   0  0  0  0  0  0  0  0  0  0  0  0
   26.5666  -19.6800  -16.6391 C   0  0  0  0  0  0  0  0  0  0  0  0
   26.9228  -18.4016  -17.2659 C   0  0  0  0  0  0  0  0  0  0  0  0
   28.0770  -17.9495  -17.3599 O   0  0  0  0  0  0  0  0  0  0  0  0
   25.7891  -21.3946  -14.0414 C   0  0  0  0  0  0  0  0  0  0  0  0
   24.7163  -21.8074  -14.5852 O   0  0  0  0  0  0  0  0  0  0  0  0
   25.8838  -17.6442  -17.7926 O   0  0  0  0  0  0  0  0  0  0  0  0
   25.7342  -20.9539  -12.7077 N   0  0  0  0  0  0  0  0  0  0  0  0
   24.5617  -20.8066  -11.8831 C   0  0  1  0  0  0  0  0  0  0  0  0
   24.8493  -20.2216  -10.4910 C   0  0  0  0  0  0  0  0  0  0  0  0
   23.6134  -20.0554   -9.6737 C   0  0  0  0  0  0  0  0  0  0  0  0
   23.4556  -21.2447   -8.7219 C   0  0  0  0  0  0  0  0  0  0  0  0
   22.1375  -21.1243   -7.9915 C   0  0  0  0  0  0  0  0  0  0  0  0
   22.0174  -22.2197   -7.0643 N   0  0  0  0  0  0  0  0  0  0  0  0
   23.4158  -20.1682  -12.4850 C   0  0  0  0  0  0  0  0  0  0  0  0
   23.5459  -19.0591  -13.1007 O   0  0  0  0  0  0  0  0  0  0  0  0
   19.3637  -20.1300  -15.7413 N   0  0  0  0  0  0  0  0  0  0  0  0
   20.5615  -20.8684  -15.8814 C   0  0  0  0  0  0  0  0  0  0  0  0
   20.7467  -21.4033  -17.0288 O   0  0  0  0  0  0  0  0  0  0  0  0
   21.5787  -21.0559  -14.8336 C   0  0  0  0  0  0  0  0  0  0  0  0
   21.1314  -20.4027  -13.5720 C   0  0  2  0  0  0  0  0  0  0  0  0
   22.0782  -20.6599  -12.4713 N   0  0  0  0  0  0  0  0  0  0  0  0
   19.8480  -21.0311  -13.0919 C   0  0  0  0  0  0  0  0  0  0  0  0
   18.8126  -21.0718  -13.7794 O   0  0  0  0  0  0  0  0  0  0  0  0
   19.7781  -21.6051  -11.8206 O   0  0  0  0  0  0  0  0  0  0  0  0
  2  1  1  6
  2  3  1  0
  2  7  1  0
  4  3  1  0
  5  4  1  0
  5  9  1  0
  6  5  2  0
  7 10  1  0
  7  8  2  0
 10 11  1  0
 11 12  1  1
 13 14  1  0
 13 12  1  0
 14 15  1  0
 16 15  1  0
 17 11  1  0
 17 18  2  0
 20 19  1  0
 20 22  1  0
 21 20  2  0
 23 22  1  6
 23 24  1  0
 24 17  1  0
 25 27  1  0
 25 23  1  0
 26 25  2  0
M  END
$$$$
