EKN.pdb
     RDKit          3D

 27 26  0  0  1  0  0  0  0  0999 V2000
   18.7246  -13.4983  -16.1986 N   0  0  0  0  0  0  0  0  0  0  0  0
   17.9433  -12.3812  -15.8520 C   0  0  1  0  0  0  0  0  0  0  0  0
   16.5817  -12.6235  -15.3401 C   0  0  0  0  0  0  0  0  0  0  0  0
   15.6048  -13.3184  -16.2000 C   0  0  0  0  0  0  0  0  0  0  0  0
   14.2254  -13.4038  -15.7060 C   0  0  0  0  0  0  0  0  0  0  0  0
   13.8310  -12.9683  -14.6105 O   0  0  0  0  0  0  0  0  0  0  0  0
   18.7081  -11.4106  -15.0124 C   0  0  0  0  0  0  0  0  0  0  0  0
   19.0341  -11.7177  -13.8222 O   0  0  0  0  0  0  0  0  0  0  0  0
   13.2946  -14.0207  -16.5328 O   0  0  0  0  0  0  0  0  0  0  0  0
   19.0837  -10.1476  -15.5021 N   0  0  0  0  0  0  0  0  0  0  0  0
   19.7629   -9.0984  -14.7851 C   0  0  1  0  0  0  0  0  0  0  0  0
   20.7681   -8.3100  -15.6400 C   0  0  0  0  0  0  0  0  0  0  0  0
   21.9907   -9.1008  -15.9608 C   0  0  0  0  0  0  0  0  0  0  0  0
   22.9430   -8.2613  -16.8171 C   0  0  0  0  0  0  0  0  0  0  0  0
   24.1836   -9.0711  -17.1186 C   0  0  0  0  0  0  0  0  0  0  0  0
   25.0649   -8.2836  -17.9415 N   0  0  0  0  0  0  0  0  0  0  0  0
   18.9433   -8.2080  -13.9989 C   0  0  0  0  0  0  0  0  0  0  0  0
   17.9541   -7.6044  -14.5314 O   0  0  0  0  0  0  0  0  0  0  0  0
   16.6877   -5.2257  -10.3280 N   0  0  0  0  0  0  0  0  0  0  0  0
   17.6078   -6.1066   -9.7140 C   0  0  0  0  0  0  0  0  0  0  0  0
   17.7278   -5.9805   -8.4465 O   0  0  0  0  0  0  0  0  0  0  0  0
   18.4092   -7.1277  -10.4090 C   0  0  0  0  0  0  0  0  0  0  0  0
   18.2012   -7.0188  -11.8798 C   0  0  2  0  0  0  0  0  0  0  0  0
   19.1194   -7.9061  -12.6172 N   0  0  0  0  0  0  0  0  0  0  0  0
   18.5810   -5.6394  -12.3545 C   0  0  0  0  0  0  0  0  0  0  0  0
   17.8766   -4.6342  -12.1551 O   0  0  0  0  0  0  0  0  0  0  0  0
   19.7726   -5.4397  -13.0552 O   0  0  0  0  0  0  0  0  0  0  0  0
  2  1  1  1
  2  3  1  0
  2  7  1  0
  4  3  1  0
  5  4  1  0
  5  9  1  0
  6  5  2  0
  7 10  1  0
  7  8  2  0
 10 11  1  0
 11 12  1  6
 13 14  1  0
 13 12  1  0
 14 15  1  0
 16 15  1  0
 17 11  1  0
 17 18  2  0
 20 19  1  0
 20 22  1  0
 21 20  2  0
 23 22  1  1
 23 24  1  0
 24 17  1  0
 25 27  1  0
 25 23  1  0
 26 25  2  0
M  END
$$$$
