EKN.pdb
     RDKit          3D

 27 26  0  0  1  0  0  0  0  0999 V2000
   22.3368  -20.8177  -16.3524 N   0  0  0  0  0  0  0  0  0  0  0  0
   21.5867  -19.9010  -15.5937 C   0  0  1  0  0  0  0  0  0  0  0  0
   21.5372  -20.0923  -14.1323 C   0  0  0  0  0  0  0  0  0  0  0  0
   20.3644  -20.7591  -13.5351 C   0  0  0  0  0  0  0  0  0  0  0  0
   20.3342  -20.8682  -12.0718 C   0  0  0  0  0  0  0  0  0  0  0  0
   21.2639  -20.5453  -11.3123 O   0  0  0  0  0  0  0  0  0  0  0  0
   21.8869  -18.4889  -15.9780 C   0  0  0  0  0  0  0  0  0  0  0  0
   21.4598  -17.5297  -15.2606 O   0  0  0  0  0  0  0  0  0  0  0  0
   19.1729  -21.3723  -11.4990 O   0  0  0  0  0  0  0  0  0  0  0  0
   22.6364  -18.1805  -17.1265 N   0  0  0  0  0  0  0  0  0  0  0  0
   22.9141  -16.8728  -17.6644 C   0  0  1  0  0  0  0  0  0  0  0  0
   24.0405  -16.8562  -18.7102 C   0  0  0  0  0  0  0  0  0  0  0  0
   25.3891  -17.0403  -18.1017 C   0  0  0  0  0  0  0  0  0  0  0  0
   26.4410  -17.1904  -19.2045 C   0  0  0  0  0  0  0  0  0  0  0  0
   27.7920  -17.4352  -18.5716 C   0  0  0  0  0  0  0  0  0  0  0  0
   28.7644  -17.6386  -19.6142 N   0  0  0  0  0  0  0  0  0  0  0  0
   21.7825  -16.0967  -18.1115 C   0  0  0  0  0  0  0  0  0  0  0  0
   20.9324  -16.6023  -18.9163 O   0  0  0  0  0  0  0  0  0  0  0  0
   18.0146  -12.5864  -19.0014 N   0  0  0  0  0  0  0  0  0  0  0  0
   18.2199  -12.9354  -17.6466 C   0  0  0  0  0  0  0  0  0  0  0  0
   17.2994  -12.5669  -16.8382 O   0  0  0  0  0  0  0  0  0  0  0  0
   19.3803  -13.6723  -17.1192 C   0  0  0  0  0  0  0  0  0  0  0  0
   20.2953  -14.0404  -18.2353 C   0  0  2  0  0  0  0  0  0  0  0  0
   21.4862  -14.7536  -17.7380 N   0  0  0  0  0  0  0  0  0  0  0  0
   20.8640  -12.7963  -18.8688 C   0  0  0  0  0  0  0  0  0  0  0  0
   20.1558  -11.8856  -19.3329 O   0  0  0  0  0  0  0  0  0  0  0  0
   22.2468  -12.6211  -18.9579 O   0  0  0  0  0  0  0  0  0  0  0  0
  2  1  1  1
  2  3  1  0
  2  7  1  0
  4  3  1  0
  5  4  1  0
  5  9  1  0
  6  5  2  0
  7 10  1  0
  7  8  2  0
 10 11  1  0
 11 12  1  6
 13 14  1  0
 13 12  1  0
 14 15  1  0
 16 15  1  0
 17 11  1  0
 17 18  2  0
 20 19  1  0
 20 22  1  0
 21 20  2  0
 23 22  1  1
 23 24  1  0
 24 17  1  0
 25 27  1  0
 25 23  1  0
 26 25  2  0
M  END
$$$$
