WLD.pdb
     RDKit          3D

 31 32  0  0  1  0  0  0  0  0999 V2000
   25.5404  -18.6423   -8.5194 N   0  0  0  0  0  0  0  0  0  0  0  0
   26.2143  -19.6364   -9.2981 C   0  0  1  0  0  0  0  0  0  0  0  0
   26.0006  -20.9986   -8.6733 C   0  0  0  0  0  0  0  0  0  0  0  0
   26.1684  -20.9651   -7.2082 C   0  0  0  0  0  0  0  0  0  0  0  0
   25.2478  -21.4089   -6.2982 C   0  0  0  0  0  0  0  0  0  0  0  0
   25.7599  -21.2121   -5.0613 N   0  0  0  0  0  0  0  0  0  0  0  0
   26.9918  -20.6499   -5.1723 C   0  0  0  0  0  0  0  0  0  0  0  0
   27.9333  -20.2492   -4.2434 C   0  0  0  0  0  0  0  0  0  0  0  0
   29.1188  -19.6981   -4.6926 C   0  0  0  0  0  0  0  0  0  0  0  0
   29.3918  -19.5360   -6.0227 C   0  0  0  0  0  0  0  0  0  0  0  0
   28.4380  -19.9428   -6.9402 C   0  0  0  0  0  0  0  0  0  0  0  0
   27.2454  -20.4962   -6.5174 C   0  0  0  0  0  0  0  0  0  0  0  0
   25.7080  -19.7075  -10.6870 C   0  0  0  0  0  0  0  0  0  0  0  0
   24.6708  -19.1155  -11.0697 O   0  0  0  0  0  0  0  0  0  0  0  0
   30.1771  -21.2070  -13.8698 C   0  0  0  0  0  0  0  0  0  0  0  0
   28.7898  -21.3838  -13.1946 C   0  0  1  0  0  0  0  0  0  0  0  0
   29.1502  -21.7314  -11.7550 C   0  0  0  0  0  0  0  0  0  0  0  0
   28.1143  -20.0828  -13.3352 C   0  0  0  0  0  0  0  0  0  0  0  0
   26.7217  -19.9033  -12.9372 C   0  0  2  0  0  0  0  0  0  0  0  0
   26.4322  -20.4910  -11.6564 N   0  0  0  0  0  0  0  0  0  0  0  0
   25.6962  -20.3689  -13.8908 C   0  0  0  0  0  0  0  0  0  0  0  0
   25.8170  -20.4782  -15.1153 O   0  0  0  0  0  0  0  0  0  0  0  0
   24.4373  -20.7269  -13.3239 N   0  0  0  0  0  0  0  0  0  0  0  0
   23.4774  -21.5766  -14.0145 C   0  0  1  0  0  0  0  0  0  0  0  0
   24.1657  -22.8792  -14.3431 C   0  0  0  0  0  0  0  0  0  0  0  0
   23.2325  -23.8009  -15.0145 C   0  0  0  0  0  0  0  0  0  0  0  0
   22.0362  -23.5234  -15.1739 O   0  0  0  0  0  0  0  0  0  0  0  0
   22.2373  -21.7446  -13.2566 C   0  0  0  0  0  0  0  0  0  0  0  0
   21.5146  -22.7345  -13.4319 O   0  0  0  0  0  0  0  0  0  0  0  0
   23.7423  -25.0208  -15.4763 O   0  0  0  0  0  0  0  0  0  0  0  0
   21.8612  -20.7745  -12.3203 O   0  0  0  0  0  0  0  0  0  0  0  0
  2  1  1  1
  3  4  1  0
  3  2  1  0
  4  5  2  0
  6  5  1  0
  7  6  1  0
  8  7  2  0
  9  8  1  0
 10  9  2  0
 10 11  1  0
 11 12  2  0
 12  7  1  0
 12  4  1  0
 13  2  1  0
 13 20  1  0
 14 13  2  0
 16 18  1  0
 16 15  1  6
 17 16  1  0
 19 18  1  6
 19 20  1  0
 19 21  1  0
 21 22  2  0
 21 23  1  0
 23 24  1  0
 24 28  1  0
 25 26  1  0
 24 25  1  1
 26 27  2  0
 28 29  2  0
 28 31  1  0
 30 26  1  0
M  END
$$$$
