WLD.pdb
     RDKit          3D

 31 32  0  0  1  0  0  0  0  0999 V2000
   25.3086  -18.6852   -8.6448 N   0  0  0  0  0  0  0  0  0  0  0  0
   26.3304  -19.6632   -8.8644 C   0  0  1  0  0  0  0  0  0  0  0  0
   25.9761  -20.9382   -8.1294 C   0  0  0  0  0  0  0  0  0  0  0  0
   25.9302  -20.7375   -6.6688 C   0  0  0  0  0  0  0  0  0  0  0  0
   24.8528  -21.0060   -5.8689 C   0  0  0  0  0  0  0  0  0  0  0  0
   25.1932  -20.6938   -4.5970 N   0  0  0  0  0  0  0  0  0  0  0  0
   26.4705  -20.2312   -4.5774 C   0  0  0  0  0  0  0  0  0  0  0  0
   27.2962  -19.7828   -3.5640 C   0  0  0  0  0  0  0  0  0  0  0  0
   28.5763  -19.3694   -3.8823 C   0  0  0  0  0  0  0  0  0  0  0  0
   29.0533  -19.3887   -5.1637 C   0  0  0  0  0  0  0  0  0  0  0  0
   28.2133  -19.8410   -6.1673 C   0  0  0  0  0  0  0  0  0  0  0  0
   26.9299  -20.2595   -5.8757 C   0  0  0  0  0  0  0  0  0  0  0  0
   26.4843  -20.0106  -10.2947 C   0  0  0  0  0  0  0  0  0  0  0  0
   25.9046  -19.3896  -11.2173 O   0  0  0  0  0  0  0  0  0  0  0  0
   31.3673  -22.6271  -10.9012 C   0  0  0  0  0  0  0  0  0  0  0  0
   30.0917  -21.8049  -10.5719 C   0  0  1  0  0  0  0  0  0  0  0  0
   30.6564  -20.4809  -10.0704 C   0  0  0  0  0  0  0  0  0  0  0  0
   29.3583  -21.6887  -11.8436 C   0  0  0  0  0  0  0  0  0  0  0  0
   28.0479  -21.0495  -11.9088 C   0  0  2  0  0  0  0  0  0  0  0  0
   27.3383  -21.1133  -10.6589 N   0  0  0  0  0  0  0  0  0  0  0  0
   27.1363  -21.5168  -12.9709 C   0  0  0  0  0  0  0  0  0  0  0  0
   27.4491  -21.8869  -14.1073 O   0  0  0  0  0  0  0  0  0  0  0  0
   25.7501  -21.5379  -12.6354 N   0  0  0  0  0  0  0  0  0  0  0  0
   24.7092  -21.8239  -13.6126 C   0  0  1  0  0  0  0  0  0  0  0  0
   23.4638  -22.2223  -12.8582 C   0  0  0  0  0  0  0  0  0  0  0  0
   22.3520  -22.4713  -13.7924 C   0  0  0  0  0  0  0  0  0  0  0  0
   22.5424  -22.8808  -14.9456 O   0  0  0  0  0  0  0  0  0  0  0  0
   24.5001  -20.7145  -14.5432 C   0  0  0  0  0  0  0  0  0  0  0  0
   24.4680  -19.5443  -14.1401 O   0  0  0  0  0  0  0  0  0  0  0  0
   21.0508  -22.2290  -13.3347 O   0  0  0  0  0  0  0  0  0  0  0  0
   24.3338  -20.9776  -15.9079 O   0  0  0  0  0  0  0  0  0  0  0  0
  2  1  1  6
  3  4  1  0
  3  2  1  0
  4  5  2  0
  6  5  1  0
  7  6  1  0
  8  7  2  0
  9  8  1  0
 10  9  2  0
 10 11  1  0
 11 12  2  0
 12  7  1  0
 12  4  1  0
 13  2  1  0
 13 20  1  0
 14 13  2  0
 16 18  1  0
 16 15  1  6
 17 16  1  0
 19 18  1  1
 19 20  1  0
 19 21  1  0
 21 22  2  0
 21 23  1  0
 23 24  1  0
 24 28  1  0
 25 26  1  0
 24 25  1  1
 26 27  2  0
 28 29  2  0
 28 31  1  0
 30 26  1  0
M  END
$$$$
