WLD.pdb
     RDKit          3D

 31 32  0  0  1  0  0  0  0  0999 V2000
   27.7752  -20.8099  -14.4920 N   0  0  0  0  0  0  0  0  0  0  0  0
   26.9510  -20.0240  -13.6248 C   0  0  1  0  0  0  0  0  0  0  0  0
   25.6326  -19.7315  -14.3086 C   0  0  0  0  0  0  0  0  0  0  0  0
   25.8050  -18.8649  -15.4897 C   0  0  0  0  0  0  0  0  0  0  0  0
   25.5204  -19.2230  -16.7794 C   0  0  0  0  0  0  0  0  0  0  0  0
   25.8081  -18.1674  -17.5756 N   0  0  0  0  0  0  0  0  0  0  0  0
   26.2712  -17.1444  -16.8106 C   0  0  0  0  0  0  0  0  0  0  0  0
   26.7005  -15.8645  -17.1062 C   0  0  0  0  0  0  0  0  0  0  0  0
   27.1208  -15.0483  -16.0729 C   0  0  0  0  0  0  0  0  0  0  0  0
   27.1266  -15.4630  -14.7698 C   0  0  0  0  0  0  0  0  0  0  0  0
   26.6933  -16.7481  -14.4907 C   0  0  0  0  0  0  0  0  0  0  0  0
   26.2683  -17.5835  -15.5051 C   0  0  0  0  0  0  0  0  0  0  0  0
   26.6411  -20.7182  -12.3549 C   0  0  0  0  0  0  0  0  0  0  0  0
   26.6350  -21.9670  -12.2401 O   0  0  0  0  0  0  0  0  0  0  0  0
   27.5900  -21.5853   -7.2442 C   0  0  0  0  0  0  0  0  0  0  0  0
   26.4547  -20.5444   -7.4423 C   0  0  1  0  0  0  0  0  0  0  0  0
   26.7208  -19.5308   -6.3354 C   0  0  0  0  0  0  0  0  0  0  0  0
   26.6494  -20.0018   -8.7974 C   0  0  0  0  0  0  0  0  0  0  0  0
   26.0200  -20.6194   -9.9604 C   0  0  2  0  0  0  0  0  0  0  0  0
   26.3297  -19.9334  -11.1866 N   0  0  0  0  0  0  0  0  0  0  0  0
   24.5570  -20.8022   -9.9014 C   0  0  0  0  0  0  0  0  0  0  0  0
   23.9063  -21.2811   -8.9668 O   0  0  0  0  0  0  0  0  0  0  0  0
   23.8305  -20.3764  -11.0526 N   0  0  0  0  0  0  0  0  0  0  0  0
   22.3756  -20.3884  -11.1128 C   0  0  1  0  0  0  0  0  0  0  0  0
   21.9554  -19.5610  -12.3033 C   0  0  0  0  0  0  0  0  0  0  0  0
   20.4900  -19.5837  -12.4562 C   0  0  0  0  0  0  0  0  0  0  0  0
   19.9073  -20.4911  -13.0652 O   0  0  0  0  0  0  0  0  0  0  0  0
   21.8306  -21.7461  -11.1217 C   0  0  0  0  0  0  0  0  0  0  0  0
   22.4137  -22.6611  -11.7180 O   0  0  0  0  0  0  0  0  0  0  0  0
   19.7599  -18.5342  -11.8847 O   0  0  0  0  0  0  0  0  0  0  0  0
   20.6340  -22.0163  -10.4476 O   0  0  0  0  0  0  0  0  0  0  0  0
  2  1  1  6
  3  4  1  0
  3  2  1  0
  4  5  2  0
  6  5  1  0
  7  6  1  0
  8  7  2  0
  9  8  1  0
 10  9  2  0
 10 11  1  0
 11 12  2  0
 12  7  1  0
 12  4  1  0
 13  2  1  0
 13 20  1  0
 14 13  2  0
 16 18  1  0
 16 15  1  1
 17 16  1  0
 19 18  1  1
 19 20  1  0
 19 21  1  0
 21 22  2  0
 21 23  1  0
 23 24  1  0
 24 28  1  0
 25 26  1  0
 24 25  1  6
 26 27  2  0
 28 29  2  0
 28 31  1  0
 30 26  1  0
M  END
$$$$
