WLD.pdb
     RDKit          3D

 31 32  0  0  1  0  0  0  0  0999 V2000
   27.8455  -19.9238   -9.7669 N   0  0  0  0  0  0  0  0  0  0  0  0
   26.9315  -21.0244   -9.8133 C   0  0  1  0  0  0  0  0  0  0  0  0
   26.1692  -21.1040   -8.5080 C   0  0  0  0  0  0  0  0  0  0  0  0
   26.7579  -20.2341   -7.4724 C   0  0  0  0  0  0  0  0  0  0  0  0
   26.7276  -18.8660   -7.4804 C   0  0  0  0  0  0  0  0  0  0  0  0
   27.3684  -18.4309   -6.3708 N   0  0  0  0  0  0  0  0  0  0  0  0
   27.8050  -19.5023   -5.6585 C   0  0  0  0  0  0  0  0  0  0  0  0
   28.5016  -19.6256   -4.4713 C   0  0  0  0  0  0  0  0  0  0  0  0
   28.7995  -20.8915   -4.0028 C   0  0  0  0  0  0  0  0  0  0  0  0
   28.4291  -22.0247   -4.6725 C   0  0  0  0  0  0  0  0  0  0  0  0
   27.7316  -21.8837   -5.8603 C   0  0  0  0  0  0  0  0  0  0  0  0
   27.4217  -20.6302   -6.3500 C   0  0  0  0  0  0  0  0  0  0  0  0
   25.9323  -20.8858  -10.8962 C   0  0  0  0  0  0  0  0  0  0  0  0
   25.4455  -19.7833  -11.2429 O   0  0  0  0  0  0  0  0  0  0  0  0
   25.9504  -22.6761  -15.9093 C   0  0  0  0  0  0  0  0  0  0  0  0
   24.7649  -23.2879  -15.1144 C   0  0  1  0  0  0  0  0  0  0  0  0
   24.7001  -24.7172  -15.6401 C   0  0  0  0  0  0  0  0  0  0  0  0
   25.1530  -23.1985  -13.6966 C   0  0  0  0  0  0  0  0  0  0  0  0
   25.0706  -21.9385  -12.9647 C   0  0  2  0  0  0  0  0  0  0  0  0
   25.4885  -22.0666  -11.5940 N   0  0  0  0  0  0  0  0  0  0  0  0
   23.7652  -21.2506  -12.9774 C   0  0  0  0  0  0  0  0  0  0  0  0
   23.5051  -20.1626  -13.5014 O   0  0  0  0  0  0  0  0  0  0  0  0
   22.7007  -21.9254  -12.3097 N   0  0  0  0  0  0  0  0  0  0  0  0
   21.3100  -21.5101  -12.4282 C   0  0  1  0  0  0  0  0  0  0  0  0
   20.9415  -21.5409  -13.8917 C   0  0  0  0  0  0  0  0  0  0  0  0
   19.5357  -21.1409  -14.0785 C   0  0  0  0  0  0  0  0  0  0  0  0
   18.9906  -20.2988  -13.3522 O   0  0  0  0  0  0  0  0  0  0  0  0
   20.4184  -22.3048  -11.5832 C   0  0  0  0  0  0  0  0  0  0  0  0
   20.3301  -23.5311  -11.7294 O   0  0  0  0  0  0  0  0  0  0  0  0
   18.8189  -21.7481  -15.1170 O   0  0  0  0  0  0  0  0  0  0  0  0
   19.6543  -21.6722  -10.5957 O   0  0  0  0  0  0  0  0  0  0  0  0
  2  1  1  1
  3  4  1  0
  3  2  1  0
  4  5  2  0
  6  5  1  0
  7  6  1  0
  8  7  2  0
  9  8  1  0
 10  9  2  0
 10 11  1  0
 11 12  2  0
 12  7  1  0
 12  4  1  0
 13  2  1  0
 13 20  1  0
 14 13  2  0
 16 18  1  0
 16 15  1  6
 17 16  1  0
 19 18  1  1
 19 20  1  0
 19 21  1  0
 21 22  2  0
 21 23  1  0
 23 24  1  0
 24 28  1  0
 25 26  1  0
 24 25  1  6
 26 27  2  0
 28 29  2  0
 28 31  1  0
 30 26  1  0
M  END
$$$$
