WLD.pdb
     RDKit          3D

 31 32  0  0  1  0  0  0  0  0999 V2000
   23.3424  -16.9957  -20.5440 N   0  0  0  0  0  0  0  0  0  0  0  0
   22.8201  -17.1216  -19.2173 C   0  0  1  0  0  0  0  0  0  0  0  0
   21.4185  -17.6901  -19.2775 C   0  0  0  0  0  0  0  0  0  0  0  0
   20.4054  -16.6375  -19.4806 C   0  0  0  0  0  0  0  0  0  0  0  0
   19.9114  -16.2412  -20.6937 C   0  0  0  0  0  0  0  0  0  0  0  0
   19.0074  -15.2590  -20.4720 N   0  0  0  0  0  0  0  0  0  0  0  0
   18.9201  -15.0257  -19.1364 C   0  0  0  0  0  0  0  0  0  0  0  0
   18.1679  -14.1479  -18.3790 C   0  0  0  0  0  0  0  0  0  0  0  0
   18.3155  -14.1595  -17.0047 C   0  0  0  0  0  0  0  0  0  0  0  0
   19.1789  -15.0084  -16.3693 C   0  0  0  0  0  0  0  0  0  0  0  0
   19.9250  -15.8816  -17.1427 C   0  0  0  0  0  0  0  0  0  0  0  0
   19.7962  -15.8900  -18.5176 C   0  0  0  0  0  0  0  0  0  0  0  0
   23.6265  -18.0329  -18.3750 C   0  0  0  0  0  0  0  0  0  0  0  0
   24.1827  -19.0652  -18.8198 O   0  0  0  0  0  0  0  0  0  0  0  0
   26.8342  -16.3298  -14.3441 C   0  0  0  0  0  0  0  0  0  0  0  0
   25.9767  -16.5868  -15.6130 C   0  0  1  0  0  0  0  0  0  0  0  0
   26.8458  -16.0283  -16.7338 C   0  0  0  0  0  0  0  0  0  0  0  0
   25.7973  -18.0470  -15.6785 C   0  0  0  0  0  0  0  0  0  0  0  0
   24.5530  -18.6383  -16.1604 C   0  0  2  0  0  0  0  0  0  0  0  0
   23.7885  -17.7315  -16.9746 N   0  0  0  0  0  0  0  0  0  0  0  0
   23.6490  -19.2009  -15.1387 C   0  0  0  0  0  0  0  0  0  0  0  0
   23.8769  -19.3182  -13.9302 O   0  0  0  0  0  0  0  0  0  0  0  0
   22.3816  -19.6530  -15.6115 N   0  0  0  0  0  0  0  0  0  0  0  0
   21.3708  -20.2205  -14.7303 C   0  0  1  0  0  0  0  0  0  0  0  0
   21.1051  -19.2232  -13.6287 C   0  0  0  0  0  0  0  0  0  0  0  0
   20.0620  -19.7261  -12.7177 C   0  0  0  0  0  0  0  0  0  0  0  0
   19.5824  -20.8622  -12.8319 O   0  0  0  0  0  0  0  0  0  0  0  0
   20.1665  -20.6272  -15.4547 C   0  0  0  0  0  0  0  0  0  0  0  0
   19.9860  -20.2844  -16.6306 O   0  0  0  0  0  0  0  0  0  0  0  0
   19.6187  -18.8711  -11.7010 O   0  0  0  0  0  0  0  0  0  0  0  0
   19.2043  -21.4144  -14.8114 O   0  0  0  0  0  0  0  0  0  0  0  0
  2  1  1  6
  3  4  1  0
  3  2  1  0
  4  5  2  0
  6  5  1  0
  7  6  1  0
  8  7  2  0
  9  8  1  0
 10  9  2  0
 10 11  1  0
 11 12  2  0
 12  7  1  0
 12  4  1  0
 13  2  1  0
 13 20  1  0
 14 13  2  0
 16 18  1  0
 16 15  1  1
 17 16  1  0
 19 18  1  1
 19 20  1  0
 19 21  1  0
 21 22  2  0
 21 23  1  0
 23 24  1  0
 24 28  1  0
 25 26  1  0
 24 25  1  1
 26 27  2  0
 28 29  2  0
 28 31  1  0
 30 26  1  0
M  END
$$$$
