WLD.pdb
     RDKit          3D

 31 32  0  0  1  0  0  0  0  0999 V2000
   16.9226  -19.0957    1.0469 N   0  0  0  0  0  0  0  0  0  0  0  0
   16.3270  -18.5234    2.2159 C   0  0  1  0  0  0  0  0  0  0  0  0
   15.8856  -19.6287    3.1513 C   0  0  0  0  0  0  0  0  0  0  0  0
   15.2241  -20.7310    2.4280 C   0  0  0  0  0  0  0  0  0  0  0  0
   15.8694  -21.7484    1.7791 C   0  0  0  0  0  0  0  0  0  0  0  0
   14.9289  -22.5584    1.2403 N   0  0  0  0  0  0  0  0  0  0  0  0
   13.6962  -22.0705    1.5374 C   0  0  0  0  0  0  0  0  0  0  0  0
   12.4157  -22.4977    1.2411 C   0  0  0  0  0  0  0  0  0  0  0  0
   11.3436  -21.7579    1.7035 C   0  0  0  0  0  0  0  0  0  0  0  0
   11.5058  -20.6192    2.4432 C   0  0  0  0  0  0  0  0  0  0  0  0
   12.7953  -20.2050    2.7314 C   0  0  0  0  0  0  0  0  0  0  0  0
   13.8835  -20.9263    2.2811 C   0  0  0  0  0  0  0  0  0  0  0  0
   17.2677  -17.6630    2.9678 C   0  0  0  0  0  0  0  0  0  0  0  0
   18.4960  -17.9012    3.0530 O   0  0  0  0  0  0  0  0  0  0  0  0
   19.4896  -13.0258    3.6212 C   0  0  0  0  0  0  0  0  0  0  0  0
   18.1704  -13.0613    4.4396 C   0  0  1  0  0  0  0  0  0  0  0  0
   17.5603  -11.6912    4.1675 C   0  0  0  0  0  0  0  0  0  0  0  0
   17.3885  -14.1763    3.8791 C   0  0  0  0  0  0  0  0  0  0  0  0
   17.7025  -15.5636    4.2058 C   0  0  2  0  0  0  0  0  0  0  0  0
   16.7611  -16.4922    3.6390 N   0  0  0  0  0  0  0  0  0  0  0  0
   17.8521  -15.8883    5.6375 C   0  0  0  0  0  0  0  0  0  0  0  0
   18.6207  -15.3532    6.4432 O   0  0  0  0  0  0  0  0  0  0  0  0
   17.0140  -16.9326    6.1288 N   0  0  0  0  0  0  0  0  0  0  0  0
   16.8829  -17.2335    7.5475 C   0  0  1  0  0  0  0  0  0  0  0  0
   15.4688  -16.9052    7.9609 C   0  0  0  0  0  0  0  0  0  0  0  0
   15.2450  -17.2714    9.3705 C   0  0  0  0  0  0  0  0  0  0  0  0
   14.1078  -17.3676    9.8514 O   0  0  0  0  0  0  0  0  0  0  0  0
   17.2820  -18.6050    7.8643 C   0  0  0  0  0  0  0  0  0  0  0  0
   17.2024  -19.0389    9.0211 O   0  0  0  0  0  0  0  0  0  0  0  0
   16.3714  -17.5124   10.1669 O   0  0  0  0  0  0  0  0  0  0  0  0
   17.7604  -19.4393    6.8473 O   0  0  0  0  0  0  0  0  0  0  0  0
  2  1  1  6
  3  4  1  0
  3  2  1  0
  4  5  2  0
  6  5  1  0
  7  6  1  0
  8  7  2  0
  9  8  1  0
 10  9  2  0
 10 11  1  0
 11 12  2  0
 12  7  1  0
 12  4  1  0
 13  2  1  0
 13 20  1  0
 14 13  2  0
 16 18  1  0
 16 15  1  6
 17 16  1  0
 19 18  1  1
 19 20  1  0
 19 21  1  0
 21 22  2  0
 21 23  1  0
 23 24  1  0
 24 28  1  0
 25 26  1  0
 24 25  1  6
 26 27  2  0
 28 29  2  0
 28 31  1  0
 30 26  1  0
M  END
$$$$
