WLD.pdb
     RDKit          3D

 31 32  0  0  1  0  0  0  0  0999 V2000
   16.8924  -19.6467    0.5891 N   0  0  0  0  0  0  0  0  0  0  0  0
   16.1419  -19.3969    1.7821 C   0  0  1  0  0  0  0  0  0  0  0  0
   15.7392  -20.7137    2.4109 C   0  0  0  0  0  0  0  0  0  0  0  0
   14.9013  -21.5228    1.5060 C   0  0  0  0  0  0  0  0  0  0  0  0
   15.3714  -22.4285    0.5943 C   0  0  0  0  0  0  0  0  0  0  0  0
   14.3057  -22.9655   -0.0436 N   0  0  0  0  0  0  0  0  0  0  0  0
   13.1660  -22.4143    0.4495 C   0  0  0  0  0  0  0  0  0  0  0  0
   11.8271  -22.5982    0.1604 C   0  0  0  0  0  0  0  0  0  0  0  0
   10.8882  -21.8633    0.8596 C   0  0  0  0  0  0  0  0  0  0  0  0
   11.2378  -20.9616    1.8264 C   0  0  0  0  0  0  0  0  0  0  0  0
   12.5834  -20.7894    2.1040 C   0  0  0  0  0  0  0  0  0  0  0  0
   13.5413  -21.5113    1.4196 C   0  0  0  0  0  0  0  0  0  0  0  0
   16.9195  -18.6479    2.7944 C   0  0  0  0  0  0  0  0  0  0  0  0
   18.0381  -19.0258    3.2169 O   0  0  0  0  0  0  0  0  0  0  0  0
   17.5500  -13.2474    2.8561 C   0  0  0  0  0  0  0  0  0  0  0  0
   17.7610  -14.7851    2.8100 C   0  0  1  0  0  0  0  0  0  0  0  0
   19.2744  -14.9208    2.6900 C   0  0  0  0  0  0  0  0  0  0  0  0
   17.2227  -15.2953    4.0823 C   0  0  0  0  0  0  0  0  0  0  0  0
   17.1210  -16.7276    4.3439 C   0  0  2  0  0  0  0  0  0  0  0  0
   16.3767  -17.4240    3.3285 N   0  0  0  0  0  0  0  0  0  0  0  0
   16.5748  -17.1229    5.6564 C   0  0  0  0  0  0  0  0  0  0  0  0
   15.3919  -17.3521    5.9292 O   0  0  0  0  0  0  0  0  0  0  0  0
   17.5252  -17.2495    6.7125 N   0  0  0  0  0  0  0  0  0  0  0  0
   17.1371  -17.5025    8.0929 C   0  0  1  0  0  0  0  0  0  0  0  0
   17.7983  -18.7868    8.5311 C   0  0  0  0  0  0  0  0  0  0  0  0
   17.3833  -19.1400    9.9001 C   0  0  0  0  0  0  0  0  0  0  0  0
   16.2980  -18.7751   10.3720 O   0  0  0  0  0  0  0  0  0  0  0  0
   17.4263  -16.3668    8.9689 C   0  0  0  0  0  0  0  0  0  0  0  0
   18.1262  -15.4238    8.5767 O   0  0  0  0  0  0  0  0  0  0  0  0
   18.2634  -19.9129   10.6678 O   0  0  0  0  0  0  0  0  0  0  0  0
   16.9055  -16.3442   10.2679 O   0  0  0  0  0  0  0  0  0  0  0  0
  2  1  1  6
  3  4  1  0
  3  2  1  0
  4  5  2  0
  6  5  1  0
  7  6  1  0
  8  7  2  0
  9  8  1  0
 10  9  2  0
 10 11  1  0
 11 12  2  0
 12  7  1  0
 12  4  1  0
 13  2  1  0
 13 20  1  0
 14 13  2  0
 16 18  1  0
 16 15  1  1
 17 16  1  0
 19 18  1  6
 19 20  1  0
 19 21  1  0
 21 22  2  0
 21 23  1  0
 23 24  1  0
 24 28  1  0
 25 26  1  0
 24 25  1  1
 26 27  2  0
 28 29  2  0
 28 31  1  0
 30 26  1  0
M  END
$$$$
