WLD.pdb
     RDKit          3D

 31 32  0  0  1  0  0  0  0  0999 V2000
   25.9554  -19.6919  -15.5623 N   0  0  0  0  0  0  0  0  0  0  0  0
   26.3760  -21.0598  -15.5345 C   0  0  1  0  0  0  0  0  0  0  0  0
   27.8632  -21.1260  -15.2601 C   0  0  0  0  0  0  0  0  0  0  0  0
   28.2467  -20.2991  -14.1004 C   0  0  0  0  0  0  0  0  0  0  0  0
   27.8792  -18.9955  -13.9047 C   0  0  0  0  0  0  0  0  0  0  0  0
   28.4225  -18.5830  -12.7361 N   0  0  0  0  0  0  0  0  0  0  0  0
   29.1294  -19.6050  -12.1870 C   0  0  0  0  0  0  0  0  0  0  0  0
   29.8670  -19.7246  -11.0243 C   0  0  0  0  0  0  0  0  0  0  0  0
   30.4809  -20.9315  -10.7468 C   0  0  0  0  0  0  0  0  0  0  0  0
   30.3839  -22.0101  -11.5818 C   0  0  0  0  0  0  0  0  0  0  0  0
   29.6412  -21.8737  -12.7424 C   0  0  0  0  0  0  0  0  0  0  0  0
   29.0180  -20.6785  -13.0429 C   0  0  0  0  0  0  0  0  0  0  0  0
   25.6999  -21.8391  -14.4734 C   0  0  0  0  0  0  0  0  0  0  0  0
   26.2163  -22.8415  -13.9243 O   0  0  0  0  0  0  0  0  0  0  0  0
   24.5246  -19.9028  -10.3782 C   0  0  0  0  0  0  0  0  0  0  0  0
   25.3638  -20.6748  -11.4324 C   0  0  1  0  0  0  0  0  0  0  0  0
   26.6937  -20.8925  -10.7202 C   0  0  0  0  0  0  0  0  0  0  0  0
   24.6227  -21.9210  -11.6905 C   0  0  0  0  0  0  0  0  0  0  0  0
   23.8111  -22.0868  -12.8921 C   0  0  2  0  0  0  0  0  0  0  0  0
   24.3846  -21.4379  -14.0410 N   0  0  0  0  0  0  0  0  0  0  0  0
   22.3977  -21.6735  -12.7977 C   0  0  0  0  0  0  0  0  0  0  0  0
   21.8248  -21.2107  -11.8059 O   0  0  0  0  0  0  0  0  0  0  0  0
   21.6235  -21.8310  -13.9852 N   0  0  0  0  0  0  0  0  0  0  0  0
   20.5552  -20.9130  -14.3546 C   0  0  1  0  0  0  0  0  0  0  0  0
   21.1570  -19.5357  -14.4944 C   0  0  0  0  0  0  0  0  0  0  0  0
   20.8344  -18.7097  -13.3176 C   0  0  0  0  0  0  0  0  0  0  0  0
   20.2258  -19.1674  -12.3409 O   0  0  0  0  0  0  0  0  0  0  0  0
   19.8267  -21.3570  -15.5431 C   0  0  0  0  0  0  0  0  0  0  0  0
   20.4273  -21.8308  -16.5166 O   0  0  0  0  0  0  0  0  0  0  0  0
   21.2412  -17.3698  -13.3319 O   0  0  0  0  0  0  0  0  0  0  0  0
   18.4320  -21.2454  -15.5822 O   0  0  0  0  0  0  0  0  0  0  0  0
  2  1  1  1
  3  4  1  0
  3  2  1  0
  4  5  2  0
  6  5  1  0
  7  6  1  0
  8  7  2  0
  9  8  1  0
 10  9  2  0
 10 11  1  0
 11 12  2  0
 12  7  1  0
 12  4  1  0
 13  2  1  0
 13 20  1  0
 14 13  2  0
 16 18  1  0
 16 15  1  1
 17 16  1  0
 19 18  1  1
 19 20  1  0
 19 21  1  0
 21 22  2  0
 21 23  1  0
 23 24  1  0
 24 28  1  0
 25 26  1  0
 24 25  1  6
 26 27  2  0
 28 29  2  0
 28 31  1  0
 30 26  1  0
M  END
$$$$
