HDY.pdb
     RDKit          3D

 31 32  0  0  1  0  0  0  0  0999 V2000
    8.9044  -16.6424   19.0856 N   0  0  0  0  0  0  0  0  0  0  0  0
    8.9348  -15.9459   20.3582 C   0  0  1  0  0  0  0  0  0  0  0  0
    7.7586  -15.0640   20.5433 C   0  0  0  0  0  0  0  0  0  0  0  0
    7.5447  -14.1873   19.3748 C   0  0  0  0  0  0  0  0  0  0  0  0
    7.9324  -12.8567   19.2598 C   0  0  0  0  0  0  0  0  0  0  0  0
    7.5711  -12.3847   18.0590 N   0  0  0  0  0  0  0  0  0  0  0  0
    6.9678  -13.3753   17.4130 C   0  0  0  0  0  0  0  0  0  0  0  0
    6.9498  -14.4721   18.2091 N   0  0  0  0  0  0  0  0  0  0  0  0
    9.2690  -16.8485   21.4641 C   0  0  0  0  0  0  0  0  0  0  0  0
    9.3004  -18.0903   21.2107 O   0  0  0  0  0  0  0  0  0  0  0  0
    9.5533  -16.4530   22.7786 N   0  0  0  0  0  0  0  0  0  0  0  0
   10.4326  -17.1781   23.6376 C   0  0  1  0  0  0  0  0  0  0  0  0
   11.7724  -17.5090   23.0802 C   0  0  0  0  0  0  0  0  0  0  0  0
   12.5681  -18.3151   24.0283 C   0  0  0  0  0  0  0  0  0  0  0  0
   13.6262  -17.8116   24.4787 O   0  0  0  0  0  0  0  0  0  0  0  0
   10.6109  -16.4319   24.9410 C   0  0  0  0  0  0  0  0  0  0  0  0
   10.6431  -15.1655   24.9401 O   0  0  0  0  0  0  0  0  0  0  0  0
   12.2226  -19.5801   24.4474 O   0  0  0  0  0  0  0  0  0  0  0  0
    6.6640  -11.3949   25.9264 O   0  0  0  0  0  0  0  0  0  0  0  0
    7.1582  -12.6580   26.2540 C   0  0  0  0  0  0  0  0  0  0  0  0
    8.1373  -12.8690   27.1841 C   0  0  0  0  0  0  0  0  0  0  0  0
    8.5844  -14.1424   27.4647 C   0  0  0  0  0  0  0  0  0  0  0  0
    8.0825  -15.2615   26.8372 C   0  0  0  0  0  0  0  0  0  0  0  0
    8.5282  -16.6453   27.0956 C   0  0  0  0  0  0  0  0  0  0  0  0
    9.9979  -16.7684   27.3725 C   0  0  2  0  0  0  0  0  0  0  0  0
   10.7442  -17.1146   26.1765 N   0  0  0  0  0  0  0  0  0  0  0  0
   10.3304  -17.6879   28.4687 C   0  0  0  0  0  0  0  0  0  0  0  0
   11.1211  -18.8176   28.3077 O   0  0  0  0  0  0  0  0  0  0  0  0
    7.0829  -15.0276   25.8898 C   0  0  0  0  0  0  0  0  0  0  0  0
    6.6336  -13.7549   25.6072 C   0  0  0  0  0  0  0  0  0  0  0  0
    9.8939  -17.4714   29.6237 O   0  0  0  0  0  0  0  0  0  0  0  0
  2  3  1  0
  2  1  1  6
  3  4  1  0
  4  5  2  0
  5  6  1  0
  7  6  1  0
  8  4  1  0
  8  7  2  0
  9 10  2  0
  9  2  1  0
 11  9  1  0
 12 11  1  0
 13 14  1  0
 12 13  1  6
 14 15  2  0
 16 17  2  0
 16 12  1  0
 18 14  1  0
 20 19  1  0
 21 20  2  0
 22 21  1  0
 23 29  1  0
 23 22  2  0
 24 23  1  0
 25 24  1  6
 25 26  1  0
 26 16  1  0
 27 25  1  0
 28 27  1  0
 29 30  2  0
 30 20  1  0
 31 27  2  0
M  END
$$$$
