HDY.pdb
     RDKit          3D

 31 32  0  0  1  0  0  0  0  0999 V2000
    8.3649  -16.9645   20.5901 N   0  0  0  0  0  0  0  0  0  0  0  0
    9.0383  -16.2164   21.6353 C   0  0  1  0  0  0  0  0  0  0  0  0
    8.2627  -15.0289   22.0640 C   0  0  0  0  0  0  0  0  0  0  0  0
    7.8927  -14.1758   20.9172 C   0  0  0  0  0  0  0  0  0  0  0  0
    8.2183  -14.3994   19.5838 C   0  0  0  0  0  0  0  0  0  0  0  0
    7.7135  -13.4162   18.8262 N   0  0  0  0  0  0  0  0  0  0  0  0
    7.0800  -12.5797   19.6395 C   0  0  0  0  0  0  0  0  0  0  0  0
    7.1866  -13.0377   20.9107 N   0  0  0  0  0  0  0  0  0  0  0  0
    9.5453  -17.0961   22.6930 C   0  0  0  0  0  0  0  0  0  0  0  0
    9.3435  -18.3406   22.5594 O   0  0  0  0  0  0  0  0  0  0  0  0
   10.2312  -16.6754   23.8409 N   0  0  0  0  0  0  0  0  0  0  0  0
   10.8890  -17.5774   24.7300 C   0  0  1  0  0  0  0  0  0  0  0  0
   12.0045  -18.3752   24.1517 C   0  0  0  0  0  0  0  0  0  0  0  0
   12.9953  -17.5105   23.4792 C   0  0  0  0  0  0  0  0  0  0  0  0
   12.7965  -16.2712   23.4965 O   0  0  0  0  0  0  0  0  0  0  0  0
   11.3948  -16.8285   25.9427 C   0  0  0  0  0  0  0  0  0  0  0  0
   12.5597  -17.0606   26.3831 O   0  0  0  0  0  0  0  0  0  0  0  0
   14.1197  -17.9777   22.8367 O   0  0  0  0  0  0  0  0  0  0  0  0
    6.3755  -11.7571   24.8336 O   0  0  0  0  0  0  0  0  0  0  0  0
    6.9804  -12.7213   25.6407 C   0  0  0  0  0  0  0  0  0  0  0  0
    8.2034  -12.5566   26.2283 C   0  0  0  0  0  0  0  0  0  0  0  0
    8.7494  -13.5472   27.0162 C   0  0  0  0  0  0  0  0  0  0  0  0
    8.1091  -14.7431   27.2566 C   0  0  0  0  0  0  0  0  0  0  0  0
    8.6498  -15.8380   28.0868 C   0  0  0  0  0  0  0  0  0  0  0  0
   10.1370  -16.0054   27.9778 C   0  0  2  0  0  0  0  0  0  0  0  0
   10.5960  -15.8644   26.6080 N   0  0  0  0  0  0  0  0  0  0  0  0
   10.6486  -17.2511   28.5645 C   0  0  0  0  0  0  0  0  0  0  0  0
   10.4351  -18.5045   28.0070 O   0  0  0  0  0  0  0  0  0  0  0  0
    6.8606  -14.8947   26.6485 C   0  0  0  0  0  0  0  0  0  0  0  0
    6.3120  -13.9054   25.8598 C   0  0  0  0  0  0  0  0  0  0  0  0
   11.3171  -17.2175   29.6243 O   0  0  0  0  0  0  0  0  0  0  0  0
  2  3  1  0
  2  1  1  6
  3  4  1  0
  4  5  2  0
  5  6  1  0
  7  6  1  0
  8  4  1  0
  8  7  2  0
  9 10  2  0
  9  2  1  0
 11  9  1  0
 12 11  1  0
 13 14  1  0
 12 13  1  6
 14 15  2  0
 16 17  2  0
 16 12  1  0
 18 14  1  0
 20 19  1  0
 21 20  2  0
 22 21  1  0
 23 29  1  0
 23 22  2  0
 24 23  1  0
 25 24  1  6
 25 26  1  0
 26 16  1  0
 27 25  1  0
 28 27  1  0
 29 30  2  0
 30 20  1  0
 31 27  2  0
M  END
$$$$
