HDY.pdb
     RDKit          3D

 31 32  0  0  1  0  0  0  0  0999 V2000
    9.9384  -14.7778   20.8596 N   0  0  0  0  0  0  0  0  0  0  0  0
    8.8228  -15.0701   21.7402 C   0  0  1  0  0  0  0  0  0  0  0  0
    7.6003  -15.4450   20.9915 C   0  0  0  0  0  0  0  0  0  0  0  0
    7.4381  -14.6321   19.7697 C   0  0  0  0  0  0  0  0  0  0  0  0
    8.3562  -13.7226   19.2560 C   0  0  0  0  0  0  0  0  0  0  0  0
    7.8670  -13.1729   18.1362 N   0  0  0  0  0  0  0  0  0  0  0  0
    6.6695  -13.7068   17.9274 C   0  0  0  0  0  0  0  0  0  0  0  0
    6.4053  -14.5938   18.9177 N   0  0  0  0  0  0  0  0  0  0  0  0
    9.2189  -15.9464   22.8470 C   0  0  0  0  0  0  0  0  0  0  0  0
    8.3183  -16.2786   23.6752 O   0  0  0  0  0  0  0  0  0  0  0  0
   10.5106  -16.4443   23.0673 N   0  0  0  0  0  0  0  0  0  0  0  0
   10.8469  -17.2739   24.1788 C   0  0  1  0  0  0  0  0  0  0  0  0
   12.1840  -17.9261   24.1325 C   0  0  0  0  0  0  0  0  0  0  0  0
   12.2594  -18.9279   23.0497 C   0  0  0  0  0  0  0  0  0  0  0  0
   11.6489  -18.6803   21.9811 O   0  0  0  0  0  0  0  0  0  0  0  0
   10.7261  -16.4866   25.4645 C   0  0  0  0  0  0  0  0  0  0  0  0
   11.3679  -15.4027   25.5996 O   0  0  0  0  0  0  0  0  0  0  0  0
   12.9553  -20.1124   23.1392 O   0  0  0  0  0  0  0  0  0  0  0  0
    6.8412  -11.5008   24.9846 O   0  0  0  0  0  0  0  0  0  0  0  0
    7.2394  -12.5918   25.7579 C   0  0  0  0  0  0  0  0  0  0  0  0
    6.7672  -13.8613   25.5743 C   0  0  0  0  0  0  0  0  0  0  0  0
    7.1992  -14.8995   26.3716 C   0  0  0  0  0  0  0  0  0  0  0  0
    8.1167  -14.7264   27.3847 C   0  0  0  0  0  0  0  0  0  0  0  0
    8.6090  -15.8007   28.2701 C   0  0  0  0  0  0  0  0  0  0  0  0
    9.9433  -16.3564   27.8669 C   0  0  2  0  0  0  0  0  0  0  0  0
    9.9075  -16.9298   26.5339 N   0  0  0  0  0  0  0  0  0  0  0  0
   10.5112  -17.3160   28.8230 C   0  0  0  0  0  0  0  0  0  0  0  0
   10.8241  -16.9943   30.1368 O   0  0  0  0  0  0  0  0  0  0  0  0
    8.5887  -13.4231   27.5584 C   0  0  0  0  0  0  0  0  0  0  0  0
    8.1583  -12.3827   26.7622 C   0  0  0  0  0  0  0  0  0  0  0  0
   10.7382  -18.4965   28.4676 O   0  0  0  0  0  0  0  0  0  0  0  0
  2  3  1  0
  2  1  1  6
  3  4  1  0
  4  5  2  0
  5  6  1  0
  7  6  1  0
  8  4  1  0
  8  7  2  0
  9 10  2  0
  9  2  1  0
 11  9  1  0
 12 11  1  0
 13 14  1  0
 12 13  1  6
 14 15  2  0
 16 17  2  0
 16 12  1  0
 18 14  1  0
 20 19  1  0
 21 20  2  0
 22 21  1  0
 23 29  1  0
 23 22  2  0
 24 23  1  0
 25 24  1  1
 25 26  1  0
 26 16  1  0
 27 25  1  0
 28 27  1  0
 29 30  2  0
 30 20  1  0
 31 27  2  0
M  END
$$$$
