HDY.pdb
     RDKit          3D

 31 32  0  0  1  0  0  0  0  0999 V2000
    7.6832  -16.8735   18.6660 N   0  0  0  0  0  0  0  0  0  0  0  0
    8.8435  -16.1696   19.1799 C   0  0  1  0  0  0  0  0  0  0  0  0
    8.6611  -14.6993   19.1618 C   0  0  0  0  0  0  0  0  0  0  0  0
    8.3783  -14.2013   17.8010 C   0  0  0  0  0  0  0  0  0  0  0  0
    7.2578  -13.4802   17.4027 C   0  0  0  0  0  0  0  0  0  0  0  0
    7.3438  -13.2006   16.0951 N   0  0  0  0  0  0  0  0  0  0  0  0
    8.4829  -13.7225   15.6561 C   0  0  0  0  0  0  0  0  0  0  0  0
    9.1142  -14.3313   16.6895 N   0  0  0  0  0  0  0  0  0  0  0  0
    9.3304  -16.7634   20.4289 C   0  0  0  0  0  0  0  0  0  0  0  0
    8.4613  -17.2094   21.2371 O   0  0  0  0  0  0  0  0  0  0  0  0
   10.6761  -16.8756   20.8051 N   0  0  0  0  0  0  0  0  0  0  0  0
   11.0914  -17.3950   22.0679 C   0  0  1  0  0  0  0  0  0  0  0  0
   12.5034  -17.8572   22.1571 C   0  0  0  0  0  0  0  0  0  0  0  0
   12.8247  -18.3548   23.5103 C   0  0  0  0  0  0  0  0  0  0  0  0
   12.0122  -19.1448   24.0505 O   0  0  0  0  0  0  0  0  0  0  0  0
   10.8369  -16.3738   23.1541 C   0  0  0  0  0  0  0  0  0  0  0  0
   11.0920  -15.1517   22.9390 O   0  0  0  0  0  0  0  0  0  0  0  0
   13.9560  -18.0074   24.2136 O   0  0  0  0  0  0  0  0  0  0  0  0
    5.8114  -11.1738   27.6288 O   0  0  0  0  0  0  0  0  0  0  0  0
    6.4303  -12.1707   26.8737 C   0  0  0  0  0  0  0  0  0  0  0  0
    5.8986  -13.4156   26.6841 C   0  0  0  0  0  0  0  0  0  0  0  0
    6.5586  -14.3593   25.9264 C   0  0  0  0  0  0  0  0  0  0  0  0
    7.7727  -14.1122   25.3241 C   0  0  0  0  0  0  0  0  0  0  0  0
    8.5238  -15.0868   24.5077 C   0  0  0  0  0  0  0  0  0  0  0  0
    9.5624  -15.8502   25.2760 C   0  0  2  0  0  0  0  0  0  0  0  0
   10.3156  -16.7472   24.4186 N   0  0  0  0  0  0  0  0  0  0  0  0
    9.0394  -16.5741   26.4423 C   0  0  0  0  0  0  0  0  0  0  0  0
    8.2754  -17.7293   26.3473 O   0  0  0  0  0  0  0  0  0  0  0  0
    8.3015  -12.8354   25.5282 C   0  0  0  0  0  0  0  0  0  0  0  0
    7.6434  -11.8893   26.2855 C   0  0  0  0  0  0  0  0  0  0  0  0
    9.2763  -16.1544   27.5995 O   0  0  0  0  0  0  0  0  0  0  0  0
  2  3  1  0
  2  1  1  1
  3  4  1  0
  4  5  2  0
  5  6  1  0
  7  6  1  0
  8  4  1  0
  8  7  2  0
  9 10  2  0
  9  2  1  0
 11  9  1  0
 12 11  1  0
 13 14  1  0
 12 13  1  6
 14 15  2  0
 16 17  2  0
 16 12  1  0
 18 14  1  0
 20 19  1  0
 21 20  2  0
 22 21  1  0
 23 29  1  0
 23 22  2  0
 24 23  1  0
 25 24  1  6
 25 26  1  0
 26 16  1  0
 27 25  1  0
 28 27  1  0
 29 30  2  0
 30 20  1  0
 31 27  2  0
M  END
$$$$
