HDY.pdb
     RDKit          3D

 31 32  0  0  1  0  0  0  0  0999 V2000
    9.9762  -14.6186   20.0569 N   0  0  0  0  0  0  0  0  0  0  0  0
    8.8226  -15.1992   20.7185 C   0  0  1  0  0  0  0  0  0  0  0  0
    7.8013  -15.6708   19.7541 C   0  0  0  0  0  0  0  0  0  0  0  0
    7.7039  -14.7779   18.5824 C   0  0  0  0  0  0  0  0  0  0  0  0
    8.5410  -13.7067   18.2896 C   0  0  0  0  0  0  0  0  0  0  0  0
    8.1485  -13.1278   17.1467 N   0  0  0  0  0  0  0  0  0  0  0  0
    7.0904  -13.7999   16.7094 C   0  0  0  0  0  0  0  0  0  0  0  0
    6.8171  -14.8031   17.5789 N   0  0  0  0  0  0  0  0  0  0  0  0
    9.2164  -16.1324   21.7785 C   0  0  0  0  0  0  0  0  0  0  0  0
    8.2879  -16.6610   22.4610 O   0  0  0  0  0  0  0  0  0  0  0  0
   10.5337  -16.4859   22.1023 N   0  0  0  0  0  0  0  0  0  0  0  0
   10.8703  -17.2806   23.2389 C   0  0  1  0  0  0  0  0  0  0  0  0
   12.2159  -17.9165   23.2221 C   0  0  0  0  0  0  0  0  0  0  0  0
   12.5722  -18.3918   21.8698 C   0  0  0  0  0  0  0  0  0  0  0  0
   12.0204  -19.4402   21.4547 O   0  0  0  0  0  0  0  0  0  0  0  0
   10.7278  -16.4604   24.5016 C   0  0  0  0  0  0  0  0  0  0  0  0
   10.7450  -15.1955   24.4338 O   0  0  0  0  0  0  0  0  0  0  0  0
   13.4688  -17.7586   21.0389 O   0  0  0  0  0  0  0  0  0  0  0  0
    6.6582  -10.8494   26.3353 O   0  0  0  0  0  0  0  0  0  0  0  0
    7.0938  -12.1747   26.3662 C   0  0  0  0  0  0  0  0  0  0  0  0
    7.9408  -12.6703   27.3176 C   0  0  0  0  0  0  0  0  0  0  0  0
    8.3359  -13.9907   27.2950 C   0  0  0  0  0  0  0  0  0  0  0  0
    7.9104  -14.8774   26.3303 C   0  0  0  0  0  0  0  0  0  0  0  0
    8.3059  -16.2981   26.2563 C   0  0  0  0  0  0  0  0  0  0  0  0
    9.6766  -16.5761   26.8000 C   0  0  2  0  0  0  0  0  0  0  0  0
   10.5737  -17.0712   25.7718 N   0  0  0  0  0  0  0  0  0  0  0  0
    9.6933  -17.4671   27.9677 C   0  0  0  0  0  0  0  0  0  0  0  0
    9.9063  -17.0242   29.2661 O   0  0  0  0  0  0  0  0  0  0  0  0
    7.0455  -14.3543   25.3660 C   0  0  0  0  0  0  0  0  0  0  0  0
    6.6485  -13.0338   25.3862 C   0  0  0  0  0  0  0  0  0  0  0  0
    9.5091  -18.6983   27.8205 O   0  0  0  0  0  0  0  0  0  0  0  0
  2  3  1  0
  2  1  1  6
  3  4  1  0
  4  5  2  0
  5  6  1  0
  7  6  1  0
  8  4  1  0
  8  7  2  0
  9 10  2  0
  9  2  1  0
 11  9  1  0
 12 11  1  0
 13 14  1  0
 12 13  1  6
 14 15  2  0
 16 17  2  0
 16 12  1  0
 18 14  1  0
 20 19  1  0
 21 20  2  0
 22 21  1  0
 23 29  1  0
 23 22  2  0
 24 23  1  0
 25 24  1  6
 25 26  1  0
 26 16  1  0
 27 25  1  0
 28 27  1  0
 29 30  2  0
 30 20  1  0
 31 27  2  0
M  END
$$$$
