NLQ.pdb
     RDKit          3D

 26 25  0  0  1  0  0  0  0  0999 V2000
   29.1027  -21.6205  -16.7108 N   0  0  0  0  0  0  0  0  0  0  0  0
   27.7089  -21.6607  -16.9676 C   0  0  0  0  0  0  0  0  0  0  0  0
   27.3277  -21.2865  -18.1149 O   0  0  0  0  0  0  0  0  0  0  0  0
   26.8102  -22.1249  -15.9080 C   0  0  0  0  0  0  0  0  0  0  0  0
   25.5415  -21.3100  -15.8092 C   0  0  2  0  0  0  0  0  0  0  0  0
   25.8029  -19.8963  -15.6832 N   0  0  0  0  0  0  0  0  0  0  0  0
   24.6889  -21.7485  -14.6797 C   0  0  0  0  0  0  0  0  0  0  0  0
   24.3485  -22.9778  -14.5783 O   0  0  0  0  0  0  0  0  0  0  0  0
   25.8394  -20.1917   -9.7247 C   0  0  0  0  0  0  0  0  0  0  0  0
   25.3284  -20.9843  -10.8847 C   0  0  1  0  0  0  0  0  0  0  0  0
   25.5904  -22.4784  -10.6743 C   0  0  0  0  0  0  0  0  0  0  0  0
   23.9780  -20.7082  -11.3748 C   0  0  0  0  0  0  0  0  0  0  0  0
   23.3805  -21.4089  -12.5247 C   0  0  2  0  0  0  0  0  0  0  0  0
   24.2092  -20.8999  -13.6802 N   0  0  0  0  0  0  0  0  0  0  0  0
   22.0214  -20.9687  -12.8588 C   0  0  0  0  0  0  0  0  0  0  0  0
   21.0768  -21.0117  -11.9805 O   0  0  0  0  0  0  0  0  0  0  0  0
   19.8146  -17.0801  -17.5377 N   0  0  0  0  0  0  0  0  0  0  0  0
   18.6998  -17.3952  -16.7411 C   0  0  0  0  0  0  0  0  0  0  0  0
   17.6078  -16.8286  -16.9724 O   0  0  0  0  0  0  0  0  0  0  0  0
   18.8114  -18.3684  -15.6612 C   0  0  0  0  0  0  0  0  0  0  0  0
   20.1602  -18.9003  -15.3612 C   0  0  0  0  0  0  0  0  0  0  0  0
   20.2034  -20.0157  -14.3330 C   0  0  2  0  0  0  0  0  0  0  0  0
   21.5838  -20.4517  -14.1203 N   0  0  0  0  0  0  0  0  0  0  0  0
   19.3173  -21.0770  -14.8405 C   0  0  0  0  0  0  0  0  0  0  0  0
   19.8205  -21.9705  -15.6060 O   0  0  0  0  0  0  0  0  0  0  0  0
   17.9734  -21.2259  -14.5804 O   0  0  0  0  0  0  0  0  0  0  0  0
  2  3  2  0
  2  1  1  0
  4  2  1  0
  5  4  1  0
  5  6  1  1
  7  8  2  0
  7  5  1  0
 10  9  1  1
 10 12  1  0
 10 11  1  0
 13 12  1  1
 13 14  1  0
 14  7  1  0
 15 13  1  0
 15 16  2  0
 18 17  1  0
 18 19  2  0
 20 18  1  0
 21 20  1  0
 22 21  1  6
 23 22  1  0
 23 15  1  0
 24 22  1  0
 25 24  2  0
 26 24  1  0
M  END
$$$$
