NLQ.pdb
     RDKit          3D

 26 25  0  0  1  0  0  0  0  0999 V2000
   17.5002  -20.3401  -12.2668 N   0  0  0  0  0  0  0  0  0  0  0  0
   18.5312  -21.2658  -11.9658 C   0  0  0  0  0  0  0  0  0  0  0  0
   18.1828  -22.4669  -11.7720 O   0  0  0  0  0  0  0  0  0  0  0  0
   19.9130  -20.7842  -11.8986 C   0  0  0  0  0  0  0  0  0  0  0  0
   20.6950  -21.0521  -13.1635 C   0  0  2  0  0  0  0  0  0  0  0  0
   20.8356  -22.4622  -13.4364 N   0  0  0  0  0  0  0  0  0  0  0  0
   22.0385  -20.4288  -13.1258 C   0  0  0  0  0  0  0  0  0  0  0  0
   22.1485  -19.1557  -13.0583 O   0  0  0  0  0  0  0  0  0  0  0  0
   25.6082  -21.6391   -9.5367 C   0  0  0  0  0  0  0  0  0  0  0  0
   24.8595  -20.9070  -10.6037 C   0  0  1  0  0  0  0  0  0  0  0  0
   24.7166  -19.4257  -10.2425 C   0  0  0  0  0  0  0  0  0  0  0  0
   25.2521  -21.1163  -11.9972 C   0  0  0  0  0  0  0  0  0  0  0  0
   24.5824  -20.4539  -13.1299 C   0  0  2  0  0  0  0  0  0  0  0  0
   23.2382  -21.1421  -13.1586 N   0  0  0  0  0  0  0  0  0  0  0  0
   25.1580  -20.7735  -14.4410 C   0  0  0  0  0  0  0  0  0  0  0  0
   26.4276  -20.6728  -14.6491 O   0  0  0  0  0  0  0  0  0  0  0  0
   26.4185  -25.3412  -15.8793 N   0  0  0  0  0  0  0  0  0  0  0  0
   25.0630  -25.1538  -16.2018 C   0  0  0  0  0  0  0  0  0  0  0  0
   24.2515  -26.0807  -15.9797 O   0  0  0  0  0  0  0  0  0  0  0  0
   24.6066  -23.8983  -16.7859 C   0  0  0  0  0  0  0  0  0  0  0  0
   25.6193  -22.8397  -17.0002 C   0  0  0  0  0  0  0  0  0  0  0  0
   25.1043  -21.4168  -16.8844 C   0  0  2  0  0  0  0  0  0  0  0  0
   24.4402  -21.2246  -15.5949 N   0  0  0  0  0  0  0  0  0  0  0  0
   24.2220  -21.2034  -18.0441 C   0  0  0  0  0  0  0  0  0  0  0  0
   24.7260  -21.3105  -19.2154 O   0  0  0  0  0  0  0  0  0  0  0  0
   22.8805  -20.8944  -18.0159 O   0  0  0  0  0  0  0  0  0  0  0  0
  2  3  2  0
  2  1  1  0
  4  2  1  0
  5  4  1  0
  5  6  1  1
  7  8  2  0
  7  5  1  0
 10  9  1  1
 10 12  1  0
 10 11  1  0
 13 12  1  1
 13 14  1  0
 14  7  1  0
 15 13  1  0
 15 16  2  0
 18 17  1  0
 18 19  2  0
 20 18  1  0
 21 20  1  0
 22 21  1  1
 23 22  1  0
 23 15  1  0
 24 22  1  0
 25 24  2  0
 26 24  1  0
M  END
$$$$
