NLQ.pdb
     RDKit          3D

 26 25  0  0  1  0  0  0  0  0999 V2000
   18.1313  -23.7964  -13.4260 N   0  0  0  0  0  0  0  0  0  0  0  0
   19.0517  -23.9084  -14.4986 C   0  0  0  0  0  0  0  0  0  0  0  0
   18.8390  -24.8286  -15.3411 O   0  0  0  0  0  0  0  0  0  0  0  0
   20.1735  -22.9688  -14.5657 C   0  0  0  0  0  0  0  0  0  0  0  0
   20.3330  -22.1472  -13.3076 C   0  0  2  0  0  0  0  0  0  0  0  0
   19.1748  -21.3317  -13.0313 N   0  0  0  0  0  0  0  0  0  0  0  0
   21.5344  -21.2818  -13.3605 C   0  0  0  0  0  0  0  0  0  0  0  0
   21.4097  -20.0335  -13.6130 O   0  0  0  0  0  0  0  0  0  0  0  0
   26.0199  -22.0658  -10.1652 C   0  0  0  0  0  0  0  0  0  0  0  0
   24.9845  -21.3443  -10.9667 C   0  0  1  0  0  0  0  0  0  0  0  0
   24.8426  -19.8970  -10.4864 C   0  0  0  0  0  0  0  0  0  0  0  0
   25.0305  -21.4566  -12.4245 C   0  0  0  0  0  0  0  0  0  0  0  0
   24.0369  -20.8273  -13.3117 C   0  0  2  0  0  0  0  0  0  0  0  0
   22.8389  -21.7325  -13.1496 N   0  0  0  0  0  0  0  0  0  0  0  0
   24.3532  -20.9316  -14.7405 C   0  0  0  0  0  0  0  0  0  0  0  0
   24.3874  -22.0796  -15.3291 O   0  0  0  0  0  0  0  0  0  0  0  0
   21.0492  -21.7156  -18.2721 N   0  0  0  0  0  0  0  0  0  0  0  0
   21.1303  -20.3648  -17.8911 C   0  0  0  0  0  0  0  0  0  0  0  0
   20.0766  -19.6958  -17.7953 O   0  0  0  0  0  0  0  0  0  0  0  0
   22.4221  -19.7498  -17.6102 C   0  0  0  0  0  0  0  0  0  0  0  0
   23.6224  -20.6104  -17.7144 C   0  0  0  0  0  0  0  0  0  0  0  0
   24.8738  -20.0606  -17.0550 C   0  0  2  0  0  0  0  0  0  0  0  0
   24.6376  -19.8440  -15.6275 N   0  0  0  0  0  0  0  0  0  0  0  0
   25.2214  -18.8337  -17.7919 C   0  0  0  0  0  0  0  0  0  0  0  0
   25.2176  -17.7239  -17.1548 O   0  0  0  0  0  0  0  0  0  0  0  0
   25.5604  -18.7373  -19.1229 O   0  0  0  0  0  0  0  0  0  0  0  0
  2  3  2  0
  2  1  1  0
  4  2  1  0
  5  4  1  0
  5  6  1  6
  7  8  2  0
  7  5  1  0
 10  9  1  1
 10 12  1  0
 10 11  1  0
 13 12  1  1
 13 14  1  0
 14  7  1  0
 15 13  1  0
 15 16  2  0
 18 17  1  0
 18 19  2  0
 20 18  1  0
 21 20  1  0
 22 21  1  6
 23 22  1  0
 23 15  1  0
 24 22  1  0
 25 24  2  0
 26 24  1  0
M  END
$$$$
