NLQ.pdb
     RDKit          3D

 26 25  0  0  1  0  0  0  0  0999 V2000
   25.8255  -32.0627   -8.5747 N   0  0  0  0  0  0  0  0  0  0  0  0
   25.5166  -32.2410   -7.2024 C   0  0  0  0  0  0  0  0  0  0  0  0
   24.5420  -31.5761   -6.7445 O   0  0  0  0  0  0  0  0  0  0  0  0
   26.3300  -33.1677   -6.4116 C   0  0  0  0  0  0  0  0  0  0  0  0
   27.4412  -33.8088   -7.2101 C   0  0  2  0  0  0  0  0  0  0  0  0
   26.9606  -34.8507   -8.0855 N   0  0  0  0  0  0  0  0  0  0  0  0
   28.5030  -34.3605   -6.3365 C   0  0  0  0  0  0  0  0  0  0  0  0
   28.4220  -35.5677   -5.9199 O   0  0  0  0  0  0  0  0  0  0  0  0
   33.8094  -32.7060   -6.8708 C   0  0  0  0  0  0  0  0  0  0  0  0
   32.8131  -33.7475   -6.4736 C   0  0  1  0  0  0  0  0  0  0  0  0
   33.4943  -35.1086   -6.3045 C   0  0  0  0  0  0  0  0  0  0  0  0
   31.8811  -33.4404   -5.3887 C   0  0  0  0  0  0  0  0  0  0  0  0
   30.7098  -34.2765   -5.0736 C   0  0  2  0  0  0  0  0  0  0  0  0
   29.6260  -33.6457   -5.9153 N   0  0  0  0  0  0  0  0  0  0  0  0
   30.2108  -34.1225   -3.7025 C   0  0  0  0  0  0  0  0  0  0  0  0
   29.6130  -33.0401   -3.3331 O   0  0  0  0  0  0  0  0  0  0  0  0
   25.7082  -36.4185   -0.8928 N   0  0  0  0  0  0  0  0  0  0  0  0
   26.7197  -37.2254   -1.4426 C   0  0  0  0  0  0  0  0  0  0  0  0
   26.4490  -38.4045   -1.7643 O   0  0  0  0  0  0  0  0  0  0  0  0
   28.0651  -36.6984   -1.6372 C   0  0  0  0  0  0  0  0  0  0  0  0
   28.3051  -35.2881   -1.2556 C   0  0  0  0  0  0  0  0  0  0  0  0
   29.7523  -34.8357   -1.3218 C   0  0  2  0  0  0  0  0  0  0  0  0
   30.3002  -35.0932   -2.6537 N   0  0  0  0  0  0  0  0  0  0  0  0
   30.4557  -35.5492   -0.2424 C   0  0  0  0  0  0  0  0  0  0  0  0
   31.4238  -36.3235   -0.5599 O   0  0  0  0  0  0  0  0  0  0  0  0
   30.1876  -35.4788    1.1062 O   0  0  0  0  0  0  0  0  0  0  0  0
  2  3  2  0
  2  1  1  0
  4  2  1  0
  5  4  1  0
  5  6  1  1
  7  8  2  0
  7  5  1  0
 10  9  1  1
 10 12  1  0
 10 11  1  0
 13 12  1  1
 13 14  1  0
 14  7  1  0
 15 13  1  0
 15 16  2  0
 18 17  1  0
 18 19  2  0
 20 18  1  0
 21 20  1  0
 22 21  1  6
 23 22  1  0
 23 15  1  0
 24 22  1  0
 25 24  2  0
 26 24  1  0
M  END
$$$$
