NLQ.pdb
     RDKit          3D

 26 25  0  0  1  0  0  0  0  0999 V2000
   21.3820  -19.6529  -19.7090 N   0  0  0  0  0  0  0  0  0  0  0  0
   22.5067  -18.8054  -19.8736 C   0  0  0  0  0  0  0  0  0  0  0  0
   23.3420  -19.1306  -20.7670 O   0  0  0  0  0  0  0  0  0  0  0  0
   22.6316  -17.6253  -19.0147 C   0  0  0  0  0  0  0  0  0  0  0  0
   24.0454  -17.3884  -18.5369 C   0  0  2  0  0  0  0  0  0  0  0  0
   24.5420  -18.4734  -17.7252 N   0  0  0  0  0  0  0  0  0  0  0  0
   24.1685  -16.1206  -17.7803 C   0  0  0  0  0  0  0  0  0  0  0  0
   23.5191  -15.9644  -16.6889 O   0  0  0  0  0  0  0  0  0  0  0  0
   28.9259  -13.4282  -17.0822 C   0  0  0  0  0  0  0  0  0  0  0  0
   27.5323  -13.8480  -16.7406 C   0  0  1  0  0  0  0  0  0  0  0  0
   27.2721  -13.6838  -15.2404 C   0  0  0  0  0  0  0  0  0  0  0  0
   26.4331  -13.3470  -17.5657 C   0  0  0  0  0  0  0  0  0  0  0  0
   25.0321  -13.7618  -17.3775 C   0  0  2  0  0  0  0  0  0  0  0  0
   24.9641  -15.0431  -18.1743 N   0  0  0  0  0  0  0  0  0  0  0  0
   24.0525  -12.8944  -18.0410 C   0  0  0  0  0  0  0  0  0  0  0  0
   23.6656  -13.1349  -19.2485 O   0  0  0  0  0  0  0  0  0  0  0  0
   18.7542  -13.6716  -18.3292 N   0  0  0  0  0  0  0  0  0  0  0  0
   18.6093  -12.2761  -18.4197 C   0  0  0  0  0  0  0  0  0  0  0  0
   17.4622  -11.7909  -18.5452 O   0  0  0  0  0  0  0  0  0  0  0  0
   19.7769  -11.4044  -18.3675 C   0  0  0  0  0  0  0  0  0  0  0  0
   21.0964  -12.0458  -18.1683 C   0  0  0  0  0  0  0  0  0  0  0  0
   22.2791  -11.0958  -18.1241 C   0  0  2  0  0  0  0  0  0  0  0  0
   23.4201  -11.7413  -17.4745 N   0  0  0  0  0  0  0  0  0  0  0  0
   21.8080   -9.8851  -17.4304 C   0  0  0  0  0  0  0  0  0  0  0  0
   22.1138   -9.7373  -16.1967 O   0  0  0  0  0  0  0  0  0  0  0  0
   21.0568   -8.8641  -17.9681 O   0  0  0  0  0  0  0  0  0  0  0  0
  2  3  2  0
  2  1  1  0
  4  2  1  0
  5  4  1  0
  5  6  1  1
  7  8  2  0
  7  5  1  0
 10  9  1  6
 10 12  1  0
 10 11  1  0
 13 12  1  6
 13 14  1  0
 14  7  1  0
 15 13  1  0
 15 16  2  0
 18 17  1  0
 18 19  2  0
 20 18  1  0
 21 20  1  0
 22 21  1  1
 23 22  1  0
 23 15  1  0
 24 22  1  0
 25 24  2  0
 26 24  1  0
M  END
$$$$
