NLQ.pdb
     RDKit          3D

 26 25  0  0  1  0  0  0  0  0999 V2000
   31.8050  -11.8952  -21.1933 N   0  0  0  0  0  0  0  0  0  0  0  0
   31.9249  -10.4892  -21.0551 C   0  0  0  0  0  0  0  0  0  0  0  0
   31.9431   -9.8091  -22.1223 O   0  0  0  0  0  0  0  0  0  0  0  0
   32.0187   -9.9188  -19.7091 C   0  0  0  0  0  0  0  0  0  0  0  0
   31.9598  -10.9632  -18.6186 C   0  0  2  0  0  0  0  0  0  0  0  0
   30.6294  -11.4904  -18.4317 N   0  0  0  0  0  0  0  0  0  0  0  0
   32.4614  -10.4420  -17.3257 C   0  0  0  0  0  0  0  0  0  0  0  0
   31.6444   -9.9259  -16.4868 O   0  0  0  0  0  0  0  0  0  0  0  0
   35.8159  -10.1306  -12.8482 C   0  0  0  0  0  0  0  0  0  0  0  0
   36.3734  -10.3246  -14.2217 C   0  0  1  0  0  0  0  0  0  0  0  0
   37.6010  -11.2393  -14.1812 C   0  0  0  0  0  0  0  0  0  0  0  0
   35.4504  -10.6608  -15.3057 C   0  0  0  0  0  0  0  0  0  0  0  0
   34.2709   -9.8442  -15.6405 C   0  0  2  0  0  0  0  0  0  0  0  0
   33.8008  -10.4689  -16.9327 N   0  0  0  0  0  0  0  0  0  0  0  0
   34.5833   -8.4626  -16.0226 C   0  0  0  0  0  0  0  0  0  0  0  0
   35.1609   -8.2009  -17.1466 O   0  0  0  0  0  0  0  0  0  0  0  0
   32.1470   -1.9241  -17.5906 N   0  0  0  0  0  0  0  0  0  0  0  0
   32.1187   -3.2507  -17.1262 C   0  0  0  0  0  0  0  0  0  0  0  0
   31.0167   -3.8356  -17.0237 O   0  0  0  0  0  0  0  0  0  0  0  0
   33.3541   -3.9379  -16.7693 C   0  0  0  0  0  0  0  0  0  0  0  0
   33.2325   -5.2642  -16.1224 C   0  0  0  0  0  0  0  0  0  0  0  0
   34.5468   -5.9464  -15.7900 C   0  0  2  0  0  0  0  0  0  0  0  0
   34.2985   -7.2863  -15.2574 N   0  0  0  0  0  0  0  0  0  0  0  0
   35.2466   -5.0544  -14.8500 C   0  0  0  0  0  0  0  0  0  0  0  0
   35.0652   -5.2346  -13.5962 O   0  0  0  0  0  0  0  0  0  0  0  0
   36.0979   -4.0207  -15.1702 O   0  0  0  0  0  0  0  0  0  0  0  0
  2  3  2  0
  2  1  1  0
  4  2  1  0
  5  4  1  0
  5  6  1  1
  7  8  2  0
  7  5  1  0
 10  9  1  1
 10 12  1  0
 10 11  1  0
 13 12  1  6
 13 14  1  0
 14  7  1  0
 15 13  1  0
 15 16  2  0
 18 17  1  0
 18 19  2  0
 20 18  1  0
 21 20  1  0
 22 21  1  1
 23 22  1  0
 23 15  1  0
 24 22  1  0
 25 24  2  0
 26 24  1  0
M  END
$$$$
