NLQ.pdb
     RDKit          3D

 26 25  0  0  1  0  0  0  0  0999 V2000
   18.7928  -10.8846  -20.5835 N   0  0  0  0  0  0  0  0  0  0  0  0
   18.5161   -9.6454  -19.9524 C   0  0  0  0  0  0  0  0  0  0  0  0
   17.9294   -8.7670  -20.6494 O   0  0  0  0  0  0  0  0  0  0  0  0
   18.9191   -9.4602  -18.5562 C   0  0  0  0  0  0  0  0  0  0  0  0
   19.6033  -10.6742  -17.9720 C   0  0  2  0  0  0  0  0  0  0  0  0
   18.6675  -11.7062  -17.5951 N   0  0  0  0  0  0  0  0  0  0  0  0
   20.4407  -10.3269  -16.8001 C   0  0  0  0  0  0  0  0  0  0  0  0
   20.0628  -10.6637  -15.6249 O   0  0  0  0  0  0  0  0  0  0  0  0
   24.9898  -10.1751  -13.8037 C   0  0  0  0  0  0  0  0  0  0  0  0
   24.9308   -9.3976  -15.0792 C   0  0  1  0  0  0  0  0  0  0  0  0
   26.2792   -9.4467  -15.8036 C   0  0  0  0  0  0  0  0  0  0  0  0
   23.7963   -9.6178  -15.9760 C   0  0  0  0  0  0  0  0  0  0  0  0
   22.4174   -9.2218  -15.6413 C   0  0  2  0  0  0  0  0  0  0  0  0
   21.6525   -9.6376  -16.8754 N   0  0  0  0  0  0  0  0  0  0  0  0
   22.2050   -7.7714  -15.5801 C   0  0  0  0  0  0  0  0  0  0  0  0
   22.4298   -7.1146  -14.4922 O   0  0  0  0  0  0  0  0  0  0  0  0
   22.6384   -3.1971  -20.0397 N   0  0  0  0  0  0  0  0  0  0  0  0
   22.1243   -2.5389  -18.9088 C   0  0  0  0  0  0  0  0  0  0  0  0
   21.9909   -1.2945  -18.9380 O   0  0  0  0  0  0  0  0  0  0  0  0
   21.7504   -3.2927  -17.7182 C   0  0  0  0  0  0  0  0  0  0  0  0
   21.9700   -4.7568  -17.7430 C   0  0  0  0  0  0  0  0  0  0  0  0
   21.5774   -5.4929  -16.4753 C   0  0  2  0  0  0  0  0  0  0  0  0
   21.7592   -6.9338  -16.6525 N   0  0  0  0  0  0  0  0  0  0  0  0
   20.1874   -5.1012  -16.1862 C   0  0  0  0  0  0  0  0  0  0  0  0
   19.2438   -5.7923  -16.7052 O   0  0  0  0  0  0  0  0  0  0  0  0
   19.7718   -4.0497  -15.4005 O   0  0  0  0  0  0  0  0  0  0  0  0
  2  3  2  0
  2  1  1  0
  4  2  1  0
  5  4  1  0
  5  6  1  1
  7  8  2  0
  7  5  1  0
 10  9  1  1
 10 12  1  0
 10 11  1  0
 13 12  1  6
 13 14  1  0
 14  7  1  0
 15 13  1  0
 15 16  2  0
 18 17  1  0
 18 19  2  0
 20 18  1  0
 21 20  1  0
 22 21  1  6
 23 22  1  0
 23 15  1  0
 24 22  1  0
 25 24  2  0
 26 24  1  0
M  END
$$$$
