NLQ.pdb
     RDKit          3D

 26 25  0  0  1  0  0  0  0  0999 V2000
   28.9068  -21.2345  -17.4528 N   0  0  0  0  0  0  0  0  0  0  0  0
   28.9001  -22.3791  -16.6160 C   0  0  0  0  0  0  0  0  0  0  0  0
   29.8386  -23.2123  -16.7790 O   0  0  0  0  0  0  0  0  0  0  0  0
   27.8260  -22.5254  -15.6307 C   0  0  0  0  0  0  0  0  0  0  0  0
   26.8611  -21.3625  -15.6304 C   0  0  2  0  0  0  0  0  0  0  0  0
   27.5151  -20.1037  -15.3649 N   0  0  0  0  0  0  0  0  0  0  0  0
   25.7635  -21.5546  -14.6540 C   0  0  0  0  0  0  0  0  0  0  0  0
   24.9935  -22.5718  -14.7531 O   0  0  0  0  0  0  0  0  0  0  0  0
   26.1603  -19.9827   -9.2579 C   0  0  0  0  0  0  0  0  0  0  0  0
   25.7288  -20.8208  -10.4182 C   0  0  1  0  0  0  0  0  0  0  0  0
   25.2541  -22.1968   -9.9425 C   0  0  0  0  0  0  0  0  0  0  0  0
   24.8368  -20.2250  -11.4128 C   0  0  0  0  0  0  0  0  0  0  0  0
   24.3741  -20.9446  -12.6122 C   0  0  2  0  0  0  0  0  0  0  0  0
   25.4905  -20.6856  -13.5958 N   0  0  0  0  0  0  0  0  0  0  0  0
   23.2020  -20.3453  -13.2598 C   0  0  0  0  0  0  0  0  0  0  0  0
   23.3306  -19.3502  -14.0715 O   0  0  0  0  0  0  0  0  0  0  0  0
   22.4372  -20.8398  -18.0035 N   0  0  0  0  0  0  0  0  0  0  0  0
   21.0399  -20.7404  -17.8851 C   0  0  0  0  0  0  0  0  0  0  0  0
   20.3620  -20.4626  -18.9001 O   0  0  0  0  0  0  0  0  0  0  0  0
   20.3872  -20.9585  -16.5997 C   0  0  0  0  0  0  0  0  0  0  0  0
   21.2573  -21.2201  -15.4306 C   0  0  0  0  0  0  0  0  0  0  0  0
   20.8422  -20.5278  -14.1454 C   0  0  2  0  0  0  0  0  0  0  0  0
   21.8410  -20.7611  -13.1021 N   0  0  0  0  0  0  0  0  0  0  0  0
   19.5044  -21.0464  -13.8130 C   0  0  0  0  0  0  0  0  0  0  0  0
   18.4899  -20.3081  -14.0644 O   0  0  0  0  0  0  0  0  0  0  0  0
   19.2080  -22.2667  -13.2485 O   0  0  0  0  0  0  0  0  0  0  0  0
  2  3  2  0
  2  1  1  0
  4  2  1  0
  5  4  1  0
  5  6  1  1
  7  8  2  0
  7  5  1  0
 10  9  1  1
 10 12  1  0
 10 11  1  0
 13 12  1  1
 13 14  1  0
 14  7  1  0
 15 13  1  0
 15 16  2  0
 18 17  1  0
 18 19  2  0
 20 18  1  0
 21 20  1  0
 22 21  1  6
 23 22  1  0
 23 15  1  0
 24 22  1  0
 25 24  2  0
 26 24  1  0
M  END
$$$$
