NLQ.pdb
     RDKit          3D

 26 25  0  0  1  0  0  0  0  0999 V2000
   19.0176  -11.9713  -20.8832 N   0  0  0  0  0  0  0  0  0  0  0  0
   18.6995  -10.7027  -20.3356 C   0  0  0  0  0  0  0  0  0  0  0  0
   17.9201   -9.9679  -21.0095 O   0  0  0  0  0  0  0  0  0  0  0  0
   19.2822  -10.3260  -19.0454 C   0  0  0  0  0  0  0  0  0  0  0  0
   20.1480  -11.4109  -18.4480 C   0  0  2  0  0  0  0  0  0  0  0  0
   19.3745  -12.5282  -17.9622 N   0  0  0  0  0  0  0  0  0  0  0  0
   21.0002  -10.8969  -17.3505 C   0  0  0  0  0  0  0  0  0  0  0  0
   20.5573  -10.8895  -16.1500 O   0  0  0  0  0  0  0  0  0  0  0  0
   25.7101  -10.1827  -14.5230 C   0  0  0  0  0  0  0  0  0  0  0  0
   25.6506   -9.8168  -15.9713 C   0  0  1  0  0  0  0  0  0  0  0  0
   26.9696  -10.1613  -16.6691 C   0  0  0  0  0  0  0  0  0  0  0  0
   24.4767  -10.2232  -16.7437 C   0  0  0  0  0  0  0  0  0  0  0  0
   23.1013   -9.8440  -16.3766 C   0  0  2  0  0  0  0  0  0  0  0  0
   22.2942  -10.4023  -17.5246 N   0  0  0  0  0  0  0  0  0  0  0  0
   22.8359   -8.4025  -16.4415 C   0  0  0  0  0  0  0  0  0  0  0  0
   23.0202   -7.7440  -17.5359 O   0  0  0  0  0  0  0  0  0  0  0  0
   17.8823   -5.1842  -15.5494 N   0  0  0  0  0  0  0  0  0  0  0  0
   18.5443   -5.4407  -16.7629 C   0  0  0  0  0  0  0  0  0  0  0  0
   17.8965   -5.3844  -17.8325 O   0  0  0  0  0  0  0  0  0  0  0  0
   19.9653   -5.7667  -16.7778 C   0  0  0  0  0  0  0  0  0  0  0  0
   20.6657   -5.8166  -15.4743 C   0  0  0  0  0  0  0  0  0  0  0  0
   22.1463   -6.1423  -15.5457 C   0  0  2  0  0  0  0  0  0  0  0  0
   22.3549   -7.5801  -15.3726 N   0  0  0  0  0  0  0  0  0  0  0  0
   22.7984   -5.3194  -14.5130 C   0  0  0  0  0  0  0  0  0  0  0  0
   23.0298   -5.8515  -13.3725 O   0  0  0  0  0  0  0  0  0  0  0  0
   23.2006   -4.0081  -14.6335 O   0  0  0  0  0  0  0  0  0  0  0  0
  2  3  2  0
  2  1  1  0
  4  2  1  0
  5  4  1  0
  5  6  1  1
  7  8  2  0
  7  5  1  0
 10  9  1  1
 10 12  1  0
 10 11  1  0
 13 12  1  6
 13 14  1  0
 14  7  1  0
 15 13  1  0
 15 16  2  0
 18 17  1  0
 18 19  2  0
 20 18  1  0
 21 20  1  0
 22 21  1  1
 23 22  1  0
 23 15  1  0
 24 22  1  0
 25 24  2  0
 26 24  1  0
M  END
$$$$
