NLQ.pdb
     RDKit          3D

 26 25  0  0  1  0  0  0  0  0999 V2000
   10.6990  -21.7504   -0.7662 N   0  0  0  0  0  0  0  0  0  0  0  0
   11.5760  -22.6845   -1.3733 C   0  0  0  0  0  0  0  0  0  0  0  0
   11.2801  -23.0715   -2.5413 O   0  0  0  0  0  0  0  0  0  0  0  0
   12.7511  -23.1374   -0.6248 C   0  0  0  0  0  0  0  0  0  0  0  0
   12.8398  -22.5350    0.7582 C   0  0  2  0  0  0  0  0  0  0  0  0
   12.3804  -21.1674    0.7942 N   0  0  0  0  0  0  0  0  0  0  0  0
   14.2163  -22.5989    1.3022 C   0  0  0  0  0  0  0  0  0  0  0  0
   14.8421  -23.7149    1.3224 O   0  0  0  0  0  0  0  0  0  0  0  0
   19.0470  -19.3275    0.6617 C   0  0  0  0  0  0  0  0  0  0  0  0
   18.4646  -20.4784    1.4175 C   0  0  1  0  0  0  0  0  0  0  0  0
   19.2325  -20.7108    2.7219 C   0  0  0  0  0  0  0  0  0  0  0  0
   17.0136  -20.5304    1.5960 C   0  0  0  0  0  0  0  0  0  0  0  0
   16.3305  -21.6162    2.3202 C   0  0  2  0  0  0  0  0  0  0  0  0
   14.9125  -21.5018    1.8128 N   0  0  0  0  0  0  0  0  0  0  0  0
   16.1966  -21.3872    3.7631 C   0  0  0  0  0  0  0  0  0  0  0  0
   15.7138  -20.2793    4.2157 O   0  0  0  0  0  0  0  0  0  0  0  0
   18.7642  -22.6140    9.2281 N   0  0  0  0  0  0  0  0  0  0  0  0
   19.2747  -23.1837    8.0485 C   0  0  0  0  0  0  0  0  0  0  0  0
   20.1055  -24.1161    8.1339 O   0  0  0  0  0  0  0  0  0  0  0  0
   18.8434  -22.6976    6.7433 C   0  0  0  0  0  0  0  0  0  0  0  0
   17.8776  -21.5756    6.7203 C   0  0  0  0  0  0  0  0  0  0  0  0
   16.4898  -21.9248    6.2150 C   0  0  2  0  0  0  0  0  0  0  0  0
   16.5485  -22.3058    4.8036 N   0  0  0  0  0  0  0  0  0  0  0  0
   15.6482  -20.7449    6.4768 C   0  0  0  0  0  0  0  0  0  0  0  0
   15.3846  -20.4479    7.6932 O   0  0  0  0  0  0  0  0  0  0  0  0
   15.0967  -19.8993    5.5406 O   0  0  0  0  0  0  0  0  0  0  0  0
  2  3  2  0
  2  1  1  0
  4  2  1  0
  5  4  1  0
  5  6  1  6
  7  8  2  0
  7  5  1  0
 10  9  1  1
 10 12  1  0
 10 11  1  0
 13 12  1  6
 13 14  1  0
 14  7  1  0
 15 13  1  0
 15 16  2  0
 18 17  1  0
 18 19  2  0
 20 18  1  0
 21 20  1  0
 22 21  1  6
 23 22  1  0
 23 15  1  0
 24 22  1  0
 25 24  2  0
 26 24  1  0
M  END
$$$$
