NLQ.pdb
     RDKit          3D

 26 25  0  0  1  0  0  0  0  0999 V2000
   17.6095  -24.2198  -12.0383 N   0  0  0  0  0  0  0  0  0  0  0  0
   18.0291  -23.8264  -13.3342 C   0  0  0  0  0  0  0  0  0  0  0  0
   17.5231  -24.4491  -14.3129 O   0  0  0  0  0  0  0  0  0  0  0  0
   19.0060  -22.7420  -13.4597 C   0  0  0  0  0  0  0  0  0  0  0  0
   19.4445  -22.1835  -12.1258 C   0  0  2  0  0  0  0  0  0  0  0  0
   18.3992  -21.4336  -11.4718 N   0  0  0  0  0  0  0  0  0  0  0  0
   20.6482  -21.3292  -12.2526 C   0  0  0  0  0  0  0  0  0  0  0  0
   20.5239  -20.0970  -12.5746 O   0  0  0  0  0  0  0  0  0  0  0  0
   25.9532  -19.7198  -11.1263 C   0  0  0  0  0  0  0  0  0  0  0  0
   25.5835  -21.1393  -11.4148 C   0  0  1  0  0  0  0  0  0  0  0  0
   26.4676  -22.1001  -10.6144 C   0  0  0  0  0  0  0  0  0  0  0  0
   24.1687  -21.5098  -11.3830 C   0  0  0  0  0  0  0  0  0  0  0  0
   23.1508  -20.8726  -12.2363 C   0  0  2  0  0  0  0  0  0  0  0  0
   21.9547  -21.7739  -12.0414 N   0  0  0  0  0  0  0  0  0  0  0  0
   23.4225  -20.9715  -13.6747 C   0  0  0  0  0  0  0  0  0  0  0  0
   23.2310  -22.0783  -14.3101 O   0  0  0  0  0  0  0  0  0  0  0  0
   19.4520  -20.0789  -17.0586 N   0  0  0  0  0  0  0  0  0  0  0  0
   20.4348  -20.0718  -18.0639 C   0  0  0  0  0  0  0  0  0  0  0  0
   20.0777  -20.1033  -19.2633 O   0  0  0  0  0  0  0  0  0  0  0  0
   21.8502  -20.0275  -17.7169 C   0  0  0  0  0  0  0  0  0  0  0  0
   22.1981  -20.0223  -16.2777 C   0  0  0  0  0  0  0  0  0  0  0  0
   23.6821  -19.9457  -15.9696 C   0  0  2  0  0  0  0  0  0  0  0  0
   23.8957  -19.9191  -14.5225 N   0  0  0  0  0  0  0  0  0  0  0  0
   24.1852  -18.7493  -16.6659 C   0  0  0  0  0  0  0  0  0  0  0  0
   24.9861  -18.9144  -17.6502 O   0  0  0  0  0  0  0  0  0  0  0  0
   23.8862  -17.4372  -16.3751 O   0  0  0  0  0  0  0  0  0  0  0  0
  2  3  2  0
  2  1  1  0
  4  2  1  0
  5  4  1  0
  5  6  1  6
  7  8  2  0
  7  5  1  0
 10  9  1  1
 10 12  1  0
 10 11  1  0
 13 12  1  1
 13 14  1  0
 14  7  1  0
 15 13  1  0
 15 16  2  0
 18 17  1  0
 18 19  2  0
 20 18  1  0
 21 20  1  0
 22 21  1  1
 23 22  1  0
 23 15  1  0
 24 22  1  0
 25 24  2  0
 26 24  1  0
M  END
$$$$
