WVH.pdb
     RDKit          3D

 32 34  0  0  1  0  0  0  0  0999 V2000
   25.3313  -12.3774  -17.3048 N   0  0  0  0  0  0  0  0  0  0  0  0
   24.1599  -11.6450  -16.8773 C   0  0  1  0  0  0  0  0  0  0  0  0
   23.8504  -11.9519  -15.4255 C   0  0  0  0  0  0  0  0  0  0  0  0
   23.3965  -13.3260  -15.2040 C   0  0  0  0  0  0  0  0  0  0  0  0
   24.0772  -14.3357  -14.5272 C   0  0  0  0  0  0  0  0  0  0  0  0
   23.3210  -15.4455  -14.5456 N   0  0  0  0  0  0  0  0  0  0  0  0
   22.1763  -15.1993  -15.2066 C   0  0  0  0  0  0  0  0  0  0  0  0
   21.0806  -15.9881  -15.5036 C   0  0  0  0  0  0  0  0  0  0  0  0
   20.0206  -15.4759  -16.2101 C   0  0  0  0  0  0  0  0  0  0  0  0
   20.0730  -14.1540  -16.6180 C   0  0  0  0  0  0  0  0  0  0  0  0
   21.1366  -13.3544  -16.3409 C   0  0  0  0  0  0  0  0  0  0  0  0
   22.2004  -13.8925  -15.6239 C   0  0  0  0  0  0  0  0  0  0  0  0
   24.3987  -10.2028  -17.0935 C   0  0  0  0  0  0  0  0  0  0  0  0
   25.5185   -9.6575  -16.8680 O   0  0  0  0  0  0  0  0  0  0  0  0
   21.5568   -8.0159  -19.3829 C   0  0  0  0  0  0  0  0  0  0  0  0
   22.9893   -7.6253  -19.2146 C   0  0  2  0  0  0  0  0  0  0  0  0
   23.8238   -8.2771  -20.2981 C   0  0  0  0  0  0  0  0  0  0  0  0
   23.5134   -7.9762  -17.8333 C   0  0  2  0  0  0  0  0  0  0  0  0
   23.3489   -9.3826  -17.5709 N   0  0  0  0  0  0  0  0  0  0  0  0
   22.8065   -7.1630  -16.7886 C   0  0  0  0  0  0  0  0  0  0  0  0
   22.9791   -5.9281  -16.7330 O   0  0  0  0  0  0  0  0  0  0  0  0
   21.9343   -7.7567  -15.8464 N   0  0  0  0  0  0  0  0  0  0  0  0
   21.4216   -6.9595  -14.7562 C   0  0  1  0  0  0  0  0  0  0  0  0
   20.6102   -5.7913  -15.2500 C   0  0  0  0  0  0  0  0  0  0  0  0
   19.2110   -6.2224  -15.4425 C   0  0  0  0  0  0  0  0  0  0  0  0
   18.7602   -7.5135  -15.1527 C   0  0  0  0  0  0  0  0  0  0  0  0
   17.4536   -7.6206  -15.4238 N   0  0  0  0  0  0  0  0  0  0  0  0
   17.0722   -6.4243  -15.8782 C   0  0  0  0  0  0  0  0  0  0  0  0
   18.1237   -5.5847  -15.8903 N   0  0  0  0  0  0  0  0  0  0  0  0
   20.6513   -7.8540  -13.8806 C   0  0  0  0  0  0  0  0  0  0  0  0
   20.4294   -9.0296  -14.2390 O   0  0  0  0  0  0  0  0  0  0  0  0
   20.1649   -7.4245  -12.6659 O   0  0  0  0  0  0  0  0  0  0  0  0
  2  1  1  1
  2  3  1  0
  4  5  2  0
  4  3  1  0
  6  5  1  0
  7 12  2  0
  7  6  1  0
  8  7  1  0
  9 10  1  0
  9  8  2  0
 10 11  2  0
 11 12  1  0
 12  4  1  0
 13  2  1  0
 13 14  2  0
 16 15  1  1
 16 18  1  0
 17 16  1  0
 18 19  1  1
 19 13  1  0
 20 18  1  0
 21 20  2  0
 22 20  1  0
 23 22  1  0
 23 30  1  0
 24 25  1  0
 23 24  1  6
 25 29  1  0
 26 27  1  0
 26 25  2  0
 27 28  1  0
 28 29  2  0
 30 32  1  0
 31 30  2  0
M  END
$$$$
