WVH.pdb
     RDKit          3D

 32 34  0  0  1  0  0  0  0  0999 V2000
   20.3087  -12.7721  -18.2582 N   0  0  0  0  0  0  0  0  0  0  0  0
   20.4422  -11.3390  -18.3995 C   0  0  1  0  0  0  0  0  0  0  0  0
   19.2626  -10.7755  -19.1667 C   0  0  0  0  0  0  0  0  0  0  0  0
   19.1534  -11.2939  -20.5314 C   0  0  0  0  0  0  0  0  0  0  0  0
   20.1959  -11.5314  -21.4247 C   0  0  0  0  0  0  0  0  0  0  0  0
   19.6766  -12.0054  -22.5690 N   0  0  0  0  0  0  0  0  0  0  0  0
   18.3391  -12.0859  -22.4570 C   0  0  0  0  0  0  0  0  0  0  0  0
   17.3515  -12.5010  -23.3308 C   0  0  0  0  0  0  0  0  0  0  0  0
   16.0311  -12.4807  -22.9550 C   0  0  0  0  0  0  0  0  0  0  0  0
   15.7108  -12.0363  -21.6837 C   0  0  0  0  0  0  0  0  0  0  0  0
   16.6597  -11.6223  -20.8030 C   0  0  0  0  0  0  0  0  0  0  0  0
   17.9917  -11.6505  -21.2032 C   0  0  0  0  0  0  0  0  0  0  0  0
   20.5573  -10.7397  -17.0537 C   0  0  0  0  0  0  0  0  0  0  0  0
   19.6907  -10.9258  -16.1500 O   0  0  0  0  0  0  0  0  0  0  0  0
   24.3440   -9.5565  -15.6404 C   0  0  0  0  0  0  0  0  0  0  0  0
   23.1400   -9.8485  -14.8049 C   0  0  2  0  0  0  0  0  0  0  0  0
   23.0521  -11.3383  -14.5443 C   0  0  0  0  0  0  0  0  0  0  0  0
   21.8659   -9.3280  -15.4463 C   0  0  2  0  0  0  0  0  0  0  0  0
   21.6710   -9.9239  -16.7428 N   0  0  0  0  0  0  0  0  0  0  0  0
   21.9162   -7.8325  -15.5603 C   0  0  0  0  0  0  0  0  0  0  0  0
   22.8418   -7.2831  -16.1922 O   0  0  0  0  0  0  0  0  0  0  0  0
   20.9333   -7.0065  -14.9665 N   0  0  0  0  0  0  0  0  0  0  0  0
   20.6951   -5.6886  -15.5080 C   0  0  1  0  0  0  0  0  0  0  0  0
   20.5887   -5.7110  -17.0097 C   0  0  0  0  0  0  0  0  0  0  0  0
   20.3853   -4.3328  -17.4997 C   0  0  0  0  0  0  0  0  0  0  0  0
   20.4688   -3.2065  -16.6760 C   0  0  0  0  0  0  0  0  0  0  0  0
   20.2395   -2.0947  -17.3856 N   0  0  0  0  0  0  0  0  0  0  0  0
   20.0134   -2.4971  -18.6385 C   0  0  0  0  0  0  0  0  0  0  0  0
   20.1002   -3.8381  -18.7095 N   0  0  0  0  0  0  0  0  0  0  0  0
   19.4854   -5.1591  -14.8626 C   0  0  0  0  0  0  0  0  0  0  0  0
   18.9015   -5.8380  -13.9922 O   0  0  0  0  0  0  0  0  0  0  0  0
   18.9765   -3.9238  -15.1966 O   0  0  0  0  0  0  0  0  0  0  0  0
  2  1  1  1
  2  3  1  0
  4  5  2  0
  4  3  1  0
  6  5  1  0
  7 12  2  0
  7  6  1  0
  8  7  1  0
  9 10  1  0
  9  8  2  0
 10 11  2  0
 11 12  1  0
 12  4  1  0
 13  2  1  0
 13 14  2  0
 16 15  1  6
 16 18  1  0
 17 16  1  0
 18 19  1  6
 19 13  1  0
 20 18  1  0
 21 20  2  0
 22 20  1  0
 23 22  1  0
 23 30  1  0
 24 25  1  0
 23 24  1  6
 25 29  1  0
 26 27  1  0
 26 25  2  0
 27 28  1  0
 28 29  2  0
 30 32  1  0
 31 30  2  0
M  END
$$$$
