WVH.pdb
     RDKit          3D

 32 34  0  0  1  0  0  0  0  0999 V2000
   26.0496  -22.3410  -14.8991 N   0  0  0  0  0  0  0  0  0  0  0  0
   24.9228  -21.4988  -14.5637 C   0  0  1  0  0  0  0  0  0  0  0  0
   25.4051  -20.1846  -13.9823 C   0  0  0  0  0  0  0  0  0  0  0  0
   26.0590  -20.3280  -12.6805 C   0  0  0  0  0  0  0  0  0  0  0  0
   27.4287  -20.3762  -12.4303 C   0  0  0  0  0  0  0  0  0  0  0  0
   27.6155  -20.5138  -11.1074 N   0  0  0  0  0  0  0  0  0  0  0  0
   26.4236  -20.5572  -10.4867 C   0  0  0  0  0  0  0  0  0  0  0  0
   26.0664  -20.6873   -9.1575 C   0  0  0  0  0  0  0  0  0  0  0  0
   24.7446  -20.7040   -8.7866 C   0  0  0  0  0  0  0  0  0  0  0  0
   23.7786  -20.5878   -9.7714 C   0  0  0  0  0  0  0  0  0  0  0  0
   24.0993  -20.4585  -11.0859 C   0  0  0  0  0  0  0  0  0  0  0  0
   25.4443  -20.4439  -11.4408 C   0  0  0  0  0  0  0  0  0  0  0  0
   24.1071  -21.2939  -15.7787 C   0  0  0  0  0  0  0  0  0  0  0  0
   24.5884  -21.3912  -16.9453 O   0  0  0  0  0  0  0  0  0  0  0  0
   21.1600  -23.3871  -16.3368 C   0  0  0  0  0  0  0  0  0  0  0  0
   21.7259  -22.4250  -17.3303 C   0  0  2  0  0  0  0  0  0  0  0  0
   23.0799  -22.9170  -17.7990 C   0  0  0  0  0  0  0  0  0  0  0  0
   21.8187  -21.0181  -16.7667 C   0  0  2  0  0  0  0  0  0  0  0  0
   22.7335  -20.9767  -15.6552 N   0  0  0  0  0  0  0  0  0  0  0  0
   20.4609  -20.5379  -16.3447 C   0  0  0  0  0  0  0  0  0  0  0  0
   20.0005  -20.8609  -15.2304 O   0  0  0  0  0  0  0  0  0  0  0  0
   19.6685  -19.7161  -17.1798 N   0  0  0  0  0  0  0  0  0  0  0  0
   18.4073  -19.2129  -16.6868 C   0  0  1  0  0  0  0  0  0  0  0  0
   17.9782  -17.9670  -17.4152 C   0  0  0  0  0  0  0  0  0  0  0  0
   18.8923  -16.8624  -17.0616 C   0  0  0  0  0  0  0  0  0  0  0  0
   19.5429  -16.7712  -15.8277 C   0  0  0  0  0  0  0  0  0  0  0  0
   20.3043  -15.6709  -15.7847 N   0  0  0  0  0  0  0  0  0  0  0  0
   20.1468  -15.0674  -16.9654 C   0  0  0  0  0  0  0  0  0  0  0  0
   19.3010  -15.7795  -17.7324 N   0  0  0  0  0  0  0  0  0  0  0  0
   17.4251  -20.3006  -16.7984 C   0  0  0  0  0  0  0  0  0  0  0  0
   17.5445  -21.1507  -17.7054 O   0  0  0  0  0  0  0  0  0  0  0  0
   16.3689  -20.4060  -15.9209 O   0  0  0  0  0  0  0  0  0  0  0  0
  2  1  1  6
  2  3  1  0
  4  5  2  0
  4  3  1  0
  6  5  1  0
  7 12  2  0
  7  6  1  0
  8  7  1  0
  9 10  1  0
  9  8  2  0
 10 11  2  0
 11 12  1  0
 12  4  1  0
 13  2  1  0
 13 14  2  0
 16 15  1  1
 16 18  1  0
 17 16  1  0
 18 19  1  1
 19 13  1  0
 20 18  1  0
 21 20  2  0
 22 20  1  0
 23 22  1  0
 23 30  1  0
 24 25  1  0
 23 24  1  6
 25 29  1  0
 26 27  1  0
 26 25  2  0
 27 28  1  0
 28 29  2  0
 30 32  1  0
 31 30  2  0
M  END
$$$$
