WVH.pdb
     RDKit          3D

 32 34  0  0  1  0  0  0  0  0999 V2000
   26.8638  -22.2116  -16.4526 N   0  0  0  0  0  0  0  0  0  0  0  0
   26.2750  -21.0362  -15.8500 C   0  0  1  0  0  0  0  0  0  0  0  0
   25.4005  -20.3136  -16.8555 C   0  0  0  0  0  0  0  0  0  0  0  0
   26.1490  -19.7499  -17.9802 C   0  0  0  0  0  0  0  0  0  0  0  0
   26.1813  -20.2257  -19.2892 C   0  0  0  0  0  0  0  0  0  0  0  0
   26.9845  -19.4284  -20.0125 N   0  0  0  0  0  0  0  0  0  0  0  0
   27.4760  -18.4535  -19.2278 C   0  0  0  0  0  0  0  0  0  0  0  0
   28.3326  -17.3971  -19.4756 C   0  0  0  0  0  0  0  0  0  0  0  0
   28.6817  -16.5288  -18.4710 C   0  0  0  0  0  0  0  0  0  0  0  0
   28.1579  -16.7339  -17.2062 C   0  0  0  0  0  0  0  0  0  0  0  0
   27.3137  -17.7634  -16.9324 C   0  0  0  0  0  0  0  0  0  0  0  0
   26.9724  -18.6319  -17.9641 C   0  0  0  0  0  0  0  0  0  0  0  0
   25.5096  -21.4499  -14.6556 C   0  0  0  0  0  0  0  0  0  0  0  0
   24.7921  -22.4925  -14.6351 O   0  0  0  0  0  0  0  0  0  0  0  0
   26.7996  -21.2038  -10.9091 C   0  0  0  0  0  0  0  0  0  0  0  0
   25.4822  -20.5134  -11.0529 C   0  0  2  0  0  0  0  0  0  0  0  0
   24.6346  -20.7764   -9.8251 C   0  0  0  0  0  0  0  0  0  0  0  0
   24.7578  -20.9338  -12.3195 C   0  0  2  0  0  0  0  0  0  0  0  0
   25.5676  -20.6649  -13.4796 N   0  0  0  0  0  0  0  0  0  0  0  0
   23.4410  -20.2217  -12.4244 C   0  0  0  0  0  0  0  0  0  0  0  0
   23.4085  -18.9946  -12.6506 O   0  0  0  0  0  0  0  0  0  0  0  0
   22.2110  -20.9038  -12.2738 N   0  0  0  0  0  0  0  0  0  0  0  0
   20.9931  -20.2769  -12.7328 C   0  0  1  0  0  0  0  0  0  0  0  0
   21.0747  -19.8923  -14.1862 C   0  0  0  0  0  0  0  0  0  0  0  0
   19.7911  -19.2896  -14.5986 C   0  0  0  0  0  0  0  0  0  0  0  0
   19.5435  -17.9143  -14.5619 C   0  0  0  0  0  0  0  0  0  0  0  0
   18.3017  -17.6547  -14.9896 N   0  0  0  0  0  0  0  0  0  0  0  0
   17.7624  -18.8375  -15.2948 C   0  0  0  0  0  0  0  0  0  0  0  0
   18.6530  -19.8188  -15.0613 N   0  0  0  0  0  0  0  0  0  0  0  0
   19.8878  -21.2046  -12.4538 C   0  0  0  0  0  0  0  0  0  0  0  0
   18.7080  -20.8222  -12.5996 O   0  0  0  0  0  0  0  0  0  0  0  0
   20.1231  -22.4945  -12.0325 O   0  0  0  0  0  0  0  0  0  0  0  0
  2  1  1  6
  2  3  1  0
  4  5  2  0
  4  3  1  0
  6  5  1  0
  7 12  2  0
  7  6  1  0
  8  7  1  0
  9 10  1  0
  9  8  2  0
 10 11  2  0
 11 12  1  0
 12  4  1  0
 13  2  1  0
 13 14  2  0
 16 15  1  1
 16 18  1  0
 17 16  1  0
 18 19  1  6
 19 13  1  0
 20 18  1  0
 21 20  2  0
 22 20  1  0
 23 22  1  0
 23 30  1  0
 24 25  1  0
 23 24  1  6
 25 29  1  0
 26 27  1  0
 26 25  2  0
 27 28  1  0
 28 29  2  0
 30 32  1  0
 31 30  2  0
M  END
$$$$
