WVH.pdb
     RDKit          3D

 32 34  0  0  1  0  0  0  0  0999 V2000
   28.2415  -21.8979  -10.6004 N   0  0  0  0  0  0  0  0  0  0  0  0
   27.0259  -21.2985  -10.0960 C   0  0  1  0  0  0  0  0  0  0  0  0
   27.3550  -20.1313   -9.1865 C   0  0  0  0  0  0  0  0  0  0  0  0
   28.2869  -20.4748   -8.1111 C   0  0  0  0  0  0  0  0  0  0  0  0
   29.4764  -21.1906   -8.2284 C   0  0  0  0  0  0  0  0  0  0  0  0
   30.0355  -21.2899   -7.0113 N   0  0  0  0  0  0  0  0  0  0  0  0
   29.2586  -20.6683   -6.1070 C   0  0  0  0  0  0  0  0  0  0  0  0
   29.3774  -20.4843   -4.7420 C   0  0  0  0  0  0  0  0  0  0  0  0
   28.4176  -19.7952   -4.0427 C   0  0  0  0  0  0  0  0  0  0  0  0
   27.3298  -19.2892   -4.7334 C   0  0  0  0  0  0  0  0  0  0  0  0
   27.1859  -19.4542   -6.0748 C   0  0  0  0  0  0  0  0  0  0  0  0
   28.1693  -20.1554   -6.7649 C   0  0  0  0  0  0  0  0  0  0  0  0
   26.1928  -20.8814  -11.2430 C   0  0  0  0  0  0  0  0  0  0  0  0
   26.6898  -20.5384  -12.3554 O   0  0  0  0  0  0  0  0  0  0  0  0
   25.5678  -22.2479  -13.4949 C   0  0  0  0  0  0  0  0  0  0  0  0
   24.1349  -22.1181  -13.0914 C   0  0  2  0  0  0  0  0  0  0  0  0
   23.2579  -22.1160  -14.3267 C   0  0  0  0  0  0  0  0  0  0  0  0
   23.8946  -20.8795  -12.2465 C   0  0  2  0  0  0  0  0  0  0  0  0
   24.7838  -20.8582  -11.1138 N   0  0  0  0  0  0  0  0  0  0  0  0
   22.4656  -20.8322  -11.7905 C   0  0  0  0  0  0  0  0  0  0  0  0
   21.8203  -21.8901  -11.6407 O   0  0  0  0  0  0  0  0  0  0  0  0
   21.8105  -19.6084  -11.5183 N   0  0  0  0  0  0  0  0  0  0  0  0
   20.8009  -19.1273  -12.4328 C   0  0  1  0  0  0  0  0  0  0  0  0
   21.3539  -18.9174  -13.8173 C   0  0  0  0  0  0  0  0  0  0  0  0
   20.3538  -18.1991  -14.6326 C   0  0  0  0  0  0  0  0  0  0  0  0
   19.1234  -17.7661  -14.1299 C   0  0  0  0  0  0  0  0  0  0  0  0
   18.4221  -17.1480  -15.0882 N   0  0  0  0  0  0  0  0  0  0  0  0
   19.1850  -17.1826  -16.1836 C   0  0  0  0  0  0  0  0  0  0  0  0
   20.3432  -17.8121  -15.9131 N   0  0  0  0  0  0  0  0  0  0  0  0
   19.6891  -20.0883  -12.4069 C   0  0  0  0  0  0  0  0  0  0  0  0
   19.6878  -21.0536  -13.1991 O   0  0  0  0  0  0  0  0  0  0  0  0
   18.6414  -19.9492  -11.5240 O   0  0  0  0  0  0  0  0  0  0  0  0
  2  1  1  6
  2  3  1  0
  4  5  2  0
  4  3  1  0
  6  5  1  0
  7 12  2  0
  7  6  1  0
  8  7  1  0
  9 10  1  0
  9  8  2  0
 10 11  2  0
 11 12  1  0
 12  4  1  0
 13  2  1  0
 13 14  2  0
 16 15  1  6
 16 18  1  0
 17 16  1  0
 18 19  1  1
 19 13  1  0
 20 18  1  0
 21 20  2  0
 22 20  1  0
 23 22  1  0
 23 30  1  0
 24 25  1  0
 23 24  1  6
 25 29  1  0
 26 27  1  0
 26 25  2  0
 27 28  1  0
 28 29  2  0
 30 32  1  0
 31 30  2  0
M  END
$$$$
