WVH.pdb
     RDKit          3D

 32 34  0  0  1  0  0  0  0  0999 V2000
   16.8793  -16.2222    3.8281 N   0  0  0  0  0  0  0  0  0  0  0  0
   17.8387  -16.0833    4.9013 C   0  0  1  0  0  0  0  0  0  0  0  0
   17.2356  -15.2916    6.0446 C   0  0  0  0  0  0  0  0  0  0  0  0
   17.6663  -13.8928    6.0761 C   0  0  0  0  0  0  0  0  0  0  0  0
   16.9182  -12.7761    5.7094 C   0  0  0  0  0  0  0  0  0  0  0  0
   17.6747  -11.6803    5.8847 N   0  0  0  0  0  0  0  0  0  0  0  0
   18.8843  -12.0382    6.3503 C   0  0  0  0  0  0  0  0  0  0  0  0
   20.0086  -11.3086    6.6889 C   0  0  0  0  0  0  0  0  0  0  0  0
   21.1388  -11.9379    7.1489 C   0  0  0  0  0  0  0  0  0  0  0  0
   21.1279  -13.3172    7.2662 C   0  0  0  0  0  0  0  0  0  0  0  0
   20.0377  -14.0610    6.9412 C   0  0  0  0  0  0  0  0  0  0  0  0
   18.9027  -13.4042    6.4770 C   0  0  0  0  0  0  0  0  0  0  0  0
   18.2644  -17.4310    5.3327 C   0  0  0  0  0  0  0  0  0  0  0  0
   17.7816  -18.4891    4.8330 O   0  0  0  0  0  0  0  0  0  0  0  0
   22.0789  -17.9803    6.9829 C   0  0  0  0  0  0  0  0  0  0  0  0
   20.9519  -18.6641    7.6864 C   0  0  2  0  0  0  0  0  0  0  0  0
   21.4276  -19.9943    8.2337 C   0  0  0  0  0  0  0  0  0  0  0  0
   19.7454  -18.8434    6.7820 C   0  0  2  0  0  0  0  0  0  0  0  0
   19.2482  -17.5658    6.3409 N   0  0  0  0  0  0  0  0  0  0  0  0
   18.6686  -19.6044    7.4988 C   0  0  0  0  0  0  0  0  0  0  0  0
   17.9865  -19.0439    8.3811 O   0  0  0  0  0  0  0  0  0  0  0  0
   18.3927  -20.9603    7.2048 N   0  0  0  0  0  0  0  0  0  0  0  0
   17.3631  -21.6501    7.9470 C   0  0  1  0  0  0  0  0  0  0  0  0
   15.9900  -21.3606    7.4011 C   0  0  0  0  0  0  0  0  0  0  0  0
   14.9879  -22.0898    8.2041 C   0  0  0  0  0  0  0  0  0  0  0  0
   14.0617  -22.9784    7.6505 C   0  0  0  0  0  0  0  0  0  0  0  0
   13.2799  -23.4907    8.6090 N   0  0  0  0  0  0  0  0  0  0  0  0
   13.6943  -22.9434    9.7543 C   0  0  0  0  0  0  0  0  0  0  0  0
   14.7178  -22.1034    9.5142 N   0  0  0  0  0  0  0  0  0  0  0  0
   17.6900  -23.0829    7.9263 C   0  0  0  0  0  0  0  0  0  0  0  0
   16.9772  -23.8888    8.5602 O   0  0  0  0  0  0  0  0  0  0  0  0
   18.7708  -23.5618    7.2198 O   0  0  0  0  0  0  0  0  0  0  0  0
  2  1  1  6
  2  3  1  0
  4  5  2  0
  4  3  1  0
  6  5  1  0
  7 12  2  0
  7  6  1  0
  8  7  1  0
  9 10  1  0
  9  8  2  0
 10 11  2  0
 11 12  1  0
 12  4  1  0
 13  2  1  0
 13 14  2  0
 16 15  1  6
 16 18  1  0
 17 16  1  0
 18 19  1  1
 19 13  1  0
 20 18  1  0
 21 20  2  0
 22 20  1  0
 23 22  1  0
 23 30  1  0
 24 25  1  0
 23 24  1  6
 25 29  1  0
 26 27  1  0
 26 25  2  0
 27 28  1  0
 28 29  2  0
 30 32  1  0
 31 30  2  0
M  END
$$$$
