WVH.pdb
     RDKit          3D

 32 34  0  0  1  0  0  0  0  0999 V2000
   26.1438  -18.5977   -9.2202 N   0  0  0  0  0  0  0  0  0  0  0  0
   26.6722  -19.8095   -9.8066 C   0  0  1  0  0  0  0  0  0  0  0  0
   26.2800  -21.0112   -8.9700 C   0  0  0  0  0  0  0  0  0  0  0  0
   26.5092  -20.8233   -7.5364 C   0  0  0  0  0  0  0  0  0  0  0  0
   25.5482  -20.8096   -6.5278 C   0  0  0  0  0  0  0  0  0  0  0  0
   26.1670  -20.6104   -5.3526 N   0  0  0  0  0  0  0  0  0  0  0  0
   27.4911  -20.4938   -5.5551 C   0  0  0  0  0  0  0  0  0  0  0  0
   28.5530  -20.2829   -4.6954 C   0  0  0  0  0  0  0  0  0  0  0  0
   29.8366  -20.2015   -5.1758 C   0  0  0  0  0  0  0  0  0  0  0  0
   30.0440  -20.3350   -6.5379 C   0  0  0  0  0  0  0  0  0  0  0  0
   29.0201  -20.5430   -7.4073 C   0  0  0  0  0  0  0  0  0  0  0  0
   27.7271  -20.6224   -6.9005 C   0  0  0  0  0  0  0  0  0  0  0  0
   26.1733  -19.9208  -11.1931 C   0  0  0  0  0  0  0  0  0  0  0  0
   25.1146  -19.3470  -11.5830 O   0  0  0  0  0  0  0  0  0  0  0  0
   29.0839  -19.6524  -13.7274 C   0  0  0  0  0  0  0  0  0  0  0  0
   28.0958  -20.6440  -14.2501 C   0  0  2  0  0  0  0  0  0  0  0  0
   27.9579  -20.4808  -15.7499 C   0  0  0  0  0  0  0  0  0  0  0  0
   26.7494  -20.5200  -13.5591 C   0  0  2  0  0  0  0  0  0  0  0  0
   26.8919  -20.6929  -12.1365 N   0  0  0  0  0  0  0  0  0  0  0  0
   25.7866  -21.5284  -14.1146 C   0  0  0  0  0  0  0  0  0  0  0  0
   26.0021  -22.7487  -13.9655 O   0  0  0  0  0  0  0  0  0  0  0  0
   24.6207  -21.1386  -14.8142 N   0  0  0  0  0  0  0  0  0  0  0  0
   23.3244  -21.4729  -14.2713 C   0  0  1  0  0  0  0  0  0  0  0  0
   23.1966  -21.0563  -12.8301 C   0  0  0  0  0  0  0  0  0  0  0  0
   21.8197  -21.3269  -12.3699 C   0  0  0  0  0  0  0  0  0  0  0  0
   21.2713  -22.6112  -12.3069 C   0  0  0  0  0  0  0  0  0  0  0  0
   20.0118  -22.5563  -11.8562 N   0  0  0  0  0  0  0  0  0  0  0  0
   19.7558  -21.2648  -11.6342 C   0  0  0  0  0  0  0  0  0  0  0  0
   20.8377  -20.5260  -11.9414 N   0  0  0  0  0  0  0  0  0  0  0  0
   22.3112  -20.8480  -15.1333 C   0  0  0  0  0  0  0  0  0  0  0  0
   22.5134  -19.7063  -15.5974 O   0  0  0  0  0  0  0  0  0  0  0  0
   21.1360  -21.4953  -15.4441 O   0  0  0  0  0  0  0  0  0  0  0  0
  2  1  1  1
  2  3  1  0
  4  5  2  0
  4  3  1  0
  6  5  1  0
  7 12  2  0
  7  6  1  0
  8  7  1  0
  9 10  1  0
  9  8  2  0
 10 11  2  0
 11 12  1  0
 12  4  1  0
 13  2  1  0
 13 14  2  0
 16 15  1  1
 16 18  1  0
 17 16  1  0
 18 19  1  1
 19 13  1  0
 20 18  1  0
 21 20  2  0
 22 20  1  0
 23 22  1  0
 23 30  1  0
 24 25  1  0
 23 24  1  1
 25 29  1  0
 26 27  1  0
 26 25  2  0
 27 28  1  0
 28 29  2  0
 30 32  1  0
 31 30  2  0
M  END
$$$$
