VEM.pdb
     RDKit          3D

 25 24  0  0  1  0  0  0  0  0999 V2000
   20.5879  -22.6266  -12.7066 C   0  0  0  0  0  0  0  0  0  0  0  0
   20.7924  -21.2618  -13.3940 C   0  0  2  0  0  0  0  0  0  0  0  0
   19.5711  -21.1143  -14.3170 C   0  0  0  0  0  0  0  0  0  0  0  0
   22.0430  -21.3496  -14.2083 C   0  0  2  0  0  0  0  0  0  0  0  0
   21.7877  -22.4656  -15.1772 N   0  0  0  0  0  0  0  0  0  0  0  0
   23.2780  -21.6893  -13.5276 C   0  0  0  0  0  0  0  0  0  0  0  0
   23.5595  -22.9443  -13.3764 O   0  0  0  0  0  0  0  0  0  0  0  0
   24.2155  -20.7790  -13.0100 N   0  0  0  0  0  0  0  0  0  0  0  0
   25.4245  -21.2722  -12.3122 C   0  0  1  0  0  0  0  0  0  0  0  0
   26.6239  -20.8165  -13.0818 C   0  0  0  0  0  0  0  0  0  0  0  0
   26.9579  -21.6234  -14.2866 C   0  0  0  0  0  0  0  0  0  0  0  0
   28.1930  -21.1929  -14.9753 C   0  0  0  0  0  0  0  0  0  0  0  0
   29.1946  -21.9101  -15.0120 O   0  0  0  0  0  0  0  0  0  0  0  0
   25.3801  -20.8100  -10.9219 C   0  0  0  0  0  0  0  0  0  0  0  0
   24.6325  -19.7906  -10.6691 O   0  0  0  0  0  0  0  0  0  0  0  0
   28.2360  -19.9316  -15.6087 O   0  0  0  0  0  0  0  0  0  0  0  0
   29.6317  -21.2061   -4.6438 C   0  0  0  0  0  0  0  0  0  0  0  0
   27.9637  -21.2805   -5.2801 S   0  0  0  0  0  0  0  0  0  0  0  0
   27.5905  -20.1937   -6.6446 C   0  0  0  0  0  0  0  0  0  0  0  0
   27.4485  -20.8660   -7.9522 C   0  0  0  0  0  0  0  0  0  0  0  0
   26.0812  -20.8985   -8.5631 C   0  0  2  0  0  0  0  0  0  0  0  0
   26.1105  -21.4381   -9.9082 N   0  0  0  0  0  0  0  0  0  0  0  0
   25.5322  -19.5061   -8.7301 C   0  0  0  0  0  0  0  0  0  0  0  0
   24.5988  -19.0279   -8.0724 O   0  0  0  0  0  0  0  0  0  0  0  0
   26.0869  -18.6349   -9.6980 O   0  0  0  0  0  0  0  0  0  0  0  0
  2  1  1  6
  2  3  1  0
  4  2  1  0
  4  5  1  6
  6  7  2  0
  6  4  1  0
  8  6  1  0
  9  8  1  0
  9 10  1  6
 11 10  1  0
 12 11  1  0
 13 12  2  0
 14 15  2  0
 14  9  1  0
 16 12  1  0
 18 17  1  0
 19 18  1  0
 19 20  1  0
 21 20  1  6
 21 22  1  0
 21 23  1  0
 22 14  1  0
 23 25  1  0
 24 23  2  0
M  END
$$$$
