VEM.pdb
     RDKit          3D

 25 24  0  0  1  0  0  0  0  0999 V2000
   32.2940  -28.9941  -17.6302 C   0  0  0  0  0  0  0  0  0  0  0  0
   32.3030  -30.3131  -18.4285 C   0  0  2  0  0  0  0  0  0  0  0  0
   33.6357  -30.2840  -19.1956 C   0  0  0  0  0  0  0  0  0  0  0  0
   31.1578  -30.2675  -19.3882 C   0  0  2  0  0  0  0  0  0  0  0  0
   31.5001  -29.1563  -20.3355 N   0  0  0  0  0  0  0  0  0  0  0  0
   29.8418  -29.9528  -18.8657 C   0  0  0  0  0  0  0  0  0  0  0  0
   29.3258  -30.7643  -17.9983 O   0  0  0  0  0  0  0  0  0  0  0  0
   29.0596  -28.8368  -19.2096 N   0  0  0  0  0  0  0  0  0  0  0  0
   27.7492  -28.6171  -18.5566 C   0  0  1  0  0  0  0  0  0  0  0  0
   27.6907  -27.1940  -18.0985 C   0  0  0  0  0  0  0  0  0  0  0  0
   28.0072  -26.9689  -16.6620 C   0  0  0  0  0  0  0  0  0  0  0  0
   27.8660  -25.5627  -16.2284 C   0  0  0  0  0  0  0  0  0  0  0  0
   26.9197  -25.1950  -15.5296 O   0  0  0  0  0  0  0  0  0  0  0  0
   26.6913  -28.9991  -19.4966 C   0  0  0  0  0  0  0  0  0  0  0  0
   26.9183  -28.7885  -20.7481 O   0  0  0  0  0  0  0  0  0  0  0  0
   28.8331  -24.6109  -16.6192 O   0  0  0  0  0  0  0  0  0  0  0  0
   21.6410  -34.4322  -21.7785 C   0  0  0  0  0  0  0  0  0  0  0  0
   22.8893  -33.7382  -20.7048 S   0  0  0  0  0  0  0  0  0  0  0  0
   23.1364  -31.9752  -20.8185 C   0  0  0  0  0  0  0  0  0  0  0  0
   24.2279  -31.4462  -19.9755 C   0  0  0  0  0  0  0  0  0  0  0  0
   24.4978  -29.9744  -20.0448 C   0  0  2  0  0  0  0  0  0  0  0  0
   25.4877  -29.5668  -19.0673 N   0  0  0  0  0  0  0  0  0  0  0  0
   23.2681  -29.1832  -19.6848 C   0  0  0  0  0  0  0  0  0  0  0  0
   23.0689  -28.6403  -18.5902 O   0  0  0  0  0  0  0  0  0  0  0  0
   22.2285  -29.0159  -20.6308 O   0  0  0  0  0  0  0  0  0  0  0  0
  2  1  1  1
  2  3  1  0
  4  2  1  0
  4  5  1  6
  6  7  2  0
  6  4  1  0
  8  6  1  0
  9  8  1  0
  9 10  1  6
 11 10  1  0
 12 11  1  0
 13 12  2  0
 14 15  2  0
 14  9  1  0
 16 12  1  0
 18 17  1  0
 19 18  1  0
 19 20  1  0
 21 20  1  1
 21 22  1  0
 21 23  1  0
 22 14  1  0
 23 25  1  0
 24 23  2  0
M  END
$$$$
