VEM.pdb
     RDKit          3D

 25 24  0  0  1  0  0  0  0  0999 V2000
   17.9928   -9.4048  -14.1255 C   0  0  0  0  0  0  0  0  0  0  0  0
   18.0985  -10.5531  -13.1021 C   0  0  2  0  0  0  0  0  0  0  0  0
   18.4036  -11.7957  -13.9555 C   0  0  0  0  0  0  0  0  0  0  0  0
   16.7631  -10.6970  -12.4459 C   0  0  2  0  0  0  0  0  0  0  0  0
   15.8279  -11.0551  -13.5623 N   0  0  0  0  0  0  0  0  0  0  0  0
   16.1883   -9.5294  -11.8053 C   0  0  0  0  0  0  0  0  0  0  0  0
   15.4845   -8.7242  -12.5356 O   0  0  0  0  0  0  0  0  0  0  0  0
   16.3185   -9.1803  -10.4501 N   0  0  0  0  0  0  0  0  0  0  0  0
   15.6719   -7.9531   -9.9326 C   0  0  1  0  0  0  0  0  0  0  0  0
   15.1344   -8.2507   -8.5683 C   0  0  0  0  0  0  0  0  0  0  0  0
   14.4469   -7.1195   -7.8887 C   0  0  0  0  0  0  0  0  0  0  0  0
   12.9908   -7.0639   -8.1377 C   0  0  0  0  0  0  0  0  0  0  0  0
   12.3253   -8.0878   -8.3042 O   0  0  0  0  0  0  0  0  0  0  0  0
   16.6463   -6.8590   -9.9789 C   0  0  0  0  0  0  0  0  0  0  0  0
   17.8347   -7.1172   -9.5510 O   0  0  0  0  0  0  0  0  0  0  0  0
   12.3381   -5.8127   -8.1880 O   0  0  0  0  0  0  0  0  0  0  0  0
   21.7720   -4.0749  -14.1506 C   0  0  0  0  0  0  0  0  0  0  0  0
   20.5439   -5.1370  -13.4046 S   0  0  0  0  0  0  0  0  0  0  0  0
   19.3868   -4.3496  -12.2987 C   0  0  0  0  0  0  0  0  0  0  0  0
   18.3941   -5.2583  -11.6898 C   0  0  0  0  0  0  0  0  0  0  0  0
   17.3660   -4.6475  -10.7876 C   0  0  2  0  0  0  0  0  0  0  0  0
   16.3136   -5.5901  -10.4629 N   0  0  0  0  0  0  0  0  0  0  0  0
   16.6533   -3.5120  -11.4736 C   0  0  0  0  0  0  0  0  0  0  0  0
   15.6113   -3.6231  -12.1326 O   0  0  0  0  0  0  0  0  0  0  0  0
   17.1697   -2.1966  -11.3926 O   0  0  0  0  0  0  0  0  0  0  0  0
  2  1  1  6
  2  3  1  0
  4  2  1  0
  4  5  1  6
  6  7  2  0
  6  4  1  0
  8  6  1  0
  9  8  1  0
  9 10  1  1
 11 10  1  0
 12 11  1  0
 13 12  2  0
 14 15  2  0
 14  9  1  0
 16 12  1  0
 18 17  1  0
 19 18  1  0
 19 20  1  0
 21 20  1  6
 21 22  1  0
 21 23  1  0
 22 14  1  0
 23 25  1  0
 24 23  2  0
M  END
$$$$
