VEM.pdb
     RDKit          3D

 25 24  0  0  1  0  0  0  0  0999 V2000
   17.9026  -15.5195  -18.1871 C   0  0  0  0  0  0  0  0  0  0  0  0
   19.0755  -16.1718  -17.4281 C   0  0  2  0  0  0  0  0  0  0  0  0
   18.5202  -17.5290  -16.9645 C   0  0  0  0  0  0  0  0  0  0  0  0
   19.3810  -15.3114  -16.2444 C   0  0  2  0  0  0  0  0  0  0  0  0
   18.2589  -15.5736  -15.2845 N   0  0  0  0  0  0  0  0  0  0  0  0
   19.4124  -13.8739  -16.4357 C   0  0  0  0  0  0  0  0  0  0  0  0
   20.3917  -13.3766  -17.1219 O   0  0  0  0  0  0  0  0  0  0  0  0
   18.4708  -12.9527  -15.9458 N   0  0  0  0  0  0  0  0  0  0  0  0
   18.6414  -11.5052  -16.2053 C   0  0  1  0  0  0  0  0  0  0  0  0
   17.3274  -10.8314  -15.9639 C   0  0  0  0  0  0  0  0  0  0  0  0
   16.9933   -9.7232  -16.8990 C   0  0  0  0  0  0  0  0  0  0  0  0
   15.7088   -9.0537  -16.6035 C   0  0  0  0  0  0  0  0  0  0  0  0
   14.7458   -9.1397  -17.3678 O   0  0  0  0  0  0  0  0  0  0  0  0
   19.7424  -11.0101  -15.3738 C   0  0  0  0  0  0  0  0  0  0  0  0
   19.8985  -11.5653  -14.2208 O   0  0  0  0  0  0  0  0  0  0  0  0
   15.5726   -8.2953  -15.4202 O   0  0  0  0  0  0  0  0  0  0  0  0
   27.1705  -10.8483  -14.4701 C   0  0  0  0  0  0  0  0  0  0  0  0
   25.6063  -11.1584  -15.2763 S   0  0  0  0  0  0  0  0  0  0  0  0
   24.2210  -10.1873  -14.7108 C   0  0  0  0  0  0  0  0  0  0  0  0
   22.9390  -10.4865  -15.3807 C   0  0  0  0  0  0  0  0  0  0  0  0
   21.7577   -9.6424  -15.0120 C   0  0  2  0  0  0  0  0  0  0  0  0
   20.5907   -9.9839  -15.8012 N   0  0  0  0  0  0  0  0  0  0  0  0
   22.0119   -8.1921  -15.3276 C   0  0  0  0  0  0  0  0  0  0  0  0
   21.8823   -7.6759  -16.4453 O   0  0  0  0  0  0  0  0  0  0  0  0
   22.4337   -7.3061  -14.3074 O   0  0  0  0  0  0  0  0  0  0  0  0
  2  1  1  6
  2  3  1  0
  4  2  1  0
  4  5  1  1
  6  7  2  0
  6  4  1  0
  8  6  1  0
  9  8  1  0
  9 10  1  1
 11 10  1  0
 12 11  1  0
 13 12  2  0
 14 15  2  0
 14  9  1  0
 16 12  1  0
 18 17  1  0
 19 18  1  0
 19 20  1  0
 21 20  1  6
 21 22  1  0
 21 23  1  0
 22 14  1  0
 23 25  1  0
 24 23  2  0
M  END
$$$$
