VEM.pdb
     RDKit          3D

 25 24  0  0  1  0  0  0  0  0999 V2000
   16.6819  -12.7050    7.1877 C   0  0  0  0  0  0  0  0  0  0  0  0
   18.1762  -12.3941    6.9699 C   0  0  2  0  0  0  0  0  0  0  0  0
   18.1815  -11.0223    6.2743 C   0  0  0  0  0  0  0  0  0  0  0  0
   18.7248  -13.4374    6.0504 C   0  0  2  0  0  0  0  0  0  0  0  0
   18.1959  -13.0668    4.6969 N   0  0  0  0  0  0  0  0  0  0  0  0
   18.3282  -14.8155    6.2683 C   0  0  0  0  0  0  0  0  0  0  0  0
   18.5681  -15.3373    7.4290 O   0  0  0  0  0  0  0  0  0  0  0  0
   17.6976  -15.6533    5.3325 N   0  0  0  0  0  0  0  0  0  0  0  0
   17.4497  -17.0765    5.6564 C   0  0  1  0  0  0  0  0  0  0  0  0
   16.5607  -17.6466    4.5964 C   0  0  0  0  0  0  0  0  0  0  0  0
   16.1984  -19.0799    4.7655 C   0  0  0  0  0  0  0  0  0  0  0  0
   15.4123  -19.6376    3.6447 C   0  0  0  0  0  0  0  0  0  0  0  0
   15.3914  -19.0948    2.5384 O   0  0  0  0  0  0  0  0  0  0  0  0
   18.7422  -17.7534    5.7973 C   0  0  0  0  0  0  0  0  0  0  0  0
   19.7641  -17.1779    5.2620 O   0  0  0  0  0  0  0  0  0  0  0  0
   14.6642  -20.8197    3.8365 O   0  0  0  0  0  0  0  0  0  0  0  0
   24.2694  -16.9226    8.4685 C   0  0  0  0  0  0  0  0  0  0  0  0
   22.8576  -17.4883    9.4062 S   0  0  0  0  0  0  0  0  0  0  0  0
   21.9412  -18.8504    8.7084 C   0  0  0  0  0  0  0  0  0  0  0  0
   20.6818  -18.4711    8.0361 C   0  0  0  0  0  0  0  0  0  0  0  0
   20.1753  -19.3829    6.9609 C   0  0  2  0  0  0  0  0  0  0  0  0
   18.8729  -18.9674    6.4788 N   0  0  0  0  0  0  0  0  0  0  0  0
   19.9511  -20.7731    7.4946 C   0  0  0  0  0  0  0  0  0  0  0  0
   19.0344  -21.1003    8.2594 O   0  0  0  0  0  0  0  0  0  0  0  0
   20.8247  -21.8247    7.1273 O   0  0  0  0  0  0  0  0  0  0  0  0
  2  1  1  6
  2  3  1  0
  4  2  1  0
  4  5  1  6
  6  7  2  0
  6  4  1  0
  8  6  1  0
  9  8  1  0
  9 10  1  6
 11 10  1  0
 12 11  1  0
 13 12  2  0
 14 15  2  0
 14  9  1  0
 16 12  1  0
 18 17  1  0
 19 18  1  0
 19 20  1  0
 21 20  1  1
 21 22  1  0
 21 23  1  0
 22 14  1  0
 23 25  1  0
 24 23  2  0
M  END
$$$$
