VEM.pdb
     RDKit          3D

 25 24  0  0  1  0  0  0  0  0999 V2000
   27.0313  -18.6613  -18.8817 C   0  0  0  0  0  0  0  0  0  0  0  0
   28.2034  -18.8694  -17.9018 C   0  0  2  0  0  0  0  0  0  0  0  0
   29.2154  -19.7143  -18.6939 C   0  0  0  0  0  0  0  0  0  0  0  0
   27.6845  -19.6496  -16.7369 C   0  0  2  0  0  0  0  0  0  0  0  0
   27.3999  -21.0142  -17.2902 N   0  0  0  0  0  0  0  0  0  0  0  0
   26.4507  -19.2078  -16.1151 C   0  0  0  0  0  0  0  0  0  0  0  0
   26.4537  -18.0609  -15.5137 O   0  0  0  0  0  0  0  0  0  0  0  0
   25.2329  -19.9093  -16.1018 N   0  0  0  0  0  0  0  0  0  0  0  0
   24.0844  -19.3914  -15.3242 C   0  0  1  0  0  0  0  0  0  0  0  0
   22.9292  -19.2198  -16.2594 C   0  0  0  0  0  0  0  0  0  0  0  0
   22.8814  -17.9239  -16.9893 C   0  0  0  0  0  0  0  0  0  0  0  0
   21.7130  -17.7801  -17.8834 C   0  0  0  0  0  0  0  0  0  0  0  0
   21.0562  -18.7569  -18.2488 O   0  0  0  0  0  0  0  0  0  0  0  0
   23.8322  -20.3027  -14.2042 C   0  0  0  0  0  0  0  0  0  0  0  0
   24.2470  -21.5164  -14.3342 O   0  0  0  0  0  0  0  0  0  0  0  0
   21.3329  -16.4973  -18.3350 O   0  0  0  0  0  0  0  0  0  0  0  0
   26.4149  -19.8325   -8.8328 C   0  0  0  0  0  0  0  0  0  0  0  0
   25.0904  -20.9277   -8.3442 S   0  0  0  0  0  0  0  0  0  0  0  0
   23.8824  -21.3136   -9.5987 C   0  0  0  0  0  0  0  0  0  0  0  0
   23.9961  -20.5149  -10.8361 C   0  0  0  0  0  0  0  0  0  0  0  0
   23.0209  -20.8076  -11.9348 C   0  0  2  0  0  0  0  0  0  0  0  0
   23.1735  -19.8859  -13.0432 N   0  0  0  0  0  0  0  0  0  0  0  0
   21.6043  -20.6004  -11.4677 C   0  0  0  0  0  0  0  0  0  0  0  0
   20.9286  -19.5851  -11.6799 O   0  0  0  0  0  0  0  0  0  0  0  0
   20.9462  -21.6098  -10.7250 O   0  0  0  0  0  0  0  0  0  0  0  0
  2  1  1  6
  2  3  1  0
  4  2  1  0
  4  5  1  6
  6  7  2  0
  6  4  1  0
  8  6  1  0
  9  8  1  0
  9 10  1  6
 11 10  1  0
 12 11  1  0
 13 12  2  0
 14 15  2  0
 14  9  1  0
 16 12  1  0
 18 17  1  0
 19 18  1  0
 19 20  1  0
 21 20  1  1
 21 22  1  0
 21 23  1  0
 22 14  1  0
 23 25  1  0
 24 23  2  0
M  END
$$$$
