VEM.pdb
     RDKit          3D

 25 24  0  0  1  0  0  0  0  0999 V2000
   28.7791  -19.5631  -17.4571 C   0  0  0  0  0  0  0  0  0  0  0  0
   27.7139  -19.0896  -16.4480 C   0  0  2  0  0  0  0  0  0  0  0  0
   28.1407  -17.6562  -16.0893 C   0  0  0  0  0  0  0  0  0  0  0  0
   27.8105  -19.9700  -15.2436 C   0  0  2  0  0  0  0  0  0  0  0  0
   27.5180  -21.3486  -15.7565 N   0  0  0  0  0  0  0  0  0  0  0  0
   26.8770  -19.7441  -14.1567 C   0  0  0  0  0  0  0  0  0  0  0  0
   26.9172  -18.5989  -13.5534 O   0  0  0  0  0  0  0  0  0  0  0  0
   25.9167  -20.6565  -13.6871 N   0  0  0  0  0  0  0  0  0  0  0  0
   24.9982  -20.2719  -12.5915 C   0  0  1  0  0  0  0  0  0  0  0  0
   23.6224  -20.7351  -12.9538 C   0  0  0  0  0  0  0  0  0  0  0  0
   22.9212  -19.9201  -13.9826 C   0  0  0  0  0  0  0  0  0  0  0  0
   21.5282  -20.3436  -14.2384 C   0  0  0  0  0  0  0  0  0  0  0  0
   21.2710  -21.4083  -14.8033 O   0  0  0  0  0  0  0  0  0  0  0  0
   25.5160  -20.8225  -11.3356 C   0  0  0  0  0  0  0  0  0  0  0  0
   25.9470  -22.0372  -11.3644 O   0  0  0  0  0  0  0  0  0  0  0  0
   20.4602  -19.5151  -13.8297 O   0  0  0  0  0  0  0  0  0  0  0  0
   29.6544  -18.7592   -6.1724 C   0  0  0  0  0  0  0  0  0  0  0  0
   27.9660  -19.0789   -5.6830 S   0  0  0  0  0  0  0  0  0  0  0  0
   27.0640  -20.2512   -6.6802 C   0  0  0  0  0  0  0  0  0  0  0  0
   26.6844  -19.7622   -8.0213 C   0  0  0  0  0  0  0  0  0  0  0  0
   25.9412  -20.7092   -8.9129 C   0  0  2  0  0  0  0  0  0  0  0  0
   25.5464  -20.0741  -10.1548 N   0  0  0  0  0  0  0  0  0  0  0  0
   24.6426  -21.1370   -8.2817 C   0  0  0  0  0  0  0  0  0  0  0  0
   23.5176  -20.8120   -8.6832 O   0  0  0  0  0  0  0  0  0  0  0  0
   24.6492  -21.9736   -7.1399 O   0  0  0  0  0  0  0  0  0  0  0  0
  2  1  1  6
  2  3  1  0
  4  2  1  0
  4  5  1  6
  6  7  2  0
  6  4  1  0
  8  6  1  0
  9  8  1  0
  9 10  1  6
 11 10  1  0
 12 11  1  0
 13 12  2  0
 14 15  2  0
 14  9  1  0
 16 12  1  0
 18 17  1  0
 19 18  1  0
 19 20  1  0
 21 20  1  1
 21 22  1  0
 21 23  1  0
 22 14  1  0
 23 25  1  0
 24 23  2  0
M  END
$$$$
