VEM.pdb
     RDKit          3D

 25 24  0  0  1  0  0  0  0  0999 V2000
   25.5296  -17.4795  -16.2884 C   0  0  0  0  0  0  0  0  0  0  0  0
   26.7248  -16.8108  -15.5802 C   0  0  2  0  0  0  0  0  0  0  0  0
   27.7489  -16.5757  -16.7033 C   0  0  0  0  0  0  0  0  0  0  0  0
   27.2668  -17.7894  -14.5886 C   0  0  2  0  0  0  0  0  0  0  0  0
   27.9586  -18.8286  -15.4197 N   0  0  0  0  0  0  0  0  0  0  0  0
   26.3231  -18.5103  -13.7557 C   0  0  0  0  0  0  0  0  0  0  0  0
   25.5515  -17.8190  -12.9787 O   0  0  0  0  0  0  0  0  0  0  0  0
   26.1579  -19.9053  -13.7085 N   0  0  0  0  0  0  0  0  0  0  0  0
   25.1547  -20.5053  -12.8000 C   0  0  1  0  0  0  0  0  0  0  0  0
   24.6617  -21.7728  -13.4237 C   0  0  0  0  0  0  0  0  0  0  0  0
   23.2757  -21.7257  -13.9633 C   0  0  0  0  0  0  0  0  0  0  0  0
   22.8006  -23.0127  -14.5137 C   0  0  0  0  0  0  0  0  0  0  0  0
   21.6778  -23.1274  -15.0089 O   0  0  0  0  0  0  0  0  0  0  0  0
   25.7659  -20.6735  -11.4783 C   0  0  0  0  0  0  0  0  0  0  0  0
   27.0535  -20.7162  -11.4317 O   0  0  0  0  0  0  0  0  0  0  0  0
   23.6458  -24.1432  -14.4753 O   0  0  0  0  0  0  0  0  0  0  0  0
   28.9021  -18.7978   -5.1648 C   0  0  0  0  0  0  0  0  0  0  0  0
   28.0754  -18.6632   -6.7431 S   0  0  0  0  0  0  0  0  0  0  0  0
   27.0811  -20.0602   -7.2347 C   0  0  0  0  0  0  0  0  0  0  0  0
   26.5531  -19.9916   -8.6126 C   0  0  0  0  0  0  0  0  0  0  0  0
   25.6439  -21.0966   -9.0557 C   0  0  2  0  0  0  0  0  0  0  0  0
   24.9978  -20.7832  -10.3150 N   0  0  0  0  0  0  0  0  0  0  0  0
   24.5061  -21.2799   -8.0864 C   0  0  0  0  0  0  0  0  0  0  0  0
   23.3203  -21.0179   -8.3265 O   0  0  0  0  0  0  0  0  0  0  0  0
   24.7534  -21.7861   -6.7878 O   0  0  0  0  0  0  0  0  0  0  0  0
  2  1  1  6
  2  3  1  0
  4  2  1  0
  4  5  1  6
  6  7  2  0
  6  4  1  0
  8  6  1  0
  9  8  1  0
  9 10  1  6
 11 10  1  0
 12 11  1  0
 13 12  2  0
 14 15  2  0
 14  9  1  0
 16 12  1  0
 18 17  1  0
 19 18  1  0
 19 20  1  0
 21 20  1  1
 21 22  1  0
 21 23  1  0
 22 14  1  0
 23 25  1  0
 24 23  2  0
M  END
$$$$
