VEM.pdb
     RDKit          3D

 25 24  0  0  1  0  0  0  0  0999 V2000
   20.5531  -20.0594  -13.3496 C   0  0  0  0  0  0  0  0  0  0  0  0
   19.9627  -20.7843  -12.1236 C   0  0  2  0  0  0  0  0  0  0  0  0
   18.7818  -19.8990  -11.6910 C   0  0  0  0  0  0  0  0  0  0  0  0
   21.0116  -20.7967  -11.0584 C   0  0  2  0  0  0  0  0  0  0  0  0
   21.0537  -19.3862  -10.5505 N   0  0  0  0  0  0  0  0  0  0  0  0
   22.3718  -21.1209  -11.4441 C   0  0  0  0  0  0  0  0  0  0  0  0
   22.6250  -22.3401  -11.7997 O   0  0  0  0  0  0  0  0  0  0  0  0
   23.4586  -20.2302  -11.4735 N   0  0  0  0  0  0  0  0  0  0  0  0
   24.8119  -20.7191  -11.8216 C   0  0  1  0  0  0  0  0  0  0  0  0
   25.1318  -20.2548  -13.2076 C   0  0  0  0  0  0  0  0  0  0  0  0
   26.4753  -20.6392  -13.7190 C   0  0  0  0  0  0  0  0  0  0  0  0
   26.7313  -20.2180  -15.1127 C   0  0  0  0  0  0  0  0  0  0  0  0
   27.1841  -19.1026  -15.3766 O   0  0  0  0  0  0  0  0  0  0  0  0
   25.7507  -20.2613  -10.7932 C   0  0  0  0  0  0  0  0  0  0  0  0
   25.4268  -19.1991  -10.1382 O   0  0  0  0  0  0  0  0  0  0  0  0
   26.4533  -21.1078  -16.1733 O   0  0  0  0  0  0  0  0  0  0  0  0
   27.2465  -18.5788   -4.6928 C   0  0  0  0  0  0  0  0  0  0  0  0
   27.5871  -20.1628   -5.4462 S   0  0  0  0  0  0  0  0  0  0  0  0
   28.2986  -20.1220   -7.0815 C   0  0  0  0  0  0  0  0  0  0  0  0
   27.3580  -20.4394   -8.1754 C   0  0  0  0  0  0  0  0  0  0  0  0
   27.8875  -20.3807   -9.5754 C   0  0  2  0  0  0  0  0  0  0  0  0
   26.9452  -20.9374  -10.5260 N   0  0  0  0  0  0  0  0  0  0  0  0
   29.1178  -21.2364   -9.7227 C   0  0  0  0  0  0  0  0  0  0  0  0
   29.1130  -22.4500   -9.9671 O   0  0  0  0  0  0  0  0  0  0  0  0
   30.4039  -20.6624   -9.5803 O   0  0  0  0  0  0  0  0  0  0  0  0
  2  1  1  6
  2  3  1  0
  4  2  1  0
  4  5  1  6
  6  7  2  0
  6  4  1  0
  8  6  1  0
  9  8  1  0
  9 10  1  6
 11 10  1  0
 12 11  1  0
 13 12  2  0
 14 15  2  0
 14  9  1  0
 16 12  1  0
 18 17  1  0
 19 18  1  0
 19 20  1  0
 21 20  1  1
 21 22  1  0
 21 23  1  0
 22 14  1  0
 23 25  1  0
 24 23  2  0
M  END
$$$$
