MSS.pdb
     RDKit          3D

 21 20  0  0  1  0  0  0  0  0999 V2000
   26.1485  -15.6984  -15.3450 C   0  0  0  0  0  0  0  0  0  0  0  0
   27.7967  -16.0594  -15.9413 S   0  0  0  0  0  0  0  0  0  0  0  0
   28.2991  -17.7533  -15.7076 C   0  0  0  0  0  0  0  0  0  0  0  0
   27.2772  -18.6869  -15.1574 C   0  0  0  0  0  0  0  0  0  0  0  0
   27.8506  -19.9729  -14.7063 C   0  0  2  0  0  0  0  0  0  0  0  0
   28.3744  -20.6622  -15.8759 N   0  0  0  0  0  0  0  0  0  0  0  0
   26.8482  -20.8320  -14.0019 C   0  0  0  0  0  0  0  0  0  0  0  0
   26.2570  -21.6930  -14.6697 O   0  0  0  0  0  0  0  0  0  0  0  0
   25.5688  -19.7659  -10.0839 O   0  0  0  0  0  0  0  0  0  0  0  0
   25.4007  -21.0783  -10.4764 C   0  0  0  0  0  0  0  0  0  0  0  0
   25.3958  -21.2421  -11.9742 C   0  0  2  0  0  0  0  0  0  0  0  0
   26.5567  -20.6962  -12.6176 N   0  0  0  0  0  0  0  0  0  0  0  0
   24.1305  -20.6839  -12.5306 C   0  0  0  0  0  0  0  0  0  0  0  0
   24.1086  -19.5512  -13.0722 O   0  0  0  0  0  0  0  0  0  0  0  0
   20.3266  -21.0142  -14.9936 O   0  0  0  0  0  0  0  0  0  0  0  0
   21.5340  -21.4535  -14.4195 C   0  0  0  0  0  0  0  0  0  0  0  0
   21.6682  -20.8721  -13.0214 C   0  0  2  0  0  0  0  0  0  0  0  0
   22.9102  -21.4070  -12.4699 N   0  0  0  0  0  0  0  0  0  0  0  0
   20.4911  -21.2981  -12.2445 C   0  0  0  0  0  0  0  0  0  0  0  0
   20.5417  -22.3159  -11.5289 O   0  0  0  0  0  0  0  0  0  0  0  0
   19.3305  -20.5643  -12.3125 O   0  0  0  0  0  0  0  0  0  0  0  0
  2  3  1  0
  2  1  1  0
  3  4  1  0
  4  5  1  0
  5  7  1  0
  5  6  1  6
  7  8  2  0
 10  9  1  0
 11 10  1  1
 12 11  1  0
 12  7  1  0
 13 14  2  0
 13 11  1  0
 16 15  1  0
 17 16  1  6
 17 18  1  0
 18 13  1  0
 19 17  1  0
 19 21  1  0
 20 19  2  0
M  END
$$$$
