MSS.pdb
     RDKit          3D

 21 20  0  0  1  0  0  0  0  0999 V2000
   28.5255  -11.1212  -16.9517 C   0  0  0  0  0  0  0  0  0  0  0  0
   27.5347  -12.1514  -15.8750 S   0  0  0  0  0  0  0  0  0  0  0  0
   25.9733  -12.6461  -16.5775 C   0  0  0  0  0  0  0  0  0  0  0  0
   24.9959  -11.5613  -16.8722 C   0  0  0  0  0  0  0  0  0  0  0  0
   23.7137  -11.7263  -16.1547 C   0  0  2  0  0  0  0  0  0  0  0  0
   23.0757  -12.9350  -16.6542 N   0  0  0  0  0  0  0  0  0  0  0  0
   22.8051  -10.5497  -16.3263 C   0  0  0  0  0  0  0  0  0  0  0  0
   22.6043  -10.1404  -17.4791 O   0  0  0  0  0  0  0  0  0  0  0  0
   20.3720   -9.0646  -13.1584 O   0  0  0  0  0  0  0  0  0  0  0  0
   20.0772   -8.8443  -14.4885 C   0  0  0  0  0  0  0  0  0  0  0  0
   21.3091   -8.7604  -15.3518 C   0  0  2  0  0  0  0  0  0  0  0  0
   22.1760   -9.8978  -15.2313 N   0  0  0  0  0  0  0  0  0  0  0  0
   22.0214   -7.4798  -15.0778 C   0  0  0  0  0  0  0  0  0  0  0  0
   22.9849   -7.4371  -14.2738 O   0  0  0  0  0  0  0  0  0  0  0  0
   22.5439   -2.7960  -16.2843 O   0  0  0  0  0  0  0  0  0  0  0  0
   21.9368   -4.0430  -16.5228 C   0  0  0  0  0  0  0  0  0  0  0  0
   22.2755   -4.9940  -15.3863 C   0  0  2  0  0  0  0  0  0  0  0  0
   21.6398   -6.2680  -15.7114 N   0  0  0  0  0  0  0  0  0  0  0  0
   21.7419   -4.4128  -14.1421 C   0  0  0  0  0  0  0  0  0  0  0  0
   20.5380   -4.5411  -13.8511 O   0  0  0  0  0  0  0  0  0  0  0  0
   22.5820   -3.7247  -13.2989 O   0  0  0  0  0  0  0  0  0  0  0  0
  2  3  1  0
  2  1  1  0
  3  4  1  0
  4  5  1  0
  5  7  1  0
  5  6  1  6
  7  8  2  0
 10  9  1  0
 11 10  1  1
 12 11  1  0
 12  7  1  0
 13 14  2  0
 13 11  1  0
 16 15  1  0
 17 16  1  6
 17 18  1  0
 18 13  1  0
 19 17  1  0
 19 21  1  0
 20 19  2  0
M  END
$$$$
