MSS.pdb
     RDKit          3D

 21 20  0  0  1  0  0  0  0  0999 V2000
   20.2228  -13.6454  -19.0424 C   0  0  0  0  0  0  0  0  0  0  0  0
   19.5362  -12.1397  -18.3615 S   0  0  0  0  0  0  0  0  0  0  0  0
   20.7580  -10.9244  -17.9072 C   0  0  0  0  0  0  0  0  0  0  0  0
   20.2511   -9.6314  -17.3686 C   0  0  0  0  0  0  0  0  0  0  0  0
   21.3310   -8.6722  -17.0529 C   0  0  2  0  0  0  0  0  0  0  0  0
   22.2626   -9.3310  -16.1499 N   0  0  0  0  0  0  0  0  0  0  0  0
   20.8147   -7.4097  -16.4373 C   0  0  0  0  0  0  0  0  0  0  0  0
   19.8905   -6.8220  -17.0177 O   0  0  0  0  0  0  0  0  0  0  0  0
   22.8994   -5.2276  -13.4316 O   0  0  0  0  0  0  0  0  0  0  0  0
   21.5355   -5.3773  -13.2831 C   0  0  0  0  0  0  0  0  0  0  0  0
   20.8396   -5.6938  -14.5814 C   0  0  2  0  0  0  0  0  0  0  0  0
   21.3393   -6.8721  -15.2309 N   0  0  0  0  0  0  0  0  0  0  0  0
   20.8839   -4.4997  -15.4726 C   0  0  0  0  0  0  0  0  0  0  0  0
   21.7543   -4.3980  -16.3718 O   0  0  0  0  0  0  0  0  0  0  0  0
   18.9497   -1.3455  -18.1355 O   0  0  0  0  0  0  0  0  0  0  0  0
   18.9573   -2.4608  -17.2772 C   0  0  0  0  0  0  0  0  0  0  0  0
   20.0009   -2.2541  -16.1915 C   0  0  2  0  0  0  0  0  0  0  0  0
   19.9496   -3.4391  -15.3393 N   0  0  0  0  0  0  0  0  0  0  0  0
   19.6441   -1.0290  -15.4549 C   0  0  0  0  0  0  0  0  0  0  0  0
   18.8892   -1.0843  -14.4661 O   0  0  0  0  0  0  0  0  0  0  0  0
   20.1501    0.1818  -15.8649 O   0  0  0  0  0  0  0  0  0  0  0  0
  2  3  1  0
  2  1  1  0
  3  4  1  0
  4  5  1  0
  5  7  1  0
  5  6  1  1
  7  8  2  0
 10  9  1  0
 11 10  1  1
 12 11  1  0
 12  7  1  0
 13 14  2  0
 13 11  1  0
 16 15  1  0
 17 16  1  6
 17 18  1  0
 18 13  1  0
 19 17  1  0
 19 21  1  0
 20 19  2  0
M  END
$$$$
