MSS.pdb
     RDKit          3D

 21 20  0  0  1  0  0  0  0  0999 V2000
   17.9880  -24.6125  -19.4686 C   0  0  0  0  0  0  0  0  0  0  0  0
   17.9759  -25.1377  -17.7580 S   0  0  0  0  0  0  0  0  0  0  0  0
   19.4709  -24.7505  -16.8684 C   0  0  0  0  0  0  0  0  0  0  0  0
   19.4865  -25.0649  -15.4125 C   0  0  0  0  0  0  0  0  0  0  0  0
   20.7309  -24.6343  -14.7402 C   0  0  2  0  0  0  0  0  0  0  0  0
   21.7345  -25.6653  -14.9571 N   0  0  0  0  0  0  0  0  0  0  0  0
   20.5383  -24.3960  -13.2754 C   0  0  0  0  0  0  0  0  0  0  0  0
   21.1396  -25.1398  -12.4869 O   0  0  0  0  0  0  0  0  0  0  0  0
   19.0954  -20.8868  -12.1284 O   0  0  0  0  0  0  0  0  0  0  0  0
   18.9551  -21.7518  -11.0623 C   0  0  0  0  0  0  0  0  0  0  0  0
   19.4402  -23.1438  -11.3740 C   0  0  2  0  0  0  0  0  0  0  0  0
   19.7040  -23.3637  -12.7675 N   0  0  0  0  0  0  0  0  0  0  0  0
   18.4795  -24.1401  -10.8202 C   0  0  0  0  0  0  0  0  0  0  0  0
   17.5644  -24.6194  -11.5340 O   0  0  0  0  0  0  0  0  0  0  0  0
   18.5831  -24.8529   -6.8496 O   0  0  0  0  0  0  0  0  0  0  0  0
   18.1956  -25.9905   -7.5818 C   0  0  0  0  0  0  0  0  0  0  0  0
   17.6249  -25.5567   -8.9223 C   0  0  2  0  0  0  0  0  0  0  0  0
   18.5624  -24.5819   -9.4735 N   0  0  0  0  0  0  0  0  0  0  0  0
   16.2979  -24.9668   -8.6741 C   0  0  0  0  0  0  0  0  0  0  0  0
   16.1108  -23.7456   -8.8306 O   0  0  0  0  0  0  0  0  0  0  0  0
   15.2614  -25.7730   -8.2672 O   0  0  0  0  0  0  0  0  0  0  0  0
  2  3  1  0
  2  1  1  0
  3  4  1  0
  4  5  1  0
  5  7  1  0
  5  6  1  1
  7  8  2  0
 10  9  1  0
 11 10  1  6
 12 11  1  0
 12  7  1  0
 13 14  2  0
 13 11  1  0
 16 15  1  0
 17 16  1  1
 17 18  1  0
 18 13  1  0
 19 17  1  0
 19 21  1  0
 20 19  2  0
M  END
$$$$
