HSG.pdb
     RDKit          3D

 21 21  0  0  1  0  0  0  0  0999 V2000
    8.2411  -17.5926   20.0985 N   0  0  0  0  0  0  0  0  0  0  0  0
    9.2415  -16.7010   20.5929 C   0  0  1  0  0  0  0  0  0  0  0  0
    8.6620  -15.4666   21.2663 C   0  0  0  0  0  0  0  0  0  0  0  0
    8.1021  -14.5409   20.2480 C   0  0  0  0  0  0  0  0  0  0  0  0
    8.1310  -14.7515   18.8651 C   0  0  0  0  0  0  0  0  0  0  0  0
    7.5400  -13.7216   18.2549 N   0  0  0  0  0  0  0  0  0  0  0  0
    7.1424  -12.8727   19.2191 C   0  0  0  0  0  0  0  0  0  0  0  0
    7.4859  -13.3729   20.4401 N   0  0  0  0  0  0  0  0  0  0  0  0
   10.1833  -17.3444   21.5523 C   0  0  0  0  0  0  0  0  0  0  0  0
    9.7720  -18.3963   22.1144 O   0  0  0  0  0  0  0  0  0  0  0  0
   13.9934  -15.7965   22.9223 O   0  0  0  0  0  0  0  0  0  0  0  0
   13.7852  -17.1047   22.4917 C   0  0  0  0  0  0  0  0  0  0  0  0
   12.3615  -17.5466   22.6989 C   0  0  2  0  0  0  0  0  0  0  0  0
   11.4700  -16.8189   21.8292 N   0  0  0  0  0  0  0  0  0  0  0  0
   11.9350  -17.4921   24.1143 C   0  0  0  0  0  0  0  0  0  0  0  0
   11.3418  -16.4691   24.5451 O   0  0  0  0  0  0  0  0  0  0  0  0
   12.1801  -18.5698   25.0002 N   0  0  0  0  0  0  0  0  0  0  0  0
   11.7626  -18.5791   26.3814 C   0  0  0  0  0  0  0  0  0  0  0  0
   12.2805  -19.7147   27.1425 C   0  0  0  0  0  0  0  0  0  0  0  0
   11.9949  -19.8242   28.4927 O   0  0  0  0  0  0  0  0  0  0  0  0
   12.9847  -20.6107   26.6182 O   0  0  0  0  0  0  0  0  0  0  0  0
  2  1  1  1
  2  3  1  0
  3  4  1  0
  4  8  1  0
  5  4  2  0
  5  6  1  0
  6  7  1  0
  8  7  2  0
  9 14  1  0
  9  2  1  0
 10  9  2  0
 12 11  1  0
 13 12  1  1
 13 14  1  0
 15 13  1  0
 15 17  1  0
 16 15  2  0
 18 17  1  0
 18 19  1  0
 19 20  1  0
 21 19  2  0
M  END
$$$$
