HSG.pdb
     RDKit          3D

 21 21  0  0  1  0  0  0  0  0999 V2000
   14.1594  -14.0420   18.1706 N   0  0  0  0  0  0  0  0  0  0  0  0
   12.9438  -14.7607   18.3853 C   0  0  1  0  0  0  0  0  0  0  0  0
   12.9724  -16.1687   17.8112 C   0  0  0  0  0  0  0  0  0  0  0  0
   13.0577  -16.1175   16.3288 C   0  0  0  0  0  0  0  0  0  0  0  0
   12.0262  -15.7095   15.4760 C   0  0  0  0  0  0  0  0  0  0  0  0
   12.4487  -15.7884   14.2120 N   0  0  0  0  0  0  0  0  0  0  0  0
   13.7166  -16.2348   14.2516 C   0  0  0  0  0  0  0  0  0  0  0  0
   14.0909  -16.4368   15.5470 N   0  0  0  0  0  0  0  0  0  0  0  0
   12.5641  -14.8617   19.8231 C   0  0  0  0  0  0  0  0  0  0  0  0
   13.5175  -14.9241   20.6468 O   0  0  0  0  0  0  0  0  0  0  0  0
    8.5555  -15.2357   21.3534 O   0  0  0  0  0  0  0  0  0  0  0  0
    9.5460  -14.4723   21.9668 C   0  0  0  0  0  0  0  0  0  0  0  0
   10.9259  -14.9930   21.6667 C   0  0  2  0  0  0  0  0  0  0  0  0
   11.2154  -14.8876   20.2575 N   0  0  0  0  0  0  0  0  0  0  0  0
   11.1595  -16.3574   22.1883 C   0  0  0  0  0  0  0  0  0  0  0  0
   11.0241  -17.3467   21.4222 O   0  0  0  0  0  0  0  0  0  0  0  0
   11.5339  -16.5772   23.5366 N   0  0  0  0  0  0  0  0  0  0  0  0
   11.6872  -17.8883   24.1193 C   0  0  0  0  0  0  0  0  0  0  0  0
   12.2412  -17.8673   25.4720 C   0  0  0  0  0  0  0  0  0  0  0  0
   13.6129  -17.8137   25.6517 O   0  0  0  0  0  0  0  0  0  0  0  0
   11.5170  -17.8961   26.4958 O   0  0  0  0  0  0  0  0  0  0  0  0
  2  1  1  1
  2  3  1  0
  3  4  1  0
  4  8  1  0
  5  4  2  0
  5  6  1  0
  6  7  1  0
  8  7  2  0
  9 14  1  0
  9  2  1  0
 10  9  2  0
 12 11  1  0
 13 12  1  6
 13 14  1  0
 15 13  1  0
 15 17  1  0
 16 15  2  0
 18 17  1  0
 18 19  1  0
 19 20  1  0
 21 19  2  0
M  END
$$$$
