HSG.pdb
     RDKit          3D

 21 21  0  0  1  0  0  0  0  0999 V2000
    8.1029  -12.6797   17.0303 N   0  0  0  0  0  0  0  0  0  0  0  0
    8.0223  -13.9749   17.6272 C   0  0  1  0  0  0  0  0  0  0  0  0
    8.7973  -15.0356   16.8609 C   0  0  0  0  0  0  0  0  0  0  0  0
    8.2753  -15.1523   15.4748 C   0  0  0  0  0  0  0  0  0  0  0  0
    6.9218  -15.1456   15.1203 C   0  0  0  0  0  0  0  0  0  0  0  0
    6.8177  -15.2690   13.7951 N   0  0  0  0  0  0  0  0  0  0  0  0
    8.0698  -15.3527   13.3115 C   0  0  0  0  0  0  0  0  0  0  0  0
    8.9634  -15.2814   14.3388 N   0  0  0  0  0  0  0  0  0  0  0  0
    8.4886  -14.0023   19.0426 C   0  0  0  0  0  0  0  0  0  0  0  0
    9.5057  -13.3042   19.3065 O   0  0  0  0  0  0  0  0  0  0  0  0
    6.3107  -15.4899   22.3959 O   0  0  0  0  0  0  0  0  0  0  0  0
    7.2803  -14.4899   22.3907 C   0  0  0  0  0  0  0  0  0  0  0  0
    8.3689  -14.7654   21.3885 C   0  0  2  0  0  0  0  0  0  0  0  0
    7.8393  -14.7629   20.0467 N   0  0  0  0  0  0  0  0  0  0  0  0
    9.1381  -15.9932   21.6872 C   0  0  0  0  0  0  0  0  0  0  0  0
    8.7902  -17.0856   21.1681 O   0  0  0  0  0  0  0  0  0  0  0  0
   10.2626  -15.9675   22.5481 N   0  0  0  0  0  0  0  0  0  0  0  0
   10.9597  -17.1522   22.9868 C   0  0  0  0  0  0  0  0  0  0  0  0
   12.1829  -16.8689   23.7357 C   0  0  0  0  0  0  0  0  0  0  0  0
   12.9019  -17.9107   24.2964 O   0  0  0  0  0  0  0  0  0  0  0  0
   12.6184  -15.7035   23.8963 O   0  0  0  0  0  0  0  0  0  0  0  0
  2  1  1  6
  2  3  1  0
  3  4  1  0
  4  8  1  0
  5  4  2  0
  5  6  1  0
  6  7  1  0
  8  7  2  0
  9 14  1  0
  9  2  1  0
 10  9  2  0
 12 11  1  0
 13 12  1  1
 13 14  1  0
 15 13  1  0
 15 17  1  0
 16 15  2  0
 18 17  1  0
 18 19  1  0
 19 20  1  0
 21 19  2  0
M  END
$$$$
