HSG.pdb
     RDKit          3D

 21 21  0  0  1  0  0  0  0  0999 V2000
    9.4878  -15.4372   13.8125 N   0  0  0  0  0  0  0  0  0  0  0  0
    8.7818  -15.7513   15.0138 C   0  0  1  0  0  0  0  0  0  0  0  0
    8.7604  -17.2403   15.3226 C   0  0  0  0  0  0  0  0  0  0  0  0
    7.9323  -17.9609   14.3215 C   0  0  0  0  0  0  0  0  0  0  0  0
    8.3851  -18.4146   13.0778 C   0  0  0  0  0  0  0  0  0  0  0  0
    7.3782  -19.0163   12.4403 N   0  0  0  0  0  0  0  0  0  0  0  0
    6.3080  -18.9511   13.2520 C   0  0  0  0  0  0  0  0  0  0  0  0
    6.6457  -18.3051   14.4043 N   0  0  0  0  0  0  0  0  0  0  0  0
    9.3139  -15.0441   16.2130 C   0  0  0  0  0  0  0  0  0  0  0  0
   10.5699  -15.0069   16.3248 O   0  0  0  0  0  0  0  0  0  0  0  0
    8.5715  -12.2455   20.1095 O   0  0  0  0  0  0  0  0  0  0  0  0
    8.0306  -12.9227   19.0191 C   0  0  0  0  0  0  0  0  0  0  0  0
    9.0616  -13.7539   18.3039 C   0  0  2  0  0  0  0  0  0  0  0  0
    8.4723  -14.4425   17.1816 N   0  0  0  0  0  0  0  0  0  0  0  0
    9.7967  -14.6701   19.2029 C   0  0  0  0  0  0  0  0  0  0  0  0
    9.2028  -15.6627   19.6987 O   0  0  0  0  0  0  0  0  0  0  0  0
   11.1604  -14.4550   19.5202 N   0  0  0  0  0  0  0  0  0  0  0  0
   11.9139  -15.2970   20.4175 C   0  0  0  0  0  0  0  0  0  0  0  0
   13.3112  -14.8933   20.5653 C   0  0  0  0  0  0  0  0  0  0  0  0
   13.8402  -13.9290   19.7246 O   0  0  0  0  0  0  0  0  0  0  0  0
   14.0663  -15.3900   21.4352 O   0  0  0  0  0  0  0  0  0  0  0  0
  2  1  1  6
  2  3  1  0
  3  4  1  0
  4  8  1  0
  5  4  2  0
  5  6  1  0
  6  7  1  0
  8  7  2  0
  9 14  1  0
  9  2  1  0
 10  9  2  0
 12 11  1  0
 13 12  1  1
 13 14  1  0
 15 13  1  0
 15 17  1  0
 16 15  2  0
 18 17  1  0
 18 19  1  0
 19 20  1  0
 21 19  2  0
M  END
$$$$
