HSG.pdb
     RDKit          3D

 21 21  0  0  1  0  0  0  0  0999 V2000
   10.5240  -16.2905   20.6389 N   0  0  0  0  0  0  0  0  0  0  0  0
    9.4601  -15.5015   21.1735 C   0  0  1  0  0  0  0  0  0  0  0  0
    8.1163  -15.7905   20.5227 C   0  0  0  0  0  0  0  0  0  0  0  0
    7.8263  -14.7807   19.4721 C   0  0  0  0  0  0  0  0  0  0  0  0
    8.6681  -13.7201   19.1198 C   0  0  0  0  0  0  0  0  0  0  0  0
    8.0944  -13.0145   18.1424 N   0  0  0  0  0  0  0  0  0  0  0  0
    6.9166  -13.6055   17.8742 C   0  0  0  0  0  0  0  0  0  0  0  0
    6.7510  -14.6871   18.6876 N   0  0  0  0  0  0  0  0  0  0  0  0
    9.2957  -15.6534   22.6470 C   0  0  0  0  0  0  0  0  0  0  0  0
    9.9981  -16.5462   23.1957 O   0  0  0  0  0  0  0  0  0  0  0  0
    6.3648  -13.7621   25.1924 O   0  0  0  0  0  0  0  0  0  0  0  0
    7.7339  -13.7307   25.4471 C   0  0  0  0  0  0  0  0  0  0  0  0
    8.4467  -14.9113   24.8444 C   0  0  2  0  0  0  0  0  0  0  0  0
    8.4065  -14.8502   23.4038 N   0  0  0  0  0  0  0  0  0  0  0  0
    7.9664  -16.2097   25.3658 C   0  0  0  0  0  0  0  0  0  0  0  0
    6.7401  -16.4867   25.3083 O   0  0  0  0  0  0  0  0  0  0  0  0
    8.8593  -17.1531   25.9309 N   0  0  0  0  0  0  0  0  0  0  0  0
    8.4310  -18.3658   26.5849 C   0  0  0  0  0  0  0  0  0  0  0  0
    9.1140  -18.6209   27.8521 C   0  0  0  0  0  0  0  0  0  0  0  0
    8.7692  -19.7286   28.6074 O   0  0  0  0  0  0  0  0  0  0  0  0
   10.0147  -17.8678   28.2940 O   0  0  0  0  0  0  0  0  0  0  0  0
  2  1  1  6
  2  3  1  0
  3  4  1  0
  4  8  1  0
  5  4  2  0
  5  6  1  0
  6  7  1  0
  8  7  2  0
  9 14  1  0
  9  2  1  0
 10  9  2  0
 12 11  1  0
 13 12  1  1
 13 14  1  0
 15 13  1  0
 15 17  1  0
 16 15  2  0
 18 17  1  0
 18 19  1  0
 19 20  1  0
 21 19  2  0
M  END
$$$$
