HSG.pdb
     RDKit          3D

 21 21  0  0  1  0  0  0  0  0999 V2000
    9.1079  -12.4588   18.1811 N   0  0  0  0  0  0  0  0  0  0  0  0
    8.6908  -13.7466   18.6369 C   0  0  1  0  0  0  0  0  0  0  0  0
    9.3334  -14.8901   17.8672 C   0  0  0  0  0  0  0  0  0  0  0  0
    8.8235  -14.9211   16.4721 C   0  0  0  0  0  0  0  0  0  0  0  0
    7.9608  -13.9747   15.9084 C   0  0  0  0  0  0  0  0  0  0  0  0
    7.7102  -14.3132   14.6415 N   0  0  0  0  0  0  0  0  0  0  0  0
    8.3931  -15.4458   14.3980 C   0  0  0  0  0  0  0  0  0  0  0  0
    9.0752  -15.8193   15.5179 N   0  0  0  0  0  0  0  0  0  0  0  0
    8.9488  -13.9712   20.0876 C   0  0  0  0  0  0  0  0  0  0  0  0
   10.0603  -13.5644   20.5242 O   0  0  0  0  0  0  0  0  0  0  0  0
    6.1053  -15.6247   22.6179 O   0  0  0  0  0  0  0  0  0  0  0  0
    7.1314  -14.8732   23.1856 C   0  0  0  0  0  0  0  0  0  0  0  0
    8.3616  -14.8532   22.3186 C   0  0  2  0  0  0  0  0  0  0  0  0
    8.0111  -14.6033   20.9418 N   0  0  0  0  0  0  0  0  0  0  0  0
    9.2035  -16.0595   22.4746 C   0  0  0  0  0  0  0  0  0  0  0  0
    9.3623  -16.8365   21.4974 O   0  0  0  0  0  0  0  0  0  0  0  0
    9.8382  -16.3616   23.7043 N   0  0  0  0  0  0  0  0  0  0  0  0
   10.6545  -17.5326   23.9151 C   0  0  0  0  0  0  0  0  0  0  0  0
   11.3333  -17.5484   25.2098 C   0  0  0  0  0  0  0  0  0  0  0  0
   12.2130  -18.5738   25.5118 O   0  0  0  0  0  0  0  0  0  0  0  0
   11.1515  -16.6586   26.0753 O   0  0  0  0  0  0  0  0  0  0  0  0
  2  1  1  6
  2  3  1  0
  3  4  1  0
  4  8  1  0
  5  4  2  0
  5  6  1  0
  6  7  1  0
  8  7  2  0
  9 14  1  0
  9  2  1  0
 10  9  2  0
 12 11  1  0
 13 12  1  1
 13 14  1  0
 15 13  1  0
 15 17  1  0
 16 15  2  0
 18 17  1  0
 18 19  1  0
 19 20  1  0
 21 19  2  0
M  END
$$$$
