HSG.pdb
     RDKit          3D

 21 21  0  0  1  0  0  0  0  0999 V2000
   14.4030  -15.5261   14.9462 N   0  0  0  0  0  0  0  0  0  0  0  0
   13.1741  -15.7244   15.6467 C   0  0  1  0  0  0  0  0  0  0  0  0
   12.7714  -17.1876   15.7449 C   0  0  0  0  0  0  0  0  0  0  0  0
   12.3855  -17.7053   14.4068 C   0  0  0  0  0  0  0  0  0  0  0  0
   11.0797  -17.7508   13.9065 C   0  0  0  0  0  0  0  0  0  0  0  0
   11.1014  -18.2738   12.6783 N   0  0  0  0  0  0  0  0  0  0  0  0
   12.3858  -18.5565   12.3974 C   0  0  0  0  0  0  0  0  0  0  0  0
   13.1733  -18.2090   13.4548 N   0  0  0  0  0  0  0  0  0  0  0  0
   13.1837  -15.1601   17.0262 C   0  0  0  0  0  0  0  0  0  0  0  0
   14.3161  -15.0347   17.5678 O   0  0  0  0  0  0  0  0  0  0  0  0
    9.7653  -14.2572   19.5569 O   0  0  0  0  0  0  0  0  0  0  0  0
   10.8187  -13.3836   19.2975 C   0  0  0  0  0  0  0  0  0  0  0  0
   12.0946  -14.1170   18.9822 C   0  0  2  0  0  0  0  0  0  0  0  0
   11.9989  -14.7811   17.7053 N   0  0  0  0  0  0  0  0  0  0  0  0
   12.5215  -15.0335   20.0621 C   0  0  0  0  0  0  0  0  0  0  0  0
   11.7971  -16.0172   20.3643 O   0  0  0  0  0  0  0  0  0  0  0  0
   13.7327  -14.8283   20.7673 N   0  0  0  0  0  0  0  0  0  0  0  0
   14.1972  -15.6929   21.8250 C   0  0  0  0  0  0  0  0  0  0  0  0
   15.5129  -15.3263   22.3463 C   0  0  0  0  0  0  0  0  0  0  0  0
   16.0307  -15.9996   23.4396 O   0  0  0  0  0  0  0  0  0  0  0  0
   16.2066  -14.4126   21.8387 O   0  0  0  0  0  0  0  0  0  0  0  0
  2  1  1  1
  2  3  1  0
  3  4  1  0
  4  8  1  0
  5  4  2  0
  5  6  1  0
  6  7  1  0
  8  7  2  0
  9 14  1  0
  9  2  1  0
 10  9  2  0
 12 11  1  0
 13 12  1  1
 13 14  1  0
 15 13  1  0
 15 17  1  0
 16 15  2  0
 18 17  1  0
 18 19  1  0
 19 20  1  0
 21 19  2  0
M  END
$$$$
