MND.pdb
     RDKit          3D

 25 24  0  0  1  0  0  0  0  0999 V2000
    5.6624  -11.3686   26.8815 C   0  0  0  0  0  0  0  0  0  0  0  0
    7.2981  -12.1732   27.0366 S   0  0  0  0  0  0  0  0  0  0  0  0
    7.1095  -13.8750   26.5117 C   0  0  0  0  0  0  0  0  0  0  0  0
    6.5993  -14.0081   25.1029 C   0  0  0  0  0  0  0  0  0  0  0  0
    6.7577  -15.3810   24.5302 C   0  0  2  0  0  0  0  0  0  0  0  0
    7.7100  -16.1794   25.2555 N   0  0  0  0  0  0  0  0  0  0  0  0
    7.1502  -15.1974   23.1080 C   0  0  0  0  0  0  0  0  0  0  0  0
    6.5111  -14.3661   22.4199 O   0  0  0  0  0  0  0  0  0  0  0  0
    7.0251  -12.7027   19.7261 N   0  0  0  0  0  0  0  0  0  0  0  0
    7.8971  -13.7743   20.0427 C   0  0  0  0  0  0  0  0  0  0  0  0
    7.9500  -14.6937   19.1476 O   0  0  0  0  0  0  0  0  0  0  0  0
    8.7044  -13.8879   21.2751 C   0  0  0  0  0  0  0  0  0  0  0  0
    9.1626  -15.2860   21.5960 C   0  0  2  0  0  0  0  0  0  0  0  0
    8.2058  -15.9006   22.4648 N   0  0  0  0  0  0  0  0  0  0  0  0
   10.5560  -15.3521   22.0741 C   0  0  0  0  0  0  0  0  0  0  0  0
   11.5019  -15.5494   21.2395 O   0  0  0  0  0  0  0  0  0  0  0  0
   10.9698  -15.2147   23.4259 N   0  0  0  0  0  0  0  0  0  0  0  0
   11.9042  -16.1899   24.0488 C   0  0  1  0  0  0  0  0  0  0  0  0
   11.1007  -17.4328   24.2259 C   0  0  0  0  0  0  0  0  0  0  0  0
   11.5959  -18.4104   25.1824 C   0  0  0  0  0  0  0  0  0  0  0  0
   12.7937  -18.3390   25.5535 O   0  0  0  0  0  0  0  0  0  0  0  0
   13.0956  -16.3171   23.2053 C   0  0  0  0  0  0  0  0  0  0  0  0
   14.1872  -15.8367   23.5310 O   0  0  0  0  0  0  0  0  0  0  0  0
   10.8110  -19.4161   25.7009 O   0  0  0  0  0  0  0  0  0  0  0  0
   13.0114  -16.9939   22.0031 O   0  0  0  0  0  0  0  0  0  0  0  0
  1  2  1  0
  3  2  1  0
  4  5  1  0
  4  3  1  0
  5  6  1  1
  7  5  1  0
  7  8  2  0
  9 10  1  0
 10 11  2  0
 12 10  1  0
 13 12  1  1
 13 14  1  0
 14  7  1  0
 15 13  1  0
 16 15  2  0
 17 15  1  0
 18 17  1  0
 18 22  1  0
 18 19  1  6
 20 19  1  0
 20 24  1  0
 21 20  2  0
 22 23  2  0
 22 25  1  0
M  END
$$$$
