MND.pdb
     RDKit          3D

 25 24  0  0  1  0  0  0  0  0999 V2000
    5.5670  -11.1736   27.2723 C   0  0  0  0  0  0  0  0  0  0  0  0
    7.2698  -11.6292   26.7822 S   0  0  0  0  0  0  0  0  0  0  0  0
    7.2708  -13.3825   26.4173 C   0  0  0  0  0  0  0  0  0  0  0  0
    6.4301  -13.7401   25.2223 C   0  0  0  0  0  0  0  0  0  0  0  0
    6.4095  -15.2040   24.9145 C   0  0  2  0  0  0  0  0  0  0  0  0
    7.0367  -15.9963   25.9388 N   0  0  0  0  0  0  0  0  0  0  0  0
    7.0790  -15.3629   23.5965 C   0  0  0  0  0  0  0  0  0  0  0  0
    6.5954  -14.7580   22.6099 O   0  0  0  0  0  0  0  0  0  0  0  0
    6.7972  -14.9285   20.5252 N   0  0  0  0  0  0  0  0  0  0  0  0
    8.0885  -14.3741   20.7099 C   0  0  0  0  0  0  0  0  0  0  0  0
    8.2747  -13.2569   20.1044 O   0  0  0  0  0  0  0  0  0  0  0  0
    9.1727  -14.9743   21.5147 C   0  0  0  0  0  0  0  0  0  0  0  0
    8.8498  -16.3288   22.0881 C   0  0  2  0  0  0  0  0  0  0  0  0
    8.2370  -16.1566   23.3699 N   0  0  0  0  0  0  0  0  0  0  0  0
    9.9933  -17.2597   22.0754 C   0  0  0  0  0  0  0  0  0  0  0  0
   10.5596  -17.5501   20.9685 O   0  0  0  0  0  0  0  0  0  0  0  0
   10.5509  -17.8942   23.2173 N   0  0  0  0  0  0  0  0  0  0  0  0
   11.9072  -17.5369   23.7123 C   0  0  1  0  0  0  0  0  0  0  0  0
   12.0785  -16.0988   23.3596 C   0  0  0  0  0  0  0  0  0  0  0  0
   13.2997  -15.7296   22.6610 C   0  0  0  0  0  0  0  0  0  0  0  0
   13.2227  -14.9437   21.6843 O   0  0  0  0  0  0  0  0  0  0  0  0
   11.9954  -17.8569   25.1395 C   0  0  0  0  0  0  0  0  0  0  0  0
   11.1176  -17.5243   25.9442 O   0  0  0  0  0  0  0  0  0  0  0  0
   14.5414  -16.2045   23.0200 O   0  0  0  0  0  0  0  0  0  0  0  0
   13.0900  -18.5530   25.6164 O   0  0  0  0  0  0  0  0  0  0  0  0
  1  2  1  0
  3  2  1  0
  4  5  1  0
  4  3  1  0
  5  6  1  1
  7  5  1  0
  7  8  2  0
  9 10  1  0
 10 11  2  0
 12 10  1  0
 13 12  1  1
 13 14  1  0
 14  7  1  0
 15 13  1  0
 16 15  2  0
 17 15  1  0
 18 17  1  0
 18 22  1  0
 18 19  1  1
 20 19  1  0
 20 24  1  0
 21 20  2  0
 22 23  2  0
 22 25  1  0
M  END
$$$$
