MND.pdb
     RDKit          3D

 25 24  0  0  1  0  0  0  0  0999 V2000
    6.3393  -11.0368   26.7941 C   0  0  0  0  0  0  0  0  0  0  0  0
    7.6343  -12.2977   26.5104 S   0  0  0  0  0  0  0  0  0  0  0  0
    6.8769  -13.6507   25.6144 C   0  0  0  0  0  0  0  0  0  0  0  0
    7.8335  -14.7722   25.3139 C   0  0  0  0  0  0  0  0  0  0  0  0
    8.2104  -14.8739   23.8697 C   0  0  2  0  0  0  0  0  0  0  0  0
    7.0662  -14.9308   22.9992 N   0  0  0  0  0  0  0  0  0  0  0  0
    9.0674  -16.0826   23.7461 C   0  0  0  0  0  0  0  0  0  0  0  0
    8.8549  -16.8638   22.7882 O   0  0  0  0  0  0  0  0  0  0  0  0
   13.1158  -17.9809   21.1822 N   0  0  0  0  0  0  0  0  0  0  0  0
   11.9248  -17.6945   21.8952 C   0  0  0  0  0  0  0  0  0  0  0  0
   10.9250  -18.4324   21.5705 O   0  0  0  0  0  0  0  0  0  0  0  0
   11.7757  -16.6536   22.9332 C   0  0  0  0  0  0  0  0  0  0  0  0
   11.2837  -17.1620   24.2627 C   0  0  2  0  0  0  0  0  0  0  0  0
   10.1193  -16.4212   24.6413 N   0  0  0  0  0  0  0  0  0  0  0  0
   12.3354  -17.2206   25.2947 C   0  0  0  0  0  0  0  0  0  0  0  0
   13.3685  -17.9461   25.1038 O   0  0  0  0  0  0  0  0  0  0  0  0
   12.3139  -16.5240   26.5323 N   0  0  0  0  0  0  0  0  0  0  0  0
   12.3757  -17.2521   27.8278 C   0  0  1  0  0  0  0  0  0  0  0  0
   11.0355  -17.0485   28.4475 C   0  0  0  0  0  0  0  0  0  0  0  0
   10.7181  -15.7072   28.9121 C   0  0  0  0  0  0  0  0  0  0  0  0
   11.5979  -14.8149   28.8276 O   0  0  0  0  0  0  0  0  0  0  0  0
   12.7555  -18.6448   27.5762 C   0  0  0  0  0  0  0  0  0  0  0  0
   13.6750  -19.1977   28.1906 O   0  0  0  0  0  0  0  0  0  0  0  0
    9.4941  -15.3682   29.4443 O   0  0  0  0  0  0  0  0  0  0  0  0
   12.0721  -19.3772   26.6239 O   0  0  0  0  0  0  0  0  0  0  0  0
  1  2  1  0
  3  2  1  0
  4  5  1  0
  4  3  1  0
  5  6  1  6
  7  5  1  0
  7  8  2  0
  9 10  1  0
 10 11  2  0
 12 10  1  0
 13 12  1  6
 13 14  1  0
 14  7  1  0
 15 13  1  0
 16 15  2  0
 17 15  1  0
 18 17  1  0
 18 22  1  0
 18 19  1  6
 20 19  1  0
 20 24  1  0
 21 20  2  0
 22 23  2  0
 22 25  1  0
M  END
$$$$
