MND.pdb
     RDKit          3D

 25 24  0  0  1  0  0  0  0  0999 V2000
    6.5896  -11.1067   27.6596 C   0  0  0  0  0  0  0  0  0  0  0  0
    7.0687  -12.2535   26.3170 S   0  0  0  0  0  0  0  0  0  0  0  0
    5.9031  -13.6130   26.3327 C   0  0  0  0  0  0  0  0  0  0  0  0
    6.1574  -14.6247   25.2489 C   0  0  0  0  0  0  0  0  0  0  0  0
    7.4906  -15.2958   25.3497 C   0  0  2  0  0  0  0  0  0  0  0  0
    8.4936  -14.4530   25.9445 N   0  0  0  0  0  0  0  0  0  0  0  0
    7.8552  -15.7095   23.9689 C   0  0  0  0  0  0  0  0  0  0  0  0
    7.1630  -16.5961   23.4141 O   0  0  0  0  0  0  0  0  0  0  0  0
    6.5755  -14.9504   21.4382 N   0  0  0  0  0  0  0  0  0  0  0  0
    7.6368  -14.3622   20.7057 C   0  0  0  0  0  0  0  0  0  0  0  0
    7.2589  -13.5145   19.8180 O   0  0  0  0  0  0  0  0  0  0  0  0
    9.0734  -14.6519   20.8943 C   0  0  0  0  0  0  0  0  0  0  0  0
    9.3705  -15.6764   21.9573 C   0  0  2  0  0  0  0  0  0  0  0  0
    8.9399  -15.1695   23.2245 N   0  0  0  0  0  0  0  0  0  0  0  0
   10.7627  -16.1618   21.9323 C   0  0  0  0  0  0  0  0  0  0  0  0
   11.7162  -15.3368   21.7310 O   0  0  0  0  0  0  0  0  0  0  0  0
   11.1675  -17.5110   22.1151 N   0  0  0  0  0  0  0  0  0  0  0  0
   12.5912  -17.8614   22.3651 C   0  0  1  0  0  0  0  0  0  0  0  0
   12.9873  -17.0415   23.5453 C   0  0  0  0  0  0  0  0  0  0  0  0
   14.2538  -16.3311   23.4627 C   0  0  0  0  0  0  0  0  0  0  0  0
   14.9321  -16.4265   22.4099 O   0  0  0  0  0  0  0  0  0  0  0  0
   12.7047  -19.3128   22.5316 C   0  0  0  0  0  0  0  0  0  0  0  0
   11.8691  -19.9703   23.1625 O   0  0  0  0  0  0  0  0  0  0  0  0
   14.7475  -15.5571   24.4891 O   0  0  0  0  0  0  0  0  0  0  0  0
   13.7756  -19.9824   21.9703 O   0  0  0  0  0  0  0  0  0  0  0  0
  1  2  1  0
  3  2  1  0
  4  5  1  0
  4  3  1  0
  5  6  1  6
  7  5  1  0
  7  8  2  0
  9 10  1  0
 10 11  2  0
 12 10  1  0
 13 12  1  6
 13 14  1  0
 14  7  1  0
 15 13  1  0
 16 15  2  0
 17 15  1  0
 18 17  1  0
 18 22  1  0
 18 19  1  1
 20 19  1  0
 20 24  1  0
 21 20  2  0
 22 23  2  0
 22 25  1  0
M  END
$$$$
