MND.pdb
     RDKit          3D

 25 24  0  0  1  0  0  0  0  0999 V2000
    6.6021  -12.2244   28.1642 C   0  0  0  0  0  0  0  0  0  0  0  0
    6.4511  -11.2337   26.6335 S   0  0  0  0  0  0  0  0  0  0  0  0
    6.8909  -12.2976   25.2617 C   0  0  0  0  0  0  0  0  0  0  0  0
    6.4667  -13.7271   25.4600 C   0  0  0  0  0  0  0  0  0  0  0  0
    7.5752  -14.7162   25.2839 C   0  0  2  0  0  0  0  0  0  0  0  0
    8.8444  -14.2160   25.7412 N   0  0  0  0  0  0  0  0  0  0  0  0
    7.5992  -15.0633   23.8384 C   0  0  0  0  0  0  0  0  0  0  0  0
    6.6738  -15.7788   23.3858 O   0  0  0  0  0  0  0  0  0  0  0  0
    7.3854  -12.4314   20.3924 N   0  0  0  0  0  0  0  0  0  0  0  0
    7.6202  -13.8286   20.3540 C   0  0  0  0  0  0  0  0  0  0  0  0
    6.5731  -14.5333   20.1164 O   0  0  0  0  0  0  0  0  0  0  0  0
    8.9280  -14.4847   20.5600 C   0  0  0  0  0  0  0  0  0  0  0  0
    8.9932  -15.3851   21.7654 C   0  0  2  0  0  0  0  0  0  0  0  0
    8.6022  -14.6403   22.9233 N   0  0  0  0  0  0  0  0  0  0  0  0
   10.2783  -16.0957   21.8988 C   0  0  0  0  0  0  0  0  0  0  0  0
   10.7182  -16.7945   20.9250 O   0  0  0  0  0  0  0  0  0  0  0  0
   11.1105  -16.0828   23.0498 N   0  0  0  0  0  0  0  0  0  0  0  0
   12.3110  -16.9559   23.1428 C   0  0  1  0  0  0  0  0  0  0  0  0
   13.4698  -16.0371   22.9565 C   0  0  0  0  0  0  0  0  0  0  0  0
   14.7961  -16.6341   22.9663 C   0  0  0  0  0  0  0  0  0  0  0  0
   14.8948  -17.8862   22.9596 O   0  0  0  0  0  0  0  0  0  0  0  0
   12.2751  -17.6852   24.4132 C   0  0  0  0  0  0  0  0  0  0  0  0
   12.8760  -18.7534   24.5762 O   0  0  0  0  0  0  0  0  0  0  0  0
   15.9537  -15.8885   22.9849 O   0  0  0  0  0  0  0  0  0  0  0  0
   11.5499  -17.1744   25.4731 O   0  0  0  0  0  0  0  0  0  0  0  0
  1  2  1  0
  3  2  1  0
  4  5  1  0
  4  3  1  0
  5  6  1  6
  7  5  1  0
  7  8  2  0
  9 10  1  0
 10 11  2  0
 12 10  1  0
 13 12  1  6
 13 14  1  0
 14  7  1  0
 15 13  1  0
 16 15  2  0
 17 15  1  0
 18 17  1  0
 18 22  1  0
 18 19  1  1
 20 19  1  0
 20 24  1  0
 21 20  2  0
 22 23  2  0
 22 25  1  0
M  END
$$$$
