MND.pdb
     RDKit          3D

 25 24  0  0  1  0  0  0  0  0999 V2000
    8.1262  -11.3834   25.8887 C   0  0  0  0  0  0  0  0  0  0  0  0
    6.6461  -12.0649   26.7205 S   0  0  0  0  0  0  0  0  0  0  0  0
    6.1053  -13.4848   25.7725 C   0  0  0  0  0  0  0  0  0  0  0  0
    7.2191  -14.4442   25.4537 C   0  0  0  0  0  0  0  0  0  0  0  0
    6.7877  -15.6207   24.6365 C   0  0  2  0  0  0  0  0  0  0  0  0
    5.7922  -16.4219   25.2979 N   0  0  0  0  0  0  0  0  0  0  0  0
    8.0206  -16.3957   24.3372 C   0  0  0  0  0  0  0  0  0  0  0  0
    8.2748  -17.4003   25.0438 O   0  0  0  0  0  0  0  0  0  0  0  0
    9.3046  -17.2911   19.8281 N   0  0  0  0  0  0  0  0  0  0  0  0
    9.8383  -16.2041   20.5646 C   0  0  0  0  0  0  0  0  0  0  0  0
    9.4807  -15.0484   20.1334 O   0  0  0  0  0  0  0  0  0  0  0  0
   10.7326  -16.3179   21.7353 C   0  0  0  0  0  0  0  0  0  0  0  0
   10.0790  -16.8817   22.9693 C   0  0  2  0  0  0  0  0  0  0  0  0
    8.9408  -16.0796   23.2999 N   0  0  0  0  0  0  0  0  0  0  0  0
   11.0192  -17.1006   24.0840 C   0  0  0  0  0  0  0  0  0  0  0  0
   11.5570  -16.0980   24.6634 O   0  0  0  0  0  0  0  0  0  0  0  0
   11.4050  -18.3670   24.5988 N   0  0  0  0  0  0  0  0  0  0  0  0
   12.2699  -18.4781   25.8037 C   0  0  1  0  0  0  0  0  0  0  0  0
   11.7409  -19.6555   26.5492 C   0  0  0  0  0  0  0  0  0  0  0  0
   11.6124  -19.5222   27.9919 C   0  0  0  0  0  0  0  0  0  0  0  0
   12.0994  -18.5081   28.5503 O   0  0  0  0  0  0  0  0  0  0  0  0
   13.6700  -18.5692   25.3811 C   0  0  0  0  0  0  0  0  0  0  0  0
   14.0083  -19.1538   24.3455 O   0  0  0  0  0  0  0  0  0  0  0  0
   10.9812  -20.4601   28.7781 O   0  0  0  0  0  0  0  0  0  0  0  0
   14.6558  -17.9870   26.1553 O   0  0  0  0  0  0  0  0  0  0  0  0
  1  2  1  0
  3  2  1  0
  4  5  1  0
  4  3  1  0
  5  6  1  1
  7  5  1  0
  7  8  2  0
  9 10  1  0
 10 11  2  0
 12 10  1  0
 13 12  1  6
 13 14  1  0
 14  7  1  0
 15 13  1  0
 16 15  2  0
 17 15  1  0
 18 17  1  0
 18 22  1  0
 18 19  1  6
 20 19  1  0
 20 24  1  0
 21 20  2  0
 22 23  2  0
 22 25  1  0
M  END
$$$$
