MND.pdb
     RDKit          3D

 25 24  0  0  1  0  0  0  0  0999 V2000
    7.5493  -13.7168   28.0010 C   0  0  0  0  0  0  0  0  0  0  0  0
    7.1078  -12.2727   26.9681 S   0  0  0  0  0  0  0  0  0  0  0  0
    6.8764  -12.8631   25.2933 C   0  0  0  0  0  0  0  0  0  0  0  0
    7.4970  -14.2114   25.0487 C   0  0  0  0  0  0  0  0  0  0  0  0
    7.2663  -14.7412   23.6688 C   0  0  2  0  0  0  0  0  0  0  0  0
    5.8767  -14.7342   23.2957 N   0  0  0  0  0  0  0  0  0  0  0  0
    7.8445  -16.1107   23.6454 C   0  0  0  0  0  0  0  0  0  0  0  0
    7.0810  -17.0715   23.3866 O   0  0  0  0  0  0  0  0  0  0  0  0
    9.7449  -15.1773   20.4598 N   0  0  0  0  0  0  0  0  0  0  0  0
   10.4015  -16.2227   21.1563 C   0  0  0  0  0  0  0  0  0  0  0  0
   11.6776  -16.0935   21.2211 O   0  0  0  0  0  0  0  0  0  0  0  0
    9.7388  -17.3879   21.7779 C   0  0  0  0  0  0  0  0  0  0  0  0
    9.9195  -17.4881   23.2696 C   0  0  2  0  0  0  0  0  0  0  0  0
    9.2109  -16.4143   23.8966 N   0  0  0  0  0  0  0  0  0  0  0  0
   11.3292  -17.6163   23.6830 C   0  0  0  0  0  0  0  0  0  0  0  0
   12.0205  -18.6081   23.2726 O   0  0  0  0  0  0  0  0  0  0  0  0
   12.0245  -16.7114   24.5287 N   0  0  0  0  0  0  0  0  0  0  0  0
   12.9065  -17.2008   25.6217 C   0  0  1  0  0  0  0  0  0  0  0  0
   14.1311  -16.3553   25.5351 C   0  0  0  0  0  0  0  0  0  0  0  0
   14.8162  -16.3123   24.2528 C   0  0  0  0  0  0  0  0  0  0  0  0
   15.6026  -15.3610   24.0200 O   0  0  0  0  0  0  0  0  0  0  0  0
   12.1769  -17.1358   26.8908 C   0  0  0  0  0  0  0  0  0  0  0  0
   11.0507  -16.6332   26.9776 O   0  0  0  0  0  0  0  0  0  0  0  0
   14.6413  -17.2680   23.2769 O   0  0  0  0  0  0  0  0  0  0  0  0
   12.7539  -17.6496   28.0368 O   0  0  0  0  0  0  0  0  0  0  0  0
  1  2  1  0
  3  2  1  0
  4  5  1  0
  4  3  1  0
  5  6  1  1
  7  5  1  0
  7  8  2  0
  9 10  1  0
 10 11  2  0
 12 10  1  0
 13 12  1  6
 13 14  1  0
 14  7  1  0
 15 13  1  0
 16 15  2  0
 17 15  1  0
 18 17  1  0
 18 22  1  0
 18 19  1  1
 20 19  1  0
 20 24  1  0
 21 20  2  0
 22 23  2  0
 22 25  1  0
M  END
$$$$
