MND.pdb
     RDKit          3D

 25 24  0  0  1  0  0  0  0  0999 V2000
   -2.0586  -17.8684   22.9050 C   0  0  0  0  0  0  0  0  0  0  0  0
   -3.6833  -18.5849   22.4640 S   0  0  0  0  0  0  0  0  0  0  0  0
   -3.7704  -20.2119   23.2073 C   0  0  0  0  0  0  0  0  0  0  0  0
   -4.0192  -20.1738   24.6904 C   0  0  0  0  0  0  0  0  0  0  0  0
   -4.1081  -21.5266   25.3230 C   0  0  2  0  0  0  0  0  0  0  0  0
   -4.1523  -22.5908   24.3556 N   0  0  0  0  0  0  0  0  0  0  0  0
   -5.3185  -21.5051   26.1861 C   0  0  0  0  0  0  0  0  0  0  0  0
   -5.3705  -20.6611   27.1123 O   0  0  0  0  0  0  0  0  0  0  0  0
  -10.0422  -22.3568   28.4613 N   0  0  0  0  0  0  0  0  0  0  0  0
  -10.0273  -22.3195   27.0446 C   0  0  0  0  0  0  0  0  0  0  0  0
  -11.1917  -22.2584   26.5060 O   0  0  0  0  0  0  0  0  0  0  0  0
   -8.8162  -22.3449   26.1984 C   0  0  0  0  0  0  0  0  0  0  0  0
   -7.5220  -22.4471   26.9615 C   0  0  2  0  0  0  0  0  0  0  0  0
   -6.4312  -22.3782   26.0376 N   0  0  0  0  0  0  0  0  0  0  0  0
   -7.4730  -23.5971   27.8832 C   0  0  0  0  0  0  0  0  0  0  0  0
   -7.2457  -24.7663   27.4235 O   0  0  0  0  0  0  0  0  0  0  0  0
   -7.6628  -23.5336   29.2894 N   0  0  0  0  0  0  0  0  0  0  0  0
   -7.5598  -24.7516   30.1369 C   0  0  1  0  0  0  0  0  0  0  0  0
   -6.1650  -24.7375   30.6622 C   0  0  0  0  0  0  0  0  0  0  0  0
   -5.3445  -25.9079   30.3930 C   0  0  0  0  0  0  0  0  0  0  0  0
   -5.0649  -26.1881   29.2010 O   0  0  0  0  0  0  0  0  0  0  0  0
   -8.6207  -24.7226   31.1473 C   0  0  0  0  0  0  0  0  0  0  0  0
   -9.4164  -23.7809   31.2395 O   0  0  0  0  0  0  0  0  0  0  0  0
   -4.8593  -26.7280   31.3871 O   0  0  0  0  0  0  0  0  0  0  0  0
   -8.7483  -25.7758   32.0331 O   0  0  0  0  0  0  0  0  0  0  0  0
  1  2  1  0
  3  2  1  0
  4  5  1  0
  4  3  1  0
  5  6  1  6
  7  5  1  0
  7  8  2  0
  9 10  1  0
 10 11  2  0
 12 10  1  0
 13 12  1  6
 13 14  1  0
 14  7  1  0
 15 13  1  0
 16 15  2  0
 17 15  1  0
 18 17  1  0
 18 22  1  0
 18 19  1  1
 20 19  1  0
 20 24  1  0
 21 20  2  0
 22 23  2  0
 22 25  1  0
M  END
$$$$
