MND.pdb
     RDKit          3D

 25 24  0  0  1  0  0  0  0  0999 V2000
    5.0388  -11.4994   27.5956 C   0  0  0  0  0  0  0  0  0  0  0  0
    6.2377  -11.1067   26.2705 S   0  0  0  0  0  0  0  0  0  0  0  0
    7.4098  -12.4584   26.1913 C   0  0  0  0  0  0  0  0  0  0  0  0
    6.7901  -13.7555   25.7480 C   0  0  0  0  0  0  0  0  0  0  0  0
    7.7357  -14.9146   25.7676 C   0  0  2  0  0  0  0  0  0  0  0  0
    9.0890  -14.5231   26.0605 N   0  0  0  0  0  0  0  0  0  0  0  0
    7.6189  -15.5712   24.4388 C   0  0  0  0  0  0  0  0  0  0  0  0
    6.5674  -16.2047   24.1817 O   0  0  0  0  0  0  0  0  0  0  0  0
    7.2853  -13.5035   21.4184 N   0  0  0  0  0  0  0  0  0  0  0  0
    8.3005  -14.4160   21.0369 C   0  0  0  0  0  0  0  0  0  0  0  0
    9.3751  -13.8600   20.6062 O   0  0  0  0  0  0  0  0  0  0  0  0
    8.1993  -15.8886   21.1028 C   0  0  0  0  0  0  0  0  0  0  0  0
    8.7285  -16.4957   22.3753 C   0  0  2  0  0  0  0  0  0  0  0  0
    8.6198  -15.5336   23.4292 N   0  0  0  0  0  0  0  0  0  0  0  0
   10.0679  -17.0945   22.2276 C   0  0  0  0  0  0  0  0  0  0  0  0
   10.2341  -18.0845   21.4387 O   0  0  0  0  0  0  0  0  0  0  0  0
   11.2407  -16.6647   22.9038 N   0  0  0  0  0  0  0  0  0  0  0  0
   12.4206  -17.5593   23.0449 C   0  0  1  0  0  0  0  0  0  0  0  0
   13.6017  -16.6542   22.9581 C   0  0  0  0  0  0  0  0  0  0  0  0
   13.8620  -16.0273   21.6717 C   0  0  0  0  0  0  0  0  0  0  0  0
   13.4399  -16.5881   20.6302 O   0  0  0  0  0  0  0  0  0  0  0  0
   12.2951  -18.3243   24.2883 C   0  0  0  0  0  0  0  0  0  0  0  0
   12.7476  -19.4689   24.4054 O   0  0  0  0  0  0  0  0  0  0  0  0
   14.5542  -14.8440   21.5408 O   0  0  0  0  0  0  0  0  0  0  0  0
   11.6525  -17.7608   25.3744 O   0  0  0  0  0  0  0  0  0  0  0  0
  1  2  1  0
  3  2  1  0
  4  5  1  0
  4  3  1  0
  5  6  1  6
  7  5  1  0
  7  8  2  0
  9 10  1  0
 10 11  2  0
 12 10  1  0
 13 12  1  6
 13 14  1  0
 14  7  1  0
 15 13  1  0
 16 15  2  0
 17 15  1  0
 18 17  1  0
 18 22  1  0
 18 19  1  1
 20 19  1  0
 20 24  1  0
 21 20  2  0
 22 23  2  0
 22 25  1  0
M  END
$$$$
