VFA.pdb
     RDKit          3D

 24 24  0  0  1  0  0  0  0  0999 V2000
   28.7964  -18.0317  -15.3941 C   0  0  0  0  0  0  0  0  0  0  0  0
   27.6002  -18.7938  -14.8614 C   0  0  2  0  0  0  0  0  0  0  0  0
   26.5714  -17.8120  -14.4154 C   0  0  0  0  0  0  0  0  0  0  0  0
   28.1010  -19.6980  -13.7649 C   0  0  2  0  0  0  0  0  0  0  0  0
   29.0617  -20.6104  -14.3814 N   0  0  0  0  0  0  0  0  0  0  0  0
   27.0066  -20.4380  -13.0948 C   0  0  0  0  0  0  0  0  0  0  0  0
   26.6173  -21.5002  -13.6443 O   0  0  0  0  0  0  0  0  0  0  0  0
   26.3832  -20.0296  -11.8945 N   0  0  0  0  0  0  0  0  0  0  0  0
   25.3875  -20.7949  -11.1962 C   0  0  1  0  0  0  0  0  0  0  0  0
   25.1688  -20.3580   -9.7805 C   0  0  0  0  0  0  0  0  0  0  0  0
   26.3709  -20.3901   -8.9464 C   0  0  0  0  0  0  0  0  0  0  0  0
   26.6310  -19.5314   -7.9209 C   0  0  0  0  0  0  0  0  0  0  0  0
   27.8009  -19.6267   -7.1718 C   0  0  0  0  0  0  0  0  0  0  0  0
   28.7431  -20.6027   -7.4461 C   0  0  0  0  0  0  0  0  0  0  0  0
   28.4859  -21.4750   -8.4827 C   0  0  0  0  0  0  0  0  0  0  0  0
   27.3209  -21.3659   -9.2150 C   0  0  0  0  0  0  0  0  0  0  0  0
   24.1053  -20.7366  -11.9420 C   0  0  0  0  0  0  0  0  0  0  0  0
   23.5661  -19.5979  -12.1425 O   0  0  0  0  0  0  0  0  0  0  0  0
   21.9929  -23.1796  -13.8892 C   0  0  0  0  0  0  0  0  0  0  0  0
   22.2113  -21.8363  -13.1904 C   0  0  2  0  0  0  0  0  0  0  0  0
   23.4479  -21.8924  -12.4447 N   0  0  0  0  0  0  0  0  0  0  0  0
   21.0889  -21.6715  -12.2435 C   0  0  0  0  0  0  0  0  0  0  0  0
   19.9299  -21.5378  -12.7003 O   0  0  0  0  0  0  0  0  0  0  0  0
   21.2690  -21.6591  -10.8649 O   0  0  0  0  0  0  0  0  0  0  0  0
  2  1  1  1
  2  3  1  0
  4  6  1  0
  4  2  1  0
  4  5  1  6
  6  7  2  0
  8  9  1  0
  8  6  1  0
  9 10  1  1
 11 16  2  0
 11 10  1  0
 12 11  1  0
 13 14  1  0
 13 12  2  0
 14 15  2  0
 15 16  1  0
 17  9  1  0
 18 17  2  0
 20 19  1  1
 20 21  1  0
 21 17  1  0
 22 20  1  0
 22 24  1  0
 23 22  2  0
M  END
$$$$
