VFA.pdb
     RDKit          3D

 24 24  0  0  1  0  0  0  0  0999 V2000
   27.1824  -20.1658  -15.1965 C   0  0  0  0  0  0  0  0  0  0  0  0
   28.0338  -19.3353  -14.2579 C   0  0  2  0  0  0  0  0  0  0  0  0
   29.1600  -18.7447  -15.0350 C   0  0  0  0  0  0  0  0  0  0  0  0
   28.4715  -20.2407  -13.1357 C   0  0  2  0  0  0  0  0  0  0  0  0
   29.2395  -21.3232  -13.7470 N   0  0  0  0  0  0  0  0  0  0  0  0
   27.3298  -20.7649  -12.3507 C   0  0  0  0  0  0  0  0  0  0  0  0
   26.9249  -21.9208  -12.6365 O   0  0  0  0  0  0  0  0  0  0  0  0
   26.6781  -20.0565  -11.3166 N   0  0  0  0  0  0  0  0  0  0  0  0
   25.4929  -20.5112  -10.6434 C   0  0  1  0  0  0  0  0  0  0  0  0
   25.2127  -19.7957   -9.3579 C   0  0  0  0  0  0  0  0  0  0  0  0
   26.2391  -19.9764   -8.3304 C   0  0  0  0  0  0  0  0  0  0  0  0
   26.6674  -21.1814   -7.8603 C   0  0  0  0  0  0  0  0  0  0  0  0
   27.6510  -21.2710   -6.8788 C   0  0  0  0  0  0  0  0  0  0  0  0
   28.2290  -20.1320   -6.3457 C   0  0  0  0  0  0  0  0  0  0  0  0
   27.7999  -18.9092   -6.8172 C   0  0  0  0  0  0  0  0  0  0  0  0
   26.8238  -18.8391   -7.7906 C   0  0  0  0  0  0  0  0  0  0  0  0
   24.3266  -20.3823  -11.5528 C   0  0  0  0  0  0  0  0  0  0  0  0
   24.4564  -19.6945  -12.6193 O   0  0  0  0  0  0  0  0  0  0  0  0
   22.1489  -22.0075  -13.2860 C   0  0  0  0  0  0  0  0  0  0  0  0
   21.9571  -20.9343  -12.2126 C   0  0  2  0  0  0  0  0  0  0  0  0
   23.0688  -20.9905  -11.2910 N   0  0  0  0  0  0  0  0  0  0  0  0
   20.7176  -21.2855  -11.4888 C   0  0  0  0  0  0  0  0  0  0  0  0
   20.8057  -21.7032  -10.3107 O   0  0  0  0  0  0  0  0  0  0  0  0
   19.4571  -21.1704  -12.0641 O   0  0  0  0  0  0  0  0  0  0  0  0
  2  1  1  6
  2  3  1  0
  4  6  1  0
  4  2  1  0
  4  5  1  6
  6  7  2  0
  8  9  1  0
  8  6  1  0
  9 10  1  1
 11 16  2  0
 11 10  1  0
 12 11  1  0
 13 14  1  0
 13 12  2  0
 14 15  2  0
 15 16  1  0
 17  9  1  0
 18 17  2  0
 20 19  1  6
 20 21  1  0
 21 17  1  0
 22 20  1  0
 22 24  1  0
 23 22  2  0
M  END
$$$$
