VFA.pdb
     RDKit          3D

 24 24  0  0  1  0  0  0  0  0999 V2000
   26.7294  -19.3680  -16.3837 C   0  0  0  0  0  0  0  0  0  0  0  0
   27.7165  -18.8729  -15.3463 C   0  0  2  0  0  0  0  0  0  0  0  0
   28.8043  -18.1290  -16.0424 C   0  0  0  0  0  0  0  0  0  0  0  0
   28.1929  -20.0766  -14.5752 C   0  0  2  0  0  0  0  0  0  0  0  0
   28.7104  -21.0254  -15.5588 N   0  0  0  0  0  0  0  0  0  0  0  0
   27.1219  -20.6834  -13.7510 C   0  0  0  0  0  0  0  0  0  0  0  0
   26.6865  -21.8046  -14.1184 O   0  0  0  0  0  0  0  0  0  0  0  0
   26.5684  -20.0885  -12.5952 N   0  0  0  0  0  0  0  0  0  0  0  0
   25.5789  -20.7086  -11.7580 C   0  0  1  0  0  0  0  0  0  0  0  0
   25.5538  -20.1823  -10.3561 C   0  0  0  0  0  0  0  0  0  0  0  0
   26.7346  -20.5241   -9.5619 C   0  0  0  0  0  0  0  0  0  0  0  0
   26.8656  -20.3001   -8.2243 C   0  0  0  0  0  0  0  0  0  0  0  0
   28.0239  -20.6548   -7.5378 C   0  0  0  0  0  0  0  0  0  0  0  0
   29.0861  -21.2500   -8.1957 C   0  0  0  0  0  0  0  0  0  0  0  0
   28.9600  -21.4795   -9.5496 C   0  0  0  0  0  0  0  0  0  0  0  0
   27.8044  -21.1213  -10.2143 C   0  0  0  0  0  0  0  0  0  0  0  0
   24.2383  -20.5511  -12.3761 C   0  0  0  0  0  0  0  0  0  0  0  0
   23.8312  -19.3763  -12.6616 O   0  0  0  0  0  0  0  0  0  0  0  0
   21.6485  -22.8901  -13.8099 C   0  0  0  0  0  0  0  0  0  0  0  0
   22.1201  -21.5089  -13.3510 C   0  0  2  0  0  0  0  0  0  0  0  0
   23.3845  -21.6501  -12.6657 N   0  0  0  0  0  0  0  0  0  0  0  0
   21.1081  -21.0204  -12.3915 C   0  0  0  0  0  0  0  0  0  0  0  0
   21.3846  -21.0254  -11.1694 O   0  0  0  0  0  0  0  0  0  0  0  0
   19.8605  -20.5552  -12.7920 O   0  0  0  0  0  0  0  0  0  0  0  0
  2  1  1  6
  2  3  1  0
  4  6  1  0
  4  2  1  0
  4  5  1  6
  6  7  2  0
  8  9  1  0
  8  6  1  0
  9 10  1  1
 11 16  2  0
 11 10  1  0
 12 11  1  0
 13 14  1  0
 13 12  2  0
 14 15  2  0
 15 16  1  0
 17  9  1  0
 18 17  2  0
 20 19  1  1
 20 21  1  0
 21 17  1  0
 22 20  1  0
 22 24  1  0
 23 22  2  0
M  END
$$$$
