VFA.pdb
     RDKit          3D

 24 24  0  0  1  0  0  0  0  0999 V2000
   17.2850  -10.8049  -18.3877 C   0  0  0  0  0  0  0  0  0  0  0  0
   18.4927  -10.4868  -19.2455 C   0  0  2  0  0  0  0  0  0  0  0  0
   18.5637  -11.4810  -20.3535 C   0  0  0  0  0  0  0  0  0  0  0  0
   19.6962  -10.4920  -18.3388 C   0  0  2  0  0  0  0  0  0  0  0  0
   19.8538  -11.8639  -17.8608 N   0  0  0  0  0  0  0  0  0  0  0  0
   19.5626   -9.5395  -17.2121 C   0  0  0  0  0  0  0  0  0  0  0  0
   18.9687   -9.9534  -16.1837 O   0  0  0  0  0  0  0  0  0  0  0  0
   20.0541   -8.2150  -17.2224 N   0  0  0  0  0  0  0  0  0  0  0  0
   19.8918   -7.2809  -16.1426 C   0  0  1  0  0  0  0  0  0  0  0  0
   21.1648   -6.9585  -15.4225 C   0  0  0  0  0  0  0  0  0  0  0  0
   21.6693   -8.0398  -14.5751 C   0  0  0  0  0  0  0  0  0  0  0  0
   21.2542   -8.2902  -13.3016 C   0  0  0  0  0  0  0  0  0  0  0  0
   21.7840   -9.3412  -12.5577 C   0  0  0  0  0  0  0  0  0  0  0  0
   22.7552  -10.1708  -13.0909 C   0  0  0  0  0  0  0  0  0  0  0  0
   23.1796   -9.9228  -14.3792 C   0  0  0  0  0  0  0  0  0  0  0  0
   22.6435   -8.8764  -15.1023 C   0  0  0  0  0  0  0  0  0  0  0  0
   19.2773   -6.0313  -16.6572 C   0  0  0  0  0  0  0  0  0  0  0  0
   19.8416   -5.4281  -17.6293 O   0  0  0  0  0  0  0  0  0  0  0  0
   16.0088   -4.2315  -16.1093 C   0  0  0  0  0  0  0  0  0  0  0  0
   17.4213   -4.3257  -16.6894 C   0  0  2  0  0  0  0  0  0  0  0  0
   18.0867   -5.4736  -16.1167 N   0  0  0  0  0  0  0  0  0  0  0  0
   18.1295   -3.1007  -16.2634 C   0  0  0  0  0  0  0  0  0  0  0  0
   17.7459   -1.9958  -16.7129 O   0  0  0  0  0  0  0  0  0  0  0  0
   19.2053   -3.1263  -15.3829 O   0  0  0  0  0  0  0  0  0  0  0  0
  2  1  1  1
  2  3  1  0
  4  6  1  0
  4  2  1  0
  4  5  1  1
  6  7  2  0
  8  9  1  0
  8  6  1  0
  9 10  1  6
 11 16  2  0
 11 10  1  0
 12 11  1  0
 13 14  1  0
 13 12  2  0
 14 15  2  0
 15 16  1  0
 17  9  1  0
 18 17  2  0
 20 19  1  1
 20 21  1  0
 21 17  1  0
 22 20  1  0
 22 24  1  0
 23 22  2  0
M  END
$$$$
