VFA.pdb
     RDKit          3D

 24 24  0  0  1  0  0  0  0  0999 V2000
   26.4027  -18.4139  -15.8901 C   0  0  0  0  0  0  0  0  0  0  0  0
   27.2804  -17.9639  -14.7401 C   0  0  2  0  0  0  0  0  0  0  0  0
   28.2748  -16.9816  -15.2572 C   0  0  0  0  0  0  0  0  0  0  0  0
   27.8959  -19.2012  -14.1395 C   0  0  2  0  0  0  0  0  0  0  0  0
   28.6491  -19.8544  -15.2080 N   0  0  0  0  0  0  0  0  0  0  0  0
   26.8844  -20.1131  -13.5565 C   0  0  0  0  0  0  0  0  0  0  0  0
   26.6509  -21.1792  -14.1815 O   0  0  0  0  0  0  0  0  0  0  0  0
   26.1770  -19.8619  -12.3596 N   0  0  0  0  0  0  0  0  0  0  0  0
   25.2911  -20.8008  -11.7285 C   0  0  1  0  0  0  0  0  0  0  0  0
   25.1398  -20.5948  -10.2528 C   0  0  0  0  0  0  0  0  0  0  0  0
   26.3883  -20.7040   -9.4970 C   0  0  0  0  0  0  0  0  0  0  0  0
   26.6825  -19.9944   -8.3716 C   0  0  0  0  0  0  0  0  0  0  0  0
   27.8957  -20.1550   -7.7074 C   0  0  0  0  0  0  0  0  0  0  0  0
   28.8477  -21.0460   -8.1714 C   0  0  0  0  0  0  0  0  0  0  0  0
   28.5561  -21.7673   -9.3099 C   0  0  0  0  0  0  0  0  0  0  0  0
   27.3484  -21.5954   -9.9558 C   0  0  0  0  0  0  0  0  0  0  0  0
   23.9593  -20.7408  -12.3816 C   0  0  0  0  0  0  0  0  0  0  0  0
   23.4470  -19.5973  -12.6212 O   0  0  0  0  0  0  0  0  0  0  0  0
   21.6731  -23.1807  -14.0991 C   0  0  0  0  0  0  0  0  0  0  0  0
   21.9356  -21.8442  -13.4024 C   0  0  2  0  0  0  0  0  0  0  0  0
   23.2258  -21.9002  -12.7538 N   0  0  0  0  0  0  0  0  0  0  0  0
   20.8877  -21.6989  -12.3708 C   0  0  0  0  0  0  0  0  0  0  0  0
   21.2184  -21.7567  -11.1637 O   0  0  0  0  0  0  0  0  0  0  0  0
   19.5485  -21.5004  -12.6876 O   0  0  0  0  0  0  0  0  0  0  0  0
  2  1  1  6
  2  3  1  0
  4  6  1  0
  4  2  1  0
  4  5  1  6
  6  7  2  0
  8  9  1  0
  8  6  1  0
  9 10  1  1
 11 16  2  0
 11 10  1  0
 12 11  1  0
 13 14  1  0
 13 12  2  0
 14 15  2  0
 15 16  1  0
 17  9  1  0
 18 17  2  0
 20 19  1  1
 20 21  1  0
 21 17  1  0
 22 20  1  0
 22 24  1  0
 23 22  2  0
M  END
$$$$
