VFA.pdb
     RDKit          3D

 24 24  0  0  1  0  0  0  0  0999 V2000
   26.3591  -18.8670  -15.8818 C   0  0  0  0  0  0  0  0  0  0  0  0
   27.1840  -18.2551  -14.7680 C   0  0  2  0  0  0  0  0  0  0  0  0
   28.1128  -17.2515  -15.3607 C   0  0  0  0  0  0  0  0  0  0  0  0
   27.8779  -19.3868  -14.0550 C   0  0  2  0  0  0  0  0  0  0  0  0
   28.6655  -20.0950  -15.0617 N   0  0  0  0  0  0  0  0  0  0  0  0
   26.9276  -20.2968  -13.3742 C   0  0  0  0  0  0  0  0  0  0  0  0
   26.7443  -21.4250  -13.8987 O   0  0  0  0  0  0  0  0  0  0  0  0
   26.2255  -19.9792  -12.1901 N   0  0  0  0  0  0  0  0  0  0  0  0
   25.3102  -20.8664  -11.5268 C   0  0  1  0  0  0  0  0  0  0  0  0
   25.1422  -20.5837  -10.0657 C   0  0  0  0  0  0  0  0  0  0  0  0
   26.3855  -20.6301   -9.2951 C   0  0  0  0  0  0  0  0  0  0  0  0
   27.4849  -21.3607   -9.6330 C   0  0  0  0  0  0  0  0  0  0  0  0
   28.6334  -21.3524   -8.8457 C   0  0  0  0  0  0  0  0  0  0  0  0
   28.6959  -20.5972   -7.6876 C   0  0  0  0  0  0  0  0  0  0  0  0
   27.5866  -19.8554   -7.3400 C   0  0  0  0  0  0  0  0  0  0  0  0
   26.4564  -19.8754   -8.1322 C   0  0  0  0  0  0  0  0  0  0  0  0
   23.9896  -20.8110  -12.2027 C   0  0  0  0  0  0  0  0  0  0  0  0
   23.4645  -19.6700  -12.4256 O   0  0  0  0  0  0  0  0  0  0  0  0
   21.7537  -23.2781  -13.9650 C   0  0  0  0  0  0  0  0  0  0  0  0
   22.0160  -21.9196  -13.3122 C   0  0  2  0  0  0  0  0  0  0  0  0
   23.2804  -21.9722  -12.6144 N   0  0  0  0  0  0  0  0  0  0  0  0
   20.9341  -21.7148  -12.3267 C   0  0  0  0  0  0  0  0  0  0  0  0
   19.7640  -21.5477  -12.7426 O   0  0  0  0  0  0  0  0  0  0  0  0
   21.1640  -21.7003  -10.9556 O   0  0  0  0  0  0  0  0  0  0  0  0
  2  1  1  6
  2  3  1  0
  4  6  1  0
  4  2  1  0
  4  5  1  6
  6  7  2  0
  8  9  1  0
  8  6  1  0
  9 10  1  1
 11 16  2  0
 11 10  1  0
 12 11  1  0
 13 14  1  0
 13 12  2  0
 14 15  2  0
 15 16  1  0
 17  9  1  0
 18 17  2  0
 20 19  1  1
 20 21  1  0
 21 17  1  0
 22 20  1  0
 22 24  1  0
 23 22  2  0
M  END
$$$$
