VFA.pdb
     RDKit          3D

 24 24  0  0  1  0  0  0  0  0999 V2000
   45.3909   -5.5141   -9.9976 C   0  0  0  0  0  0  0  0  0  0  0  0
   43.9124   -5.5591  -10.3259 C   0  0  2  0  0  0  0  0  0  0  0  0
   43.4722   -4.1920  -10.7241 C   0  0  0  0  0  0  0  0  0  0  0  0
   43.2036   -6.1025   -9.1124 C   0  0  2  0  0  0  0  0  0  0  0  0
   43.6476   -7.4856   -8.9531 N   0  0  0  0  0  0  0  0  0  0  0  0
   41.7293   -6.0189   -9.2309 C   0  0  0  0  0  0  0  0  0  0  0  0
   41.1630   -6.8992   -9.9280 O   0  0  0  0  0  0  0  0  0  0  0  0
   40.9330   -5.0258   -8.6179 N   0  0  0  0  0  0  0  0  0  0  0  0
   39.5074   -4.9236   -8.7653 C   0  0  1  0  0  0  0  0  0  0  0  0
   38.7621   -4.9140   -7.4663 C   0  0  0  0  0  0  0  0  0  0  0  0
   37.3071   -4.8396   -7.6058 C   0  0  0  0  0  0  0  0  0  0  0  0
   36.4812   -5.9148   -7.7413 C   0  0  0  0  0  0  0  0  0  0  0  0
   35.1032   -5.7615   -7.8692 C   0  0  0  0  0  0  0  0  0  0  0  0
   34.5242   -4.5044   -7.8628 C   0  0  0  0  0  0  0  0  0  0  0  0
   35.3545   -3.4120   -7.7261 C   0  0  0  0  0  0  0  0  0  0  0  0
   36.7185   -3.5824   -7.6004 C   0  0  0  0  0  0  0  0  0  0  0  0
   39.1762   -3.7023   -9.5416 C   0  0  0  0  0  0  0  0  0  0  0  0
   39.6777   -2.5889   -9.1726 O   0  0  0  0  0  0  0  0  0  0  0  0
   38.0535   -2.9952  -12.9752 C   0  0  0  0  0  0  0  0  0  0  0  0
   38.1001   -2.5541  -11.5110 C   0  0  2  0  0  0  0  0  0  0  0  0
   38.3245   -3.7146  -10.6797 N   0  0  0  0  0  0  0  0  0  0  0  0
   36.7679   -1.9946  -11.2015 C   0  0  0  0  0  0  0  0  0  0  0  0
   35.8050   -2.7813  -11.0476 O   0  0  0  0  0  0  0  0  0  0  0  0
   36.5413   -0.6287  -11.0745 O   0  0  0  0  0  0  0  0  0  0  0  0
  2  1  1  1
  2  3  1  0
  4  6  1  0
  4  2  1  0
  4  5  1  6
  6  7  2  0
  8  9  1  0
  8  6  1  0
  9 10  1  1
 11 16  2  0
 11 10  1  0
 12 11  1  0
 13 14  1  0
 13 12  2  0
 14 15  2  0
 15 16  1  0
 17  9  1  0
 18 17  2  0
 20 19  1  6
 20 21  1  0
 21 17  1  0
 22 20  1  0
 22 24  1  0
 23 22  2  0
M  END
$$$$
