VFA.pdb
     RDKit          3D

 24 24  0  0  1  0  0  0  0  0999 V2000
   18.9982  -12.5821  -16.6933 C   0  0  0  0  0  0  0  0  0  0  0  0
   17.8132  -12.1977  -17.5556 C   0  0  2  0  0  0  0  0  0  0  0  0
   17.5233  -13.3200  -18.4924 C   0  0  0  0  0  0  0  0  0  0  0  0
   18.1630  -10.9019  -18.2405 C   0  0  2  0  0  0  0  0  0  0  0  0
   19.1554  -11.2243  -19.2636 N   0  0  0  0  0  0  0  0  0  0  0  0
   18.6726   -9.8801  -17.2966 C   0  0  0  0  0  0  0  0  0  0  0  0
   17.8685   -9.4558  -16.4277 O   0  0  0  0  0  0  0  0  0  0  0  0
   19.9867   -9.3614  -17.3128 N   0  0  0  0  0  0  0  0  0  0  0  0
   20.4564   -8.3143  -16.4482 C   0  0  1  0  0  0  0  0  0  0  0  0
   21.8514   -8.5229  -15.9447 C   0  0  0  0  0  0  0  0  0  0  0  0
   22.3956   -7.3936  -15.1895 C   0  0  0  0  0  0  0  0  0  0  0  0
   21.9877   -7.0199  -13.9443 C   0  0  0  0  0  0  0  0  0  0  0  0
   22.5562   -5.9306  -13.2894 C   0  0  0  0  0  0  0  0  0  0  0  0
   23.5603   -5.1875  -13.8857 C   0  0  0  0  0  0  0  0  0  0  0  0
   23.9777   -5.5605  -15.1459 C   0  0  0  0  0  0  0  0  0  0  0  0
   23.4029   -6.6432  -15.7804 C   0  0  0  0  0  0  0  0  0  0  0  0
   20.3687   -7.0118  -17.1552 C   0  0  0  0  0  0  0  0  0  0  0  0
   20.7444   -6.9509  -18.3728 O   0  0  0  0  0  0  0  0  0  0  0  0
   18.6390   -4.1852  -17.8095 C   0  0  0  0  0  0  0  0  0  0  0  0
   19.9789   -4.5213  -17.1520 C   0  0  2  0  0  0  0  0  0  0  0  0
   19.8845   -5.8262  -16.5383 N   0  0  0  0  0  0  0  0  0  0  0  0
   20.1900   -3.5101  -16.0953 C   0  0  0  0  0  0  0  0  0  0  0  0
   20.0526   -3.8522  -14.8978 O   0  0  0  0  0  0  0  0  0  0  0  0
   20.5354   -2.1933  -16.3783 O   0  0  0  0  0  0  0  0  0  0  0  0
  2  1  1  1
  2  3  1  0
  4  6  1  0
  4  2  1  0
  4  5  1  6
  6  7  2  0
  8  9  1  0
  8  6  1  0
  9 10  1  6
 11 16  2  0
 11 10  1  0
 12 11  1  0
 13 14  1  0
 13 12  2  0
 14 15  2  0
 15 16  1  0
 17  9  1  0
 18 17  2  0
 20 19  1  1
 20 21  1  0
 21 17  1  0
 22 20  1  0
 22 24  1  0
 23 22  2  0
M  END
$$$$
