GDF.pdb
     RDKit          3D

 24 24  0  0  1  0  0  0  0  0999 V2000
   19.3183    4.6381   -6.0871 N   0  0  0  0  0  0  0  0  0  0  0  0
   19.6112    5.5106   -7.1891 C   0  0  0  0  0  0  0  0  0  0  0  0
   20.9726    5.2966   -7.7417 C   0  0  0  0  0  0  0  0  0  0  0  0
   21.2205    4.5006   -8.6852 O   0  0  0  0  0  0  0  0  0  0  0  0
   22.0475    6.0288   -7.1747 N   0  0  0  0  0  0  0  0  0  0  0  0
   23.4003    5.9608   -7.6363 C   0  0  1  0  0  0  0  0  0  0  0  0
   24.0857    7.2714   -7.3275 C   0  0  0  0  0  0  0  0  0  0  0  0
   23.7249    8.3467   -8.2533 C   0  0  0  0  0  0  0  0  0  0  0  0
   23.6904    9.5267   -7.8079 O   0  0  0  0  0  0  0  0  0  0  0  0
   24.1504    4.8159   -7.1109 C   0  0  0  0  0  0  0  0  0  0  0  0
   24.0975    4.5781   -5.8784 O   0  0  0  0  0  0  0  0  0  0  0  0
   23.4152    8.1866   -9.5814 O   0  0  0  0  0  0  0  0  0  0  0  0
   24.9318    3.9663   -7.9322 N   0  0  0  0  0  0  0  0  0  0  0  0
   25.5892    2.7896   -7.3567 C   0  0  1  0  0  0  0  0  0  0  0  0
   25.1729    1.5407   -8.0535 C   0  0  0  0  0  0  0  0  0  0  0  0
   26.0029    0.4053   -7.6168 C   0  0  0  0  0  0  0  0  0  0  0  0
   27.1685    0.0513   -8.2819 C   0  0  0  0  0  0  0  0  0  0  0  0
   27.9650   -1.0046   -7.8603 C   0  0  0  0  0  0  0  0  0  0  0  0
   27.5958   -1.7387   -6.7388 C   0  0  0  0  0  0  0  0  0  0  0  0
   26.4501   -1.4086   -6.0657 C   0  0  0  0  0  0  0  0  0  0  0  0
   25.6765   -0.3477   -6.5131 C   0  0  0  0  0  0  0  0  0  0  0  0
   27.0303    3.0461   -7.4173 C   0  0  0  0  0  0  0  0  0  0  0  0
   27.5240    3.6261   -8.4113 O   0  0  0  0  0  0  0  0  0  0  0  0
   27.8946    2.6575   -6.3811 O   0  0  0  0  0  0  0  0  0  0  0  0
  2  1  1  0
  3  2  1  0
  4  3  2  0
  5  3  1  0
  6 10  1  0
  6  5  1  0
  6  7  1  1
  8  7  1  0
  9  8  2  0
 10 13  1  0
 11 10  2  0
 12  8  1  0
 13 14  1  0
 14 15  1  6
 14 22  1  0
 15 16  1  0
 16 17  2  0
 17 18  1  0
 19 18  2  0
 20 19  1  0
 21 20  2  0
 21 16  1  0
 22 23  2  0
 22 24  1  0
M  END
$$$$
