GDF.pdb
     RDKit          3D

 24 24  0  0  1  0  0  0  0  0999 V2000
   32.2372  -15.8838  -19.7833 N   0  0  0  0  0  0  0  0  0  0  0  0
   31.5881  -14.6082  -19.8974 C   0  0  0  0  0  0  0  0  0  0  0  0
   32.5513  -13.4799  -19.9585 C   0  0  0  0  0  0  0  0  0  0  0  0
   33.7250  -13.5936  -20.3997 O   0  0  0  0  0  0  0  0  0  0  0  0
   32.1234  -12.2091  -19.4948 N   0  0  0  0  0  0  0  0  0  0  0  0
   32.8668  -10.9981  -19.6635 C   0  0  1  0  0  0  0  0  0  0  0  0
   33.2036  -10.8344  -21.1273 C   0  0  0  0  0  0  0  0  0  0  0  0
   34.0880   -9.6989  -21.3953 C   0  0  0  0  0  0  0  0  0  0  0  0
   33.5621   -8.6065  -21.7448 O   0  0  0  0  0  0  0  0  0  0  0  0
   32.1992   -9.8108  -19.1213 C   0  0  0  0  0  0  0  0  0  0  0  0
   30.9975   -9.6062  -19.4258 O   0  0  0  0  0  0  0  0  0  0  0  0
   35.4578   -9.7139  -21.3007 O   0  0  0  0  0  0  0  0  0  0  0  0
   32.8497   -8.8845  -18.2694 N   0  0  0  0  0  0  0  0  0  0  0  0
   32.0886   -7.7956  -17.6505 C   0  0  1  0  0  0  0  0  0  0  0  0
   31.9203   -8.0151  -16.1869 C   0  0  0  0  0  0  0  0  0  0  0  0
   33.2160   -8.3258  -15.5596 C   0  0  0  0  0  0  0  0  0  0  0  0
   33.7214   -9.6179  -15.5238 C   0  0  0  0  0  0  0  0  0  0  0  0
   34.9523   -9.9114  -14.9528 C   0  0  0  0  0  0  0  0  0  0  0  0
   35.7126   -8.8892  -14.3960 C   0  0  0  0  0  0  0  0  0  0  0  0
   35.2352   -7.6061  -14.4192 C   0  0  0  0  0  0  0  0  0  0  0  0
   34.0014   -7.3466  -14.9976 C   0  0  0  0  0  0  0  0  0  0  0  0
   32.7916   -6.5542  -17.9834 C   0  0  0  0  0  0  0  0  0  0  0  0
   33.9101   -6.5968  -18.5449 O   0  0  0  0  0  0  0  0  0  0  0  0
   32.2460   -5.2941  -17.6900 O   0  0  0  0  0  0  0  0  0  0  0  0
  2  1  1  0
  3  2  1  0
  4  3  2  0
  5  3  1  0
  6 10  1  0
  6  5  1  0
  6  7  1  6
  8  7  1  0
  9  8  2  0
 10 13  1  0
 11 10  2  0
 12  8  1  0
 13 14  1  0
 14 15  1  1
 14 22  1  0
 15 16  1  0
 16 17  2  0
 17 18  1  0
 19 18  2  0
 20 19  1  0
 21 20  2  0
 21 16  1  0
 22 23  2  0
 22 24  1  0
M  END
$$$$
