GDF.pdb
     RDKit          3D

 24 24  0  0  1  0  0  0  0  0999 V2000
   15.6876  -10.8349  -16.1128 N   0  0  0  0  0  0  0  0  0  0  0  0
   15.4745   -9.7640  -17.0452 C   0  0  0  0  0  0  0  0  0  0  0  0
   16.6930   -8.9436  -17.2619 C   0  0  0  0  0  0  0  0  0  0  0  0
   17.5309   -9.1743  -18.1728 O   0  0  0  0  0  0  0  0  0  0  0  0
   16.9216   -7.8435  -16.3955 N   0  0  0  0  0  0  0  0  0  0  0  0
   18.0134   -6.9280  -16.5273 C   0  0  1  0  0  0  0  0  0  0  0  0
   17.5858   -5.5811  -15.9927 C   0  0  0  0  0  0  0  0  0  0  0  0
   18.6019   -4.5408  -16.1622 C   0  0  0  0  0  0  0  0  0  0  0  0
   19.3444   -4.5968  -17.1808 O   0  0  0  0  0  0  0  0  0  0  0  0
   19.2566   -7.3925  -15.9043 C   0  0  0  0  0  0  0  0  0  0  0  0
   19.2158   -7.8059  -14.7185 O   0  0  0  0  0  0  0  0  0  0  0  0
   18.8249   -3.4946  -15.3014 O   0  0  0  0  0  0  0  0  0  0  0  0
   20.5013   -7.3956  -16.5807 N   0  0  0  0  0  0  0  0  0  0  0  0
   21.7010   -7.9033  -15.9092 C   0  0  1  0  0  0  0  0  0  0  0  0
   22.4997   -8.7773  -16.8131 C   0  0  0  0  0  0  0  0  0  0  0  0
   23.7409   -9.2094  -16.1485 C   0  0  0  0  0  0  0  0  0  0  0  0
   23.7303  -10.1015  -15.0854 C   0  0  0  0  0  0  0  0  0  0  0  0
   24.8996  -10.5279  -14.4706 C   0  0  0  0  0  0  0  0  0  0  0  0
   26.1261  -10.0548  -14.9235 C   0  0  0  0  0  0  0  0  0  0  0  0
   26.1623   -9.1738  -15.9710 C   0  0  0  0  0  0  0  0  0  0  0  0
   24.9756   -8.7677  -16.5634 C   0  0  0  0  0  0  0  0  0  0  0  0
   22.4339   -6.7317  -15.4231 C   0  0  0  0  0  0  0  0  0  0  0  0
   22.4172   -5.6642  -16.0777 O   0  0  0  0  0  0  0  0  0  0  0  0
   23.1684   -6.7629  -14.2268 O   0  0  0  0  0  0  0  0  0  0  0  0
  2  1  1  0
  3  2  1  0
  4  3  2  0
  5  3  1  0
  6 10  1  0
  6  5  1  0
  6  7  1  1
  8  7  1  0
  9  8  2  0
 10 13  1  0
 11 10  2  0
 12  8  1  0
 13 14  1  0
 14 15  1  6
 14 22  1  0
 15 16  1  0
 16 17  2  0
 17 18  1  0
 19 18  2  0
 20 19  1  0
 21 20  2  0
 21 16  1  0
 22 23  2  0
 22 24  1  0
M  END
$$$$
