GDF.pdb
     RDKit          3D

 24 24  0  0  1  0  0  0  0  0999 V2000
   28.8706  -24.1559  -16.7510 N   0  0  0  0  0  0  0  0  0  0  0  0
   28.3727  -22.8488  -17.0754 C   0  0  0  0  0  0  0  0  0  0  0  0
   28.1406  -22.0105  -15.8721 C   0  0  0  0  0  0  0  0  0  0  0  0
   28.8683  -22.0548  -14.8456 O   0  0  0  0  0  0  0  0  0  0  0  0
   27.0408  -21.1142  -15.8831 N   0  0  0  0  0  0  0  0  0  0  0  0
   26.7123  -20.2293  -14.8077 C   0  0  1  0  0  0  0  0  0  0  0  0
   26.1281  -18.9604  -15.3834 C   0  0  0  0  0  0  0  0  0  0  0  0
   27.0509  -18.2464  -16.2678 C   0  0  0  0  0  0  0  0  0  0  0  0
   28.1213  -17.7987  -15.7720 O   0  0  0  0  0  0  0  0  0  0  0  0
   25.8337  -20.8244  -13.7961 C   0  0  0  0  0  0  0  0  0  0  0  0
   24.7601  -21.3576  -14.1723 O   0  0  0  0  0  0  0  0  0  0  0  0
   26.8553  -18.0151  -17.6071 O   0  0  0  0  0  0  0  0  0  0  0  0
   26.1424  -20.8243  -12.4134 N   0  0  0  0  0  0  0  0  0  0  0  0
   25.2896  -21.5531  -11.4703 C   0  0  1  0  0  0  0  0  0  0  0  0
   26.0946  -22.1865  -10.3889 C   0  0  0  0  0  0  0  0  0  0  0  0
   26.6927  -21.1578   -9.5212 C   0  0  0  0  0  0  0  0  0  0  0  0
   28.0410  -20.8357   -9.5890 C   0  0  0  0  0  0  0  0  0  0  0  0
   28.6040  -19.8515   -8.7881 C   0  0  0  0  0  0  0  0  0  0  0  0
   27.8042  -19.1590   -7.8859 C   0  0  0  0  0  0  0  0  0  0  0  0
   26.4709  -19.4587   -7.8007 C   0  0  0  0  0  0  0  0  0  0  0  0
   25.9396  -20.4478   -8.6154 C   0  0  0  0  0  0  0  0  0  0  0  0
   24.2956  -20.5946  -10.9809 C   0  0  0  0  0  0  0  0  0  0  0  0
   24.5217  -19.3648  -11.0498 O   0  0  0  0  0  0  0  0  0  0  0  0
   23.0752  -21.0131  -10.4267 O   0  0  0  0  0  0  0  0  0  0  0  0
  2  1  1  0
  3  2  1  0
  4  3  2  0
  5  3  1  0
  6 10  1  0
  6  5  1  0
  6  7  1  6
  8  7  1  0
  9  8  2  0
 10 13  1  0
 11 10  2  0
 12  8  1  0
 13 14  1  0
 14 15  1  1
 14 22  1  0
 15 16  1  0
 16 17  2  0
 17 18  1  0
 19 18  2  0
 20 19  1  0
 21 20  2  0
 21 16  1  0
 22 23  2  0
 22 24  1  0
M  END
$$$$
