GDF.pdb
     RDKit          3D

 24 24  0  0  1  0  0  0  0  0999 V2000
   20.0148  -11.8704  -17.6982 N   0  0  0  0  0  0  0  0  0  0  0  0
   20.4163  -11.1493  -16.5234 C   0  0  0  0  0  0  0  0  0  0  0  0
   20.5398   -9.6892  -16.7630 C   0  0  0  0  0  0  0  0  0  0  0  0
   21.6413   -9.1073  -16.9448 O   0  0  0  0  0  0  0  0  0  0  0  0
   19.3526   -8.9125  -16.7877 N   0  0  0  0  0  0  0  0  0  0  0  0
   19.3171   -7.5036  -17.0350 C   0  0  1  0  0  0  0  0  0  0  0  0
   17.9283   -7.1256  -17.4946 C   0  0  0  0  0  0  0  0  0  0  0  0
   17.6075   -7.6177  -18.8356 C   0  0  0  0  0  0  0  0  0  0  0  0
   16.4968   -8.1914  -19.0073 O   0  0  0  0  0  0  0  0  0  0  0  0
   19.7555   -6.6896  -15.8971 C   0  0  0  0  0  0  0  0  0  0  0  0
   19.1986   -6.8638  -14.7844 O   0  0  0  0  0  0  0  0  0  0  0  0
   18.4164   -7.5115  -19.9401 O   0  0  0  0  0  0  0  0  0  0  0  0
   20.7792   -5.7155  -15.9975 N   0  0  0  0  0  0  0  0  0  0  0  0
   21.1959   -4.9627  -14.8112 C   0  0  1  0  0  0  0  0  0  0  0  0
   22.6367   -5.1855  -14.5058 C   0  0  0  0  0  0  0  0  0  0  0  0
   22.8936   -6.6115  -14.2426 C   0  0  0  0  0  0  0  0  0  0  0  0
   22.3173   -7.2735  -13.1675 C   0  0  0  0  0  0  0  0  0  0  0  0
   22.5397   -8.6228  -12.9287 C   0  0  0  0  0  0  0  0  0  0  0  0
   23.3630   -9.3455  -13.7849 C   0  0  0  0  0  0  0  0  0  0  0  0
   23.9430   -8.7145  -14.8527 C   0  0  0  0  0  0  0  0  0  0  0  0
   23.7002   -7.3651  -15.0631 C   0  0  0  0  0  0  0  0  0  0  0  0
   20.8576   -3.5605  -15.0673 C   0  0  0  0  0  0  0  0  0  0  0  0
   20.4312   -3.2125  -16.1921 O   0  0  0  0  0  0  0  0  0  0  0  0
   20.9967   -2.5737  -14.0780 O   0  0  0  0  0  0  0  0  0  0  0  0
  2  1  1  0
  3  2  1  0
  4  3  2  0
  5  3  1  0
  6 10  1  0
  6  5  1  0
  6  7  1  1
  8  7  1  0
  9  8  2  0
 10 13  1  0
 11 10  2  0
 12  8  1  0
 13 14  1  0
 14 15  1  6
 14 22  1  0
 15 16  1  0
 16 17  2  0
 17 18  1  0
 19 18  2  0
 20 19  1  0
 21 20  2  0
 21 16  1  0
 22 23  2  0
 22 24  1  0
M  END
$$$$
