GDF.pdb
     RDKit          3D

 24 24  0  0  1  0  0  0  0  0999 V2000
   26.5024  -24.9632  -17.3971 N   0  0  0  0  0  0  0  0  0  0  0  0
   25.5883  -24.8968  -16.2919 C   0  0  0  0  0  0  0  0  0  0  0  0
   25.7483  -23.6567  -15.4912 C   0  0  0  0  0  0  0  0  0  0  0  0
   26.7870  -23.3855  -14.8334 O   0  0  0  0  0  0  0  0  0  0  0  0
   24.6728  -22.7315  -15.4687 N   0  0  0  0  0  0  0  0  0  0  0  0
   24.7113  -21.4682  -14.7977 C   0  0  1  0  0  0  0  0  0  0  0  0
   23.5878  -20.6048  -15.3223 C   0  0  0  0  0  0  0  0  0  0  0  0
   23.6520  -19.2202  -14.8508 C   0  0  0  0  0  0  0  0  0  0  0  0
   23.7026  -19.0188  -13.6062 O   0  0  0  0  0  0  0  0  0  0  0  0
   24.6831  -21.5710  -13.3355 C   0  0  0  0  0  0  0  0  0  0  0  0
   23.8586  -22.3565  -12.8048 O   0  0  0  0  0  0  0  0  0  0  0  0
   23.6614  -18.1039  -15.6503 O   0  0  0  0  0  0  0  0  0  0  0  0
   25.5447  -20.8237  -12.4953 N   0  0  0  0  0  0  0  0  0  0  0  0
   25.8334  -21.2913  -11.1367 C   0  0  1  0  0  0  0  0  0  0  0  0
   27.2488  -21.0213  -10.7593 C   0  0  0  0  0  0  0  0  0  0  0  0
   27.3174  -20.3984   -9.4266 C   0  0  0  0  0  0  0  0  0  0  0  0
   26.8470  -19.1137   -9.1933 C   0  0  0  0  0  0  0  0  0  0  0  0
   26.8900  -18.5314   -7.9339 C   0  0  0  0  0  0  0  0  0  0  0  0
   27.4178  -19.2457   -6.8642 C   0  0  0  0  0  0  0  0  0  0  0  0
   27.8882  -20.5152   -7.0694 C   0  0  0  0  0  0  0  0  0  0  0  0
   27.8306  -21.0680   -8.3402 C   0  0  0  0  0  0  0  0  0  0  0  0
   24.8555  -20.6460  -10.2573 C   0  0  0  0  0  0  0  0  0  0  0  0
   24.6621  -21.0878   -9.1015 O   0  0  0  0  0  0  0  0  0  0  0  0
   24.1129  -19.5285  -10.6713 O   0  0  0  0  0  0  0  0  0  0  0  0
  2  1  1  0
  3  2  1  0
  4  3  2  0
  5  3  1  0
  6 10  1  0
  6  5  1  0
  6  7  1  6
  8  7  1  0
  9  8  2  0
 10 13  1  0
 11 10  2  0
 12  8  1  0
 13 14  1  0
 14 15  1  1
 14 22  1  0
 15 16  1  0
 16 17  2  0
 17 18  1  0
 19 18  2  0
 20 19  1  0
 21 20  2  0
 21 16  1  0
 22 23  2  0
 22 24  1  0
M  END
$$$$
