GDF.pdb
     RDKit          3D

 24 24  0  0  1  0  0  0  0  0999 V2000
   21.8626  -13.2865  -16.4462 N   0  0  0  0  0  0  0  0  0  0  0  0
   20.7395  -12.6410  -17.0654 C   0  0  0  0  0  0  0  0  0  0  0  0
   20.9393  -11.1790  -17.2298 C   0  0  0  0  0  0  0  0  0  0  0  0
   22.0708  -10.6459  -17.3740 O   0  0  0  0  0  0  0  0  0  0  0  0
   19.7935  -10.3422  -17.2236 N   0  0  0  0  0  0  0  0  0  0  0  0
   19.8098   -8.9520  -17.5623 C   0  0  1  0  0  0  0  0  0  0  0  0
   18.5258   -8.6120  -18.2824 C   0  0  0  0  0  0  0  0  0  0  0  0
   18.4081   -9.2549  -19.5925 C   0  0  0  0  0  0  0  0  0  0  0  0
   17.5544  -10.1742  -19.7280 O   0  0  0  0  0  0  0  0  0  0  0  0
   20.0454   -8.0649  -16.4190 C   0  0  0  0  0  0  0  0  0  0  0  0
   19.4169   -8.2802  -15.3526 O   0  0  0  0  0  0  0  0  0  0  0  0
   19.1528   -8.9453  -20.7037 O   0  0  0  0  0  0  0  0  0  0  0  0
   20.9504   -6.9759  -16.4643 N   0  0  0  0  0  0  0  0  0  0  0  0
   21.2208   -6.1947  -15.2542 C   0  0  1  0  0  0  0  0  0  0  0  0
   22.6764   -6.1697  -14.9388 C   0  0  0  0  0  0  0  0  0  0  0  0
   23.1929   -7.5396  -14.7784 C   0  0  0  0  0  0  0  0  0  0  0  0
   24.1750   -8.0545  -15.6129 C   0  0  0  0  0  0  0  0  0  0  0  0
   24.6800   -9.3375  -15.4514 C   0  0  0  0  0  0  0  0  0  0  0  0
   24.1959  -10.1424  -14.4262 C   0  0  0  0  0  0  0  0  0  0  0  0
   23.2268   -9.6566  -13.5897 C   0  0  0  0  0  0  0  0  0  0  0  0
   22.7437   -8.3701  -13.7783 C   0  0  0  0  0  0  0  0  0  0  0  0
   20.6433   -4.8670  -15.4776 C   0  0  0  0  0  0  0  0  0  0  0  0
   20.6110   -4.0311  -14.5457 O   0  0  0  0  0  0  0  0  0  0  0  0
   20.1145   -4.4907  -16.7228 O   0  0  0  0  0  0  0  0  0  0  0  0
  2  1  1  0
  3  2  1  0
  4  3  2  0
  5  3  1  0
  6 10  1  0
  6  5  1  0
  6  7  1  1
  8  7  1  0
  9  8  2  0
 10 13  1  0
 11 10  2  0
 12  8  1  0
 13 14  1  0
 14 15  1  6
 14 22  1  0
 15 16  1  0
 16 17  2  0
 17 18  1  0
 19 18  2  0
 20 19  1  0
 21 20  2  0
 21 16  1  0
 22 23  2  0
 22 24  1  0
M  END
$$$$
