TNV.pdb
     RDKit          3D

 23 22  0  0  1  0  0  0  0  0999 V2000
   23.4454  -16.2153  -19.5923 C   0  0  0  0  0  0  0  0  0  0  0  0
   21.9336  -16.2041  -19.5525 C   0  0  1  0  0  0  0  0  0  0  0  0
   21.4195  -17.4904  -19.6238 O   0  0  0  0  0  0  0  0  0  0  0  0
   21.4225  -15.4478  -18.3414 C   0  0  2  0  0  0  0  0  0  0  0  0
   20.0548  -15.8310  -18.0551 N   0  0  0  0  0  0  0  0  0  0  0  0
   21.4744  -13.9802  -18.5099 C   0  0  0  0  0  0  0  0  0  0  0  0
   22.3514  -13.4536  -19.2558 O   0  0  0  0  0  0  0  0  0  0  0  0
   18.9001   -8.9727  -19.1780 N   0  0  0  0  0  0  0  0  0  0  0  0
   19.0780   -9.7157  -17.9377 C   0  0  0  0  0  0  0  0  0  0  0  0
   19.0188   -9.0274  -16.9229 O   0  0  0  0  0  0  0  0  0  0  0  0
   19.2998  -11.1400  -18.0058 C   0  0  0  0  0  0  0  0  0  0  0  0
   20.7204  -11.6040  -18.0389 C   0  0  2  0  0  0  0  0  0  0  0  0
   20.5825  -13.0936  -17.8745 N   0  0  0  0  0  0  0  0  0  0  0  0
   21.5255  -11.1884  -16.8934 C   0  0  0  0  0  0  0  0  0  0  0  0
   21.3653  -11.8063  -15.7775 O   0  0  0  0  0  0  0  0  0  0  0  0
   24.9026  -11.5928  -16.2593 C   0  0  0  0  0  0  0  0  0  0  0  0
   24.6888  -10.1613  -15.8497 C   0  0  2  0  0  0  0  0  0  0  0  0
   25.5694   -9.7124  -14.7318 C   0  0  0  0  0  0  0  0  0  0  0  0
   23.2144   -9.8662  -15.5943 C   0  0  2  0  0  0  0  0  0  0  0  0
   22.4996  -10.1706  -16.8254 N   0  0  0  0  0  0  0  0  0  0  0  0
   22.9930   -8.5107  -15.1181 C   0  0  0  0  0  0  0  0  0  0  0  0
   22.8972   -8.2488  -13.7685 O   0  0  0  0  0  0  0  0  0  0  0  0
   22.8830   -7.5466  -15.9040 O   0  0  0  0  0  0  0  0  0  0  0  0
  2  1  1  1
  3  2  1  0
  4  2  1  0
  4  6  1  0
  4  5  1  6
  6  7  2  0
  8  9  1  0
  9 11  1  0
 10  9  2  0
 12 11  1  1
 12 14  1  0
 13 12  1  0
 13  6  1  0
 14 20  1  0
 14 15  2  0
 17 16  1  1
 17 19  1  0
 18 17  1  0
 19 21  1  0
 19 20  1  6
 21 23  2  0
 21 22  1  0
M  END
$$$$
