TNV.pdb
     RDKit          3D

 23 22  0  0  1  0  0  0  0  0999 V2000
   12.6364  -12.6240  -14.6669 C   0  0  0  0  0  0  0  0  0  0  0  0
   13.7800  -12.0965  -13.8294 C   0  0  1  0  0  0  0  0  0  0  0  0
   14.9969  -12.5969  -14.2684 O   0  0  0  0  0  0  0  0  0  0  0  0
   13.7676  -10.5809  -13.7769 C   0  0  2  0  0  0  0  0  0  0  0  0
   14.0053  -10.0345  -15.0977 N   0  0  0  0  0  0  0  0  0  0  0  0
   14.7752  -10.0245  -12.8495 C   0  0  0  0  0  0  0  0  0  0  0  0
   14.8223  -10.4177  -11.6469 O   0  0  0  0  0  0  0  0  0  0  0  0
   18.6656  -10.4587  -13.0795 N   0  0  0  0  0  0  0  0  0  0  0  0
   18.8281   -9.0881  -13.5455 C   0  0  0  0  0  0  0  0  0  0  0  0
   19.8111   -8.9096  -14.2590 O   0  0  0  0  0  0  0  0  0  0  0  0
   17.8584   -8.0975  -13.1445 C   0  0  0  0  0  0  0  0  0  0  0  0
   16.7535   -8.5547  -12.2475 C   0  0  2  0  0  0  0  0  0  0  0  0
   15.7222   -9.0510  -13.2247 N   0  0  0  0  0  0  0  0  0  0  0  0
   16.0752   -7.4851  -11.5202 C   0  0  0  0  0  0  0  0  0  0  0  0
   15.4241   -6.6051  -12.1945 O   0  0  0  0  0  0  0  0  0  0  0  0
   13.5295   -5.4858   -7.9637 C   0  0  0  0  0  0  0  0  0  0  0  0
   14.3335   -6.6116   -8.5545 C   0  0  2  0  0  0  0  0  0  0  0  0
   14.9235   -7.5331   -7.5398 C   0  0  0  0  0  0  0  0  0  0  0  0
   15.3637   -6.0988   -9.5555 C   0  0  2  0  0  0  0  0  0  0  0  0
   16.0189   -7.2658  -10.1280 N   0  0  0  0  0  0  0  0  0  0  0  0
   16.2907   -5.1491   -8.9623 C   0  0  0  0  0  0  0  0  0  0  0  0
   15.9421   -3.8231   -8.8230 O   0  0  0  0  0  0  0  0  0  0  0  0
   17.4217   -5.4953   -8.5623 O   0  0  0  0  0  0  0  0  0  0  0  0
  2  1  1  6
  3  2  1  0
  4  2  1  0
  4  6  1  0
  4  5  1  6
  6  7  2  0
  8  9  1  0
  9 11  1  0
 10  9  2  0
 12 11  1  6
 12 14  1  0
 13 12  1  0
 13  6  1  0
 14 20  1  0
 14 15  2  0
 17 16  1  1
 17 19  1  0
 18 17  1  0
 19 21  1  0
 19 20  1  1
 21 23  2  0
 21 22  1  0
M  END
$$$$
