TNV.pdb
     RDKit          3D

 23 22  0  0  1  0  0  0  0  0999 V2000
   16.2266  -15.7657  -16.8279 C   0  0  0  0  0  0  0  0  0  0  0  0
   17.4640  -14.9562  -16.5107 C   0  0  1  0  0  0  0  0  0  0  0  0
   18.5600  -15.4113  -17.2287 O   0  0  0  0  0  0  0  0  0  0  0  0
   17.2175  -13.4741  -16.7171 C   0  0  2  0  0  0  0  0  0  0  0  0
   16.9119  -13.2087  -18.1084 N   0  0  0  0  0  0  0  0  0  0  0  0
   18.3669  -12.6341  -16.3194 C   0  0  0  0  0  0  0  0  0  0  0  0
   18.8038  -12.6703  -15.1317 O   0  0  0  0  0  0  0  0  0  0  0  0
   22.6882   -9.3408  -19.1992 N   0  0  0  0  0  0  0  0  0  0  0  0
   22.0902   -9.8125  -17.9574 C   0  0  0  0  0  0  0  0  0  0  0  0
   22.6447   -9.4031  -16.9415 O   0  0  0  0  0  0  0  0  0  0  0  0
   20.9433  -10.6856  -18.0254 C   0  0  0  0  0  0  0  0  0  0  0  0
   20.2163  -10.9507  -16.7464 C   0  0  2  0  0  0  0  0  0  0  0  0
   19.0351  -11.7637  -17.2032 N   0  0  0  0  0  0  0  0  0  0  0  0
   19.6222   -9.7698  -16.1256 C   0  0  0  0  0  0  0  0  0  0  0  0
   18.6501   -9.1851  -16.7305 O   0  0  0  0  0  0  0  0  0  0  0  0
   17.8251   -7.0924  -12.6159 C   0  0  0  0  0  0  0  0  0  0  0  0
   18.5516   -8.2855  -13.1741 C   0  0  2  0  0  0  0  0  0  0  0  0
   19.3979   -9.0020  -12.1755 C   0  0  0  0  0  0  0  0  0  0  0  0
   19.3129   -7.9322  -14.4475 C   0  0  2  0  0  0  0  0  0  0  0  0
   19.9651   -9.1503  -14.9057 N   0  0  0  0  0  0  0  0  0  0  0  0
   20.2317   -6.8221  -14.2562 C   0  0  0  0  0  0  0  0  0  0  0  0
   21.5853   -7.0468  -14.1275 O   0  0  0  0  0  0  0  0  0  0  0  0
   19.8336   -5.6398  -14.2025 O   0  0  0  0  0  0  0  0  0  0  0  0
  2  1  1  6
  3  2  1  0
  4  2  1  0
  4  6  1  0
  4  5  1  6
  6  7  2  0
  8  9  1  0
  9 11  1  0
 10  9  2  0
 12 11  1  6
 12 14  1  0
 13 12  1  0
 13  6  1  0
 14 20  1  0
 14 15  2  0
 17 16  1  1
 17 19  1  0
 18 17  1  0
 19 21  1  0
 19 20  1  1
 21 23  2  0
 21 22  1  0
M  END
$$$$
