TNV.pdb
     RDKit          3D

 23 22  0  0  1  0  0  0  0  0999 V2000
   15.1198  -10.6266  -16.8089 C   0  0  0  0  0  0  0  0  0  0  0  0
   15.6542  -10.1410  -15.4801 C   0  0  1  0  0  0  0  0  0  0  0  0
   14.7818  -10.4460  -14.4458 O   0  0  0  0  0  0  0  0  0  0  0  0
   17.0531  -10.6686  -15.2258 C   0  0  2  0  0  0  0  0  0  0  0  0
   17.0506  -12.1175  -15.2460 N   0  0  0  0  0  0  0  0  0  0  0  0
   17.6178  -10.2171  -13.9366 C   0  0  0  0  0  0  0  0  0  0  0  0
   17.7812  -11.0395  -12.9879 O   0  0  0  0  0  0  0  0  0  0  0  0
   21.3508   -6.1171  -11.7699 N   0  0  0  0  0  0  0  0  0  0  0  0
   20.6421   -7.3738  -11.5685 C   0  0  0  0  0  0  0  0  0  0  0  0
   20.7754   -7.8555  -10.4472 O   0  0  0  0  0  0  0  0  0  0  0  0
   19.8750   -7.9225  -12.6606 C   0  0  0  0  0  0  0  0  0  0  0  0
   18.5258   -8.4754  -12.3309 C   0  0  2  0  0  0  0  0  0  0  0  0
   18.0011   -8.8857  -13.6804 N   0  0  0  0  0  0  0  0  0  0  0  0
   17.5610   -7.4879  -11.8544 C   0  0  0  0  0  0  0  0  0  0  0  0
   17.1951   -6.5537  -12.6583 O   0  0  0  0  0  0  0  0  0  0  0  0
   15.1190   -7.5184   -8.2866 C   0  0  0  0  0  0  0  0  0  0  0  0
   14.8439   -6.8132   -9.5866 C   0  0  2  0  0  0  0  0  0  0  0  0
   14.0344   -7.6137  -10.5513 C   0  0  0  0  0  0  0  0  0  0  0  0
   16.1237   -6.2611  -10.2060 C   0  0  2  0  0  0  0  0  0  0  0  0
   16.9378   -7.4045  -10.5918 N   0  0  0  0  0  0  0  0  0  0  0  0
   16.8126   -5.3329   -9.3245 C   0  0  0  0  0  0  0  0  0  0  0  0
   16.3518   -4.0438   -9.1659 O   0  0  0  0  0  0  0  0  0  0  0  0
   17.8335   -5.6651   -8.6869 O   0  0  0  0  0  0  0  0  0  0  0  0
  2  1  1  6
  3  2  1  0
  4  2  1  0
  4  6  1  0
  4  5  1  1
  6  7  2  0
  8  9  1  0
  9 11  1  0
 10  9  2  0
 12 11  1  6
 12 14  1  0
 13 12  1  0
 13  6  1  0
 14 20  1  0
 14 15  2  0
 17 16  1  1
 17 19  1  0
 18 17  1  0
 19 21  1  0
 19 20  1  1
 21 23  2  0
 21 22  1  0
M  END
$$$$
