TNV.pdb
     RDKit          3D

 23 22  0  0  1  0  0  0  0  0999 V2000
   28.5903  -18.1738  -17.1988 C   0  0  0  0  0  0  0  0  0  0  0  0
   27.5556  -18.8508  -16.3280 C   0  0  1  0  0  0  0  0  0  0  0  0
   26.4116  -19.1549  -17.0509 O   0  0  0  0  0  0  0  0  0  0  0  0
   28.1356  -20.0671  -15.6321 C   0  0  2  0  0  0  0  0  0  0  0  0
   28.4639  -21.0888  -16.6058 N   0  0  0  0  0  0  0  0  0  0  0  0
   27.2220  -20.6510  -14.6275 C   0  0  0  0  0  0  0  0  0  0  0  0
   26.5614  -21.6970  -14.8965 O   0  0  0  0  0  0  0  0  0  0  0  0
   24.8747  -21.6721   -9.9775 N   0  0  0  0  0  0  0  0  0  0  0  0
   25.9498  -20.6973   -9.8507 C   0  0  0  0  0  0  0  0  0  0  0  0
   26.2262  -20.3969   -8.6929 O   0  0  0  0  0  0  0  0  0  0  0  0
   26.5726  -20.1889  -11.0490 C   0  0  0  0  0  0  0  0  0  0  0  0
   26.1115  -20.7645  -12.3493 C   0  0  2  0  0  0  0  0  0  0  0  0
   27.0282  -20.1042  -13.3435 N   0  0  0  0  0  0  0  0  0  0  0  0
   24.7736  -20.3482  -12.7612 C   0  0  0  0  0  0  0  0  0  0  0  0
   24.5676  -19.1016  -12.9990 O   0  0  0  0  0  0  0  0  0  0  0  0
   21.8454  -22.5184  -14.8082 C   0  0  0  0  0  0  0  0  0  0  0  0
   22.0301  -21.0272  -14.7381 C   0  0  2  0  0  0  0  0  0  0  0  0
   22.9943  -20.4877  -15.7412 C   0  0  0  0  0  0  0  0  0  0  0  0
   22.3382  -20.5673  -13.3169 C   0  0  2  0  0  0  0  0  0  0  0  0
   23.6243  -21.1433  -12.9521 N   0  0  0  0  0  0  0  0  0  0  0  0
   21.2731  -20.8949  -12.3833 C   0  0  0  0  0  0  0  0  0  0  0  0
   20.1141  -20.1499  -12.3528 O   0  0  0  0  0  0  0  0  0  0  0  0
   21.3679  -21.8506  -11.5854 O   0  0  0  0  0  0  0  0  0  0  0  0
  2  1  1  6
  3  2  1  0
  4  2  1  0
  4  6  1  0
  4  5  1  6
  6  7  2  0
  8  9  1  0
  9 11  1  0
 10  9  2  0
 12 11  1  1
 12 14  1  0
 13 12  1  0
 13  6  1  0
 14 20  1  0
 14 15  2  0
 17 16  1  1
 17 19  1  0
 18 17  1  0
 19 21  1  0
 19 20  1  1
 21 23  2  0
 21 22  1  0
M  END
$$$$
