TNV.pdb
     RDKit          3D

 23 22  0  0  1  0  0  0  0  0999 V2000
   19.9933   -9.9150  -15.4022 C   0  0  0  0  0  0  0  0  0  0  0  0
   18.6391  -10.5293  -15.6781 C   0  0  1  0  0  0  0  0  0  0  0  0
   18.7647  -11.7853  -16.2531 O   0  0  0  0  0  0  0  0  0  0  0  0
   17.7829  -10.5538  -14.4265 C   0  0  2  0  0  0  0  0  0  0  0  0
   16.4822  -11.1190  -14.7235 N   0  0  0  0  0  0  0  0  0  0  0  0
   17.5890   -9.2152  -13.8303 C   0  0  0  0  0  0  0  0  0  0  0  0
   16.7838   -8.3921  -14.3567 O   0  0  0  0  0  0  0  0  0  0  0  0
   18.1597   -5.0662  -10.5384 N   0  0  0  0  0  0  0  0  0  0  0  0
   17.8823   -6.3502   -9.9088 C   0  0  0  0  0  0  0  0  0  0  0  0
   17.6936   -6.2892   -8.6973 O   0  0  0  0  0  0  0  0  0  0  0  0
   17.8542   -7.5362  -10.7304 C   0  0  0  0  0  0  0  0  0  0  0  0
   18.1274   -7.3569  -12.1892 C   0  0  2  0  0  0  0  0  0  0  0  0
   18.2630   -8.7752  -12.6738 N   0  0  0  0  0  0  0  0  0  0  0  0
   19.4174   -6.7458  -12.4983 C   0  0  0  0  0  0  0  0  0  0  0  0
   20.4832   -7.3097  -12.0524 O   0  0  0  0  0  0  0  0  0  0  0  0
   22.9384   -5.4319  -15.0993 C   0  0  0  0  0  0  0  0  0  0  0  0
   21.4982   -5.7518  -14.8057 C   0  0  2  0  0  0  0  0  0  0  0  0
   20.5713   -5.4729  -15.9413 C   0  0  0  0  0  0  0  0  0  0  0  0
   21.0383   -5.1148  -13.4984 C   0  0  2  0  0  0  0  0  0  0  0  0
   19.6823   -5.5826  -13.2506 N   0  0  0  0  0  0  0  0  0  0  0  0
   21.1555   -3.6659  -13.5145 C   0  0  0  0  0  0  0  0  0  0  0  0
   22.3817   -3.0600  -13.3460 O   0  0  0  0  0  0  0  0  0  0  0  0
   20.1626   -2.9270  -13.6796 O   0  0  0  0  0  0  0  0  0  0  0  0
  2  1  1  1
  3  2  1  0
  4  2  1  0
  4  6  1  0
  4  5  1  6
  6  7  2  0
  8  9  1  0
  9 11  1  0
 10  9  2  0
 12 11  1  1
 12 14  1  0
 13 12  1  0
 13  6  1  0
 14 20  1  0
 14 15  2  0
 17 16  1  6
 17 19  1  0
 18 17  1  0
 19 21  1  0
 19 20  1  6
 21 23  2  0
 21 22  1  0
M  END
$$$$
