YCL.pdb
     RDKit          3D

 27 27  0  0  1  0  0  0  0  0999 V2000
    8.9968  -11.8535   20.2405 O   0  0  0  0  0  0  0  0  0  0  0  0
    8.2660  -13.0168   20.0753 C   0  0  0  0  0  0  0  0  0  0  0  0
    7.1282  -13.2587   20.8019 C   0  0  0  0  0  0  0  0  0  0  0  0
    6.4312  -14.4247   20.6089 C   0  0  0  0  0  0  0  0  0  0  0  0
    6.8408  -15.3784   19.6946 C   0  0  0  0  0  0  0  0  0  0  0  0
    6.0917  -16.6509   19.4752 C   0  0  0  0  0  0  0  0  0  0  0  0
    6.7756  -17.7305   20.2837 C   0  0  2  0  0  0  0  0  0  0  0  0
    6.1457  -18.9985   19.8859 N   0  0  0  0  0  0  0  0  0  0  0  0
    6.4961  -17.5448   21.7174 C   0  0  0  0  0  0  0  0  0  0  0  0
    5.3339  -17.7052   22.2227 O   0  0  0  0  0  0  0  0  0  0  0  0
    7.9776  -15.1501   18.9601 C   0  0  0  0  0  0  0  0  0  0  0  0
    8.6687  -13.9704   19.1664 C   0  0  0  0  0  0  0  0  0  0  0  0
    7.5168  -17.1716   22.6334 N   0  0  0  0  0  0  0  0  0  0  0  0
    7.2799  -17.0060   24.0446 C   0  0  1  0  0  0  0  0  0  0  0  0
    7.2488  -18.3265   24.7781 C   0  0  0  0  0  0  0  0  0  0  0  0
    8.8656  -19.1303   24.6651 S   0  0  0  0  0  0  0  0  0  0  0  0
    8.2522  -16.0621   24.6413 C   0  0  0  0  0  0  0  0  0  0  0  0
    9.4241  -16.0720   24.1877 O   0  0  0  0  0  0  0  0  0  0  0  0
    6.5129  -11.4172   26.6236 C   0  0  0  0  0  0  0  0  0  0  0  0
    7.2660  -12.5853   25.9938 C   0  0  1  0  0  0  0  0  0  0  0  0
    7.8416  -12.0072   24.6916 C   0  0  0  0  0  0  0  0  0  0  0  0
    8.3561  -13.0829   26.8830 C   0  0  0  0  0  0  0  0  0  0  0  0
    8.9683  -14.3272   26.3543 C   0  0  2  0  0  0  0  0  0  0  0  0
    7.9487  -15.1614   25.6767 N   0  0  0  0  0  0  0  0  0  0  0  0
    9.6242  -15.0916   27.4137 C   0  0  0  0  0  0  0  0  0  0  0  0
   10.7761  -14.5332   28.0165 O   0  0  0  0  0  0  0  0  0  0  0  0
    9.2758  -16.2015   27.8540 O   0  0  0  0  0  0  0  0  0  0  0  0
  2  3  2  0
  2  1  1  0
  4  3  1  0
  5 11  1  0
  5  4  2  0
  6  5  1  0
  7  9  1  0
  7  6  1  0
  7  8  1  6
  9 10  2  0
 11 12  2  0
 12  2  1  0
 13 14  1  0
 13  9  1  0
 14 15  1  1
 15 16  1  0
 17 24  1  0
 17 14  1  0
 18 17  2  0
 20 19  1  1
 21 20  1  0
 23 22  1  1
 22 20  1  0
 23 24  1  0
 25 23  1  0
 25 26  1  0
 27 25  2  0
M  END
$$$$
