YCL.pdb
     RDKit          3D

 27 27  0  0  1  0  0  0  0  0999 V2000
    8.6117  -12.3893   17.0987 O   0  0  0  0  0  0  0  0  0  0  0  0
    8.1716  -12.9543   18.2827 C   0  0  0  0  0  0  0  0  0  0  0  0
    6.8456  -13.2329   18.4955 C   0  0  0  0  0  0  0  0  0  0  0  0
    6.4489  -13.7934   19.6834 C   0  0  0  0  0  0  0  0  0  0  0  0
    7.3513  -14.0918   20.6882 C   0  0  0  0  0  0  0  0  0  0  0  0
    6.9327  -14.7015   21.9851 C   0  0  0  0  0  0  0  0  0  0  0  0
    7.1428  -16.1952   21.8781 C   0  0  2  0  0  0  0  0  0  0  0  0
    5.9834  -16.7180   21.1396 N   0  0  0  0  0  0  0  0  0  0  0  0
    7.1107  -16.8093   23.2160 C   0  0  0  0  0  0  0  0  0  0  0  0
    6.0390  -16.9174   23.9027 O   0  0  0  0  0  0  0  0  0  0  0  0
    8.6817  -13.8185   20.4897 C   0  0  0  0  0  0  0  0  0  0  0  0
    9.0653  -13.2537   19.2873 C   0  0  0  0  0  0  0  0  0  0  0  0
    8.2857  -17.3239   23.8282 N   0  0  0  0  0  0  0  0  0  0  0  0
    8.2969  -17.8795   25.1572 C   0  0  1  0  0  0  0  0  0  0  0  0
    8.2103  -19.3878   25.1472 C   0  0  0  0  0  0  0  0  0  0  0  0
    8.5061  -20.0313   26.8120 S   0  0  0  0  0  0  0  0  0  0  0  0
    9.4650  -17.3954   25.9277 C   0  0  0  0  0  0  0  0  0  0  0  0
   10.5931  -17.4685   25.3788 O   0  0  0  0  0  0  0  0  0  0  0  0
    8.7272  -13.2671   29.1419 C   0  0  0  0  0  0  0  0  0  0  0  0
    9.1961  -14.3739   28.2021 C   0  0  1  0  0  0  0  0  0  0  0  0
    9.7813  -13.6239   26.9954 C   0  0  0  0  0  0  0  0  0  0  0  0
   10.2284  -15.2407   28.8420 C   0  0  0  0  0  0  0  0  0  0  0  0
   10.5778  -16.4000   27.9837 C   0  0  2  0  0  0  0  0  0  0  0  0
    9.3919  -16.8626   27.2262 N   0  0  0  0  0  0  0  0  0  0  0  0
   11.1350  -17.4985   28.7710 C   0  0  0  0  0  0  0  0  0  0  0  0
   12.3733  -17.2851   29.4213 O   0  0  0  0  0  0  0  0  0  0  0  0
   10.6316  -18.6239   28.9367 O   0  0  0  0  0  0  0  0  0  0  0  0
  2  3  2  0
  2  1  1  0
  4  3  1  0
  5 11  1  0
  5  4  2  0
  6  5  1  0
  7  9  1  0
  7  6  1  0
  7  8  1  6
  9 10  2  0
 11 12  2  0
 12  2  1  0
 13 14  1  0
 13  9  1  0
 14 15  1  6
 15 16  1  0
 17 24  1  0
 17 14  1  0
 18 17  2  0
 20 19  1  1
 21 20  1  0
 23 22  1  1
 22 20  1  0
 23 24  1  0
 25 23  1  0
 25 26  1  0
 27 25  2  0
M  END
$$$$
