YCL.pdb
     RDKit          3D

 27 27  0  0  1  0  0  0  0  0999 V2000
    7.7915  -19.9672   28.8306 O   0  0  0  0  0  0  0  0  0  0  0  0
    7.2458  -19.7987   27.5702 C   0  0  0  0  0  0  0  0  0  0  0  0
    6.8725  -18.5621   27.1094 C   0  0  0  0  0  0  0  0  0  0  0  0
    6.3349  -18.4365   25.8532 C   0  0  0  0  0  0  0  0  0  0  0  0
    6.1534  -19.5280   25.0234 C   0  0  0  0  0  0  0  0  0  0  0  0
    5.5695  -19.4050   23.6549 C   0  0  0  0  0  0  0  0  0  0  0  0
    6.7079  -19.4827   22.6624 C   0  0  2  0  0  0  0  0  0  0  0  0
    7.4909  -20.6713   23.0324 N   0  0  0  0  0  0  0  0  0  0  0  0
    7.5967  -18.3190   22.8175 C   0  0  0  0  0  0  0  0  0  0  0  0
    8.7845  -18.4116   23.2782 O   0  0  0  0  0  0  0  0  0  0  0  0
    6.5222  -20.7720   25.4709 C   0  0  0  0  0  0  0  0  0  0  0  0
    7.0624  -20.8818   26.7390 C   0  0  0  0  0  0  0  0  0  0  0  0
    7.1786  -17.0088   22.4587 N   0  0  0  0  0  0  0  0  0  0  0  0
    8.0033  -15.8436   22.6516 C   0  0  1  0  0  0  0  0  0  0  0  0
    7.6049  -14.7043   21.7428 C   0  0  0  0  0  0  0  0  0  0  0  0
    5.8057  -14.5152   21.7469 S   0  0  0  0  0  0  0  0  0  0  0  0
    8.0263  -15.4364   24.0751 C   0  0  0  0  0  0  0  0  0  0  0  0
    7.1019  -15.8581   24.8145 O   0  0  0  0  0  0  0  0  0  0  0  0
    5.6131  -13.0833   26.6482 C   0  0  0  0  0  0  0  0  0  0  0  0
    7.0158  -13.1920   26.0574 C   0  0  1  0  0  0  0  0  0  0  0  0
    7.6277  -11.7994   26.2752 C   0  0  0  0  0  0  0  0  0  0  0  0
    7.8239  -14.2419   26.7438 C   0  0  0  0  0  0  0  0  0  0  0  0
    9.1543  -14.4111   26.1081 C   0  0  2  0  0  0  0  0  0  0  0  0
    9.0111  -14.6130   24.6476 N   0  0  0  0  0  0  0  0  0  0  0  0
    9.8924  -15.5241   26.7024 C   0  0  0  0  0  0  0  0  0  0  0  0
   10.3998  -16.5201   25.8349 O   0  0  0  0  0  0  0  0  0  0  0  0
   10.1294  -15.6974   27.9112 O   0  0  0  0  0  0  0  0  0  0  0  0
  2  3  2  0
  2  1  1  0
  4  3  1  0
  5 11  1  0
  5  4  2  0
  6  5  1  0
  7  9  1  0
  7  6  1  0
  7  8  1  1
  9 10  2  0
 11 12  2  0
 12  2  1  0
 13 14  1  0
 13  9  1  0
 14 15  1  6
 15 16  1  0
 17 24  1  0
 17 14  1  0
 18 17  2  0
 20 19  1  1
 21 20  1  0
 23 22  1  1
 22 20  1  0
 23 24  1  0
 25 23  1  0
 25 26  1  0
 27 25  2  0
M  END
$$$$
