YCL.pdb
     RDKit          3D

 27 27  0  0  1  0  0  0  0  0999 V2000
    8.7871  -21.6215   29.1811 O   0  0  0  0  0  0  0  0  0  0  0  0
    8.1164  -20.7926   28.2992 C   0  0  0  0  0  0  0  0  0  0  0  0
    7.3205  -21.2984   27.3033 C   0  0  0  0  0  0  0  0  0  0  0  0
    6.6719  -20.4431   26.4486 C   0  0  0  0  0  0  0  0  0  0  0  0
    6.7937  -19.0697   26.5571 C   0  0  0  0  0  0  0  0  0  0  0  0
    6.0935  -18.1284   25.6337 C   0  0  0  0  0  0  0  0  0  0  0  0
    6.2975  -18.6338   24.2231 C   0  0  2  0  0  0  0  0  0  0  0  0
    6.6529  -20.0555   24.3469 N   0  0  0  0  0  0  0  0  0  0  0  0
    7.4488  -17.9570   23.6030 C   0  0  0  0  0  0  0  0  0  0  0  0
    8.5456  -18.5570   23.3405 O   0  0  0  0  0  0  0  0  0  0  0  0
    7.5868  -18.5489   27.5489 C   0  0  0  0  0  0  0  0  0  0  0  0
    8.2336  -19.4239   28.4020 C   0  0  0  0  0  0  0  0  0  0  0  0
    7.4053  -16.5793   23.2563 N   0  0  0  0  0  0  0  0  0  0  0  0
    8.5128  -15.8907   22.6446 C   0  0  1  0  0  0  0  0  0  0  0  0
    8.1076  -14.5536   22.0695 C   0  0  0  0  0  0  0  0  0  0  0  0
    6.3516  -14.5784   21.6352 S   0  0  0  0  0  0  0  0  0  0  0  0
    9.6500  -15.7689   23.5851 C   0  0  0  0  0  0  0  0  0  0  0  0
   10.4774  -14.8458   23.3790 O   0  0  0  0  0  0  0  0  0  0  0  0
   10.5645  -13.7733   27.9647 C   0  0  0  0  0  0  0  0  0  0  0  0
    9.3989  -14.7576   27.9354 C   0  0  1  0  0  0  0  0  0  0  0  0
    8.2128  -13.9572   28.4956 C   0  0  0  0  0  0  0  0  0  0  0  0
    9.1133  -15.2336   26.5504 C   0  0  0  0  0  0  0  0  0  0  0  0
   10.1909  -16.1192   26.0431 C   0  0  2  0  0  0  0  0  0  0  0  0
    9.8609  -16.6156   24.6869 N   0  0  0  0  0  0  0  0  0  0  0  0
   10.4299  -17.2418   26.9482 C   0  0  0  0  0  0  0  0  0  0  0  0
   11.3125  -17.0392   28.0353 O   0  0  0  0  0  0  0  0  0  0  0  0
    9.9336  -18.3797   26.8680 O   0  0  0  0  0  0  0  0  0  0  0  0
  2  3  2  0
  2  1  1  0
  4  3  1  0
  5 11  1  0
  5  4  2  0
  6  5  1  0
  7  9  1  0
  7  6  1  0
  7  8  1  1
  9 10  2  0
 11 12  2  0
 12  2  1  0
 13 14  1  0
 13  9  1  0
 14 15  1  1
 15 16  1  0
 17 24  1  0
 17 14  1  0
 18 17  2  0
 20 19  1  6
 21 20  1  0
 23 22  1  1
 22 20  1  0
 23 24  1  0
 25 23  1  0
 25 26  1  0
 27 25  2  0
M  END
$$$$
