YCL.pdb
     RDKit          3D

 27 27  0  0  1  0  0  0  0  0999 V2000
   16.4978  -20.7597   19.7204 O   0  0  0  0  0  0  0  0  0  0  0  0
   15.5289  -19.8683   20.1461 C   0  0  0  0  0  0  0  0  0  0  0  0
   14.6423  -20.1932   21.1409 C   0  0  0  0  0  0  0  0  0  0  0  0
   13.6957  -19.2813   21.5350 C   0  0  0  0  0  0  0  0  0  0  0  0
   13.6025  -18.0284   20.9567 C   0  0  0  0  0  0  0  0  0  0  0  0
   12.5774  -17.0273   21.3762 C   0  0  0  0  0  0  0  0  0  0  0  0
   11.2191  -17.6783   21.2411 C   0  0  2  0  0  0  0  0  0  0  0  0
   10.6059  -17.0959   20.0379 N   0  0  0  0  0  0  0  0  0  0  0  0
   10.3631  -17.3075   22.3803 C   0  0  0  0  0  0  0  0  0  0  0  0
    9.7659  -16.1810   22.4598 O   0  0  0  0  0  0  0  0  0  0  0  0
   14.4830  -17.6890   19.9600 C   0  0  0  0  0  0  0  0  0  0  0  0
   15.4308  -18.6189   19.5743 C   0  0  0  0  0  0  0  0  0  0  0  0
   10.1492  -18.1932   23.4711 N   0  0  0  0  0  0  0  0  0  0  0  0
    9.2924  -17.8722   24.5837 C   0  0  1  0  0  0  0  0  0  0  0  0
    8.0962  -18.7913   24.6681 C   0  0  0  0  0  0  0  0  0  0  0  0
    7.0522  -18.3143   26.0665 S   0  0  0  0  0  0  0  0  0  0  0  0
   10.0559  -17.8368   25.8519 C   0  0  0  0  0  0  0  0  0  0  0  0
   10.9022  -18.7454   26.0454 O   0  0  0  0  0  0  0  0  0  0  0  0
    9.0588  -13.5425   29.1367 C   0  0  0  0  0  0  0  0  0  0  0  0
    9.7039  -14.5944   28.2392 C   0  0  1  0  0  0  0  0  0  0  0  0
   10.9000  -13.8685   27.6039 C   0  0  0  0  0  0  0  0  0  0  0  0
   10.1558  -15.7834   29.0192 C   0  0  0  0  0  0  0  0  0  0  0  0
   10.6338  -16.8715   28.1303 C   0  0  2  0  0  0  0  0  0  0  0  0
    9.8947  -16.8570   26.8465 N   0  0  0  0  0  0  0  0  0  0  0  0
   10.5077  -18.1791   28.7715 C   0  0  0  0  0  0  0  0  0  0  0  0
    9.5743  -19.0944   28.2303 O   0  0  0  0  0  0  0  0  0  0  0  0
   11.1427  -18.5858   29.7608 O   0  0  0  0  0  0  0  0  0  0  0  0
  2  3  2  0
  2  1  1  0
  4  3  1  0
  5 11  1  0
  5  4  2  0
  6  5  1  0
  7  9  1  0
  7  6  1  0
  7  8  1  6
  9 10  2  0
 11 12  2  0
 12  2  1  0
 13 14  1  0
 13  9  1  0
 14 15  1  1
 15 16  1  0
 17 24  1  0
 17 14  1  0
 18 17  2  0
 20 19  1  1
 21 20  1  0
 23 22  1  1
 22 20  1  0
 23 24  1  0
 25 23  1  0
 25 26  1  0
 27 25  2  0
M  END
$$$$
