YCL.pdb
     RDKit          3D

 27 27  0  0  1  0  0  0  0  0999 V2000
   14.7312  -19.9533   16.0565 O   0  0  0  0  0  0  0  0  0  0  0  0
   14.0821  -19.3379   17.1122 C   0  0  0  0  0  0  0  0  0  0  0  0
   14.6601  -19.2420   18.3523 C   0  0  0  0  0  0  0  0  0  0  0  0
   13.9837  -18.6240   19.3737 C   0  0  0  0  0  0  0  0  0  0  0  0
   12.7219  -18.0865   19.1948 C   0  0  0  0  0  0  0  0  0  0  0  0
   11.9754  -17.4118   20.2977 C   0  0  0  0  0  0  0  0  0  0  0  0
   11.9671  -18.3482   21.4852 C   0  0  2  0  0  0  0  0  0  0  0  0
   11.2054  -19.5337   21.0641 N   0  0  0  0  0  0  0  0  0  0  0  0
   11.2292  -17.7407   22.6053 C   0  0  0  0  0  0  0  0  0  0  0  0
   11.5698  -16.6307   23.1379 O   0  0  0  0  0  0  0  0  0  0  0  0
   12.1307  -18.1749   17.9593 C   0  0  0  0  0  0  0  0  0  0  0  0
   12.8253  -18.8006   16.9405 C   0  0  0  0  0  0  0  0  0  0  0  0
   10.0805  -18.3627   23.1655 N   0  0  0  0  0  0  0  0  0  0  0  0
    9.3855  -17.8355   24.3119 C   0  0  1  0  0  0  0  0  0  0  0  0
    8.0923  -18.5681   24.5833 C   0  0  0  0  0  0  0  0  0  0  0  0
    7.2491  -17.8220   25.9994 S   0  0  0  0  0  0  0  0  0  0  0  0
   10.2664  -17.8045   25.5017 C   0  0  0  0  0  0  0  0  0  0  0  0
   11.1368  -18.7051   25.6031 O   0  0  0  0  0  0  0  0  0  0  0  0
   10.3668  -13.2861   29.0220 C   0  0  0  0  0  0  0  0  0  0  0  0
   10.1155  -14.6591   28.4057 C   0  0  1  0  0  0  0  0  0  0  0  0
    9.2447  -14.3679   27.1736 C   0  0  0  0  0  0  0  0  0  0  0  0
   11.3893  -15.3285   28.0112 C   0  0  0  0  0  0  0  0  0  0  0  0
   11.1672  -16.7452   27.6284 C   0  0  2  0  0  0  0  0  0  0  0  0
   10.1905  -16.8371   26.5184 N   0  0  0  0  0  0  0  0  0  0  0  0
   10.7144  -17.5415   28.7676 C   0  0  0  0  0  0  0  0  0  0  0  0
    9.4629  -18.1932   28.6637 O   0  0  0  0  0  0  0  0  0  0  0  0
   11.3190  -17.7139   29.8409 O   0  0  0  0  0  0  0  0  0  0  0  0
  2  3  2  0
  2  1  1  0
  4  3  1  0
  5 11  1  0
  5  4  2  0
  6  5  1  0
  7  9  1  0
  7  6  1  0
  7  8  1  6
  9 10  2  0
 11 12  2  0
 12  2  1  0
 13 14  1  0
 13  9  1  0
 14 15  1  1
 15 16  1  0
 17 24  1  0
 17 14  1  0
 18 17  2  0
 20 19  1  6
 21 20  1  0
 23 22  1  1
 22 20  1  0
 23 24  1  0
 25 23  1  0
 25 26  1  0
 27 25  2  0
M  END
$$$$
