YCL.pdb
     RDKit          3D

 27 27  0  0  1  0  0  0  0  0999 V2000
   10.0834  -26.3253   24.2242 O   0  0  0  0  0  0  0  0  0  0  0  0
   10.5276  -25.0164   24.1607 C   0  0  0  0  0  0  0  0  0  0  0  0
   11.7914  -24.7078   23.7262 C   0  0  0  0  0  0  0  0  0  0  0  0
   12.1944  -23.3971   23.6778 C   0  0  0  0  0  0  0  0  0  0  0  0
   11.3599  -22.3613   24.0568 C   0  0  0  0  0  0  0  0  0  0  0  0
   11.7862  -20.9313   24.0089 C   0  0  0  0  0  0  0  0  0  0  0  0
   11.0640  -20.2763   22.8530 C   0  0  2  0  0  0  0  0  0  0  0  0
   11.6574  -20.8385   21.6304 N   0  0  0  0  0  0  0  0  0  0  0  0
   11.3393  -18.8299   22.8365 C   0  0  0  0  0  0  0  0  0  0  0  0
   12.3900  -18.3311   22.3083 O   0  0  0  0  0  0  0  0  0  0  0  0
   10.0923  -22.6547   24.4937 C   0  0  0  0  0  0  0  0  0  0  0  0
    9.7014  -23.9803   24.5367 C   0  0  0  0  0  0  0  0  0  0  0  0
   10.4401  -17.8935   23.4151 N   0  0  0  0  0  0  0  0  0  0  0  0
   10.7329  -16.4867   23.5163 C   0  0  1  0  0  0  0  0  0  0  0  0
    9.5931  -15.6282   23.0194 C   0  0  0  0  0  0  0  0  0  0  0  0
    8.0760  -16.0440   23.9128 S   0  0  0  0  0  0  0  0  0  0  0  0
   11.1415  -16.1248   24.8927 C   0  0  0  0  0  0  0  0  0  0  0  0
   12.1065  -15.3303   25.0217 O   0  0  0  0  0  0  0  0  0  0  0  0
    8.6484  -13.7248   28.3723 C   0  0  0  0  0  0  0  0  0  0  0  0
    9.8552  -14.3604   27.6883 C   0  0  1  0  0  0  0  0  0  0  0  0
   10.9917  -13.3501   27.9094 C   0  0  0  0  0  0  0  0  0  0  0  0
   10.1955  -15.6839   28.2873 C   0  0  0  0  0  0  0  0  0  0  0  0
   11.1043  -16.4638   27.4107 C   0  0  2  0  0  0  0  0  0  0  0  0
   10.5217  -16.6109   26.0567 N   0  0  0  0  0  0  0  0  0  0  0  0
   11.3981  -17.7777   27.9801 C   0  0  0  0  0  0  0  0  0  0  0  0
   12.1298  -17.8260   29.1901 O   0  0  0  0  0  0  0  0  0  0  0  0
   11.0700  -18.8816   27.5099 O   0  0  0  0  0  0  0  0  0  0  0  0
  2  3  2  0
  2  1  1  0
  4  3  1  0
  5 11  1  0
  5  4  2  0
  6  5  1  0
  7  9  1  0
  7  6  1  0
  7  8  1  6
  9 10  2  0
 11 12  2  0
 12  2  1  0
 13 14  1  0
 13  9  1  0
 14 15  1  1
 15 16  1  0
 17 24  1  0
 17 14  1  0
 18 17  2  0
 20 19  1  1
 21 20  1  0
 23 22  1  1
 22 20  1  0
 23 24  1  0
 25 23  1  0
 25 26  1  0
 27 25  2  0
M  END
$$$$
