YCL.pdb
     RDKit          3D

 27 27  0  0  1  0  0  0  0  0999 V2000
    8.5136  -13.0180   15.9790 O   0  0  0  0  0  0  0  0  0  0  0  0
    8.2347  -13.5511   17.2251 C   0  0  0  0  0  0  0  0  0  0  0  0
    8.6057  -14.8288   17.5583 C   0  0  0  0  0  0  0  0  0  0  0  0
    8.3106  -15.3212   18.8046 C   0  0  0  0  0  0  0  0  0  0  0  0
    7.6430  -14.5643   19.7503 C   0  0  0  0  0  0  0  0  0  0  0  0
    7.3159  -15.0882   21.1095 C   0  0  0  0  0  0  0  0  0  0  0  0
    7.7806  -16.5260   21.1704 C   0  0  2  0  0  0  0  0  0  0  0  0
    6.7142  -17.3257   20.5489 N   0  0  0  0  0  0  0  0  0  0  0  0
    7.8849  -16.9667   22.5715 C   0  0  0  0  0  0  0  0  0  0  0  0
    6.9039  -17.4755   23.2122 O   0  0  0  0  0  0  0  0  0  0  0  0
    7.2654  -13.2839   19.4312 C   0  0  0  0  0  0  0  0  0  0  0  0
    7.5701  -12.8025   18.1714 C   0  0  0  0  0  0  0  0  0  0  0  0
    9.0991  -16.8495   23.3011 N   0  0  0  0  0  0  0  0  0  0  0  0
    9.2179  -17.2203   24.6880 C   0  0  1  0  0  0  0  0  0  0  0  0
   10.1267  -18.4110   24.8857 C   0  0  0  0  0  0  0  0  0  0  0  0
   11.7274  -18.0989   24.1026 S   0  0  0  0  0  0  0  0  0  0  0  0
    9.6299  -16.0638   25.5157 C   0  0  0  0  0  0  0  0  0  0  0  0
   10.6134  -15.3885   25.1209 O   0  0  0  0  0  0  0  0  0  0  0  0
    6.4913  -12.3668   27.0909 C   0  0  0  0  0  0  0  0  0  0  0  0
    7.6976  -13.2282   26.7289 C   0  0  1  0  0  0  0  0  0  0  0  0
    8.5493  -12.3259   25.8225 C   0  0  0  0  0  0  0  0  0  0  0  0
    8.4642  -13.6414   27.9405 C   0  0  0  0  0  0  0  0  0  0  0  0
    9.5238  -14.6260   27.6081 C   0  0  2  0  0  0  0  0  0  0  0  0
    8.9941  -15.6763   26.7077 N   0  0  0  0  0  0  0  0  0  0  0  0
   10.0880  -15.2307   28.8135 C   0  0  0  0  0  0  0  0  0  0  0  0
   10.8323  -14.4004   29.6843 O   0  0  0  0  0  0  0  0  0  0  0  0
    9.9847  -16.4190   29.1668 O   0  0  0  0  0  0  0  0  0  0  0  0
  2  3  2  0
  2  1  1  0
  4  3  1  0
  5 11  1  0
  5  4  2  0
  6  5  1  0
  7  9  1  0
  7  6  1  0
  7  8  1  6
  9 10  2  0
 11 12  2  0
 12  2  1  0
 13 14  1  0
 13  9  1  0
 14 15  1  6
 15 16  1  0
 17 24  1  0
 17 14  1  0
 18 17  2  0
 20 19  1  1
 21 20  1  0
 23 22  1  1
 22 20  1  0
 23 24  1  0
 25 23  1  0
 25 26  1  0
 27 25  2  0
M  END
$$$$
