TNN.pdb
     RDKit          3D

 24 23  0  0  1  0  0  0  0  0999 V2000
    7.6436  -14.7267   18.7073 C   0  0  0  0  0  0  0  0  0  0  0  0
    7.5119  -14.0208   20.0621 C   0  0  1  0  0  0  0  0  0  0  0  0
    6.2187  -14.2686   20.5452 O   0  0  0  0  0  0  0  0  0  0  0  0
    8.5030  -14.7052   20.9798 C   0  0  2  0  0  0  0  0  0  0  0  0
    8.0710  -16.0805   21.1275 N   0  0  0  0  0  0  0  0  0  0  0  0
    8.6356  -14.0231   22.2880 C   0  0  0  0  0  0  0  0  0  0  0  0
    9.5006  -13.1341   22.4679 O   0  0  0  0  0  0  0  0  0  0  0  0
    7.3698  -11.7679   26.6569 N   0  0  0  0  0  0  0  0  0  0  0  0
    6.5079  -12.8946   26.4933 C   0  0  0  0  0  0  0  0  0  0  0  0
    5.8334  -13.2854   27.4665 O   0  0  0  0  0  0  0  0  0  0  0  0
    6.4408  -13.5651   25.1734 C   0  0  0  0  0  0  0  0  0  0  0  0
    7.8499  -13.8012   24.6778 C   0  0  2  0  0  0  0  0  0  0  0  0
    7.7701  -14.3805   23.3569 N   0  0  0  0  0  0  0  0  0  0  0  0
    8.5853  -14.7491   25.5590 C   0  0  0  0  0  0  0  0  0  0  0  0
    8.2955  -14.7741   26.7791 O   0  0  0  0  0  0  0  0  0  0  0  0
   10.1963  -20.2857   25.3709 N   0  0  0  0  0  0  0  0  0  0  0  0
    9.7105  -19.1914   26.1344 C   0  0  0  0  0  0  0  0  0  0  0  0
    9.7087  -19.2639   27.3746 O   0  0  0  0  0  0  0  0  0  0  0  0
    9.2123  -17.9789   25.4554 C   0  0  0  0  0  0  0  0  0  0  0  0
   10.0569  -16.7794   25.7666 C   0  0  2  0  0  0  0  0  0  0  0  0
    9.5865  -15.6024   25.0407 N   0  0  0  0  0  0  0  0  0  0  0  0
   11.4625  -17.0092   25.3925 C   0  0  0  0  0  0  0  0  0  0  0  0
   12.3224  -17.5120   26.1844 O   0  0  0  0  0  0  0  0  0  0  0  0
   11.8987  -16.6657   24.1070 O   0  0  0  0  0  0  0  0  0  0  0  0
  2  1  1  6
  3  2  1  0
  4  2  1  0
  4  5  1  1
  6  4  1  0
  6  7  2  0
  9 11  1  0
  9  8  1  0
 10  9  2  0
 12 11  1  1
 12 13  1  0
 13  6  1  0
 14 12  1  0
 15 14  2  0
 16 17  1  0
 17 18  2  0
 17 19  1  0
 20 19  1  6
 20 22  1  0
 20 21  1  0
 21 14  1  0
 22 24  1  0
 23 22  2  0
M  END
$$$$
