TNN.pdb
     RDKit          3D

 24 23  0  0  1  0  0  0  0  0999 V2000
    8.8375  -19.3589   17.5951 C   0  0  0  0  0  0  0  0  0  0  0  0
    9.3496  -18.7581   16.2806 C   0  0  1  0  0  0  0  0  0  0  0  0
    8.8811  -19.5662   15.2343 O   0  0  0  0  0  0  0  0  0  0  0  0
    8.6904  -17.3998   16.1657 C   0  0  2  0  0  0  0  0  0  0  0  0
    8.9662  -16.9010   14.8335 N   0  0  0  0  0  0  0  0  0  0  0  0
    9.1407  -16.4556   17.2146 C   0  0  0  0  0  0  0  0  0  0  0  0
   10.3165  -16.0219   17.2313 O   0  0  0  0  0  0  0  0  0  0  0  0
    9.0377  -13.7086   21.5083 N   0  0  0  0  0  0  0  0  0  0  0  0
    7.7009  -13.6705   21.0078 C   0  0  0  0  0  0  0  0  0  0  0  0
    6.8686  -12.9272   21.5642 O   0  0  0  0  0  0  0  0  0  0  0  0
    7.3429  -14.5143   19.8433 C   0  0  0  0  0  0  0  0  0  0  0  0
    8.5960  -15.1873   19.3294 C   0  0  2  0  0  0  0  0  0  0  0  0
    8.2275  -16.0337   18.2183 N   0  0  0  0  0  0  0  0  0  0  0  0
    9.2249  -16.0389   20.3758 C   0  0  0  0  0  0  0  0  0  0  0  0
    8.7134  -17.1581   20.6189 O   0  0  0  0  0  0  0  0  0  0  0  0
   13.6764  -18.3864   22.3193 N   0  0  0  0  0  0  0  0  0  0  0  0
   12.3910  -18.6832   21.7938 C   0  0  0  0  0  0  0  0  0  0  0  0
   11.8857  -19.7979   22.0065 O   0  0  0  0  0  0  0  0  0  0  0  0
   11.6645  -17.6716   21.0010 C   0  0  0  0  0  0  0  0  0  0  0  0
   11.2062  -16.5230   21.8493 C   0  0  2  0  0  0  0  0  0  0  0  0
   10.3698  -15.6035   21.0820 N   0  0  0  0  0  0  0  0  0  0  0  0
   12.3520  -15.7610   22.3738 C   0  0  0  0  0  0  0  0  0  0  0  0
   13.1931  -15.1638   21.6287 O   0  0  0  0  0  0  0  0  0  0  0  0
   12.5468  -15.6747   23.7578 O   0  0  0  0  0  0  0  0  0  0  0  0
  2  1  1  1
  3  2  1  0
  4  2  1  0
  4  5  1  6
  6  4  1  0
  6  7  2  0
  9 11  1  0
  9  8  1  0
 10  9  2  0
 12 11  1  1
 12 13  1  0
 13  6  1  0
 14 12  1  0
 15 14  2  0
 16 17  1  0
 17 18  2  0
 17 19  1  0
 20 19  1  6
 20 22  1  0
 20 21  1  0
 21 14  1  0
 22 24  1  0
 23 22  2  0
M  END
$$$$
