TNN.pdb
     RDKit          3D

 24 23  0  0  1  0  0  0  0  0999 V2000
    7.4263  -13.5560   16.4337 C   0  0  0  0  0  0  0  0  0  0  0  0
    8.3262  -14.3645   17.3759 C   0  0  1  0  0  0  0  0  0  0  0  0
    9.6188  -13.8263   17.2930 O   0  0  0  0  0  0  0  0  0  0  0  0
    7.7930  -14.1118   18.7703 C   0  0  2  0  0  0  0  0  0  0  0  0
    7.7522  -12.6758   18.9597 N   0  0  0  0  0  0  0  0  0  0  0  0
    8.5933  -14.7859   19.8189 C   0  0  0  0  0  0  0  0  0  0  0  0
    9.3318  -14.1291   20.5897 O   0  0  0  0  0  0  0  0  0  0  0  0
    9.0894  -19.5364   23.0037 N   0  0  0  0  0  0  0  0  0  0  0  0
    9.7154  -19.1874   21.7687 C   0  0  0  0  0  0  0  0  0  0  0  0
   10.8924  -19.5457   21.5658 O   0  0  0  0  0  0  0  0  0  0  0  0
    8.9487  -18.4109   20.7661 C   0  0  0  0  0  0  0  0  0  0  0  0
    9.3220  -16.9511   20.8952 C   0  0  2  0  0  0  0  0  0  0  0  0
    8.5243  -16.1988   19.9549 N   0  0  0  0  0  0  0  0  0  0  0  0
   10.7579  -16.7259   20.5736 C   0  0  0  0  0  0  0  0  0  0  0  0
   11.0603  -16.3925   19.4029 O   0  0  0  0  0  0  0  0  0  0  0  0
   12.5311  -14.1078   18.7459 N   0  0  0  0  0  0  0  0  0  0  0  0
   13.4469  -14.4867   19.7628 C   0  0  0  0  0  0  0  0  0  0  0  0
   14.6595  -14.5521   19.5006 O   0  0  0  0  0  0  0  0  0  0  0  0
   12.9572  -14.7998   21.1200 C   0  0  0  0  0  0  0  0  0  0  0  0
   13.0772  -16.2617   21.4319 C   0  0  2  0  0  0  0  0  0  0  0  0
   11.7608  -16.8822   21.5579 N   0  0  0  0  0  0  0  0  0  0  0  0
   13.8009  -16.4764   22.6962 C   0  0  0  0  0  0  0  0  0  0  0  0
   15.0224  -16.1614   22.8635 O   0  0  0  0  0  0  0  0  0  0  0  0
   13.1334  -17.0543   23.7831 O   0  0  0  0  0  0  0  0  0  0  0  0
  2  1  1  6
  3  2  1  0
  4  2  1  0
  4  5  1  1
  6  4  1  0
  6  7  2  0
  9 11  1  0
  9  8  1  0
 10  9  2  0
 12 11  1  6
 12 13  1  0
 13  6  1  0
 14 12  1  0
 15 14  2  0
 16 17  1  0
 17 18  2  0
 17 19  1  0
 20 19  1  1
 20 22  1  0
 20 21  1  0
 21 14  1  0
 22 24  1  0
 23 22  2  0
M  END
$$$$
