TNN.pdb
     RDKit          3D

 24 23  0  0  1  0  0  0  0  0999 V2000
    7.4637  -12.2943   19.1790 C   0  0  0  0  0  0  0  0  0  0  0  0
    7.7167  -13.6995   18.6198 C   0  0  1  0  0  0  0  0  0  0  0  0
    8.3346  -13.5530   17.3691 O   0  0  0  0  0  0  0  0  0  0  0  0
    8.7049  -14.3466   19.5670 C   0  0  2  0  0  0  0  0  0  0  0  0
    9.0961  -15.6120   18.9792 N   0  0  0  0  0  0  0  0  0  0  0  0
    8.1592  -14.5163   20.9337 C   0  0  0  0  0  0  0  0  0  0  0  0
    7.8489  -13.5235   21.6329 O   0  0  0  0  0  0  0  0  0  0  0  0
    5.4866  -18.8968   24.3278 N   0  0  0  0  0  0  0  0  0  0  0  0
    6.0643  -17.6193   24.0570 C   0  0  0  0  0  0  0  0  0  0  0  0
    6.0654  -16.7543   24.9551 O   0  0  0  0  0  0  0  0  0  0  0  0
    6.6447  -17.3599   22.7183 C   0  0  0  0  0  0  0  0  0  0  0  0
    7.4613  -16.0886   22.7825 C   0  0  2  0  0  0  0  0  0  0  0  0
    7.9841  -15.8237   21.4623 N   0  0  0  0  0  0  0  0  0  0  0  0
    8.6095  -16.2259   23.7198 C   0  0  0  0  0  0  0  0  0  0  0  0
    8.3666  -16.4527   24.9293 O   0  0  0  0  0  0  0  0  0  0  0  0
   12.5031  -17.7398   26.6281 N   0  0  0  0  0  0  0  0  0  0  0  0
   12.1383  -18.2945   25.3728 C   0  0  0  0  0  0  0  0  0  0  0  0
   12.8567  -19.1674   24.8578 O   0  0  0  0  0  0  0  0  0  0  0  0
   10.9138  -17.8342   24.6885 C   0  0  0  0  0  0  0  0  0  0  0  0
   11.0850  -16.4649   24.1016 C   0  0  2  0  0  0  0  0  0  0  0  0
    9.9429  -16.1046   23.2653 N   0  0  0  0  0  0  0  0  0  0  0  0
   12.2964  -16.3933   23.2673 C   0  0  0  0  0  0  0  0  0  0  0  0
   12.2825  -16.5355   22.0028 O   0  0  0  0  0  0  0  0  0  0  0  0
   13.5371  -16.1577   23.8723 O   0  0  0  0  0  0  0  0  0  0  0  0
  2  1  1  1
  3  2  1  0
  4  2  1  0
  4  5  1  6
  6  4  1  0
  6  7  2  0
  9 11  1  0
  9  8  1  0
 10  9  2  0
 12 11  1  6
 12 13  1  0
 13  6  1  0
 14 12  1  0
 15 14  2  0
 16 17  1  0
 17 18  2  0
 17 19  1  0
 20 19  1  6
 20 22  1  0
 20 21  1  0
 21 14  1  0
 22 24  1  0
 23 22  2  0
M  END
$$$$
