TNN.pdb
     RDKit          3D

 24 23  0  0  1  0  0  0  0  0999 V2000
   13.2990  -13.3545   15.9125 C   0  0  0  0  0  0  0  0  0  0  0  0
   11.9897  -12.7461   15.3958 C   0  0  1  0  0  0  0  0  0  0  0  0
   12.2067  -12.3346   14.0726 O   0  0  0  0  0  0  0  0  0  0  0  0
   10.9865  -13.8801   15.3840 C   0  0  2  0  0  0  0  0  0  0  0  0
    9.9046  -13.4859   14.5042 N   0  0  0  0  0  0  0  0  0  0  0  0
   10.4995  -14.2263   16.7395 C   0  0  0  0  0  0  0  0  0  0  0  0
    9.2782  -14.3994   16.9621 O   0  0  0  0  0  0  0  0  0  0  0  0
   11.9131  -18.7776   19.3626 N   0  0  0  0  0  0  0  0  0  0  0  0
   10.9346  -17.7524   19.1878 C   0  0  0  0  0  0  0  0  0  0  0  0
    9.9212  -17.7545   19.9144 O   0  0  0  0  0  0  0  0  0  0  0  0
   11.1523  -16.7177   18.1495 C   0  0  0  0  0  0  0  0  0  0  0  0
   11.3257  -15.3781   18.8295 C   0  0  2  0  0  0  0  0  0  0  0  0
   11.4291  -14.3647   17.8053 N   0  0  0  0  0  0  0  0  0  0  0  0
   12.5675  -15.3406   19.6496 C   0  0  0  0  0  0  0  0  0  0  0  0
   13.5468  -16.0308   19.2785 O   0  0  0  0  0  0  0  0  0  0  0  0
   10.6195  -14.4851   24.2627 N   0  0  0  0  0  0  0  0  0  0  0  0
   11.5702  -15.5197   24.0573 C   0  0  0  0  0  0  0  0  0  0  0  0
   12.1036  -16.0639   25.0385 O   0  0  0  0  0  0  0  0  0  0  0  0
   11.9193  -15.9420   22.6864 C   0  0  0  0  0  0  0  0  0  0  0  0
   13.0275  -15.1106   22.1126 C   0  0  2  0  0  0  0  0  0  0  0  0
   12.6480  -14.5493   20.8186 N   0  0  0  0  0  0  0  0  0  0  0  0
   14.2462  -15.9138   21.9169 C   0  0  0  0  0  0  0  0  0  0  0  0
   15.3194  -15.7255   22.5742 O   0  0  0  0  0  0  0  0  0  0  0  0
   14.2488  -16.9419   20.9661 O   0  0  0  0  0  0  0  0  0  0  0  0
  2  1  1  6
  3  2  1  0
  4  2  1  0
  4  5  1  6
  6  4  1  0
  6  7  2  0
  9 11  1  0
  9  8  1  0
 10  9  2  0
 12 11  1  6
 12 13  1  0
 13  6  1  0
 14 12  1  0
 15 14  2  0
 16 17  1  0
 17 18  2  0
 17 19  1  0
 20 19  1  6
 20 22  1  0
 20 21  1  0
 21 14  1  0
 22 24  1  0
 23 22  2  0
M  END
$$$$
