TNN.pdb
     RDKit          3D

 24 23  0  0  1  0  0  0  0  0999 V2000
    9.2642  -12.2632   19.0119 C   0  0  0  0  0  0  0  0  0  0  0  0
    8.1445  -13.0338   18.3022 C   0  0  1  0  0  0  0  0  0  0  0  0
    7.5441  -12.1596   17.3843 O   0  0  0  0  0  0  0  0  0  0  0  0
    8.8328  -14.1384   17.5284 C   0  0  2  0  0  0  0  0  0  0  0  0
    7.8431  -14.7256   16.6478 N   0  0  0  0  0  0  0  0  0  0  0  0
    9.4582  -15.1504   18.4112 C   0  0  0  0  0  0  0  0  0  0  0  0
    8.7848  -16.0913   18.8931 O   0  0  0  0  0  0  0  0  0  0  0  0
   12.9417  -18.0830   20.4786 N   0  0  0  0  0  0  0  0  0  0  0  0
   13.7054  -17.1143   19.7594 C   0  0  0  0  0  0  0  0  0  0  0  0
   14.9308  -17.2957   19.6171 O   0  0  0  0  0  0  0  0  0  0  0  0
   13.0197  -15.9236   19.2041 C   0  0  0  0  0  0  0  0  0  0  0  0
   11.5473  -16.0131   19.5375 C   0  0  2  0  0  0  0  0  0  0  0  0
   10.8424  -15.0550   18.7181 N   0  0  0  0  0  0  0  0  0  0  0  0
   11.2916  -15.6823   20.9662 C   0  0  0  0  0  0  0  0  0  0  0  0
   11.7445  -14.6033   21.4175 O   0  0  0  0  0  0  0  0  0  0  0  0
    6.8364  -15.4448   22.2517 N   0  0  0  0  0  0  0  0  0  0  0  0
    8.0624  -15.2158   22.9305 C   0  0  0  0  0  0  0  0  0  0  0  0
    8.4927  -14.0557   23.0415 O   0  0  0  0  0  0  0  0  0  0  0  0
    8.8168  -16.3508   23.4982 C   0  0  0  0  0  0  0  0  0  0  0  0
   10.2831  -16.2497   23.2005 C   0  0  2  0  0  0  0  0  0  0  0  0
   10.5576  -16.5578   21.7993 N   0  0  0  0  0  0  0  0  0  0  0  0
   11.0584  -17.1877   24.0297 C   0  0  0  0  0  0  0  0  0  0  0  0
   11.0685  -17.1508   25.3016 O   0  0  0  0  0  0  0  0  0  0  0  0
   11.8306  -18.1786   23.4110 O   0  0  0  0  0  0  0  0  0  0  0  0
  2  1  1  6
  3  2  1  0
  4  2  1  0
  4  5  1  6
  6  4  1  0
  6  7  2  0
  9 11  1  0
  9  8  1  0
 10  9  2  0
 12 11  1  1
 12 13  1  0
 13  6  1  0
 14 12  1  0
 15 14  2  0
 16 17  1  0
 17 18  2  0
 17 19  1  0
 20 19  1  6
 20 22  1  0
 20 21  1  0
 21 14  1  0
 22 24  1  0
 23 22  2  0
M  END
$$$$
