TNN.pdb
     RDKit          3D

 24 23  0  0  1  0  0  0  0  0999 V2000
    7.5961  -12.3262   19.6635 C   0  0  0  0  0  0  0  0  0  0  0  0
    7.9730  -13.6987   19.0930 C   0  0  1  0  0  0  0  0  0  0  0  0
    8.6066  -13.4856   17.8600 O   0  0  0  0  0  0  0  0  0  0  0  0
    8.9869  -14.2793   20.0561 C   0  0  2  0  0  0  0  0  0  0  0  0
    9.5648  -15.4452   19.4185 N   0  0  0  0  0  0  0  0  0  0  0  0
    8.3996  -14.6046   21.3766 C   0  0  0  0  0  0  0  0  0  0  0  0
    7.8939  -13.7114   22.0960 O   0  0  0  0  0  0  0  0  0  0  0  0
    5.5191  -17.7497   24.6416 N   0  0  0  0  0  0  0  0  0  0  0  0
    6.7952  -18.2466   24.2373 C   0  0  0  0  0  0  0  0  0  0  0  0
    7.3955  -19.0465   24.9820 O   0  0  0  0  0  0  0  0  0  0  0  0
    7.3675  -17.7975   22.9462 C   0  0  0  0  0  0  0  0  0  0  0  0
    7.8349  -16.3669   23.0950 C   0  0  2  0  0  0  0  0  0  0  0  0
    8.4088  -15.9489   21.8370 N   0  0  0  0  0  0  0  0  0  0  0  0
    8.8792  -16.2421   24.1483 C   0  0  0  0  0  0  0  0  0  0  0  0
   10.0741  -16.4510   23.8293 O   0  0  0  0  0  0  0  0  0  0  0  0
   11.3526  -14.8207   28.4154 N   0  0  0  0  0  0  0  0  0  0  0  0
   10.0674  -14.2191   28.4681 C   0  0  0  0  0  0  0  0  0  0  0  0
    9.8127  -13.3979   29.3648 O   0  0  0  0  0  0  0  0  0  0  0  0
    9.0447  -14.5701   27.4628 C   0  0  0  0  0  0  0  0  0  0  0  0
    9.5531  -15.5835   26.4814 C   0  0  2  0  0  0  0  0  0  0  0  0
    8.5401  -15.8972   25.4769 N   0  0  0  0  0  0  0  0  0  0  0  0
    9.9222  -16.8383   27.1582 C   0  0  0  0  0  0  0  0  0  0  0  0
    9.0777  -17.7374   27.4708 O   0  0  0  0  0  0  0  0  0  0  0  0
   11.2629  -17.0770   27.4842 O   0  0  0  0  0  0  0  0  0  0  0  0
  2  1  1  1
  3  2  1  0
  4  2  1  0
  4  5  1  6
  6  4  1  0
  6  7  2  0
  9 11  1  0
  9  8  1  0
 10  9  2  0
 12 11  1  6
 12 13  1  0
 13  6  1  0
 14 12  1  0
 15 14  2  0
 16 17  1  0
 17 18  2  0
 17 19  1  0
 20 19  1  1
 20 22  1  0
 20 21  1  0
 21 14  1  0
 22 24  1  0
 23 22  2  0
M  END
$$$$
