TNN.pdb
     RDKit          3D

 24 23  0  0  1  0  0  0  0  0999 V2000
   12.7730  -14.6565   22.0352 C   0  0  0  0  0  0  0  0  0  0  0  0
   11.9046  -14.5762   20.7740 C   0  0  1  0  0  0  0  0  0  0  0  0
   12.7540  -14.3053   19.6911 O   0  0  0  0  0  0  0  0  0  0  0  0
   11.3217  -15.9612   20.5878 C   0  0  2  0  0  0  0  0  0  0  0  0
   10.6483  -15.9738   19.3049 N   0  0  0  0  0  0  0  0  0  0  0  0
   10.4158  -16.3530   21.6925 C   0  0  0  0  0  0  0  0  0  0  0  0
    9.1845  -16.1279   21.6283 O   0  0  0  0  0  0  0  0  0  0  0  0
    9.4818  -20.6310   25.6483 N   0  0  0  0  0  0  0  0  0  0  0  0
    9.1737  -19.3783   25.0362 C   0  0  0  0  0  0  0  0  0  0  0  0
    8.2319  -18.6993   25.4910 O   0  0  0  0  0  0  0  0  0  0  0  0
    9.9813  -18.9229   23.8802 C   0  0  0  0  0  0  0  0  0  0  0  0
   10.1441  -17.4217   23.9643 C   0  0  2  0  0  0  0  0  0  0  0  0
   10.9485  -16.9938   22.8435 N   0  0  0  0  0  0  0  0  0  0  0  0
   10.8389  -17.0189   25.2176 C   0  0  0  0  0  0  0  0  0  0  0  0
   12.0786  -17.1938   25.2934 O   0  0  0  0  0  0  0  0  0  0  0  0
    8.8792  -13.0206   27.4260 N   0  0  0  0  0  0  0  0  0  0  0  0
   10.0582  -13.8058   27.5249 C   0  0  0  0  0  0  0  0  0  0  0  0
   11.0941  -13.4286   26.9523 O   0  0  0  0  0  0  0  0  0  0  0  0
   10.0483  -15.0604   28.3031 C   0  0  0  0  0  0  0  0  0  0  0  0
   10.7598  -16.1675   27.5841 C   0  0  2  0  0  0  0  0  0  0  0  0
   10.1258  -16.4529   26.2995 N   0  0  0  0  0  0  0  0  0  0  0  0
   10.7502  -17.4076   28.3782 C   0  0  0  0  0  0  0  0  0  0  0  0
   10.1838  -18.4796   27.9918 O   0  0  0  0  0  0  0  0  0  0  0  0
   11.3895  -17.4334   29.6238 O   0  0  0  0  0  0  0  0  0  0  0  0
  2  1  1  1
  3  2  1  0
  4  2  1  0
  4  5  1  6
  6  4  1  0
  6  7  2  0
  9 11  1  0
  9  8  1  0
 10  9  2  0
 12 11  1  1
 12 13  1  0
 13  6  1  0
 14 12  1  0
 15 14  2  0
 16 17  1  0
 17 18  2  0
 17 19  1  0
 20 19  1  1
 20 22  1  0
 20 21  1  0
 21 14  1  0
 22 24  1  0
 23 22  2  0
M  END
$$$$
