TNN.pdb
     RDKit          3D

 24 23  0  0  1  0  0  0  0  0999 V2000
    7.9743  -13.2400   20.5281 C   0  0  0  0  0  0  0  0  0  0  0  0
    7.3812  -13.1589   19.1164 C   0  0  1  0  0  0  0  0  0  0  0  0
    7.2225  -11.8015   18.8007 O   0  0  0  0  0  0  0  0  0  0  0  0
    8.4318  -13.7428   18.1955 C   0  0  2  0  0  0  0  0  0  0  0  0
    7.9285  -13.6245   16.8418 N   0  0  0  0  0  0  0  0  0  0  0  0
    8.7771  -15.1422   18.5374 C   0  0  0  0  0  0  0  0  0  0  0  0
    8.4518  -16.0900   17.7844 O   0  0  0  0  0  0  0  0  0  0  0  0
   12.8468  -18.8318   18.9605 N   0  0  0  0  0  0  0  0  0  0  0  0
   11.5002  -18.4774   19.2768 C   0  0  0  0  0  0  0  0  0  0  0  0
   10.7458  -19.3435   19.7623 O   0  0  0  0  0  0  0  0  0  0  0  0
   11.0398  -17.0926   19.0192 C   0  0  0  0  0  0  0  0  0  0  0  0
   10.0196  -16.7177   20.0707 C   0  0  2  0  0  0  0  0  0  0  0  0
    9.4879  -15.4169   19.7368 N   0  0  0  0  0  0  0  0  0  0  0  0
   10.6365  -16.6362   21.4230 C   0  0  0  0  0  0  0  0  0  0  0  0
   11.4743  -15.7286   21.6412 O   0  0  0  0  0  0  0  0  0  0  0  0
   11.3582  -19.7391   26.6027 N   0  0  0  0  0  0  0  0  0  0  0  0
   10.9306  -18.5206   26.0121 C   0  0  0  0  0  0  0  0  0  0  0  0
   11.0961  -17.4527   26.6250 O   0  0  0  0  0  0  0  0  0  0  0  0
   10.2945  -18.5275   24.6799 C   0  0  0  0  0  0  0  0  0  0  0  0
   10.9448  -17.5498   23.7471 C   0  0  2  0  0  0  0  0  0  0  0  0
   10.2917  -17.5554   22.4406 N   0  0  0  0  0  0  0  0  0  0  0  0
   12.3661  -17.8765   23.5432 C   0  0  0  0  0  0  0  0  0  0  0  0
   12.7636  -18.9630   23.0132 O   0  0  0  0  0  0  0  0  0  0  0  0
   13.3480  -16.9621   23.9441 O   0  0  0  0  0  0  0  0  0  0  0  0
  2  1  1  1
  3  2  1  0
  4  2  1  0
  4  5  1  6
  6  4  1  0
  6  7  2  0
  9 11  1  0
  9  8  1  0
 10  9  2  0
 12 11  1  6
 12 13  1  0
 13  6  1  0
 14 12  1  0
 15 14  2  0
 16 17  1  0
 17 18  2  0
 17 19  1  0
 20 19  1  1
 20 22  1  0
 20 21  1  0
 21 14  1  0
 22 24  1  0
 23 22  2  0
M  END
$$$$
