WER.pdb
     RDKit          3D

 35 36  0  0  1  0  0  0  0  0999 V2000
    8.6115  -17.3654   24.6844 N   0  0  0  0  0  0  0  0  0  0  0  0
    8.6955  -16.0166   24.1337 C   0  0  1  0  0  0  0  0  0  0  0  0
    8.7746  -15.1009   25.2870 C   0  0  0  0  0  0  0  0  0  0  0  0
    7.5843  -14.5350   25.8352 C   0  0  0  0  0  0  0  0  0  0  0  0
    6.5608  -15.2550   26.4182 C   0  0  0  0  0  0  0  0  0  0  0  0
    5.6066  -14.3967   26.8264 N   0  0  0  0  0  0  0  0  0  0  0  0
    5.9716  -13.1246   26.5289 C   0  0  0  0  0  0  0  0  0  0  0  0
    5.3752  -11.8887   26.7232 C   0  0  0  0  0  0  0  0  0  0  0  0
    6.0437  -10.7656   26.2857 C   0  0  0  0  0  0  0  0  0  0  0  0
    7.2723  -10.8729   25.6714 C   0  0  0  0  0  0  0  0  0  0  0  0
    7.8637  -12.0934   25.4778 C   0  0  0  0  0  0  0  0  0  0  0  0
    7.2094  -13.2211   25.9092 C   0  0  0  0  0  0  0  0  0  0  0  0
    9.8898  -16.0365   23.2635 C   0  0  0  0  0  0  0  0  0  0  0  0
   10.7009  -15.0837   23.2868 O   0  0  0  0  0  0  0  0  0  0  0  0
   10.1735  -17.1041   22.3815 N   0  0  0  0  0  0  0  0  0  0  0  0
   11.3285  -17.0828   21.4712 C   0  0  1  0  0  0  0  0  0  0  0  0
   12.5863  -16.9721   22.3039 C   0  0  0  0  0  0  0  0  0  0  0  0
   13.8153  -16.9153   21.4508 C   0  0  0  0  0  0  0  0  0  0  0  0
   15.0550  -16.8623   22.3053 C   0  0  0  0  0  0  0  0  0  0  0  0
   15.3093  -17.7474   23.1522 O   0  0  0  0  0  0  0  0  0  0  0  0
   11.3495  -18.2496   20.6028 C   0  0  0  0  0  0  0  0  0  0  0  0
   12.2904  -19.0881   20.7596 O   0  0  0  0  0  0  0  0  0  0  0  0
   15.9503  -15.8152   22.1646 O   0  0  0  0  0  0  0  0  0  0  0  0
    8.5241  -12.8205   16.6021 N   0  0  0  0  0  0  0  0  0  0  0  0
    8.4255  -13.6474   15.4510 C   0  0  0  0  0  0  0  0  0  0  0  0
    8.4127  -13.1467   14.2539 N   0  0  0  0  0  0  0  0  0  0  0  0
    8.3394  -15.0663   15.5423 N   0  0  0  0  0  0  0  0  0  0  0  0
    8.5422  -15.7182   16.7976 C   0  0  0  0  0  0  0  0  0  0  0  0
    9.9078  -15.5661   17.3860 C   0  0  0  0  0  0  0  0  0  0  0  0
   10.0724  -16.3307   18.6851 C   0  0  0  0  0  0  0  0  0  0  0  0
   10.3672  -17.8012   18.3351 C   0  0  2  0  0  0  0  0  0  0  0  0
   10.4094  -18.5333   19.6032 N   0  0  0  0  0  0  0  0  0  0  0  0
   11.6503  -17.8645   17.6215 C   0  0  0  0  0  0  0  0  0  0  0  0
   12.7079  -17.3549   18.1220 O   0  0  0  0  0  0  0  0  0  0  0  0
   11.7749  -18.4741   16.3844 O   0  0  0  0  0  0  0  0  0  0  0  0
  2 13  1  0
  2  1  1  1
  3  4  1  0
  3  2  1  0
  4  5  2  0
  6  5  1  0
  7  6  1  0
  8  7  2  0
  9  8  1  0
 10  9  2  0
 10 11  1  0
 11 12  2  0
 12  7  1  0
 12  4  1  0
 13 14  2  0
 15 16  1  0
 15 13  1  0
 17 18  1  0
 16 17  1  1
 19 18  1  0
 20 19  2  0
 21 22  2  0
 21 16  1  0
 23 19  1  0
 24 25  1  0
 25 27  1  0
 26 25  2  0
 27 28  1  0
 29 28  1  0
 30 29  1  0
 31 32  1  0
 31 30  1  1
 32 21  1  0
 33 31  1  0
 34 33  2  0
 35 33  1  0
M  END
$$$$
