WER.pdb
     RDKit          3D

 35 36  0  0  1  0  0  0  0  0999 V2000
    6.3254  -17.3736   23.6622 N   0  0  0  0  0  0  0  0  0  0  0  0
    7.4634  -16.4698   23.5283 C   0  0  1  0  0  0  0  0  0  0  0  0
    7.7706  -15.9842   24.8864 C   0  0  0  0  0  0  0  0  0  0  0  0
    6.9351  -15.0046   25.5028 C   0  0  0  0  0  0  0  0  0  0  0  0
    5.8781  -15.2828   26.3463 C   0  0  0  0  0  0  0  0  0  0  0  0
    5.3231  -14.1211   26.7414 N   0  0  0  0  0  0  0  0  0  0  0  0
    5.9857  -13.0785   26.1811 C   0  0  0  0  0  0  0  0  0  0  0  0
    5.8356  -11.7024   26.2501 C   0  0  0  0  0  0  0  0  0  0  0  0
    6.7098  -10.9140   25.5332 C   0  0  0  0  0  0  0  0  0  0  0  0
    7.7051  -11.4828   24.7689 C   0  0  0  0  0  0  0  0  0  0  0  0
    7.8551  -12.8427   24.6986 C   0  0  0  0  0  0  0  0  0  0  0  0
    6.9917  -13.6407   25.4082 C   0  0  0  0  0  0  0  0  0  0  0  0
    8.5223  -17.2851   22.8975 C   0  0  0  0  0  0  0  0  0  0  0  0
    8.8019  -18.4160   23.3551 O   0  0  0  0  0  0  0  0  0  0  0  0
    9.2570  -16.8442   21.7732 N   0  0  0  0  0  0  0  0  0  0  0  0
   10.5197  -17.4779   21.3644 C   0  0  1  0  0  0  0  0  0  0  0  0
   10.9512  -16.8693   20.0487 C   0  0  0  0  0  0  0  0  0  0  0  0
   12.2601  -17.4255   19.5809 C   0  0  0  0  0  0  0  0  0  0  0  0
   12.6361  -16.8479   18.2412 C   0  0  0  0  0  0  0  0  0  0  0  0
   11.7801  -16.6264   17.3559 O   0  0  0  0  0  0  0  0  0  0  0  0
   11.5436  -17.3452   22.3891 C   0  0  0  0  0  0  0  0  0  0  0  0
   11.9317  -16.1743   22.6910 O   0  0  0  0  0  0  0  0  0  0  0  0
   13.9586  -16.5459   17.9623 O   0  0  0  0  0  0  0  0  0  0  0  0
    9.4083  -19.0033   28.4544 N   0  0  0  0  0  0  0  0  0  0  0  0
    9.2795  -20.1200   27.5857 C   0  0  0  0  0  0  0  0  0  0  0  0
    8.1257  -20.6611   27.3412 N   0  0  0  0  0  0  0  0  0  0  0  0
   10.4020  -20.7056   26.9328 N   0  0  0  0  0  0  0  0  0  0  0  0
   11.6912  -20.0986   27.0392 C   0  0  0  0  0  0  0  0  0  0  0  0
   11.9668  -19.0028   26.0607 C   0  0  0  0  0  0  0  0  0  0  0  0
   13.0785  -19.3522   25.0904 C   0  0  0  0  0  0  0  0  0  0  0  0
   13.1983  -18.2020   24.0733 C   0  0  2  0  0  0  0  0  0  0  0  0
   12.1396  -18.4075   23.0819 N   0  0  0  0  0  0  0  0  0  0  0  0
   14.5358  -18.2509   23.4666 C   0  0  0  0  0  0  0  0  0  0  0  0
   15.5378  -17.7029   24.0362 O   0  0  0  0  0  0  0  0  0  0  0  0
   14.7736  -18.8877   22.2600 O   0  0  0  0  0  0  0  0  0  0  0  0
  2 13  1  0
  2  1  1  1
  3  4  1  0
  3  2  1  0
  4  5  2  0
  6  5  1  0
  7  6  1  0
  8  7  2  0
  9  8  1  0
 10  9  2  0
 10 11  1  0
 11 12  2  0
 12  7  1  0
 12  4  1  0
 13 14  2  0
 15 16  1  0
 15 13  1  0
 17 18  1  0
 16 17  1  6
 19 18  1  0
 20 19  2  0
 21 22  2  0
 21 16  1  0
 23 19  1  0
 24 25  1  0
 25 27  1  0
 26 25  2  0
 27 28  1  0
 29 28  1  0
 30 29  1  0
 31 32  1  0
 31 30  1  1
 32 21  1  0
 33 31  1  0
 34 33  2  0
 35 33  1  0
M  END
$$$$
