WER.pdb
     RDKit          3D

 35 36  0  0  1  0  0  0  0  0999 V2000
    6.3148  -17.7302   24.8073 N   0  0  0  0  0  0  0  0  0  0  0  0
    6.5312  -16.3970   24.2547 C   0  0  1  0  0  0  0  0  0  0  0  0
    7.1550  -15.5990   25.3267 C   0  0  0  0  0  0  0  0  0  0  0  0
    6.4298  -14.5343   25.9414 C   0  0  0  0  0  0  0  0  0  0  0  0
    5.3125  -14.6927   26.7367 C   0  0  0  0  0  0  0  0  0  0  0  0
    4.8978  -13.4786   27.1462 N   0  0  0  0  0  0  0  0  0  0  0  0
    5.7123  -12.5181   26.6425 C   0  0  0  0  0  0  0  0  0  0  0  0
    5.7398  -11.1364   26.7477 C   0  0  0  0  0  0  0  0  0  0  0  0
    6.7373  -10.4515   26.0876 C   0  0  0  0  0  0  0  0  0  0  0  0
    7.6801  -11.1263   25.3434 C   0  0  0  0  0  0  0  0  0  0  0  0
    7.6548  -12.4920   25.2375 C   0  0  0  0  0  0  0  0  0  0  0  0
    6.6670  -13.1876   25.8904 C   0  0  0  0  0  0  0  0  0  0  0  0
    7.3744  -16.6142   23.0607 C   0  0  0  0  0  0  0  0  0  0  0  0
    8.1252  -17.6134   22.9942 O   0  0  0  0  0  0  0  0  0  0  0  0
    7.3786  -15.7294   21.9583 N   0  0  0  0  0  0  0  0  0  0  0  0
    8.4251  -15.7689   20.9256 C   0  0  1  0  0  0  0  0  0  0  0  0
    8.1085  -14.7135   19.8894 C   0  0  0  0  0  0  0  0  0  0  0  0
    9.1388  -14.6726   18.8039 C   0  0  0  0  0  0  0  0  0  0  0  0
    8.5458  -15.1097   17.4897 C   0  0  0  0  0  0  0  0  0  0  0  0
    8.6325  -14.4033   16.4607 O   0  0  0  0  0  0  0  0  0  0  0  0
    9.7509  -15.5922   21.4974 C   0  0  0  0  0  0  0  0  0  0  0  0
   10.1298  -14.4090   21.7607 O   0  0  0  0  0  0  0  0  0  0  0  0
    7.8839  -16.3226   17.3965 O   0  0  0  0  0  0  0  0  0  0  0  0
   13.2024  -19.5092   27.9046 N   0  0  0  0  0  0  0  0  0  0  0  0
   12.2814  -18.4278   27.8756 C   0  0  0  0  0  0  0  0  0  0  0  0
   11.5114  -18.1639   28.8862 N   0  0  0  0  0  0  0  0  0  0  0  0
   12.1525  -17.5724   26.7439 N   0  0  0  0  0  0  0  0  0  0  0  0
   11.1661  -17.8453   25.7468 C   0  0  0  0  0  0  0  0  0  0  0  0
   11.1646  -16.9171   24.5751 C   0  0  0  0  0  0  0  0  0  0  0  0
   12.1841  -17.3048   23.5217 C   0  0  0  0  0  0  0  0  0  0  0  0
   11.9958  -16.3689   22.3133 C   0  0  2  0  0  0  0  0  0  0  0  0
   10.6515  -16.6250   21.7905 N   0  0  0  0  0  0  0  0  0  0  0  0
   13.0374  -16.6699   21.3212 C   0  0  0  0  0  0  0  0  0  0  0  0
   14.2583  -16.3666   21.5357 O   0  0  0  0  0  0  0  0  0  0  0  0
   12.7495  -17.2914   20.1176 O   0  0  0  0  0  0  0  0  0  0  0  0
  2 13  1  0
  2  1  1  1
  3  4  1  0
  3  2  1  0
  4  5  2  0
  6  5  1  0
  7  6  1  0
  8  7  2  0
  9  8  1  0
 10  9  2  0
 10 11  1  0
 11 12  2  0
 12  7  1  0
 12  4  1  0
 13 14  2  0
 15 16  1  0
 15 13  1  0
 17 18  1  0
 16 17  1  6
 19 18  1  0
 20 19  2  0
 21 22  2  0
 21 16  1  0
 23 19  1  0
 24 25  1  0
 25 27  1  0
 26 25  2  0
 27 28  1  0
 29 28  1  0
 30 29  1  0
 31 32  1  0
 31 30  1  1
 32 21  1  0
 33 31  1  0
 34 33  2  0
 35 33  1  0
M  END
$$$$
