WER.pdb
     RDKit          3D

 35 36  0  0  1  0  0  0  0  0999 V2000
    6.1907  -17.1022   24.4244 N   0  0  0  0  0  0  0  0  0  0  0  0
    6.9392  -15.9460   23.9421 C   0  0  1  0  0  0  0  0  0  0  0  0
    7.6718  -15.4106   25.1046 C   0  0  0  0  0  0  0  0  0  0  0  0
    7.0297  -14.5028   25.9997 C   0  0  0  0  0  0  0  0  0  0  0  0
    5.9478  -14.8116   26.7998 C   0  0  0  0  0  0  0  0  0  0  0  0
    5.6122  -13.7197   27.5132 N   0  0  0  0  0  0  0  0  0  0  0  0
    6.4446  -12.6937   27.2065 C   0  0  0  0  0  0  0  0  0  0  0  0
    6.5426  -11.3804   27.6384 C   0  0  0  0  0  0  0  0  0  0  0  0
    7.5367  -10.5899   27.1029 C   0  0  0  0  0  0  0  0  0  0  0  0
    8.4077  -11.0955   26.1628 C   0  0  0  0  0  0  0  0  0  0  0  0
    8.3126  -12.3932   25.7339 C   0  0  0  0  0  0  0  0  0  0  0  0
    7.3274  -13.1927   26.2592 C   0  0  0  0  0  0  0  0  0  0  0  0
    7.7873  -16.4718   22.8520 C   0  0  0  0  0  0  0  0  0  0  0  0
    8.2345  -17.6392   22.9104 O   0  0  0  0  0  0  0  0  0  0  0  0
    8.1303  -15.7054   21.7148 N   0  0  0  0  0  0  0  0  0  0  0  0
    9.1306  -16.1590   20.7366 C   0  0  1  0  0  0  0  0  0  0  0  0
    9.1366  -15.1858   19.5789 C   0  0  0  0  0  0  0  0  0  0  0  0
    7.8387  -15.2005   18.8327 C   0  0  0  0  0  0  0  0  0  0  0  0
    8.0044  -15.8600   17.4884 C   0  0  0  0  0  0  0  0  0  0  0  0
    7.1369  -16.6318   17.0221 O   0  0  0  0  0  0  0  0  0  0  0  0
   10.4469  -16.2981   21.3398 C   0  0  0  0  0  0  0  0  0  0  0  0
   11.1817  -15.2643   21.4037 O   0  0  0  0  0  0  0  0  0  0  0  0
    9.1390  -15.6181   16.7321 O   0  0  0  0  0  0  0  0  0  0  0  0
   11.0364  -20.1433   27.6943 N   0  0  0  0  0  0  0  0  0  0  0  0
   12.4480  -20.1964   27.8464 C   0  0  0  0  0  0  0  0  0  0  0  0
   13.0043  -20.8968   28.7865 N   0  0  0  0  0  0  0  0  0  0  0  0
   13.3306  -19.4911   26.9787 N   0  0  0  0  0  0  0  0  0  0  0  0
   12.8260  -18.4666   26.1200 C   0  0  0  0  0  0  0  0  0  0  0  0
   13.1735  -18.6134   24.6736 C   0  0  0  0  0  0  0  0  0  0  0  0
   11.9530  -18.5858   23.7741 C   0  0  0  0  0  0  0  0  0  0  0  0
   12.1790  -17.5033   22.7022 C   0  0  2  0  0  0  0  0  0  0  0  0
   10.9763  -17.4841   21.8661 N   0  0  0  0  0  0  0  0  0  0  0  0
   13.3793  -17.8527   21.9297 C   0  0  0  0  0  0  0  0  0  0  0  0
   13.2925  -18.5118   20.8403 O   0  0  0  0  0  0  0  0  0  0  0  0
   14.6506  -17.4877   22.3402 O   0  0  0  0  0  0  0  0  0  0  0  0
  2 13  1  0
  2  1  1  1
  3  4  1  0
  3  2  1  0
  4  5  2  0
  6  5  1  0
  7  6  1  0
  8  7  2  0
  9  8  1  0
 10  9  2  0
 10 11  1  0
 11 12  2  0
 12  7  1  0
 12  4  1  0
 13 14  2  0
 15 16  1  0
 15 13  1  0
 17 18  1  0
 16 17  1  6
 19 18  1  0
 20 19  2  0
 21 22  2  0
 21 16  1  0
 23 19  1  0
 24 25  1  0
 25 27  1  0
 26 25  2  0
 27 28  1  0
 29 28  1  0
 30 29  1  0
 31 32  1  0
 31 30  1  1
 32 21  1  0
 33 31  1  0
 34 33  2  0
 35 33  1  0
M  END
$$$$
