WER.pdb
     RDKit          3D

 35 36  0  0  1  0  0  0  0  0999 V2000
    8.3084  -18.0349   20.6893 N   0  0  0  0  0  0  0  0  0  0  0  0
    9.4643  -17.1771   20.9298 C   0  0  1  0  0  0  0  0  0  0  0  0
    9.0013  -16.0954   21.8189 C   0  0  0  0  0  0  0  0  0  0  0  0
    8.0954  -15.1059   21.3314 C   0  0  0  0  0  0  0  0  0  0  0  0
    6.7359  -15.0902   21.5708 C   0  0  0  0  0  0  0  0  0  0  0  0
    6.2025  -14.0130   20.9635 N   0  0  0  0  0  0  0  0  0  0  0  0
    7.1744  -13.3130   20.3269 C   0  0  0  0  0  0  0  0  0  0  0  0
    7.1764  -12.1532   19.5682 C   0  0  0  0  0  0  0  0  0  0  0  0
    8.3773  -11.7092   19.0581 C   0  0  0  0  0  0  0  0  0  0  0  0
    9.5431  -12.4033   19.2979 C   0  0  0  0  0  0  0  0  0  0  0  0
    9.5437  -13.5503   20.0471 C   0  0  0  0  0  0  0  0  0  0  0  0
    8.3545  -14.0042   20.5624 C   0  0  0  0  0  0  0  0  0  0  0  0
   10.4868  -18.0731   21.5092 C   0  0  0  0  0  0  0  0  0  0  0  0
   10.1408  -19.0708   22.1810 O   0  0  0  0  0  0  0  0  0  0  0  0
   11.8737  -17.8579   21.3406 N   0  0  0  0  0  0  0  0  0  0  0  0
   12.8810  -18.7955   21.8595 C   0  0  1  0  0  0  0  0  0  0  0  0
   14.1975  -18.5037   21.1744 C   0  0  0  0  0  0  0  0  0  0  0  0
   14.3868  -17.0381   20.9338 C   0  0  0  0  0  0  0  0  0  0  0  0
   15.8456  -16.7135   20.7438 C   0  0  0  0  0  0  0  0  0  0  0  0
   16.2663  -16.1550   19.7062 O   0  0  0  0  0  0  0  0  0  0  0  0
   12.9905  -18.7187   23.3080 C   0  0  0  0  0  0  0  0  0  0  0  0
   12.8758  -17.5765   23.8512 O   0  0  0  0  0  0  0  0  0  0  0  0
   16.7617  -17.0323   21.7322 O   0  0  0  0  0  0  0  0  0  0  0  0
    9.8996  -22.2958   31.2782 N   0  0  0  0  0  0  0  0  0  0  0  0
   11.1462  -22.6075   30.6720 C   0  0  0  0  0  0  0  0  0  0  0  0
   11.6887  -23.7796   30.7978 N   0  0  0  0  0  0  0  0  0  0  0  0
   11.8678  -21.6587   29.8921 N   0  0  0  0  0  0  0  0  0  0  0  0
   11.9250  -21.7933   28.4707 C   0  0  0  0  0  0  0  0  0  0  0  0
   12.6439  -20.6979   27.7512 C   0  0  0  0  0  0  0  0  0  0  0  0
   12.5794  -20.8488   26.2438 C   0  0  0  0  0  0  0  0  0  0  0  0
   13.3200  -19.6534   25.6159 C   0  0  2  0  0  0  0  0  0  0  0  0
   13.2079  -19.8071   24.1634 N   0  0  0  0  0  0  0  0  0  0  0  0
   14.7190  -19.6812   26.0648 C   0  0  0  0  0  0  0  0  0  0  0  0
   15.6203  -20.2652   25.3753 O   0  0  0  0  0  0  0  0  0  0  0  0
   15.1252  -19.0811   27.2449 O   0  0  0  0  0  0  0  0  0  0  0  0
  2 13  1  0
  2  1  1  1
  3  4  1  0
  3  2  1  0
  4  5  2  0
  6  5  1  0
  7  6  1  0
  8  7  2  0
  9  8  1  0
 10  9  2  0
 10 11  1  0
 11 12  2  0
 12  7  1  0
 12  4  1  0
 13 14  2  0
 15 16  1  0
 15 13  1  0
 17 18  1  0
 16 17  1  6
 19 18  1  0
 20 19  2  0
 21 22  2  0
 21 16  1  0
 23 19  1  0
 24 25  1  0
 25 27  1  0
 26 25  2  0
 27 28  1  0
 29 28  1  0
 30 29  1  0
 31 32  1  0
 31 30  1  1
 32 21  1  0
 33 31  1  0
 34 33  2  0
 35 33  1  0
M  END
$$$$
