WER.pdb
     RDKit          3D

 35 36  0  0  1  0  0  0  0  0999 V2000
    8.2554  -17.3042   24.5485 N   0  0  0  0  0  0  0  0  0  0  0  0
    8.7830  -16.0460   24.0305 C   0  0  1  0  0  0  0  0  0  0  0  0
    8.8896  -15.1336   25.1842 C   0  0  0  0  0  0  0  0  0  0  0  0
    7.7101  -14.6186   25.8015 C   0  0  0  0  0  0  0  0  0  0  0  0
    6.7350  -15.3845   26.4086 C   0  0  0  0  0  0  0  0  0  0  0  0
    5.7766  -14.5665   26.8841 N   0  0  0  0  0  0  0  0  0  0  0  0
    6.0914  -13.2764   26.6077 C   0  0  0  0  0  0  0  0  0  0  0  0
    5.4697  -12.0646   26.8644 C   0  0  0  0  0  0  0  0  0  0  0  0
    6.0855  -10.9105   26.4303 C   0  0  0  0  0  0  0  0  0  0  0  0
    7.2872  -10.9642   25.7586 C   0  0  0  0  0  0  0  0  0  0  0  0
    7.9035  -12.1609   25.5032 C   0  0  0  0  0  0  0  0  0  0  0  0
    7.3019  -13.3190   25.9305 C   0  0  0  0  0  0  0  0  0  0  0  0
   10.0667  -16.4071   23.3937 C   0  0  0  0  0  0  0  0  0  0  0  0
   10.8560  -15.5117   23.0174 O   0  0  0  0  0  0  0  0  0  0  0  0
   10.4625  -17.7474   23.1808 N   0  0  0  0  0  0  0  0  0  0  0  0
   11.7723  -18.0967   22.6103 C   0  0  1  0  0  0  0  0  0  0  0  0
   12.3559  -19.2310   23.4228 C   0  0  0  0  0  0  0  0  0  0  0  0
   12.7661  -18.7821   24.7910 C   0  0  0  0  0  0  0  0  0  0  0  0
   13.3945  -19.9164   25.5578 C   0  0  0  0  0  0  0  0  0  0  0  0
   13.5743  -21.0413   25.0402 O   0  0  0  0  0  0  0  0  0  0  0  0
   11.6709  -18.4321   21.1985 C   0  0  0  0  0  0  0  0  0  0  0  0
   10.8538  -19.3448   20.8634 O   0  0  0  0  0  0  0  0  0  0  0  0
   13.7919  -19.7298   26.8712 O   0  0  0  0  0  0  0  0  0  0  0  0
    8.5338  -12.9296   16.8919 N   0  0  0  0  0  0  0  0  0  0  0  0
    8.3645  -13.3043   18.2518 C   0  0  0  0  0  0  0  0  0  0  0  0
    7.6434  -12.5973   19.0666 N   0  0  0  0  0  0  0  0  0  0  0  0
    8.9698  -14.4730   18.7967 N   0  0  0  0  0  0  0  0  0  0  0  0
   10.0919  -15.0707   18.1445 C   0  0  0  0  0  0  0  0  0  0  0  0
   10.5853  -16.3431   18.7543 C   0  0  0  0  0  0  0  0  0  0  0  0
   11.7834  -16.9155   18.0220 C   0  0  0  0  0  0  0  0  0  0  0  0
   12.2232  -18.1937   18.7599 C   0  0  2  0  0  0  0  0  0  0  0  0
   12.3997  -17.8255   20.1668 N   0  0  0  0  0  0  0  0  0  0  0  0
   13.4739  -18.6754   18.1572 C   0  0  0  0  0  0  0  0  0  0  0  0
   13.5089  -19.0799   16.9474 O   0  0  0  0  0  0  0  0  0  0  0  0
   14.6643  -18.7134   18.8639 O   0  0  0  0  0  0  0  0  0  0  0  0
  2 13  1  0
  2  1  1  1
  3  4  1  0
  3  2  1  0
  4  5  2  0
  6  5  1  0
  7  6  1  0
  8  7  2  0
  9  8  1  0
 10  9  2  0
 10 11  1  0
 11 12  2  0
 12  7  1  0
 12  4  1  0
 13 14  2  0
 15 16  1  0
 15 13  1  0
 17 18  1  0
 16 17  1  1
 19 18  1  0
 20 19  2  0
 21 22  2  0
 21 16  1  0
 23 19  1  0
 24 25  1  0
 25 27  1  0
 26 25  2  0
 27 28  1  0
 29 28  1  0
 30 29  1  0
 31 32  1  0
 31 30  1  6
 32 21  1  0
 33 31  1  0
 34 33  2  0
 35 33  1  0
M  END
$$$$
