PHM.pdb
     RDKit          3D

 26 27  0  0  1  0  0  0  0  0999 V2000
    9.4532  -14.4856   18.5305 N   0  0  0  0  0  0  0  0  0  0  0  0
    9.3715  -13.4951   17.4732 C   0  0  0  0  0  0  0  0  0  0  0  0
    7.9984  -12.8713   17.5572 C   0  0  0  0  0  0  0  0  0  0  0  0
    7.4020  -13.4961   18.8109 C   0  0  0  0  0  0  0  0  0  0  0  0
    8.6451  -13.8725   19.5720 C   0  0  1  0  0  0  0  0  0  0  0  0
    8.4046  -14.7704   20.7044 C   0  0  0  0  0  0  0  0  0  0  0  0
    7.4993  -14.5003   21.5090 O   0  0  0  0  0  0  0  0  0  0  0  0
    9.1812  -15.9636   20.9255 N   0  0  0  0  0  0  0  0  0  0  0  0
    9.0369  -16.7857   22.0843 C   0  0  1  0  0  0  0  0  0  0  0  0
    9.7401  -18.1157   21.9732 C   0  0  0  0  0  0  0  0  0  0  0  0
    9.0621  -18.9691   20.9674 C   0  0  0  0  0  0  0  0  0  0  0  0
    9.0455  -18.7978   19.6010 C   0  0  0  0  0  0  0  0  0  0  0  0
    8.3130  -19.7946   19.0396 N   0  0  0  0  0  0  0  0  0  0  0  0
    7.8758  -20.5805   20.0365 C   0  0  0  0  0  0  0  0  0  0  0  0
    8.3339  -20.0721   21.1903 N   0  0  0  0  0  0  0  0  0  0  0  0
    9.3325  -16.0803   23.3495 C   0  0  0  0  0  0  0  0  0  0  0  0
   10.4099  -15.4530   23.5559 O   0  0  0  0  0  0  0  0  0  0  0  0
    6.6494  -10.6100   27.2584 C   0  0  0  0  0  0  0  0  0  0  0  0
    6.0808  -12.3195   27.1012 S   0  0  0  0  0  0  0  0  0  0  0  0
    7.4900  -13.4660   26.9551 C   0  0  0  0  0  0  0  0  0  0  0  0
    7.3995  -14.2936   25.7148 C   0  0  0  0  0  0  0  0  0  0  0  0
    8.6088  -15.1789   25.5799 C   0  0  2  0  0  0  0  0  0  0  0  0
    8.4050  -16.0586   24.4451 N   0  0  0  0  0  0  0  0  0  0  0  0
    8.8665  -15.9689   26.8022 C   0  0  0  0  0  0  0  0  0  0  0  0
    8.5148  -17.1721   26.8528 O   0  0  0  0  0  0  0  0  0  0  0  0
    9.4909  -15.4252   27.9119 O   0  0  0  0  0  0  0  0  0  0  0  0
  1  2  1  0
  2  3  1  0
  4  3  1  0
  5  6  1  1
  5  1  1  0
  5  4  1  0
  6  8  1  0
  7  6  2  0
  8  9  1  0
  9 10  1  6
 10 11  1  0
 11 12  2  0
 11 15  1  0
 12 13  1  0
 13 14  1  0
 15 14  2  0
 16  9  1  0
 17 16  2  0
 18 19  1  0
 20 19  1  0
 21 20  1  0
 22 21  1  1
 22 23  1  0
 22 24  1  0
 23 16  1  0
 24 26  1  0
 25 24  2  0
M  END
$$$$
