PHM.pdb
     RDKit          3D

 26 27  0  0  1  0  0  0  0  0999 V2000
    8.7474  -14.8147   18.8712 N   0  0  0  0  0  0  0  0  0  0  0  0
    8.7924  -13.9241   17.7265 C   0  0  0  0  0  0  0  0  0  0  0  0
    7.8060  -12.8115   17.9932 C   0  0  0  0  0  0  0  0  0  0  0  0
    7.3313  -13.0922   19.4123 C   0  0  0  0  0  0  0  0  0  0  0  0
    8.4888  -13.8848   19.9584 C   0  0  1  0  0  0  0  0  0  0  0  0
    8.2055  -14.5612   21.2267 C   0  0  0  0  0  0  0  0  0  0  0  0
    7.8351  -13.8885   22.2015 O   0  0  0  0  0  0  0  0  0  0  0  0
    8.3401  -15.9860   21.3918 N   0  0  0  0  0  0  0  0  0  0  0  0
    7.9833  -16.6701   22.5936 C   0  0  1  0  0  0  0  0  0  0  0  0
    8.0198  -18.1730   22.4672 C   0  0  0  0  0  0  0  0  0  0  0  0
    7.4451  -18.8014   23.6814 C   0  0  0  0  0  0  0  0  0  0  0  0
    6.3528  -18.3769   24.4049 C   0  0  0  0  0  0  0  0  0  0  0  0
    6.1539  -19.2277   25.4451 N   0  0  0  0  0  0  0  0  0  0  0  0
    7.1057  -20.1723   25.3773 C   0  0  0  0  0  0  0  0  0  0  0  0
    7.8750  -19.9034   24.3117 N   0  0  0  0  0  0  0  0  0  0  0  0
    8.6966  -16.1738   23.7896 C   0  0  0  0  0  0  0  0  0  0  0  0
    9.9501  -16.0199   23.8329 O   0  0  0  0  0  0  0  0  0  0  0  0
    6.1186  -10.5009   25.6535 C   0  0  0  0  0  0  0  0  0  0  0  0
    6.4998  -11.8742   26.7666 S   0  0  0  0  0  0  0  0  0  0  0  0
    7.4641  -13.1616   25.9095 C   0  0  0  0  0  0  0  0  0  0  0  0
    7.8129  -14.2890   26.8255 C   0  0  0  0  0  0  0  0  0  0  0  0
    8.7189  -15.2716   26.1341 C   0  0  2  0  0  0  0  0  0  0  0  0
    8.0064  -15.8281   25.0001 N   0  0  0  0  0  0  0  0  0  0  0  0
    9.1707  -16.3512   27.0367 C   0  0  0  0  0  0  0  0  0  0  0  0
    8.6510  -17.4902   26.9557 O   0  0  0  0  0  0  0  0  0  0  0  0
   10.1609  -16.1526   27.9838 O   0  0  0  0  0  0  0  0  0  0  0  0
  1  2  1  0
  2  3  1  0
  4  3  1  0
  5  6  1  1
  5  1  1  0
  5  4  1  0
  6  8  1  0
  7  6  2  0
  8  9  1  0
  9 10  1  6
 10 11  1  0
 11 12  2  0
 11 15  1  0
 12 13  1  0
 13 14  1  0
 15 14  2  0
 16  9  1  0
 17 16  2  0
 18 19  1  0
 20 19  1  0
 21 20  1  0
 22 21  1  1
 22 23  1  0
 22 24  1  0
 23 16  1  0
 24 26  1  0
 25 24  2  0
M  END
$$$$
