PHM.pdb
     RDKit          3D

 26 27  0  0  1  0  0  0  0  0999 V2000
    9.2401  -14.6319   18.4313 N   0  0  0  0  0  0  0  0  0  0  0  0
    9.0970  -13.6821   17.3437 C   0  0  0  0  0  0  0  0  0  0  0  0
    7.7396  -13.0372   17.4960 C   0  0  0  0  0  0  0  0  0  0  0  0
    7.2236  -13.6050   18.8109 C   0  0  0  0  0  0  0  0  0  0  0  0
    8.5117  -13.9683   19.5003 C   0  0  1  0  0  0  0  0  0  0  0  0
    8.3396  -14.8184   20.6809 C   0  0  0  0  0  0  0  0  0  0  0  0
    7.6164  -14.4249   21.6094 O   0  0  0  0  0  0  0  0  0  0  0  0
    8.9798  -16.1024   20.8110 N   0  0  0  0  0  0  0  0  0  0  0  0
    8.8468  -16.9276   21.9690 C   0  0  1  0  0  0  0  0  0  0  0  0
    9.6042  -18.2289   21.8741 C   0  0  0  0  0  0  0  0  0  0  0  0
    9.0588  -19.0576   20.7718 C   0  0  0  0  0  0  0  0  0  0  0  0
    7.7340  -19.2543   20.4507 C   0  0  0  0  0  0  0  0  0  0  0  0
    7.6580  -20.0806   19.3752 N   0  0  0  0  0  0  0  0  0  0  0  0
    8.9145  -20.3989   19.0251 C   0  0  0  0  0  0  0  0  0  0  0  0
    9.7466  -19.7765   19.8736 N   0  0  0  0  0  0  0  0  0  0  0  0
    9.0908  -16.2088   23.2376 C   0  0  0  0  0  0  0  0  0  0  0  0
   10.2232  -15.7567   23.5694 O   0  0  0  0  0  0  0  0  0  0  0  0
    6.9227  -10.8663   28.1147 C   0  0  0  0  0  0  0  0  0  0  0  0
    6.6558  -11.8686   26.6334 S   0  0  0  0  0  0  0  0  0  0  0  0
    7.1418  -13.6015   26.9208 C   0  0  0  0  0  0  0  0  0  0  0  0
    6.9845  -14.4289   25.6869 C   0  0  0  0  0  0  0  0  0  0  0  0
    8.2712  -15.1353   25.3559 C   0  0  2  0  0  0  0  0  0  0  0  0
    8.0454  -15.9715   24.1927 N   0  0  0  0  0  0  0  0  0  0  0  0
    8.7725  -15.9487   26.4835 C   0  0  0  0  0  0  0  0  0  0  0  0
    9.1004  -15.3901   27.5580 O   0  0  0  0  0  0  0  0  0  0  0  0
    8.8968  -17.3251   26.4002 O   0  0  0  0  0  0  0  0  0  0  0  0
  1  2  1  0
  2  3  1  0
  4  3  1  0
  5  6  1  1
  5  1  1  0
  5  4  1  0
  6  8  1  0
  7  6  2  0
  8  9  1  0
  9 10  1  6
 10 11  1  0
 11 12  2  0
 11 15  1  0
 12 13  1  0
 13 14  1  0
 15 14  2  0
 16  9  1  0
 17 16  2  0
 18 19  1  0
 20 19  1  0
 21 20  1  0
 22 21  1  1
 22 23  1  0
 22 24  1  0
 23 16  1  0
 24 26  1  0
 25 24  2  0
M  END
$$$$
