PHM.pdb
     RDKit          3D

 26 27  0  0  1  0  0  0  0  0999 V2000
    9.1654  -14.5774   18.2523 N   0  0  0  0  0  0  0  0  0  0  0  0
    9.0377  -13.6162   17.1728 C   0  0  0  0  0  0  0  0  0  0  0  0
    7.8817  -12.7093   17.5232 C   0  0  0  0  0  0  0  0  0  0  0  0
    7.4873  -13.1631   18.9219 C   0  0  0  0  0  0  0  0  0  0  0  0
    8.7723  -13.7818   19.4038 C   0  0  1  0  0  0  0  0  0  0  0  0
    8.6310  -14.5815   20.6231 C   0  0  0  0  0  0  0  0  0  0  0  0
    8.1263  -14.0634   21.6314 O   0  0  0  0  0  0  0  0  0  0  0  0
    9.0570  -15.9555   20.7021 N   0  0  0  0  0  0  0  0  0  0  0  0
    8.9110  -16.7520   21.8784 C   0  0  1  0  0  0  0  0  0  0  0  0
    9.3039  -18.1955   21.6836 C   0  0  0  0  0  0  0  0  0  0  0  0
    8.4439  -18.8238   20.6516 C   0  0  0  0  0  0  0  0  0  0  0  0
    7.0723  -18.9463   20.6682 C   0  0  0  0  0  0  0  0  0  0  0  0
    6.6718  -19.5832   19.5371 N   0  0  0  0  0  0  0  0  0  0  0  0
    7.7735  -19.8571   18.8203 C   0  0  0  0  0  0  0  0  0  0  0  0
    8.8320  -19.3946   19.5026 N   0  0  0  0  0  0  0  0  0  0  0  0
    9.5192  -16.1455   23.0816 C   0  0  0  0  0  0  0  0  0  0  0  0
   10.7080  -15.7184   23.1149 O   0  0  0  0  0  0  0  0  0  0  0  0
    5.8936  -12.0420   28.1706 C   0  0  0  0  0  0  0  0  0  0  0  0
    7.1029  -12.1069   26.8276 S   0  0  0  0  0  0  0  0  0  0  0  0
    7.6518  -13.8182   26.5247 C   0  0  0  0  0  0  0  0  0  0  0  0
    8.6691  -13.8846   25.4328 C   0  0  0  0  0  0  0  0  0  0  0  0
    9.3391  -15.2319   25.4149 C   0  0  2  0  0  0  0  0  0  0  0  0
    8.7927  -15.9976   24.3111 N   0  0  0  0  0  0  0  0  0  0  0  0
    9.1618  -15.9650   26.6859 C   0  0  0  0  0  0  0  0  0  0  0  0
    9.6269  -15.4900   27.7499 O   0  0  0  0  0  0  0  0  0  0  0  0
    8.4921  -17.1750   26.7505 O   0  0  0  0  0  0  0  0  0  0  0  0
  1  2  1  0
  2  3  1  0
  4  3  1  0
  5  6  1  1
  5  1  1  0
  5  4  1  0
  6  8  1  0
  7  6  2  0
  8  9  1  0
  9 10  1  6
 10 11  1  0
 11 12  2  0
 11 15  1  0
 12 13  1  0
 13 14  1  0
 15 14  2  0
 16  9  1  0
 17 16  2  0
 18 19  1  0
 20 19  1  0
 21 20  1  0
 22 21  1  1
 22 23  1  0
 22 24  1  0
 23 16  1  0
 24 26  1  0
 25 24  2  0
M  END
$$$$
