PHM.pdb
     RDKit          3D

 26 27  0  0  1  0  0  0  0  0999 V2000
    7.7789  -18.7188   20.7043 N   0  0  0  0  0  0  0  0  0  0  0  0
    7.2820  -19.8021   19.8766 C   0  0  0  0  0  0  0  0  0  0  0  0
    7.7135  -19.5088   18.4591 C   0  0  0  0  0  0  0  0  0  0  0  0
    8.5875  -18.2707   18.6042 C   0  0  0  0  0  0  0  0  0  0  0  0
    9.0285  -18.3883   20.0388 C   0  0  1  0  0  0  0  0  0  0  0  0
    9.6520  -17.1757   20.5745 C   0  0  0  0  0  0  0  0  0  0  0  0
   10.8257  -16.9132   20.2689 O   0  0  0  0  0  0  0  0  0  0  0  0
    8.9546  -16.2674   21.4487 N   0  0  0  0  0  0  0  0  0  0  0  0
    9.5089  -15.0272   21.8894 C   0  0  1  0  0  0  0  0  0  0  0  0
    8.5772  -13.8533   21.7167 C   0  0  0  0  0  0  0  0  0  0  0  0
    8.1034  -13.7799   20.3133 C   0  0  0  0  0  0  0  0  0  0  0  0
    8.5644  -12.9471   19.3180 C   0  0  0  0  0  0  0  0  0  0  0  0
    7.8676  -13.1929   18.1781 N   0  0  0  0  0  0  0  0  0  0  0  0
    6.9825  -14.1646   18.4515 C   0  0  0  0  0  0  0  0  0  0  0  0
    7.1355  -14.5082   19.7393 N   0  0  0  0  0  0  0  0  0  0  0  0
   10.1085  -15.0947   23.2391 C   0  0  0  0  0  0  0  0  0  0  0  0
   10.7393  -14.1339   23.7642 O   0  0  0  0  0  0  0  0  0  0  0  0
    9.2445  -12.2750   28.0066 C   0  0  0  0  0  0  0  0  0  0  0  0
    8.5349  -13.8978   28.3718 S   0  0  0  0  0  0  0  0  0  0  0  0
    9.5109  -15.2272   27.5961 C   0  0  0  0  0  0  0  0  0  0  0  0
    9.3425  -15.2390   26.1118 C   0  0  0  0  0  0  0  0  0  0  0  0
   10.2952  -16.2169   25.4789 C   0  0  2  0  0  0  0  0  0  0  0  0
   10.0146  -16.2708   24.0571 N   0  0  0  0  0  0  0  0  0  0  0  0
   10.1939  -17.5660   26.0739 C   0  0  0  0  0  0  0  0  0  0  0  0
   10.4908  -17.7394   27.2805 O   0  0  0  0  0  0  0  0  0  0  0  0
    9.7776  -18.6643   25.3409 O   0  0  0  0  0  0  0  0  0  0  0  0
  1  2  1  0
  2  3  1  0
  4  3  1  0
  5  6  1  1
  5  1  1  0
  5  4  1  0
  6  8  1  0
  7  6  2  0
  8  9  1  0
  9 10  1  1
 10 11  1  0
 11 12  2  0
 11 15  1  0
 12 13  1  0
 13 14  1  0
 15 14  2  0
 16  9  1  0
 17 16  2  0
 18 19  1  0
 20 19  1  0
 21 20  1  0
 22 21  1  1
 22 23  1  0
 22 24  1  0
 23 16  1  0
 24 26  1  0
 25 24  2  0
M  END
$$$$
