PHM.pdb
     RDKit          3D

 26 27  0  0  1  0  0  0  0  0999 V2000
    6.5380  -17.6777   20.1791 N   0  0  0  0  0  0  0  0  0  0  0  0
    5.6961  -18.5473   19.3788 C   0  0  0  0  0  0  0  0  0  0  0  0
    6.5014  -18.9474   18.1651 C   0  0  0  0  0  0  0  0  0  0  0  0
    7.8732  -18.3453   18.4366 C   0  0  0  0  0  0  0  0  0  0  0  0
    7.8566  -18.2405   19.9382 C   0  0  1  0  0  0  0  0  0  0  0  0
    8.9338  -17.4166   20.4925 C   0  0  0  0  0  0  0  0  0  0  0  0
   10.0904  -17.8660   20.5118 O   0  0  0  0  0  0  0  0  0  0  0  0
    8.7055  -16.0959   21.0207 N   0  0  0  0  0  0  0  0  0  0  0  0
    9.7591  -15.2373   21.4593 C   0  0  1  0  0  0  0  0  0  0  0  0
    9.6261  -13.8174   20.9674 C   0  0  0  0  0  0  0  0  0  0  0  0
    8.9840  -13.7984   19.6306 C   0  0  0  0  0  0  0  0  0  0  0  0
    9.5855  -13.5447   18.4180 C   0  0  0  0  0  0  0  0  0  0  0  0
    8.6504  -13.6231   17.4358 N   0  0  0  0  0  0  0  0  0  0  0  0
    7.4793  -13.9213   18.0208 C   0  0  0  0  0  0  0  0  0  0  0  0
    7.6949  -14.0238   19.3409 N   0  0  0  0  0  0  0  0  0  0  0  0
   10.0250  -15.3228   22.9111 C   0  0  0  0  0  0  0  0  0  0  0  0
   10.9836  -14.7227   23.4749 O   0  0  0  0  0  0  0  0  0  0  0  0
    5.1934  -12.8277   27.1306 C   0  0  0  0  0  0  0  0  0  0  0  0
    6.9801  -13.0206   26.9290 S   0  0  0  0  0  0  0  0  0  0  0  0
    7.3640  -14.3445   25.7367 C   0  0  0  0  0  0  0  0  0  0  0  0
    8.8330  -14.4516   25.4875 C   0  0  0  0  0  0  0  0  0  0  0  0
    9.2225  -15.8812   25.2252 C   0  0  2  0  0  0  0  0  0  0  0  0
    9.2027  -16.1030   23.7921 N   0  0  0  0  0  0  0  0  0  0  0  0
    8.3286  -16.8415   25.9058 C   0  0  0  0  0  0  0  0  0  0  0  0
    8.3107  -16.8963   27.1591 O   0  0  0  0  0  0  0  0  0  0  0  0
    7.4965  -17.6972   25.2042 O   0  0  0  0  0  0  0  0  0  0  0  0
  1  2  1  0
  2  3  1  0
  4  3  1  0
  5  6  1  6
  5  1  1  0
  5  4  1  0
  6  8  1  0
  7  6  2  0
  8  9  1  0
  9 10  1  1
 10 11  1  0
 11 12  2  0
 11 15  1  0
 12 13  1  0
 13 14  1  0
 15 14  2  0
 16  9  1  0
 17 16  2  0
 18 19  1  0
 20 19  1  0
 21 20  1  0
 22 21  1  6
 22 23  1  0
 22 24  1  0
 23 16  1  0
 24 26  1  0
 25 24  2  0
M  END
$$$$
