PHM.pdb
     RDKit          3D

 26 27  0  0  1  0  0  0  0  0999 V2000
    7.6418  -13.9813   20.6569 N   0  0  0  0  0  0  0  0  0  0  0  0
    7.6137  -12.7080   19.9615 C   0  0  0  0  0  0  0  0  0  0  0  0
    8.6108  -12.8001   18.8306 C   0  0  0  0  0  0  0  0  0  0  0  0
    9.0738  -14.2494   18.8841 C   0  0  0  0  0  0  0  0  0  0  0  0
    7.9043  -14.9069   19.5669 C   0  0  1  0  0  0  0  0  0  0  0  0
    8.1723  -16.2696   20.0334 C   0  0  0  0  0  0  0  0  0  0  0  0
    8.4887  -17.1403   19.2078 O   0  0  0  0  0  0  0  0  0  0  0  0
    8.0832  -16.6449   21.4214 N   0  0  0  0  0  0  0  0  0  0  0  0
    9.2106  -17.0657   22.1906 C   0  0  1  0  0  0  0  0  0  0  0  0
   10.4009  -17.4607   21.3520 C   0  0  0  0  0  0  0  0  0  0  0  0
   10.1129  -18.7156   20.6161 C   0  0  0  0  0  0  0  0  0  0  0  0
   10.5707  -19.0767   19.3684 C   0  0  0  0  0  0  0  0  0  0  0  0
   10.0777  -20.3029   19.0545 N   0  0  0  0  0  0  0  0  0  0  0  0
    9.3217  -20.7070   20.0879 C   0  0  0  0  0  0  0  0  0  0  0  0
    9.3520  -19.7426   21.0199 N   0  0  0  0  0  0  0  0  0  0  0  0
    9.5589  -16.1356   23.2856 C   0  0  0  0  0  0  0  0  0  0  0  0
   10.7411  -15.7563   23.5208 O   0  0  0  0  0  0  0  0  0  0  0  0
    5.3990  -11.9509   26.5700 C   0  0  0  0  0  0  0  0  0  0  0  0
    7.1140  -11.5168   26.9452 S   0  0  0  0  0  0  0  0  0  0  0  0
    8.2048  -12.9684   26.7881 C   0  0  0  0  0  0  0  0  0  0  0  0
    7.9057  -13.7500   25.5506 C   0  0  0  0  0  0  0  0  0  0  0  0
    8.9463  -14.8150   25.3330 C   0  0  2  0  0  0  0  0  0  0  0  0
    8.5662  -15.5919   24.1689 N   0  0  0  0  0  0  0  0  0  0  0  0
    9.1038  -15.6959   26.5092 C   0  0  0  0  0  0  0  0  0  0  0  0
    8.6101  -16.8493   26.4951 O   0  0  0  0  0  0  0  0  0  0  0  0
    9.7856  -15.2928   27.6447 O   0  0  0  0  0  0  0  0  0  0  0  0
  1  2  1  0
  2  3  1  0
  4  3  1  0
  5  6  1  1
  5  1  1  0
  5  4  1  0
  6  8  1  0
  7  6  2  0
  8  9  1  0
  9 10  1  6
 10 11  1  0
 11 12  2  0
 11 15  1  0
 12 13  1  0
 13 14  1  0
 15 14  2  0
 16  9  1  0
 17 16  2  0
 18 19  1  0
 20 19  1  0
 21 20  1  0
 22 21  1  1
 22 23  1  0
 22 24  1  0
 23 16  1  0
 24 26  1  0
 25 24  2  0
M  END
$$$$
