PHM.pdb
     RDKit          3D

 26 27  0  0  1  0  0  0  0  0999 V2000
    7.9426  -14.9540   18.8731 N   0  0  0  0  0  0  0  0  0  0  0  0
    7.6616  -13.8734   17.9464 C   0  0  0  0  0  0  0  0  0  0  0  0
    7.3046  -12.6620   18.7751 C   0  0  0  0  0  0  0  0  0  0  0  0
    7.5448  -13.1280   20.2045 C   0  0  0  0  0  0  0  0  0  0  0  0
    8.5388  -14.2379   19.9891 C   0  0  1  0  0  0  0  0  0  0  0  0
    8.7475  -15.0902   21.1622 C   0  0  0  0  0  0  0  0  0  0  0  0
    7.8840  -15.1155   22.0531 O   0  0  0  0  0  0  0  0  0  0  0  0
    9.9228  -15.9071   21.3270 N   0  0  0  0  0  0  0  0  0  0  0  0
   10.1125  -16.7879   22.4351 C   0  0  1  0  0  0  0  0  0  0  0  0
   11.2386  -17.7724   22.2387 C   0  0  0  0  0  0  0  0  0  0  0  0
   11.2584  -18.7536   23.3506 C   0  0  0  0  0  0  0  0  0  0  0  0
   10.6603  -18.6302   24.5850 C   0  0  0  0  0  0  0  0  0  0  0  0
   10.9161  -19.7477   25.3137 N   0  0  0  0  0  0  0  0  0  0  0  0
   11.6630  -20.5613   24.5503 C   0  0  0  0  0  0  0  0  0  0  0  0
   11.8611  -19.9507   23.3723 N   0  0  0  0  0  0  0  0  0  0  0  0
   10.1742  -16.0927   23.7384 C   0  0  0  0  0  0  0  0  0  0  0  0
   10.5255  -14.8852   23.8619 O   0  0  0  0  0  0  0  0  0  0  0  0
    6.8973  -11.2462   26.9400 C   0  0  0  0  0  0  0  0  0  0  0  0
    6.7136  -12.9255   26.2946 S   0  0  0  0  0  0  0  0  0  0  0  0
    8.3298  -13.7590   26.1726 C   0  0  0  0  0  0  0  0  0  0  0  0
    8.1885  -15.1652   25.6889 C   0  0  0  0  0  0  0  0  0  0  0  0
    9.3701  -15.9932   26.1163 C   0  0  2  0  0  0  0  0  0  0  0  0
    9.8352  -16.7491   24.9694 N   0  0  0  0  0  0  0  0  0  0  0  0
    9.0439  -16.9039   27.2337 C   0  0  0  0  0  0  0  0  0  0  0  0
    8.4753  -17.9978   27.0009 O   0  0  0  0  0  0  0  0  0  0  0  0
    9.3457  -16.5932   28.5486 O   0  0  0  0  0  0  0  0  0  0  0  0
  1  2  1  0
  2  3  1  0
  4  3  1  0
  5  6  1  1
  5  1  1  0
  5  4  1  0
  6  8  1  0
  7  6  2  0
  8  9  1  0
  9 10  1  6
 10 11  1  0
 11 12  2  0
 11 15  1  0
 12 13  1  0
 13 14  1  0
 15 14  2  0
 16  9  1  0
 17 16  2  0
 18 19  1  0
 20 19  1  0
 21 20  1  0
 22 21  1  6
 22 23  1  0
 22 24  1  0
 23 16  1  0
 24 26  1  0
 25 24  2  0
M  END
$$$$
