PHM.pdb
     RDKit          3D

 26 27  0  0  1  0  0  0  0  0999 V2000
    8.9692  -14.5312   18.5513 N   0  0  0  0  0  0  0  0  0  0  0  0
    8.6492  -13.4655   17.6201 C   0  0  0  0  0  0  0  0  0  0  0  0
    7.4343  -12.7522   18.1652 C   0  0  0  0  0  0  0  0  0  0  0  0
    7.2083  -13.4195   19.5149 C   0  0  0  0  0  0  0  0  0  0  0  0
    8.5883  -13.9367   19.8222 C   0  0  1  0  0  0  0  0  0  0  0  0
    8.6358  -14.8926   20.9314 C   0  0  0  0  0  0  0  0  0  0  0  0
    8.2259  -14.5430   22.0493 O   0  0  0  0  0  0  0  0  0  0  0  0
    9.1428  -16.2324   20.7783 N   0  0  0  0  0  0  0  0  0  0  0  0
    9.1657  -17.1851   21.8420 C   0  0  1  0  0  0  0  0  0  0  0  0
    9.4451  -18.5952   21.3846 C   0  0  0  0  0  0  0  0  0  0  0  0
    8.3402  -19.0806   20.5226 C   0  0  0  0  0  0  0  0  0  0  0  0
    7.1864  -18.4086   20.1852 C   0  0  0  0  0  0  0  0  0  0  0  0
    6.4337  -19.2005   19.3779 N   0  0  0  0  0  0  0  0  0  0  0  0
    7.1029  -20.3522   19.2100 C   0  0  0  0  0  0  0  0  0  0  0  0
    8.2478  -20.2661   19.9040 N   0  0  0  0  0  0  0  0  0  0  0  0
   10.0055  -16.7723   22.9865 C   0  0  0  0  0  0  0  0  0  0  0  0
   10.9806  -15.9761   22.8769 O   0  0  0  0  0  0  0  0  0  0  0  0
   10.2752  -12.5166   28.9955 C   0  0  0  0  0  0  0  0  0  0  0  0
    9.4371  -13.3121   27.6045 S   0  0  0  0  0  0  0  0  0  0  0  0
   10.3239  -14.8157   27.0806 C   0  0  0  0  0  0  0  0  0  0  0  0
    9.6807  -15.4469   25.8892 C   0  0  0  0  0  0  0  0  0  0  0  0
   10.4490  -16.6664   25.4570 C   0  0  2  0  0  0  0  0  0  0  0  0
    9.7689  -17.2532   24.3184 N   0  0  0  0  0  0  0  0  0  0  0  0
   10.5838  -17.6601   26.5426 C   0  0  0  0  0  0  0  0  0  0  0  0
   11.4547  -17.4986   27.4313 O   0  0  0  0  0  0  0  0  0  0  0  0
    9.7743  -18.7807   26.6196 O   0  0  0  0  0  0  0  0  0  0  0  0
  1  2  1  0
  2  3  1  0
  4  3  1  0
  5  6  1  1
  5  1  1  0
  5  4  1  0
  6  8  1  0
  7  6  2  0
  8  9  1  0
  9 10  1  6
 10 11  1  0
 11 12  2  0
 11 15  1  0
 12 13  1  0
 13 14  1  0
 15 14  2  0
 16  9  1  0
 17 16  2  0
 18 19  1  0
 20 19  1  0
 21 20  1  0
 22 21  1  1
 22 23  1  0
 22 24  1  0
 23 16  1  0
 24 26  1  0
 25 24  2  0
M  END
$$$$
