PHM.pdb
     RDKit          3D

 26 27  0  0  1  0  0  0  0  0999 V2000
    8.4281  -15.0557   18.4958 N   0  0  0  0  0  0  0  0  0  0  0  0
    8.4214  -14.1252   17.3825 C   0  0  0  0  0  0  0  0  0  0  0  0
    7.6377  -12.9121   17.8252 C   0  0  0  0  0  0  0  0  0  0  0  0
    7.3423  -13.1974   19.2912 C   0  0  0  0  0  0  0  0  0  0  0  0
    8.4538  -14.1527   19.6348 C   0  0  1  0  0  0  0  0  0  0  0  0
    8.2727  -14.8470   20.9121 C   0  0  0  0  0  0  0  0  0  0  0  0
    8.3050  -14.1929   21.9662 O   0  0  0  0  0  0  0  0  0  0  0  0
    8.0572  -16.2690   20.9972 N   0  0  0  0  0  0  0  0  0  0  0  0
    7.8043  -16.9482   22.2277 C   0  0  1  0  0  0  0  0  0  0  0  0
    7.5014  -18.4162   22.0566 C   0  0  0  0  0  0  0  0  0  0  0  0
    7.1469  -19.0200   23.3640 C   0  0  0  0  0  0  0  0  0  0  0  0
    6.0837  -18.6917   24.1755 C   0  0  0  0  0  0  0  0  0  0  0  0
    6.1136  -19.4780   25.2828 N   0  0  0  0  0  0  0  0  0  0  0  0
    7.1783  -20.2880   25.1701 C   0  0  0  0  0  0  0  0  0  0  0  0
    7.7905  -20.0015   24.0112 N   0  0  0  0  0  0  0  0  0  0  0  0
    8.8225  -16.6862   23.2671 C   0  0  0  0  0  0  0  0  0  0  0  0
   10.0655  -16.7416   23.0468 O   0  0  0  0  0  0  0  0  0  0  0  0
   10.4313  -12.7278   29.8699 C   0  0  0  0  0  0  0  0  0  0  0  0
    9.2716  -13.1224   28.5396 S   0  0  0  0  0  0  0  0  0  0  0  0
    9.8815  -14.5137   27.5325 C   0  0  0  0  0  0  0  0  0  0  0  0
    8.9112  -14.8818   26.4579 C   0  0  0  0  0  0  0  0  0  0  0  0
    9.4767  -15.9684   25.5839 C   0  0  2  0  0  0  0  0  0  0  0  0
    8.4655  -16.3464   24.6156 N   0  0  0  0  0  0  0  0  0  0  0  0
    9.9088  -17.1482   26.3622 C   0  0  0  0  0  0  0  0  0  0  0  0
   10.9674  -17.0987   27.0338 O   0  0  0  0  0  0  0  0  0  0  0  0
    9.1802  -18.3254   26.3801 O   0  0  0  0  0  0  0  0  0  0  0  0
  1  2  1  0
  2  3  1  0
  4  3  1  0
  5  6  1  1
  5  1  1  0
  5  4  1  0
  6  8  1  0
  7  6  2  0
  8  9  1  0
  9 10  1  6
 10 11  1  0
 11 12  2  0
 11 15  1  0
 12 13  1  0
 13 14  1  0
 15 14  2  0
 16  9  1  0
 17 16  2  0
 18 19  1  0
 20 19  1  0
 21 20  1  0
 22 21  1  1
 22 23  1  0
 22 24  1  0
 23 16  1  0
 24 26  1  0
 25 24  2  0
M  END
$$$$
