PHM.pdb
     RDKit          3D

 26 27  0  0  1  0  0  0  0  0999 V2000
    9.3775  -14.3555   18.9723 N   0  0  0  0  0  0  0  0  0  0  0  0
    9.2322  -13.3706   17.9167 C   0  0  0  0  0  0  0  0  0  0  0  0
    7.9109  -12.6737   18.1413 C   0  0  0  0  0  0  0  0  0  0  0  0
    7.4238  -13.2558   19.4611 C   0  0  0  0  0  0  0  0  0  0  0  0
    8.7215  -13.6919   20.0872 C   0  0  1  0  0  0  0  0  0  0  0  0
    8.5601  -14.5667   21.2513 C   0  0  0  0  0  0  0  0  0  0  0  0
    7.7460  -14.2546   22.1343 O   0  0  0  0  0  0  0  0  0  0  0  0
    9.3130  -15.7839   21.4160 N   0  0  0  0  0  0  0  0  0  0  0  0
    9.1722  -16.6420   22.5488 C   0  0  1  0  0  0  0  0  0  0  0  0
    9.6315  -18.0566   22.2963 C   0  0  0  0  0  0  0  0  0  0  0  0
    8.7835  -18.6909   21.2581 C   0  0  0  0  0  0  0  0  0  0  0  0
    9.0145  -18.7327   19.9010 C   0  0  0  0  0  0  0  0  0  0  0  0
    7.9999  -19.4074   19.3005 N   0  0  0  0  0  0  0  0  0  0  0  0
    7.1442  -19.7842   20.2640 C   0  0  0  0  0  0  0  0  0  0  0  0
    7.6281  -19.3466   21.4362 N   0  0  0  0  0  0  0  0  0  0  0  0
    9.7239  -16.0697   23.7954 C   0  0  0  0  0  0  0  0  0  0  0  0
   10.9331  -15.7257   23.9223 O   0  0  0  0  0  0  0  0  0  0  0  0
    5.2901  -12.7752   26.2048 C   0  0  0  0  0  0  0  0  0  0  0  0
    6.8834  -12.2489   26.8790 S   0  0  0  0  0  0  0  0  0  0  0  0
    8.2495  -13.2167   26.1587 C   0  0  0  0  0  0  0  0  0  0  0  0
    8.4508  -14.5076   26.8830 C   0  0  0  0  0  0  0  0  0  0  0  0
    9.4899  -15.3468   26.1898 C   0  0  2  0  0  0  0  0  0  0  0  0
    8.9143  -15.8626   24.9628 N   0  0  0  0  0  0  0  0  0  0  0  0
    9.9725  -16.4574   27.0372 C   0  0  0  0  0  0  0  0  0  0  0  0
   10.5827  -16.2077   28.1046 O   0  0  0  0  0  0  0  0  0  0  0  0
    9.7750  -17.7842   26.6945 O   0  0  0  0  0  0  0  0  0  0  0  0
  1  2  1  0
  2  3  1  0
  4  3  1  0
  5  6  1  1
  5  1  1  0
  5  4  1  0
  6  8  1  0
  7  6  2  0
  8  9  1  0
  9 10  1  6
 10 11  1  0
 11 12  2  0
 11 15  1  0
 12 13  1  0
 13 14  1  0
 15 14  2  0
 16  9  1  0
 17 16  2  0
 18 19  1  0
 20 19  1  0
 21 20  1  0
 22 21  1  1
 22 23  1  0
 22 24  1  0
 23 16  1  0
 24 26  1  0
 25 24  2  0
M  END
$$$$
