DFL.pdb
     RDKit          3D

 28 28  0  0  1  0  0  0  0  0999 V2000
   26.5808  -22.4450  -13.4875 N   0  0  0  0  0  0  0  0  0  0  0  0
   26.3714  -21.1113  -12.9450 C   0  0  1  0  0  0  0  0  0  0  0  0
   25.1386  -20.4976  -13.5115 C   0  0  0  0  0  0  0  0  0  0  0  0
   25.4934  -19.6168  -14.6677 C   0  0  0  0  0  0  0  0  0  0  0  0
   25.4300  -20.0121  -15.8396 O   0  0  0  0  0  0  0  0  0  0  0  0
   26.2651  -21.1710  -11.4579 C   0  0  0  0  0  0  0  0  0  0  0  0
   25.6719  -22.1223  -10.9048 O   0  0  0  0  0  0  0  0  0  0  0  0
   25.9024  -18.3185  -14.3785 O   0  0  0  0  0  0  0  0  0  0  0  0
   26.8106  -20.1733  -10.6079 N   0  0  0  0  0  0  0  0  0  0  0  0
   26.7434  -20.3126   -9.1957 C   0  0  1  0  0  0  0  0  0  0  0  0
   27.9269  -19.7835   -8.4771 C   0  0  0  0  0  0  0  0  0  0  0  0
   27.9085  -19.8510   -7.0263 C   0  0  0  0  0  0  0  0  0  0  0  0
   27.8364  -18.6556   -6.3286 C   0  0  0  0  0  0  0  0  0  0  0  0
   27.8019  -18.5751   -4.9743 C   0  0  0  0  0  0  0  0  0  0  0  0
   27.8336  -19.7338   -4.1982 C   0  0  0  0  0  0  0  0  0  0  0  0
   27.9061  -20.9363   -4.8690 C   0  0  0  0  0  0  0  0  0  0  0  0
   27.9404  -20.9925   -6.2475 C   0  0  0  0  0  0  0  0  0  0  0  0
   25.4299  -20.1174   -8.5700 C   0  0  0  0  0  0  0  0  0  0  0  0
   25.2440  -19.1331   -7.8295 O   0  0  0  0  0  0  0  0  0  0  0  0
   21.4848  -19.0551   -9.8952 C   0  0  0  0  0  0  0  0  0  0  0  0
   21.7704  -20.4787  -10.2371 C   0  0  2  0  0  0  0  0  0  0  0  0
   20.8443  -21.0352  -11.2559 C   0  0  0  0  0  0  0  0  0  0  0  0
   22.0506  -21.3806   -9.0972 C   0  0  0  0  0  0  0  0  0  0  0  0
   23.0808  -20.9217   -8.1045 C   0  0  2  0  0  0  0  0  0  0  0  0
   24.3907  -21.0252   -8.8077 N   0  0  0  0  0  0  0  0  0  0  0  0
   23.1312  -21.6602   -6.8518 C   0  0  0  0  0  0  0  0  0  0  0  0
   23.9191  -22.6394   -6.6890 O   0  0  0  0  0  0  0  0  0  0  0  0
   22.3431  -21.3802   -5.7233 O   0  0  0  0  0  0  0  0  0  0  0  0
  2  6  1  0
  2  1  1  6
  3  2  1  0
  4  3  1  0
  4  8  1  0
  5  4  2  0
  6  7  2  0
  9  6  1  0
 10  9  1  0
 11 12  1  0
 10 11  1  1
 12 17  2  0
 13 14  2  0
 13 12  1  0
 14 15  1  0
 15 16  2  0
 17 16  1  0
 18 10  1  0
 19 18  2  0
 21 20  1  1
 21 23  1  0
 22 21  1  0
 24 23  1  6
 24 25  1  0
 24 26  1  0
 25 18  1  0
 26 27  2  0
 26 28  1  0
M  END
$$$$
