DFL.pdb
     RDKit          3D

 28 28  0  0  1  0  0  0  0  0999 V2000
   20.0169  -10.9438  -16.9053 N   0  0  0  0  0  0  0  0  0  0  0  0
   20.1547   -9.6754  -17.6045 C   0  0  1  0  0  0  0  0  0  0  0  0
   19.0837   -9.5163  -18.6269 C   0  0  0  0  0  0  0  0  0  0  0  0
   19.3367  -10.4392  -19.7770 C   0  0  0  0  0  0  0  0  0  0  0  0
   18.9942  -11.6291  -19.7532 O   0  0  0  0  0  0  0  0  0  0  0  0
   20.0952   -8.5434  -16.6343 C   0  0  0  0  0  0  0  0  0  0  0  0
   19.2486   -8.5437  -15.7145 O   0  0  0  0  0  0  0  0  0  0  0  0
   19.9785   -9.9083  -20.8917 O   0  0  0  0  0  0  0  0  0  0  0  0
   20.9686   -7.4263  -16.7025 N   0  0  0  0  0  0  0  0  0  0  0  0
   20.8678   -6.3724  -15.7552 C   0  0  1  0  0  0  0  0  0  0  0  0
   21.9496   -6.3622  -14.7419 C   0  0  0  0  0  0  0  0  0  0  0  0
   22.1240   -7.5634  -13.9441 C   0  0  0  0  0  0  0  0  0  0  0  0
   21.3809   -7.6744  -12.7794 C   0  0  0  0  0  0  0  0  0  0  0  0
   21.4395   -8.7455  -11.9480 C   0  0  0  0  0  0  0  0  0  0  0  0
   22.2764   -9.8218  -12.2429 C   0  0  0  0  0  0  0  0  0  0  0  0
   23.0271   -9.7351  -13.3963 C   0  0  0  0  0  0  0  0  0  0  0  0
   22.9505   -8.6349  -14.2259 C   0  0  0  0  0  0  0  0  0  0  0  0
   20.3954   -5.0744  -16.2522 C   0  0  0  0  0  0  0  0  0  0  0  0
   21.0578   -4.4717  -17.1180 O   0  0  0  0  0  0  0  0  0  0  0  0
   17.2891   -3.2526  -18.9310 C   0  0  0  0  0  0  0  0  0  0  0  0
   16.7220   -3.9116  -17.7189 C   0  0  2  0  0  0  0  0  0  0  0  0
   15.2548   -4.1266  -17.7995 C   0  0  0  0  0  0  0  0  0  0  0  0
   17.2021   -3.4033  -16.4141 C   0  0  0  0  0  0  0  0  0  0  0  0
   18.6850   -3.2154  -16.2616 C   0  0  2  0  0  0  0  0  0  0  0  0
   19.2064   -4.5196  -15.7635 N   0  0  0  0  0  0  0  0  0  0  0  0
   19.1025   -2.1425  -15.3719 C   0  0  0  0  0  0  0  0  0  0  0  0
   19.3966   -2.3618  -14.1589 O   0  0  0  0  0  0  0  0  0  0  0  0
   19.2243   -0.7935  -15.7440 O   0  0  0  0  0  0  0  0  0  0  0  0
  2  6  1  0
  2  1  1  1
  3  2  1  0
  4  3  1  0
  4  8  1  0
  5  4  2  0
  6  7  2  0
  9  6  1  0
 10  9  1  0
 11 12  1  0
 10 11  1  6
 12 17  2  0
 13 14  2  0
 13 12  1  0
 14 15  1  0
 15 16  2  0
 17 16  1  0
 18 10  1  0
 19 18  2  0
 21 20  1  6
 21 23  1  0
 22 21  1  0
 24 23  1  1
 24 25  1  0
 24 26  1  0
 25 18  1  0
 26 27  2  0
 26 28  1  0
M  END
$$$$
