DFL.pdb
     RDKit          3D

 28 28  0  0  1  0  0  0  0  0999 V2000
   27.0026  -23.3319  -17.4347 N   0  0  0  0  0  0  0  0  0  0  0  0
   27.0540  -21.9867  -16.8828 C   0  0  1  0  0  0  0  0  0  0  0  0
   26.3783  -21.0173  -17.7891 C   0  0  0  0  0  0  0  0  0  0  0  0
   27.2207  -20.7831  -19.0031 C   0  0  0  0  0  0  0  0  0  0  0  0
   28.3107  -20.1979  -18.9447 O   0  0  0  0  0  0  0  0  0  0  0  0
   26.4043  -21.9558  -15.5400 C   0  0  0  0  0  0  0  0  0  0  0  0
   25.2867  -22.4882  -15.3667 O   0  0  0  0  0  0  0  0  0  0  0  0
   26.7324  -21.2526  -20.2186 O   0  0  0  0  0  0  0  0  0  0  0  0
   26.9989  -21.3298  -14.4130 N   0  0  0  0  0  0  0  0  0  0  0  0
   26.2663  -21.1693  -13.2064 C   0  0  1  0  0  0  0  0  0  0  0  0
   27.0996  -20.8103  -12.0343 C   0  0  0  0  0  0  0  0  0  0  0  0
   26.4156  -20.6125  -10.7682 C   0  0  0  0  0  0  0  0  0  0  0  0
   26.2964  -21.7059   -9.9250 C   0  0  0  0  0  0  0  0  0  0  0  0
   25.6911  -21.6583   -8.7112 C   0  0  0  0  0  0  0  0  0  0  0  0
   25.1476  -20.4628   -8.2409 C   0  0  0  0  0  0  0  0  0  0  0  0
   25.2528  -19.3601   -9.0620 C   0  0  0  0  0  0  0  0  0  0  0  0
   25.8729  -19.4335  -10.2928 C   0  0  0  0  0  0  0  0  0  0  0  0
   24.9419  -20.5450  -13.3106 C   0  0  0  0  0  0  0  0  0  0  0  0
   24.8403  -19.3993  -13.7887 O   0  0  0  0  0  0  0  0  0  0  0  0
   20.9118  -20.5880  -16.5052 C   0  0  0  0  0  0  0  0  0  0  0  0
   21.5787  -20.0948  -15.2655 C   0  0  2  0  0  0  0  0  0  0  0  0
   22.7244  -19.1894  -15.5354 C   0  0  0  0  0  0  0  0  0  0  0  0
   21.8223  -21.1031  -14.2094 C   0  0  0  0  0  0  0  0  0  0  0  0
   22.4450  -20.6134  -12.9327 C   0  0  2  0  0  0  0  0  0  0  0  0
   23.7997  -21.2327  -12.8829 N   0  0  0  0  0  0  0  0  0  0  0  0
   21.7157  -20.9179  -11.7110 C   0  0  0  0  0  0  0  0  0  0  0  0
   20.7178  -20.2285  -11.3436 O   0  0  0  0  0  0  0  0  0  0  0  0
   22.0227  -21.9722  -10.8351 O   0  0  0  0  0  0  0  0  0  0  0  0
  2  6  1  0
  2  1  1  6
  3  2  1  0
  4  3  1  0
  4  8  1  0
  5  4  2  0
  6  7  2  0
  9  6  1  0
 10  9  1  0
 11 12  1  0
 10 11  1  1
 12 17  2  0
 13 14  2  0
 13 12  1  0
 14 15  1  0
 15 16  2  0
 17 16  1  0
 18 10  1  0
 19 18  2  0
 21 20  1  6
 21 23  1  0
 22 21  1  0
 24 23  1  6
 24 25  1  0
 24 26  1  0
 25 18  1  0
 26 27  2  0
 26 28  1  0
M  END
$$$$
