DFL.pdb
     RDKit          3D

 28 28  0  0  1  0  0  0  0  0999 V2000
   27.5315  -22.8772  -17.8477 N   0  0  0  0  0  0  0  0  0  0  0  0
   27.3302  -21.5469  -17.2940 C   0  0  1  0  0  0  0  0  0  0  0  0
   26.5189  -20.7069  -18.2179 C   0  0  0  0  0  0  0  0  0  0  0  0
   27.3884  -20.1632  -19.3074 C   0  0  0  0  0  0  0  0  0  0  0  0
   28.1740  -19.2251  -19.1158 O   0  0  0  0  0  0  0  0  0  0  0  0
   26.6492  -21.6381  -15.9695 C   0  0  0  0  0  0  0  0  0  0  0  0
   25.6257  -22.3427  -15.8327 O   0  0  0  0  0  0  0  0  0  0  0  0
   27.2846  -20.7560  -20.5621 O   0  0  0  0  0  0  0  0  0  0  0  0
   27.1078  -20.9423  -14.8202 N   0  0  0  0  0  0  0  0  0  0  0  0
   26.3451  -20.9466  -13.6216 C   0  0  1  0  0  0  0  0  0  0  0  0
   27.1221  -20.6024  -12.4072 C   0  0  0  0  0  0  0  0  0  0  0  0
   26.3922  -20.5123  -11.1546 C   0  0  0  0  0  0  0  0  0  0  0  0
   26.2657  -21.6681  -10.4004 C   0  0  0  0  0  0  0  0  0  0  0  0
   25.6191  -21.7224   -9.2084 C   0  0  0  0  0  0  0  0  0  0  0  0
   25.0371  -20.5750   -8.6692 C   0  0  0  0  0  0  0  0  0  0  0  0
   25.1486  -19.4119   -9.4012 C   0  0  0  0  0  0  0  0  0  0  0  0
   25.8111  -19.3818  -10.6116 C   0  0  0  0  0  0  0  0  0  0  0  0
   24.9684  -20.4446  -13.7077 C   0  0  0  0  0  0  0  0  0  0  0  0
   24.7624  -19.2886  -14.1233 O   0  0  0  0  0  0  0  0  0  0  0  0
   21.7175  -19.5551  -15.9598 C   0  0  0  0  0  0  0  0  0  0  0  0
   21.9197  -21.0096  -15.6983 C   0  0  2  0  0  0  0  0  0  0  0  0
   21.2932  -21.8833  -16.7228 C   0  0  0  0  0  0  0  0  0  0  0  0
   21.7227  -21.4556  -14.3006 C   0  0  0  0  0  0  0  0  0  0  0  0
   22.5025  -20.7318  -13.2397 C   0  0  2  0  0  0  0  0  0  0  0  0
   23.8932  -21.2594  -13.3327 N   0  0  0  0  0  0  0  0  0  0  0  0
   22.0087  -20.8735  -11.8784 C   0  0  0  0  0  0  0  0  0  0  0  0
   21.2605  -19.9985  -11.3486 O   0  0  0  0  0  0  0  0  0  0  0  0
   22.2933  -21.9566  -11.0306 O   0  0  0  0  0  0  0  0  0  0  0  0
  2  6  1  0
  2  1  1  6
  3  2  1  0
  4  3  1  0
  4  8  1  0
  5  4  2  0
  6  7  2  0
  9  6  1  0
 10  9  1  0
 11 12  1  0
 10 11  1  1
 12 17  2  0
 13 14  2  0
 13 12  1  0
 14 15  1  0
 15 16  2  0
 17 16  1  0
 18 10  1  0
 19 18  2  0
 21 20  1  1
 21 23  1  0
 22 21  1  0
 24 23  1  6
 24 25  1  0
 24 26  1  0
 25 18  1  0
 26 27  2  0
 26 28  1  0
M  END
$$$$
