DFL.pdb
     RDKit          3D

 28 28  0  0  1  0  0  0  0  0999 V2000
   27.7734  -22.3371  -16.0886 N   0  0  0  0  0  0  0  0  0  0  0  0
   27.8697  -21.0683  -15.3832 C   0  0  1  0  0  0  0  0  0  0  0  0
   27.0719  -20.0175  -16.0738 C   0  0  0  0  0  0  0  0  0  0  0  0
   27.6543  -19.7414  -17.4240 C   0  0  0  0  0  0  0  0  0  0  0  0
   28.8496  -19.4571  -17.5793 O   0  0  0  0  0  0  0  0  0  0  0  0
   27.3893  -21.2220  -13.9790 C   0  0  0  0  0  0  0  0  0  0  0  0
   26.2571  -21.6985  -13.7474 O   0  0  0  0  0  0  0  0  0  0  0  0
   26.7958  -19.8168  -18.5165 O   0  0  0  0  0  0  0  0  0  0  0  0
   28.1669  -20.8391  -12.8546 N   0  0  0  0  0  0  0  0  0  0  0  0
   27.5798  -20.7628  -11.5632 C   0  0  1  0  0  0  0  0  0  0  0  0
   28.5422  -20.4639  -10.4762 C   0  0  0  0  0  0  0  0  0  0  0  0
   27.9921  -20.1540   -9.1681 C   0  0  0  0  0  0  0  0  0  0  0  0
   28.2716  -21.0288   -8.1302 C   0  0  0  0  0  0  0  0  0  0  0  0
   27.8300  -20.8544   -6.8588 C   0  0  0  0  0  0  0  0  0  0  0  0
   27.0518  -19.7447   -6.5288 C   0  0  0  0  0  0  0  0  0  0  0  0
   26.7591  -18.8594   -7.5447 C   0  0  0  0  0  0  0  0  0  0  0  0
   27.2196  -19.0587   -8.8303 C   0  0  0  0  0  0  0  0  0  0  0  0
   26.2478  -20.1524  -11.4732 C   0  0  0  0  0  0  0  0  0  0  0  0
   26.0229  -19.0816  -12.0685 O   0  0  0  0  0  0  0  0  0  0  0  0
   20.9920  -21.1068  -11.7151 C   0  0  0  0  0  0  0  0  0  0  0  0
   21.9929  -20.4854  -12.6300 C   0  0  2  0  0  0  0  0  0  0  0  0
   21.6832  -20.6931  -14.0675 C   0  0  0  0  0  0  0  0  0  0  0  0
   23.4157  -20.6781  -12.2695 C   0  0  0  0  0  0  0  0  0  0  0  0
   23.8074  -20.3600  -10.8542 C   0  0  2  0  0  0  0  0  0  0  0  0
   25.2347  -20.7706  -10.7303 N   0  0  0  0  0  0  0  0  0  0  0  0
   23.0155  -21.0005   -9.8152 C   0  0  0  0  0  0  0  0  0  0  0  0
   23.2935  -22.1610   -9.3884 O   0  0  0  0  0  0  0  0  0  0  0  0
   21.8968  -20.4255   -9.1900 O   0  0  0  0  0  0  0  0  0  0  0  0
  2  6  1  0
  2  1  1  6
  3  2  1  0
  4  3  1  0
  4  8  1  0
  5  4  2  0
  6  7  2  0
  9  6  1  0
 10  9  1  0
 11 12  1  0
 10 11  1  1
 12 17  2  0
 13 14  2  0
 13 12  1  0
 14 15  1  0
 15 16  2  0
 17 16  1  0
 18 10  1  0
 19 18  2  0
 21 20  1  1
 21 23  1  0
 22 21  1  0
 24 23  1  6
 24 25  1  0
 24 26  1  0
 25 18  1  0
 26 27  2  0
 26 28  1  0
M  END
$$$$
