DFL.pdb
     RDKit          3D

 28 28  0  0  1  0  0  0  0  0999 V2000
   17.4857  -12.7633  -18.0391 N   0  0  0  0  0  0  0  0  0  0  0  0
   17.2077  -11.9244  -16.8834 C   0  0  1  0  0  0  0  0  0  0  0  0
   17.7306  -12.5506  -15.6376 C   0  0  0  0  0  0  0  0  0  0  0  0
   16.7384  -13.5377  -15.1089 C   0  0  0  0  0  0  0  0  0  0  0  0
   16.9708  -14.2342  -14.1115 O   0  0  0  0  0  0  0  0  0  0  0  0
   17.8231  -10.5773  -17.0650 C   0  0  0  0  0  0  0  0  0  0  0  0
   18.9140  -10.4567  -17.6633 O   0  0  0  0  0  0  0  0  0  0  0  0
   15.5268  -13.6486  -15.7843 O   0  0  0  0  0  0  0  0  0  0  0  0
   17.2246   -9.3868  -16.5749 N   0  0  0  0  0  0  0  0  0  0  0  0
   17.8780   -8.1346  -16.7278 C   0  0  1  0  0  0  0  0  0  0  0  0
   17.0100   -7.0593  -17.2639 C   0  0  0  0  0  0  0  0  0  0  0  0
   17.6222   -5.7615  -17.4893 C   0  0  0  0  0  0  0  0  0  0  0  0
   18.2172   -5.5373  -18.7208 C   0  0  0  0  0  0  0  0  0  0  0  0
   18.8154   -4.3691  -19.0665 C   0  0  0  0  0  0  0  0  0  0  0  0
   18.8543   -3.3038  -18.1669 C   0  0  0  0  0  0  0  0  0  0  0  0
   18.2695   -3.5022  -16.9340 C   0  0  0  0  0  0  0  0  0  0  0  0
   17.6673   -4.6998  -16.6055 C   0  0  0  0  0  0  0  0  0  0  0  0
   18.8545   -7.7637  -15.6965 C   0  0  0  0  0  0  0  0  0  0  0  0
   18.5161   -7.7801  -14.4978 O   0  0  0  0  0  0  0  0  0  0  0  0
   21.7701   -9.3130  -13.1940 C   0  0  0  0  0  0  0  0  0  0  0  0
   22.2437   -9.2959  -14.6083 C   0  0  2  0  0  0  0  0  0  0  0  0
   23.4134  -10.1792  -14.8468 C   0  0  0  0  0  0  0  0  0  0  0  0
   22.3317   -7.9655  -15.2516 C   0  0  0  0  0  0  0  0  0  0  0  0
   21.1784   -7.0275  -15.0338 C   0  0  2  0  0  0  0  0  0  0  0  0
   20.1586   -7.4006  -16.0544 N   0  0  0  0  0  0  0  0  0  0  0  0
   21.4842   -5.6085  -15.1346 C   0  0  0  0  0  0  0  0  0  0  0  0
   21.3748   -4.9815  -16.2305 O   0  0  0  0  0  0  0  0  0  0  0  0
   21.9168   -4.8034  -14.0680 O   0  0  0  0  0  0  0  0  0  0  0  0
  2  6  1  0
  2  1  1  6
  3  2  1  0
  4  3  1  0
  4  8  1  0
  5  4  2  0
  6  7  2  0
  9  6  1  0
 10  9  1  0
 11 12  1  0
 10 11  1  1
 12 17  2  0
 13 14  2  0
 13 12  1  0
 14 15  1  0
 15 16  2  0
 17 16  1  0
 18 10  1  0
 19 18  2  0
 21 20  1  1
 21 23  1  0
 22 21  1  0
 24 23  1  6
 24 25  1  0
 24 26  1  0
 25 18  1  0
 26 27  2  0
 26 28  1  0
M  END
$$$$
