DFL.pdb
     RDKit          3D

 28 28  0  0  1  0  0  0  0  0999 V2000
   23.7244  -35.2082    2.4895 N   0  0  0  0  0  0  0  0  0  0  0  0
   22.8153  -34.6126    3.4569 C   0  0  1  0  0  0  0  0  0  0  0  0
   22.2427  -35.6536    4.3547 C   0  0  0  0  0  0  0  0  0  0  0  0
   21.1452  -36.3862    3.6495 C   0  0  0  0  0  0  0  0  0  0  0  0
   20.6295  -37.4094    4.1195 O   0  0  0  0  0  0  0  0  0  0  0  0
   23.5294  -33.5854    4.2701 C   0  0  0  0  0  0  0  0  0  0  0  0
   24.3961  -33.9296    5.1026 O   0  0  0  0  0  0  0  0  0  0  0  0
   20.7157  -35.8717    2.4300 O   0  0  0  0  0  0  0  0  0  0  0  0
   23.2672  -32.1951    4.1538 N   0  0  0  0  0  0  0  0  0  0  0  0
   24.0216  -31.2531    4.9034 C   0  0  1  0  0  0  0  0  0  0  0  0
   24.9091  -30.3958    4.0822 C   0  0  0  0  0  0  0  0  0  0  0  0
   25.9075  -31.0631    3.2651 C   0  0  0  0  0  0  0  0  0  0  0  0
   25.6671  -31.1530    1.9031 C   0  0  0  0  0  0  0  0  0  0  0  0
   26.5194  -31.7402    1.0252 C   0  0  0  0  0  0  0  0  0  0  0  0
   27.7194  -32.2943    1.4710 C   0  0  0  0  0  0  0  0  0  0  0  0
   27.9815  -32.2183    2.8226 C   0  0  0  0  0  0  0  0  0  0  0  0
   27.0987  -31.6161    3.6960 C   0  0  0  0  0  0  0  0  0  0  0  0
   23.3537  -30.6295    6.0523 C   0  0  0  0  0  0  0  0  0  0  0  0
   22.2690  -30.0404    5.8850 O   0  0  0  0  0  0  0  0  0  0  0  0
   21.6507  -30.3538   11.0579 C   0  0  0  0  0  0  0  0  0  0  0  0
   23.1336  -30.5069   11.0082 C   0  0  2  0  0  0  0  0  0  0  0  0
   23.8600  -29.4237   11.7183 C   0  0  0  0  0  0  0  0  0  0  0  0
   23.7082  -30.8803    9.6960 C   0  0  0  0  0  0  0  0  0  0  0  0
   23.2907  -30.0554    8.5116 C   0  0  2  0  0  0  0  0  0  0  0  0
   23.9261  -30.7009    7.3281 N   0  0  0  0  0  0  0  0  0  0  0  0
   23.6491  -28.6460    8.5592 C   0  0  0  0  0  0  0  0  0  0  0  0
   22.8658  -27.7774    9.0473 O   0  0  0  0  0  0  0  0  0  0  0  0
   24.8592  -28.1097    8.0892 O   0  0  0  0  0  0  0  0  0  0  0  0
  2  6  1  0
  2  1  1  6
  3  2  1  0
  4  3  1  0
  4  8  1  0
  5  4  2  0
  6  7  2  0
  9  6  1  0
 10  9  1  0
 11 12  1  0
 10 11  1  6
 12 17  2  0
 13 14  2  0
 13 12  1  0
 14 15  1  0
 15 16  2  0
 17 16  1  0
 18 10  1  0
 19 18  2  0
 21 20  1  6
 21 23  1  0
 22 21  1  0
 24 23  1  1
 24 25  1  0
 24 26  1  0
 25 18  1  0
 26 27  2  0
 26 28  1  0
M  END
$$$$
