DFL.pdb
     RDKit          3D

 28 28  0  0  1  0  0  0  0  0999 V2000
   42.3269  -10.9589   -8.4014 N   0  0  0  0  0  0  0  0  0  0  0  0
   42.3308   -9.5106   -8.2627 C   0  0  1  0  0  0  0  0  0  0  0  0
   43.5322   -8.9202   -8.9151 C   0  0  0  0  0  0  0  0  0  0  0  0
   44.7709   -9.3857   -8.2170 C   0  0  0  0  0  0  0  0  0  0  0  0
   44.8562   -9.4209   -6.9820 O   0  0  0  0  0  0  0  0  0  0  0  0
   41.0955   -8.9321   -8.8675 C   0  0  0  0  0  0  0  0  0  0  0  0
   40.8871   -9.0323  -10.0960 O   0  0  0  0  0  0  0  0  0  0  0  0
   45.8401   -9.7849   -9.0132 O   0  0  0  0  0  0  0  0  0  0  0  0
   40.1150   -8.2458   -8.1039 N   0  0  0  0  0  0  0  0  0  0  0  0
   38.9329   -7.7552   -8.7207 C   0  0  1  0  0  0  0  0  0  0  0  0
   37.6872   -8.4025   -8.2448 C   0  0  0  0  0  0  0  0  0  0  0  0
   37.6095   -9.8493   -8.3464 C   0  0  0  0  0  0  0  0  0  0  0  0
   37.3509  -10.3925   -9.5950 C   0  0  0  0  0  0  0  0  0  0  0  0
   37.2621  -11.7258   -9.8324 C   0  0  0  0  0  0  0  0  0  0  0  0
   37.4384  -12.6401   -8.7937 C   0  0  0  0  0  0  0  0  0  0  0  0
   37.6961  -12.1244   -7.5411 C   0  0  0  0  0  0  0  0  0  0  0  0
   37.7814  -10.7640   -7.3245 C   0  0  0  0  0  0  0  0  0  0  0  0
   38.8800   -6.3164   -9.0069 C   0  0  0  0  0  0  0  0  0  0  0  0
   39.1569   -5.5018   -8.1061 O   0  0  0  0  0  0  0  0  0  0  0  0
   41.2270   -4.0204  -11.8657 C   0  0  0  0  0  0  0  0  0  0  0  0
   40.0943   -4.6665  -12.5899 C   0  0  2  0  0  0  0  0  0  0  0  0
   40.2497   -4.6397  -14.0666 C   0  0  0  0  0  0  0  0  0  0  0  0
   38.7354   -4.3360  -12.1047 C   0  0  0  0  0  0  0  0  0  0  0  0
   38.5064   -4.4099  -10.6216 C   0  0  2  0  0  0  0  0  0  0  0  0
   38.5282   -5.8612  -10.2833 N   0  0  0  0  0  0  0  0  0  0  0  0
   37.2744   -3.8065  -10.1368 C   0  0  0  0  0  0  0  0  0  0  0  0
   37.2457   -2.6202   -9.6920 O   0  0  0  0  0  0  0  0  0  0  0  0
   36.0242   -4.4463  -10.1101 O   0  0  0  0  0  0  0  0  0  0  0  0
  2  6  1  0
  2  1  1  6
  3  2  1  0
  4  3  1  0
  4  8  1  0
  5  4  2  0
  6  7  2  0
  9  6  1  0
 10  9  1  0
 11 12  1  0
 10 11  1  1
 12 17  2  0
 13 14  2  0
 13 12  1  0
 14 15  1  0
 15 16  2  0
 17 16  1  0
 18 10  1  0
 19 18  2  0
 21 20  1  1
 21 23  1  0
 22 21  1  0
 24 23  1  6
 24 25  1  0
 24 26  1  0
 25 18  1  0
 26 27  2  0
 26 28  1  0
M  END
$$$$
