DIW.pdb
     RDKit          3D

 31 32  0  0  1  0  0  0  0  0999 V2000
   11.2413  -16.4649   17.6406 N   0  0  0  0  0  0  0  0  0  0  0  0
   11.4052  -17.1916   18.8806 C   0  0  1  0  0  0  0  0  0  0  0  0
   12.8167  -17.6778   18.9851 C   0  0  0  0  0  0  0  0  0  0  0  0
   13.2183  -18.6484   17.9507 C   0  0  0  0  0  0  0  0  0  0  0  0
   12.5606  -19.6753   17.6610 O   0  0  0  0  0  0  0  0  0  0  0  0
   11.0646  -16.3791   20.0700 C   0  0  0  0  0  0  0  0  0  0  0  0
   11.8970  -15.5967   20.5664 O   0  0  0  0  0  0  0  0  0  0  0  0
   14.3918  -18.4685   17.2152 O   0  0  0  0  0  0  0  0  0  0  0  0
    5.5902  -16.6082   21.8345 C   0  0  0  0  0  0  0  0  0  0  0  0
    7.0033  -16.6807   21.4439 C   0  0  0  0  0  0  0  0  0  0  0  0
    7.8814  -15.5187   21.6247 C   0  0  2  0  0  0  0  0  0  0  0  0
    7.6983  -14.4992   20.5260 C   0  0  0  0  0  0  0  0  0  0  0  0
    9.3452  -15.7829   21.8319 C   0  0  2  0  0  0  0  0  0  0  0  0
    9.8029  -16.4838   20.6524 N   0  0  0  0  0  0  0  0  0  0  0  0
    9.6457  -16.4794   23.0829 C   0  0  0  0  0  0  0  0  0  0  0  0
    9.9335  -17.6919   23.0803 O   0  0  0  0  0  0  0  0  0  0  0  0
    9.6129  -15.7743   24.3021 N   0  0  0  0  0  0  0  0  0  0  0  0
    9.8945  -16.3713   25.6052 C   0  0  1  0  0  0  0  0  0  0  0  0
    9.5742  -15.4187   26.7041 C   0  0  0  0  0  0  0  0  0  0  0  0
    8.2421  -14.8131   26.7102 C   0  0  0  0  0  0  0  0  0  0  0  0
    7.0127  -15.4995   26.6856 C   0  0  0  0  0  0  0  0  0  0  0  0
    6.0216  -14.6146   26.6621 N   0  0  0  0  0  0  0  0  0  0  0  0
    6.5094  -13.3644   26.6704 C   0  0  0  0  0  0  0  0  0  0  0  0
    5.9416  -12.1205   26.6737 C   0  0  0  0  0  0  0  0  0  0  0  0
    6.6950  -10.9505   26.7081 C   0  0  0  0  0  0  0  0  0  0  0  0
    8.0641  -11.0562   26.7397 C   0  0  0  0  0  0  0  0  0  0  0  0
    8.6185  -12.3145   26.7349 C   0  0  0  0  0  0  0  0  0  0  0  0
    7.8822  -13.4768   26.7004 C   0  0  0  0  0  0  0  0  0  0  0  0
    9.1423  -17.6134   25.7109 C   0  0  0  0  0  0  0  0  0  0  0  0
    9.5658  -18.6344   26.5873 O   0  0  0  0  0  0  0  0  0  0  0  0
    8.0899  -17.9060   25.0718 O   0  0  0  0  0  0  0  0  0  0  0  0
  2  1  1  6
  3  2  1  0
  3  4  1  0
  4  5  2  0
  6  2  1  0
  6 14  1  0
  7  6  2  0
  8  4  1  0
  9 10  1  0
 11 10  1  0
 11 12  1  6
 13 11  1  0
 13 15  1  0
 13 14  1  6
 15 16  2  0
 17 15  1  0
 17 18  1  0
 18 19  1  1
 19 20  1  0
 20 28  1  0
 21 20  2  0
 21 22  1  0
 22 23  1  0
 23 24  1  0
 24 25  2  0
 26 25  1  0
 27 26  2  0
 28 23  2  0
 28 27  1  0
 29 30  1  0
 29 18  1  0
 31 29  2  0
M  END
$$$$
