DIW.pdb
     RDKit          3D

 31 32  0  0  1  0  0  0  0  0999 V2000
   11.6826  -16.7322   17.6647 N   0  0  0  0  0  0  0  0  0  0  0  0
   11.0094  -17.4000   18.7573 C   0  0  1  0  0  0  0  0  0  0  0  0
   11.8711  -18.5154   19.2602 C   0  0  0  0  0  0  0  0  0  0  0  0
   12.2355  -19.5242   18.2489 C   0  0  0  0  0  0  0  0  0  0  0  0
   11.4376  -19.9826   17.3979 O   0  0  0  0  0  0  0  0  0  0  0  0
   10.6749  -16.4829   19.8700 C   0  0  0  0  0  0  0  0  0  0  0  0
   11.5417  -15.7361   20.3622 O   0  0  0  0  0  0  0  0  0  0  0  0
   13.5320  -20.0390   18.1841 O   0  0  0  0  0  0  0  0  0  0  0  0
    7.9052  -13.0593   20.0769 C   0  0  0  0  0  0  0  0  0  0  0  0
    7.2514  -14.3730   20.1126 C   0  0  0  0  0  0  0  0  0  0  0  0
    7.5021  -15.2940   21.2275 C   0  0  2  0  0  0  0  0  0  0  0  0
    6.8313  -14.8331   22.4993 C   0  0  0  0  0  0  0  0  0  0  0  0
    8.9296  -15.6633   21.5126 C   0  0  2  0  0  0  0  0  0  0  0  0
    9.3800  -16.4475   20.3839 N   0  0  0  0  0  0  0  0  0  0  0  0
    9.1188  -16.3275   22.8024 C   0  0  0  0  0  0  0  0  0  0  0  0
    8.8892  -17.5458   22.9280 O   0  0  0  0  0  0  0  0  0  0  0  0
    9.5674  -15.5854   23.9128 N   0  0  0  0  0  0  0  0  0  0  0  0
    9.8972  -16.1670   25.2116 C   0  0  1  0  0  0  0  0  0  0  0  0
    9.4751  -15.2643   26.3182 C   0  0  0  0  0  0  0  0  0  0  0  0
    8.1179  -14.7194   26.2689 C   0  0  0  0  0  0  0  0  0  0  0  0
    6.9387  -15.4390   25.9954 C   0  0  0  0  0  0  0  0  0  0  0  0
    5.9074  -14.6009   26.0005 N   0  0  0  0  0  0  0  0  0  0  0  0
    6.3204  -13.3514   26.2635 C   0  0  0  0  0  0  0  0  0  0  0  0
    5.6863  -12.1477   26.4004 C   0  0  0  0  0  0  0  0  0  0  0  0
    6.3647  -10.9713   26.7064 C   0  0  0  0  0  0  0  0  0  0  0  0
    7.7264  -11.0282   26.8764 C   0  0  0  0  0  0  0  0  0  0  0  0
    8.3482  -12.2465   26.7343 C   0  0  0  0  0  0  0  0  0  0  0  0
    7.6863  -13.4145   26.4313 C   0  0  0  0  0  0  0  0  0  0  0  0
    9.2719  -17.4790   25.2967 C   0  0  0  0  0  0  0  0  0  0  0  0
    8.3478  -17.8966   24.3161 O   0  0  0  0  0  0  0  0  0  0  0  0
    9.4689  -18.3431   26.2001 O   0  0  0  0  0  0  0  0  0  0  0  0
  2  1  1  6
  3  2  1  0
  3  4  1  0
  4  5  2  0
  6  2  1  0
  6 14  1  0
  7  6  2  0
  8  4  1  0
  9 10  1  0
 11 10  1  0
 11 12  1  1
 13 11  1  0
 13 15  1  0
 13 14  1  6
 15 16  2  0
 17 15  1  0
 17 18  1  0
 18 19  1  1
 19 20  1  0
 20 28  1  0
 21 20  2  0
 21 22  1  0
 22 23  1  0
 23 24  1  0
 24 25  2  0
 26 25  1  0
 27 26  2  0
 28 23  2  0
 28 27  1  0
 29 30  1  0
 29 18  1  0
 31 29  2  0
M  END
$$$$
