DIW.pdb
     RDKit          3D

 31 32  0  0  1  0  0  0  0  0999 V2000
   10.1504  -18.4362   18.2648 N   0  0  0  0  0  0  0  0  0  0  0  0
    9.5688  -18.2552   19.5770 C   0  0  1  0  0  0  0  0  0  0  0  0
    9.9686  -19.3983   20.4563 C   0  0  0  0  0  0  0  0  0  0  0  0
   10.0951  -20.6966   19.7695 C   0  0  0  0  0  0  0  0  0  0  0  0
    9.9758  -20.8482   18.5311 O   0  0  0  0  0  0  0  0  0  0  0  0
    9.9634  -16.9751   20.2068 C   0  0  0  0  0  0  0  0  0  0  0  0
   11.0621  -16.4494   19.9463 O   0  0  0  0  0  0  0  0  0  0  0  0
   10.3632  -21.8644   20.4869 O   0  0  0  0  0  0  0  0  0  0  0  0
    6.6167  -13.1849   19.5721 C   0  0  0  0  0  0  0  0  0  0  0  0
    7.8231  -13.9239   19.9633 C   0  0  0  0  0  0  0  0  0  0  0  0
    8.0728  -14.2384   21.3750 C   0  0  2  0  0  0  0  0  0  0  0  0
    8.0248  -13.0039   22.2432 C   0  0  0  0  0  0  0  0  0  0  0  0
    9.3019  -15.0383   21.6991 C   0  0  2  0  0  0  0  0  0  0  0  0
    9.1065  -16.3426   21.1054 N   0  0  0  0  0  0  0  0  0  0  0  0
    9.6142  -15.0838   23.1277 C   0  0  0  0  0  0  0  0  0  0  0  0
    9.9958  -14.0595   23.7261 O   0  0  0  0  0  0  0  0  0  0  0  0
    9.4802  -16.2945   23.8354 N   0  0  0  0  0  0  0  0  0  0  0  0
    9.8773  -16.4807   25.2288 C   0  0  1  0  0  0  0  0  0  0  0  0
    8.6869  -16.7219   26.0905 C   0  0  0  0  0  0  0  0  0  0  0  0
    7.6541  -15.6860   26.1262 C   0  0  0  0  0  0  0  0  0  0  0  0
    6.3068  -15.8367   25.7451 C   0  0  0  0  0  0  0  0  0  0  0  0
    5.6843  -14.6703   25.8797 N   0  0  0  0  0  0  0  0  0  0  0  0
    6.5340  -13.7352   26.3322 C   0  0  0  0  0  0  0  0  0  0  0  0
    6.4108  -12.4118   26.6532 C   0  0  0  0  0  0  0  0  0  0  0  0
    7.4733  -11.6537   27.1369 C   0  0  0  0  0  0  0  0  0  0  0  0
    8.6928  -12.2654   27.2959 C   0  0  0  0  0  0  0  0  0  0  0  0
    8.7992  -13.5965   26.9674 C   0  0  0  0  0  0  0  0  0  0  0  0
    7.7549  -14.3540   26.4880 C   0  0  0  0  0  0  0  0  0  0  0  0
   10.8361  -17.5747   25.2884 C   0  0  0  0  0  0  0  0  0  0  0  0
   11.1847  -18.2855   24.1209 O   0  0  0  0  0  0  0  0  0  0  0  0
   11.4309  -17.9910   26.3250 O   0  0  0  0  0  0  0  0  0  0  0  0
  2  1  1  6
  3  2  1  0
  3  4  1  0
  4  5  2  0
  6  2  1  0
  6 14  1  0
  7  6  2  0
  8  4  1  0
  9 10  1  0
 11 10  1  0
 11 12  1  1
 13 11  1  0
 13 15  1  0
 13 14  1  1
 15 16  2  0
 17 15  1  0
 17 18  1  0
 18 19  1  1
 19 20  1  0
 20 28  1  0
 21 20  2  0
 21 22  1  0
 22 23  1  0
 23 24  1  0
 24 25  2  0
 26 25  1  0
 27 26  2  0
 28 23  2  0
 28 27  1  0
 29 30  1  0
 29 18  1  0
 31 29  2  0
M  END
$$$$
