DIW.pdb
     RDKit          3D

 31 32  0  0  1  0  0  0  0  0999 V2000
   10.4982  -18.9240   18.6903 N   0  0  0  0  0  0  0  0  0  0  0  0
   10.0237  -18.7162   20.0410 C   0  0  1  0  0  0  0  0  0  0  0  0
   10.5472  -19.8072   20.9215 C   0  0  0  0  0  0  0  0  0  0  0  0
    9.7916  -21.0715   20.8613 C   0  0  0  0  0  0  0  0  0  0  0  0
    9.6368  -21.7457   19.8160 O   0  0  0  0  0  0  0  0  0  0  0  0
   10.4141  -17.3977   20.5888 C   0  0  0  0  0  0  0  0  0  0  0  0
   11.5783  -16.9741   20.4601 O   0  0  0  0  0  0  0  0  0  0  0  0
    9.1885  -21.6019   22.0038 O   0  0  0  0  0  0  0  0  0  0  0  0
    6.0884  -13.8098   21.6443 C   0  0  0  0  0  0  0  0  0  0  0  0
    7.2530  -14.6238   22.0128 C   0  0  0  0  0  0  0  0  0  0  0  0
    8.5278  -14.4541   21.3056 C   0  0  2  0  0  0  0  0  0  0  0  0
    8.3660  -14.6015   19.8116 C   0  0  0  0  0  0  0  0  0  0  0  0
    9.6935  -15.2777   21.7728 C   0  0  2  0  0  0  0  0  0  0  0  0
    9.4789  -16.6133   21.2611 N   0  0  0  0  0  0  0  0  0  0  0  0
    9.9051  -15.2297   23.2197 C   0  0  0  0  0  0  0  0  0  0  0  0
   10.1708  -14.1521   23.7862 O   0  0  0  0  0  0  0  0  0  0  0  0
    9.8049  -16.4107   23.9814 N   0  0  0  0  0  0  0  0  0  0  0  0
    9.9908  -16.4737   25.4289 C   0  0  1  0  0  0  0  0  0  0  0  0
    8.7177  -16.8374   26.1106 C   0  0  0  0  0  0  0  0  0  0  0  0
    7.6184  -15.8732   26.0539 C   0  0  0  0  0  0  0  0  0  0  0  0
    6.2936  -16.1398   25.6579 C   0  0  0  0  0  0  0  0  0  0  0  0
    5.5927  -15.0115   25.6989 N   0  0  0  0  0  0  0  0  0  0  0  0
    6.3678  -13.9927   26.1019 C   0  0  0  0  0  0  0  0  0  0  0  0
    6.1501  -12.6618   26.3277 C   0  0  0  0  0  0  0  0  0  0  0  0
    7.1485  -11.8029   26.7782 C   0  0  0  0  0  0  0  0  0  0  0  0
    8.4013  -12.3189   27.0032 C   0  0  0  0  0  0  0  0  0  0  0  0
    8.6030  -13.6590   26.7702 C   0  0  0  0  0  0  0  0  0  0  0  0
    7.6227  -14.5159   26.3242 C   0  0  0  0  0  0  0  0  0  0  0  0
   11.0611  -17.4195   25.7114 C   0  0  0  0  0  0  0  0  0  0  0  0
   11.6790  -18.1349   24.6644 O   0  0  0  0  0  0  0  0  0  0  0  0
   11.5328  -17.6946   26.8531 O   0  0  0  0  0  0  0  0  0  0  0  0
  2  1  1  6
  3  2  1  0
  3  4  1  0
  4  5  2  0
  6  2  1  0
  6 14  1  0
  7  6  2  0
  8  4  1  0
  9 10  1  0
 11 10  1  0
 11 12  1  6
 13 11  1  0
 13 15  1  0
 13 14  1  1
 15 16  2  0
 17 15  1  0
 17 18  1  0
 18 19  1  1
 19 20  1  0
 20 28  1  0
 21 20  2  0
 21 22  1  0
 22 23  1  0
 23 24  1  0
 24 25  2  0
 26 25  1  0
 27 26  2  0
 28 23  2  0
 28 27  1  0
 29 30  1  0
 29 18  1  0
 31 29  2  0
M  END
$$$$
