DIW.pdb
     RDKit          3D

 31 32  0  0  1  0  0  0  0  0999 V2000
   12.3206  -16.9049   18.1884 N   0  0  0  0  0  0  0  0  0  0  0  0
   11.3160  -17.4677   19.0642 C   0  0  1  0  0  0  0  0  0  0  0  0
   11.7617  -18.8212   19.5213 C   0  0  0  0  0  0  0  0  0  0  0  0
   11.9099  -19.8221   18.4492 C   0  0  0  0  0  0  0  0  0  0  0  0
   11.1861  -19.8654   17.4268 O   0  0  0  0  0  0  0  0  0  0  0  0
   11.0327  -16.6097   20.2367 C   0  0  0  0  0  0  0  0  0  0  0  0
   11.9601  -16.1660   20.9399 O   0  0  0  0  0  0  0  0  0  0  0  0
   12.8974  -20.8071   18.5189 O   0  0  0  0  0  0  0  0  0  0  0  0
    7.1643  -12.9466   19.6779 C   0  0  0  0  0  0  0  0  0  0  0  0
    8.2926  -13.7456   20.1709 C   0  0  0  0  0  0  0  0  0  0  0  0
    8.0936  -14.7196   21.2507 C   0  0  2  0  0  0  0  0  0  0  0  0
    7.4045  -14.1028   22.4443 C   0  0  0  0  0  0  0  0  0  0  0  0
    9.2914  -15.5028   21.7058 C   0  0  2  0  0  0  0  0  0  0  0  0
    9.7180  -16.2902   20.5701 N   0  0  0  0  0  0  0  0  0  0  0  0
    9.0526  -16.2941   22.9130 C   0  0  0  0  0  0  0  0  0  0  0  0
    8.4865  -17.4020   22.8432 O   0  0  0  0  0  0  0  0  0  0  0  0
    9.4684  -15.8022   24.1660 N   0  0  0  0  0  0  0  0  0  0  0  0
    9.4881  -16.5928   25.3943 C   0  0  1  0  0  0  0  0  0  0  0  0
    9.0189  -15.7828   26.5525 C   0  0  0  0  0  0  0  0  0  0  0  0
    7.7438  -15.0780   26.4154 C   0  0  0  0  0  0  0  0  0  0  0  0
    6.5112  -15.6473   26.0416 C   0  0  0  0  0  0  0  0  0  0  0  0
    5.5897  -14.6912   25.9886 N   0  0  0  0  0  0  0  0  0  0  0  0
    6.1277  -13.5036   26.3067 C   0  0  0  0  0  0  0  0  0  0  0  0
    5.6330  -12.2341   26.4216 C   0  0  0  0  0  0  0  0  0  0  0  0
    6.4218  -11.1516   26.8005 C   0  0  0  0  0  0  0  0  0  0  0  0
    7.7504  -11.3739   27.0685 C   0  0  0  0  0  0  0  0  0  0  0  0
    8.2315  -12.6563   26.9471 C   0  0  0  0  0  0  0  0  0  0  0  0
    7.4599  -13.7327   26.5726 C   0  0  0  0  0  0  0  0  0  0  0  0
    8.6765  -17.7831   25.1846 C   0  0  0  0  0  0  0  0  0  0  0  0
    7.8438  -17.8913   24.0512 O   0  0  0  0  0  0  0  0  0  0  0  0
    8.6241  -18.7947   25.9434 O   0  0  0  0  0  0  0  0  0  0  0  0
  2  1  1  1
  3  2  1  0
  3  4  1  0
  4  5  2  0
  6  2  1  0
  6 14  1  0
  7  6  2  0
  8  4  1  0
  9 10  1  0
 11 10  1  0
 11 12  1  1
 13 11  1  0
 13 15  1  0
 13 14  1  6
 15 16  2  0
 17 15  1  0
 17 18  1  0
 18 19  1  1
 19 20  1  0
 20 28  1  0
 21 20  2  0
 21 22  1  0
 22 23  1  0
 23 24  1  0
 24 25  2  0
 26 25  1  0
 27 26  2  0
 28 23  2  0
 28 27  1  0
 29 30  1  0
 29 18  1  0
 31 29  2  0
M  END
$$$$
