DIW.pdb
     RDKit          3D

 31 32  0  0  1  0  0  0  0  0999 V2000
    8.6365  -19.2428   19.1439 N   0  0  0  0  0  0  0  0  0  0  0  0
    8.3857  -18.7883   20.4942 C   0  0  1  0  0  0  0  0  0  0  0  0
    8.6989  -19.8935   21.4534 C   0  0  0  0  0  0  0  0  0  0  0  0
    8.4077  -21.2501   20.9556 C   0  0  0  0  0  0  0  0  0  0  0  0
    9.0163  -22.2794   21.3313 O   0  0  0  0  0  0  0  0  0  0  0  0
    9.1664  -17.5811   20.8466 C   0  0  0  0  0  0  0  0  0  0  0  0
   10.3656  -17.4820   20.5248 O   0  0  0  0  0  0  0  0  0  0  0  0
    7.4051  -21.4667   20.0079 O   0  0  0  0  0  0  0  0  0  0  0  0
    6.8200  -12.9869   19.8410 C   0  0  0  0  0  0  0  0  0  0  0  0
    7.7972  -14.0192   20.2070 C   0  0  0  0  0  0  0  0  0  0  0  0
    8.1804  -14.2108   21.6108 C   0  0  2  0  0  0  0  0  0  0  0  0
    8.6063  -12.9154   22.2592 C   0  0  0  0  0  0  0  0  0  0  0  0
    9.1867  -15.2838   21.9133 C   0  0  2  0  0  0  0  0  0  0  0  0
    8.5656  -16.5382   21.5489 N   0  0  0  0  0  0  0  0  0  0  0  0
    9.6844  -15.2523   23.2887 C   0  0  0  0  0  0  0  0  0  0  0  0
   10.1268  -14.1954   23.7788 O   0  0  0  0  0  0  0  0  0  0  0  0
    9.6615  -16.4253   24.0686 N   0  0  0  0  0  0  0  0  0  0  0  0
   10.2830  -16.5501   25.3846 C   0  0  1  0  0  0  0  0  0  0  0  0
    9.7486  -15.5235   26.3217 C   0  0  0  0  0  0  0  0  0  0  0  0
    8.3430  -15.1422   26.1805 C   0  0  0  0  0  0  0  0  0  0  0  0
    7.2765  -15.9961   25.8392 C   0  0  0  0  0  0  0  0  0  0  0  0
    6.1559  -15.2851   25.7702 N   0  0  0  0  0  0  0  0  0  0  0  0
    6.4017  -13.9950   26.0467 C   0  0  0  0  0  0  0  0  0  0  0  0
    5.6233  -12.8740   26.1309 C   0  0  0  0  0  0  0  0  0  0  0  0
    6.1379  -11.6253   26.4681 C   0  0  0  0  0  0  0  0  0  0  0  0
    7.4831  -11.5213   26.7254 C   0  0  0  0  0  0  0  0  0  0  0  0
    8.2512  -12.6582   26.6352 C   0  0  0  0  0  0  0  0  0  0  0  0
    7.7519  -13.8967   26.3021 C   0  0  0  0  0  0  0  0  0  0  0  0
   10.0659  -17.9070   25.8657 C   0  0  0  0  0  0  0  0  0  0  0  0
   10.6550  -18.3419   27.0714 O   0  0  0  0  0  0  0  0  0  0  0  0
    9.3700  -18.7985   25.2977 O   0  0  0  0  0  0  0  0  0  0  0  0
  2  1  1  6
  3  2  1  0
  3  4  1  0
  4  5  2  0
  6  2  1  0
  6 14  1  0
  7  6  2  0
  8  4  1  0
  9 10  1  0
 11 10  1  0
 11 12  1  6
 13 11  1  0
 13 15  1  0
 13 14  1  1
 15 16  2  0
 17 15  1  0
 17 18  1  0
 18 19  1  1
 19 20  1  0
 20 28  1  0
 21 20  2  0
 21 22  1  0
 22 23  1  0
 23 24  1  0
 24 25  2  0
 26 25  1  0
 27 26  2  0
 28 23  2  0
 28 27  1  0
 29 30  1  0
 29 18  1  0
 31 29  2  0
M  END
$$$$
