DIW.pdb
     RDKit          3D

 31 32  0  0  1  0  0  0  0  0999 V2000
   11.1769  -17.2373   18.1339 N   0  0  0  0  0  0  0  0  0  0  0  0
   12.0874  -17.1074   19.2505 C   0  0  1  0  0  0  0  0  0  0  0  0
   13.3684  -16.4973   18.7747 C   0  0  0  0  0  0  0  0  0  0  0  0
   14.1154  -17.3052   17.7937 C   0  0  0  0  0  0  0  0  0  0  0  0
   14.2665  -16.9836   16.5917 O   0  0  0  0  0  0  0  0  0  0  0  0
   11.5262  -16.2989   20.3561 C   0  0  0  0  0  0  0  0  0  0  0  0
   12.2549  -15.8914   21.2805 O   0  0  0  0  0  0  0  0  0  0  0  0
   14.7136  -18.5114   18.1646 O   0  0  0  0  0  0  0  0  0  0  0  0
    7.4548  -12.9022   19.1602 C   0  0  0  0  0  0  0  0  0  0  0  0
    8.5549  -13.5499   19.8847 C   0  0  0  0  0  0  0  0  0  0  0  0
    8.2796  -14.6439   20.8236 C   0  0  2  0  0  0  0  0  0  0  0  0
    7.2989  -14.2319   21.8952 C   0  0  0  0  0  0  0  0  0  0  0  0
    9.4587  -15.3297   21.4522 C   0  0  2  0  0  0  0  0  0  0  0  0
   10.1685  -15.9860   20.3764 N   0  0  0  0  0  0  0  0  0  0  0  0
    9.1003  -16.2252   22.5522 C   0  0  0  0  0  0  0  0  0  0  0  0
    8.7710  -17.4058   22.3271 O   0  0  0  0  0  0  0  0  0  0  0  0
    9.1302  -15.7515   23.8787 N   0  0  0  0  0  0  0  0  0  0  0  0
    9.0341  -16.6062   25.0594 C   0  0  1  0  0  0  0  0  0  0  0  0
    8.9032  -15.7872   26.2963 C   0  0  0  0  0  0  0  0  0  0  0  0
    7.7358  -14.9124   26.4103 C   0  0  0  0  0  0  0  0  0  0  0  0
    6.3882  -15.2954   26.2675 C   0  0  0  0  0  0  0  0  0  0  0  0
    5.6153  -14.2226   26.4009 N   0  0  0  0  0  0  0  0  0  0  0  0
    6.3631  -13.1315   26.6274 C   0  0  0  0  0  0  0  0  0  0  0  0
    6.0802  -11.8123   26.8494 C   0  0  0  0  0  0  0  0  0  0  0  0
    7.0686  -10.8614   27.0872 C   0  0  0  0  0  0  0  0  0  0  0  0
    8.3796  -11.2709   27.0978 C   0  0  0  0  0  0  0  0  0  0  0  0
    8.6463  -12.6008   26.8718 C   0  0  0  0  0  0  0  0  0  0  0  0
    7.6763  -13.5481   26.6352 C   0  0  0  0  0  0  0  0  0  0  0  0
    7.9123  -17.5158   24.8750 C   0  0  0  0  0  0  0  0  0  0  0  0
    7.8780  -18.7555   25.5470 O   0  0  0  0  0  0  0  0  0  0  0  0
    6.9022  -17.3165   24.1390 O   0  0  0  0  0  0  0  0  0  0  0  0
  2  1  1  6
  3  2  1  0
  3  4  1  0
  4  5  2  0
  6  2  1  0
  6 14  1  0
  7  6  2  0
  8  4  1  0
  9 10  1  0
 11 10  1  0
 11 12  1  1
 13 11  1  0
 13 15  1  0
 13 14  1  6
 15 16  2  0
 17 15  1  0
 17 18  1  0
 18 19  1  1
 19 20  1  0
 20 28  1  0
 21 20  2  0
 21 22  1  0
 22 23  1  0
 23 24  1  0
 24 25  2  0
 26 25  1  0
 27 26  2  0
 28 23  2  0
 28 27  1  0
 29 30  1  0
 29 18  1  0
 31 29  2  0
M  END
$$$$
