DIW.pdb
     RDKit          3D

 31 32  0  0  1  0  0  0  0  0999 V2000
   12.3426  -16.5646   18.2775 N   0  0  0  0  0  0  0  0  0  0  0  0
   11.1039  -16.9918   18.8905 C   0  0  1  0  0  0  0  0  0  0  0  0
   11.2150  -18.4338   19.2751 C   0  0  0  0  0  0  0  0  0  0  0  0
   11.4417  -19.3614   18.1520 C   0  0  0  0  0  0  0  0  0  0  0  0
   10.7462  -19.3820   17.1095 O   0  0  0  0  0  0  0  0  0  0  0  0
   10.7422  -16.1823   20.0757 C   0  0  0  0  0  0  0  0  0  0  0  0
   11.6243  -15.7092   20.8169 O   0  0  0  0  0  0  0  0  0  0  0  0
   12.4778  -20.2968   18.1923 O   0  0  0  0  0  0  0  0  0  0  0  0
    8.2145  -12.5238   20.3413 C   0  0  0  0  0  0  0  0  0  0  0  0
    7.4673  -13.7804   20.2107 C   0  0  0  0  0  0  0  0  0  0  0  0
    7.5403  -14.7977   21.2662 C   0  0  2  0  0  0  0  0  0  0  0  0
    6.8511  -14.3457   22.5314 C   0  0  0  0  0  0  0  0  0  0  0  0
    8.8950  -15.3546   21.5983 C   0  0  2  0  0  0  0  0  0  0  0  0
    9.4033  -15.9421   20.3784 N   0  0  0  0  0  0  0  0  0  0  0  0
    8.8898  -16.2745   22.7359 C   0  0  0  0  0  0  0  0  0  0  0  0
    8.9350  -17.5066   22.5552 O   0  0  0  0  0  0  0  0  0  0  0  0
    8.8365  -15.7647   24.0482 N   0  0  0  0  0  0  0  0  0  0  0  0
    9.5337  -16.3543   25.1884 C   0  0  1  0  0  0  0  0  0  0  0  0
    8.8293  -16.0364   26.4615 C   0  0  0  0  0  0  0  0  0  0  0  0
    7.7155  -15.0892   26.4023 C   0  0  0  0  0  0  0  0  0  0  0  0
    6.3619  -15.4052   26.1769 C   0  0  0  0  0  0  0  0  0  0  0  0
    5.6517  -14.2821   26.1543 N   0  0  0  0  0  0  0  0  0  0  0  0
    6.4479  -13.2202   26.3530 C   0  0  0  0  0  0  0  0  0  0  0  0
    6.2340  -11.8725   26.4401 C   0  0  0  0  0  0  0  0  0  0  0  0
    7.2594  -10.9628   26.6822 C   0  0  0  0  0  0  0  0  0  0  0  0
    8.5361  -11.4446   26.8389 C   0  0  0  0  0  0  0  0  0  0  0  0
    8.7335  -12.8023   26.7473 C   0  0  0  0  0  0  0  0  0  0  0  0
    7.7265  -13.7093   26.5077 C   0  0  0  0  0  0  0  0  0  0  0  0
    9.6496  -17.7878   24.9616 C   0  0  0  0  0  0  0  0  0  0  0  0
   10.5081  -18.5718   25.7604 O   0  0  0  0  0  0  0  0  0  0  0  0
    9.0358  -18.4565   24.0798 O   0  0  0  0  0  0  0  0  0  0  0  0
  2  1  1  1
  3  2  1  0
  3  4  1  0
  4  5  2  0
  6  2  1  0
  6 14  1  0
  7  6  2  0
  8  4  1  0
  9 10  1  0
 11 10  1  0
 11 12  1  1
 13 11  1  0
 13 15  1  0
 13 14  1  6
 15 16  2  0
 17 15  1  0
 17 18  1  0
 18 19  1  1
 19 20  1  0
 20 28  1  0
 21 20  2  0
 21 22  1  0
 22 23  1  0
 23 24  1  0
 24 25  2  0
 26 25  1  0
 27 26  2  0
 28 23  2  0
 28 27  1  0
 29 30  1  0
 29 18  1  0
 31 29  2  0
M  END
$$$$
