SPG.pdb
     RDKit          3D

 18 18  0  0  1  0  0  0  0  0999 V2000
   26.4988  -17.4880  -15.7518 O   0  0  0  0  0  0  0  0  0  0  0  0
   27.5911  -18.0712  -15.1054 C   0  0  0  0  0  0  0  0  0  0  0  0
   27.7310  -19.5289  -15.4928 C   0  0  2  0  0  0  0  0  0  0  0  0
   27.8395  -19.7190  -16.9024 N   0  0  0  0  0  0  0  0  0  0  0  0
   26.5339  -20.2337  -14.9869 C   0  0  0  0  0  0  0  0  0  0  0  0
   25.6501  -20.5282  -15.8516 O   0  0  0  0  0  0  0  0  0  0  0  0
   26.3071  -20.5951  -13.6418 N   0  0  0  0  0  0  0  0  0  0  0  0
   27.1797  -20.2394  -12.5455 C   0  0  0  0  0  0  0  0  0  0  0  0
   26.5454  -20.8896  -11.3078 C   0  0  0  0  0  0  0  0  0  0  0  0
   25.7756  -22.0247  -11.9342 C   0  0  0  0  0  0  0  0  0  0  0  0
   25.1880  -21.3658  -13.1587 C   0  0  1  0  0  0  0  0  0  0  0  0
   24.0315  -20.5226  -12.7430 C   0  0  0  0  0  0  0  0  0  0  0  0
   24.0039  -19.9019  -11.6595 O   0  0  0  0  0  0  0  0  0  0  0  0
   22.9274  -20.4325  -13.6276 N   0  0  0  0  0  0  0  0  0  0  0  0
   21.5574  -20.5245  -13.2035 C   0  0  0  0  0  0  0  0  0  0  0  0
   20.8089  -21.3880  -14.1399 C   0  0  0  0  0  0  0  0  0  0  0  0
   19.8115  -20.8677  -14.9325 O   0  0  0  0  0  0  0  0  0  0  0  0
   21.0525  -22.6185  -14.2468 O   0  0  0  0  0  0  0  0  0  0  0  0
  2  1  1  0
  3  2  1  0
  3  4  1  6
  5  6  2  0
  5  3  1  0
  7  5  1  0
  8  7  1  0
  9  8  1  0
 10  9  1  0
 10 11  1  0
 11  7  1  0
 11 12  1  1
 12 13  2  0
 14 12  1  0
 14 15  1  0
 15 16  1  0
 16 18  2  0
 16 17  1  0
M  END
$$$$
