SPG.pdb
     RDKit          3D

 18 18  0  0  1  0  0  0  0  0999 V2000
   26.6930  -19.0489  -16.4911 O   0  0  0  0  0  0  0  0  0  0  0  0
   27.6633  -19.3978  -15.5489 C   0  0  0  0  0  0  0  0  0  0  0  0
   27.7321  -20.9014  -15.3778 C   0  0  2  0  0  0  0  0  0  0  0  0
   27.9059  -21.5916  -16.6140 N   0  0  0  0  0  0  0  0  0  0  0  0
   26.4669  -21.3286  -14.7435 C   0  0  0  0  0  0  0  0  0  0  0  0
   25.6224  -21.8964  -15.5050 O   0  0  0  0  0  0  0  0  0  0  0  0
   26.1369  -21.1550  -13.3825 N   0  0  0  0  0  0  0  0  0  0  0  0
   26.9918  -20.5057  -12.4143 C   0  0  0  0  0  0  0  0  0  0  0  0
   26.2294  -20.6023  -11.0854 C   0  0  0  0  0  0  0  0  0  0  0  0
   25.3648  -21.8131  -11.3299 C   0  0  0  0  0  0  0  0  0  0  0  0
   24.9152  -21.5938  -12.7542 C   0  0  1  0  0  0  0  0  0  0  0  0
   23.8447  -20.5568  -12.7663 C   0  0  0  0  0  0  0  0  0  0  0  0
   24.0910  -19.3333  -12.8140 O   0  0  0  0  0  0  0  0  0  0  0  0
   22.4978  -20.9968  -12.7230 N   0  0  0  0  0  0  0  0  0  0  0  0
   21.3960  -20.2426  -13.2543 C   0  0  0  0  0  0  0  0  0  0  0  0
   20.5596  -21.1205  -14.0983 C   0  0  0  0  0  0  0  0  0  0  0  0
   19.1927  -21.1519  -13.9427 O   0  0  0  0  0  0  0  0  0  0  0  0
   21.0603  -21.8647  -14.9817 O   0  0  0  0  0  0  0  0  0  0  0  0
  2  1  1  0
  3  2  1  0
  3  4  1  6
  5  6  2  0
  5  3  1  0
  7  5  1  0
  8  7  1  0
  9  8  1  0
 10  9  1  0
 10 11  1  0
 11  7  1  0
 11 12  1  1
 12 13  2  0
 14 12  1  0
 14 15  1  0
 15 16  1  0
 16 18  2  0
 16 17  1  0
M  END
$$$$
