SPG.pdb
     RDKit          3D

 18 18  0  0  1  0  0  0  0  0999 V2000
   26.6182  -20.8781   -5.4088 O   0  0  0  0  0  0  0  0  0  0  0  0
   28.0119  -20.9523   -5.4630 C   0  0  0  0  0  0  0  0  0  0  0  0
   28.5882  -19.7466   -6.1763 C   0  0  2  0  0  0  0  0  0  0  0  0
   28.1572  -18.5103   -5.6102 N   0  0  0  0  0  0  0  0  0  0  0  0
   28.1559  -19.8245   -7.5879 C   0  0  0  0  0  0  0  0  0  0  0  0
   27.2337  -19.0221   -7.9364 O   0  0  0  0  0  0  0  0  0  0  0  0
   28.6823  -20.7067   -8.5553 N   0  0  0  0  0  0  0  0  0  0  0  0
   29.6321  -21.7577   -8.2669 C   0  0  0  0  0  0  0  0  0  0  0  0
   29.9335  -22.4029   -9.6270 C   0  0  0  0  0  0  0  0  0  0  0  0
   29.6217  -21.2660  -10.5671 C   0  0  0  0  0  0  0  0  0  0  0  0
   28.3618  -20.6960   -9.9614 C   0  0  1  0  0  0  0  0  0  0  0  0
   27.2168  -21.5848  -10.3083 C   0  0  0  0  0  0  0  0  0  0  0  0
   26.9425  -22.6163   -9.6596 O   0  0  0  0  0  0  0  0  0  0  0  0
   26.4167  -21.2274  -11.4226 N   0  0  0  0  0  0  0  0  0  0  0  0
   25.0324  -21.5887  -11.5579 C   0  0  0  0  0  0  0  0  0  0  0  0
   24.4710  -20.9457  -12.7637 C   0  0  0  0  0  0  0  0  0  0  0  0
   23.5248  -19.9524  -12.6557 O   0  0  0  0  0  0  0  0  0  0  0  0
   24.8330  -21.2787  -13.9226 O   0  0  0  0  0  0  0  0  0  0  0  0
  2  1  1  0
  3  2  1  0
  3  4  1  1
  5  6  2  0
  5  3  1  0
  7  5  1  0
  8  7  1  0
  9  8  1  0
 10  9  1  0
 10 11  1  0
 11  7  1  0
 11 12  1  1
 12 13  2  0
 14 12  1  0
 14 15  1  0
 15 16  1  0
 16 18  2  0
 16 17  1  0
M  END
$$$$
