SPG.pdb
     RDKit          3D

 18 18  0  0  1  0  0  0  0  0999 V2000
   22.2546  -22.7969  -14.2494 O   0  0  0  0  0  0  0  0  0  0  0  0
   22.0027  -21.4610  -13.9286 C   0  0  0  0  0  0  0  0  0  0  0  0
   22.5765  -21.1159  -12.5697 C   0  0  2  0  0  0  0  0  0  0  0  0
   21.6058  -20.5614  -11.6837 N   0  0  0  0  0  0  0  0  0  0  0  0
   23.6648  -20.1396  -12.7887 C   0  0  0  0  0  0  0  0  0  0  0  0
   23.3053  -18.9427  -13.0206 O   0  0  0  0  0  0  0  0  0  0  0  0
   25.0444  -20.4350  -12.7592 N   0  0  0  0  0  0  0  0  0  0  0  0
   25.5921  -21.7321  -12.4316 C   0  0  0  0  0  0  0  0  0  0  0  0
   27.1147  -21.5445  -12.4877 C   0  0  0  0  0  0  0  0  0  0  0  0
   27.2387  -20.0659  -12.2196 C   0  0  0  0  0  0  0  0  0  0  0  0
   26.1070  -19.5025  -13.0447 C   0  0  1  0  0  0  0  0  0  0  0  0
   26.5131  -19.4979  -14.4786 C   0  0  0  0  0  0  0  0  0  0  0  0
   26.6387  -20.5450  -15.1479 O   0  0  0  0  0  0  0  0  0  0  0  0
   26.7615  -18.2438  -15.0911 N   0  0  0  0  0  0  0  0  0  0  0  0
   26.9152  -18.0662  -16.5089 C   0  0  0  0  0  0  0  0  0  0  0  0
   25.5841  -18.0395  -17.1492 C   0  0  0  0  0  0  0  0  0  0  0  0
   25.3233  -18.8050  -18.2627 O   0  0  0  0  0  0  0  0  0  0  0  0
   24.6486  -17.3235  -16.7053 O   0  0  0  0  0  0  0  0  0  0  0  0
  2  1  1  0
  3  2  1  0
  3  4  1  1
  5  6  2  0
  5  3  1  0
  7  5  1  0
  8  7  1  0
  9  8  1  0
 10  9  1  0
 10 11  1  0
 11  7  1  0
 11 12  1  6
 12 13  2  0
 14 12  1  0
 14 15  1  0
 15 16  1  0
 16 18  2  0
 16 17  1  0
M  END
$$$$
