SPG.pdb
     RDKit          3D

 18 18  0  0  1  0  0  0  0  0999 V2000
   27.6341  -17.5983  -16.7294 O   0  0  0  0  0  0  0  0  0  0  0  0
   27.2466  -18.2585  -15.5611 C   0  0  0  0  0  0  0  0  0  0  0  0
   27.5903  -19.7319  -15.6356 C   0  0  2  0  0  0  0  0  0  0  0  0
   27.8134  -20.1813  -16.9709 N   0  0  0  0  0  0  0  0  0  0  0  0
   26.4589  -20.4764  -15.0430 C   0  0  0  0  0  0  0  0  0  0  0  0
   25.5765  -20.8950  -15.8565 O   0  0  0  0  0  0  0  0  0  0  0  0
   26.2921  -20.7498  -13.6687 N   0  0  0  0  0  0  0  0  0  0  0  0
   27.2594  -20.4127  -12.6487 C   0  0  0  0  0  0  0  0  0  0  0  0
   26.6574  -20.9452  -11.3408 C   0  0  0  0  0  0  0  0  0  0  0  0
   25.7610  -22.0430  -11.8554 C   0  0  0  0  0  0  0  0  0  0  0  0
   25.1491  -21.4003  -13.0767 C   0  0  1  0  0  0  0  0  0  0  0  0
   24.0925  -20.4447  -12.6389 C   0  0  0  0  0  0  0  0  0  0  0  0
   24.2814  -19.5927  -11.7453 O   0  0  0  0  0  0  0  0  0  0  0  0
   22.8282  -20.5202  -13.2755 N   0  0  0  0  0  0  0  0  0  0  0  0
   21.7029  -21.2286  -12.7304 C   0  0  0  0  0  0  0  0  0  0  0  0
   20.9680  -21.9004  -13.8219 C   0  0  0  0  0  0  0  0  0  0  0  0
   20.9875  -23.2710  -13.9440 O   0  0  0  0  0  0  0  0  0  0  0  0
   20.3038  -21.2516  -14.6721 O   0  0  0  0  0  0  0  0  0  0  0  0
  2  1  1  0
  3  2  1  0
  3  4  1  6
  5  6  2  0
  5  3  1  0
  7  5  1  0
  8  7  1  0
  9  8  1  0
 10  9  1  0
 10 11  1  0
 11  7  1  0
 11 12  1  1
 12 13  2  0
 14 12  1  0
 14 15  1  0
 15 16  1  0
 16 18  2  0
 16 17  1  0
M  END
$$$$
