SPG.pdb
     RDKit          3D

 18 18  0  0  1  0  0  0  0  0999 V2000
   21.6169  -11.9193  -19.6283 O   0  0  0  0  0  0  0  0  0  0  0  0
   22.0314  -11.0553  -18.6120 C   0  0  0  0  0  0  0  0  0  0  0  0
   22.3856  -11.8288  -17.3586 C   0  0  2  0  0  0  0  0  0  0  0  0
   21.3150  -12.6484  -16.8930 N   0  0  0  0  0  0  0  0  0  0  0  0
   22.7426  -10.8396  -16.3194 C   0  0  0  0  0  0  0  0  0  0  0  0
   21.7879  -10.4234  -15.5909 O   0  0  0  0  0  0  0  0  0  0  0  0
   24.0394  -10.3355  -16.0836 N   0  0  0  0  0  0  0  0  0  0  0  0
   25.2117  -10.7210  -16.8366 C   0  0  0  0  0  0  0  0  0  0  0  0
   26.3702   -9.9516  -16.1865 C   0  0  0  0  0  0  0  0  0  0  0  0
   25.8331   -9.7323  -14.7948 C   0  0  0  0  0  0  0  0  0  0  0  0
   24.3925   -9.3738  -15.0685 C   0  0  1  0  0  0  0  0  0  0  0  0
   24.3306   -7.9646  -15.5496 C   0  0  0  0  0  0  0  0  0  0  0  0
   24.5781   -7.6432  -16.7309 O   0  0  0  0  0  0  0  0  0  0  0  0
   23.9730   -6.9618  -14.6135 N   0  0  0  0  0  0  0  0  0  0  0  0
   23.5176   -5.6506  -14.9858 C   0  0  0  0  0  0  0  0  0  0  0  0
   22.0407   -5.6180  -14.9657 C   0  0  0  0  0  0  0  0  0  0  0  0
   21.3225   -5.5452  -16.1373 O   0  0  0  0  0  0  0  0  0  0  0  0
   21.3909   -5.6552  -13.8882 O   0  0  0  0  0  0  0  0  0  0  0  0
  2  1  1  0
  3  2  1  0
  3  4  1  1
  5  6  2  0
  5  3  1  0
  7  5  1  0
  8  7  1  0
  9  8  1  0
 10  9  1  0
 10 11  1  0
 11  7  1  0
 11 12  1  6
 12 13  2  0
 14 12  1  0
 14 15  1  0
 15 16  1  0
 16 18  2  0
 16 17  1  0
M  END
$$$$
