SPG.pdb
     RDKit          3D

 18 18  0  0  1  0  0  0  0  0999 V2000
   18.6697  -12.2043  -14.9094 O   0  0  0  0  0  0  0  0  0  0  0  0
   18.0978  -11.8985  -16.1465 C   0  0  0  0  0  0  0  0  0  0  0  0
   19.1657  -11.7394  -17.2091 C   0  0  2  0  0  0  0  0  0  0  0  0
   20.0465  -12.8591  -17.2806 N   0  0  0  0  0  0  0  0  0  0  0  0
   19.9357  -10.5216  -16.8776 C   0  0  0  0  0  0  0  0  0  0  0  0
   21.0630  -10.7062  -16.3202 O   0  0  0  0  0  0  0  0  0  0  0  0
   19.5178   -9.1977  -17.1304 N   0  0  0  0  0  0  0  0  0  0  0  0
   18.2315   -8.8425  -17.6863 C   0  0  0  0  0  0  0  0  0  0  0  0
   18.2647   -7.3131  -17.8150 C   0  0  0  0  0  0  0  0  0  0  0  0
   19.7475   -7.0586  -17.9139 C   0  0  0  0  0  0  0  0  0  0  0  0
   20.2979   -8.0108  -16.8798 C   0  0  1  0  0  0  0  0  0  0  0  0
   20.0686   -7.4341  -15.5248 C   0  0  0  0  0  0  0  0  0  0  0  0
   19.1832   -7.8575  -14.7521 O   0  0  0  0  0  0  0  0  0  0  0  0
   20.9005   -6.3627  -15.1131 N   0  0  0  0  0  0  0  0  0  0  0  0
   21.7022   -6.3894  -13.9207 C   0  0  0  0  0  0  0  0  0  0  0  0
   22.3512   -5.0754  -13.7340 C   0  0  0  0  0  0  0  0  0  0  0  0
   21.7022   -4.0576  -13.0734 O   0  0  0  0  0  0  0  0  0  0  0  0
   23.5095   -4.8400  -14.1674 O   0  0  0  0  0  0  0  0  0  0  0  0
  2  1  1  0
  3  2  1  0
  3  4  1  1
  5  6  2  0
  5  3  1  0
  7  5  1  0
  8  7  1  0
  9  8  1  0
 10  9  1  0
 10 11  1  0
 11  7  1  0
 11 12  1  1
 12 13  2  0
 14 12  1  0
 14 15  1  0
 15 16  1  0
 16 18  2  0
 16 17  1  0
M  END
$$$$
