EYI.pdb
     RDKit          3D

 30 30  0  0  1  0  0  0  0  0999 V2000
    9.9457  -19.9536   21.2511 N   0  0  0  0  0  0  0  0  0  0  0  0
   11.0796  -19.0906   21.6720 C   0  0  1  0  0  0  0  0  0  0  0  0
   11.4668  -18.2935   20.4734 C   0  0  0  0  0  0  0  0  0  0  0  0
   10.3937  -18.0527   19.4643 C   0  0  0  0  0  0  0  0  0  0  0  0
   10.8530  -17.4127   18.2298 C   0  0  0  0  0  0  0  0  0  0  0  0
   10.0312  -17.1081   17.3335 O   0  0  0  0  0  0  0  0  0  0  0  0
   10.6285  -18.3267   22.8337 C   0  0  0  0  0  0  0  0  0  0  0  0
    9.3789  -18.0738   22.9587 O   0  0  0  0  0  0  0  0  0  0  0  0
   12.1900  -17.1305   18.0225 O   0  0  0  0  0  0  0  0  0  0  0  0
    9.6759  -14.5801   30.7793 O   0  0  0  0  0  0  0  0  0  0  0  0
   10.2328  -15.1008   29.6058 C   0  0  0  0  0  0  0  0  0  0  0  0
   10.4769  -16.4668   29.5133 C   0  0  0  0  0  0  0  0  0  0  0  0
   11.0265  -17.0026   28.3632 C   0  0  0  0  0  0  0  0  0  0  0  0
   11.3489  -16.1983   27.2736 C   0  0  0  0  0  0  0  0  0  0  0  0
   11.9365  -16.7478   26.0348 C   0  0  0  0  0  0  0  0  0  0  0  0
   10.8672  -17.1020   25.0169 C   0  0  2  0  0  0  0  0  0  0  0  0
   11.4398  -17.8163   23.8755 N   0  0  0  0  0  0  0  0  0  0  0  0
   10.1750  -15.8883   24.5180 C   0  0  0  0  0  0  0  0  0  0  0  0
   10.8265  -14.9411   23.9783 O   0  0  0  0  0  0  0  0  0  0  0  0
   11.0942  -14.8414   27.3954 C   0  0  0  0  0  0  0  0  0  0  0  0
   10.5466  -14.3016   28.5392 C   0  0  0  0  0  0  0  0  0  0  0  0
    7.5863  -13.8808   20.8150 C   0  0  0  0  0  0  0  0  0  0  0  0
    8.2653  -14.1323   22.1147 C   0  0  0  0  0  0  0  0  0  0  0  0
    7.3069  -14.2120   23.2857 C   0  0  2  0  0  0  0  0  0  0  0  0
    6.5845  -12.8887   23.4234 C   0  0  0  0  0  0  0  0  0  0  0  0
    8.0958  -14.4361   24.5263 C   0  0  2  0  0  0  0  0  0  0  0  0
    8.7855  -15.6925   24.5985 N   0  0  0  0  0  0  0  0  0  0  0  0
    7.2975  -14.2982   25.7744 C   0  0  0  0  0  0  0  0  0  0  0  0
    6.8952  -15.2792   26.4508 O   0  0  0  0  0  0  0  0  0  0  0  0
    6.9606  -13.0388   26.2476 O   0  0  0  0  0  0  0  0  0  0  0  0
  2  3  1  0
  2  1  1  6
  3  4  1  0
  4  5  1  0
  5  6  2  0
  7  8  2  0
  7  2  1  0
  9  5  1  0
 10 11  1  0
 11 21  2  0
 12 13  2  0
 12 11  1  0
 13 14  1  0
 14 15  1  0
 14 20  2  0
 16 15  1  1
 16 17  1  0
 17  7  1  0
 18 16  1  0
 18 19  2  0
 21 20  1  0
 22 23  1  0
 23 24  1  0
 24 25  1  1
 24 26  1  0
 26 27  1  6
 27 18  1  0
 28 26  1  0
 29 28  2  0
 30 28  1  0
M  END
$$$$
