EYI.pdb
     RDKit          3D

 30 30  0  0  1  0  0  0  0  0999 V2000
    9.9451  -17.3915   19.9169 N   0  0  0  0  0  0  0  0  0  0  0  0
    8.5450  -16.9201   19.7577 C   0  0  1  0  0  0  0  0  0  0  0  0
    7.8797  -17.8863   18.8381 C   0  0  0  0  0  0  0  0  0  0  0  0
    8.3125  -17.8458   17.4102 C   0  0  0  0  0  0  0  0  0  0  0  0
    7.6217  -18.7983   16.5386 C   0  0  0  0  0  0  0  0  0  0  0  0
    6.3690  -18.8444   16.5218 O   0  0  0  0  0  0  0  0  0  0  0  0
    7.9741  -16.8119   21.0990 C   0  0  0  0  0  0  0  0  0  0  0  0
    6.7819  -16.3612   21.2277 O   0  0  0  0  0  0  0  0  0  0  0  0
    8.3246  -19.6624   15.7202 O   0  0  0  0  0  0  0  0  0  0  0  0
    4.8005  -22.2894   21.3607 O   0  0  0  0  0  0  0  0  0  0  0  0
    5.5543  -21.3549   22.0796 C   0  0  0  0  0  0  0  0  0  0  0  0
    6.9171  -21.2378   21.8280 C   0  0  0  0  0  0  0  0  0  0  0  0
    7.6809  -20.3210   22.5265 C   0  0  0  0  0  0  0  0  0  0  0  0
    7.1139  -19.4955   23.4936 C   0  0  0  0  0  0  0  0  0  0  0  0
    7.9095  -18.5089   24.2523 C   0  0  0  0  0  0  0  0  0  0  0  0
    7.8867  -17.1429   23.5902 C   0  0  2  0  0  0  0  0  0  0  0  0
    8.6067  -17.1607   22.3165 N   0  0  0  0  0  0  0  0  0  0  0  0
    8.4951  -16.1100   24.4643 C   0  0  0  0  0  0  0  0  0  0  0  0
    9.7419  -15.8720   24.4225 O   0  0  0  0  0  0  0  0  0  0  0  0
    5.7542  -19.6352   23.7221 C   0  0  0  0  0  0  0  0  0  0  0  0
    4.9877  -20.5471   23.0290 C   0  0  0  0  0  0  0  0  0  0  0  0
    5.5734  -11.7474   26.0094 C   0  0  0  0  0  0  0  0  0  0  0  0
    6.6975  -12.6426   25.6244 C   0  0  0  0  0  0  0  0  0  0  0  0
    7.3198  -13.3637   26.8030 C   0  0  2  0  0  0  0  0  0  0  0  0
    8.0726  -12.3623   27.6529 C   0  0  0  0  0  0  0  0  0  0  0  0
    8.2996  -14.3555   26.2852 C   0  0  2  0  0  0  0  0  0  0  0  0
    7.7655  -15.3343   25.3817 N   0  0  0  0  0  0  0  0  0  0  0  0
    9.0258  -15.0918   27.3550 C   0  0  0  0  0  0  0  0  0  0  0  0
    8.5970  -16.1514   27.8797 O   0  0  0  0  0  0  0  0  0  0  0  0
   10.2413  -14.6157   27.8234 O   0  0  0  0  0  0  0  0  0  0  0  0
  2  3  1  0
  2  1  1  1
  3  4  1  0
  4  5  1  0
  5  6  2  0
  7  8  2  0
  7  2  1  0
  9  5  1  0
 10 11  1  0
 11 21  2  0
 12 13  2  0
 12 11  1  0
 13 14  1  0
 14 15  1  0
 14 20  2  0
 16 15  1  1
 16 17  1  0
 17  7  1  0
 18 16  1  0
 18 19  2  0
 21 20  1  0
 22 23  1  0
 23 24  1  0
 24 25  1  1
 24 26  1  0
 26 27  1  6
 27 18  1  0
 28 26  1  0
 29 28  2  0
 30 28  1  0
M  END
$$$$
