EYI.pdb
     RDKit          3D

 30 30  0  0  1  0  0  0  0  0999 V2000
   11.7998  -18.9434   25.4723 N   0  0  0  0  0  0  0  0  0  0  0  0
   11.5036  -17.9384   24.4187 C   0  0  1  0  0  0  0  0  0  0  0  0
   11.8271  -18.5884   23.1168 C   0  0  0  0  0  0  0  0  0  0  0  0
   11.6166  -17.7596   21.8935 C   0  0  0  0  0  0  0  0  0  0  0  0
   12.7679  -17.7064   20.9901 C   0  0  0  0  0  0  0  0  0  0  0  0
   12.7932  -18.4171   19.9577 O   0  0  0  0  0  0  0  0  0  0  0  0
   10.1143  -17.5223   24.6018 C   0  0  0  0  0  0  0  0  0  0  0  0
    9.2236  -18.4194   24.8090 O   0  0  0  0  0  0  0  0  0  0  0  0
   13.8453  -16.8803   21.2488 O   0  0  0  0  0  0  0  0  0  0  0  0
   11.0432  -15.0368   30.5098 O   0  0  0  0  0  0  0  0  0  0  0  0
   10.3046  -14.9512   29.3243 C   0  0  0  0  0  0  0  0  0  0  0  0
   10.4779  -13.8524   28.4895 C   0  0  0  0  0  0  0  0  0  0  0  0
    9.7585  -13.7474   27.3134 C   0  0  0  0  0  0  0  0  0  0  0  0
    8.8478  -14.7293   26.9331 C   0  0  0  0  0  0  0  0  0  0  0  0
    8.0683  -14.6391   25.6817 C   0  0  0  0  0  0  0  0  0  0  0  0
    8.2125  -15.8946   24.8403 C   0  0  2  0  0  0  0  0  0  0  0  0
    9.6200  -16.1959   24.5775 N   0  0  0  0  0  0  0  0  0  0  0  0
    7.5065  -15.7578   23.5426 C   0  0  0  0  0  0  0  0  0  0  0  0
    6.3305  -15.2817   23.4868 O   0  0  0  0  0  0  0  0  0  0  0  0
    8.6968  -15.8119   27.7851 C   0  0  0  0  0  0  0  0  0  0  0  0
    9.4110  -15.9220   28.9587 C   0  0  0  0  0  0  0  0  0  0  0  0
    8.0185  -12.2715   20.0365 C   0  0  0  0  0  0  0  0  0  0  0  0
    8.3210  -13.6522   20.5008 C   0  0  0  0  0  0  0  0  0  0  0  0
    7.0803  -14.4862   20.7489 C   0  0  2  0  0  0  0  0  0  0  0  0
    6.3778  -13.9699   21.9865 C   0  0  0  0  0  0  0  0  0  0  0  0
    7.4994  -15.8890   21.0099 C   0  0  2  0  0  0  0  0  0  0  0  0
    8.0628  -16.1318   22.3072 N   0  0  0  0  0  0  0  0  0  0  0  0
    8.4587  -16.4221   20.0051 C   0  0  0  0  0  0  0  0  0  0  0  0
    9.5832  -16.8982   20.3061 O   0  0  0  0  0  0  0  0  0  0  0  0
    8.1308  -16.4104   18.6575 O   0  0  0  0  0  0  0  0  0  0  0  0
  2  3  1  0
  2  1  1  1
  3  4  1  0
  4  5  1  0
  5  6  2  0
  7  8  2  0
  7  2  1  0
  9  5  1  0
 10 11  1  0
 11 21  2  0
 12 13  2  0
 12 11  1  0
 13 14  1  0
 14 15  1  0
 14 20  2  0
 16 15  1  6
 16 17  1  0
 17  7  1  0
 18 16  1  0
 18 19  2  0
 21 20  1  0
 22 23  1  0
 23 24  1  0
 24 25  1  1
 24 26  1  0
 26 27  1  1
 27 18  1  0
 28 26  1  0
 29 28  2  0
 30 28  1  0
M  END
$$$$
