EYI.pdb
     RDKit          3D

 30 30  0  0  1  0  0  0  0  0999 V2000
    9.3082  -19.0844   20.8522 N   0  0  0  0  0  0  0  0  0  0  0  0
   10.2594  -17.9920   21.1837 C   0  0  1  0  0  0  0  0  0  0  0  0
   10.1184  -16.9722   20.1057 C   0  0  0  0  0  0  0  0  0  0  0  0
    9.4849  -17.4352   18.8361 C   0  0  0  0  0  0  0  0  0  0  0  0
   10.4184  -18.0117   17.8662 C   0  0  0  0  0  0  0  0  0  0  0  0
   11.2439  -17.2786   17.2723 O   0  0  0  0  0  0  0  0  0  0  0  0
    9.9418  -17.5436   22.5383 C   0  0  0  0  0  0  0  0  0  0  0  0
    8.7212  -17.5692   22.9266 O   0  0  0  0  0  0  0  0  0  0  0  0
   10.4143  -19.3645   17.5830 O   0  0  0  0  0  0  0  0  0  0  0  0
    9.9582  -15.3608   31.1000 O   0  0  0  0  0  0  0  0  0  0  0  0
   10.3651  -15.6759   29.7987 C   0  0  0  0  0  0  0  0  0  0  0  0
   10.4995  -14.6586   28.8599 C   0  0  0  0  0  0  0  0  0  0  0  0
   10.9003  -14.9474   27.5685 C   0  0  0  0  0  0  0  0  0  0  0  0
   11.1787  -16.2528   27.1729 C   0  0  0  0  0  0  0  0  0  0  0  0
   11.6084  -16.5855   25.7994 C   0  0  0  0  0  0  0  0  0  0  0  0
   10.4266  -16.6851   24.8516 C   0  0  2  0  0  0  0  0  0  0  0  0
   10.8582  -17.0686   23.5071 N   0  0  0  0  0  0  0  0  0  0  0  0
    9.6948  -15.3975   24.7654 C   0  0  0  0  0  0  0  0  0  0  0  0
   10.3156  -14.3055   24.5781 O   0  0  0  0  0  0  0  0  0  0  0  0
   11.0359  -17.2448   28.1302 C   0  0  0  0  0  0  0  0  0  0  0  0
   10.6368  -16.9631   29.4189 C   0  0  0  0  0  0  0  0  0  0  0  0
    7.4741  -12.9050   21.3724 C   0  0  0  0  0  0  0  0  0  0  0  0
    7.9999  -13.3144   22.7026 C   0  0  0  0  0  0  0  0  0  0  0  0
    6.9097  -13.6059   23.7139 C   0  0  2  0  0  0  0  0  0  0  0  0
    6.1545  -12.3274   24.0081 C   0  0  0  0  0  0  0  0  0  0  0  0
    7.5481  -14.0636   24.9767 C   0  0  2  0  0  0  0  0  0  0  0  0
    8.2986  -15.2830   24.8802 N   0  0  0  0  0  0  0  0  0  0  0  0
    6.5919  -14.2218   26.1058 C   0  0  0  0  0  0  0  0  0  0  0  0
    6.2269  -15.3393   26.5525 O   0  0  0  0  0  0  0  0  0  0  0  0
    6.0545  -13.1019   26.7227 O   0  0  0  0  0  0  0  0  0  0  0  0
  2  3  1  0
  2  1  1  6
  3  4  1  0
  4  5  1  0
  5  6  2  0
  7  8  2  0
  7  2  1  0
  9  5  1  0
 10 11  1  0
 11 21  2  0
 12 13  2  0
 12 11  1  0
 13 14  1  0
 14 15  1  0
 14 20  2  0
 16 15  1  1
 16 17  1  0
 17  7  1  0
 18 16  1  0
 18 19  2  0
 21 20  1  0
 22 23  1  0
 23 24  1  0
 24 25  1  1
 24 26  1  0
 26 27  1  6
 27 18  1  0
 28 26  1  0
 29 28  2  0
 30 28  1  0
M  END
$$$$
