EYI.pdb
     RDKit          3D

 30 30  0  0  1  0  0  0  0  0999 V2000
   11.2752  -15.8540   20.9831 N   0  0  0  0  0  0  0  0  0  0  0  0
   10.7496  -17.2073   21.2993 C   0  0  1  0  0  0  0  0  0  0  0  0
   11.6204  -18.1752   20.5734 C   0  0  0  0  0  0  0  0  0  0  0  0
   12.9810  -17.6887   20.1991 C   0  0  0  0  0  0  0  0  0  0  0  0
   13.6814  -18.5312   19.2273 C   0  0  0  0  0  0  0  0  0  0  0  0
   14.8476  -18.2440   18.8680 O   0  0  0  0  0  0  0  0  0  0  0  0
   10.7279  -17.3292   22.7558 C   0  0  0  0  0  0  0  0  0  0  0  0
   10.2362  -18.3901   23.2791 O   0  0  0  0  0  0  0  0  0  0  0  0
   13.0819  -19.6529   18.6864 O   0  0  0  0  0  0  0  0  0  0  0  0
   11.2127  -16.1722   31.5261 O   0  0  0  0  0  0  0  0  0  0  0  0
   11.3773  -16.0145   30.1454 C   0  0  0  0  0  0  0  0  0  0  0  0
   11.8155  -17.0915   29.3824 C   0  0  0  0  0  0  0  0  0  0  0  0
   11.9850  -16.9579   28.0167 C   0  0  0  0  0  0  0  0  0  0  0  0
   11.7244  -15.7525   27.3705 C   0  0  0  0  0  0  0  0  0  0  0  0
   11.8980  -15.5860   25.9131 C   0  0  0  0  0  0  0  0  0  0  0  0
   11.0439  -16.5683   25.1316 C   0  0  2  0  0  0  0  0  0  0  0  0
   11.2053  -16.3784   23.6898 N   0  0  0  0  0  0  0  0  0  0  0  0
    9.6071  -16.4223   25.4712 C   0  0  0  0  0  0  0  0  0  0  0  0
    9.0410  -17.2286   26.2725 O   0  0  0  0  0  0  0  0  0  0  0  0
   11.2892  -14.6977   28.1571 C   0  0  0  0  0  0  0  0  0  0  0  0
   11.1184  -14.8249   29.5187 C   0  0  0  0  0  0  0  0  0  0  0  0
    5.8840  -11.6730   26.4065 C   0  0  0  0  0  0  0  0  0  0  0  0
    6.0312  -13.1244   26.1144 C   0  0  0  0  0  0  0  0  0  0  0  0
    7.3310  -13.4657   25.4142 C   0  0  2  0  0  0  0  0  0  0  0  0
    7.2053  -13.1225   23.9451 C   0  0  0  0  0  0  0  0  0  0  0  0
    7.5560  -14.9315   25.5260 C   0  0  2  0  0  0  0  0  0  0  0  0
    8.7800  -15.4120   24.9509 N   0  0  0  0  0  0  0  0  0  0  0  0
    6.4505  -15.7502   24.9589 C   0  0  0  0  0  0  0  0  0  0  0  0
    6.5704  -16.4525   23.9224 O   0  0  0  0  0  0  0  0  0  0  0  0
    5.2094  -15.7649   25.5777 O   0  0  0  0  0  0  0  0  0  0  0  0
  2  3  1  0
  2  1  1  1
  3  4  1  0
  4  5  1  0
  5  6  2  0
  7  8  2  0
  7  2  1  0
  9  5  1  0
 10 11  1  0
 11 21  2  0
 12 13  2  0
 12 11  1  0
 13 14  1  0
 14 15  1  0
 14 20  2  0
 16 15  1  1
 16 17  1  0
 17  7  1  0
 18 16  1  0
 18 19  2  0
 21 20  1  0
 22 23  1  0
 23 24  1  0
 24 25  1  6
 24 26  1  0
 26 27  1  6
 27 18  1  0
 28 26  1  0
 29 28  2  0
 30 28  1  0
M  END
$$$$
