EYI.pdb
     RDKit          3D

 30 30  0  0  1  0  0  0  0  0999 V2000
   10.4016  -18.4389   20.0832 N   0  0  0  0  0  0  0  0  0  0  0  0
   11.4991  -17.5815   20.6012 C   0  0  1  0  0  0  0  0  0  0  0  0
   12.1322  -16.9463   19.4106 C   0  0  0  0  0  0  0  0  0  0  0  0
   11.8915  -17.6149   18.0980 C   0  0  0  0  0  0  0  0  0  0  0  0
   12.8151  -17.2150   17.0341 C   0  0  0  0  0  0  0  0  0  0  0  0
   13.7964  -16.4795   17.2939 O   0  0  0  0  0  0  0  0  0  0  0  0
   10.9059  -16.6693   21.5773 C   0  0  0  0  0  0  0  0  0  0  0  0
   11.6433  -15.7628   22.1023 O   0  0  0  0  0  0  0  0  0  0  0  0
   12.6313  -17.6335   15.7297 O   0  0  0  0  0  0  0  0  0  0  0  0
    5.7023  -12.0347   27.0205 O   0  0  0  0  0  0  0  0  0  0  0  0
    6.1773  -12.8643   25.9985 C   0  0  0  0  0  0  0  0  0  0  0  0
    5.9889  -14.2391   26.0917 C   0  0  0  0  0  0  0  0  0  0  0  0
    6.4501  -15.0773   25.0935 C   0  0  0  0  0  0  0  0  0  0  0  0
    7.1107  -14.5750   23.9757 C   0  0  0  0  0  0  0  0  0  0  0  0
    7.6120  -15.4505   22.8969 C   0  0  0  0  0  0  0  0  0  0  0  0
    9.0948  -15.7373   23.0519 C   0  0  2  0  0  0  0  0  0  0  0  0
    9.5631  -16.6691   22.0255 N   0  0  0  0  0  0  0  0  0  0  0  0
    9.3961  -16.3113   24.3864 C   0  0  0  0  0  0  0  0  0  0  0  0
    9.5599  -17.5617   24.5369 O   0  0  0  0  0  0  0  0  0  0  0  0
    7.2835  -13.2014   23.9110 C   0  0  0  0  0  0  0  0  0  0  0  0
    6.8260  -12.3609   24.9028 C   0  0  0  0  0  0  0  0  0  0  0  0
   11.3635  -14.3675   29.9884 C   0  0  0  0  0  0  0  0  0  0  0  0
   11.3843  -15.2796   28.8132 C   0  0  0  0  0  0  0  0  0  0  0  0
   10.6088  -14.7450   27.6262 C   0  0  2  0  0  0  0  0  0  0  0  0
    9.3014  -14.1583   28.1143 C   0  0  0  0  0  0  0  0  0  0  0  0
   10.2928  -15.8805   26.7193 C   0  0  2  0  0  0  0  0  0  0  0  0
    9.5212  -15.5436   25.5571 N   0  0  0  0  0  0  0  0  0  0  0  0
    9.6008  -17.0105   27.3964 C   0  0  0  0  0  0  0  0  0  0  0  0
   10.1088  -17.6670   28.3412 O   0  0  0  0  0  0  0  0  0  0  0  0
    8.3289  -17.3881   26.9924 O   0  0  0  0  0  0  0  0  0  0  0  0
  2  3  1  0
  2  1  1  6
  3  4  1  0
  4  5  1  0
  5  6  2  0
  7  8  2  0
  7  2  1  0
  9  5  1  0
 10 11  1  0
 11 21  2  0
 12 13  2  0
 12 11  1  0
 13 14  1  0
 14 15  1  0
 14 20  2  0
 16 15  1  1
 16 17  1  0
 17  7  1  0
 18 16  1  0
 18 19  2  0
 21 20  1  0
 22 23  1  0
 23 24  1  0
 24 25  1  1
 24 26  1  0
 26 27  1  6
 27 18  1  0
 28 26  1  0
 29 28  2  0
 30 28  1  0
M  END
$$$$
