EYI.pdb
     RDKit          3D

 30 30  0  0  1  0  0  0  0  0999 V2000
    5.5501  -19.2063   19.7735 N   0  0  0  0  0  0  0  0  0  0  0  0
    6.8179  -18.5532   20.1907 C   0  0  1  0  0  0  0  0  0  0  0  0
    6.9438  -17.3178   19.3661 C   0  0  0  0  0  0  0  0  0  0  0  0
    7.4931  -17.4945   17.9896 C   0  0  0  0  0  0  0  0  0  0  0  0
    7.5924  -16.2578   17.2115 C   0  0  0  0  0  0  0  0  0  0  0  0
    6.7788  -16.0276   16.2861 O   0  0  0  0  0  0  0  0  0  0  0  0
    6.7424  -18.3557   21.6371 C   0  0  0  0  0  0  0  0  0  0  0  0
    5.6817  -17.8376   22.1347 O   0  0  0  0  0  0  0  0  0  0  0  0
    8.5750  -15.3220   17.4741 O   0  0  0  0  0  0  0  0  0  0  0  0
    8.1686  -18.1297   30.3774 O   0  0  0  0  0  0  0  0  0  0  0  0
    8.1114  -18.4812   29.0240 C   0  0  0  0  0  0  0  0  0  0  0  0
    9.2786  -18.4792   28.2679 C   0  0  0  0  0  0  0  0  0  0  0  0
    9.2451  -18.8231   26.9291 C   0  0  0  0  0  0  0  0  0  0  0  0
    8.0530  -19.1783   26.3038 C   0  0  0  0  0  0  0  0  0  0  0  0
    7.9926  -19.5495   24.8753 C   0  0  0  0  0  0  0  0  0  0  0  0
    7.5795  -18.3737   24.0082 C   0  0  2  0  0  0  0  0  0  0  0  0
    7.7397  -18.6830   22.5870 N   0  0  0  0  0  0  0  0  0  0  0  0
    8.3790  -17.1644   24.3233 C   0  0  0  0  0  0  0  0  0  0  0  0
    9.5889  -17.0666   23.9496 O   0  0  0  0  0  0  0  0  0  0  0  0
    6.9068  -19.1710   27.0828 C   0  0  0  0  0  0  0  0  0  0  0  0
    6.9341  -18.8292   28.4177 C   0  0  0  0  0  0  0  0  0  0  0  0
    5.9799  -12.5254   26.7909 C   0  0  0  0  0  0  0  0  0  0  0  0
    6.7159  -13.7800   26.4781 C   0  0  0  0  0  0  0  0  0  0  0  0
    7.7290  -13.6180   25.3629 C   0  0  2  0  0  0  0  0  0  0  0  0
    6.9964  -13.5057   24.0429 C   0  0  0  0  0  0  0  0  0  0  0  0
    8.5772  -14.8387   25.3154 C   0  0  2  0  0  0  0  0  0  0  0  0
    7.8800  -16.0622   25.0386 N   0  0  0  0  0  0  0  0  0  0  0  0
    9.3790  -15.0569   26.5497 C   0  0  0  0  0  0  0  0  0  0  0  0
    9.2322  -16.0528   27.3036 O   0  0  0  0  0  0  0  0  0  0  0  0
   10.3478  -14.1362   26.9202 O   0  0  0  0  0  0  0  0  0  0  0  0
  2  3  1  0
  2  1  1  6
  3  4  1  0
  4  5  1  0
  5  6  2  0
  7  8  2  0
  7  2  1  0
  9  5  1  0
 10 11  1  0
 11 21  2  0
 12 13  2  0
 12 11  1  0
 13 14  1  0
 14 15  1  0
 14 20  2  0
 16 15  1  1
 16 17  1  0
 17  7  1  0
 18 16  1  0
 18 19  2  0
 21 20  1  0
 22 23  1  0
 23 24  1  0
 24 25  1  6
 24 26  1  0
 26 27  1  1
 27 18  1  0
 28 26  1  0
 29 28  2  0
 30 28  1  0
M  END
$$$$
