EYI.pdb
     RDKit          3D

 30 30  0  0  1  0  0  0  0  0999 V2000
   12.6743  -16.0020   20.8966 N   0  0  0  0  0  0  0  0  0  0  0  0
   12.3131  -17.3730   21.3410 C   0  0  1  0  0  0  0  0  0  0  0  0
   13.5967  -18.1139   21.4997 C   0  0  0  0  0  0  0  0  0  0  0  0
   14.2299  -18.6163   20.2450 C   0  0  0  0  0  0  0  0  0  0  0  0
   15.4589  -19.3857   20.4504 C   0  0  0  0  0  0  0  0  0  0  0  0
   15.8802  -19.6038   21.6107 O   0  0  0  0  0  0  0  0  0  0  0  0
   11.4989  -17.2320   22.5469 C   0  0  0  0  0  0  0  0  0  0  0  0
   10.9863  -18.2822   23.0717 O   0  0  0  0  0  0  0  0  0  0  0  0
   16.1789  -19.8863   19.3821 O   0  0  0  0  0  0  0  0  0  0  0  0
    9.9036  -15.9256   30.8433 O   0  0  0  0  0  0  0  0  0  0  0  0
   10.1193  -15.6444   29.4896 C   0  0  0  0  0  0  0  0  0  0  0  0
    9.6071  -16.5038   28.5235 C   0  0  0  0  0  0  0  0  0  0  0  0
    9.8083  -16.2452   27.1802 C   0  0  0  0  0  0  0  0  0  0  0  0
   10.5229  -15.1273   26.7585 C   0  0  0  0  0  0  0  0  0  0  0  0
   10.7505  -14.8304   25.3295 C   0  0  0  0  0  0  0  0  0  0  0  0
   10.3924  -16.0132   24.4478 C   0  0  2  0  0  0  0  0  0  0  0  0
   11.2009  -16.0275   23.2283 N   0  0  0  0  0  0  0  0  0  0  0  0
    8.9590  -15.9865   24.0660 C   0  0  0  0  0  0  0  0  0  0  0  0
    8.0504  -16.2021   24.9268 O   0  0  0  0  0  0  0  0  0  0  0  0
   11.0208  -14.2897   27.7440 C   0  0  0  0  0  0  0  0  0  0  0  0
   10.8235  -14.5423   29.0844 C   0  0  0  0  0  0  0  0  0  0  0  0
    7.3865  -12.6408   20.0043 C   0  0  0  0  0  0  0  0  0  0  0  0
    7.6978  -13.9391   20.6608 C   0  0  0  0  0  0  0  0  0  0  0  0
    6.7515  -14.2792   21.7945 C   0  0  2  0  0  0  0  0  0  0  0  0
    6.9101  -13.2518   22.8949 C   0  0  0  0  0  0  0  0  0  0  0  0
    7.1343  -15.6062   22.3461 C   0  0  2  0  0  0  0  0  0  0  0  0
    8.5024  -15.7286   22.7619 N   0  0  0  0  0  0  0  0  0  0  0  0
    6.8496  -16.7400   21.4254 C   0  0  0  0  0  0  0  0  0  0  0  0
    7.7240  -17.5611   21.0473 O   0  0  0  0  0  0  0  0  0  0  0  0
    5.5654  -16.9336   20.9387 O   0  0  0  0  0  0  0  0  0  0  0  0
  2  3  1  0
  2  1  1  1
  3  4  1  0
  4  5  1  0
  5  6  2  0
  7  8  2  0
  7  2  1  0
  9  5  1  0
 10 11  1  0
 11 21  2  0
 12 13  2  0
 12 11  1  0
 13 14  1  0
 14 15  1  0
 14 20  2  0
 16 15  1  1
 16 17  1  0
 17  7  1  0
 18 16  1  0
 18 19  2  0
 21 20  1  0
 22 23  1  0
 23 24  1  0
 24 25  1  1
 24 26  1  0
 26 27  1  6
 27 18  1  0
 28 26  1  0
 29 28  2  0
 30 28  1  0
M  END
$$$$
