EYI.pdb
     RDKit          3D

 30 30  0  0  1  0  0  0  0  0999 V2000
   11.8016  -16.6962   19.2356 N   0  0  0  0  0  0  0  0  0  0  0  0
   11.1606  -17.5346   20.2815 C   0  0  1  0  0  0  0  0  0  0  0  0
   12.1970  -18.5063   20.7329 C   0  0  0  0  0  0  0  0  0  0  0  0
   12.5038  -19.6282   19.7974 C   0  0  0  0  0  0  0  0  0  0  0  0
   13.4230  -20.6335   20.3350 C   0  0  0  0  0  0  0  0  0  0  0  0
   13.0549  -21.8260   20.4533 O   0  0  0  0  0  0  0  0  0  0  0  0
   10.6440  -16.6252   21.3027 C   0  0  0  0  0  0  0  0  0  0  0  0
   11.3567  -15.6194   21.6509 O   0  0  0  0  0  0  0  0  0  0  0  0
   14.7067  -20.2979   20.7219 O   0  0  0  0  0  0  0  0  0  0  0  0
    5.9888  -11.6840   26.9050 O   0  0  0  0  0  0  0  0  0  0  0  0
    6.3654  -12.6130   25.9285 C   0  0  0  0  0  0  0  0  0  0  0  0
    7.0597  -12.1787   24.8044 C   0  0  0  0  0  0  0  0  0  0  0  0
    7.4416  -13.0793   23.8273 C   0  0  0  0  0  0  0  0  0  0  0  0
    7.1455  -14.4351   23.9384 C   0  0  0  0  0  0  0  0  0  0  0  0
    7.5432  -15.4157   22.9078 C   0  0  0  0  0  0  0  0  0  0  0  0
    9.0124  -15.7814   23.0200 C   0  0  2  0  0  0  0  0  0  0  0  0
    9.4026  -16.7287   21.9754 N   0  0  0  0  0  0  0  0  0  0  0  0
    9.3192  -16.3805   24.3421 C   0  0  0  0  0  0  0  0  0  0  0  0
    9.4522  -17.6367   24.4740 O   0  0  0  0  0  0  0  0  0  0  0  0
    6.4529  -14.8377   25.0693 C   0  0  0  0  0  0  0  0  0  0  0  0
    6.0696  -13.9447   26.0466 C   0  0  0  0  0  0  0  0  0  0  0  0
   10.6231  -12.7198   28.2336 C   0  0  0  0  0  0  0  0  0  0  0  0
   10.8819  -13.9683   27.4670 C   0  0  0  0  0  0  0  0  0  0  0  0
    9.9921  -15.1221   27.8831 C   0  0  2  0  0  0  0  0  0  0  0  0
   10.5880  -15.7897   29.1041 C   0  0  0  0  0  0  0  0  0  0  0  0
    9.9667  -16.1195   26.7803 C   0  0  2  0  0  0  0  0  0  0  0  0
    9.4828  -15.6318   25.5203 N   0  0  0  0  0  0  0  0  0  0  0  0
    9.1931  -17.3485   27.1047 C   0  0  0  0  0  0  0  0  0  0  0  0
    7.9658  -17.4781   26.8624 O   0  0  0  0  0  0  0  0  0  0  0  0
    9.8239  -18.4278   27.7053 O   0  0  0  0  0  0  0  0  0  0  0  0
  2  3  1  0
  2  1  1  6
  3  4  1  0
  4  5  1  0
  5  6  2  0
  7  8  2  0
  7  2  1  0
  9  5  1  0
 10 11  1  0
 11 21  2  0
 12 13  2  0
 12 11  1  0
 13 14  1  0
 14 15  1  0
 14 20  2  0
 16 15  1  1
 16 17  1  0
 17  7  1  0
 18 16  1  0
 18 19  2  0
 21 20  1  0
 22 23  1  0
 23 24  1  0
 24 25  1  1
 24 26  1  0
 26 27  1  6
 27 18  1  0
 28 26  1  0
 29 28  2  0
 30 28  1  0
M  END
$$$$
