EYI.pdb
     RDKit          3D

 30 30  0  0  1  0  0  0  0  0999 V2000
    7.9992  -18.6998   19.7969 N   0  0  0  0  0  0  0  0  0  0  0  0
    8.8054  -18.5839   21.0396 C   0  0  1  0  0  0  0  0  0  0  0  0
   10.1370  -18.0560   20.6274 C   0  0  0  0  0  0  0  0  0  0  0  0
   11.2850  -19.0044   20.7294 C   0  0  0  0  0  0  0  0  0  0  0  0
   12.5662  -18.4587   20.2764 C   0  0  0  0  0  0  0  0  0  0  0  0
   12.9421  -18.6305   19.0929 O   0  0  0  0  0  0  0  0  0  0  0  0
    8.0434  -17.7515   21.9687 C   0  0  0  0  0  0  0  0  0  0  0  0
    7.3383  -16.7901   21.5000 O   0  0  0  0  0  0  0  0  0  0  0  0
   13.3860  -17.7474   21.1322 O   0  0  0  0  0  0  0  0  0  0  0  0
    8.5465  -22.1050   27.7188 O   0  0  0  0  0  0  0  0  0  0  0  0
    8.0071  -20.9837   27.0784 C   0  0  0  0  0  0  0  0  0  0  0  0
    7.5042  -19.9366   27.8431 C   0  0  0  0  0  0  0  0  0  0  0  0
    6.9667  -18.8192   27.2312 C   0  0  0  0  0  0  0  0  0  0  0  0
    6.9134  -18.7100   25.8443 C   0  0  0  0  0  0  0  0  0  0  0  0
    6.3442  -17.5264   25.1683 C   0  0  0  0  0  0  0  0  0  0  0  0
    7.3453  -16.8855   24.2239 C   0  0  2  0  0  0  0  0  0  0  0  0
    7.9902  -17.8891   23.3767 N   0  0  0  0  0  0  0  0  0  0  0  0
    8.3953  -16.1494   24.9700 C   0  0  0  0  0  0  0  0  0  0  0  0
    9.2927  -16.7717   25.6183 O   0  0  0  0  0  0  0  0  0  0  0  0
    7.4221  -19.7691   25.1093 C   0  0  0  0  0  0  0  0  0  0  0  0
    7.9590  -20.8853   25.7136 C   0  0  0  0  0  0  0  0  0  0  0  0
    5.4815  -11.8247   25.8909 C   0  0  0  0  0  0  0  0  0  0  0  0
    6.7571  -12.5021   25.5341 C   0  0  0  0  0  0  0  0  0  0  0  0
    7.3484  -13.3053   26.6749 C   0  0  2  0  0  0  0  0  0  0  0  0
    7.6982  -12.3667   27.8101 C   0  0  0  0  0  0  0  0  0  0  0  0
    8.6061  -13.9420   26.2011 C   0  0  2  0  0  0  0  0  0  0  0  0
    8.4811  -14.7473   25.0198 N   0  0  0  0  0  0  0  0  0  0  0  0
    9.2795  -14.7749   27.2340 C   0  0  0  0  0  0  0  0  0  0  0  0
   10.2229  -14.3571   27.9532 O   0  0  0  0  0  0  0  0  0  0  0  0
    8.8731  -16.0843   27.4435 O   0  0  0  0  0  0  0  0  0  0  0  0
  2  3  1  0
  2  1  1  6
  3  4  1  0
  4  5  1  0
  5  6  2  0
  7  8  2  0
  7  2  1  0
  9  5  1  0
 10 11  1  0
 11 21  2  0
 12 13  2  0
 12 11  1  0
 13 14  1  0
 14 15  1  0
 14 20  2  0
 16 15  1  1
 16 17  1  0
 17  7  1  0
 18 16  1  0
 18 19  2  0
 21 20  1  0
 22 23  1  0
 23 24  1  0
 24 25  1  1
 24 26  1  0
 26 27  1  6
 27 18  1  0
 28 26  1  0
 29 28  2  0
 30 28  1  0
M  END
$$$$
