EYI.pdb
     RDKit          3D

 30 30  0  0  1  0  0  0  0  0999 V2000
   12.0947  -16.5784   19.4793 N   0  0  0  0  0  0  0  0  0  0  0  0
   11.2176  -17.4072   20.3463 C   0  0  1  0  0  0  0  0  0  0  0  0
   12.0393  -18.5720   20.7822 C   0  0  0  0  0  0  0  0  0  0  0  0
   11.9871  -19.7817   19.9095 C   0  0  0  0  0  0  0  0  0  0  0  0
   12.2746  -21.0412   20.5990 C   0  0  0  0  0  0  0  0  0  0  0  0
   13.4606  -21.3906   20.8063 O   0  0  0  0  0  0  0  0  0  0  0  0
   10.7209  -16.5367   21.4104 C   0  0  0  0  0  0  0  0  0  0  0  0
   11.4791  -15.6005   21.8462 O   0  0  0  0  0  0  0  0  0  0  0  0
   11.2573  -21.8691   21.0348 O   0  0  0  0  0  0  0  0  0  0  0  0
    6.0696  -11.9136   27.3137 O   0  0  0  0  0  0  0  0  0  0  0  0
    6.4476  -12.7640   26.2687 C   0  0  0  0  0  0  0  0  0  0  0  0
    6.1699  -14.1237   26.3601 C   0  0  0  0  0  0  0  0  0  0  0  0
    6.5344  -14.9820   25.3393 C   0  0  0  0  0  0  0  0  0  0  0  0
    7.1842  -14.5153   24.2000 C   0  0  0  0  0  0  0  0  0  0  0  0
    7.5831  -15.4129   23.0967 C   0  0  0  0  0  0  0  0  0  0  0  0
    9.0752  -15.6928   23.1141 C   0  0  2  0  0  0  0  0  0  0  0  0
    9.4538  -16.6086   22.0376 N   0  0  0  0  0  0  0  0  0  0  0  0
    9.4981  -16.2818   24.4084 C   0  0  0  0  0  0  0  0  0  0  0  0
    9.6784  -17.5333   24.5277 O   0  0  0  0  0  0  0  0  0  0  0  0
    7.4474  -13.1560   24.1375 C   0  0  0  0  0  0  0  0  0  0  0  0
    7.0864  -12.2956   25.1519 C   0  0  0  0  0  0  0  0  0  0  0  0
   10.3682  -12.7144   28.6523 C   0  0  0  0  0  0  0  0  0  0  0  0
   10.5953  -13.7650   27.6236 C   0  0  0  0  0  0  0  0  0  0  0  0
    9.9902  -15.1046   27.9918 C   0  0  2  0  0  0  0  0  0  0  0  0
   10.7421  -15.6778   29.1741 C   0  0  0  0  0  0  0  0  0  0  0  0
   10.1644  -16.0325   26.8428 C   0  0  2  0  0  0  0  0  0  0  0  0
    9.7268  -15.5281   25.5725 N   0  0  0  0  0  0  0  0  0  0  0  0
    9.5136  -17.3560   27.0402 C   0  0  0  0  0  0  0  0  0  0  0  0
    8.2908  -17.5640   26.8324 O   0  0  0  0  0  0  0  0  0  0  0  0
   10.2619  -18.4398   27.4748 O   0  0  0  0  0  0  0  0  0  0  0  0
  2  3  1  0
  2  1  1  6
  3  4  1  0
  4  5  1  0
  5  6  2  0
  7  8  2  0
  7  2  1  0
  9  5  1  0
 10 11  1  0
 11 21  2  0
 12 13  2  0
 12 11  1  0
 13 14  1  0
 14 15  1  0
 14 20  2  0
 16 15  1  1
 16 17  1  0
 17  7  1  0
 18 16  1  0
 18 19  2  0
 21 20  1  0
 22 23  1  0
 23 24  1  0
 24 25  1  1
 24 26  1  0
 26 27  1  6
 27 18  1  0
 28 26  1  0
 29 28  2  0
 30 28  1  0
M  END
$$$$
