EYI.pdb
     RDKit          3D

 30 30  0  0  1  0  0  0  0  0999 V2000
    4.3339  -20.2518   21.6255 N   0  0  0  0  0  0  0  0  0  0  0  0
    5.7051  -20.0865   22.1736 C   0  0  1  0  0  0  0  0  0  0  0  0
    6.6428  -20.3913   21.0556 C   0  0  0  0  0  0  0  0  0  0  0  0
    6.8382  -21.8351   20.7314 C   0  0  0  0  0  0  0  0  0  0  0  0
    7.8103  -22.0925   19.6668 C   0  0  0  0  0  0  0  0  0  0  0  0
    9.0367  -21.9505   19.8844 O   0  0  0  0  0  0  0  0  0  0  0  0
    5.7847  -18.7369   22.7294 C   0  0  0  0  0  0  0  0  0  0  0  0
    5.1878  -17.7819   22.1188 O   0  0  0  0  0  0  0  0  0  0  0  0
    7.4059  -22.4945   18.4078 O   0  0  0  0  0  0  0  0  0  0  0  0
    7.5213  -11.2322   26.9997 O   0  0  0  0  0  0  0  0  0  0  0  0
    7.3738  -12.5868   26.6807 C   0  0  0  0  0  0  0  0  0  0  0  0
    8.4989  -13.3398   26.3623 C   0  0  0  0  0  0  0  0  0  0  0  0
    8.3763  -14.6798   26.0440 C   0  0  0  0  0  0  0  0  0  0  0  0
    7.1346  -15.3094   26.0329 C   0  0  0  0  0  0  0  0  0  0  0  0
    6.9789  -16.7392   25.6964 C   0  0  0  0  0  0  0  0  0  0  0  0
    6.7353  -16.9417   24.2116 C   0  0  2  0  0  0  0  0  0  0  0  0
    6.4674  -18.3476   23.9069 N   0  0  0  0  0  0  0  0  0  0  0  0
    7.9005  -16.4962   23.4086 C   0  0  0  0  0  0  0  0  0  0  0  0
    8.9339  -17.2261   23.2977 O   0  0  0  0  0  0  0  0  0  0  0  0
    6.0323  -14.5333   26.3545 C   0  0  0  0  0  0  0  0  0  0  0  0
    6.1483  -13.1973   26.6725 C   0  0  0  0  0  0  0  0  0  0  0  0
    7.0095  -12.2604   19.8244 C   0  0  0  0  0  0  0  0  0  0  0  0
    7.3834  -13.5699   20.4233 C   0  0  0  0  0  0  0  0  0  0  0  0
    8.7223  -13.5438   21.1326 C   0  0  2  0  0  0  0  0  0  0  0  0
    9.8177  -13.3228   20.1113 C   0  0  0  0  0  0  0  0  0  0  0  0
    8.9459  -14.8703   21.7666 C   0  0  2  0  0  0  0  0  0  0  0  0
    7.9556  -15.2688   22.7258 N   0  0  0  0  0  0  0  0  0  0  0  0
   10.2747  -15.0017   22.4232 C   0  0  0  0  0  0  0  0  0  0  0  0
   11.3592  -15.0487   21.7880 O   0  0  0  0  0  0  0  0  0  0  0  0
   10.3617  -15.0790   23.8052 O   0  0  0  0  0  0  0  0  0  0  0  0
  2  3  1  0
  2  1  1  6
  3  4  1  0
  4  5  1  0
  5  6  2  0
  7  8  2  0
  7  2  1  0
  9  5  1  0
 10 11  1  0
 11 21  2  0
 12 13  2  0
 12 11  1  0
 13 14  1  0
 14 15  1  0
 14 20  2  0
 16 15  1  1
 16 17  1  0
 17  7  1  0
 18 16  1  0
 18 19  2  0
 21 20  1  0
 22 23  1  0
 23 24  1  0
 24 25  1  6
 24 26  1  0
 26 27  1  1
 27 18  1  0
 28 26  1  0
 29 28  2  0
 30 28  1  0
M  END
$$$$
