LII.pdb
     RDKit          3D

 25 24  0  0  1  0  0  0  0  0999 V2000
   22.0348  -18.8560  -12.5175 C   0  0  0  0  0  0  0  0  0  0  0  0
   21.5387  -20.2082  -12.0921 C   0  0  2  0  0  0  0  0  0  0  0  0
   20.1854  -20.1481  -11.4337 C   0  0  0  0  0  0  0  0  0  0  0  0
   22.5591  -20.9093  -11.1879 C   0  0  0  0  0  0  0  0  0  0  0  0
   23.8734  -20.8623  -11.9503 C   0  0  2  0  0  0  0  0  0  0  0  0
   23.7014  -21.6311  -13.1566 N   0  0  0  0  0  0  0  0  0  0  0  0
   24.9937  -21.3842  -11.0963 C   0  0  0  0  0  0  0  0  0  0  0  0
   24.9402  -22.5897  -10.8308 O   0  0  0  0  0  0  0  0  0  0  0  0
   29.6527  -21.3315  -12.8125 C   0  0  0  0  0  0  0  0  0  0  0  0
   28.3924  -21.5041  -11.9998 C   0  0  0  0  0  0  0  0  0  0  0  0
   28.3956  -20.5831  -10.7890 C   0  0  2  0  0  0  0  0  0  0  0  0
   29.6710  -20.8903   -9.9902 C   0  0  0  0  0  0  0  0  0  0  0  0
   27.1679  -20.7882   -9.9445 C   0  0  2  0  0  0  0  0  0  0  0  0
   25.9564  -20.4815  -10.6989 N   0  0  0  0  0  0  0  0  0  0  0  0
   27.1877  -20.0747   -8.6746 C   0  0  0  0  0  0  0  0  0  0  0  0
   26.7377  -18.8541   -8.6220 O   0  0  0  0  0  0  0  0  0  0  0  0
   27.4784  -22.5845   -3.7811 C   0  0  0  0  0  0  0  0  0  0  0  0
   27.0426  -21.6317   -4.8617 C   0  0  0  0  0  0  0  0  0  0  0  0
   28.0805  -20.5577   -5.0543 C   0  0  2  0  0  0  0  0  0  0  0  0
   28.2701  -19.7776   -3.7946 C   0  0  0  0  0  0  0  0  0  0  0  0
   27.7090  -19.6833   -6.2325 C   0  0  2  0  0  0  0  0  0  0  0  0
   27.6453  -20.5460   -7.4200 N   0  0  0  0  0  0  0  0  0  0  0  0
   28.6388  -18.5586   -6.4113 C   0  0  0  0  0  0  0  0  0  0  0  0
   28.3302  -17.2769   -5.9770 O   0  0  0  0  0  0  0  0  0  0  0  0
   29.7609  -18.6902   -6.9644 O   0  0  0  0  0  0  0  0  0  0  0  0
  2  1  1  1
  2  3  1  0
  4  5  1  0
  4  2  1  0
  5  6  1  6
  7  5  1  0
  7  8  2  0
 10  9  1  0
 11 10  1  0
 11 13  1  0
 11 12  1  1
 13 14  1  6
 14  7  1  0
 15 13  1  0
 16 15  2  0
 17 18  1  0
 18 19  1  0
 19 21  1  0
 19 20  1  1
 21 22  1  6
 21 23  1  0
 22 15  1  0
 23 24  1  0
 25 23  2  0
M  END
$$$$
