LII.pdb
     RDKit          3D

 25 24  0  0  1  0  0  0  0  0999 V2000
   29.3038  -19.9216  -15.8822 C   0  0  0  0  0  0  0  0  0  0  0  0
   28.0235  -19.2224  -16.2396 C   0  0  2  0  0  0  0  0  0  0  0  0
   28.2478  -18.0072  -17.1005 C   0  0  0  0  0  0  0  0  0  0  0  0
   27.2222  -18.8651  -14.9823 C   0  0  0  0  0  0  0  0  0  0  0  0
   27.5789  -19.9317  -13.9597 C   0  0  2  0  0  0  0  0  0  0  0  0
   27.0194  -21.1769  -14.4203 N   0  0  0  0  0  0  0  0  0  0  0  0
   27.0691  -19.5458  -12.6003 C   0  0  0  0  0  0  0  0  0  0  0  0
   27.3410  -18.3958  -12.2392 O   0  0  0  0  0  0  0  0  0  0  0  0
   22.1093  -20.4698  -12.4989 C   0  0  0  0  0  0  0  0  0  0  0  0
   23.4904  -19.9509  -12.1793 C   0  0  0  0  0  0  0  0  0  0  0  0
   24.0958  -20.7038  -11.0041 C   0  0  2  0  0  0  0  0  0  0  0  0
   23.1970  -20.4405   -9.7867 C   0  0  0  0  0  0  0  0  0  0  0  0
   25.5073  -20.2570  -10.7390 C   0  0  2  0  0  0  0  0  0  0  0  0
   26.3592  -20.4972  -11.8999 N   0  0  0  0  0  0  0  0  0  0  0  0
   26.0976  -20.8197   -9.5321 C   0  0  0  0  0  0  0  0  0  0  0  0
   26.4509  -22.0729   -9.5196 O   0  0  0  0  0  0  0  0  0  0  0  0
   29.2894  -18.4046   -5.9496 C   0  0  0  0  0  0  0  0  0  0  0  0
   28.6253  -19.4441   -6.8121 C   0  0  0  0  0  0  0  0  0  0  0  0
   27.3820  -19.9596   -6.1369 C   0  0  2  0  0  0  0  0  0  0  0  0
   27.7191  -20.5925   -4.8264 C   0  0  0  0  0  0  0  0  0  0  0  0
   26.6392  -20.8970   -7.0643 C   0  0  2  0  0  0  0  0  0  0  0  0
   26.3623  -20.1622   -8.3060 N   0  0  0  0  0  0  0  0  0  0  0  0
   25.4161  -21.4377   -6.4534 C   0  0  0  0  0  0  0  0  0  0  0  0
   25.3982  -22.6723   -5.8192 O   0  0  0  0  0  0  0  0  0  0  0  0
   24.3214  -20.8182   -6.4692 O   0  0  0  0  0  0  0  0  0  0  0  0
  2  1  1  1
  2  3  1  0
  4  5  1  0
  4  2  1  0
  5  6  1  6
  7  5  1  0
  7  8  2  0
 10  9  1  0
 11 10  1  0
 11 13  1  0
 11 12  1  1
 13 14  1  6
 14  7  1  0
 15 13  1  0
 16 15  2  0
 17 18  1  0
 18 19  1  0
 19 21  1  0
 19 20  1  1
 21 22  1  6
 21 23  1  0
 22 15  1  0
 23 24  1  0
 25 23  2  0
M  END
$$$$
