LII.pdb
     RDKit          3D

 25 24  0  0  1  0  0  0  0  0999 V2000
   27.0855  -19.3083   -4.3771 C   0  0  0  0  0  0  0  0  0  0  0  0
   28.1623  -19.8811   -5.2535 C   0  0  2  0  0  0  0  0  0  0  0  0
   29.5468  -19.5482   -4.7630 C   0  0  0  0  0  0  0  0  0  0  0  0
   27.9757  -19.4442   -6.7112 C   0  0  0  0  0  0  0  0  0  0  0  0
   26.5887  -19.9271   -7.1030 C   0  0  2  0  0  0  0  0  0  0  0  0
   26.5351  -21.3437   -6.8451 N   0  0  0  0  0  0  0  0  0  0  0  0
   26.3060  -19.5983   -8.5413 C   0  0  0  0  0  0  0  0  0  0  0  0
   26.4907  -18.4193   -8.8615 O   0  0  0  0  0  0  0  0  0  0  0  0
   29.3727  -21.5399  -11.7107 C   0  0  0  0  0  0  0  0  0  0  0  0
   28.2428  -20.7264  -11.1275 C   0  0  0  0  0  0  0  0  0  0  0  0
   26.8964  -21.3593  -11.4455 C   0  0  2  0  0  0  0  0  0  0  0  0
   26.7533  -21.3742  -12.9747 C   0  0  0  0  0  0  0  0  0  0  0  0
   25.7698  -20.5950  -10.8059 C   0  0  2  0  0  0  0  0  0  0  0  0
   25.8751  -20.6276   -9.3502 N   0  0  0  0  0  0  0  0  0  0  0  0
   24.4425  -21.0056  -11.2433 C   0  0  0  0  0  0  0  0  0  0  0  0
   23.9634  -22.1474  -10.8408 O   0  0  0  0  0  0  0  0  0  0  0  0
   18.7464  -19.6032  -11.6538 C   0  0  0  0  0  0  0  0  0  0  0  0
   19.8107  -20.4394  -12.3121 C   0  0  0  0  0  0  0  0  0  0  0  0
   21.1763  -19.9187  -11.9492 C   0  0  2  0  0  0  0  0  0  0  0  0
   21.3471  -18.5133  -12.4257 C   0  0  0  0  0  0  0  0  0  0  0  0
   22.2443  -20.8498  -12.4813 C   0  0  2  0  0  0  0  0  0  0  0  0
   23.5475  -20.3000  -12.0840 N   0  0  0  0  0  0  0  0  0  0  0  0
   22.1433  -21.0464  -13.9348 C   0  0  0  0  0  0  0  0  0  0  0  0
   23.0607  -20.4892  -14.8149 O   0  0  0  0  0  0  0  0  0  0  0  0
   21.2261  -21.7261  -14.4632 O   0  0  0  0  0  0  0  0  0  0  0  0
  2  1  1  1
  2  3  1  0
  4  5  1  0
  4  2  1  0
  5  6  1  6
  7  5  1  0
  7  8  2  0
 10  9  1  0
 11 10  1  0
 11 13  1  0
 11 12  1  6
 13 14  1  1
 14  7  1  0
 15 13  1  0
 16 15  2  0
 17 18  1  0
 18 19  1  0
 19 21  1  0
 19 20  1  6
 21 22  1  6
 21 23  1  0
 22 15  1  0
 23 24  1  0
 25 23  2  0
M  END
$$$$
