LII.pdb
     RDKit          3D

 25 24  0  0  1  0  0  0  0  0999 V2000
   28.7456  -21.7711  -15.0755 C   0  0  0  0  0  0  0  0  0  0  0  0
   28.6174  -20.3007  -15.3530 C   0  0  2  0  0  0  0  0  0  0  0  0
   29.8940  -19.6962  -15.8757 C   0  0  0  0  0  0  0  0  0  0  0  0
   28.1200  -19.5481  -14.1134 C   0  0  0  0  0  0  0  0  0  0  0  0
   26.8504  -20.2671  -13.6870 C   0  0  2  0  0  0  0  0  0  0  0  0
   25.9213  -20.1925  -14.7857 N   0  0  0  0  0  0  0  0  0  0  0  0
   26.2984  -19.6555  -12.4308 C   0  0  0  0  0  0  0  0  0  0  0  0
   26.0457  -18.4478  -12.4962 O   0  0  0  0  0  0  0  0  0  0  0  0
   21.8366  -20.4761  -11.5322 C   0  0  0  0  0  0  0  0  0  0  0  0
   23.2669  -20.0050  -11.4283 C   0  0  0  0  0  0  0  0  0  0  0  0
   23.9617  -20.6355  -10.2307 C   0  0  2  0  0  0  0  0  0  0  0  0
   23.1623  -20.2355   -8.9817 C   0  0  0  0  0  0  0  0  0  0  0  0
   25.3906  -20.1778  -10.1260 C   0  0  2  0  0  0  0  0  0  0  0  0
   26.1306  -20.4882  -11.3455 N   0  0  0  0  0  0  0  0  0  0  0  0
   26.0931  -20.6702   -8.9487 C   0  0  0  0  0  0  0  0  0  0  0  0
   26.3206  -21.9467   -8.8294 O   0  0  0  0  0  0  0  0  0  0  0  0
   29.8295  -17.9842   -6.0879 C   0  0  0  0  0  0  0  0  0  0  0  0
   29.0601  -19.0875   -6.7634 C   0  0  0  0  0  0  0  0  0  0  0  0
   27.9199  -19.5350   -5.8875 C   0  0  2  0  0  0  0  0  0  0  0  0
   28.4305  -20.0466   -4.5802 C   0  0  0  0  0  0  0  0  0  0  0  0
   27.0707  -20.5507   -6.6208 C   0  0  2  0  0  0  0  0  0  0  0  0
   26.5966  -19.9184   -7.8593 N   0  0  0  0  0  0  0  0  0  0  0  0
   25.9640  -21.0567   -5.7957 C   0  0  0  0  0  0  0  0  0  0  0  0
   26.1255  -22.1327   -4.9338 O   0  0  0  0  0  0  0  0  0  0  0  0
   24.8137  -20.5484   -5.8218 O   0  0  0  0  0  0  0  0  0  0  0  0
  2  1  1  1
  2  3  1  0
  4  5  1  0
  4  2  1  0
  5  6  1  6
  7  5  1  0
  7  8  2  0
 10  9  1  0
 11 10  1  0
 11 13  1  0
 11 12  1  1
 13 14  1  6
 14  7  1  0
 15 13  1  0
 16 15  2  0
 17 18  1  0
 18 19  1  0
 19 21  1  0
 19 20  1  1
 21 22  1  6
 21 23  1  0
 22 15  1  0
 23 24  1  0
 25 23  2  0
M  END
$$$$
