LII.pdb
     RDKit          3D

 25 24  0  0  1  0  0  0  0  0999 V2000
   21.8657  -18.7506  -13.3656 C   0  0  0  0  0  0  0  0  0  0  0  0
   21.1896  -20.0467  -13.0210 C   0  0  2  0  0  0  0  0  0  0  0  0
   19.7739  -19.8531  -12.5450 C   0  0  0  0  0  0  0  0  0  0  0  0
   22.0101  -20.8401  -11.9973 C   0  0  0  0  0  0  0  0  0  0  0  0
   23.4332  -20.8379  -12.5317 C   0  0  2  0  0  0  0  0  0  0  0  0
   23.4447  -21.6306  -13.7347 N   0  0  0  0  0  0  0  0  0  0  0  0
   24.3836  -21.3631  -11.4936 C   0  0  0  0  0  0  0  0  0  0  0  0
   24.1029  -22.4742  -11.0319 O   0  0  0  0  0  0  0  0  0  0  0  0
   29.0734  -21.5494  -13.2306 C   0  0  0  0  0  0  0  0  0  0  0  0
   27.8244  -21.7194  -12.4002 C   0  0  0  0  0  0  0  0  0  0  0  0
   27.8840  -20.8605  -11.1459 C   0  0  2  0  0  0  0  0  0  0  0  0
   29.0840  -21.3478  -10.3204 C   0  0  0  0  0  0  0  0  0  0  0  0
   26.6087  -20.9612  -10.3549 C   0  0  2  0  0  0  0  0  0  0  0  0
   25.4588  -20.5666  -11.1630 N   0  0  0  0  0  0  0  0  0  0  0  0
   26.6299  -20.2407   -9.0890 C   0  0  0  0  0  0  0  0  0  0  0  0
   26.2358  -19.0002   -9.0548 O   0  0  0  0  0  0  0  0  0  0  0  0
   27.3590  -22.6357   -4.1082 C   0  0  0  0  0  0  0  0  0  0  0  0
   26.7827  -21.7115   -5.1470 C   0  0  0  0  0  0  0  0  0  0  0  0
   27.8025  -20.6762   -5.5418 C   0  0  2  0  0  0  0  0  0  0  0  0
   28.2095  -19.8608   -4.3582 C   0  0  0  0  0  0  0  0  0  0  0  0
   27.2694  -19.8306   -6.6782 C   0  0  2  0  0  0  0  0  0  0  0  0
   27.0338  -20.7239   -7.8205 N   0  0  0  0  0  0  0  0  0  0  0  0
   28.1679  -18.7177   -7.0184 C   0  0  0  0  0  0  0  0  0  0  0  0
   27.8497  -17.4008   -6.7164 O   0  0  0  0  0  0  0  0  0  0  0  0
   29.2701  -18.8916   -7.5991 O   0  0  0  0  0  0  0  0  0  0  0  0
  2  1  1  1
  2  3  1  0
  4  5  1  0
  4  2  1  0
  5  6  1  6
  7  5  1  0
  7  8  2  0
 10  9  1  0
 11 10  1  0
 11 13  1  0
 11 12  1  1
 13 14  1  6
 14  7  1  0
 15 13  1  0
 16 15  2  0
 17 18  1  0
 18 19  1  0
 19 21  1  0
 19 20  1  1
 21 22  1  6
 21 23  1  0
 22 15  1  0
 23 24  1  0
 25 23  2  0
M  END
$$$$
