LII.pdb
     RDKit          3D

 25 24  0  0  1  0  0  0  0  0999 V2000
   27.5097  -17.3869  -17.3332 C   0  0  0  0  0  0  0  0  0  0  0  0
   28.5726  -17.8608  -16.3837 C   0  0  2  0  0  0  0  0  0  0  0  0
   29.8649  -18.1956  -17.0810 C   0  0  0  0  0  0  0  0  0  0  0  0
   28.0755  -19.0464  -15.5485 C   0  0  0  0  0  0  0  0  0  0  0  0
   26.7304  -18.6110  -14.9899 C   0  0  2  0  0  0  0  0  0  0  0  0
   26.9735  -17.5261  -14.0735 N   0  0  0  0  0  0  0  0  0  0  0  0
   26.0366  -19.7692  -14.3312 C   0  0  0  0  0  0  0  0  0  0  0  0
   25.9912  -20.8085  -14.9980 O   0  0  0  0  0  0  0  0  0  0  0  0
   26.8678  -20.5615   -9.1126 C   0  0  0  0  0  0  0  0  0  0  0  0
   26.5054  -20.8005  -10.5583 C   0  0  0  0  0  0  0  0  0  0  0  0
   25.0582  -20.4160  -10.8270 C   0  0  2  0  0  0  0  0  0  0  0  0
   24.1770  -21.3676  -10.0042 C   0  0  0  0  0  0  0  0  0  0  0  0
   24.7318  -20.5102  -12.2922 C   0  0  2  0  0  0  0  0  0  0  0  0
   25.5266  -19.5625  -13.0676 N   0  0  0  0  0  0  0  0  0  0  0  0
   23.3142  -20.3786  -12.6004 C   0  0  0  0  0  0  0  0  0  0  0  0
   22.7223  -19.2357  -12.4034 O   0  0  0  0  0  0  0  0  0  0  0  0
   21.3985  -21.2601  -17.1666 C   0  0  0  0  0  0  0  0  0  0  0  0
   21.6504  -20.8027  -15.7549 C   0  0  0  0  0  0  0  0  0  0  0  0
   20.7350  -21.5284  -14.8045 C   0  0  2  0  0  0  0  0  0  0  0  0
   19.3066  -21.3247  -15.1915 C   0  0  0  0  0  0  0  0  0  0  0  0
   21.0212  -21.1008  -13.3812 C   0  0  2  0  0  0  0  0  0  0  0  0
   22.4417  -21.3672  -13.1172 N   0  0  0  0  0  0  0  0  0  0  0  0
   20.1407  -21.7643  -12.4085 C   0  0  0  0  0  0  0  0  0  0  0  0
   19.0662  -21.1068  -11.8255 O   0  0  0  0  0  0  0  0  0  0  0  0
   20.3077  -22.9583  -12.0496 O   0  0  0  0  0  0  0  0  0  0  0  0
  2  1  1  6
  2  3  1  0
  4  5  1  0
  4  2  1  0
  5  6  1  1
  7  5  1  0
  7  8  2  0
 10  9  1  0
 11 10  1  0
 11 13  1  0
 11 12  1  1
 13 14  1  6
 14  7  1  0
 15 13  1  0
 16 15  2  0
 17 18  1  0
 18 19  1  0
 19 21  1  0
 19 20  1  6
 21 22  1  1
 21 23  1  0
 22 15  1  0
 23 24  1  0
 25 23  2  0
M  END
$$$$
