LII.pdb
     RDKit          3D

 25 24  0  0  1  0  0  0  0  0999 V2000
   20.1679  -15.8008  -19.4250 C   0  0  0  0  0  0  0  0  0  0  0  0
   19.1901  -16.0133  -18.3050 C   0  0  2  0  0  0  0  0  0  0  0  0
   17.7704  -15.7170  -18.7111 C   0  0  0  0  0  0  0  0  0  0  0  0
   19.5880  -15.2027  -17.0660 C   0  0  0  0  0  0  0  0  0  0  0  0
   21.0308  -15.5859  -16.7791 C   0  0  2  0  0  0  0  0  0  0  0  0
   21.0271  -16.9332  -16.2686 N   0  0  0  0  0  0  0  0  0  0  0  0
   21.6500  -14.6131  -15.8163 C   0  0  0  0  0  0  0  0  0  0  0  0
   21.2702  -14.7126  -14.6447 O   0  0  0  0  0  0  0  0  0  0  0  0
   26.8175  -13.9473  -15.6951 C   0  0  0  0  0  0  0  0  0  0  0  0
   25.3447  -13.9247  -15.3651 C   0  0  0  0  0  0  0  0  0  0  0  0
   24.7002  -12.6319  -15.8420 C   0  0  2  0  0  0  0  0  0  0  0  0
   25.3816  -11.4811  -15.0865 C   0  0  0  0  0  0  0  0  0  0  0  0
   23.2170  -12.6374  -15.5922 C   0  0  2  0  0  0  0  0  0  0  0  0
   22.5665  -13.7188  -16.3260 N   0  0  0  0  0  0  0  0  0  0  0  0
   22.5609  -11.3625  -15.8496 C   0  0  0  0  0  0  0  0  0  0  0  0
   22.6454  -10.8298  -17.0346 O   0  0  0  0  0  0  0  0  0  0  0  0
   17.7188  -10.5290  -15.9106 C   0  0  0  0  0  0  0  0  0  0  0  0
   19.1971  -10.3580  -16.1363 C   0  0  0  0  0  0  0  0  0  0  0  0
   19.7520   -9.3364  -15.1793 C   0  0  2  0  0  0  0  0  0  0  0  0
   19.0906   -8.0124  -15.3815 C   0  0  0  0  0  0  0  0  0  0  0  0
   21.2577   -9.2638  -15.3145 C   0  0  2  0  0  0  0  0  0  0  0  0
   21.7980  -10.5802  -14.9487 N   0  0  0  0  0  0  0  0  0  0  0  0
   21.8414   -8.1801  -14.5105 C   0  0  0  0  0  0  0  0  0  0  0  0
   22.1317   -6.9375  -15.0567 O   0  0  0  0  0  0  0  0  0  0  0  0
   22.1103   -8.3137  -13.2889 O   0  0  0  0  0  0  0  0  0  0  0  0
  2  1  1  6
  2  3  1  0
  4  5  1  0
  4  2  1  0
  5  6  1  1
  7  5  1  0
  7  8  2  0
 10  9  1  0
 11 10  1  0
 11 13  1  0
 11 12  1  1
 13 14  1  6
 14  7  1  0
 15 13  1  0
 16 15  2  0
 17 18  1  0
 18 19  1  0
 19 21  1  0
 19 20  1  6
 21 22  1  1
 21 23  1  0
 22 15  1  0
 23 24  1  0
 25 23  2  0
M  END
$$$$
