LII.pdb
     RDKit          3D

 25 24  0  0  1  0  0  0  0  0999 V2000
   20.4365  -20.4023  -12.7406 C   0  0  0  0  0  0  0  0  0  0  0  0
   20.9251  -21.6443  -13.4292 C   0  0  2  0  0  0  0  0  0  0  0  0
   19.8466  -22.6843  -13.5825 C   0  0  0  0  0  0  0  0  0  0  0  0
   22.1504  -22.2245  -12.7133 C   0  0  0  0  0  0  0  0  0  0  0  0
   23.1509  -21.0826  -12.6358 C   0  0  2  0  0  0  0  0  0  0  0  0
   23.4212  -20.6522  -13.9839 N   0  0  0  0  0  0  0  0  0  0  0  0
   24.3946  -21.5234  -11.9177 C   0  0  0  0  0  0  0  0  0  0  0  0
   24.5276  -22.7450  -11.7893 O   0  0  0  0  0  0  0  0  0  0  0  0
   28.8890  -19.9670  -13.6979 C   0  0  0  0  0  0  0  0  0  0  0  0
   27.7652  -20.6396  -12.9475 C   0  0  0  0  0  0  0  0  0  0  0  0
   27.6542  -20.0949  -11.5314 C   0  0  2  0  0  0  0  0  0  0  0  0
   28.9966  -20.3658  -10.8359 C   0  0  0  0  0  0  0  0  0  0  0  0
   26.5200  -20.7424  -10.7853 C   0  0  2  0  0  0  0  0  0  0  0  0
   25.2522  -20.5374  -11.4794 N   0  0  0  0  0  0  0  0  0  0  0  0
   26.4199  -20.3481   -9.3866 C   0  0  0  0  0  0  0  0  0  0  0  0
   25.6789  -19.3275   -9.0633 O   0  0  0  0  0  0  0  0  0  0  0  0
   28.7625  -21.4590   -3.7354 C   0  0  0  0  0  0  0  0  0  0  0  0
   27.8242  -20.6790   -4.6168 C   0  0  0  0  0  0  0  0  0  0  0  0
   27.8937  -21.1938   -6.0302 C   0  0  2  0  0  0  0  0  0  0  0  0
   29.3139  -21.3131   -6.4774 C   0  0  0  0  0  0  0  0  0  0  0  0
   27.0658  -20.3151   -6.9431 C   0  0  2  0  0  0  0  0  0  0  0  0
   27.0417  -20.9522   -8.2667 N   0  0  0  0  0  0  0  0  0  0  0  0
   27.5680  -18.9345   -6.9993 C   0  0  0  0  0  0  0  0  0  0  0  0
   27.0915  -17.9464   -6.1488 O   0  0  0  0  0  0  0  0  0  0  0  0
   28.4527  -18.5694   -7.8157 O   0  0  0  0  0  0  0  0  0  0  0  0
  2  1  1  1
  2  3  1  0
  4  5  1  0
  4  2  1  0
  5  6  1  6
  7  5  1  0
  7  8  2  0
 10  9  1  0
 11 10  1  0
 11 13  1  0
 11 12  1  1
 13 14  1  6
 14  7  1  0
 15 13  1  0
 16 15  2  0
 17 18  1  0
 18 19  1  0
 19 21  1  0
 19 20  1  6
 21 22  1  6
 21 23  1  0
 22 15  1  0
 23 24  1  0
 25 23  2  0
M  END
$$$$
