LII.pdb
     RDKit          3D

 25 24  0  0  1  0  0  0  0  0999 V2000
   29.1640  -19.5735  -15.5327 C   0  0  0  0  0  0  0  0  0  0  0  0
   28.2878  -18.3671  -15.7126 C   0  0  2  0  0  0  0  0  0  0  0  0
   29.0290  -17.1952  -16.3005 C   0  0  0  0  0  0  0  0  0  0  0  0
   27.6055  -17.9811  -14.3951 C   0  0  0  0  0  0  0  0  0  0  0  0
   26.8436  -19.2212  -13.9566 C   0  0  2  0  0  0  0  0  0  0  0  0
   25.9335  -19.5676  -15.0185 N   0  0  0  0  0  0  0  0  0  0  0  0
   26.1337  -18.9681  -12.6571 C   0  0  0  0  0  0  0  0  0  0  0  0
   25.6017  -17.8579  -12.5514 O   0  0  0  0  0  0  0  0  0  0  0  0
   21.9242  -20.7942  -12.0466 C   0  0  0  0  0  0  0  0  0  0  0  0
   23.2233  -20.0631  -11.8091 C   0  0  0  0  0  0  0  0  0  0  0  0
   24.0493  -20.7565  -10.7361 C   0  0  2  0  0  0  0  0  0  0  0  0
   23.1981  -20.7854   -9.4579 C   0  0  0  0  0  0  0  0  0  0  0  0
   25.3506  -20.0397  -10.5013 C   0  0  2  0  0  0  0  0  0  0  0  0
   26.1451  -19.9829  -11.7246 N   0  0  0  0  0  0  0  0  0  0  0  0
   26.1345  -20.5678   -9.3929 C   0  0  0  0  0  0  0  0  0  0  0  0
   26.6418  -21.7635   -9.4834 O   0  0  0  0  0  0  0  0  0  0  0  0
   29.2151  -17.7617   -6.0407 C   0  0  0  0  0  0  0  0  0  0  0  0
   28.7144  -18.9229   -6.8571 C   0  0  0  0  0  0  0  0  0  0  0  0
   27.6460  -19.6659   -6.0994 C   0  0  2  0  0  0  0  0  0  0  0  0
   28.2146  -20.2957   -4.8700 C   0  0  0  0  0  0  0  0  0  0  0  0
   26.9676  -20.6678   -7.0085 C   0  0  2  0  0  0  0  0  0  0  0  0
   26.4459  -19.9304   -8.1672 N   0  0  0  0  0  0  0  0  0  0  0  0
   25.9188  -21.4319   -6.3173 C   0  0  0  0  0  0  0  0  0  0  0  0
   24.5807  -21.0702   -6.3896 O   0  0  0  0  0  0  0  0  0  0  0  0
   26.1701  -22.4513   -5.6244 O   0  0  0  0  0  0  0  0  0  0  0  0
  2  1  1  1
  2  3  1  0
  4  5  1  0
  4  2  1  0
  5  6  1  6
  7  5  1  0
  7  8  2  0
 10  9  1  0
 11 10  1  0
 11 13  1  0
 11 12  1  1
 13 14  1  6
 14  7  1  0
 15 13  1  0
 16 15  2  0
 17 18  1  0
 18 19  1  0
 19 21  1  0
 19 20  1  1
 21 22  1  6
 21 23  1  0
 22 15  1  0
 23 24  1  0
 25 23  2  0
M  END
$$$$
