LVS.pdb
     RDKit          3D

 22 21  0  0  1  0  0  0  0  0999 V2000
   20.3397  -22.8281  -14.9843 C   0  0  0  0  0  0  0  0  0  0  0  0
   19.8085  -21.4119  -15.0203 C   0  0  2  0  0  0  0  0  0  0  0  0
   19.4670  -21.0589  -16.4317 C   0  0  0  0  0  0  0  0  0  0  0  0
   20.8848  -20.4775  -14.4576 C   0  0  0  0  0  0  0  0  0  0  0  0
   21.3186  -21.0030  -13.1055 C   0  0  2  0  0  0  0  0  0  0  0  0
   20.3325  -20.6470  -12.1247 N   0  0  0  0  0  0  0  0  0  0  0  0
   22.6312  -20.3121  -12.7959 C   0  0  0  0  0  0  0  0  0  0  0  0
   22.6214  -19.1239  -12.4818 O   0  0  0  0  0  0  0  0  0  0  0  0
   25.0969  -21.0713  -10.0648 C   0  0  0  0  0  0  0  0  0  0  0  0
   25.8056  -21.3244  -11.3826 C   0  0  2  0  0  0  0  0  0  0  0  0
   27.2280  -20.8979  -11.1480 C   0  0  0  0  0  0  0  0  0  0  0  0
   25.1861  -20.6227  -12.5204 C   0  0  2  0  0  0  0  0  0  0  0  0
   23.8374  -20.9659  -12.8530 N   0  0  0  0  0  0  0  0  0  0  0  0
   25.9258  -20.8552  -13.7821 C   0  0  0  0  0  0  0  0  0  0  0  0
   26.0635  -22.0473  -14.2518 O   0  0  0  0  0  0  0  0  0  0  0  0
   28.2049  -18.0198  -15.4885 O   0  0  0  0  0  0  0  0  0  0  0  0
   27.6367  -18.8198  -16.4932 C   0  0  0  0  0  0  0  0  0  0  0  0
   27.2299  -20.1297  -15.8082 C   0  0  2  0  0  0  0  0  0  0  0  0
   26.5229  -19.8562  -14.5712 N   0  0  0  0  0  0  0  0  0  0  0  0
   28.3734  -21.0333  -15.6577 C   0  0  0  0  0  0  0  0  0  0  0  0
   28.8115  -21.2968  -14.5175 O   0  0  0  0  0  0  0  0  0  0  0  0
   28.9845  -21.6062  -16.7547 O   0  0  0  0  0  0  0  0  0  0  0  0
  2  1  1  6
  2  4  1  0
  2  3  1  0
  4  5  1  0
  5  7  1  0
  5  6  1  1
  7  8  2  0
 10  9  1  1
 10 12  1  0
 11 10  1  0
 12 14  1  0
 12 13  1  6
 13  7  1  0
 14 15  2  0
 16 17  1  0
 18 17  1  1
 18 20  1  0
 19 14  1  0
 19 18  1  0
 20 21  2  0
 20 22  1  0
M  END
$$$$
