LVS.pdb
     RDKit          3D

 22 21  0  0  1  0  0  0  0  0999 V2000
   29.1186  -28.6976  -20.5291 C   0  0  0  0  0  0  0  0  0  0  0  0
   30.6301  -28.7398  -20.4773 C   0  0  2  0  0  0  0  0  0  0  0  0
   31.1503  -29.1148  -21.8271 C   0  0  0  0  0  0  0  0  0  0  0  0
   31.0491  -29.7621  -19.4155 C   0  0  0  0  0  0  0  0  0  0  0  0
   30.5136  -29.3085  -18.0737 C   0  0  2  0  0  0  0  0  0  0  0  0
   31.3211  -28.2255  -17.5875 N   0  0  0  0  0  0  0  0  0  0  0  0
   30.6413  -30.5049  -17.1525 C   0  0  0  0  0  0  0  0  0  0  0  0
   31.7208  -30.7278  -16.6089 O   0  0  0  0  0  0  0  0  0  0  0  0
   27.9990  -34.0134  -14.6766 C   0  0  0  0  0  0  0  0  0  0  0  0
   28.1138  -32.7004  -15.4286 C   0  0  2  0  0  0  0  0  0  0  0  0
   26.9629  -32.7037  -16.3958 C   0  0  0  0  0  0  0  0  0  0  0  0
   29.4141  -32.5257  -16.0989 C   0  0  2  0  0  0  0  0  0  0  0  0
   29.5919  -31.3539  -16.9005 N   0  0  0  0  0  0  0  0  0  0  0  0
   29.7071  -33.6354  -17.0346 C   0  0  0  0  0  0  0  0  0  0  0  0
   29.2867  -33.5953  -18.2521 O   0  0  0  0  0  0  0  0  0  0  0  0
   32.9776  -35.9826  -17.2074 O   0  0  0  0  0  0  0  0  0  0  0  0
   31.8165  -36.7718  -17.1691 C   0  0  0  0  0  0  0  0  0  0  0  0
   30.6786  -35.8703  -17.6619 C   0  0  2  0  0  0  0  0  0  0  0  0
   30.4427  -34.7919  -16.7205 N   0  0  0  0  0  0  0  0  0  0  0  0
   29.4826  -36.6494  -17.9927 C   0  0  0  0  0  0  0  0  0  0  0  0
   28.5469  -36.7318  -17.1686 O   0  0  0  0  0  0  0  0  0  0  0  0
   29.3628  -37.3010  -19.2035 O   0  0  0  0  0  0  0  0  0  0  0  0
  2  1  1  6
  2  4  1  0
  2  3  1  0
  4  5  1  0
  5  7  1  0
  5  6  1  1
  7  8  2  0
 10  9  1  6
 10 12  1  0
 11 10  1  0
 12 14  1  0
 12 13  1  6
 13  7  1  0
 14 15  2  0
 16 17  1  0
 18 17  1  1
 18 20  1  0
 19 14  1  0
 19 18  1  0
 20 21  2  0
 20 22  1  0
M  END
$$$$
