LVS.pdb
     RDKit          3D

 22 21  0  0  1  0  0  0  0  0999 V2000
   26.0538  -31.3833   -6.5517 C   0  0  0  0  0  0  0  0  0  0  0  0
   25.5821  -32.7252   -7.0673 C   0  0  2  0  0  0  0  0  0  0  0  0
   24.3047  -33.0857   -6.3806 C   0  0  0  0  0  0  0  0  0  0  0  0
   26.6757  -33.7618   -6.7886 C   0  0  0  0  0  0  0  0  0  0  0  0
   27.9566  -33.2990   -7.4501 C   0  0  2  0  0  0  0  0  0  0  0  0
   27.7855  -33.3257   -8.8753 N   0  0  0  0  0  0  0  0  0  0  0  0
   29.0189  -34.2973   -7.0364 C   0  0  0  0  0  0  0  0  0  0  0  0
   29.1064  -35.3625   -7.6432 O   0  0  0  0  0  0  0  0  0  0  0  0
   32.7839  -33.4786   -6.7951 C   0  0  0  0  0  0  0  0  0  0  0  0
   32.3057  -33.9467   -5.4331 C   0  0  2  0  0  0  0  0  0  0  0  0
   33.4489  -34.7461   -4.8727 C   0  0  0  0  0  0  0  0  0  0  0  0
   31.0518  -34.7182   -5.4904 C   0  0  2  0  0  0  0  0  0  0  0  0
   29.8919  -34.0563   -6.0043 N   0  0  0  0  0  0  0  0  0  0  0  0
   30.6245  -35.1787   -4.1495 C   0  0  0  0  0  0  0  0  0  0  0  0
   30.1248  -34.3491   -3.2993 O   0  0  0  0  0  0  0  0  0  0  0  0
   29.7513  -38.7114   -0.9609 O   0  0  0  0  0  0  0  0  0  0  0  0
   30.3252  -38.4270   -2.2107 C   0  0  0  0  0  0  0  0  0  0  0  0
   30.3183  -36.8993   -2.3390 C   0  0  2  0  0  0  0  0  0  0  0  0
   30.7043  -36.5016   -3.6797 N   0  0  0  0  0  0  0  0  0  0  0  0
   31.1062  -36.2688   -1.2767 C   0  0  0  0  0  0  0  0  0  0  0  0
   32.3433  -36.1504   -1.4072 O   0  0  0  0  0  0  0  0  0  0  0  0
   30.5102  -35.7979   -0.1243 O   0  0  0  0  0  0  0  0  0  0  0  0
  2  1  1  1
  2  4  1  0
  2  3  1  0
  4  5  1  0
  5  7  1  0
  5  6  1  6
  7  8  2  0
 10  9  1  6
 10 12  1  0
 11 10  1  0
 12 14  1  0
 12 13  1  1
 13  7  1  0
 14 15  2  0
 16 17  1  0
 18 17  1  6
 18 20  1  0
 19 14  1  0
 19 18  1  0
 20 21  2  0
 20 22  1  0
M  END
$$$$
