LVS.pdb
     RDKit          3D

 22 21  0  0  1  0  0  0  0  0999 V2000
   22.2721  -20.7897  -18.7768 C   0  0  0  0  0  0  0  0  0  0  0  0
   22.5077  -22.2708  -18.5769 C   0  0  2  0  0  0  0  0  0  0  0  0
   21.1877  -22.9544  -18.4234 C   0  0  0  0  0  0  0  0  0  0  0  0
   23.3797  -22.4578  -17.3308 C   0  0  0  0  0  0  0  0  0  0  0  0
   24.6772  -21.7044  -17.5345 C   0  0  2  0  0  0  0  0  0  0  0  0
   25.3955  -22.2935  -18.6291 N   0  0  0  0  0  0  0  0  0  0  0  0
   25.4600  -21.8753  -16.2484 C   0  0  0  0  0  0  0  0  0  0  0  0
   25.8904  -22.9883  -15.9543 O   0  0  0  0  0  0  0  0  0  0  0  0
   26.2156  -18.1898  -13.9843 C   0  0  0  0  0  0  0  0  0  0  0  0
   27.1640  -19.3742  -14.0056 C   0  0  2  0  0  0  0  0  0  0  0  0
   28.1428  -19.0695  -15.1052 C   0  0  0  0  0  0  0  0  0  0  0  0
   26.4794  -20.6642  -14.2005 C   0  0  2  0  0  0  0  0  0  0  0  0
   25.7082  -20.8290  -15.3943 N   0  0  0  0  0  0  0  0  0  0  0  0
   25.5088  -20.9439  -13.1176 C   0  0  0  0  0  0  0  0  0  0  0  0
   24.2413  -20.8622  -13.3354 O   0  0  0  0  0  0  0  0  0  0  0  0
   24.6601  -21.3738   -8.3657 O   0  0  0  0  0  0  0  0  0  0  0  0
   25.6514  -21.3227   -9.3592 C   0  0  0  0  0  0  0  0  0  0  0  0
   24.9040  -21.2690  -10.6967 C   0  0  2  0  0  0  0  0  0  0  0  0
   25.8412  -21.3166  -11.8031 N   0  0  0  0  0  0  0  0  0  0  0  0
   23.9751  -20.1370  -10.7465 C   0  0  0  0  0  0  0  0  0  0  0  0
   24.3956  -19.0009  -11.0533 O   0  0  0  0  0  0  0  0  0  0  0  0
   22.6343  -20.2958  -10.4601 O   0  0  0  0  0  0  0  0  0  0  0  0
  2  1  1  1
  2  4  1  0
  2  3  1  0
  4  5  1  0
  5  7  1  0
  5  6  1  6
  7  8  2  0
 10  9  1  6
 10 12  1  0
 11 10  1  0
 12 14  1  0
 12 13  1  6
 13  7  1  0
 14 15  2  0
 16 17  1  0
 18 17  1  1
 18 20  1  0
 19 14  1  0
 19 18  1  0
 20 21  2  0
 20 22  1  0
M  END
$$$$
