LVS.pdb
     RDKit          3D

 22 21  0  0  1  0  0  0  0  0999 V2000
   24.4080  -12.7702  -15.0344 C   0  0  0  0  0  0  0  0  0  0  0  0
   24.4925  -13.2297  -16.4735 C   0  0  2  0  0  0  0  0  0  0  0  0
   25.9279  -13.2614  -16.8879 C   0  0  0  0  0  0  0  0  0  0  0  0
   23.6844  -12.2577  -17.3396 C   0  0  0  0  0  0  0  0  0  0  0  0
   22.2455  -12.2761  -16.8684 C   0  0  2  0  0  0  0  0  0  0  0  0
   21.6680  -13.5548  -17.1725 N   0  0  0  0  0  0  0  0  0  0  0  0
   21.5402  -11.1885  -17.6531 C   0  0  0  0  0  0  0  0  0  0  0  0
   21.5956  -11.2060  -18.8808 O   0  0  0  0  0  0  0  0  0  0  0  0
   18.1710   -9.5122  -15.8020 C   0  0  0  0  0  0  0  0  0  0  0  0
   18.5224   -9.3113  -17.2645 C   0  0  2  0  0  0  0  0  0  0  0  0
   17.9652  -10.5173  -17.9681 C   0  0  0  0  0  0  0  0  0  0  0  0
   19.9670   -9.1390  -17.4973 C   0  0  2  0  0  0  0  0  0  0  0  0
   20.8381  -10.1789  -17.0421 N   0  0  0  0  0  0  0  0  0  0  0  0
   20.4936   -7.9266  -16.8297 C   0  0  0  0  0  0  0  0  0  0  0  0
   20.9262   -7.9809  -15.6170 O   0  0  0  0  0  0  0  0  0  0  0  0
   22.0949   -3.3841  -16.9742 O   0  0  0  0  0  0  0  0  0  0  0  0
   21.3735   -4.3475  -17.6979 C   0  0  0  0  0  0  0  0  0  0  0  0
   21.0787   -5.4821  -16.7099 C   0  0  2  0  0  0  0  0  0  0  0  0
   20.5831   -6.6503  -17.4131 N   0  0  0  0  0  0  0  0  0  0  0  0
   20.2148   -5.0296  -15.6164 C   0  0  0  0  0  0  0  0  0  0  0  0
   18.9728   -5.0733  -15.7468 O   0  0  0  0  0  0  0  0  0  0  0  0
   20.7438   -4.5516  -14.4346 O   0  0  0  0  0  0  0  0  0  0  0  0
  2  1  1  1
  2  4  1  0
  2  3  1  0
  4  5  1  0
  5  7  1  0
  5  6  1  6
  7  8  2  0
 10  9  1  1
 10 12  1  0
 11 10  1  0
 12 14  1  0
 12 13  1  1
 13  7  1  0
 14 15  2  0
 16 17  1  0
 18 17  1  6
 18 20  1  0
 19 14  1  0
 19 18  1  0
 20 21  2  0
 20 22  1  0
M  END
$$$$
