LVS.pdb
     RDKit          3D

 22 21  0  0  1  0  0  0  0  0999 V2000
   15.7355  -13.9671  -17.5936 C   0  0  0  0  0  0  0  0  0  0  0  0
   16.1768  -14.4992  -16.2478 C   0  0  2  0  0  0  0  0  0  0  0  0
   15.0725  -14.2968  -15.2616 C   0  0  0  0  0  0  0  0  0  0  0  0
   17.4453  -13.7509  -15.8244 C   0  0  0  0  0  0  0  0  0  0  0  0
   18.4980  -13.9449  -16.8953 C   0  0  2  0  0  0  0  0  0  0  0  0
   18.9554  -15.3054  -16.8633 N   0  0  0  0  0  0  0  0  0  0  0  0
   19.6324  -13.0076  -16.5336 C   0  0  0  0  0  0  0  0  0  0  0  0
   20.4088  -13.3278  -15.6363 O   0  0  0  0  0  0  0  0  0  0  0  0
   22.4445   -9.2795  -18.3138 C   0  0  0  0  0  0  0  0  0  0  0  0
   21.4760  -10.4420  -18.4298 C   0  0  2  0  0  0  0  0  0  0  0  0
   20.4705  -10.0097  -19.4603 C   0  0  0  0  0  0  0  0  0  0  0  0
   20.8491  -10.8070  -17.1475 C   0  0  2  0  0  0  0  0  0  0  0  0
   19.8271  -11.8082  -17.1731 N   0  0  0  0  0  0  0  0  0  0  0  0
   20.1854   -9.6484  -16.5072 C   0  0  0  0  0  0  0  0  0  0  0  0
   19.0689   -9.1963  -16.9651 O   0  0  0  0  0  0  0  0  0  0  0  0
   21.7856   -7.6085  -13.2964 O   0  0  0  0  0  0  0  0  0  0  0  0
   20.3824   -7.6096  -13.3537 C   0  0  0  0  0  0  0  0  0  0  0  0
   20.0220   -7.7755  -14.8346 C   0  0  2  0  0  0  0  0  0  0  0  0
   20.6676   -8.9526  -15.3844 N   0  0  0  0  0  0  0  0  0  0  0  0
   20.2760   -6.5453  -15.5889 C   0  0  0  0  0  0  0  0  0  0  0  0
   19.5937   -5.5237  -15.3600 O   0  0  0  0  0  0  0  0  0  0  0  0
   21.2596   -6.4863  -16.5553 O   0  0  0  0  0  0  0  0  0  0  0  0
  2  1  1  6
  2  4  1  0
  2  3  1  0
  4  5  1  0
  5  7  1  0
  5  6  1  1
  7  8  2  0
 10  9  1  1
 10 12  1  0
 11 10  1  0
 12 14  1  0
 12 13  1  6
 13  7  1  0
 14 15  2  0
 16 17  1  0
 18 17  1  1
 18 20  1  0
 19 14  1  0
 19 18  1  0
 20 21  2  0
 20 22  1  0
M  END
$$$$
