LVS.pdb
     RDKit          3D

 22 21  0  0  1  0  0  0  0  0999 V2000
   26.1946  -20.3588   -6.6681 C   0  0  0  0  0  0  0  0  0  0  0  0
   27.5190  -20.1286   -7.3626 C   0  0  2  0  0  0  0  0  0  0  0  0
   28.2928  -19.1019   -6.6008 C   0  0  0  0  0  0  0  0  0  0  0  0
   27.2390  -19.6643   -8.7958 C   0  0  0  0  0  0  0  0  0  0  0  0
   26.5253  -20.7789   -9.5314 C   0  0  2  0  0  0  0  0  0  0  0  0
   27.3988  -21.9143   -9.6255 N   0  0  0  0  0  0  0  0  0  0  0  0
   26.2286  -20.2366  -10.9149 C   0  0  0  0  0  0  0  0  0  0  0  0
   27.0533  -19.5060  -11.4597 O   0  0  0  0  0  0  0  0  0  0  0  0
   23.8904  -22.8187  -13.1138 C   0  0  0  0  0  0  0  0  0  0  0  0
   24.6632  -21.6787  -13.7511 C   0  0  2  0  0  0  0  0  0  0  0  0
   26.0540  -22.2139  -13.9490 C   0  0  0  0  0  0  0  0  0  0  0  0
   24.6424  -20.4425  -12.9500 C   0  0  2  0  0  0  0  0  0  0  0  0
   25.0679  -20.5315  -11.5868 N   0  0  0  0  0  0  0  0  0  0  0  0
   23.2803  -19.8697  -12.8529 C   0  0  0  0  0  0  0  0  0  0  0  0
   22.5258  -20.1387  -11.8434 O   0  0  0  0  0  0  0  0  0  0  0  0
   19.6989  -17.1179  -14.6136 O   0  0  0  0  0  0  0  0  0  0  0  0
   20.9986  -17.5898  -14.8596 C   0  0  0  0  0  0  0  0  0  0  0  0
   21.3034  -18.5876  -13.7362 C   0  0  2  0  0  0  0  0  0  0  0  0
   22.6904  -19.0089  -13.7954 N   0  0  0  0  0  0  0  0  0  0  0  0
   20.3414  -19.6927  -13.7255 C   0  0  0  0  0  0  0  0  0  0  0  0
   20.4797  -20.6450  -14.5227 O   0  0  0  0  0  0  0  0  0  0  0  0
   19.2759  -19.7081  -12.8483 O   0  0  0  0  0  0  0  0  0  0  0  0
  2  1  1  1
  2  4  1  0
  2  3  1  0
  4  5  1  0
  5  7  1  0
  5  6  1  6
  7  8  2  0
 10  9  1  1
 10 12  1  0
 11 10  1  0
 12 14  1  0
 12 13  1  1
 13  7  1  0
 14 15  2  0
 16 17  1  0
 18 17  1  6
 18 20  1  0
 19 14  1  0
 19 18  1  0
 20 21  2  0
 20 22  1  0
M  END
$$$$
