LVS.pdb
     RDKit          3D

 22 21  0  0  1  0  0  0  0  0999 V2000
   26.9387  -18.3736   -6.6637 C   0  0  0  0  0  0  0  0  0  0  0  0
   27.2636  -19.8495   -6.5898 C   0  0  2  0  0  0  0  0  0  0  0  0
   28.6774  -20.0115   -6.1337 C   0  0  0  0  0  0  0  0  0  0  0  0
   27.0534  -20.4609   -7.9790 C   0  0  0  0  0  0  0  0  0  0  0  0
   25.6007  -20.2837   -8.3675 C   0  0  2  0  0  0  0  0  0  0  0  0
   24.7716  -20.9440   -7.3991 N   0  0  0  0  0  0  0  0  0  0  0  0
   25.4507  -20.9507   -9.7198 C   0  0  0  0  0  0  0  0  0  0  0  0
   25.6302  -22.1632   -9.8112 O   0  0  0  0  0  0  0  0  0  0  0  0
   22.2569  -20.6304  -11.9557 C   0  0  0  0  0  0  0  0  0  0  0  0
   23.4642  -20.0845  -12.6955 C   0  0  2  0  0  0  0  0  0  0  0  0
   23.2302  -20.4387  -14.1376 C   0  0  0  0  0  0  0  0  0  0  0  0
   24.7440  -20.6074  -12.1861 C   0  0  2  0  0  0  0  0  0  0  0  0
   25.1203  -20.2490  -10.8530 N   0  0  0  0  0  0  0  0  0  0  0  0
   25.8914  -20.1546  -13.0055 C   0  0  0  0  0  0  0  0  0  0  0  0
   26.3778  -18.9706  -12.8558 O   0  0  0  0  0  0  0  0  0  0  0  0
   28.4053  -22.5991  -15.1599 O   0  0  0  0  0  0  0  0  0  0  0  0
   28.8455  -21.3356  -14.7331 C   0  0  0  0  0  0  0  0  0  0  0  0
   27.6223  -20.4148  -14.8133 C   0  0  2  0  0  0  0  0  0  0  0  0
   26.5489  -20.9247  -13.9811 N   0  0  0  0  0  0  0  0  0  0  0  0
   27.2337  -20.1597  -16.2029 C   0  0  0  0  0  0  0  0  0  0  0  0
   26.1035  -20.5081  -16.6062 O   0  0  0  0  0  0  0  0  0  0  0  0
   28.0934  -19.5383  -17.0859 O   0  0  0  0  0  0  0  0  0  0  0  0
  2  1  1  6
  2  4  1  0
  2  3  1  0
  4  5  1  0
  5  7  1  0
  5  6  1  1
  7  8  2  0
 10  9  1  1
 10 12  1  0
 11 10  1  0
 12 14  1  0
 12 13  1  1
 13  7  1  0
 14 15  2  0
 16 17  1  0
 18 17  1  6
 18 20  1  0
 19 14  1  0
 19 18  1  0
 20 21  2  0
 20 22  1  0
M  END
$$$$
