EFC.pdb
     RDKit          3D

 27 27  0  0  1  0  0  0  0  0999 V2000
    9.5711  -18.2629   20.7888 N   0  0  0  0  0  0  0  0  0  0  0  0
   10.8052  -17.6478   21.2762 C   0  0  1  0  0  0  0  0  0  0  0  0
   11.4570  -17.0274   20.0680 C   0  0  0  0  0  0  0  0  0  0  0  0
   12.4013  -17.9503   19.3651 C   0  0  0  0  0  0  0  0  0  0  0  0
   12.5603  -17.6753   17.9206 C   0  0  0  0  0  0  0  0  0  0  0  0
   13.5031  -17.0290   17.4208 O   0  0  0  0  0  0  0  0  0  0  0  0
   10.5282  -16.6683   22.3451 C   0  0  0  0  0  0  0  0  0  0  0  0
   11.4816  -16.0266   22.8470 O   0  0  0  0  0  0  0  0  0  0  0  0
   11.6008  -18.1599   17.0131 O   0  0  0  0  0  0  0  0  0  0  0  0
    9.2415  -16.3952   22.8545 N   0  0  0  0  0  0  0  0  0  0  0  0
    8.9873  -15.4975   23.9755 C   0  0  1  0  0  0  0  0  0  0  0  0
    7.6105  -14.9236   23.9262 C   0  0  0  0  0  0  0  0  0  0  0  0
    7.3041  -13.9396   24.9386 C   0  0  0  0  0  0  0  0  0  0  0  0
    7.8067  -12.6682   24.8945 C   0  0  0  0  0  0  0  0  0  0  0  0
    7.4942  -11.7340   25.8926 C   0  0  0  0  0  0  0  0  0  0  0  0
    6.6763  -12.0970   26.9246 C   0  0  0  0  0  0  0  0  0  0  0  0
    6.1651  -13.3591   26.9869 C   0  0  0  0  0  0  0  0  0  0  0  0
    6.4830  -14.2671   25.9955 C   0  0  0  0  0  0  0  0  0  0  0  0
    9.2582  -16.1246   25.2865 C   0  0  0  0  0  0  0  0  0  0  0  0
    8.9172  -17.3195   25.5594 O   0  0  0  0  0  0  0  0  0  0  0  0
    9.9206  -15.4048   26.2982 N   0  0  0  0  0  0  0  0  0  0  0  0
   10.4918  -16.0426   27.4799 C   0  0  1  0  0  0  0  0  0  0  0  0
   11.2566  -15.0196   28.3130 C   0  0  0  0  0  0  0  0  0  0  0  0
   12.3368  -14.0431   27.2115 S   0  0  0  0  0  0  0  0  0  0  0  0
    9.4977  -16.6912   28.3436 C   0  0  0  0  0  0  0  0  0  0  0  0
    8.1606  -16.6304   28.0190 O   0  0  0  0  0  0  0  0  0  0  0  0
    9.8501  -17.2980   29.3700 O   0  0  0  0  0  0  0  0  0  0  0  0
  2  1  1  6
  2  3  1  0
  4  3  1  0
  5  6  2  0
  5  4  1  0
  7 10  1  0
  7  2  1  0
  8  7  2  0
  9  5  1  0
 11 10  1  0
 12 13  1  0
 11 12  1  1
 13 14  2  0
 13 18  1  0
 14 15  1  0
 15 16  2  0
 17 16  1  0
 18 17  2  0
 19 11  1  0
 19 20  2  0
 21 19  1  0
 22 21  1  0
 22 23  1  1
 24 23  1  0
 25 22  1  0
 26 25  1  0
 27 25  2  0
M  END
$$$$
