EFC.pdb
     RDKit          3D

 27 27  0  0  1  0  0  0  0  0999 V2000
   10.1068  -16.5368   19.4715 N   0  0  0  0  0  0  0  0  0  0  0  0
    9.9361  -17.2863   20.7157 C   0  0  1  0  0  0  0  0  0  0  0  0
   11.1165  -18.2189   20.7957 C   0  0  0  0  0  0  0  0  0  0  0  0
   11.0455  -19.3492   19.8185 C   0  0  0  0  0  0  0  0  0  0  0  0
   12.3497  -19.7350   19.2371 C   0  0  0  0  0  0  0  0  0  0  0  0
   12.7098  -19.4797   18.0702 O   0  0  0  0  0  0  0  0  0  0  0  0
    9.8413  -16.3799   21.8768 C   0  0  0  0  0  0  0  0  0  0  0  0
   10.7887  -15.5941   22.1167 O   0  0  0  0  0  0  0  0  0  0  0  0
   13.2776  -20.4413   20.0239 O   0  0  0  0  0  0  0  0  0  0  0  0
    8.7389  -16.3319   22.7556 N   0  0  0  0  0  0  0  0  0  0  0  0
    8.6438  -15.4168   23.8872 C   0  0  1  0  0  0  0  0  0  0  0  0
    7.2950  -14.7844   23.9782 C   0  0  0  0  0  0  0  0  0  0  0  0
    7.1186  -13.8338   25.0515 C   0  0  0  0  0  0  0  0  0  0  0  0
    7.6297  -12.5663   24.9935 C   0  0  0  0  0  0  0  0  0  0  0  0
    7.4449  -11.6649   26.0517 C   0  0  0  0  0  0  0  0  0  0  0  0
    6.7448  -12.0563   27.1574 C   0  0  0  0  0  0  0  0  0  0  0  0
    6.2274  -13.3151   27.2347 C   0  0  0  0  0  0  0  0  0  0  0  0
    6.4185  -14.1905   26.1834 C   0  0  0  0  0  0  0  0  0  0  0  0
    9.0263  -16.0464   25.1689 C   0  0  0  0  0  0  0  0  0  0  0  0
    8.6278  -17.2053   25.5103 O   0  0  0  0  0  0  0  0  0  0  0  0
    9.8660  -15.3700   26.0732 N   0  0  0  0  0  0  0  0  0  0  0  0
   10.6064  -16.0528   27.1293 C   0  0  1  0  0  0  0  0  0  0  0  0
   11.3104  -15.0359   28.0212 C   0  0  0  0  0  0  0  0  0  0  0  0
   10.2486  -13.5607   28.1948 S   0  0  0  0  0  0  0  0  0  0  0  0
    9.7727  -16.9127   27.9781 C   0  0  0  0  0  0  0  0  0  0  0  0
   10.3624  -17.7430   28.9053 O   0  0  0  0  0  0  0  0  0  0  0  0
    8.5342  -16.9004   27.8694 O   0  0  0  0  0  0  0  0  0  0  0  0
  2  1  1  6
  2  3  1  0
  4  3  1  0
  5  6  2  0
  5  4  1  0
  7 10  1  0
  7  2  1  0
  8  7  2  0
  9  5  1  0
 11 10  1  0
 12 13  1  0
 11 12  1  1
 13 14  2  0
 13 18  1  0
 14 15  1  0
 15 16  2  0
 17 16  1  0
 18 17  2  0
 19 11  1  0
 19 20  2  0
 21 19  1  0
 22 21  1  0
 22 23  1  1
 24 23  1  0
 25 22  1  0
 26 25  1  0
 27 25  2  0
M  END
$$$$
