EFC.pdb
     RDKit          3D

 27 27  0  0  1  0  0  0  0  0999 V2000
    9.8979  -15.6067   18.8597 N   0  0  0  0  0  0  0  0  0  0  0  0
    9.3366  -16.5614   19.8148 C   0  0  1  0  0  0  0  0  0  0  0  0
   10.1929  -17.7963   19.7088 C   0  0  0  0  0  0  0  0  0  0  0  0
   10.2140  -18.3862   18.3343 C   0  0  0  0  0  0  0  0  0  0  0  0
   10.9543  -19.6624   18.2302 C   0  0  0  0  0  0  0  0  0  0  0  0
   11.3412  -20.3397   19.2037 O   0  0  0  0  0  0  0  0  0  0  0  0
    9.3079  -15.9984   21.1790 C   0  0  0  0  0  0  0  0  0  0  0  0
   10.3593  -15.5145   21.6618 O   0  0  0  0  0  0  0  0  0  0  0  0
   11.2634  -20.1827   16.9603 O   0  0  0  0  0  0  0  0  0  0  0  0
    8.1594  -15.9641   21.9973 N   0  0  0  0  0  0  0  0  0  0  0  0
    8.1676  -15.5236   23.3875 C   0  0  1  0  0  0  0  0  0  0  0  0
    6.8944  -14.8404   23.7611 C   0  0  0  0  0  0  0  0  0  0  0  0
    6.9952  -13.8585   24.8159 C   0  0  0  0  0  0  0  0  0  0  0  0
    6.3680  -14.0170   26.0212 C   0  0  0  0  0  0  0  0  0  0  0  0
    6.4815  -13.0461   27.0267 C   0  0  0  0  0  0  0  0  0  0  0  0
    7.2287  -11.9251   26.8011 C   0  0  0  0  0  0  0  0  0  0  0  0
    7.8616  -11.7482   25.6069 C   0  0  0  0  0  0  0  0  0  0  0  0
    7.7394  -12.7144   24.6272 C   0  0  0  0  0  0  0  0  0  0  0  0
    8.4867  -16.6137   24.3337 C   0  0  0  0  0  0  0  0  0  0  0  0
    8.3580  -17.8432   24.0330 O   0  0  0  0  0  0  0  0  0  0  0  0
    8.9573  -16.3206   25.6271 N   0  0  0  0  0  0  0  0  0  0  0  0
   10.0812  -17.0220   26.2391 C   0  0  1  0  0  0  0  0  0  0  0  0
   11.3612  -16.7502   25.4561 C   0  0  0  0  0  0  0  0  0  0  0  0
   12.4306  -18.2281   25.5324 S   0  0  0  0  0  0  0  0  0  0  0  0
   10.3131  -16.6610   27.6429 C   0  0  0  0  0  0  0  0  0  0  0  0
   10.8356  -17.5904   28.5146 O   0  0  0  0  0  0  0  0  0  0  0  0
   10.0419  -15.5203   28.0565 O   0  0  0  0  0  0  0  0  0  0  0  0
  2  1  1  6
  2  3  1  0
  4  3  1  0
  5  6  2  0
  5  4  1  0
  7 10  1  0
  7  2  1  0
  8  7  2  0
  9  5  1  0
 11 10  1  0
 12 13  1  0
 11 12  1  1
 13 14  2  0
 13 18  1  0
 14 15  1  0
 15 16  2  0
 17 16  1  0
 18 17  2  0
 19 11  1  0
 19 20  2  0
 21 19  1  0
 22 21  1  0
 22 23  1  6
 24 23  1  0
 25 22  1  0
 26 25  1  0
 27 25  2  0
M  END
$$$$
