EFC.pdb
     RDKit          3D

 27 27  0  0  1  0  0  0  0  0999 V2000
   10.5092  -16.7087   19.7614 N   0  0  0  0  0  0  0  0  0  0  0  0
   10.0245  -17.3322   20.9923 C   0  0  1  0  0  0  0  0  0  0  0  0
   10.9816  -18.4586   21.2835 C   0  0  0  0  0  0  0  0  0  0  0  0
   11.4958  -19.1324   20.0510 C   0  0  0  0  0  0  0  0  0  0  0  0
   12.8528  -19.7041   20.1901 C   0  0  0  0  0  0  0  0  0  0  0  0
   13.7415  -19.6431   19.3166 O   0  0  0  0  0  0  0  0  0  0  0  0
    9.9417  -16.3509   22.0918 C   0  0  0  0  0  0  0  0  0  0  0  0
   10.9984  -15.9635   22.6450 O   0  0  0  0  0  0  0  0  0  0  0  0
   13.2051  -20.3723   21.3769 O   0  0  0  0  0  0  0  0  0  0  0  0
    8.7347  -15.8050   22.5765 N   0  0  0  0  0  0  0  0  0  0  0  0
    8.6403  -14.9902   23.7823 C   0  0  1  0  0  0  0  0  0  0  0  0
    7.4089  -14.1469   23.7877 C   0  0  0  0  0  0  0  0  0  0  0  0
    7.2142  -13.3281   24.9618 C   0  0  0  0  0  0  0  0  0  0  0  0
    7.9875  -12.2298   25.2205 C   0  0  0  0  0  0  0  0  0  0  0  0
    7.7774  -11.4542   26.3698 C   0  0  0  0  0  0  0  0  0  0  0  0
    6.7867  -11.7988   27.2448 C   0  0  0  0  0  0  0  0  0  0  0  0
    6.0051  -12.8895   27.0052 C   0  0  0  0  0  0  0  0  0  0  0  0
    6.2254  -13.6427   25.8683 C   0  0  0  0  0  0  0  0  0  0  0  0
    8.7481  -15.7862   25.0234 C   0  0  0  0  0  0  0  0  0  0  0  0
    8.0507  -16.8295   25.2326 O   0  0  0  0  0  0  0  0  0  0  0  0
    9.6492  -15.4092   26.0365 N   0  0  0  0  0  0  0  0  0  0  0  0
    9.9290  -16.2455   27.1992 C   0  0  1  0  0  0  0  0  0  0  0  0
   11.1288  -17.1458   26.9241 C   0  0  0  0  0  0  0  0  0  0  0  0
   11.5065  -18.1098   28.4280 S   0  0  0  0  0  0  0  0  0  0  0  0
   10.1936  -15.4859   28.4271 C   0  0  0  0  0  0  0  0  0  0  0  0
   10.3740  -14.1218   28.3664 O   0  0  0  0  0  0  0  0  0  0  0  0
   10.2572  -16.0621   29.5270 O   0  0  0  0  0  0  0  0  0  0  0  0
  2  1  1  6
  2  3  1  0
  4  3  1  0
  5  6  2  0
  5  4  1  0
  7 10  1  0
  7  2  1  0
  8  7  2  0
  9  5  1  0
 11 10  1  0
 12 13  1  0
 11 12  1  1
 13 14  2  0
 13 18  1  0
 14 15  1  0
 15 16  2  0
 17 16  1  0
 18 17  2  0
 19 11  1  0
 19 20  2  0
 21 19  1  0
 22 21  1  0
 22 23  1  6
 24 23  1  0
 25 22  1  0
 26 25  1  0
 27 25  2  0
M  END
$$$$
