EFC.pdb
     RDKit          3D

 27 27  0  0  1  0  0  0  0  0999 V2000
   10.9217  -16.0596   19.4041 N   0  0  0  0  0  0  0  0  0  0  0  0
   10.4851  -16.8498   20.5546 C   0  0  1  0  0  0  0  0  0  0  0  0
   11.5461  -17.9003   20.7547 C   0  0  0  0  0  0  0  0  0  0  0  0
   11.4792  -19.0081   19.7518 C   0  0  0  0  0  0  0  0  0  0  0  0
   12.2171  -20.2291   20.1422 C   0  0  0  0  0  0  0  0  0  0  0  0
   11.7014  -21.3569   20.2780 O   0  0  0  0  0  0  0  0  0  0  0  0
   10.2891  -15.9984   21.7444 C   0  0  0  0  0  0  0  0  0  0  0  0
   11.2263  -15.2576   22.1258 O   0  0  0  0  0  0  0  0  0  0  0  0
   13.6004  -20.1544   20.3869 O   0  0  0  0  0  0  0  0  0  0  0  0
    9.0988  -15.9560   22.5002 N   0  0  0  0  0  0  0  0  0  0  0  0
    8.9242  -15.1334   23.6917 C   0  0  1  0  0  0  0  0  0  0  0  0
    7.5358  -14.5961   23.7970 C   0  0  0  0  0  0  0  0  0  0  0  0
    7.2820  -13.7297   24.9247 C   0  0  0  0  0  0  0  0  0  0  0  0
    7.7577  -12.4484   24.9806 C   0  0  0  0  0  0  0  0  0  0  0  0
    7.4977  -11.6300   26.0893 C   0  0  0  0  0  0  0  0  0  0  0  0
    6.7590  -12.1177   27.1297 C   0  0  0  0  0  0  0  0  0  0  0  0
    6.2758  -13.3918   27.0934 C   0  0  0  0  0  0  0  0  0  0  0  0
    6.5411  -14.1845   25.9937 C   0  0  0  0  0  0  0  0  0  0  0  0
    9.3237  -15.8289   24.9335 C   0  0  0  0  0  0  0  0  0  0  0  0
    8.9957  -17.0327   25.1820 O   0  0  0  0  0  0  0  0  0  0  0  0
   10.1009  -15.1678   25.9028 N   0  0  0  0  0  0  0  0  0  0  0  0
   10.7357  -15.8629   27.0179 C   0  0  1  0  0  0  0  0  0  0  0  0
   11.4120  -14.8605   27.9471 C   0  0  0  0  0  0  0  0  0  0  0  0
   10.1394  -13.7741   28.6779 S   0  0  0  0  0  0  0  0  0  0  0  0
    9.8101  -16.6785   27.8134 C   0  0  0  0  0  0  0  0  0  0  0  0
   10.3015  -17.5559   28.7544 O   0  0  0  0  0  0  0  0  0  0  0  0
    8.5815  -16.5863   27.6470 O   0  0  0  0  0  0  0  0  0  0  0  0
  2  1  1  6
  2  3  1  0
  4  3  1  0
  5  6  2  0
  5  4  1  0
  7 10  1  0
  7  2  1  0
  8  7  2  0
  9  5  1  0
 11 10  1  0
 12 13  1  0
 11 12  1  1
 13 14  2  0
 13 18  1  0
 14 15  1  0
 15 16  2  0
 17 16  1  0
 18 17  2  0
 19 11  1  0
 19 20  2  0
 21 19  1  0
 22 21  1  0
 22 23  1  1
 24 23  1  0
 25 22  1  0
 26 25  1  0
 27 25  2  0
M  END
$$$$
