EFC.pdb
     RDKit          3D

 27 27  0  0  1  0  0  0  0  0999 V2000
   10.1724  -17.0538   19.8158 N   0  0  0  0  0  0  0  0  0  0  0  0
   10.6465  -17.5523   21.1064 C   0  0  1  0  0  0  0  0  0  0  0  0
   12.1240  -17.7905   20.9343 C   0  0  0  0  0  0  0  0  0  0  0  0
   12.4408  -18.8228   19.8991 C   0  0  0  0  0  0  0  0  0  0  0  0
   13.5342  -18.4457   18.9770 C   0  0  0  0  0  0  0  0  0  0  0  0
   14.6439  -19.0132   18.9227 O   0  0  0  0  0  0  0  0  0  0  0  0
   10.3415  -16.5997   22.1919 C   0  0  0  0  0  0  0  0  0  0  0  0
   11.2099  -15.7603   22.5292 O   0  0  0  0  0  0  0  0  0  0  0  0
   13.3484  -17.3762   18.0823 O   0  0  0  0  0  0  0  0  0  0  0  0
    9.1180  -16.5638   22.8930 N   0  0  0  0  0  0  0  0  0  0  0  0
    8.8387  -15.6431   23.9890 C   0  0  1  0  0  0  0  0  0  0  0  0
    7.4366  -15.1337   23.9428 C   0  0  0  0  0  0  0  0  0  0  0  0
    7.0928  -14.1505   24.9438 C   0  0  0  0  0  0  0  0  0  0  0  0
    7.4998  -12.8476   24.8553 C   0  0  0  0  0  0  0  0  0  0  0  0
    7.1530  -11.9148   25.8434 C   0  0  0  0  0  0  0  0  0  0  0  0
    6.3978  -12.3112   26.9104 C   0  0  0  0  0  0  0  0  0  0  0  0
    5.9822  -13.6050   27.0171 C   0  0  0  0  0  0  0  0  0  0  0  0
    6.3326  -14.5110   26.0350 C   0  0  0  0  0  0  0  0  0  0  0  0
    9.1560  -16.2150   25.3147 C   0  0  0  0  0  0  0  0  0  0  0  0
    8.9700  -17.4418   25.5954 O   0  0  0  0  0  0  0  0  0  0  0  0
    9.6897  -15.4030   26.3327 N   0  0  0  0  0  0  0  0  0  0  0  0
   10.2307  -15.9436   27.5755 C   0  0  1  0  0  0  0  0  0  0  0  0
   10.4431  -14.8240   28.5887 C   0  0  0  0  0  0  0  0  0  0  0  0
   10.8479  -13.2831   27.6966 S   0  0  0  0  0  0  0  0  0  0  0  0
    9.3844  -16.9715   28.1938 C   0  0  0  0  0  0  0  0  0  0  0  0
    8.1399  -17.2438   27.6704 O   0  0  0  0  0  0  0  0  0  0  0  0
    9.7797  -17.6025   29.1895 O   0  0  0  0  0  0  0  0  0  0  0  0
  2  1  1  6
  2  3  1  0
  4  3  1  0
  5  6  2  0
  5  4  1  0
  7 10  1  0
  7  2  1  0
  8  7  2  0
  9  5  1  0
 11 10  1  0
 12 13  1  0
 11 12  1  1
 13 14  2  0
 13 18  1  0
 14 15  1  0
 15 16  2  0
 17 16  1  0
 18 17  2  0
 19 11  1  0
 19 20  2  0
 21 19  1  0
 22 21  1  0
 22 23  1  1
 24 23  1  0
 25 22  1  0
 26 25  1  0
 27 25  2  0
M  END
$$$$
