EFC.pdb
     RDKit          3D

 27 27  0  0  1  0  0  0  0  0999 V2000
    8.9818  -18.1484   20.1906 N   0  0  0  0  0  0  0  0  0  0  0  0
   10.2864  -17.9194   20.8107 C   0  0  1  0  0  0  0  0  0  0  0  0
   11.2110  -17.5334   19.6857 C   0  0  0  0  0  0  0  0  0  0  0  0
   11.9335  -18.6983   19.0868 C   0  0  0  0  0  0  0  0  0  0  0  0
   12.8568  -18.3429   17.9873 C   0  0  0  0  0  0  0  0  0  0  0  0
   12.5777  -18.4189   16.7738 O   0  0  0  0  0  0  0  0  0  0  0  0
   10.2038  -16.8893   21.8646 C   0  0  0  0  0  0  0  0  0  0  0  0
   11.0440  -15.9583   21.8753 O   0  0  0  0  0  0  0  0  0  0  0  0
   14.1510  -17.8825   18.2906 O   0  0  0  0  0  0  0  0  0  0  0  0
    9.2278  -16.8750   22.8828 N   0  0  0  0  0  0  0  0  0  0  0  0
    9.1099  -15.8151   23.8776 C   0  0  1  0  0  0  0  0  0  0  0  0
    7.6873  -15.5557   24.2469 C   0  0  0  0  0  0  0  0  0  0  0  0
    7.4524  -14.3804   25.0533 C   0  0  0  0  0  0  0  0  0  0  0  0
    6.7716  -14.4342   26.2385 C   0  0  0  0  0  0  0  0  0  0  0  0
    6.5563  -13.2764   27.0000 C   0  0  0  0  0  0  0  0  0  0  0  0
    7.0325  -12.0766   26.5533 C   0  0  0  0  0  0  0  0  0  0  0  0
    7.7135  -12.0017   25.3748 C   0  0  0  0  0  0  0  0  0  0  0  0
    7.9169  -13.1518   24.6371 C   0  0  0  0  0  0  0  0  0  0  0  0
    9.9375  -16.0592   25.0780 C   0  0  0  0  0  0  0  0  0  0  0  0
   11.0418  -16.6893   25.0339 O   0  0  0  0  0  0  0  0  0  0  0  0
    9.5229  -15.5889   26.3380 N   0  0  0  0  0  0  0  0  0  0  0  0
   10.2800  -15.8301   27.5619 C   0  0  1  0  0  0  0  0  0  0  0  0
   10.1395  -14.6444   28.5106 C   0  0  0  0  0  0  0  0  0  0  0  0
   10.8911  -13.1712   27.7370 S   0  0  0  0  0  0  0  0  0  0  0  0
    9.8772  -17.0458   28.2794 C   0  0  0  0  0  0  0  0  0  0  0  0
   10.5824  -17.4546   29.3895 O   0  0  0  0  0  0  0  0  0  0  0  0
    8.9020  -17.7143   27.8948 O   0  0  0  0  0  0  0  0  0  0  0  0
  2  1  1  6
  2  3  1  0
  4  3  1  0
  5  6  2  0
  5  4  1  0
  7 10  1  0
  7  2  1  0
  8  7  2  0
  9  5  1  0
 11 10  1  0
 12 13  1  0
 11 12  1  1
 13 14  2  0
 13 18  1  0
 14 15  1  0
 15 16  2  0
 17 16  1  0
 18 17  2  0
 19 11  1  0
 19 20  2  0
 21 19  1  0
 22 21  1  0
 22 23  1  1
 24 23  1  0
 25 22  1  0
 26 25  1  0
 27 25  2  0
M  END
$$$$
