KTA.pdb
     RDKit          3D

 22 21  0  0  1  0  0  0  0  0999 V2000
   16.7681  -13.9407  -16.2248 N   0  0  0  0  0  0  0  0  0  0  0  0
   16.6876  -12.5014  -16.2814 C   0  0  1  0  0  0  0  0  0  0  0  0
   15.7639  -11.9203  -15.2795 C   0  0  0  0  0  0  0  0  0  0  0  0
   14.4564  -12.5788  -15.1011 C   0  0  0  0  0  0  0  0  0  0  0  0
   13.3116  -11.9029  -15.7942 C   0  0  0  0  0  0  0  0  0  0  0  0
   11.9922  -12.6263  -15.4725 C   0  0  0  0  0  0  0  0  0  0  0  0
   10.9427  -11.8500  -16.1068 N   0  0  0  0  0  0  0  0  0  0  0  0
   18.0918  -11.9803  -16.1044 C   0  0  0  0  0  0  0  0  0  0  0  0
   18.9523  -12.6470  -15.4882 O   0  0  0  0  0  0  0  0  0  0  0  0
   20.6847  -11.2654  -18.5871 C   0  0  0  0  0  0  0  0  0  0  0  0
   20.4403  -10.0246  -17.8153 C   0  0  1  0  0  0  0  0  0  0  0  0
   19.5845   -9.2177  -18.6081 O   0  0  0  0  0  0  0  0  0  0  0  0
   19.8565  -10.1995  -16.4353 C   0  0  2  0  0  0  0  0  0  0  0  0
   18.4889  -10.7288  -16.6227 N   0  0  0  0  0  0  0  0  0  0  0  0
   19.8394   -9.0015  -15.6011 C   0  0  0  0  0  0  0  0  0  0  0  0
   18.8221   -8.2245  -15.6813 O   0  0  0  0  0  0  0  0  0  0  0  0
   21.7760   -7.2076  -12.8939 C   0  0  0  0  0  0  0  0  0  0  0  0
   20.7818   -7.3110  -14.0289 C   0  0  2  0  0  0  0  0  0  0  0  0
   20.8446   -8.5937  -14.6913 N   0  0  0  0  0  0  0  0  0  0  0  0
   21.0761   -6.1996  -14.9656 C   0  0  0  0  0  0  0  0  0  0  0  0
   21.6175   -6.4531  -16.0704 O   0  0  0  0  0  0  0  0  0  0  0  0
   20.7823   -4.8738  -14.6858 O   0  0  0  0  0  0  0  0  0  0  0  0
  2  1  1  1
  2  8  1  0
  3  2  1  0
  4  3  1  0
  5  6  1  0
  5  4  1  0
  6  7  1  0
  8 14  1  0
  8  9  2  0
 11 10  1  6
 12 11  1  0
 13 11  1  0
 13 15  1  0
 13 14  1  6
 15 16  2  0
 18 17  1  1
 19 18  1  0
 19 15  1  0
 20 18  1  0
 20 22  1  0
 21 20  2  0
M  END
$$$$
