KTA.pdb
     RDKit          3D

 22 21  0  0  1  0  0  0  0  0999 V2000
   24.1498  -16.5310  -16.8229 N   0  0  0  0  0  0  0  0  0  0  0  0
   25.2385  -16.9043  -15.9530 C   0  0  1  0  0  0  0  0  0  0  0  0
   25.8100  -15.7650  -15.1978 C   0  0  0  0  0  0  0  0  0  0  0  0
   26.8966  -15.0028  -15.8407 C   0  0  0  0  0  0  0  0  0  0  0  0
   26.4402  -13.9073  -16.7569 C   0  0  0  0  0  0  0  0  0  0  0  0
   27.6526  -13.1586  -17.3373 C   0  0  0  0  0  0  0  0  0  0  0  0
   27.1132  -12.1547  -18.2360 N   0  0  0  0  0  0  0  0  0  0  0  0
   24.7087  -17.9698  -15.0263 C   0  0  0  0  0  0  0  0  0  0  0  0
   23.5303  -17.9308  -14.6087 O   0  0  0  0  0  0  0  0  0  0  0  0
   24.8337  -22.6265  -13.6386 C   0  0  0  0  0  0  0  0  0  0  0  0
   25.1666  -21.4058  -14.4094 C   0  0  1  0  0  0  0  0  0  0  0  0
   24.3505  -21.4254  -15.5694 O   0  0  0  0  0  0  0  0  0  0  0  0
   25.0060  -20.0925  -13.6845 C   0  0  2  0  0  0  0  0  0  0  0  0
   25.5148  -19.0457  -14.5962 N   0  0  0  0  0  0  0  0  0  0  0  0
   25.6582  -20.0075  -12.3812 C   0  0  0  0  0  0  0  0  0  0  0  0
   26.9249  -19.8085  -12.3520 O   0  0  0  0  0  0  0  0  0  0  0  0
   24.9313  -20.3512   -8.6759 C   0  0  0  0  0  0  0  0  0  0  0  0
   25.8077  -20.2094   -9.9004 C   0  0  2  0  0  0  0  0  0  0  0  0
   25.0322  -20.1217  -11.1165 N   0  0  0  0  0  0  0  0  0  0  0  0
   26.7190  -21.3791   -9.9191 C   0  0  0  0  0  0  0  0  0  0  0  0
   26.3618  -22.4280  -10.5108 O   0  0  0  0  0  0  0  0  0  0  0  0
   27.9645  -21.3802   -9.3098 O   0  0  0  0  0  0  0  0  0  0  0  0
  2  1  1  1
  2  8  1  0
  3  2  1  0
  4  3  1  0
  5  6  1  0
  5  4  1  0
  6  7  1  0
  8 14  1  0
  8  9  2  0
 11 10  1  1
 12 11  1  0
 13 11  1  0
 13 15  1  0
 13 14  1  6
 15 16  2  0
 18 17  1  1
 19 18  1  0
 19 15  1  0
 20 18  1  0
 20 22  1  0
 21 20  2  0
M  END
$$$$
