KTA.pdb
     RDKit          3D

 22 21  0  0  1  0  0  0  0  0999 V2000
   20.1274  -10.6729  -18.4009 N   0  0  0  0  0  0  0  0  0  0  0  0
   19.4017   -9.4284  -18.4782 C   0  0  1  0  0  0  0  0  0  0  0  0
   17.9942   -9.5898  -18.9116 C   0  0  0  0  0  0  0  0  0  0  0  0
   17.5044  -10.9644  -19.1253 C   0  0  0  0  0  0  0  0  0  0  0  0
   16.8003  -11.5716  -17.9492 C   0  0  0  0  0  0  0  0  0  0  0  0
   16.2400  -12.9557  -18.3203 C   0  0  0  0  0  0  0  0  0  0  0  0
   15.2544  -12.7252  -19.3605 N   0  0  0  0  0  0  0  0  0  0  0  0
   19.4890   -8.7890  -17.1151 C   0  0  0  0  0  0  0  0  0  0  0  0
   18.4715   -8.3217  -16.5575 O   0  0  0  0  0  0  0  0  0  0  0  0
   23.0072   -9.3673  -14.8435 C   0  0  0  0  0  0  0  0  0  0  0  0
   21.6787   -9.0661  -14.2611 C   0  0  1  0  0  0  0  0  0  0  0  0
   21.9158   -8.5333  -12.9681 O   0  0  0  0  0  0  0  0  0  0  0  0
   20.7974   -8.1322  -15.0531 C   0  0  2  0  0  0  0  0  0  0  0  0
   20.7130   -8.6928  -16.4185 N   0  0  0  0  0  0  0  0  0  0  0  0
   21.2284   -6.7379  -15.0903 C   0  0  0  0  0  0  0  0  0  0  0  0
   22.1998   -6.4269  -15.8679 O   0  0  0  0  0  0  0  0  0  0  0  0
   20.2106   -3.2631  -14.1823 C   0  0  0  0  0  0  0  0  0  0  0  0
   21.2488   -4.3394  -14.4089 C   0  0  2  0  0  0  0  0  0  0  0  0
   20.6790   -5.6658  -14.3465 N   0  0  0  0  0  0  0  0  0  0  0  0
   22.3010   -4.1500  -13.3812 C   0  0  0  0  0  0  0  0  0  0  0  0
   23.0022   -3.1081  -13.4033 O   0  0  0  0  0  0  0  0  0  0  0  0
   22.5588   -5.0741  -12.3802 O   0  0  0  0  0  0  0  0  0  0  0  0
  2  1  1  1
  2  8  1  0
  3  2  1  0
  4  3  1  0
  5  6  1  0
  5  4  1  0
  6  7  1  0
  8 14  1  0
  8  9  2  0
 11 10  1  6
 12 11  1  0
 13 11  1  0
 13 15  1  0
 13 14  1  6
 15 16  2  0
 18 17  1  1
 19 18  1  0
 19 15  1  0
 20 18  1  0
 20 22  1  0
 21 20  2  0
M  END
$$$$
