KTA.pdb
     RDKit          3D

 22 21  0  0  1  0  0  0  0  0999 V2000
   13.3514   -9.0805   -9.3628 N   0  0  0  0  0  0  0  0  0  0  0  0
   14.6055   -9.4502   -9.9727 C   0  0  1  0  0  0  0  0  0  0  0  0
   14.4594  -10.4102  -11.0915 C   0  0  0  0  0  0  0  0  0  0  0  0
   13.7660  -11.6806  -10.8082 C   0  0  0  0  0  0  0  0  0  0  0  0
   14.4903  -12.5969   -9.8682 C   0  0  0  0  0  0  0  0  0  0  0  0
   13.6475  -13.8550   -9.5958 C   0  0  0  0  0  0  0  0  0  0  0  0
   14.4215  -14.6661   -8.6741 N   0  0  0  0  0  0  0  0  0  0  0  0
   15.2621   -8.1705  -10.4263 C   0  0  0  0  0  0  0  0  0  0  0  0
   14.7184   -7.4366  -11.2811 O   0  0  0  0  0  0  0  0  0  0  0  0
   15.4893   -5.0676   -9.0129 C   0  0  0  0  0  0  0  0  0  0  0  0
   16.8937   -5.4970   -9.2083 C   0  0  1  0  0  0  0  0  0  0  0  0
   17.3260   -6.0398   -7.9711 O   0  0  0  0  0  0  0  0  0  0  0  0
   17.1428   -6.4831  -10.3225 C   0  0  2  0  0  0  0  0  0  0  0  0
   16.5070   -7.7521   -9.9089 N   0  0  0  0  0  0  0  0  0  0  0  0
   18.5433   -6.6953  -10.6758 C   0  0  0  0  0  0  0  0  0  0  0  0
   19.3458   -7.0855   -9.7545 O   0  0  0  0  0  0  0  0  0  0  0  0
   20.7671   -7.5462  -13.4584 C   0  0  0  0  0  0  0  0  0  0  0  0
   20.5304   -6.7732  -12.1800 C   0  0  2  0  0  0  0  0  0  0  0  0
   19.1269   -6.5151  -11.9530 N   0  0  0  0  0  0  0  0  0  0  0  0
   21.3055   -5.5133  -12.2854 C   0  0  0  0  0  0  0  0  0  0  0  0
   20.6978   -4.4315  -12.4807 O   0  0  0  0  0  0  0  0  0  0  0  0
   22.6870   -5.4615  -12.1786 O   0  0  0  0  0  0  0  0  0  0  0  0
  2  1  1  6
  2  8  1  0
  3  2  1  0
  4  3  1  0
  5  6  1  0
  5  4  1  0
  6  7  1  0
  8 14  1  0
  8  9  2  0
 11 10  1  1
 12 11  1  0
 13 11  1  0
 13 15  1  0
 13 14  1  1
 15 16  2  0
 18 17  1  6
 19 18  1  0
 19 15  1  0
 20 18  1  0
 20 22  1  0
 21 20  2  0
M  END
$$$$
