KTA.pdb
     RDKit          3D

 22 21  0  0  1  0  0  0  0  0999 V2000
   17.0332  -10.6111  -13.0893 N   0  0  0  0  0  0  0  0  0  0  0  0
   17.6165  -10.3644  -14.3855 C   0  0  1  0  0  0  0  0  0  0  0  0
   16.6195  -10.0339  -15.4302 C   0  0  0  0  0  0  0  0  0  0  0  0
   15.2850  -10.6506  -15.3125 C   0  0  0  0  0  0  0  0  0  0  0  0
   14.2853  -10.1863  -16.3289 C   0  0  0  0  0  0  0  0  0  0  0  0
   12.9250  -10.8629  -16.0855 C   0  0  0  0  0  0  0  0  0  0  0  0
   12.0234  -10.3258  -17.0881 N   0  0  0  0  0  0  0  0  0  0  0  0
   18.6175   -9.2505  -14.2066 C   0  0  0  0  0  0  0  0  0  0  0  0
   18.4897   -8.4126  -13.2867 O   0  0  0  0  0  0  0  0  0  0  0  0
   22.3201   -9.4321  -13.5379 C   0  0  0  0  0  0  0  0  0  0  0  0
   22.0660   -8.6701  -14.7828 C   0  0  1  0  0  0  0  0  0  0  0  0
   22.2670   -9.5736  -15.8576 O   0  0  0  0  0  0  0  0  0  0  0  0
   20.7120   -8.0157  -14.9018 C   0  0  2  0  0  0  0  0  0  0  0  0
   19.7305   -9.1095  -15.0632 N   0  0  0  0  0  0  0  0  0  0  0  0
   20.5774   -7.0352  -15.9751 C   0  0  0  0  0  0  0  0  0  0  0  0
   20.3247   -7.4647  -17.1569 O   0  0  0  0  0  0  0  0  0  0  0  0
   19.8941   -3.4509  -16.6449 C   0  0  0  0  0  0  0  0  0  0  0  0
   20.5596   -4.7620  -16.9996 C   0  0  2  0  0  0  0  0  0  0  0  0
   20.6965   -5.6298  -15.8524 N   0  0  0  0  0  0  0  0  0  0  0  0
   21.8780   -4.4323  -17.5933 C   0  0  0  0  0  0  0  0  0  0  0  0
   22.9129   -4.5349  -16.8890 O   0  0  0  0  0  0  0  0  0  0  0  0
   22.0351   -4.0100  -18.9046 O   0  0  0  0  0  0  0  0  0  0  0  0
  2  1  1  1
  2  8  1  0
  3  2  1  0
  4  3  1  0
  5  6  1  0
  5  4  1  0
  6  7  1  0
  8 14  1  0
  8  9  2  0
 11 10  1  1
 12 11  1  0
 13 11  1  0
 13 15  1  0
 13 14  1  6
 15 16  2  0
 18 17  1  1
 19 18  1  0
 19 15  1  0
 20 18  1  0
 20 22  1  0
 21 20  2  0
M  END
$$$$
