KTA.pdb
     RDKit          3D

 22 21  0  0  1  0  0  0  0  0999 V2000
   18.8591  -12.2504  -18.5382 N   0  0  0  0  0  0  0  0  0  0  0  0
   18.5914  -10.8415  -18.6959 C   0  0  1  0  0  0  0  0  0  0  0  0
   17.3141  -10.4093  -18.0823 C   0  0  0  0  0  0  0  0  0  0  0  0
   16.4247  -11.4616  -17.5565 C   0  0  0  0  0  0  0  0  0  0  0  0
   16.6924  -11.8603  -16.1362 C   0  0  0  0  0  0  0  0  0  0  0  0
   15.5479  -12.7412  -15.6055 C   0  0  0  0  0  0  0  0  0  0  0  0
   15.9535  -13.1728  -14.2805 N   0  0  0  0  0  0  0  0  0  0  0  0
   19.7660  -10.1067  -18.0999 C   0  0  0  0  0  0  0  0  0  0  0  0
   20.6502  -10.7185  -17.4607 O   0  0  0  0  0  0  0  0  0  0  0  0
   22.5558   -6.0282  -18.3990 C   0  0  0  0  0  0  0  0  0  0  0  0
   21.4772   -6.9761  -18.7639 C   0  0  1  0  0  0  0  0  0  0  0  0
   21.9016   -7.6353  -19.9460 O   0  0  0  0  0  0  0  0  0  0  0  0
   21.0940   -7.9895  -17.7141 C   0  0  2  0  0  0  0  0  0  0  0  0
   19.9139   -8.7097  -18.2380 N   0  0  0  0  0  0  0  0  0  0  0  0
   20.8245   -7.4497  -16.3848 C   0  0  0  0  0  0  0  0  0  0  0  0
   19.7446   -6.7793  -16.2130 O   0  0  0  0  0  0  0  0  0  0  0  0
   22.0891   -7.4991  -12.8265 C   0  0  0  0  0  0  0  0  0  0  0  0
   21.3029   -6.9399  -13.9913 C   0  0  2  0  0  0  0  0  0  0  0  0
   21.6419   -7.5886  -15.2372 N   0  0  0  0  0  0  0  0  0  0  0  0
   21.5804   -5.4840  -14.0425 C   0  0  0  0  0  0  0  0  0  0  0  0
   22.4604   -5.0526  -14.8282 O   0  0  0  0  0  0  0  0  0  0  0  0
   20.9118   -4.5563  -13.2584 O   0  0  0  0  0  0  0  0  0  0  0  0
  2  1  1  1
  2  8  1  0
  3  2  1  0
  4  3  1  0
  5  6  1  0
  5  4  1  0
  6  7  1  0
  8 14  1  0
  8  9  2  0
 11 10  1  1
 12 11  1  0
 13 11  1  0
 13 15  1  0
 13 14  1  6
 15 16  2  0
 18 17  1  1
 19 18  1  0
 19 15  1  0
 20 18  1  0
 20 22  1  0
 21 20  2  0
M  END
$$$$
