KTA.pdb
     RDKit          3D

 22 21  0  0  1  0  0  0  0  0999 V2000
   16.8644  -11.2685  -14.3185 N   0  0  0  0  0  0  0  0  0  0  0  0
   17.8841  -11.6005  -15.2835 C   0  0  1  0  0  0  0  0  0  0  0  0
   17.3801  -12.3955  -16.4275 C   0  0  0  0  0  0  0  0  0  0  0  0
   16.9168  -13.7673  -16.1475 C   0  0  0  0  0  0  0  0  0  0  0  0
   15.7564  -13.8591  -15.2025 C   0  0  0  0  0  0  0  0  0  0  0  0
   15.3749  -15.3314  -14.9690 C   0  0  0  0  0  0  0  0  0  0  0  0
   15.0874  -15.8853  -16.2793 N   0  0  0  0  0  0  0  0  0  0  0  0
   18.4895  -10.2973  -15.7418 C   0  0  0  0  0  0  0  0  0  0  0  0
   19.3400  -10.2706  -16.6586 O   0  0  0  0  0  0  0  0  0  0  0  0
   16.5423   -7.3184  -17.0188 C   0  0  0  0  0  0  0  0  0  0  0  0
   17.4377   -6.9003  -15.9149 C   0  0  1  0  0  0  0  0  0  0  0  0
   16.6341   -6.8281  -14.7483 O   0  0  0  0  0  0  0  0  0  0  0  0
   18.6411   -7.7743  -15.6623 C   0  0  2  0  0  0  0  0  0  0  0  0
   18.1237   -9.0647  -15.1593 N   0  0  0  0  0  0  0  0  0  0  0  0
   19.6397   -7.2246  -14.7503 C   0  0  0  0  0  0  0  0  0  0  0  0
   19.3909   -7.2564  -13.4925 O   0  0  0  0  0  0  0  0  0  0  0  0
   23.2357   -6.2752  -14.5254 C   0  0  0  0  0  0  0  0  0  0  0  0
   21.7888   -6.1357  -14.1074 C   0  0  2  0  0  0  0  0  0  0  0  0
   20.8820   -6.6480  -15.1091 N   0  0  0  0  0  0  0  0  0  0  0  0
   21.5508   -4.6960  -13.8431 C   0  0  0  0  0  0  0  0  0  0  0  0
   20.8341   -4.0352  -14.6352 O   0  0  0  0  0  0  0  0  0  0  0  0
   22.0842   -4.0268  -12.7521 O   0  0  0  0  0  0  0  0  0  0  0  0
  2  1  1  1
  2  8  1  0
  3  2  1  0
  4  3  1  0
  5  6  1  0
  5  4  1  0
  6  7  1  0
  8 14  1  0
  8  9  2  0
 11 10  1  6
 12 11  1  0
 13 11  1  0
 13 15  1  0
 13 14  1  1
 15 16  2  0
 18 17  1  6
 19 18  1  0
 19 15  1  0
 20 18  1  0
 20 22  1  0
 21 20  2  0
M  END
$$$$
