KTA.pdb
     RDKit          3D

 22 21  0  0  1  0  0  0  0  0999 V2000
   13.5387   -8.7401   -9.0533 N   0  0  0  0  0  0  0  0  0  0  0  0
   14.9107   -9.0696   -9.3541 C   0  0  1  0  0  0  0  0  0  0  0  0
   15.0602  -10.3040  -10.1595 C   0  0  0  0  0  0  0  0  0  0  0  0
   13.8439  -11.0980  -10.4147 C   0  0  0  0  0  0  0  0  0  0  0  0
   14.0688  -12.3636  -11.1864 C   0  0  0  0  0  0  0  0  0  0  0  0
   12.7359  -13.1025  -11.3979 C   0  0  0  0  0  0  0  0  0  0  0  0
   13.0597  -14.3166  -12.1242 N   0  0  0  0  0  0  0  0  0  0  0  0
   15.4994   -7.8748  -10.0617 C   0  0  0  0  0  0  0  0  0  0  0  0
   14.8364   -7.2392  -10.9108 O   0  0  0  0  0  0  0  0  0  0  0  0
   16.1987   -4.6878   -8.8206 C   0  0  0  0  0  0  0  0  0  0  0  0
   17.4800   -5.1677   -9.3888 C   0  0  1  0  0  0  0  0  0  0  0  0
   18.2550   -5.6375   -8.2976 O   0  0  0  0  0  0  0  0  0  0  0  0
   17.3828   -6.2331  -10.4524 C   0  0  2  0  0  0  0  0  0  0  0  0
   16.8123   -7.4290   -9.7967 N   0  0  0  0  0  0  0  0  0  0  0  0
   18.6319   -6.5607  -11.1332 C   0  0  0  0  0  0  0  0  0  0  0  0
   19.5491   -7.1527  -10.4599 O   0  0  0  0  0  0  0  0  0  0  0  0
   20.3080   -6.5043  -14.5186 C   0  0  0  0  0  0  0  0  0  0  0  0
   20.2771   -6.5276  -13.0066 C   0  0  2  0  0  0  0  0  0  0  0  0
   18.9497   -6.2922  -12.4865 N   0  0  0  0  0  0  0  0  0  0  0  0
   21.2361   -5.4983  -12.5375 C   0  0  0  0  0  0  0  0  0  0  0  0
   20.8039   -4.3800  -12.1626 O   0  0  0  0  0  0  0  0  0  0  0  0
   22.6064   -5.7043  -12.4886 O   0  0  0  0  0  0  0  0  0  0  0  0
  2  1  1  6
  2  8  1  0
  3  2  1  0
  4  3  1  0
  5  6  1  0
  5  4  1  0
  6  7  1  0
  8 14  1  0
  8  9  2  0
 11 10  1  1
 12 11  1  0
 13 11  1  0
 13 15  1  0
 13 14  1  1
 15 16  2  0
 18 17  1  6
 19 18  1  0
 19 15  1  0
 20 18  1  0
 20 22  1  0
 21 20  2  0
M  END
$$$$
