KTA.pdb
     RDKit          3D

 22 21  0  0  1  0  0  0  0  0999 V2000
   18.0642  -13.6581  -16.1598 N   0  0  0  0  0  0  0  0  0  0  0  0
   18.5158  -12.5679  -16.9897 C   0  0  1  0  0  0  0  0  0  0  0  0
   17.5407  -12.1753  -18.0336 C   0  0  0  0  0  0  0  0  0  0  0  0
   16.4616  -13.1306  -18.3466 C   0  0  0  0  0  0  0  0  0  0  0  0
   16.7485  -14.0497  -19.4958 C   0  0  0  0  0  0  0  0  0  0  0  0
   15.5213  -14.9287  -19.7940 C   0  0  0  0  0  0  0  0  0  0  0  0
   15.9014  -15.7888  -20.8995 N   0  0  0  0  0  0  0  0  0  0  0  0
   18.8266  -11.4177  -16.0649 C   0  0  0  0  0  0  0  0  0  0  0  0
   18.1603  -11.2324  -15.0226 O   0  0  0  0  0  0  0  0  0  0  0  0
   22.0701   -8.2183  -14.3067 C   0  0  0  0  0  0  0  0  0  0  0  0
   21.5519   -9.3911  -15.0490 C   0  0  1  0  0  0  0  0  0  0  0  0
   21.7412  -10.5175  -14.2078 O   0  0  0  0  0  0  0  0  0  0  0  0
   20.1139   -9.3159  -15.4989 C   0  0  2  0  0  0  0  0  0  0  0  0
   19.8737  -10.5107  -16.3360 N   0  0  0  0  0  0  0  0  0  0  0  0
   19.7390   -8.0986  -16.2123 C   0  0  0  0  0  0  0  0  0  0  0  0
   20.3059   -7.8595  -17.3376 O   0  0  0  0  0  0  0  0  0  0  0  0
   17.3070   -5.2109  -16.1313 C   0  0  0  0  0  0  0  0  0  0  0  0
   18.5829   -5.9136  -16.5387 C   0  0  2  0  0  0  0  0  0  0  0  0
   18.7958   -7.1309  -15.7899 N   0  0  0  0  0  0  0  0  0  0  0  0
   19.6918   -4.9497  -16.3375 C   0  0  0  0  0  0  0  0  0  0  0  0
   20.5124   -5.1416  -15.4061 O   0  0  0  0  0  0  0  0  0  0  0  0
   19.8770   -3.8295  -17.1334 O   0  0  0  0  0  0  0  0  0  0  0  0
  2  1  1  1
  2  8  1  0
  3  2  1  0
  4  3  1  0
  5  6  1  0
  5  4  1  0
  6  7  1  0
  8 14  1  0
  8  9  2  0
 11 10  1  1
 12 11  1  0
 13 11  1  0
 13 15  1  0
 13 14  1  6
 15 16  2  0
 18 17  1  1
 19 18  1  0
 19 15  1  0
 20 18  1  0
 20 22  1  0
 21 20  2  0
M  END
$$$$
