KTA.pdb
     RDKit          3D

 22 21  0  0  1  0  0  0  0  0999 V2000
   27.6827  -24.3052  -17.0893 N   0  0  0  0  0  0  0  0  0  0  0  0
   26.5982  -25.2011  -16.7691 C   0  0  1  0  0  0  0  0  0  0  0  0
   25.2618  -24.6560  -17.1031 C   0  0  0  0  0  0  0  0  0  0  0  0
   24.9119  -23.3339  -16.5511 C   0  0  0  0  0  0  0  0  0  0  0  0
   24.6591  -23.3158  -15.0734 C   0  0  0  0  0  0  0  0  0  0  0  0
   23.4623  -22.4048  -14.7489 C   0  0  0  0  0  0  0  0  0  0  0  0
   23.2746  -22.4835  -13.3119 N   0  0  0  0  0  0  0  0  0  0  0  0
   26.8676  -26.4898  -17.5048 C   0  0  0  0  0  0  0  0  0  0  0  0
   27.3849  -26.4842  -18.6437 O   0  0  0  0  0  0  0  0  0  0  0  0
   29.2842  -28.9262  -17.0633 C   0  0  0  0  0  0  0  0  0  0  0  0
   27.9959  -29.6510  -16.9638 C   0  0  1  0  0  0  0  0  0  0  0  0
   27.7263  -29.8078  -15.5801 O   0  0  0  0  0  0  0  0  0  0  0  0
   26.8150  -29.0138  -17.6532 C   0  0  2  0  0  0  0  0  0  0  0  0
   26.5494  -27.7448  -16.9425 N   0  0  0  0  0  0  0  0  0  0  0  0
   25.6080  -29.8321  -17.7226 C   0  0  0  0  0  0  0  0  0  0  0  0
   24.7599  -29.7393  -16.7650 O   0  0  0  0  0  0  0  0  0  0  0  0
   23.7928  -32.2809  -19.9709 C   0  0  0  0  0  0  0  0  0  0  0  0
   24.0548  -31.5287  -18.6851 C   0  0  2  0  0  0  0  0  0  0  0  0
   25.2615  -30.7369  -18.7549 N   0  0  0  0  0  0  0  0  0  0  0  0
   24.1273  -32.5371  -17.6001 C   0  0  0  0  0  0  0  0  0  0  0  0
   25.2374  -33.0461  -17.3064 O   0  0  0  0  0  0  0  0  0  0  0  0
   23.0196  -32.9567  -16.8793 O   0  0  0  0  0  0  0  0  0  0  0  0
  2  1  1  6
  2  8  1  0
  3  2  1  0
  4  3  1  0
  5  6  1  0
  5  4  1  0
  6  7  1  0
  8 14  1  0
  8  9  2  0
 11 10  1  1
 12 11  1  0
 13 11  1  0
 13 15  1  0
 13 14  1  1
 15 16  2  0
 18 17  1  6
 19 18  1  0
 19 15  1  0
 20 18  1  0
 20 22  1  0
 21 20  2  0
M  END
$$$$
