KTA.pdb
     RDKit          3D

 22 21  0  0  1  0  0  0  0  0999 V2000
   19.1909  -11.2708  -15.7759 N   0  0  0  0  0  0  0  0  0  0  0  0
   19.8571  -10.1880  -16.4577 C   0  0  1  0  0  0  0  0  0  0  0  0
   19.3397   -9.9410  -17.8238 C   0  0  0  0  0  0  0  0  0  0  0  0
   18.4420  -10.9580  -18.4025 C   0  0  0  0  0  0  0  0  0  0  0  0
   18.0975  -10.7452  -19.8460 C   0  0  0  0  0  0  0  0  0  0  0  0
   17.2213  -11.9007  -20.3604 C   0  0  0  0  0  0  0  0  0  0  0  0
   17.0333  -11.6622  -21.7796 N   0  0  0  0  0  0  0  0  0  0  0  0
   19.7098   -8.9679  -15.5834 C   0  0  0  0  0  0  0  0  0  0  0  0
   18.7188   -8.8306  -14.8327 O   0  0  0  0  0  0  0  0  0  0  0  0
   22.0687   -5.5119  -13.0551 C   0  0  0  0  0  0  0  0  0  0  0  0
   21.8699   -6.7061  -13.9091 C   0  0  1  0  0  0  0  0  0  0  0  0
   21.9889   -7.8352  -13.0588 O   0  0  0  0  0  0  0  0  0  0  0  0
   20.5735   -6.7703  -14.6779 C   0  0  2  0  0  0  0  0  0  0  0  0
   20.6768   -7.9395  -15.5769 N   0  0  0  0  0  0  0  0  0  0  0  0
   20.2249   -5.5678  -15.4286 C   0  0  0  0  0  0  0  0  0  0  0  0
   20.9517   -5.2544  -16.4379 O   0  0  0  0  0  0  0  0  0  0  0  0
   17.4708   -3.0489  -15.8792 C   0  0  0  0  0  0  0  0  0  0  0  0
   18.9007   -3.5299  -15.9864 C   0  0  2  0  0  0  0  0  0  0  0  0
   19.1475   -4.6894  -15.1602 N   0  0  0  0  0  0  0  0  0  0  0  0
   19.7708   -2.3922  -15.6018 C   0  0  0  0  0  0  0  0  0  0  0  0
   20.1835   -2.3059  -14.4186 O   0  0  0  0  0  0  0  0  0  0  0  0
   20.1610   -1.4015  -16.4900 O   0  0  0  0  0  0  0  0  0  0  0  0
  2  1  1  1
  2  8  1  0
  3  2  1  0
  4  3  1  0
  5  6  1  0
  5  4  1  0
  6  7  1  0
  8 14  1  0
  8  9  2  0
 11 10  1  1
 12 11  1  0
 13 11  1  0
 13 15  1  0
 13 14  1  6
 15 16  2  0
 18 17  1  1
 19 18  1  0
 19 15  1  0
 20 18  1  0
 20 22  1  0
 21 20  2  0
M  END
$$$$
