KTA.pdb
     RDKit          3D

 22 21  0  0  1  0  0  0  0  0999 V2000
   23.6504  -21.6157  -15.7563 N   0  0  0  0  0  0  0  0  0  0  0  0
   23.9482  -20.8329  -14.5817 C   0  0  1  0  0  0  0  0  0  0  0  0
   25.3622  -20.3980  -14.5029 C   0  0  0  0  0  0  0  0  0  0  0  0
   26.3978  -21.4005  -14.8150 C   0  0  0  0  0  0  0  0  0  0  0  0
   26.4143  -21.8658  -16.2402 C   0  0  0  0  0  0  0  0  0  0  0  0
   27.6631  -21.3293  -16.9613 C   0  0  0  0  0  0  0  0  0  0  0  0
   28.7572  -22.2003  -16.5730 N   0  0  0  0  0  0  0  0  0  0  0  0
   23.0085  -19.6533  -14.5959 C   0  0  0  0  0  0  0  0  0  0  0  0
   23.0352  -18.7988  -13.6828 O   0  0  0  0  0  0  0  0  0  0  0  0
   20.3807  -16.5377  -17.2964 C   0  0  0  0  0  0  0  0  0  0  0  0
   21.3131  -17.6477  -16.9904 C   0  0  1  0  0  0  0  0  0  0  0  0
   22.6237  -17.1167  -17.1016 O   0  0  0  0  0  0  0  0  0  0  0  0
   21.1374  -18.3186  -15.6507 C   0  0  2  0  0  0  0  0  0  0  0  0
   22.0681  -19.4672  -15.6320 N   0  0  0  0  0  0  0  0  0  0  0  0
   19.7783  -18.7467  -15.3329 C   0  0  0  0  0  0  0  0  0  0  0  0
   19.4331  -19.9416  -15.6458 O   0  0  0  0  0  0  0  0  0  0  0  0
   17.4249  -19.6230  -13.4918 C   0  0  0  0  0  0  0  0  0  0  0  0
   17.4441  -18.4906  -14.4942 C   0  0  2  0  0  0  0  0  0  0  0  0
   18.7764  -17.9708  -14.7016 N   0  0  0  0  0  0  0  0  0  0  0  0
   16.5249  -17.4445  -13.9842 C   0  0  0  0  0  0  0  0  0  0  0  0
   16.9850  -16.3155  -13.6817 O   0  0  0  0  0  0  0  0  0  0  0  0
   15.1630  -17.6460  -13.8197 O   0  0  0  0  0  0  0  0  0  0  0  0
  2  1  1  6
  2  8  1  0
  3  2  1  0
  4  3  1  0
  5  6  1  0
  5  4  1  0
  6  7  1  0
  8 14  1  0
  8  9  2  0
 11 10  1  1
 12 11  1  0
 13 11  1  0
 13 15  1  0
 13 14  1  6
 15 16  2  0
 18 17  1  1
 19 18  1  0
 19 15  1  0
 20 18  1  0
 20 22  1  0
 21 20  2  0
M  END
$$$$
