WGE.pdb
     RDKit          3D

 28 29  0  0  1  0  0  0  0  0999 V2000
    7.3997  -17.0866   23.4572 N   0  0  0  0  0  0  0  0  0  0  0  0
    8.2590  -15.9963   23.0674 C   0  0  1  0  0  0  0  0  0  0  0  0
    8.7685  -15.1640   24.1936 C   0  0  0  0  0  0  0  0  0  0  0  0
    7.6593  -14.7979   25.1018 C   0  0  0  0  0  0  0  0  0  0  0  0
    6.6278  -15.5412   25.6285 C   0  0  0  0  0  0  0  0  0  0  0  0
    5.8775  -14.7257   26.4002 N   0  0  0  0  0  0  0  0  0  0  0  0
    6.3990  -13.4948   26.3791 C   0  0  0  0  0  0  0  0  0  0  0  0
    6.0087  -12.3071   27.0000 C   0  0  0  0  0  0  0  0  0  0  0  0
    6.7545  -11.1681   26.7933 C   0  0  0  0  0  0  0  0  0  0  0  0
    7.8802  -11.1491   25.9915 C   0  0  0  0  0  0  0  0  0  0  0  0
    8.2537  -12.3323   25.3830 C   0  0  0  0  0  0  0  0  0  0  0  0
    7.5179  -13.4829   25.5797 C   0  0  0  0  0  0  0  0  0  0  0  0
    9.3263  -16.4395   22.1530 C   0  0  0  0  0  0  0  0  0  0  0  0
   10.1035  -15.5324   21.6868 O   0  0  0  0  0  0  0  0  0  0  0  0
    9.5082  -17.7821   21.7892 N   0  0  0  0  0  0  0  0  0  0  0  0
   10.5225  -18.1367   20.8371 C   0  0  0  0  0  0  0  0  0  0  0  0
   11.8034  -18.3501   21.5808 C   0  0  0  0  0  0  0  0  0  0  0  0
   12.7548  -19.0326   21.1137 O   0  0  0  0  0  0  0  0  0  0  0  0
   12.0124  -17.7836   22.8697 N   0  0  0  0  0  0  0  0  0  0  0  0
   13.2847  -18.0148   23.6132 C   0  0  1  0  0  0  0  0  0  0  0  0
   14.1338  -16.8175   23.3532 C   0  0  0  0  0  0  0  0  0  0  0  0
   15.5715  -17.1355   23.1419 C   0  0  0  0  0  0  0  0  0  0  0  0
   16.4455  -15.9879   22.8967 C   0  0  0  0  0  0  0  0  0  0  0  0
   16.6193  -15.6134   21.6831 O   0  0  0  0  0  0  0  0  0  0  0  0
   13.0660  -18.3132   25.0159 C   0  0  0  0  0  0  0  0  0  0  0  0
   13.9524  -19.0221   25.8313 O   0  0  0  0  0  0  0  0  0  0  0  0
   17.1086  -15.2633   23.8684 O   0  0  0  0  0  0  0  0  0  0  0  0
   11.9929  -17.9224   25.5665 O   0  0  0  0  0  0  0  0  0  0  0  0
  2 13  1  0
  2  3  1  0
  2  1  1  1
  4  3  1  0
  4 12  1  0
  5  4  2  0
  6  5  1  0
  6  7  1  0
  7  8  1  0
  7 12  2  0
  8  9  2  0
  9 10  1  0
 11 10  2  0
 12 11  1  0
 13 14  2  0
 15 16  1  0
 15 13  1  0
 17 16  1  0
 18 17  2  0
 19 17  1  0
 20 21  1  1
 20 19  1  0
 21 22  1  0
 23 22  1  0
 23 24  2  0
 25 20  1  0
 26 25  1  0
 27 23  1  0
 28 25  2  0
M  END
$$$$
