WGE.pdb
     RDKit          3D

 28 29  0  0  1  0  0  0  0  0999 V2000
    9.9373  -14.9308   24.0653 N   0  0  0  0  0  0  0  0  0  0  0  0
    8.8423  -15.8497   24.2536 C   0  0  1  0  0  0  0  0  0  0  0  0
    7.5752  -15.4662   23.5696 C   0  0  0  0  0  0  0  0  0  0  0  0
    7.4066  -13.9965   23.5916 C   0  0  0  0  0  0  0  0  0  0  0  0
    7.6196  -13.0388   22.6265 C   0  0  0  0  0  0  0  0  0  0  0  0
    7.3194  -11.8350   23.1597 N   0  0  0  0  0  0  0  0  0  0  0  0
    6.9244  -11.9993   24.4264 C   0  0  0  0  0  0  0  0  0  0  0  0
    6.5113  -11.0872   25.3990 C   0  0  0  0  0  0  0  0  0  0  0  0
    6.1539  -11.5537   26.6443 C   0  0  0  0  0  0  0  0  0  0  0  0
    6.1872  -12.8951   26.9760 C   0  0  0  0  0  0  0  0  0  0  0  0
    6.5990  -13.7858   26.0030 C   0  0  0  0  0  0  0  0  0  0  0  0
    6.9603  -13.3354   24.7499 C   0  0  0  0  0  0  0  0  0  0  0  0
    9.2422  -17.2419   23.9822 C   0  0  0  0  0  0  0  0  0  0  0  0
    8.2990  -18.1008   23.8526 O   0  0  0  0  0  0  0  0  0  0  0  0
   10.5823  -17.6404   23.8670 N   0  0  0  0  0  0  0  0  0  0  0  0
   10.9079  -19.0312   23.7238 C   0  0  0  0  0  0  0  0  0  0  0  0
   12.3903  -19.1461   23.5542 C   0  0  0  0  0  0  0  0  0  0  0  0
   12.9307  -20.0954   22.9249 O   0  0  0  0  0  0  0  0  0  0  0  0
   13.2741  -18.1745   24.1026 N   0  0  0  0  0  0  0  0  0  0  0  0
   14.3538  -17.5640   23.2742 C   0  0  1  0  0  0  0  0  0  0  0  0
   13.6613  -16.7526   22.2329 C   0  0  0  0  0  0  0  0  0  0  0  0
   14.5868  -15.9961   21.3475 C   0  0  0  0  0  0  0  0  0  0  0  0
   13.9557  -15.2580   20.2529 C   0  0  0  0  0  0  0  0  0  0  0  0
   12.7729  -15.6030   19.8991 O   0  0  0  0  0  0  0  0  0  0  0  0
   15.3235  -16.8345   24.0694 C   0  0  0  0  0  0  0  0  0  0  0  0
   15.2126  -16.5898   25.4409 O   0  0  0  0  0  0  0  0  0  0  0  0
   14.5280  -14.2099   19.5581 O   0  0  0  0  0  0  0  0  0  0  0  0
   16.3536  -16.3629   23.5003 O   0  0  0  0  0  0  0  0  0  0  0  0
  2 13  1  0
  2  3  1  0
  2  1  1  6
  4  3  1  0
  4 12  1  0
  5  4  2  0
  6  5  1  0
  6  7  1  0
  7  8  1  0
  7 12  2  0
  8  9  2  0
  9 10  1  0
 11 10  2  0
 12 11  1  0
 13 14  2  0
 15 16  1  0
 15 13  1  0
 17 16  1  0
 18 17  2  0
 19 17  1  0
 20 21  1  6
 20 19  1  0
 21 22  1  0
 23 22  1  0
 23 24  2  0
 25 20  1  0
 26 25  1  0
 27 23  1  0
 28 25  2  0
M  END
$$$$
