WGE.pdb
     RDKit          3D

 28 29  0  0  1  0  0  0  0  0999 V2000
    6.3125  -17.5901   25.2108 N   0  0  0  0  0  0  0  0  0  0  0  0
    6.9742  -17.2304   23.9812 C   0  0  1  0  0  0  0  0  0  0  0  0
    7.6964  -15.9274   24.0139 C   0  0  0  0  0  0  0  0  0  0  0  0
    6.9583  -14.9542   24.8488 C   0  0  0  0  0  0  0  0  0  0  0  0
    5.6105  -14.7309   25.0145 C   0  0  0  0  0  0  0  0  0  0  0  0
    5.4604  -13.7143   25.8905 N   0  0  0  0  0  0  0  0  0  0  0  0
    6.6653  -13.2886   26.2834 C   0  0  0  0  0  0  0  0  0  0  0  0
    7.0545  -12.2789   27.1652 C   0  0  0  0  0  0  0  0  0  0  0  0
    8.3969  -12.0616   27.3823 C   0  0  0  0  0  0  0  0  0  0  0  0
    9.3828  -12.8041   26.7602 C   0  0  0  0  0  0  0  0  0  0  0  0
    8.9820  -13.7996   25.8894 C   0  0  0  0  0  0  0  0  0  0  0  0
    7.6412  -14.0310   25.6607 C   0  0  0  0  0  0  0  0  0  0  0  0
    7.8029  -18.3328   23.4619 C   0  0  0  0  0  0  0  0  0  0  0  0
    8.4163  -18.1250   22.3552 O   0  0  0  0  0  0  0  0  0  0  0  0
    7.9336  -19.5634   24.1226 N   0  0  0  0  0  0  0  0  0  0  0  0
    8.7919  -20.5801   23.5834 C   0  0  0  0  0  0  0  0  0  0  0  0
   10.2087  -20.1284   23.7505 C   0  0  0  0  0  0  0  0  0  0  0  0
   11.0447  -20.1504   22.8071 O   0  0  0  0  0  0  0  0  0  0  0  0
   10.6873  -19.6444   25.0005 N   0  0  0  0  0  0  0  0  0  0  0  0
   12.0930  -19.1698   25.1531 C   0  0  1  0  0  0  0  0  0  0  0  0
   12.4144  -18.4323   23.8981 C   0  0  0  0  0  0  0  0  0  0  0  0
   13.4479  -17.3763   24.0702 C   0  0  0  0  0  0  0  0  0  0  0  0
   13.8938  -16.7190   22.8413 C   0  0  0  0  0  0  0  0  0  0  0  0
   15.0201  -17.0755   22.3438 O   0  0  0  0  0  0  0  0  0  0  0  0
   12.2980  -18.4128   26.3736 C   0  0  0  0  0  0  0  0  0  0  0  0
   11.2774  -17.9309   27.1977 O   0  0  0  0  0  0  0  0  0  0  0  0
   13.2007  -15.7362   22.1612 O   0  0  0  0  0  0  0  0  0  0  0  0
   13.4823  -18.1448   26.7379 O   0  0  0  0  0  0  0  0  0  0  0  0
  2 13  1  0
  2  3  1  0
  2  1  1  1
  4  3  1  0
  4 12  1  0
  5  4  2  0
  6  5  1  0
  6  7  1  0
  7  8  1  0
  7 12  2  0
  8  9  2  0
  9 10  1  0
 11 10  2  0
 12 11  1  0
 13 14  2  0
 15 16  1  0
 15 13  1  0
 17 16  1  0
 18 17  2  0
 19 17  1  0
 20 21  1  6
 20 19  1  0
 21 22  1  0
 23 22  1  0
 23 24  2  0
 25 20  1  0
 26 25  1  0
 27 23  1  0
 28 25  2  0
M  END
$$$$
