WGE.pdb
     RDKit          3D

 28 29  0  0  1  0  0  0  0  0999 V2000
    7.6098  -17.2685   21.4489 N   0  0  0  0  0  0  0  0  0  0  0  0
    8.5105  -17.1331   22.5667 C   0  0  1  0  0  0  0  0  0  0  0  0
    9.1351  -15.7879   22.7113 C   0  0  0  0  0  0  0  0  0  0  0  0
    8.1128  -14.7298   22.5553 C   0  0  0  0  0  0  0  0  0  0  0  0
    7.1088  -14.3000   23.3927 C   0  0  0  0  0  0  0  0  0  0  0  0
    6.4444  -13.3028   22.7702 N   0  0  0  0  0  0  0  0  0  0  0  0
    6.9935  -13.0882   21.5702 C   0  0  0  0  0  0  0  0  0  0  0  0
    6.6849  -12.1833   20.5531 C   0  0  0  0  0  0  0  0  0  0  0  0
    7.4401  -12.1887   19.4016 C   0  0  0  0  0  0  0  0  0  0  0  0
    8.4973  -13.0576   19.2071 C   0  0  0  0  0  0  0  0  0  0  0  0
    8.7901  -13.9480   20.2226 C   0  0  0  0  0  0  0  0  0  0  0  0
    8.0439  -13.9558   21.3831 C   0  0  0  0  0  0  0  0  0  0  0  0
    7.9078  -17.6233   23.8189 C   0  0  0  0  0  0  0  0  0  0  0  0
    6.6532  -17.4126   23.9794 O   0  0  0  0  0  0  0  0  0  0  0  0
    8.6450  -18.2908   24.8084 N   0  0  0  0  0  0  0  0  0  0  0  0
    7.9758  -18.8438   25.9518 C   0  0  0  0  0  0  0  0  0  0  0  0
    9.0108  -19.4445   26.8502 C   0  0  0  0  0  0  0  0  0  0  0  0
    8.7280  -19.9497   27.9701 O   0  0  0  0  0  0  0  0  0  0  0  0
   10.3842  -19.4755   26.4778 N   0  0  0  0  0  0  0  0  0  0  0  0
   11.4472  -19.7569   27.4856 C   0  0  1  0  0  0  0  0  0  0  0  0
   12.7432  -19.4931   26.7978 C   0  0  0  0  0  0  0  0  0  0  0  0
   12.7690  -18.2164   26.0349 C   0  0  0  0  0  0  0  0  0  0  0  0
   13.5979  -18.2147   24.8291 C   0  0  0  0  0  0  0  0  0  0  0  0
   14.2067  -19.2987   24.5170 O   0  0  0  0  0  0  0  0  0  0  0  0
   11.2536  -19.0230   28.7219 C   0  0  0  0  0  0  0  0  0  0  0  0
   10.3006  -18.0195   28.9165 O   0  0  0  0  0  0  0  0  0  0  0  0
   13.7854  -17.1357   23.9868 O   0  0  0  0  0  0  0  0  0  0  0  0
   11.9990  -19.2840   29.7136 O   0  0  0  0  0  0  0  0  0  0  0  0
  2 13  1  0
  2  3  1  0
  2  1  1  6
  4  3  1  0
  4 12  1  0
  5  4  2  0
  6  5  1  0
  6  7  1  0
  7  8  1  0
  7 12  2  0
  8  9  2  0
  9 10  1  0
 11 10  2  0
 12 11  1  0
 13 14  2  0
 15 16  1  0
 15 13  1  0
 17 16  1  0
 18 17  2  0
 19 17  1  0
 20 21  1  6
 20 19  1  0
 21 22  1  0
 23 22  1  0
 23 24  2  0
 25 20  1  0
 26 25  1  0
 27 23  1  0
 28 25  2  0
M  END
$$$$
