WGE.pdb
     RDKit          3D

 28 29  0  0  1  0  0  0  0  0999 V2000
    8.9712  -15.9419   23.1844 N   0  0  0  0  0  0  0  0  0  0  0  0
    8.0841  -15.1983   22.3248 C   0  0  1  0  0  0  0  0  0  0  0  0
    7.4111  -14.0361   22.9704 C   0  0  0  0  0  0  0  0  0  0  0  0
    7.1756  -14.3132   24.4046 C   0  0  0  0  0  0  0  0  0  0  0  0
    6.9066  -15.4842   25.0758 C   0  0  0  0  0  0  0  0  0  0  0  0
    6.7672  -15.1913   26.3866 N   0  0  0  0  0  0  0  0  0  0  0  0
    6.9389  -13.8776   26.5661 C   0  0  0  0  0  0  0  0  0  0  0  0
    6.8986  -13.0809   27.7117 C   0  0  0  0  0  0  0  0  0  0  0  0
    7.1192  -11.7269   27.5925 C   0  0  0  0  0  0  0  0  0  0  0  0
    7.3799  -11.1177   26.3796 C   0  0  0  0  0  0  0  0  0  0  0  0
    7.4159  -11.9192   25.2544 C   0  0  0  0  0  0  0  0  0  0  0  0
    7.1974  -13.2778   25.3559 C   0  0  0  0  0  0  0  0  0  0  0  0
    8.7251  -14.8512   21.0441 C   0  0  0  0  0  0  0  0  0  0  0  0
    9.9102  -14.3651   21.1023 O   0  0  0  0  0  0  0  0  0  0  0  0
    8.0945  -15.0305   19.8038 N   0  0  0  0  0  0  0  0  0  0  0  0
    8.7551  -14.6213   18.5967 C   0  0  0  0  0  0  0  0  0  0  0  0
    9.7675  -15.6655   18.2444 C   0  0  0  0  0  0  0  0  0  0  0  0
    9.6295  -16.4410   17.2601 O   0  0  0  0  0  0  0  0  0  0  0  0
   10.9524  -15.8351   19.0144 N   0  0  0  0  0  0  0  0  0  0  0  0
   11.8911  -16.9617   18.7414 C   0  0  1  0  0  0  0  0  0  0  0  0
   13.0949  -16.3478   18.1120 C   0  0  0  0  0  0  0  0  0  0  0  0
   13.2980  -14.9189   18.4722 C   0  0  0  0  0  0  0  0  0  0  0  0
   14.5310  -14.3083   17.9740 C   0  0  0  0  0  0  0  0  0  0  0  0
   14.6088  -13.0288   17.9701 O   0  0  0  0  0  0  0  0  0  0  0  0
   12.1618  -17.7619   19.9208 C   0  0  0  0  0  0  0  0  0  0  0  0
   11.6597  -17.5001   21.1985 O   0  0  0  0  0  0  0  0  0  0  0  0
   15.6319  -14.9962   17.5013 O   0  0  0  0  0  0  0  0  0  0  0  0
   12.9168  -18.7748   19.8151 O   0  0  0  0  0  0  0  0  0  0  0  0
  2 13  1  0
  2  3  1  0
  2  1  1  1
  4  3  1  0
  4 12  1  0
  5  4  2  0
  6  5  1  0
  6  7  1  0
  7  8  1  0
  7 12  2  0
  8  9  2  0
  9 10  1  0
 11 10  2  0
 12 11  1  0
 13 14  2  0
 15 16  1  0
 15 13  1  0
 17 16  1  0
 18 17  2  0
 19 17  1  0
 20 21  1  1
 20 19  1  0
 21 22  1  0
 23 22  1  0
 23 24  2  0
 25 20  1  0
 26 25  1  0
 27 23  1  0
 28 25  2  0
M  END
$$$$
