WGE.pdb
     RDKit          3D

 28 29  0  0  1  0  0  0  0  0999 V2000
    6.7081  -16.9571   23.0626 N   0  0  0  0  0  0  0  0  0  0  0  0
    7.8902  -16.1683   22.8186 C   0  0  1  0  0  0  0  0  0  0  0  0
    8.4903  -15.5435   24.0311 C   0  0  0  0  0  0  0  0  0  0  0  0
    7.4275  -15.0067   24.9092 C   0  0  0  0  0  0  0  0  0  0  0  0
    6.2910  -15.5860   25.4258 C   0  0  0  0  0  0  0  0  0  0  0  0
    5.6498  -14.6578   26.1678 N   0  0  0  0  0  0  0  0  0  0  0  0
    6.3413  -13.5139   26.1380 C   0  0  0  0  0  0  0  0  0  0  0  0
    6.1120  -12.2711   26.7309 C   0  0  0  0  0  0  0  0  0  0  0  0
    7.0159  -11.2535   26.5217 C   0  0  0  0  0  0  0  0  0  0  0  0
    8.1478  -11.4097   25.7440 C   0  0  0  0  0  0  0  0  0  0  0  0
    8.3608  -12.6453   25.1630 C   0  0  0  0  0  0  0  0  0  0  0  0
    7.4654  -13.6760   25.3626 C   0  0  0  0  0  0  0  0  0  0  0  0
    8.8762  -16.8969   22.0009 C   0  0  0  0  0  0  0  0  0  0  0  0
    8.4462  -17.9066   21.3378 O   0  0  0  0  0  0  0  0  0  0  0  0
   10.2282  -16.5291   21.9317 N   0  0  0  0  0  0  0  0  0  0  0  0
   10.9653  -16.7291   20.7160 C   0  0  0  0  0  0  0  0  0  0  0  0
   12.2572  -15.9822   20.8279 C   0  0  0  0  0  0  0  0  0  0  0  0
   13.1331  -16.0000   19.9214 O   0  0  0  0  0  0  0  0  0  0  0  0
   12.5631  -15.2038   21.9795 N   0  0  0  0  0  0  0  0  0  0  0  0
   13.7662  -15.5005   22.8098 C   0  0  1  0  0  0  0  0  0  0  0  0
   13.2530  -15.8371   24.1682 C   0  0  0  0  0  0  0  0  0  0  0  0
   12.9482  -17.2812   24.3541 C   0  0  0  0  0  0  0  0  0  0  0  0
   12.5384  -17.6745   25.7026 C   0  0  0  0  0  0  0  0  0  0  0  0
   13.1795  -18.6277   26.2714 O   0  0  0  0  0  0  0  0  0  0  0  0
   14.6209  -16.5102   22.2144 C   0  0  0  0  0  0  0  0  0  0  0  0
   14.1839  -17.7486   21.7364 O   0  0  0  0  0  0  0  0  0  0  0  0
   11.5094  -17.1033   26.4262 O   0  0  0  0  0  0  0  0  0  0  0  0
   15.8643  -16.2824   22.1179 O   0  0  0  0  0  0  0  0  0  0  0  0
  2 13  1  0
  2  3  1  0
  2  1  1  1
  4  3  1  0
  4 12  1  0
  5  4  2  0
  6  5  1  0
  6  7  1  0
  7  8  1  0
  7 12  2  0
  8  9  2  0
  9 10  1  0
 11 10  2  0
 12 11  1  0
 13 14  2  0
 15 16  1  0
 15 13  1  0
 17 16  1  0
 18 17  2  0
 19 17  1  0
 20 21  1  1
 20 19  1  0
 21 22  1  0
 23 22  1  0
 23 24  2  0
 25 20  1  0
 26 25  1  0
 27 23  1  0
 28 25  2  0
M  END
$$$$
