WGE.pdb
     RDKit          3D

 28 29  0  0  1  0  0  0  0  0999 V2000
    8.1312  -17.7388   24.3266 N   0  0  0  0  0  0  0  0  0  0  0  0
    7.9478  -16.6754   23.3703 C   0  0  1  0  0  0  0  0  0  0  0  0
    8.3760  -15.3274   23.8395 C   0  0  0  0  0  0  0  0  0  0  0  0
    7.4844  -14.8553   24.9218 C   0  0  0  0  0  0  0  0  0  0  0  0
    6.5203  -15.5046   25.6585 C   0  0  0  0  0  0  0  0  0  0  0  0
    5.9862  -14.6152   26.5229 N   0  0  0  0  0  0  0  0  0  0  0  0
    6.5791  -13.4283   26.3578 C   0  0  0  0  0  0  0  0  0  0  0  0
    6.3954  -12.1990   26.9931 C   0  0  0  0  0  0  0  0  0  0  0  0
    7.1670  -11.1254   26.6078 C   0  0  0  0  0  0  0  0  0  0  0  0
    8.1215  -11.2122   25.6119 C   0  0  0  0  0  0  0  0  0  0  0  0
    8.2913  -12.4355   24.9917 C   0  0  0  0  0  0  0  0  0  0  0  0
    7.5269  -13.5216   25.3657 C   0  0  0  0  0  0  0  0  0  0  0  0
    8.4993  -17.0249   22.0492 C   0  0  0  0  0  0  0  0  0  0  0  0
    8.9472  -18.2178   21.9055 O   0  0  0  0  0  0  0  0  0  0  0  0
    8.5476  -16.1178   20.9802 N   0  0  0  0  0  0  0  0  0  0  0  0
    8.9436  -16.5665   19.6753 C   0  0  0  0  0  0  0  0  0  0  0  0
   10.4387  -16.6131   19.6340 C   0  0  0  0  0  0  0  0  0  0  0  0
   11.0844  -16.7700   18.5626 O   0  0  0  0  0  0  0  0  0  0  0  0
   11.2150  -16.4799   20.8195 N   0  0  0  0  0  0  0  0  0  0  0  0
   12.7045  -16.4290   20.7606 C   0  0  1  0  0  0  0  0  0  0  0  0
   13.1468  -15.8686   22.0692 C   0  0  0  0  0  0  0  0  0  0  0  0
   12.4618  -16.4728   23.2433 C   0  0  0  0  0  0  0  0  0  0  0  0
   12.9404  -16.0307   24.5536 C   0  0  0  0  0  0  0  0  0  0  0  0
   13.9267  -15.2126   24.5883 O   0  0  0  0  0  0  0  0  0  0  0  0
   13.2943  -17.7087   20.4157 C   0  0  0  0  0  0  0  0  0  0  0  0
   14.6191  -17.8970   20.0122 O   0  0  0  0  0  0  0  0  0  0  0  0
   12.4179  -16.4214   25.7714 O   0  0  0  0  0  0  0  0  0  0  0  0
   12.5730  -18.7501   20.4650 O   0  0  0  0  0  0  0  0  0  0  0  0
  2 13  1  0
  2  3  1  0
  2  1  1  1
  4  3  1  0
  4 12  1  0
  5  4  2  0
  6  5  1  0
  6  7  1  0
  7  8  1  0
  7 12  2  0
  8  9  2  0
  9 10  1  0
 11 10  2  0
 12 11  1  0
 13 14  2  0
 15 16  1  0
 15 13  1  0
 17 16  1  0
 18 17  2  0
 19 17  1  0
 20 21  1  1
 20 19  1  0
 21 22  1  0
 23 22  1  0
 23 24  2  0
 25 20  1  0
 26 25  1  0
 27 23  1  0
 28 25  2  0
M  END
$$$$
