HCR.pdb
     RDKit          3D

 28 28  0  0  1  0  0  0  0  0999 V2000
   27.9283  -23.2433  -16.8640 N   0  0  0  0  0  0  0  0  0  0  0  0
   28.2977  -22.4778  -18.0186 C   0  0  1  0  0  0  0  0  0  0  0  0
   27.7985  -23.0761  -19.3092 C   0  0  0  0  0  0  0  0  0  0  0  0
   28.3882  -24.3768  -19.6187 C   0  0  0  0  0  0  0  0  0  0  0  0
   29.7304  -24.6507  -19.7838 C   0  0  0  0  0  0  0  0  0  0  0  0
   29.8462  -25.9659  -20.0559 N   0  0  0  0  0  0  0  0  0  0  0  0
   28.6381  -26.5279  -20.0687 C   0  0  0  0  0  0  0  0  0  0  0  0
   27.7540  -25.5481  -19.8004 N   0  0  0  0  0  0  0  0  0  0  0  0
   27.7361  -21.1043  -17.8263 C   0  0  0  0  0  0  0  0  0  0  0  0
   26.7915  -20.9081  -17.0197 O   0  0  0  0  0  0  0  0  0  0  0  0
   28.2308  -19.9734  -18.5306 N   0  0  0  0  0  0  0  0  0  0  0  0
   27.7624  -18.6211  -18.2514 C   0  0  1  0  0  0  0  0  0  0  0  0
   28.8890  -17.6559  -18.5796 C   0  0  0  0  0  0  0  0  0  0  0  0
   28.3030  -15.9565  -18.3131 S   0  0  0  0  0  0  0  0  0  0  0  0
   26.5500  -18.3210  -19.0330 C   0  0  0  0  0  0  0  0  0  0  0  0
   26.4985  -18.6660  -20.2358 O   0  0  0  0  0  0  0  0  0  0  0  0
   19.4429  -15.2660  -18.7608 N   0  0  0  0  0  0  0  0  0  0  0  0
   18.7385  -16.4624  -19.0272 C   0  0  0  0  0  0  0  0  0  0  0  0
   17.6144  -16.3928  -19.6371 N   0  0  0  0  0  0  0  0  0  0  0  0
   19.2944  -17.7127  -18.6118 N   0  0  0  0  0  0  0  0  0  0  0  0
   20.5514  -17.7016  -17.8907 C   0  0  0  0  0  0  0  0  0  0  0  0
   21.7083  -17.4687  -18.8352 C   0  0  0  0  0  0  0  0  0  0  0  0
   23.0362  -17.5933  -18.1823 C   0  0  0  0  0  0  0  0  0  0  0  0
   24.1978  -17.4040  -19.1296 C   0  0  2  0  0  0  0  0  0  0  0  0
   25.4547  -17.6565  -18.4529 N   0  0  0  0  0  0  0  0  0  0  0  0
   24.2490  -16.0992  -19.7712 C   0  0  0  0  0  0  0  0  0  0  0  0
   24.9429  -15.1627  -19.3017 O   0  0  0  0  0  0  0  0  0  0  0  0
   23.5261  -15.8573  -20.9269 O   0  0  0  0  0  0  0  0  0  0  0  0
  2  1  1  1
  2  9  1  0
  3  2  1  0
  4  3  1  0
  4  5  2  0
  6  5  1  0
  7  6  1  0
  8  7  2  0
  8  4  1  0
  9 10  2  0
 11 12  1  0
 11  9  1  0
 12 15  1  0
 12 13  1  6
 14 13  1  0
 15 16  2  0
 18 17  1  0
 19 18  2  0
 20 18  1  0
 21 20  1  0
 22 21  1  0
 23 22  1  0
 24 23  1  1
 24 26  1  0
 25 15  1  0
 25 24  1  0
 26 27  2  0
 26 28  1  0
M  END
$$$$
