HCR.pdb
     RDKit          3D

 28 28  0  0  1  0  0  0  0  0999 V2000
   23.7084  -21.0688  -13.0898 N   0  0  0  0  0  0  0  0  0  0  0  0
   24.6583  -19.9951  -13.1116 C   0  0  1  0  0  0  0  0  0  0  0  0
   25.9074  -20.2945  -12.3223 C   0  0  0  0  0  0  0  0  0  0  0  0
   25.6452  -20.7129  -10.9470 C   0  0  0  0  0  0  0  0  0  0  0  0
   24.4072  -20.8544  -10.3544 C   0  0  0  0  0  0  0  0  0  0  0  0
   24.6086  -21.2577   -9.0839 N   0  0  0  0  0  0  0  0  0  0  0  0
   25.9158  -21.3751   -8.8540 C   0  0  0  0  0  0  0  0  0  0  0  0
   26.5405  -21.0399   -9.9990 N   0  0  0  0  0  0  0  0  0  0  0  0
   24.9943  -19.7423  -14.5477 C   0  0  0  0  0  0  0  0  0  0  0  0
   24.6934  -20.5848  -15.4315 O   0  0  0  0  0  0  0  0  0  0  0  0
   25.6571  -18.5613  -14.9785 N   0  0  0  0  0  0  0  0  0  0  0  0
   25.7993  -18.2240  -16.3900 C   0  0  1  0  0  0  0  0  0  0  0  0
   25.3744  -16.7768  -16.5729 C   0  0  0  0  0  0  0  0  0  0  0  0
   26.0036  -15.7988  -15.1765 S   0  0  0  0  0  0  0  0  0  0  0  0
   27.1866  -18.4396  -16.8370 C   0  0  0  0  0  0  0  0  0  0  0  0
   28.1293  -18.0567  -16.1069 O   0  0  0  0  0  0  0  0  0  0  0  0
   31.5828  -24.8508  -17.9823 N   0  0  0  0  0  0  0  0  0  0  0  0
   30.7166  -24.6914  -16.8766 C   0  0  0  0  0  0  0  0  0  0  0  0
   30.6450  -25.6314  -16.0095 N   0  0  0  0  0  0  0  0  0  0  0  0
   29.9466  -23.4927  -16.7540 N   0  0  0  0  0  0  0  0  0  0  0  0
   29.4756  -22.8502  -17.9646 C   0  0  0  0  0  0  0  0  0  0  0  0
   28.7166  -21.5845  -17.6383 C   0  0  0  0  0  0  0  0  0  0  0  0
   29.5215  -20.3505  -17.8241 C   0  0  0  0  0  0  0  0  0  0  0  0
   28.8022  -19.2676  -18.5939 C   0  0  2  0  0  0  0  0  0  0  0  0
   27.4680  -19.0654  -18.0645 N   0  0  0  0  0  0  0  0  0  0  0  0
   28.7225  -19.4961  -20.0286 C   0  0  0  0  0  0  0  0  0  0  0  0
   27.6173  -19.5694  -20.6220 O   0  0  0  0  0  0  0  0  0  0  0  0
   29.8758  -19.6394  -20.7809 O   0  0  0  0  0  0  0  0  0  0  0  0
  2  1  1  6
  2  9  1  0
  3  2  1  0
  4  3  1  0
  4  5  2  0
  6  5  1  0
  7  6  1  0
  8  7  2  0
  8  4  1  0
  9 10  2  0
 11 12  1  0
 11  9  1  0
 12 15  1  0
 12 13  1  1
 14 13  1  0
 15 16  2  0
 18 17  1  0
 19 18  2  0
 20 18  1  0
 21 20  1  0
 22 21  1  0
 23 22  1  0
 24 23  1  1
 24 26  1  0
 25 15  1  0
 25 24  1  0
 26 27  2  0
 26 28  1  0
M  END
$$$$
