HCR.pdb
     RDKit          3D

 28 28  0  0  1  0  0  0  0  0999 V2000
   27.5999  -21.5195  -16.2251 N   0  0  0  0  0  0  0  0  0  0  0  0
   27.3762  -20.5133  -15.2286 C   0  0  1  0  0  0  0  0  0  0  0  0
   26.7926  -19.2425  -15.7922 C   0  0  0  0  0  0  0  0  0  0  0  0
   27.7218  -18.4952  -16.6366 C   0  0  0  0  0  0  0  0  0  0  0  0
   27.5907  -18.2563  -17.9893 C   0  0  0  0  0  0  0  0  0  0  0  0
   28.6584  -17.5317  -18.3793 N   0  0  0  0  0  0  0  0  0  0  0  0
   29.4520  -17.3060  -17.3330 C   0  0  0  0  0  0  0  0  0  0  0  0
   28.8706  -17.8990  -16.2729 N   0  0  0  0  0  0  0  0  0  0  0  0
   26.4534  -21.1075  -14.2116 C   0  0  0  0  0  0  0  0  0  0  0  0
   25.4554  -21.7823  -14.5723 O   0  0  0  0  0  0  0  0  0  0  0  0
   26.6526  -20.9434  -12.8141 N   0  0  0  0  0  0  0  0  0  0  0  0
   25.6407  -21.3275  -11.8370 C   0  0  1  0  0  0  0  0  0  0  0  0
   26.2177  -21.1035  -10.4494 C   0  0  0  0  0  0  0  0  0  0  0  0
   24.8963  -21.3223   -9.2213 S   0  0  0  0  0  0  0  0  0  0  0  0
   24.4046  -20.5516  -12.0390 C   0  0  0  0  0  0  0  0  0  0  0  0
   24.4503  -19.3020  -11.9694 O   0  0  0  0  0  0  0  0  0  0  0  0
   19.6944  -18.1370  -17.8792 N   0  0  0  0  0  0  0  0  0  0  0  0
   21.0682  -17.8041  -17.8831 C   0  0  0  0  0  0  0  0  0  0  0  0
   21.4634  -16.8270  -18.6110 N   0  0  0  0  0  0  0  0  0  0  0  0
   21.9772  -18.5614  -17.0800 N   0  0  0  0  0  0  0  0  0  0  0  0
   21.4452  -19.6340  -16.2635 C   0  0  0  0  0  0  0  0  0  0  0  0
   21.9670  -19.5387  -14.8481 C   0  0  0  0  0  0  0  0  0  0  0  0
   21.4885  -20.6355  -13.9687 C   0  0  0  0  0  0  0  0  0  0  0  0
   21.9270  -20.4940  -12.5299 C   0  0  2  0  0  0  0  0  0  0  0  0
   23.1798  -21.1885  -12.3075 N   0  0  0  0  0  0  0  0  0  0  0  0
   20.9472  -20.9415  -11.5518 C   0  0  0  0  0  0  0  0  0  0  0  0
   21.0712  -22.0386  -10.9519 O   0  0  0  0  0  0  0  0  0  0  0  0
   19.8435  -20.1595  -11.2567 O   0  0  0  0  0  0  0  0  0  0  0  0
  2  1  1  6
  2  9  1  0
  3  2  1  0
  4  3  1  0
  4  5  2  0
  6  5  1  0
  7  6  1  0
  8  7  2  0
  8  4  1  0
  9 10  2  0
 11 12  1  0
 11  9  1  0
 12 15  1  0
 12 13  1  1
 14 13  1  0
 15 16  2  0
 18 17  1  0
 19 18  2  0
 20 18  1  0
 21 20  1  0
 22 21  1  0
 23 22  1  0
 24 23  1  6
 24 26  1  0
 25 15  1  0
 25 24  1  0
 26 27  2  0
 26 28  1  0
M  END
$$$$
