HCR.pdb
     RDKit          3D

 28 28  0  0  1  0  0  0  0  0999 V2000
   21.3713  -14.0159  -18.3880 N   0  0  0  0  0  0  0  0  0  0  0  0
   20.4821  -13.9487  -17.2654 C   0  0  1  0  0  0  0  0  0  0  0  0
   20.4637  -15.2159  -16.4488 C   0  0  0  0  0  0  0  0  0  0  0  0
   19.9881  -16.3828  -17.1887 C   0  0  0  0  0  0  0  0  0  0  0  0
   18.6991  -16.8750  -17.2043 C   0  0  0  0  0  0  0  0  0  0  0  0
   18.6870  -17.9566  -18.0088 N   0  0  0  0  0  0  0  0  0  0  0  0
   19.9091  -18.1641  -18.4975 C   0  0  0  0  0  0  0  0  0  0  0  0
   20.6968  -17.1968  -17.9902 N   0  0  0  0  0  0  0  0  0  0  0  0
   20.9282  -12.7921  -16.4273 C   0  0  0  0  0  0  0  0  0  0  0  0
   20.3259  -12.5066  -15.3610 O   0  0  0  0  0  0  0  0  0  0  0  0
   22.0331  -11.9731  -16.7855 N   0  0  0  0  0  0  0  0  0  0  0  0
   22.4453  -10.8316  -15.9772 C   0  0  1  0  0  0  0  0  0  0  0  0
   23.9173  -10.5704  -16.2483 C   0  0  0  0  0  0  0  0  0  0  0  0
   24.9103  -11.7469  -15.2830 S   0  0  0  0  0  0  0  0  0  0  0  0
   21.6213   -9.6509  -16.2898 C   0  0  0  0  0  0  0  0  0  0  0  0
   21.4304   -9.3399  -17.4878 O   0  0  0  0  0  0  0  0  0  0  0  0
   13.9037   -6.6589  -14.0977 N   0  0  0  0  0  0  0  0  0  0  0  0
   14.4794   -5.5241  -14.7133 C   0  0  0  0  0  0  0  0  0  0  0  0
   13.7228   -4.5348  -15.0121 N   0  0  0  0  0  0  0  0  0  0  0  0
   15.8831   -5.5084  -14.9858 N   0  0  0  0  0  0  0  0  0  0  0  0
   16.6573   -6.6942  -14.6781 C   0  0  0  0  0  0  0  0  0  0  0  0
   18.0823   -6.5429  -15.1591 C   0  0  0  0  0  0  0  0  0  0  0  0
   18.9127   -7.7527  -14.9309 C   0  0  0  0  0  0  0  0  0  0  0  0
   20.3108   -7.6433  -15.4930 C   0  0  2  0  0  0  0  0  0  0  0  0
   21.0483   -8.8711  -15.2694 N   0  0  0  0  0  0  0  0  0  0  0  0
   21.0811   -6.5185  -14.9849 C   0  0  0  0  0  0  0  0  0  0  0  0
   20.9902   -5.3747  -15.4974 O   0  0  0  0  0  0  0  0  0  0  0  0
   21.9414   -6.6848  -13.9131 O   0  0  0  0  0  0  0  0  0  0  0  0
  2  1  1  6
  2  9  1  0
  3  2  1  0
  4  3  1  0
  4  5  2  0
  6  5  1  0
  7  6  1  0
  8  7  2  0
  8  4  1  0
  9 10  2  0
 11 12  1  0
 11  9  1  0
 12 15  1  0
 12 13  1  6
 14 13  1  0
 15 16  2  0
 18 17  1  0
 19 18  2  0
 20 18  1  0
 21 20  1  0
 22 21  1  0
 23 22  1  0
 24 23  1  1
 24 26  1  0
 25 15  1  0
 25 24  1  0
 26 27  2  0
 26 28  1  0
M  END
$$$$
