HCR.pdb
     RDKit          3D

 28 28  0  0  1  0  0  0  0  0999 V2000
   19.3088  -30.1809   -9.1105 N   0  0  0  0  0  0  0  0  0  0  0  0
   19.9260  -28.9694   -9.5649 C   0  0  1  0  0  0  0  0  0  0  0  0
   20.8613  -29.1824  -10.7281 C   0  0  0  0  0  0  0  0  0  0  0  0
   21.9966  -30.0478  -10.4161 C   0  0  0  0  0  0  0  0  0  0  0  0
   23.1854  -29.6627   -9.8309 C   0  0  0  0  0  0  0  0  0  0  0  0
   23.9580  -30.7617   -9.7191 N   0  0  0  0  0  0  0  0  0  0  0  0
   23.3075  -31.8171  -10.2073 C   0  0  0  0  0  0  0  0  0  0  0  0
   22.1098  -31.3701  -10.6307 N   0  0  0  0  0  0  0  0  0  0  0  0
   18.8205  -28.0357   -9.9460 C   0  0  0  0  0  0  0  0  0  0  0  0
   17.6224  -28.4156   -9.9071 O   0  0  0  0  0  0  0  0  0  0  0  0
   19.0622  -26.6988  -10.3631 N   0  0  0  0  0  0  0  0  0  0  0  0
   17.9855  -25.7263  -10.5091 C   0  0  1  0  0  0  0  0  0  0  0  0
   17.3151  -25.5602   -9.1557 C   0  0  0  0  0  0  0  0  0  0  0  0
   18.5941  -25.2674   -7.8985 S   0  0  0  0  0  0  0  0  0  0  0  0
   18.5097  -24.4446  -11.0124 C   0  0  0  0  0  0  0  0  0  0  0  0
   19.3867  -23.8424  -10.3516 O   0  0  0  0  0  0  0  0  0  0  0  0
   22.7986  -23.4626  -16.9482 N   0  0  0  0  0  0  0  0  0  0  0  0
   21.6491  -23.0530  -17.6618 C   0  0  0  0  0  0  0  0  0  0  0  0
   21.6934  -23.0323  -18.9417 N   0  0  0  0  0  0  0  0  0  0  0  0
   20.4729  -22.6743  -16.9421 N   0  0  0  0  0  0  0  0  0  0  0  0
   20.6305  -21.9342  -15.7062 C   0  0  0  0  0  0  0  0  0  0  0  0
   19.2924  -21.7180  -15.0373 C   0  0  0  0  0  0  0  0  0  0  0  0
   18.7913  -22.9181  -14.3206 C   0  0  0  0  0  0  0  0  0  0  0  0
   18.5939  -22.7008  -12.8385 C   0  0  2  0  0  0  0  0  0  0  0  0
   18.0433  -23.8892  -12.2173 N   0  0  0  0  0  0  0  0  0  0  0  0
   17.7672  -21.5524  -12.5001 C   0  0  0  0  0  0  0  0  0  0  0  0
   16.5338  -21.6695  -12.2905 O   0  0  0  0  0  0  0  0  0  0  0  0
   18.3274  -20.2903  -12.4001 O   0  0  0  0  0  0  0  0  0  0  0  0
  2  1  1  6
  2  9  1  0
  3  2  1  0
  4  3  1  0
  4  5  2  0
  6  5  1  0
  7  6  1  0
  8  7  2  0
  8  4  1  0
  9 10  2  0
 11 12  1  0
 11  9  1  0
 12 15  1  0
 12 13  1  1
 14 13  1  0
 15 16  2  0
 18 17  1  0
 19 18  2  0
 20 18  1  0
 21 20  1  0
 22 21  1  0
 23 22  1  0
 24 23  1  6
 24 26  1  0
 25 15  1  0
 25 24  1  0
 26 27  2  0
 26 28  1  0
M  END
$$$$
