HCR.pdb
     RDKit          3D

 28 28  0  0  1  0  0  0  0  0999 V2000
   34.0872  -13.6064  -19.5789 N   0  0  0  0  0  0  0  0  0  0  0  0
   35.0507  -12.6864  -19.0489 C   0  0  1  0  0  0  0  0  0  0  0  0
   35.7333  -11.8662  -20.1140 C   0  0  0  0  0  0  0  0  0  0  0  0
   36.6643  -12.6341  -20.9379 C   0  0  0  0  0  0  0  0  0  0  0  0
   36.3829  -13.2427  -22.1438 C   0  0  0  0  0  0  0  0  0  0  0  0
   37.5128  -13.8416  -22.5702 N   0  0  0  0  0  0  0  0  0  0  0  0
   38.4887  -13.6358  -21.6866 C   0  0  0  0  0  0  0  0  0  0  0  0
   37.9597  -12.8968  -20.6928 N   0  0  0  0  0  0  0  0  0  0  0  0
   34.3211  -11.7980  -18.0911 C   0  0  0  0  0  0  0  0  0  0  0  0
   33.0668  -11.7151  -18.1262 O   0  0  0  0  0  0  0  0  0  0  0  0
   34.9938  -11.0178  -17.1121 N   0  0  0  0  0  0  0  0  0  0  0  0
   34.2792  -10.1211  -16.2112 C   0  0  1  0  0  0  0  0  0  0  0  0
   35.1802   -9.8329  -15.0221 C   0  0  0  0  0  0  0  0  0  0  0  0
   34.3530   -8.6343  -13.9352 S   0  0  0  0  0  0  0  0  0  0  0  0
   33.8954   -8.8822  -16.9101 C   0  0  0  0  0  0  0  0  0  0  0  0
   34.7305   -8.3168  -17.6527 O   0  0  0  0  0  0  0  0  0  0  0  0
   26.0585   -7.4120  -19.5823 N   0  0  0  0  0  0  0  0  0  0  0  0
   27.1654   -8.1728  -20.0232 C   0  0  0  0  0  0  0  0  0  0  0  0
   26.9587   -9.1628  -20.8092 N   0  0  0  0  0  0  0  0  0  0  0  0
   28.4799   -7.8210  -19.5838 N   0  0  0  0  0  0  0  0  0  0  0  0
   28.7200   -6.4583  -19.1528 C   0  0  0  0  0  0  0  0  0  0  0  0
   30.1673   -6.2680  -18.7610 C   0  0  0  0  0  0  0  0  0  0  0  0
   30.7204   -7.4033  -17.9797 C   0  0  0  0  0  0  0  0  0  0  0  0
   32.1289   -7.1701  -17.4853 C   0  0  2  0  0  0  0  0  0  0  0  0
   32.6124   -8.3268  -16.7576 N   0  0  0  0  0  0  0  0  0  0  0  0
   32.2928   -5.9804  -16.6642 C   0  0  0  0  0  0  0  0  0  0  0  0
   32.2689   -6.0396  -15.4092 O   0  0  0  0  0  0  0  0  0  0  0  0
   32.4810   -4.7419  -17.2538 O   0  0  0  0  0  0  0  0  0  0  0  0
  2  1  1  6
  2  9  1  0
  3  2  1  0
  4  3  1  0
  4  5  2  0
  6  5  1  0
  7  6  1  0
  8  7  2  0
  8  4  1  0
  9 10  2  0
 11 12  1  0
 11  9  1  0
 12 15  1  0
 12 13  1  1
 14 13  1  0
 15 16  2  0
 18 17  1  0
 19 18  2  0
 20 18  1  0
 21 20  1  0
 22 21  1  0
 23 22  1  0
 24 23  1  1
 24 26  1  0
 25 15  1  0
 25 24  1  0
 26 27  2  0
 26 28  1  0
M  END
$$$$
