HCR.pdb
     RDKit          3D

 28 28  0  0  1  0  0  0  0  0999 V2000
   28.0492  -13.5721  -19.4361 N   0  0  0  0  0  0  0  0  0  0  0  0
   27.8752  -14.9253  -18.9956 C   0  0  1  0  0  0  0  0  0  0  0  0
   29.1314  -15.5247  -18.4162 C   0  0  0  0  0  0  0  0  0  0  0  0
   30.1799  -15.7584  -19.4068 C   0  0  0  0  0  0  0  0  0  0  0  0
   30.4069  -16.9293  -20.1006 C   0  0  0  0  0  0  0  0  0  0  0  0
   31.4636  -16.7226  -20.9117 N   0  0  0  0  0  0  0  0  0  0  0  0
   31.9086  -15.4762  -20.7575 C   0  0  0  0  0  0  0  0  0  0  0  0
   31.1172  -14.8954  -19.8355 N   0  0  0  0  0  0  0  0  0  0  0  0
   26.7819  -14.9118  -17.9740 C   0  0  0  0  0  0  0  0  0  0  0  0
   26.5671  -13.8836  -17.2826 O   0  0  0  0  0  0  0  0  0  0  0  0
   25.9468  -16.0370  -17.7370 N   0  0  0  0  0  0  0  0  0  0  0  0
   24.8304  -15.9894  -16.8001 C   0  0  1  0  0  0  0  0  0  0  0  0
   23.9891  -14.7686  -17.1326 C   0  0  0  0  0  0  0  0  0  0  0  0
   22.4589  -14.8255  -16.1541 S   0  0  0  0  0  0  0  0  0  0  0  0
   24.0369  -17.2285  -16.8762 C   0  0  0  0  0  0  0  0  0  0  0  0
   23.5035  -17.5456  -17.9640 O   0  0  0  0  0  0  0  0  0  0  0  0
   24.2943  -25.1390  -15.5619 N   0  0  0  0  0  0  0  0  0  0  0  0
   25.4239  -24.2892  -15.5560 C   0  0  0  0  0  0  0  0  0  0  0  0
   26.4693  -24.6495  -16.2025 N   0  0  0  0  0  0  0  0  0  0  0  0
   25.3724  -23.0564  -14.8332 N   0  0  0  0  0  0  0  0  0  0  0  0
   24.1445  -22.7133  -14.1441 C   0  0  0  0  0  0  0  0  0  0  0  0
   23.3494  -21.7025  -14.9383 C   0  0  0  0  0  0  0  0  0  0  0  0
   23.9232  -20.3336  -14.8916 C   0  0  0  0  0  0  0  0  0  0  0  0
   23.2012  -19.3431  -15.7751 C   0  0  2  0  0  0  0  0  0  0  0  0
   23.8696  -18.0570  -15.7523 N   0  0  0  0  0  0  0  0  0  0  0  0
   21.7936  -19.1610  -15.4555 C   0  0  0  0  0  0  0  0  0  0  0  0
   21.4201  -18.3517  -14.5698 O   0  0  0  0  0  0  0  0  0  0  0  0
   20.8227  -19.8836  -16.1280 O   0  0  0  0  0  0  0  0  0  0  0  0
  2  1  1  1
  2  9  1  0
  3  2  1  0
  4  3  1  0
  4  5  2  0
  6  5  1  0
  7  6  1  0
  8  7  2  0
  8  4  1  0
  9 10  2  0
 11 12  1  0
 11  9  1  0
 12 15  1  0
 12 13  1  6
 14 13  1  0
 15 16  2  0
 18 17  1  0
 19 18  2  0
 20 18  1  0
 21 20  1  0
 22 21  1  0
 23 22  1  0
 24 23  1  1
 24 26  1  0
 25 15  1  0
 25 24  1  0
 26 27  2  0
 26 28  1  0
M  END
$$$$
