HCR.pdb
     RDKit          3D

 28 28  0  0  1  0  0  0  0  0999 V2000
   15.9878  -23.8480   -6.3194 N   0  0  0  0  0  0  0  0  0  0  0  0
   14.8981  -24.1675   -5.4442 C   0  0  1  0  0  0  0  0  0  0  0  0
   14.3853  -25.5734   -5.6272 C   0  0  0  0  0  0  0  0  0  0  0  0
   13.8306  -25.8264   -6.9552 C   0  0  0  0  0  0  0  0  0  0  0  0
   12.6789  -25.2782   -7.4813 C   0  0  0  0  0  0  0  0  0  0  0  0
   12.5271  -25.7702   -8.7272 N   0  0  0  0  0  0  0  0  0  0  0  0
   13.5308  -26.6012   -9.0051 C   0  0  0  0  0  0  0  0  0  0  0  0
   14.3219  -26.6286   -7.9156 N   0  0  0  0  0  0  0  0  0  0  0  0
   15.3920  -23.9681   -4.0458 C   0  0  0  0  0  0  0  0  0  0  0  0
   16.5947  -24.1931   -3.7555 O   0  0  0  0  0  0  0  0  0  0  0  0
   14.5451  -23.5232   -2.9949 N   0  0  0  0  0  0  0  0  0  0  0  0
   15.0578  -23.2129   -1.6655 C   0  0  1  0  0  0  0  0  0  0  0  0
   14.4581  -21.8872   -1.2278 C   0  0  0  0  0  0  0  0  0  0  0  0
   15.0165  -21.5193    0.4619 S   0  0  0  0  0  0  0  0  0  0  0  0
   14.7293  -24.2926   -0.7184 C   0  0  0  0  0  0  0  0  0  0  0  0
   13.5372  -24.6576   -0.5988 O   0  0  0  0  0  0  0  0  0  0  0  0
   19.1752  -31.1433   -0.7421 N   0  0  0  0  0  0  0  0  0  0  0  0
   18.1382  -30.8957   -1.6702 C   0  0  0  0  0  0  0  0  0  0  0  0
   17.9644  -31.7205   -2.6346 N   0  0  0  0  0  0  0  0  0  0  0  0
   17.3140  -29.7380   -1.5110 N   0  0  0  0  0  0  0  0  0  0  0  0
   17.4934  -28.9228   -0.3263 C   0  0  0  0  0  0  0  0  0  0  0  0
   16.4364  -27.8449   -0.2530 C   0  0  0  0  0  0  0  0  0  0  0  0
   16.5175  -27.0232    0.9813 C   0  0  0  0  0  0  0  0  0  0  0  0
   15.4746  -25.9324    1.0531 C   0  0  2  0  0  0  0  0  0  0  0  0
   15.7280  -24.9172    0.0499 N   0  0  0  0  0  0  0  0  0  0  0  0
   15.3485  -25.3007    2.3576 C   0  0  0  0  0  0  0  0  0  0  0  0
   14.9048  -25.9284    3.3517 O   0  0  0  0  0  0  0  0  0  0  0  0
   15.7187  -23.9785    2.5351 O   0  0  0  0  0  0  0  0  0  0  0  0
  2  1  1  6
  2  9  1  0
  3  2  1  0
  4  3  1  0
  4  5  2  0
  6  5  1  0
  7  6  1  0
  8  7  2  0
  8  4  1  0
  9 10  2  0
 11 12  1  0
 11  9  1  0
 12 15  1  0
 12 13  1  1
 14 13  1  0
 15 16  2  0
 18 17  1  0
 19 18  2  0
 20 18  1  0
 21 20  1  0
 22 21  1  0
 23 22  1  0
 24 23  1  1
 24 26  1  0
 25 15  1  0
 25 24  1  0
 26 27  2  0
 26 28  1  0
M  END
$$$$
