HCR.pdb
     RDKit          3D

 28 28  0  0  1  0  0  0  0  0999 V2000
   27.9687  -21.3324  -15.8434 N   0  0  0  0  0  0  0  0  0  0  0  0
   27.4360  -20.3696  -14.9244 C   0  0  1  0  0  0  0  0  0  0  0  0
   26.7989  -19.1874  -15.6097 C   0  0  0  0  0  0  0  0  0  0  0  0
   27.7388  -18.3864  -16.3907 C   0  0  0  0  0  0  0  0  0  0  0  0
   28.5876  -17.4127  -15.9056 C   0  0  0  0  0  0  0  0  0  0  0  0
   29.2822  -16.9214  -16.9513 N   0  0  0  0  0  0  0  0  0  0  0  0
   28.9072  -17.5428  -18.0688 C   0  0  0  0  0  0  0  0  0  0  0  0
   27.9636  -18.4363  -17.7152 N   0  0  0  0  0  0  0  0  0  0  0  0
   26.4327  -21.0872  -14.0773 C   0  0  0  0  0  0  0  0  0  0  0  0
   25.7440  -22.0229  -14.5583 O   0  0  0  0  0  0  0  0  0  0  0  0
   26.2108  -20.7554  -12.7134 N   0  0  0  0  0  0  0  0  0  0  0  0
   25.1216  -21.3414  -11.9409 C   0  0  1  0  0  0  0  0  0  0  0  0
   25.4434  -21.1663  -10.4664 C   0  0  0  0  0  0  0  0  0  0  0  0
   25.9774  -19.4529  -10.1811 S   0  0  0  0  0  0  0  0  0  0  0  0
   23.8384  -20.7084  -12.2921 C   0  0  0  0  0  0  0  0  0  0  0  0
   23.8278  -19.5085  -12.6505 O   0  0  0  0  0  0  0  0  0  0  0  0
   17.7453  -23.7447  -17.2155 N   0  0  0  0  0  0  0  0  0  0  0  0
   19.0237  -23.1462  -17.2926 C   0  0  0  0  0  0  0  0  0  0  0  0
   19.7451  -23.3653  -18.3280 N   0  0  0  0  0  0  0  0  0  0  0  0
   19.4773  -22.3165  -16.2199 N   0  0  0  0  0  0  0  0  0  0  0  0
   18.6471  -22.2052  -15.0372 C   0  0  0  0  0  0  0  0  0  0  0  0
   19.3047  -21.3208  -14.0029 C   0  0  0  0  0  0  0  0  0  0  0  0
   20.6930  -21.7318  -13.6731 C   0  0  0  0  0  0  0  0  0  0  0  0
   21.3370  -20.8859  -12.5996 C   0  0  2  0  0  0  0  0  0  0  0  0
   22.6307  -21.4265  -12.2315 N   0  0  0  0  0  0  0  0  0  0  0  0
   20.5295  -20.7095  -11.4024 C   0  0  0  0  0  0  0  0  0  0  0  0
   20.8212  -21.2822  -10.3226 O   0  0  0  0  0  0  0  0  0  0  0  0
   19.4085  -19.8972  -11.4261 O   0  0  0  0  0  0  0  0  0  0  0  0
  2  1  1  6
  2  9  1  0
  3  2  1  0
  4  3  1  0
  4  5  2  0
  6  5  1  0
  7  6  1  0
  8  7  2  0
  8  4  1  0
  9 10  2  0
 11 12  1  0
 11  9  1  0
 12 15  1  0
 12 13  1  1
 14 13  1  0
 15 16  2  0
 18 17  1  0
 19 18  2  0
 20 18  1  0
 21 20  1  0
 22 21  1  0
 23 22  1  0
 24 23  1  6
 24 26  1  0
 25 15  1  0
 25 24  1  0
 26 27  2  0
 26 28  1  0
M  END
$$$$
