HCR.pdb
     RDKit          3D

 28 28  0  0  1  0  0  0  0  0999 V2000
   22.3175  -14.9781  -16.6523 N   0  0  0  0  0  0  0  0  0  0  0  0
   23.7099  -15.2485  -16.4437 C   0  0  1  0  0  0  0  0  0  0  0  0
   24.2735  -14.5481  -15.2334 C   0  0  0  0  0  0  0  0  0  0  0  0
   24.5016  -13.1192  -15.4369 C   0  0  0  0  0  0  0  0  0  0  0  0
   24.3056  -12.4155  -16.6075 C   0  0  0  0  0  0  0  0  0  0  0  0
   24.6311  -11.1295  -16.3679 N   0  0  0  0  0  0  0  0  0  0  0  0
   25.0218  -10.9957  -15.1011 C   0  0  0  0  0  0  0  0  0  0  0  0
   24.9389  -12.2175  -14.5408 N   0  0  0  0  0  0  0  0  0  0  0  0
   23.8472  -16.7318  -16.3016 C   0  0  0  0  0  0  0  0  0  0  0  0
   23.0918  -17.3714  -15.5260 O   0  0  0  0  0  0  0  0  0  0  0  0
   24.8185  -17.4794  -17.0210 N   0  0  0  0  0  0  0  0  0  0  0  0
   24.9737  -18.9187  -16.8459 C   0  0  1  0  0  0  0  0  0  0  0  0
   25.2830  -19.5270  -18.2035 C   0  0  0  0  0  0  0  0  0  0  0  0
   23.7210  -19.8268  -19.0824 S   0  0  0  0  0  0  0  0  0  0  0  0
   26.0376  -19.2100  -15.8692 C   0  0  0  0  0  0  0  0  0  0  0  0
   27.1741  -18.7117  -16.0380 O   0  0  0  0  0  0  0  0  0  0  0  0
   25.0040  -21.4641   -7.5744 N   0  0  0  0  0  0  0  0  0  0  0  0
   24.3444  -21.0192   -8.7429 C   0  0  0  0  0  0  0  0  0  0  0  0
   23.0845  -20.7945   -8.6916 N   0  0  0  0  0  0  0  0  0  0  0  0
   25.0949  -20.8320   -9.9456 N   0  0  0  0  0  0  0  0  0  0  0  0
   26.3628  -21.5210  -10.0801 C   0  0  0  0  0  0  0  0  0  0  0  0
   27.0487  -21.1329  -11.3699 C   0  0  0  0  0  0  0  0  0  0  0  0
   26.1015  -20.7791  -12.4575 C   0  0  0  0  0  0  0  0  0  0  0  0
   26.7804  -20.3329  -13.7314 C   0  0  2  0  0  0  0  0  0  0  0  0
   25.7987  -20.0348  -14.7555 N   0  0  0  0  0  0  0  0  0  0  0  0
   27.7568  -21.2739  -14.2584 C   0  0  0  0  0  0  0  0  0  0  0  0
   28.9657  -21.2260  -13.9186 O   0  0  0  0  0  0  0  0  0  0  0  0
   27.3717  -22.2546  -15.1566 O   0  0  0  0  0  0  0  0  0  0  0  0
  2  1  1  1
  2  9  1  0
  3  2  1  0
  4  3  1  0
  4  5  2  0
  6  5  1  0
  7  6  1  0
  8  7  2  0
  8  4  1  0
  9 10  2  0
 11 12  1  0
 11  9  1  0
 12 15  1  0
 12 13  1  6
 14 13  1  0
 15 16  2  0
 18 17  1  0
 19 18  2  0
 20 18  1  0
 21 20  1  0
 22 21  1  0
 23 22  1  0
 24 23  1  1
 24 26  1  0
 25 15  1  0
 25 24  1  0
 26 27  2  0
 26 28  1  0
M  END
$$$$
