FGC.pdb
     RDKit          3D

 22 22  0  0  1  0  0  0  0  0999 V2000
    8.4374  -16.1438   25.6910 N   0  0  0  0  0  0  0  0  0  0  0  0
    7.0828  -16.4218   25.2124 C   0  0  1  0  0  0  0  0  0  0  0  0
    6.0605  -15.6460   26.0010 C   0  0  0  0  0  0  0  0  0  0  0  0
    6.4653  -14.2475   26.2385 C   0  0  0  0  0  0  0  0  0  0  0  0
    7.7719  -13.9044   25.9832 C   0  0  0  0  0  0  0  0  0  0  0  0
    8.1989  -12.6074   26.1901 C   0  0  0  0  0  0  0  0  0  0  0  0
    7.3087  -11.6571   26.6542 C   0  0  0  0  0  0  0  0  0  0  0  0
    5.9815  -12.0036   26.9141 C   0  0  0  0  0  0  0  0  0  0  0  0
    5.5782  -13.3111   26.6984 C   0  0  0  0  0  0  0  0  0  0  0  0
    6.9480  -16.0222   23.7869 C   0  0  0  0  0  0  0  0  0  0  0  0
    6.0934  -16.5612   23.0243 O   0  0  0  0  0  0  0  0  0  0  0  0
    7.8035  -15.0141   23.2883 N   0  0  0  0  0  0  0  0  0  0  0  0
    7.9628  -14.7770   21.8766 C   0  0  0  0  0  0  0  0  0  0  0  0
    9.2945  -15.3504   21.4861 C   0  0  0  0  0  0  0  0  0  0  0  0
    9.6902  -15.3595   20.2728 O   0  0  0  0  0  0  0  0  0  0  0  0
   10.1229  -15.8888   22.4799 N   0  0  0  0  0  0  0  0  0  0  0  0
   11.4386  -16.3721   22.1234 C   0  0  1  0  0  0  0  0  0  0  0  0
   12.4081  -16.0562   23.2670 C   0  0  0  0  0  0  0  0  0  0  0  0
   11.4610  -15.4495   24.6883 S   0  0  0  0  0  0  0  0  0  0  0  0
   11.3485  -17.8303   21.8980 C   0  0  0  0  0  0  0  0  0  0  0  0
   12.4767  -18.5042   21.4864 O   0  0  0  0  0  0  0  0  0  0  0  0
   10.2844  -18.4916   22.0646 O   0  0  0  0  0  0  0  0  0  0  0  0
  2 10  1  0
  2  1  1  1
  3  4  1  0
  3  2  1  0
  4  9  2  0
  4  5  1  0
  5  6  2  0
  6  7  1  0
  8  7  2  0
  9  8  1  0
 10 11  2  0
 12 10  1  0
 12 13  1  0
 13 14  1  0
 14 16  1  0
 14 15  2  0
 16 17  1  0
 17 20  1  0
 17 18  1  1
 19 18  1  0
 20 21  1  0
 22 20  2  0
M  END
$$$$
