FGC.pdb
     RDKit          3D

 22 22  0  0  1  0  0  0  0  0999 V2000
    5.7866  -17.1508   24.9227 N   0  0  0  0  0  0  0  0  0  0  0  0
    6.7652  -16.2373   24.3316 C   0  0  1  0  0  0  0  0  0  0  0  0
    7.5473  -15.5177   25.3991 C   0  0  0  0  0  0  0  0  0  0  0  0
    7.0407  -14.1565   25.6567 C   0  0  0  0  0  0  0  0  0  0  0  0
    6.1322  -13.9908   26.6753 C   0  0  0  0  0  0  0  0  0  0  0  0
    5.6288  -12.7355   26.9549 C   0  0  0  0  0  0  0  0  0  0  0  0
    6.0414  -11.6480   26.2079 C   0  0  0  0  0  0  0  0  0  0  0  0
    6.9639  -11.8143   25.1733 C   0  0  0  0  0  0  0  0  0  0  0  0
    7.4537  -13.0835   24.9128 C   0  0  0  0  0  0  0  0  0  0  0  0
    7.7356  -16.9924   23.4961 C   0  0  0  0  0  0  0  0  0  0  0  0
    7.9000  -18.2400   23.6335 O   0  0  0  0  0  0  0  0  0  0  0  0
    8.4841  -16.2833   22.5298 N   0  0  0  0  0  0  0  0  0  0  0  0
    9.3831  -16.9479   21.6218 C   0  0  0  0  0  0  0  0  0  0  0  0
   10.7433  -16.9199   22.2571 C   0  0  0  0  0  0  0  0  0  0  0  0
   11.8070  -16.8207   21.5588 O   0  0  0  0  0  0  0  0  0  0  0  0
   10.8462  -17.0050   23.6521 N   0  0  0  0  0  0  0  0  0  0  0  0
   12.1306  -17.2880   24.2539 C   0  0  1  0  0  0  0  0  0  0  0  0
   12.1311  -16.7564   25.6909 C   0  0  0  0  0  0  0  0  0  0  0  0
   10.7660  -15.5794   25.8816 S   0  0  0  0  0  0  0  0  0  0  0  0
   12.3360  -18.7519   24.2347 C   0  0  0  0  0  0  0  0  0  0  0  0
   13.5396  -19.2540   24.6770 O   0  0  0  0  0  0  0  0  0  0  0  0
   11.4595  -19.5683   23.8313 O   0  0  0  0  0  0  0  0  0  0  0  0
  2 10  1  0
  2  1  1  1
  3  4  1  0
  3  2  1  0
  4  9  2  0
  4  5  1  0
  5  6  2  0
  6  7  1  0
  8  7  2  0
  9  8  1  0
 10 11  2  0
 12 10  1  0
 12 13  1  0
 13 14  1  0
 14 16  1  0
 14 15  2  0
 16 17  1  0
 17 20  1  0
 17 18  1  1
 19 18  1  0
 20 21  1  0
 22 20  2  0
M  END
$$$$
