FGC.pdb
     RDKit          3D

 22 22  0  0  1  0  0  0  0  0999 V2000
    7.2221  -15.7470   24.8812 N   0  0  0  0  0  0  0  0  0  0  0  0
    7.7109  -15.1896   23.6196 C   0  0  1  0  0  0  0  0  0  0  0  0
    7.8789  -13.6958   23.7171 C   0  0  0  0  0  0  0  0  0  0  0  0
    7.3104  -13.1383   24.9588 C   0  0  0  0  0  0  0  0  0  0  0  0
    8.1398  -12.4026   25.7718 C   0  0  0  0  0  0  0  0  0  0  0  0
    7.6539  -11.8599   26.9452 C   0  0  0  0  0  0  0  0  0  0  0  0
    6.3324  -12.0591   27.2984 C   0  0  0  0  0  0  0  0  0  0  0  0
    5.4886  -12.8059   26.4742 C   0  0  0  0  0  0  0  0  0  0  0  0
    6.0002  -13.3395   25.3027 C   0  0  0  0  0  0  0  0  0  0  0  0
    9.0369  -15.7693   23.2798 C   0  0  0  0  0  0  0  0  0  0  0  0
    9.7199  -15.3380   22.3051 O   0  0  0  0  0  0  0  0  0  0  0  0
    9.5311  -16.8273   24.0755 N   0  0  0  0  0  0  0  0  0  0  0  0
   10.8111  -17.4382   23.8245 C   0  0  0  0  0  0  0  0  0  0  0  0
   11.6616  -17.1804   25.0347 C   0  0  0  0  0  0  0  0  0  0  0  0
   12.8612  -17.6089   25.1142 O   0  0  0  0  0  0  0  0  0  0  0  0
   11.1237  -16.4506   26.1034 N   0  0  0  0  0  0  0  0  0  0  0  0
   11.9035  -16.2766   27.3090 C   0  0  1  0  0  0  0  0  0  0  0  0
   11.7874  -14.8191   27.7669 C   0  0  0  0  0  0  0  0  0  0  0  0
   10.0790  -14.5001   28.2815 S   0  0  0  0  0  0  0  0  0  0  0  0
   11.3720  -17.1951   28.3382 C   0  0  0  0  0  0  0  0  0  0  0  0
   12.0053  -17.2531   29.5597 O   0  0  0  0  0  0  0  0  0  0  0  0
   10.3621  -17.9321   28.1527 O   0  0  0  0  0  0  0  0  0  0  0  0
  2 10  1  0
  2  1  1  1
  3  4  1  0
  3  2  1  0
  4  9  2  0
  4  5  1  0
  5  6  2  0
  6  7  1  0
  8  7  2  0
  9  8  1  0
 10 11  2  0
 12 10  1  0
 12 13  1  0
 13 14  1  0
 14 16  1  0
 14 15  2  0
 16 17  1  0
 17 20  1  0
 17 18  1  1
 19 18  1  0
 20 21  1  0
 22 20  2  0
M  END
$$$$
