FGC.pdb
     RDKit          3D

 22 22  0  0  1  0  0  0  0  0999 V2000
    6.7916  -17.5483   21.1685 N   0  0  0  0  0  0  0  0  0  0  0  0
    7.4988  -16.8134   22.2178 C   0  0  1  0  0  0  0  0  0  0  0  0
    6.8305  -15.4929   22.4979 C   0  0  0  0  0  0  0  0  0  0  0  0
    7.1757  -14.4576   21.5054 C   0  0  0  0  0  0  0  0  0  0  0  0
    6.5434  -14.5006   20.2853 C   0  0  0  0  0  0  0  0  0  0  0  0
    6.8330  -13.5532   19.3231 C   0  0  0  0  0  0  0  0  0  0  0  0
    7.7597  -12.5630   19.5912 C   0  0  0  0  0  0  0  0  0  0  0  0
    8.4028  -12.5178   20.8295 C   0  0  0  0  0  0  0  0  0  0  0  0
    8.0947  -13.4795   21.7775 C   0  0  0  0  0  0  0  0  0  0  0  0
    7.4986  -17.5940   23.4829 C   0  0  0  0  0  0  0  0  0  0  0  0
    6.5830  -18.4268   23.7490 O   0  0  0  0  0  0  0  0  0  0  0  0
    8.5545  -17.3882   24.3992 N   0  0  0  0  0  0  0  0  0  0  0  0
    8.9371  -18.3897   25.3609 C   0  0  0  0  0  0  0  0  0  0  0  0
    9.9250  -17.7460   26.2906 C   0  0  0  0  0  0  0  0  0  0  0  0
   11.1838  -17.8601   26.1140 O   0  0  0  0  0  0  0  0  0  0  0  0
    9.4517  -17.0013   27.3793 N   0  0  0  0  0  0  0  0  0  0  0  0
    9.9397  -15.6556   27.5858 C   0  0  1  0  0  0  0  0  0  0  0  0
    8.8014  -14.6686   27.3072 C   0  0  0  0  0  0  0  0  0  0  0  0
    9.3825  -12.9883   27.6594 S   0  0  0  0  0  0  0  0  0  0  0  0
   10.4028  -15.5429   28.9852 C   0  0  0  0  0  0  0  0  0  0  0  0
   10.2231  -16.6177   29.8271 O   0  0  0  0  0  0  0  0  0  0  0  0
   10.9572  -14.5061   29.4491 O   0  0  0  0  0  0  0  0  0  0  0  0
  2 10  1  0
  2  1  1  6
  3  4  1  0
  3  2  1  0
  4  9  2  0
  4  5  1  0
  5  6  2  0
  6  7  1  0
  8  7  2  0
  9  8  1  0
 10 11  2  0
 12 10  1  0
 12 13  1  0
 13 14  1  0
 14 16  1  0
 14 15  2  0
 16 17  1  0
 17 20  1  0
 17 18  1  1
 19 18  1  0
 20 21  1  0
 22 20  2  0
M  END
$$$$
