FGC.pdb
     RDKit          3D

 22 22  0  0  1  0  0  0  0  0999 V2000
    5.9685  -16.4984   24.9140 N   0  0  0  0  0  0  0  0  0  0  0  0
    7.0254  -15.6409   24.3763 C   0  0  1  0  0  0  0  0  0  0  0  0
    7.6835  -14.8423   25.4709 C   0  0  0  0  0  0  0  0  0  0  0  0
    6.9737  -13.5825   25.7628 C   0  0  0  0  0  0  0  0  0  0  0  0
    7.4518  -12.4277   25.1901 C   0  0  0  0  0  0  0  0  0  0  0  0
    6.8214  -11.2233   25.4333 C   0  0  0  0  0  0  0  0  0  0  0  0
    5.7094  -11.1835   26.2535 C   0  0  0  0  0  0  0  0  0  0  0  0
    5.2224  -12.3551   26.8360 C   0  0  0  0  0  0  0  0  0  0  0  0
    5.8726  -13.5503   26.5763 C   0  0  0  0  0  0  0  0  0  0  0  0
    8.0780  -16.4661   23.7275 C   0  0  0  0  0  0  0  0  0  0  0  0
    8.2854  -17.6669   24.0704 O   0  0  0  0  0  0  0  0  0  0  0  0
    8.8564  -15.8788   22.7047 N   0  0  0  0  0  0  0  0  0  0  0  0
    9.8672  -16.6188   21.9941 C   0  0  0  0  0  0  0  0  0  0  0  0
   11.1013  -16.6021   22.8493 C   0  0  0  0  0  0  0  0  0  0  0  0
   12.2523  -16.3485   22.3597 O   0  0  0  0  0  0  0  0  0  0  0  0
   10.9851  -16.8720   24.2195 N   0  0  0  0  0  0  0  0  0  0  0  0
   12.1810  -16.9932   25.0239 C   0  0  1  0  0  0  0  0  0  0  0  0
   12.0688  -16.0454   26.2225 C   0  0  0  0  0  0  0  0  0  0  0  0
   10.6514  -16.5457   27.2354 S   0  0  0  0  0  0  0  0  0  0  0  0
   12.2944  -18.3972   25.4725 C   0  0  0  0  0  0  0  0  0  0  0  0
   11.2510  -19.2579   25.2135 O   0  0  0  0  0  0  0  0  0  0  0  0
   13.3043  -18.8487   26.0839 O   0  0  0  0  0  0  0  0  0  0  0  0
  2 10  1  0
  2  1  1  1
  3  4  1  0
  3  2  1  0
  4  9  2  0
  4  5  1  0
  5  6  2  0
  6  7  1  0
  8  7  2  0
  9  8  1  0
 10 11  2  0
 12 10  1  0
 12 13  1  0
 13 14  1  0
 14 16  1  0
 14 15  2  0
 16 17  1  0
 17 20  1  0
 17 18  1  1
 19 18  1  0
 20 21  1  0
 22 20  2  0
M  END
$$$$
