TLT.pdb
     RDKit          3D

 23 22  0  0  1  0  0  0  0  0999 V2000
    8.6963  -13.1978   20.5309 C   0  0  0  0  0  0  0  0  0  0  0  0
    7.4342  -13.9493   20.8328 C   0  0  1  0  0  0  0  0  0  0  0  0
    6.7946  -14.3785   19.6781 O   0  0  0  0  0  0  0  0  0  0  0  0
    7.6399  -15.1222   21.7404 C   0  0  2  0  0  0  0  0  0  0  0  0
    6.4096  -15.8386   21.9945 N   0  0  0  0  0  0  0  0  0  0  0  0
    8.3192  -14.7939   22.9959 C   0  0  0  0  0  0  0  0  0  0  0  0
    9.5481  -14.5447   23.0770 O   0  0  0  0  0  0  0  0  0  0  0  0
    5.3879  -11.9679   26.5227 C   0  0  0  0  0  0  0  0  0  0  0  0
    6.5344  -12.5715   25.7887 C   0  0  1  0  0  0  0  0  0  0  0  0
    7.6313  -11.4942   25.6900 C   0  0  0  0  0  0  0  0  0  0  0  0
    7.1357  -13.8063   26.3573 C   0  0  0  0  0  0  0  0  0  0  0  0
    8.1633  -14.4907   25.4933 C   0  0  2  0  0  0  0  0  0  0  0  0
    7.5725  -14.7479   24.2009 N   0  0  0  0  0  0  0  0  0  0  0  0
    8.6987  -15.6585   26.1889 C   0  0  0  0  0  0  0  0  0  0  0  0
    9.0159  -15.5369   27.4100 O   0  0  0  0  0  0  0  0  0  0  0  0
    7.2297  -19.2160   26.7771 C   0  0  0  0  0  0  0  0  0  0  0  0
    8.5839  -19.3195   26.0732 C   0  0  1  0  0  0  0  0  0  0  0  0
    8.3141  -19.3489   24.7061 O   0  0  0  0  0  0  0  0  0  0  0  0
    9.4130  -18.0760   26.3373 C   0  0  2  0  0  0  0  0  0  0  0  0
    8.8950  -16.9314   25.6174 N   0  0  0  0  0  0  0  0  0  0  0  0
   10.7702  -18.3687   25.8147 C   0  0  0  0  0  0  0  0  0  0  0  0
   11.5767  -19.3655   26.3864 O   0  0  0  0  0  0  0  0  0  0  0  0
   11.2951  -17.7624   24.8410 O   0  0  0  0  0  0  0  0  0  0  0  0
  2  1  1  6
  2  3  1  0
  4  2  1  0
  4  6  1  0
  4  5  1  1
  6 13  1  0
  6  7  2  0
  9  8  1  1
  9 10  1  0
 11  9  1  0
 12 11  1  1
 13 12  1  0
 14 12  1  0
 14 15  2  0
 17 16  1  1
 17 19  1  0
 18 17  1  0
 19 20  1  6
 20 14  1  0
 21 19  1  0
 22 21  1  0
 23 21  2  0
M  END
$$$$
