TLT.pdb
     RDKit          3D

 23 22  0  0  1  0  0  0  0  0999 V2000
    7.4845  -17.4841   21.8981 C   0  0  0  0  0  0  0  0  0  0  0  0
    8.8916  -17.3510   21.3971 C   0  0  1  0  0  0  0  0  0  0  0  0
    9.0183  -17.7749   20.0814 O   0  0  0  0  0  0  0  0  0  0  0  0
    9.4393  -15.9626   21.5164 C   0  0  2  0  0  0  0  0  0  0  0  0
   10.7004  -15.8117   20.8250 N   0  0  0  0  0  0  0  0  0  0  0  0
    9.5405  -15.4770   22.8946 C   0  0  0  0  0  0  0  0  0  0  0  0
   10.5748  -15.5934   23.5986 O   0  0  0  0  0  0  0  0  0  0  0  0
    7.9231  -11.8071   26.7379 C   0  0  0  0  0  0  0  0  0  0  0  0
    7.0277  -12.9564   26.4300 C   0  0  1  0  0  0  0  0  0  0  0  0
    5.5778  -12.4642   26.6019 C   0  0  0  0  0  0  0  0  0  0  0  0
    7.1572  -13.5832   25.0885 C   0  0  0  0  0  0  0  0  0  0  0  0
    8.3933  -14.4179   24.8734 C   0  0  2  0  0  0  0  0  0  0  0  0
    8.4247  -14.8365   23.4916 N   0  0  0  0  0  0  0  0  0  0  0  0
    8.4456  -15.4920   25.8622 C   0  0  0  0  0  0  0  0  0  0  0  0
    8.5418  -15.1772   27.0862 O   0  0  0  0  0  0  0  0  0  0  0  0
    6.2707  -18.9407   25.6273 C   0  0  0  0  0  0  0  0  0  0  0  0
    7.7259  -19.1840   26.0313 C   0  0  1  0  0  0  0  0  0  0  0  0
    8.4113  -19.4970   24.8587 O   0  0  0  0  0  0  0  0  0  0  0  0
    8.3416  -17.9104   26.5812 C   0  0  2  0  0  0  0  0  0  0  0  0
    8.3944  -16.8705   25.5750 N   0  0  0  0  0  0  0  0  0  0  0  0
    9.7349  -18.2561   26.9550 C   0  0  0  0  0  0  0  0  0  0  0  0
   10.0127  -19.2038   27.9529 O   0  0  0  0  0  0  0  0  0  0  0  0
   10.7551  -17.7406   26.4212 O   0  0  0  0  0  0  0  0  0  0  0  0
  2  1  1  6
  2  3  1  0
  4  2  1  0
  4  6  1  0
  4  5  1  1
  6 13  1  0
  6  7  2  0
  9  8  1  6
  9 10  1  0
 11  9  1  0
 12 11  1  6
 13 12  1  0
 14 12  1  0
 14 15  2  0
 17 16  1  6
 17 19  1  0
 18 17  1  0
 19 20  1  6
 20 14  1  0
 21 19  1  0
 22 21  1  0
 23 21  2  0
M  END
$$$$
