TLT.pdb
     RDKit          3D

 23 22  0  0  1  0  0  0  0  0999 V2000
    6.8626  -16.4904   19.6291 C   0  0  0  0  0  0  0  0  0  0  0  0
    7.4124  -16.4499   21.0236 C   0  0  1  0  0  0  0  0  0  0  0  0
    8.2489  -17.5263   21.2853 O   0  0  0  0  0  0  0  0  0  0  0  0
    8.1384  -15.1800   21.3428 C   0  0  2  0  0  0  0  0  0  0  0  0
    9.2176  -14.9201   20.4159 N   0  0  0  0  0  0  0  0  0  0  0  0
    8.6096  -15.0932   22.7270 C   0  0  0  0  0  0  0  0  0  0  0  0
    9.8078  -15.2619   23.0655 O   0  0  0  0  0  0  0  0  0  0  0  0
    5.6961  -11.9403   26.3423 C   0  0  0  0  0  0  0  0  0  0  0  0
    6.8152  -12.6607   25.6744 C   0  0  1  0  0  0  0  0  0  0  0  0
    8.1243  -11.9761   26.1117 C   0  0  0  0  0  0  0  0  0  0  0  0
    6.9377  -14.1199   25.9303 C   0  0  0  0  0  0  0  0  0  0  0  0
    8.0248  -14.8289   25.1646 C   0  0  2  0  0  0  0  0  0  0  0  0
    7.6833  -14.8041   23.7616 N   0  0  0  0  0  0  0  0  0  0  0  0
    8.2534  -16.1531   25.7378 C   0  0  0  0  0  0  0  0  0  0  0  0
    7.2448  -16.8592   26.0389 O   0  0  0  0  0  0  0  0  0  0  0  0
   10.1166  -19.1012   24.2619 C   0  0  0  0  0  0  0  0  0  0  0  0
   10.6958  -18.8507   25.6553 C   0  0  1  0  0  0  0  0  0  0  0  0
   11.8155  -18.0406   25.4748 O   0  0  0  0  0  0  0  0  0  0  0  0
    9.7110  -18.0674   26.5039 C   0  0  2  0  0  0  0  0  0  0  0  0
    9.5149  -16.7289   25.9878 N   0  0  0  0  0  0  0  0  0  0  0  0
   10.3275  -17.9532   27.8484 C   0  0  0  0  0  0  0  0  0  0  0  0
   10.5547  -19.0838   28.6492 O   0  0  0  0  0  0  0  0  0  0  0  0
   10.6877  -16.8610   28.3668 O   0  0  0  0  0  0  0  0  0  0  0  0
  2  1  1  6
  2  3  1  0
  4  2  1  0
  4  6  1  0
  4  5  1  6
  6 13  1  0
  6  7  2  0
  9  8  1  1
  9 10  1  0
 11  9  1  0
 12 11  1  1
 13 12  1  0
 14 12  1  0
 14 15  2  0
 17 16  1  6
 17 19  1  0
 18 17  1  0
 19 20  1  6
 20 14  1  0
 21 19  1  0
 22 21  1  0
 23 21  2  0
M  END
$$$$
