TLT.pdb
     RDKit          3D

 23 22  0  0  1  0  0  0  0  0999 V2000
    8.6379  -19.9054   18.2275 C   0  0  0  0  0  0  0  0  0  0  0  0
    9.6927  -19.7620   17.1713 C   0  0  1  0  0  0  0  0  0  0  0  0
    9.4902  -20.6344   16.1109 O   0  0  0  0  0  0  0  0  0  0  0  0
    9.8186  -18.3685   16.6383 C   0  0  2  0  0  0  0  0  0  0  0  0
   10.7602  -18.2854   15.5438 N   0  0  0  0  0  0  0  0  0  0  0  0
   10.1192  -17.3631   17.6603 C   0  0  0  0  0  0  0  0  0  0  0  0
   11.2476  -17.2336   18.1976 O   0  0  0  0  0  0  0  0  0  0  0  0
    9.2165  -12.5182   20.0781 C   0  0  0  0  0  0  0  0  0  0  0  0
    8.1219  -13.5209   20.1951 C   0  0  1  0  0  0  0  0  0  0  0  0
    6.7890  -12.7500   20.1420 C   0  0  0  0  0  0  0  0  0  0  0  0
    8.0792  -14.6073   19.1815 C   0  0  0  0  0  0  0  0  0  0  0  0
    9.2559  -15.5488   19.1823 C   0  0  2  0  0  0  0  0  0  0  0  0
    9.0986  -16.4743   18.0849 N   0  0  0  0  0  0  0  0  0  0  0  0
    9.4078  -16.1529   20.5037 C   0  0  0  0  0  0  0  0  0  0  0  0
    8.3745  -16.6120   21.0764 O   0  0  0  0  0  0  0  0  0  0  0  0
   10.7737  -19.2475   21.5946 C   0  0  0  0  0  0  0  0  0  0  0  0
   11.5417  -18.2059   22.4103 C   0  0  1  0  0  0  0  0  0  0  0  0
   12.7005  -17.9205   21.6904 O   0  0  0  0  0  0  0  0  0  0  0  0
   10.7462  -16.9168   22.5041 C   0  0  2  0  0  0  0  0  0  0  0  0
   10.6200  -16.2772   21.2111 N   0  0  0  0  0  0  0  0  0  0  0  0
   11.5277  -16.0153   23.3857 C   0  0  0  0  0  0  0  0  0  0  0  0
   11.7129  -16.3012   24.7477 O   0  0  0  0  0  0  0  0  0  0  0  0
   12.0742  -14.9480   22.9938 O   0  0  0  0  0  0  0  0  0  0  0  0
  2  1  1  1
  2  3  1  0
  4  2  1  0
  4  6  1  0
  4  5  1  6
  6 13  1  0
  6  7  2  0
  9  8  1  6
  9 10  1  0
 11  9  1  0
 12 11  1  1
 13 12  1  0
 14 12  1  0
 14 15  2  0
 17 16  1  6
 17 19  1  0
 18 17  1  0
 19 20  1  6
 20 14  1  0
 21 19  1  0
 22 21  1  0
 23 21  2  0
M  END
$$$$
