TLT.pdb
     RDKit          3D

 23 22  0  0  1  0  0  0  0  0999 V2000
    6.2279  -15.8967   19.6194 C   0  0  0  0  0  0  0  0  0  0  0  0
    6.8933  -15.9130   20.9632 C   0  0  1  0  0  0  0  0  0  0  0  0
    7.8008  -16.9564   21.0825 O   0  0  0  0  0  0  0  0  0  0  0  0
    7.5811  -14.6277   21.3048 C   0  0  2  0  0  0  0  0  0  0  0  0
    8.5361  -14.2336   20.2929 N   0  0  0  0  0  0  0  0  0  0  0  0
    8.1967  -14.6147   22.6339 C   0  0  0  0  0  0  0  0  0  0  0  0
    9.4218  -14.8090   22.8347 O   0  0  0  0  0  0  0  0  0  0  0  0
    5.6446  -11.6108   26.5391 C   0  0  0  0  0  0  0  0  0  0  0  0
    6.7091  -12.3125   25.7698 C   0  0  1  0  0  0  0  0  0  0  0  0
    8.0353  -11.5822   26.0551 C   0  0  0  0  0  0  0  0  0  0  0  0
    6.9020  -13.7621   26.0364 C   0  0  0  0  0  0  0  0  0  0  0  0
    7.8758  -14.4696   25.1298 C   0  0  2  0  0  0  0  0  0  0  0  0
    7.3884  -14.3719   23.7739 N   0  0  0  0  0  0  0  0  0  0  0  0
    8.1168  -15.8245   25.6203 C   0  0  0  0  0  0  0  0  0  0  0  0
    7.1222  -16.5971   25.7631 O   0  0  0  0  0  0  0  0  0  0  0  0
    9.8788  -18.5494   23.9862 C   0  0  0  0  0  0  0  0  0  0  0  0
   10.5288  -18.4444   25.3670 C   0  0  1  0  0  0  0  0  0  0  0  0
   11.6501  -17.6312   25.2119 O   0  0  0  0  0  0  0  0  0  0  0  0
    9.5980  -17.7399   26.3370 C   0  0  2  0  0  0  0  0  0  0  0  0
    9.3764  -16.3617   25.9520 N   0  0  0  0  0  0  0  0  0  0  0  0
   10.2925  -17.7424   27.6478 C   0  0  0  0  0  0  0  0  0  0  0  0
   10.5247  -18.9344   28.3522 O   0  0  0  0  0  0  0  0  0  0  0  0
   10.7191  -16.7022   28.2200 O   0  0  0  0  0  0  0  0  0  0  0  0
  2  1  1  6
  2  3  1  0
  4  2  1  0
  4  6  1  0
  4  5  1  6
  6 13  1  0
  6  7  2  0
  9  8  1  1
  9 10  1  0
 11  9  1  0
 12 11  1  1
 13 12  1  0
 14 12  1  0
 14 15  2  0
 17 16  1  6
 17 19  1  0
 18 17  1  0
 19 20  1  6
 20 14  1  0
 21 19  1  0
 22 21  1  0
 23 21  2  0
M  END
$$$$
