TLT.pdb
     RDKit          3D

 23 22  0  0  1  0  0  0  0  0999 V2000
    9.6355  -19.8917   18.8962 C   0  0  0  0  0  0  0  0  0  0  0  0
    9.5701  -18.7896   19.9111 C   0  0  1  0  0  0  0  0  0  0  0  0
    9.9522  -19.2210   21.1739 O   0  0  0  0  0  0  0  0  0  0  0  0
   10.3823  -17.5876   19.5406 C   0  0  2  0  0  0  0  0  0  0  0  0
   11.7463  -17.9321   19.2057 N   0  0  0  0  0  0  0  0  0  0  0  0
   10.3466  -16.5131   20.5354 C   0  0  0  0  0  0  0  0  0  0  0  0
   11.3218  -16.2111   21.2681 O   0  0  0  0  0  0  0  0  0  0  0  0
    6.4292  -12.9428   19.4002 C   0  0  0  0  0  0  0  0  0  0  0  0
    7.7295  -13.4863   19.8811 C   0  0  1  0  0  0  0  0  0  0  0  0
    8.8052  -12.4230   19.5879 C   0  0  0  0  0  0  0  0  0  0  0  0
    7.8221  -13.8681   21.3147 C   0  0  0  0  0  0  0  0  0  0  0  0
    9.0111  -14.7143   21.6905 C   0  0  2  0  0  0  0  0  0  0  0  0
    9.1586  -15.7562   20.7015 N   0  0  0  0  0  0  0  0  0  0  0  0
    8.8813  -15.1671   23.0734 C   0  0  0  0  0  0  0  0  0  0  0  0
    8.7828  -14.2920   23.9850 O   0  0  0  0  0  0  0  0  0  0  0  0
    6.3823  -17.2942   25.1049 C   0  0  0  0  0  0  0  0  0  0  0  0
    7.7605  -17.9567   25.1458 C   0  0  1  0  0  0  0  0  0  0  0  0
    7.7894  -18.8673   24.0910 O   0  0  0  0  0  0  0  0  0  0  0  0
    8.8476  -16.9315   24.8795 C   0  0  2  0  0  0  0  0  0  0  0  0
    8.8515  -16.5116   23.4938 N   0  0  0  0  0  0  0  0  0  0  0  0
   10.1344  -17.6171   25.1531 C   0  0  0  0  0  0  0  0  0  0  0  0
   10.4210  -18.1621   26.4148 O   0  0  0  0  0  0  0  0  0  0  0  0
   11.0502  -17.7618   24.2978 O   0  0  0  0  0  0  0  0  0  0  0  0
  2  1  1  6
  2  3  1  0
  4  2  1  0
  4  6  1  0
  4  5  1  1
  6 13  1  0
  6  7  2  0
  9  8  1  1
  9 10  1  0
 11  9  1  0
 12 11  1  6
 13 12  1  0
 14 12  1  0
 14 15  2  0
 17 16  1  6
 17 19  1  0
 18 17  1  0
 19 20  1  6
 20 14  1  0
 21 19  1  0
 22 21  1  0
 23 21  2  0
M  END
$$$$
