TLT.pdb
     RDKit          3D

 23 22  0  0  1  0  0  0  0  0999 V2000
    7.5936  -17.1001   19.1410 C   0  0  0  0  0  0  0  0  0  0  0  0
    7.9761  -16.8753   20.5734 C   0  0  1  0  0  0  0  0  0  0  0  0
    8.6542  -17.9621   21.1082 O   0  0  0  0  0  0  0  0  0  0  0  0
    8.7927  -15.6387   20.7866 C   0  0  2  0  0  0  0  0  0  0  0  0
   10.0132  -15.6497   20.0110 N   0  0  0  0  0  0  0  0  0  0  0  0
    9.0735  -15.3437   22.1936 C   0  0  0  0  0  0  0  0  0  0  0  0
   10.1508  -15.6451   22.7658 O   0  0  0  0  0  0  0  0  0  0  0  0
    8.2254  -12.3232   26.7958 C   0  0  0  0  0  0  0  0  0  0  0  0
    7.1127  -13.1636   26.2733 C   0  0  1  0  0  0  0  0  0  0  0  0
    5.7975  -12.4221   26.5802 C   0  0  0  0  0  0  0  0  0  0  0  0
    7.1353  -13.5048   24.8267 C   0  0  0  0  0  0  0  0  0  0  0  0
    8.2390  -14.4339   24.3912 C   0  0  2  0  0  0  0  0  0  0  0  0
    8.0927  -14.6822   22.9761 N   0  0  0  0  0  0  0  0  0  0  0  0
    8.2553  -15.6198   25.2442 C   0  0  0  0  0  0  0  0  0  0  0  0
    7.1568  -16.2083   25.4753 O   0  0  0  0  0  0  0  0  0  0  0  0
    9.5014  -18.8732   24.5408 C   0  0  0  0  0  0  0  0  0  0  0  0
   10.1951  -18.5003   25.8522 C   0  0  1  0  0  0  0  0  0  0  0  0
   11.4223  -17.9404   25.5012 O   0  0  0  0  0  0  0  0  0  0  0  0
    9.4071  -17.4267   26.5802 C   0  0  2  0  0  0  0  0  0  0  0  0
    9.4013  -16.1814   25.8413 N   0  0  0  0  0  0  0  0  0  0  0  0
   10.1168  -17.1945   27.8620 C   0  0  0  0  0  0  0  0  0  0  0  0
   10.2067  -18.1956   28.8421 O   0  0  0  0  0  0  0  0  0  0  0  0
   10.6815  -16.1084   28.1668 O   0  0  0  0  0  0  0  0  0  0  0  0
  2  1  1  6
  2  3  1  0
  4  2  1  0
  4  6  1  0
  4  5  1  6
  6 13  1  0
  6  7  2  0
  9  8  1  6
  9 10  1  0
 11  9  1  0
 12 11  1  1
 13 12  1  0
 14 12  1  0
 14 15  2  0
 17 16  1  6
 17 19  1  0
 18 17  1  0
 19 20  1  6
 20 14  1  0
 21 19  1  0
 22 21  1  0
 23 21  2  0
M  END
$$$$
