HVC.pdb
     RDKit          3D

 24 24  0  0  1  0  0  0  0  0999 V2000
    8.9654  -15.8435   20.4745 N   0  0  0  0  0  0  0  0  0  0  0  0
    8.1901  -16.0916   21.6598 C   0  0  1  0  0  0  0  0  0  0  0  0
    8.1995  -17.5781   21.9262 C   0  0  0  0  0  0  0  0  0  0  0  0
    7.3159  -18.2177   20.9205 C   0  0  0  0  0  0  0  0  0  0  0  0
    6.6631  -17.5977   19.8517 C   0  0  0  0  0  0  0  0  0  0  0  0
    5.9605  -18.5102   19.1726 N   0  0  0  0  0  0  0  0  0  0  0  0
    6.1319  -19.6977   19.7590 C   0  0  0  0  0  0  0  0  0  0  0  0
    6.9604  -19.5103   20.8249 N   0  0  0  0  0  0  0  0  0  0  0  0
    8.6782  -15.3088   22.8248 C   0  0  0  0  0  0  0  0  0  0  0  0
    9.8993  -15.0231   22.9176 O   0  0  0  0  0  0  0  0  0  0  0  0
    6.0739  -13.9831   26.1797 C   0  0  0  0  0  0  0  0  0  0  0  0
    7.2531  -13.2481   25.6320 C   0  0  2  0  0  0  0  0  0  0  0  0
    6.8713  -12.1810   24.6435 C   0  0  0  0  0  0  0  0  0  0  0  0
    8.3037  -14.1701   25.0508 C   0  0  2  0  0  0  0  0  0  0  0  0
    7.8266  -14.8511   23.8684 N   0  0  0  0  0  0  0  0  0  0  0  0
    8.8213  -15.1228   26.0654 C   0  0  0  0  0  0  0  0  0  0  0  0
    8.3635  -16.2867   26.1897 O   0  0  0  0  0  0  0  0  0  0  0  0
    9.8772  -14.7785   26.9703 N   0  0  0  0  0  0  0  0  0  0  0  0
   10.5781  -15.7610   27.7737 C   0  0  1  0  0  0  0  0  0  0  0  0
   11.8195  -15.2133   28.4130 C   0  0  0  0  0  0  0  0  0  0  0  0
   11.3756  -13.6079   29.1560 S   0  0  0  0  0  0  0  0  0  0  0  0
    9.6700  -16.4212   28.7456 C   0  0  0  0  0  0  0  0  0  0  0  0
    8.4130  -15.8948   28.9674 O   0  0  0  0  0  0  0  0  0  0  0  0
    9.9965  -17.4534   29.3865 O   0  0  0  0  0  0  0  0  0  0  0  0
  2  1  1  6
  3  2  1  0
  4  3  1  0
  5  4  2  0
  6  7  1  0
  6  5  1  0
  7  8  2  0
  8  4  1  0
  9  2  1  0
  9 10  2  0
 12 11  1  6
 12 13  1  0
 12 14  1  0
 14 15  1  6
 14 16  1  0
 15  9  1  0
 16 17  2  0
 16 18  1  0
 18 19  1  0
 19 22  1  0
 19 20  1  1
 20 21  1  0
 22 24  2  0
 22 23  1  0
M  END
$$$$
