HVC.pdb
     RDKit          3D

 24 24  0  0  1  0  0  0  0  0999 V2000
    8.8171  -15.6704   14.2996 N   0  0  0  0  0  0  0  0  0  0  0  0
    8.4806  -16.1889   15.5979 C   0  0  1  0  0  0  0  0  0  0  0  0
    8.6860  -17.6849   15.5753 C   0  0  0  0  0  0  0  0  0  0  0  0
    7.6931  -18.2578   14.6334 C   0  0  0  0  0  0  0  0  0  0  0  0
    6.3213  -18.4200   14.8455 C   0  0  0  0  0  0  0  0  0  0  0  0
    5.7679  -18.9721   13.7609 N   0  0  0  0  0  0  0  0  0  0  0  0
    6.7268  -19.1745   12.8537 C   0  0  0  0  0  0  0  0  0  0  0  0
    7.8986  -18.7358   13.3942 N   0  0  0  0  0  0  0  0  0  0  0  0
    9.2542  -15.5318   16.6832 C   0  0  0  0  0  0  0  0  0  0  0  0
   10.5045  -15.4362   16.5891 O   0  0  0  0  0  0  0  0  0  0  0  0
    7.5521  -14.2065   20.5937 C   0  0  0  0  0  0  0  0  0  0  0  0
    8.4919  -13.4270   19.7337 C   0  0  2  0  0  0  0  0  0  0  0  0
    7.7943  -12.4037   18.8806 C   0  0  0  0  0  0  0  0  0  0  0  0
    9.3892  -14.3091   18.8921 C   0  0  2  0  0  0  0  0  0  0  0  0
    8.6512  -14.9903   17.8524 N   0  0  0  0  0  0  0  0  0  0  0  0
   10.1686  -15.2573   19.7276 C   0  0  0  0  0  0  0  0  0  0  0  0
    9.7462  -16.4064   20.0119 O   0  0  0  0  0  0  0  0  0  0  0  0
   11.4543  -14.9254   20.2654 N   0  0  0  0  0  0  0  0  0  0  0  0
   12.2812  -15.8802   20.9771 C   0  0  1  0  0  0  0  0  0  0  0  0
   13.6935  -15.9183   20.4733 C   0  0  0  0  0  0  0  0  0  0  0  0
   14.3671  -14.2316   20.6399 S   0  0  0  0  0  0  0  0  0  0  0  0
   12.1964  -15.6882   22.4472 C   0  0  0  0  0  0  0  0  0  0  0  0
   12.8210  -16.5883   23.2875 O   0  0  0  0  0  0  0  0  0  0  0  0
   11.5728  -14.7296   22.9716 O   0  0  0  0  0  0  0  0  0  0  0  0
  2  1  1  6
  3  2  1  0
  4  3  1  0
  5  4  2  0
  6  7  1  0
  6  5  1  0
  7  8  2  0
  8  4  1  0
  9  2  1  0
  9 10  2  0
 12 11  1  6
 12 13  1  0
 12 14  1  0
 14 15  1  6
 14 16  1  0
 15  9  1  0
 16 17  2  0
 16 18  1  0
 18 19  1  0
 19 22  1  0
 19 20  1  6
 20 21  1  0
 22 24  2  0
 22 23  1  0
M  END
$$$$
