HVC.pdb
     RDKit          3D

 24 24  0  0  1  0  0  0  0  0999 V2000
    7.8604  -15.1322   20.6108 N   0  0  0  0  0  0  0  0  0  0  0  0
    7.3379  -15.6292   21.8548 C   0  0  1  0  0  0  0  0  0  0  0  0
    7.4822  -17.1324   21.8593 C   0  0  0  0  0  0  0  0  0  0  0  0
    6.4570  -17.6823   20.9384 C   0  0  0  0  0  0  0  0  0  0  0  0
    5.5716  -16.9627   20.1315 C   0  0  0  0  0  0  0  0  0  0  0  0
    4.8038  -17.8161   19.4461 N   0  0  0  0  0  0  0  0  0  0  0  0
    5.1565  -19.0610   19.7769 C   0  0  0  0  0  0  0  0  0  0  0  0
    6.1660  -18.9704   20.6881 N   0  0  0  0  0  0  0  0  0  0  0  0
    7.9914  -14.9984   23.0309 C   0  0  0  0  0  0  0  0  0  0  0  0
    9.2392  -14.8426   23.0430 O   0  0  0  0  0  0  0  0  0  0  0  0
    6.4423  -11.9328   25.2550 C   0  0  0  0  0  0  0  0  0  0  0  0
    6.9590  -13.0562   26.0927 C   0  0  2  0  0  0  0  0  0  0  0  0
    7.5803  -12.5897   27.3803 C   0  0  0  0  0  0  0  0  0  0  0  0
    7.9029  -13.9676   25.3379 C   0  0  2  0  0  0  0  0  0  0  0  0
    7.2732  -14.5485   24.1736 N   0  0  0  0  0  0  0  0  0  0  0  0
    8.4908  -15.0050   26.2227 C   0  0  0  0  0  0  0  0  0  0  0  0
    7.8083  -15.9458   26.7010 O   0  0  0  0  0  0  0  0  0  0  0  0
    9.8755  -15.0025   26.5902 N   0  0  0  0  0  0  0  0  0  0  0  0
   10.4923  -16.0755   27.3455 C   0  0  1  0  0  0  0  0  0  0  0  0
   11.9478  -16.2503   27.0282 C   0  0  0  0  0  0  0  0  0  0  0  0
   12.7533  -14.6372   27.3025 S   0  0  0  0  0  0  0  0  0  0  0  0
   10.2296  -15.9409   28.8009 C   0  0  0  0  0  0  0  0  0  0  0  0
   10.4970  -17.0035   29.6411 O   0  0  0  0  0  0  0  0  0  0  0  0
    9.7679  -14.8885   29.3128 O   0  0  0  0  0  0  0  0  0  0  0  0
  2  1  1  6
  3  2  1  0
  4  3  1  0
  5  4  2  0
  6  7  1  0
  6  5  1  0
  7  8  2  0
  8  4  1  0
  9  2  1  0
  9 10  2  0
 12 11  1  6
 12 13  1  0
 12 14  1  0
 14 15  1  6
 14 16  1  0
 15  9  1  0
 16 17  2  0
 16 18  1  0
 18 19  1  0
 19 22  1  0
 19 20  1  1
 20 21  1  0
 22 24  2  0
 22 23  1  0
M  END
$$$$
