HVC.pdb
     RDKit          3D

 24 24  0  0  1  0  0  0  0  0999 V2000
    8.8638  -17.3696   15.8742 N   0  0  0  0  0  0  0  0  0  0  0  0
    8.2056  -17.6412   17.1235 C   0  0  1  0  0  0  0  0  0  0  0  0
    8.2998  -19.1241   17.3929 C   0  0  0  0  0  0  0  0  0  0  0  0
    7.4403  -19.8140   16.3996 C   0  0  0  0  0  0  0  0  0  0  0  0
    6.0502  -19.9531   16.4353 C   0  0  0  0  0  0  0  0  0  0  0  0
    5.6460  -20.6386   15.3610 N   0  0  0  0  0  0  0  0  0  0  0  0
    6.7194  -20.9496   14.6298 C   0  0  0  0  0  0  0  0  0  0  0  0
    7.8102  -20.4426   15.2707 N   0  0  0  0  0  0  0  0  0  0  0  0
    8.7605  -16.8311   18.2389 C   0  0  0  0  0  0  0  0  0  0  0  0
    9.9597  -16.9841   18.5853 O   0  0  0  0  0  0  0  0  0  0  0  0
    8.1181  -13.1067   21.5388 C   0  0  0  0  0  0  0  0  0  0  0  0
    7.5545  -14.0054   20.4875 C   0  0  2  0  0  0  0  0  0  0  0  0
    6.2354  -14.6115   20.8799 C   0  0  0  0  0  0  0  0  0  0  0  0
    8.5287  -15.0757   20.0436 C   0  0  2  0  0  0  0  0  0  0  0  0
    7.9985  -15.8681   18.9572 N   0  0  0  0  0  0  0  0  0  0  0  0
    8.9705  -15.9228   21.1803 C   0  0  0  0  0  0  0  0  0  0  0  0
    8.3482  -16.9577   21.5288 O   0  0  0  0  0  0  0  0  0  0  0  0
   10.1357  -15.6168   21.9555 N   0  0  0  0  0  0  0  0  0  0  0  0
   10.5995  -16.4534   23.0450 C   0  0  1  0  0  0  0  0  0  0  0  0
   11.9016  -17.1344   22.7440 C   0  0  0  0  0  0  0  0  0  0  0  0
   13.0883  -15.8341   22.2673 S   0  0  0  0  0  0  0  0  0  0  0  0
   10.6174  -15.7141   24.3328 C   0  0  0  0  0  0  0  0  0  0  0  0
   10.9276  -16.3862   25.4983 O   0  0  0  0  0  0  0  0  0  0  0  0
   10.3594  -14.4854   24.4136 O   0  0  0  0  0  0  0  0  0  0  0  0
  2  1  1  6
  3  2  1  0
  4  3  1  0
  5  4  2  0
  6  7  1  0
  6  5  1  0
  7  8  2  0
  8  4  1  0
  9  2  1  0
  9 10  2  0
 12 11  1  1
 12 13  1  0
 12 14  1  0
 14 15  1  6
 14 16  1  0
 15  9  1  0
 16 17  2  0
 16 18  1  0
 18 19  1  0
 19 22  1  0
 19 20  1  6
 20 21  1  0
 22 24  2  0
 22 23  1  0
M  END
$$$$
