HVC.pdb
     RDKit          3D

 24 24  0  0  1  0  0  0  0  0999 V2000
   13.7842  -14.0525   17.6172 N   0  0  0  0  0  0  0  0  0  0  0  0
   12.7014  -14.9616   17.8791 C   0  0  1  0  0  0  0  0  0  0  0  0
   13.2563  -16.3661   17.8841 C   0  0  0  0  0  0  0  0  0  0  0  0
   13.6110  -16.7111   16.4853 C   0  0  0  0  0  0  0  0  0  0  0  0
   13.2590  -16.0137   15.3267 C   0  0  0  0  0  0  0  0  0  0  0  0
   13.7681  -16.6402   14.2609 N   0  0  0  0  0  0  0  0  0  0  0  0
   14.4364  -17.7166   14.6828 C   0  0  0  0  0  0  0  0  0  0  0  0
   14.3356  -17.7525   16.0416 N   0  0  0  0  0  0  0  0  0  0  0  0
   11.9863  -14.6354   19.1402 C   0  0  0  0  0  0  0  0  0  0  0  0
   12.6419  -14.4077   20.1889 O   0  0  0  0  0  0  0  0  0  0  0  0
    7.5218  -14.5083   19.5974 C   0  0  0  0  0  0  0  0  0  0  0  0
    8.5372  -13.6071   20.2198 C   0  0  2  0  0  0  0  0  0  0  0  0
    8.7341  -12.3282   19.4534 C   0  0  0  0  0  0  0  0  0  0  0  0
    9.8620  -14.2958   20.4686 C   0  0  2  0  0  0  0  0  0  0  0  0
   10.5687  -14.5632   19.2363 N   0  0  0  0  0  0  0  0  0  0  0  0
    9.6985  -15.5229   21.2886 C   0  0  0  0  0  0  0  0  0  0  0  0
    9.5692  -16.6625   20.7745 O   0  0  0  0  0  0  0  0  0  0  0  0
    9.6774  -15.4894   22.7206 N   0  0  0  0  0  0  0  0  0  0  0  0
    9.4205  -16.6628   23.5326 C   0  0  1  0  0  0  0  0  0  0  0  0
    9.7435  -16.4512   24.9820 C   0  0  0  0  0  0  0  0  0  0  0  0
   11.4820  -15.9068   25.0692 S   0  0  0  0  0  0  0  0  0  0  0  0
    8.0483  -17.1878   23.3163 C   0  0  0  0  0  0  0  0  0  0  0  0
    7.7081  -18.4283   23.8181 O   0  0  0  0  0  0  0  0  0  0  0  0
    7.1673  -16.5460   22.6880 O   0  0  0  0  0  0  0  0  0  0  0  0
  2  1  1  1
  3  2  1  0
  4  3  1  0
  5  4  2  0
  6  7  1  0
  6  5  1  0
  7  8  2  0
  8  4  1  0
  9  2  1  0
  9 10  2  0
 12 11  1  6
 12 13  1  0
 12 14  1  0
 14 15  1  6
 14 16  1  0
 15  9  1  0
 16 17  2  0
 16 18  1  0
 18 19  1  0
 19 22  1  0
 19 20  1  1
 20 21  1  0
 22 24  2  0
 22 23  1  0
M  END
$$$$
