PTR.pdb
     RDKit          3D

 26 26  0  0  1  0  0  0  0  0999 V2000
   19.8120   -8.4450  -15.7672 N   0  0  0  0  0  0  0  0  0  0  0  0
   20.1321   -9.4672  -16.7525 C   0  0  0  0  0  0  0  0  0  0  0  0
   21.2239  -10.3281  -16.1775 C   0  0  0  0  0  0  0  0  0  0  0  0
   21.5889   -9.5922  -14.8794 C   0  0  0  0  0  0  0  0  0  0  0  0
   20.2169   -9.0589  -14.5146 C   0  0  1  0  0  0  0  0  0  0  0  0
   20.2175   -8.1198  -13.3925 C   0  0  0  0  0  0  0  0  0  0  0  0
   20.5649   -8.4360  -12.2242 O   0  0  0  0  0  0  0  0  0  0  0  0
   22.0705   -4.8912  -13.2852 C   0  0  0  0  0  0  0  0  0  0  0  0
   20.6362   -4.5539  -12.9533 C   0  0  1  0  0  0  0  0  0  0  0  0
   20.0659   -3.8806  -14.0487 O   0  0  0  0  0  0  0  0  0  0  0  0
   19.8372   -5.7766  -12.5876 C   0  0  2  0  0  0  0  0  0  0  0  0
   19.8083   -6.7754  -13.6076 N   0  0  0  0  0  0  0  0  0  0  0  0
   18.4568   -5.3995  -12.1322 C   0  0  0  0  0  0  0  0  0  0  0  0
   17.4834   -5.3395  -12.9379 O   0  0  0  0  0  0  0  0  0  0  0  0
   13.6150   -8.4290   -5.9823 N   0  0  0  0  0  0  0  0  0  0  0  0
   12.9513   -8.4048   -7.2195 C   0  0  0  0  0  0  0  0  0  0  0  0
   11.8850   -9.1298   -7.3886 N   0  0  0  0  0  0  0  0  0  0  0  0
   13.4421   -7.5941   -8.2757 N   0  0  0  0  0  0  0  0  0  0  0  0
   14.6962   -6.8914   -8.1648 C   0  0  0  0  0  0  0  0  0  0  0  0
   15.0522   -6.1430   -9.4561 C   0  0  0  0  0  0  0  0  0  0  0  0
   16.3437   -5.4305   -9.1778 C   0  0  0  0  0  0  0  0  0  0  0  0
   16.8838   -4.6422  -10.3312 C   0  0  2  0  0  0  0  0  0  0  0  0
   18.1817   -5.0927  -10.7756 N   0  0  0  0  0  0  0  0  0  0  0  0
   17.0538   -3.2381   -9.8310 C   0  0  0  0  0  0  0  0  0  0  0  0
   15.9547   -2.4223   -9.6400 O   0  0  0  0  0  0  0  0  0  0  0  0
   18.1909   -2.7689   -9.5746 O   0  0  0  0  0  0  0  0  0  0  0  0
  2  1  1  0
  3  2  1  0
  4  3  1  0
  4  5  1  0
  5  1  1  0
  5  6  1  1
  6  7  2  0
  9  8  1  6
 10  9  1  0
 11  9  1  0
 11 12  1  6
 12  6  1  0
 13 11  1  0
 14 13  2  0
 16 15  1  0
 17 16  2  0
 18 16  1  0
 19 18  1  0
 20 19  1  0
 20 21  1  0
 22 21  1  1
 22 24  1  0
 22 23  1  0
 23 13  1  0
 24 25  1  0
 26 24  2  0
M  END
$$$$
