PTR.pdb
     RDKit          3D

 26 26  0  0  1  0  0  0  0  0999 V2000
   28.2920  -23.1181  -18.7079 N   0  0  0  0  0  0  0  0  0  0  0  0
   28.9298  -23.9446  -19.7220 C   0  0  0  0  0  0  0  0  0  0  0  0
   30.4179  -23.7769  -19.5765 C   0  0  0  0  0  0  0  0  0  0  0  0
   30.5332  -22.6670  -18.5205 C   0  0  0  0  0  0  0  0  0  0  0  0
   29.3157  -23.0081  -17.6832 C   0  0  1  0  0  0  0  0  0  0  0  0
   28.9940  -22.0133  -16.6595 C   0  0  0  0  0  0  0  0  0  0  0  0
   29.7389  -21.7666  -15.6746 O   0  0  0  0  0  0  0  0  0  0  0  0
   26.7813  -17.8783  -15.4164 C   0  0  0  0  0  0  0  0  0  0  0  0
   27.1102  -18.9298  -16.4496 C   0  0  1  0  0  0  0  0  0  0  0  0
   28.1968  -18.4799  -17.2211 O   0  0  0  0  0  0  0  0  0  0  0  0
   27.4020  -20.2674  -15.8229 C   0  0  2  0  0  0  0  0  0  0  0  0
   27.7836  -21.2746  -16.7602 N   0  0  0  0  0  0  0  0  0  0  0  0
   26.2616  -20.7130  -14.9533 C   0  0  0  0  0  0  0  0  0  0  0  0
   25.2173  -21.2345  -15.4409 O   0  0  0  0  0  0  0  0  0  0  0  0
   21.7340  -20.6690   -8.7463 N   0  0  0  0  0  0  0  0  0  0  0  0
   22.6399  -21.1495   -7.7868 C   0  0  0  0  0  0  0  0  0  0  0  0
   22.1955  -21.8238   -6.7675 N   0  0  0  0  0  0  0  0  0  0  0  0
   24.0293  -20.9003   -7.9311 N   0  0  0  0  0  0  0  0  0  0  0  0
   24.5430  -20.1096   -9.0218 C   0  0  0  0  0  0  0  0  0  0  0  0
   24.1785  -20.7073  -10.3871 C   0  0  0  0  0  0  0  0  0  0  0  0
   25.3669  -20.4694  -11.2727 C   0  0  0  0  0  0  0  0  0  0  0  0
   25.1783  -20.8894  -12.6980 C   0  0  2  0  0  0  0  0  0  0  0  0
   26.3040  -20.5690  -13.5435 N   0  0  0  0  0  0  0  0  0  0  0  0
   24.0067  -20.1049  -13.2104 C   0  0  0  0  0  0  0  0  0  0  0  0
   22.7458  -20.6696  -13.2493 O   0  0  0  0  0  0  0  0  0  0  0  0
   24.1386  -18.9228  -13.6154 O   0  0  0  0  0  0  0  0  0  0  0  0
  2  1  1  0
  3  2  1  0
  4  3  1  0
  4  5  1  0
  5  1  1  0
  5  6  1  1
  6  7  2  0
  9  8  1  1
 10  9  1  0
 11  9  1  0
 11 12  1  6
 12  6  1  0
 13 11  1  0
 14 13  2  0
 16 15  1  0
 17 16  2  0
 18 16  1  0
 19 18  1  0
 20 19  1  0
 20 21  1  0
 22 21  1  1
 22 24  1  0
 22 23  1  0
 23 13  1  0
 24 25  1  0
 26 24  2  0
M  END
$$$$
