PTR.pdb
     RDKit          3D

 26 26  0  0  1  0  0  0  0  0999 V2000
   21.3294  -15.2659  -17.3717 N   0  0  0  0  0  0  0  0  0  0  0  0
   20.3149  -14.3130  -17.7971 C   0  0  0  0  0  0  0  0  0  0  0  0
   18.9695  -14.9119  -17.4890 C   0  0  0  0  0  0  0  0  0  0  0  0
   19.3281  -16.3310  -17.0225 C   0  0  0  0  0  0  0  0  0  0  0  0
   20.6491  -16.0306  -16.3410 C   0  0  1  0  0  0  0  0  0  0  0  0
   21.3943  -17.2197  -15.9269 C   0  0  0  0  0  0  0  0  0  0  0  0
   21.0260  -17.9776  -14.9911 O   0  0  0  0  0  0  0  0  0  0  0  0
   22.1363  -20.3884  -17.5886 C   0  0  0  0  0  0  0  0  0  0  0  0
   23.4744  -19.7355  -17.3348 C   0  0  1  0  0  0  0  0  0  0  0  0
   23.9458  -19.1888  -18.5420 O   0  0  0  0  0  0  0  0  0  0  0  0
   23.3981  -18.6896  -16.2545 C   0  0  2  0  0  0  0  0  0  0  0  0
   22.5998  -17.5574  -16.6005 N   0  0  0  0  0  0  0  0  0  0  0  0
   24.7713  -18.2892  -15.7969 C   0  0  0  0  0  0  0  0  0  0  0  0
   25.3219  -17.2232  -16.1979 O   0  0  0  0  0  0  0  0  0  0  0  0
   24.1875  -21.0718  -11.1630 N   0  0  0  0  0  0  0  0  0  0  0  0
   24.9901  -21.9322  -11.9294 C   0  0  0  0  0  0  0  0  0  0  0  0
   24.4342  -22.8954  -12.6037 N   0  0  0  0  0  0  0  0  0  0  0  0
   26.3968  -21.7498  -11.9667 N   0  0  0  0  0  0  0  0  0  0  0  0
   27.0321  -20.6530  -11.2796 C   0  0  0  0  0  0  0  0  0  0  0  0
   26.9510  -19.3474  -12.0817 C   0  0  0  0  0  0  0  0  0  0  0  0
   27.4262  -19.6828  -13.4655 C   0  0  0  0  0  0  0  0  0  0  0  0
   26.8844  -18.7963  -14.5444 C   0  0  2  0  0  0  0  0  0  0  0  0
   25.5143  -19.0899  -14.8931 N   0  0  0  0  0  0  0  0  0  0  0  0
   27.7159  -19.0696  -15.7628 C   0  0  0  0  0  0  0  0  0  0  0  0
   28.8818  -18.3631  -15.9908 O   0  0  0  0  0  0  0  0  0  0  0  0
   27.3779  -19.9407  -16.6029 O   0  0  0  0  0  0  0  0  0  0  0  0
  2  1  1  0
  3  2  1  0
  4  3  1  0
  4  5  1  0
  5  1  1  0
  5  6  1  6
  6  7  2  0
  9  8  1  6
 10  9  1  0
 11  9  1  0
 11 12  1  6
 12  6  1  0
 13 11  1  0
 14 13  2  0
 16 15  1  0
 17 16  2  0
 18 16  1  0
 19 18  1  0
 20 19  1  0
 20 21  1  0
 22 21  1  1
 22 24  1  0
 22 23  1  0
 23 13  1  0
 24 25  1  0
 26 24  2  0
M  END
$$$$
