PTR.pdb
     RDKit          3D

 26 26  0  0  1  0  0  0  0  0999 V2000
   23.4079  -18.8658  -16.8667 N   0  0  0  0  0  0  0  0  0  0  0  0
   23.3422  -20.3188  -16.8162 C   0  0  0  0  0  0  0  0  0  0  0  0
   22.9666  -20.7093  -15.4125 C   0  0  0  0  0  0  0  0  0  0  0  0
   23.0014  -19.3673  -14.6657 C   0  0  0  0  0  0  0  0  0  0  0  0
   22.5278  -18.4600  -15.7847 C   0  0  1  0  0  0  0  0  0  0  0  0
   22.6201  -17.0321  -15.4788 C   0  0  0  0  0  0  0  0  0  0  0  0
   21.9123  -16.4630  -14.6065 O   0  0  0  0  0  0  0  0  0  0  0  0
   25.9472  -15.0415  -14.7842 C   0  0  0  0  0  0  0  0  0  0  0  0
   25.1763  -14.4014  -15.9144 C   0  0  1  0  0  0  0  0  0  0  0  0
   25.8157  -14.7106  -17.1285 O   0  0  0  0  0  0  0  0  0  0  0  0
   23.7339  -14.8327  -15.9313 C   0  0  2  0  0  0  0  0  0  0  0  0
   23.5491  -16.2247  -16.1901 N   0  0  0  0  0  0  0  0  0  0  0  0
   22.9285  -13.9765  -16.8659 C   0  0  0  0  0  0  0  0  0  0  0  0
   22.6650  -14.3461  -18.0467 O   0  0  0  0  0  0  0  0  0  0  0  0
   16.4025   -8.7487  -14.7342 N   0  0  0  0  0  0  0  0  0  0  0  0
   16.0110   -9.5378  -15.8278 C   0  0  0  0  0  0  0  0  0  0  0  0
   14.7482   -9.6482  -16.1184 N   0  0  0  0  0  0  0  0  0  0  0  0
   16.9877  -10.2082  -16.6087 N   0  0  0  0  0  0  0  0  0  0  0  0
   18.3846  -10.1813  -16.2524 C   0  0  0  0  0  0  0  0  0  0  0  0
   19.2196  -11.1255  -17.1274 C   0  0  0  0  0  0  0  0  0  0  0  0
   20.6219  -11.0474  -16.5976 C   0  0  0  0  0  0  0  0  0  0  0  0
   21.6163  -11.8909  -17.3346 C   0  0  2  0  0  0  0  0  0  0  0  0
   22.4262  -12.7124  -16.4662 N   0  0  0  0  0  0  0  0  0  0  0  0
   22.5433  -10.9333  -18.0234 C   0  0  0  0  0  0  0  0  0  0  0  0
   22.2032  -10.3815  -19.2441 O   0  0  0  0  0  0  0  0  0  0  0  0
   23.6453  -10.6097  -17.5140 O   0  0  0  0  0  0  0  0  0  0  0  0
  2  1  1  0
  3  2  1  0
  4  3  1  0
  4  5  1  0
  5  1  1  0
  5  6  1  1
  6  7  2  0
  9  8  1  1
 10  9  1  0
 11  9  1  0
 11 12  1  6
 12  6  1  0
 13 11  1  0
 14 13  2  0
 16 15  1  0
 17 16  2  0
 18 16  1  0
 19 18  1  0
 20 19  1  0
 20 21  1  0
 22 21  1  1
 22 24  1  0
 22 23  1  0
 23 13  1  0
 24 25  1  0
 26 24  2  0
M  END
$$$$
