PTR.pdb
     RDKit          3D

 26 26  0  0  1  0  0  0  0  0999 V2000
   23.3061  -19.3151  -17.2098 N   0  0  0  0  0  0  0  0  0  0  0  0
   23.1298  -20.7201  -17.5460 C   0  0  0  0  0  0  0  0  0  0  0  0
   23.7288  -21.5340  -16.4311 C   0  0  0  0  0  0  0  0  0  0  0  0
   24.3935  -20.4656  -15.5498 C   0  0  0  0  0  0  0  0  0  0  0  0
   23.4053  -19.3348  -15.7607 C   0  0  1  0  0  0  0  0  0  0  0  0
   23.8328  -18.0525  -15.2004 C   0  0  0  0  0  0  0  0  0  0  0  0
   23.9897  -17.8529  -13.9669 O   0  0  0  0  0  0  0  0  0  0  0  0
   26.8844  -16.2212  -15.1448 C   0  0  0  0  0  0  0  0  0  0  0  0
   25.9282  -15.3353  -15.9079 C   0  0  1  0  0  0  0  0  0  0  0  0
   26.2074  -15.4481  -17.2818 O   0  0  0  0  0  0  0  0  0  0  0  0
   24.4898  -15.6692  -15.6136 C   0  0  2  0  0  0  0  0  0  0  0  0
   24.0898  -16.9604  -16.0734 N   0  0  0  0  0  0  0  0  0  0  0  0
   23.5749  -14.5877  -16.1120 C   0  0  0  0  0  0  0  0  0  0  0  0
   22.8691  -14.7395  -17.1509 O   0  0  0  0  0  0  0  0  0  0  0  0
   20.8879   -7.0509  -12.2155 N   0  0  0  0  0  0  0  0  0  0  0  0
   20.4627   -6.8815  -13.5431 C   0  0  0  0  0  0  0  0  0  0  0  0
   19.8368   -5.7928  -13.8812 N   0  0  0  0  0  0  0  0  0  0  0  0
   20.7157   -7.8919  -14.5067 N   0  0  0  0  0  0  0  0  0  0  0  0
   21.4688   -9.0760  -14.1758 C   0  0  0  0  0  0  0  0  0  0  0  0
   21.5176  -10.0713  -15.3426 C   0  0  0  0  0  0  0  0  0  0  0  0
   22.3732  -11.2129  -14.8760 C   0  0  0  0  0  0  0  0  0  0  0  0
   22.5684  -12.3014  -15.8864 C   0  0  2  0  0  0  0  0  0  0  0  0
   23.4607  -13.3448  -15.4395 N   0  0  0  0  0  0  0  0  0  0  0  0
   23.2120  -11.6528  -17.0762 C   0  0  0  0  0  0  0  0  0  0  0  0
   22.4407  -11.1725  -18.1176 O   0  0  0  0  0  0  0  0  0  0  0  0
   24.4598  -11.5297  -17.1582 O   0  0  0  0  0  0  0  0  0  0  0  0
  2  1  1  0
  3  2  1  0
  4  3  1  0
  4  5  1  0
  5  1  1  0
  5  6  1  6
  6  7  2  0
  9  8  1  1
 10  9  1  0
 11  9  1  0
 11 12  1  6
 12  6  1  0
 13 11  1  0
 14 13  2  0
 16 15  1  0
 17 16  2  0
 18 16  1  0
 19 18  1  0
 20 19  1  0
 20 21  1  0
 22 21  1  1
 22 24  1  0
 22 23  1  0
 23 13  1  0
 24 25  1  0
 26 24  2  0
M  END
$$$$
