PTR.pdb
     RDKit          3D

 26 26  0  0  1  0  0  0  0  0999 V2000
   26.7057  -21.3693  -16.6050 N   0  0  0  0  0  0  0  0  0  0  0  0
   28.0373  -21.7448  -17.0566 C   0  0  0  0  0  0  0  0  0  0  0  0
   28.9720  -20.6197  -16.7039 C   0  0  0  0  0  0  0  0  0  0  0  0
   28.0170  -19.5355  -16.1820 C   0  0  0  0  0  0  0  0  0  0  0  0
   26.9766  -20.4275  -15.5328 C   0  0  1  0  0  0  0  0  0  0  0  0
   25.7791  -19.7198  -15.0786 C   0  0  0  0  0  0  0  0  0  0  0  0
   25.7822  -18.8889  -14.1323 O   0  0  0  0  0  0  0  0  0  0  0  0
   22.6148  -18.8328  -17.7056 C   0  0  0  0  0  0  0  0  0  0  0  0
   22.8736  -18.2597  -16.3324 C   0  0  1  0  0  0  0  0  0  0  0  0
   21.7072  -17.6121  -15.8866 O   0  0  0  0  0  0  0  0  0  0  0  0
   23.3212  -19.3133  -15.3544 C   0  0  2  0  0  0  0  0  0  0  0  0
   24.5362  -19.9664  -15.7231 N   0  0  0  0  0  0  0  0  0  0  0  0
   22.2177  -20.2943  -15.0799 C   0  0  0  0  0  0  0  0  0  0  0  0
   22.0881  -21.3562  -15.7551 O   0  0  0  0  0  0  0  0  0  0  0  0
   17.0156  -24.3037  -10.1024 N   0  0  0  0  0  0  0  0  0  0  0  0
   18.2818  -24.0761   -9.5396 C   0  0  0  0  0  0  0  0  0  0  0  0
   18.8357  -25.0019   -8.8134 N   0  0  0  0  0  0  0  0  0  0  0  0
   18.9501  -22.8445   -9.7633 N   0  0  0  0  0  0  0  0  0  0  0  0
   18.3471  -21.7915  -10.5421 C   0  0  0  0  0  0  0  0  0  0  0  0
   18.6320  -21.9499  -12.0416 C   0  0  0  0  0  0  0  0  0  0  0  0
   19.7250  -20.9716  -12.3598 C   0  0  0  0  0  0  0  0  0  0  0  0
   20.1859  -20.9911  -13.7849 C   0  0  2  0  0  0  0  0  0  0  0  0
   21.2693  -20.0740  -14.0494 N   0  0  0  0  0  0  0  0  0  0  0  0
   19.0154  -20.5368  -14.6059 C   0  0  0  0  0  0  0  0  0  0  0  0
   18.9415  -19.2349  -15.0640 O   0  0  0  0  0  0  0  0  0  0  0  0
   18.0775  -21.3207  -14.8970 O   0  0  0  0  0  0  0  0  0  0  0  0
  2  1  1  0
  3  2  1  0
  4  3  1  0
  4  5  1  0
  5  1  1  0
  5  6  1  6
  6  7  2  0
  9  8  1  6
 10  9  1  0
 11  9  1  0
 11 12  1  6
 12  6  1  0
 13 11  1  0
 14 13  2  0
 16 15  1  0
 17 16  2  0
 18 16  1  0
 19 18  1  0
 20 19  1  0
 20 21  1  0
 22 21  1  1
 22 24  1  0
 22 23  1  0
 23 13  1  0
 24 25  1  0
 26 24  2  0
M  END
$$$$
