PTR.pdb
     RDKit          3D

 26 26  0  0  1  0  0  0  0  0999 V2000
   30.8412  -20.2064  -11.4500 N   0  0  0  0  0  0  0  0  0  0  0  0
   31.6269  -21.2761  -10.8530 C   0  0  0  0  0  0  0  0  0  0  0  0
   30.7018  -22.4362  -10.6036 C   0  0  0  0  0  0  0  0  0  0  0  0
   29.3239  -21.8531  -10.9522 C   0  0  0  0  0  0  0  0  0  0  0  0
   29.7379  -20.9179  -12.0718 C   0  0  1  0  0  0  0  0  0  0  0  0
   28.6727  -20.0275  -12.5342 C   0  0  0  0  0  0  0  0  0  0  0  0
   28.7716  -18.7721  -12.5378 O   0  0  0  0  0  0  0  0  0  0  0  0
   28.0511  -18.0911  -14.5115 C   0  0  0  0  0  0  0  0  0  0  0  0
   26.9495  -19.0600  -14.8704 C   0  0  1  0  0  0  0  0  0  0  0  0
   27.4245  -19.9355  -15.8637 O   0  0  0  0  0  0  0  0  0  0  0  0
   26.4480  -19.8172  -13.6695 C   0  0  2  0  0  0  0  0  0  0  0  0
   27.4538  -20.5849  -13.0080 N   0  0  0  0  0  0  0  0  0  0  0  0
   25.2482  -20.6489  -14.0218 C   0  0  0  0  0  0  0  0  0  0  0  0
   25.3594  -21.8519  -14.3970 O   0  0  0  0  0  0  0  0  0  0  0  0
   17.2468  -19.5213  -15.2578 N   0  0  0  0  0  0  0  0  0  0  0  0
   16.9137  -20.5625  -14.3764 C   0  0  0  0  0  0  0  0  0  0  0  0
   15.7496  -21.1343  -14.4714 N   0  0  0  0  0  0  0  0  0  0  0  0
   17.8424  -20.9862  -13.3908 N   0  0  0  0  0  0  0  0  0  0  0  0
   19.1151  -20.3295  -13.2239 C   0  0  0  0  0  0  0  0  0  0  0  0
   20.2509  -21.0910  -13.9198 C   0  0  0  0  0  0  0  0  0  0  0  0
   21.4973  -20.2931  -13.6690 C   0  0  0  0  0  0  0  0  0  0  0  0
   22.7602  -20.9386  -14.1509 C   0  0  2  0  0  0  0  0  0  0  0  0
   23.9340  -20.1221  -13.9498 N   0  0  0  0  0  0  0  0  0  0  0  0
   22.5969  -21.1158  -15.6317 C   0  0  0  0  0  0  0  0  0  0  0  0
   23.2115  -20.2486  -16.5151 O   0  0  0  0  0  0  0  0  0  0  0  0
   21.9022  -22.0494  -16.1055 O   0  0  0  0  0  0  0  0  0  0  0  0
  2  1  1  0
  3  2  1  0
  4  3  1  0
  4  5  1  0
  5  1  1  0
  5  6  1  1
  6  7  2  0
  9  8  1  1
 10  9  1  0
 11  9  1  0
 11 12  1  6
 12  6  1  0
 13 11  1  0
 14 13  2  0
 16 15  1  0
 17 16  2  0
 18 16  1  0
 19 18  1  0
 20 19  1  0
 20 21  1  0
 22 21  1  6
 22 24  1  0
 22 23  1  0
 23 13  1  0
 24 25  1  0
 26 24  2  0
M  END
$$$$
