PTR.pdb
     RDKit          3D

 26 26  0  0  1  0  0  0  0  0999 V2000
   31.0502  -11.1796  -19.1335 N   0  0  0  0  0  0  0  0  0  0  0  0
   32.0443  -12.1934  -18.8136 C   0  0  0  0  0  0  0  0  0  0  0  0
   32.7024  -11.7941  -17.5208 C   0  0  0  0  0  0  0  0  0  0  0  0
   32.1102  -10.4020  -17.2538 C   0  0  0  0  0  0  0  0  0  0  0  0
   30.7258  -10.6172  -17.8341 C   0  0  1  0  0  0  0  0  0  0  0  0
   29.9176   -9.4007  -17.9244 C   0  0  0  0  0  0  0  0  0  0  0  0
   29.5197   -8.7568  -16.9180 O   0  0  0  0  0  0  0  0  0  0  0  0
   28.7729   -5.3530  -20.2806 C   0  0  0  0  0  0  0  0  0  0  0  0
   29.5930   -6.6068  -20.0889 C   0  0  1  0  0  0  0  0  0  0  0  0
   30.7624   -6.2770  -19.3801 O   0  0  0  0  0  0  0  0  0  0  0  0
   28.8164   -7.6895  -19.3878 C   0  0  2  0  0  0  0  0  0  0  0  0
   29.5496   -8.9007  -19.2032 N   0  0  0  0  0  0  0  0  0  0  0  0
   27.4980   -7.9294  -20.0658 C   0  0  0  0  0  0  0  0  0  0  0  0
   27.4131   -8.5921  -21.1400 O   0  0  0  0  0  0  0  0  0  0  0  0
   20.6030  -12.0036  -17.7147 N   0  0  0  0  0  0  0  0  0  0  0  0
   20.0910  -11.3602  -18.8531 C   0  0  0  0  0  0  0  0  0  0  0  0
   18.9191  -11.6962  -19.3060 N   0  0  0  0  0  0  0  0  0  0  0  0
   20.8483  -10.3511  -19.5023 N   0  0  0  0  0  0  0  0  0  0  0  0
   22.1573   -9.9721  -19.0314 C   0  0  0  0  0  0  0  0  0  0  0  0
   22.7871   -8.8771  -19.9025 C   0  0  0  0  0  0  0  0  0  0  0  0
   24.1662   -8.6547  -19.3532 C   0  0  0  0  0  0  0  0  0  0  0  0
   25.0023   -7.6890  -20.1355 C   0  0  2  0  0  0  0  0  0  0  0  0
   26.2865   -7.4227  -19.5314 N   0  0  0  0  0  0  0  0  0  0  0  0
   24.2438   -6.3947  -20.1433 C   0  0  0  0  0  0  0  0  0  0  0  0
   23.0922   -6.2597  -20.8955 O   0  0  0  0  0  0  0  0  0  0  0  0
   24.6316   -5.4059  -19.4721 O   0  0  0  0  0  0  0  0  0  0  0  0
  2  1  1  0
  3  2  1  0
  4  3  1  0
  4  5  1  0
  5  1  1  0
  5  6  1  6
  6  7  2  0
  9  8  1  1
 10  9  1  0
 11  9  1  0
 11 12  1  6
 12  6  1  0
 13 11  1  0
 14 13  2  0
 16 15  1  0
 17 16  2  0
 18 16  1  0
 19 18  1  0
 20 19  1  0
 20 21  1  0
 22 21  1  1
 22 24  1  0
 22 23  1  0
 23 13  1  0
 24 25  1  0
 26 24  2  0
M  END
$$$$
