PTR.pdb
     RDKit          3D

 26 26  0  0  1  0  0  0  0  0999 V2000
   14.0680  -10.0674  -11.1843 N   0  0  0  0  0  0  0  0  0  0  0  0
   13.9037  -11.4885  -10.9167 C   0  0  0  0  0  0  0  0  0  0  0  0
   15.2762  -12.1019  -10.8538 C   0  0  0  0  0  0  0  0  0  0  0  0
   16.1875  -10.9397  -11.2766 C   0  0  0  0  0  0  0  0  0  0  0  0
   15.4007   -9.7903  -10.6771 C   0  0  1  0  0  0  0  0  0  0  0  0
   15.8917   -8.4651  -11.0565 C   0  0  0  0  0  0  0  0  0  0  0  0
   15.6441   -7.9261  -12.1673 O   0  0  0  0  0  0  0  0  0  0  0  0
   16.0309   -5.1901   -8.7864 C   0  0  0  0  0  0  0  0  0  0  0  0
   17.3991   -5.5146   -9.3377 C   0  0  1  0  0  0  0  0  0  0  0  0
   18.2037   -6.0000   -8.2911 O   0  0  0  0  0  0  0  0  0  0  0  0
   17.3321   -6.4976  -10.4762 C   0  0  2  0  0  0  0  0  0  0  0  0
   16.6918   -7.7289  -10.1407 N   0  0  0  0  0  0  0  0  0  0  0  0
   18.6910   -6.7171  -11.0766 C   0  0  0  0  0  0  0  0  0  0  0  0
   19.4316   -7.6765  -10.7141 O   0  0  0  0  0  0  0  0  0  0  0  0
   21.2453   -9.8190  -17.9807 N   0  0  0  0  0  0  0  0  0  0  0  0
   20.8175  -10.1144  -16.6763 C   0  0  0  0  0  0  0  0  0  0  0  0
   20.2430  -11.2557  -16.4336 N   0  0  0  0  0  0  0  0  0  0  0  0
   21.0121   -9.1733  -15.6323 N   0  0  0  0  0  0  0  0  0  0  0  0
   21.4987   -7.8426  -15.8994 C   0  0  0  0  0  0  0  0  0  0  0  0
   21.7855   -7.0651  -14.6081 C   0  0  0  0  0  0  0  0  0  0  0  0
   20.4527   -6.8463  -13.9532 C   0  0  0  0  0  0  0  0  0  0  0  0
   20.5035   -6.0583  -12.6804 C   0  0  2  0  0  0  0  0  0  0  0  0
   19.2064   -5.8569  -12.0788 N   0  0  0  0  0  0  0  0  0  0  0  0
   21.0307   -4.7037  -13.0515 C   0  0  0  0  0  0  0  0  0  0  0  0
   22.3675   -4.5292  -13.3558 O   0  0  0  0  0  0  0  0  0  0  0  0
   20.2777   -3.6988  -13.0950 O   0  0  0  0  0  0  0  0  0  0  0  0
  2  1  1  0
  3  2  1  0
  4  3  1  0
  4  5  1  0
  5  1  1  0
  5  6  1  6
  6  7  2  0
  9  8  1  1
 10  9  1  0
 11  9  1  0
 11 12  1  1
 12  6  1  0
 13 11  1  0
 14 13  2  0
 16 15  1  0
 17 16  2  0
 18 16  1  0
 19 18  1  0
 20 19  1  0
 20 21  1  0
 22 21  1  6
 22 24  1  0
 22 23  1  0
 23 13  1  0
 24 25  1  0
 26 24  2  0
M  END
$$$$
