PTR.pdb
     RDKit          3D

 26 26  0  0  1  0  0  0  0  0999 V2000
   22.4072  -15.3297  -17.4258 N   0  0  0  0  0  0  0  0  0  0  0  0
   22.0735  -16.6751  -17.8692 C   0  0  0  0  0  0  0  0  0  0  0  0
   21.2259  -17.3099  -16.8003 C   0  0  0  0  0  0  0  0  0  0  0  0
   21.2684  -16.2698  -15.6705 C   0  0  0  0  0  0  0  0  0  0  0  0
   21.3259  -15.0086  -16.5105 C   0  0  1  0  0  0  0  0  0  0  0  0
   21.5716  -13.7874  -15.7427 C   0  0  0  0  0  0  0  0  0  0  0  0
   20.8063  -13.3759  -14.8313 O   0  0  0  0  0  0  0  0  0  0  0  0
   25.2706  -12.5826  -14.5416 C   0  0  0  0  0  0  0  0  0  0  0  0
   24.5083  -11.4937  -15.2587 C   0  0  1  0  0  0  0  0  0  0  0  0
   25.0643  -11.3220  -16.5393 O   0  0  0  0  0  0  0  0  0  0  0  0
   23.0348  -11.7928  -15.3387 C   0  0  2  0  0  0  0  0  0  0  0  0
   22.7273  -13.0081  -16.0221 N   0  0  0  0  0  0  0  0  0  0  0  0
   22.2798  -10.6243  -15.9044 C   0  0  0  0  0  0  0  0  0  0  0  0
   22.0405  -10.5231  -17.1425 O   0  0  0  0  0  0  0  0  0  0  0  0
   14.4156   -8.1533  -14.9967 N   0  0  0  0  0  0  0  0  0  0  0  0
   14.9107   -7.0283  -15.6759 C   0  0  0  0  0  0  0  0  0  0  0  0
   14.0790   -6.1409  -16.1365 N   0  0  0  0  0  0  0  0  0  0  0  0
   16.3083   -6.8630  -15.8566 N   0  0  0  0  0  0  0  0  0  0  0  0
   17.2476   -7.8658  -15.4196 C   0  0  0  0  0  0  0  0  0  0  0  0
   18.6936   -7.4914  -15.7710 C   0  0  0  0  0  0  0  0  0  0  0  0
   19.5371   -8.6580  -15.3461 C   0  0  0  0  0  0  0  0  0  0  0  0
   21.0058   -8.4874  -15.5853 C   0  0  2  0  0  0  0  0  0  0  0  0
   21.8003   -9.5796  -15.0746 N   0  0  0  0  0  0  0  0  0  0  0  0
   21.4100   -7.2580  -14.8266 C   0  0  0  0  0  0  0  0  0  0  0  0
   21.0647   -6.0020  -15.2887 O   0  0  0  0  0  0  0  0  0  0  0  0
   22.0684   -7.3356  -13.7593 O   0  0  0  0  0  0  0  0  0  0  0  0
  2  1  1  0
  3  2  1  0
  4  3  1  0
  4  5  1  0
  5  1  1  0
  5  6  1  1
  6  7  2  0
  9  8  1  6
 10  9  1  0
 11  9  1  0
 11 12  1  6
 12  6  1  0
 13 11  1  0
 14 13  2  0
 16 15  1  0
 17 16  2  0
 18 16  1  0
 19 18  1  0
 20 19  1  0
 20 21  1  0
 22 21  1  1
 22 24  1  0
 22 23  1  0
 23 13  1  0
 24 25  1  0
 26 24  2  0
M  END
$$$$
