SFE.pdb
     RDKit          3D

 27 27  0  0  1  0  0  0  0  0999 V2000
   26.6681  -19.4284  -14.0116 O   0  0  0  0  0  0  0  0  0  0  0  0
   28.0649  -19.6053  -13.9809 C   0  0  0  0  0  0  0  0  0  0  0  0
   28.2981  -20.9919  -13.4286 C   0  0  2  0  0  0  0  0  0  0  0  0
   27.7039  -21.9386  -14.3549 N   0  0  0  0  0  0  0  0  0  0  0  0
   27.7170  -21.2183  -12.0979 C   0  0  0  0  0  0  0  0  0  0  0  0
   26.7010  -21.9383  -11.9181 O   0  0  0  0  0  0  0  0  0  0  0  0
   28.2740  -20.6304  -10.9218 N   0  0  0  0  0  0  0  0  0  0  0  0
   27.7055  -20.7634   -9.6002 C   0  0  1  0  0  0  0  0  0  0  0  0
   28.6825  -20.1817   -8.6100 C   0  0  0  0  0  0  0  0  0  0  0  0
   28.1816  -20.1640   -7.2363 C   0  0  0  0  0  0  0  0  0  0  0  0
   28.9860  -20.6139   -6.2179 C   0  0  0  0  0  0  0  0  0  0  0  0
   28.5803  -20.6108   -4.8870 C   0  0  0  0  0  0  0  0  0  0  0  0
   27.3390  -20.1474   -4.5676 C   0  0  0  0  0  0  0  0  0  0  0  0
   26.5136  -19.6907   -5.5848 C   0  0  0  0  0  0  0  0  0  0  0  0
   26.9286  -19.6988   -6.8976 C   0  0  0  0  0  0  0  0  0  0  0  0
   26.3818  -20.1145   -9.5794 C   0  0  0  0  0  0  0  0  0  0  0  0
   26.2652  -18.8983   -9.8647 O   0  0  0  0  0  0  0  0  0  0  0  0
   25.2109  -20.8379   -9.2394 N   0  0  0  0  0  0  0  0  0  0  0  0
   23.8719  -20.2648   -9.4789 C   0  0  1  0  0  0  0  0  0  0  0  0
   23.4373  -20.7474  -10.8321 C   0  0  0  0  0  0  0  0  0  0  0  0
   22.0975  -20.2712  -11.2786 C   0  0  0  0  0  0  0  0  0  0  0  0
   21.7759  -20.7880  -12.6495 C   0  0  0  0  0  0  0  0  0  0  0  0
   20.7395  -21.4945  -12.8269 O   0  0  0  0  0  0  0  0  0  0  0  0
   22.9177  -20.7595   -8.4630 C   0  0  0  0  0  0  0  0  0  0  0  0
   21.7462  -20.2423   -8.4669 O   0  0  0  0  0  0  0  0  0  0  0  0
   22.6151  -20.4873  -13.7133 O   0  0  0  0  0  0  0  0  0  0  0  0
   23.1611  -21.7143   -7.5223 O   0  0  0  0  0  0  0  0  0  0  0  0
  2  1  1  0
  3  2  1  0
  3  4  1  6
  5  3  1  0
  5  6  2  0
  7  5  1  0
  8  7  1  0
  8  9  1  1
 10  9  1  0
 10 15  2  0
 11 10  1  0
 12 11  2  0
 12 13  1  0
 13 14  2  0
 14 15  1  0
 16  8  1  0
 17 16  2  0
 18 16  1  0
 19 24  1  0
 19 18  1  0
 19 20  1  6
 21 20  1  0
 21 22  1  0
 22 23  2  0
 24 27  1  0
 25 24  2  0
 26 22  1  0
M  END
$$$$
