SFE.pdb
     RDKit          3D

 27 27  0  0  1  0  0  0  0  0999 V2000
   12.0772  -10.7369  -10.2693 O   0  0  0  0  0  0  0  0  0  0  0  0
   13.0715   -9.8169   -9.8840 C   0  0  0  0  0  0  0  0  0  0  0  0
   14.3865  -10.5517   -9.9968 C   0  0  2  0  0  0  0  0  0  0  0  0
   14.4012  -11.5837   -8.9759 N   0  0  0  0  0  0  0  0  0  0  0  0
   15.5716   -9.7021   -9.8142 C   0  0  0  0  0  0  0  0  0  0  0  0
   16.0814   -9.4877   -8.6841 O   0  0  0  0  0  0  0  0  0  0  0  0
   16.2192   -9.0643  -10.9156 N   0  0  0  0  0  0  0  0  0  0  0  0
   17.3291   -8.1486  -10.7855 C   0  0  1  0  0  0  0  0  0  0  0  0
   18.3415   -8.4863  -11.8505 C   0  0  0  0  0  0  0  0  0  0  0  0
   19.4773   -7.5661  -11.8900 C   0  0  0  0  0  0  0  0  0  0  0  0
   19.5627   -6.6410  -12.9017 C   0  0  0  0  0  0  0  0  0  0  0  0
   20.6063   -5.7253  -12.9920 C   0  0  0  0  0  0  0  0  0  0  0  0
   21.5889   -5.7363  -12.0477 C   0  0  0  0  0  0  0  0  0  0  0  0
   21.5182   -6.6654  -11.0198 C   0  0  0  0  0  0  0  0  0  0  0  0
   20.4791   -7.5652  -10.9425 C   0  0  0  0  0  0  0  0  0  0  0  0
   16.8228   -6.7661  -10.8646 C   0  0  0  0  0  0  0  0  0  0  0  0
   16.0927   -6.4101  -11.8208 O   0  0  0  0  0  0  0  0  0  0  0  0
   17.1424   -5.8055   -9.8721 N   0  0  0  0  0  0  0  0  0  0  0  0
   16.7233   -4.3980  -10.0196 C   0  0  1  0  0  0  0  0  0  0  0  0
   16.5939   -3.8437   -8.6306 C   0  0  0  0  0  0  0  0  0  0  0  0
   15.3991   -4.3054   -7.8689 C   0  0  0  0  0  0  0  0  0  0  0  0
   14.1459   -3.6868   -8.4136 C   0  0  0  0  0  0  0  0  0  0  0  0
   14.1359   -2.4589   -8.7248 O   0  0  0  0  0  0  0  0  0  0  0  0
   17.7582   -3.6326  -10.7479 C   0  0  0  0  0  0  0  0  0  0  0  0
   18.8912   -4.2048  -10.9173 O   0  0  0  0  0  0  0  0  0  0  0  0
   13.0075   -4.4643   -8.5739 O   0  0  0  0  0  0  0  0  0  0  0  0
   17.6252   -2.3768  -11.2589 O   0  0  0  0  0  0  0  0  0  0  0  0
  2  1  1  0
  3  2  1  0
  3  4  1  1
  5  3  1  0
  5  6  2  0
  7  5  1  0
  8  7  1  0
  8  9  1  6
 10  9  1  0
 10 15  2  0
 11 10  1  0
 12 11  2  0
 12 13  1  0
 13 14  2  0
 14 15  1  0
 16  8  1  0
 17 16  2  0
 18 16  1  0
 19 24  1  0
 19 18  1  0
 19 20  1  1
 21 20  1  0
 21 22  1  0
 22 23  2  0
 24 27  1  0
 25 24  2  0
 26 22  1  0
M  END
$$$$
