SFE.pdb
     RDKit          3D

 27 27  0  0  1  0  0  0  0  0999 V2000
   43.9261   -8.6159   -5.4198 O   0  0  0  0  0  0  0  0  0  0  0  0
   42.5178   -8.6079   -5.4148 C   0  0  0  0  0  0  0  0  0  0  0  0
   42.0907   -9.8727   -6.1218 C   0  0  2  0  0  0  0  0  0  0  0  0
   43.2915  -10.5389   -6.5926 N   0  0  0  0  0  0  0  0  0  0  0  0
   41.2020   -9.6522   -7.2713 C   0  0  0  0  0  0  0  0  0  0  0  0
   41.6007   -9.7451   -8.4610 O   0  0  0  0  0  0  0  0  0  0  0  0
   39.8240   -9.3165   -7.1056 N   0  0  0  0  0  0  0  0  0  0  0  0
   38.9357   -8.9726   -8.1919 C   0  0  1  0  0  0  0  0  0  0  0  0
   37.5485   -9.4372   -7.8269 C   0  0  0  0  0  0  0  0  0  0  0  0
   37.3429  -10.8719   -8.0203 C   0  0  0  0  0  0  0  0  0  0  0  0
   37.1381  -11.6786   -6.9277 C   0  0  0  0  0  0  0  0  0  0  0  0
   36.9202  -13.0483   -7.0392 C   0  0  0  0  0  0  0  0  0  0  0  0
   36.9082  -13.6249   -8.2740 C   0  0  0  0  0  0  0  0  0  0  0  0
   37.1149  -12.8242   -9.3880 C   0  0  0  0  0  0  0  0  0  0  0  0
   37.3285  -11.4699   -9.2627 C   0  0  0  0  0  0  0  0  0  0  0  0
   39.0285   -7.5235   -8.4476 C   0  0  0  0  0  0  0  0  0  0  0  0
   39.0421   -6.7090   -7.4935 O   0  0  0  0  0  0  0  0  0  0  0  0
   39.1042   -7.0107   -9.7672 N   0  0  0  0  0  0  0  0  0  0  0  0
   39.2442   -5.5612  -10.0080 C   0  0  1  0  0  0  0  0  0  0  0  0
   40.5557   -5.3706  -10.7127 C   0  0  0  0  0  0  0  0  0  0  0  0
   40.8764   -3.9660  -11.0938 C   0  0  0  0  0  0  0  0  0  0  0  0
   42.1750   -3.8980  -11.8412 C   0  0  0  0  0  0  0  0  0  0  0  0
   43.1345   -4.6525  -11.5026 O   0  0  0  0  0  0  0  0  0  0  0  0
   38.1536   -5.0835  -10.8853 C   0  0  0  0  0  0  0  0  0  0  0  0
   37.5662   -5.9604  -11.6106 O   0  0  0  0  0  0  0  0  0  0  0  0
   42.3154   -3.0101  -12.8987 O   0  0  0  0  0  0  0  0  0  0  0  0
   37.7096   -3.8005  -10.9978 O   0  0  0  0  0  0  0  0  0  0  0  0
  2  1  1  0
  3  2  1  0
  3  4  1  6
  5  3  1  0
  5  6  2  0
  7  5  1  0
  8  7  1  0
  8  9  1  1
 10  9  1  0
 10 15  2  0
 11 10  1  0
 12 11  2  0
 12 13  1  0
 13 14  2  0
 14 15  1  0
 16  8  1  0
 17 16  2  0
 18 16  1  0
 19 24  1  0
 19 18  1  0
 19 20  1  6
 21 20  1  0
 21 22  1  0
 22 23  2  0
 24 27  1  0
 25 24  2  0
 26 22  1  0
M  END
$$$$
