SFE.pdb
     RDKit          3D

 27 27  0  0  1  0  0  0  0  0999 V2000
   14.9885   -8.6154  -16.9781 O   0  0  0  0  0  0  0  0  0  0  0  0
   14.8713   -8.3419  -15.6015 C   0  0  0  0  0  0  0  0  0  0  0  0
   15.1897   -9.6360  -14.8902 C   0  0  2  0  0  0  0  0  0  0  0  0
   14.1585  -10.5952  -15.2422 N   0  0  0  0  0  0  0  0  0  0  0  0
   15.2389   -9.5247  -13.4256 C   0  0  0  0  0  0  0  0  0  0  0  0
   14.2177   -9.6602  -12.7032 O   0  0  0  0  0  0  0  0  0  0  0  0
   16.4565   -9.2537  -12.7304 N   0  0  0  0  0  0  0  0  0  0  0  0
   16.5586   -9.1134  -11.2961 C   0  0  1  0  0  0  0  0  0  0  0  0
   17.5795  -10.1060  -10.8005 C   0  0  0  0  0  0  0  0  0  0  0  0
   17.2053  -11.4989  -11.0413 C   0  0  0  0  0  0  0  0  0  0  0  0
   16.1181  -12.0288  -10.3903 C   0  0  0  0  0  0  0  0  0  0  0  0
   15.6963  -13.3405  -10.5837 C   0  0  0  0  0  0  0  0  0  0  0  0
   16.3797  -14.1417  -11.4488 C   0  0  0  0  0  0  0  0  0  0  0  0
   17.4811  -13.6222  -12.1135 C   0  0  0  0  0  0  0  0  0  0  0  0
   17.8867  -12.3219  -11.9129 C   0  0  0  0  0  0  0  0  0  0  0  0
   16.8865   -7.7127  -10.9729 C   0  0  0  0  0  0  0  0  0  0  0  0
   17.8939   -7.1625  -11.4791 O   0  0  0  0  0  0  0  0  0  0  0  0
   16.0814   -6.9519  -10.0881 N   0  0  0  0  0  0  0  0  0  0  0  0
   16.4199   -5.5499   -9.7744 C   0  0  1  0  0  0  0  0  0  0  0  0
   15.8348   -4.7134  -10.8749 C   0  0  0  0  0  0  0  0  0  0  0  0
   14.3458   -4.6760  -10.9243 C   0  0  0  0  0  0  0  0  0  0  0  0
   13.8486   -4.9882  -12.3045 C   0  0  0  0  0  0  0  0  0  0  0  0
   14.5381   -4.6494  -13.3118 O   0  0  0  0  0  0  0  0  0  0  0  0
   15.8037   -5.1530   -8.4899 C   0  0  0  0  0  0  0  0  0  0  0  0
   15.0466   -6.0137   -7.9191 O   0  0  0  0  0  0  0  0  0  0  0  0
   12.6380   -5.6471  -12.4679 O   0  0  0  0  0  0  0  0  0  0  0  0
   15.9630   -3.9603   -7.8511 O   0  0  0  0  0  0  0  0  0  0  0  0
  2  1  1  0
  3  2  1  0
  3  4  1  1
  5  3  1  0
  5  6  2  0
  7  5  1  0
  8  7  1  0
  8  9  1  6
 10  9  1  0
 10 15  2  0
 11 10  1  0
 12 11  2  0
 12 13  1  0
 13 14  2  0
 14 15  1  0
 16  8  1  0
 17 16  2  0
 18 16  1  0
 19 24  1  0
 19 18  1  0
 19 20  1  6
 21 20  1  0
 21 22  1  0
 22 23  2  0
 24 27  1  0
 25 24  2  0
 26 22  1  0
M  END
$$$$
