SFE.pdb
     RDKit          3D

 27 27  0  0  1  0  0  0  0  0999 V2000
   15.2094  -10.7252  -16.5707 O   0  0  0  0  0  0  0  0  0  0  0  0
   16.1599  -10.5635  -17.5972 C   0  0  0  0  0  0  0  0  0  0  0  0
   17.4103  -11.2659  -17.1228 C   0  0  2  0  0  0  0  0  0  0  0  0
   17.0864  -12.6708  -16.9527 N   0  0  0  0  0  0  0  0  0  0  0  0
   17.9450  -10.7563  -15.8523 C   0  0  0  0  0  0  0  0  0  0  0  0
   17.5741  -11.2025  -14.7359 O   0  0  0  0  0  0  0  0  0  0  0  0
   18.9234   -9.7170  -15.8085 N   0  0  0  0  0  0  0  0  0  0  0  0
   19.3925   -9.0942  -14.5923 C   0  0  1  0  0  0  0  0  0  0  0  0
   20.8466   -8.7414  -14.7782 C   0  0  0  0  0  0  0  0  0  0  0  0
   21.4431   -8.0885  -13.6136 C   0  0  0  0  0  0  0  0  0  0  0  0
   21.6021   -6.7242  -13.6115 C   0  0  0  0  0  0  0  0  0  0  0  0
   22.1471   -6.0361  -12.5319 C   0  0  0  0  0  0  0  0  0  0  0  0
   22.5436   -6.7304  -11.4281 C   0  0  0  0  0  0  0  0  0  0  0  0
   22.3910   -8.1092  -11.4148 C   0  0  0  0  0  0  0  0  0  0  0  0
   21.8493   -8.7769  -12.4901 C   0  0  0  0  0  0  0  0  0  0  0  0
   18.5349   -7.9349  -14.2848 C   0  0  0  0  0  0  0  0  0  0  0  0
   18.0326   -7.2524  -15.2099 O   0  0  0  0  0  0  0  0  0  0  0  0
   18.2544   -7.5591  -12.9469 N   0  0  0  0  0  0  0  0  0  0  0  0
   17.3975   -6.3939  -12.6528 C   0  0  1  0  0  0  0  0  0  0  0  0
   17.2547   -6.3355  -11.1597 C   0  0  0  0  0  0  0  0  0  0  0  0
   16.3695   -5.2522  -10.6460 C   0  0  0  0  0  0  0  0  0  0  0  0
   16.2911   -5.2907   -9.1486 C   0  0  0  0  0  0  0  0  0  0  0  0
   16.9834   -6.1343   -8.5053 O   0  0  0  0  0  0  0  0  0  0  0  0
   18.0491   -5.1519  -13.1220 C   0  0  0  0  0  0  0  0  0  0  0  0
   19.3256   -5.1687  -13.2224 O   0  0  0  0  0  0  0  0  0  0  0  0
   15.4622   -4.4014   -8.4791 O   0  0  0  0  0  0  0  0  0  0  0  0
   17.4246   -3.9893  -13.4603 O   0  0  0  0  0  0  0  0  0  0  0  0
  2  1  1  0
  3  2  1  0
  3  4  1  1
  5  3  1  0
  5  6  2  0
  7  5  1  0
  8  7  1  0
  8  9  1  6
 10  9  1  0
 10 15  2  0
 11 10  1  0
 12 11  2  0
 12 13  1  0
 13 14  2  0
 14 15  1  0
 16  8  1  0
 17 16  2  0
 18 16  1  0
 19 24  1  0
 19 18  1  0
 19 20  1  1
 21 20  1  0
 21 22  1  0
 22 23  2  0
 24 27  1  0
 25 24  2  0
 26 22  1  0
M  END
$$$$
