SFE.pdb
     RDKit          3D

 27 27  0  0  1  0  0  0  0  0999 V2000
   26.6484  -19.4995  -18.0243 O   0  0  0  0  0  0  0  0  0  0  0  0
   28.0187  -19.5977  -17.7141 C   0  0  0  0  0  0  0  0  0  0  0  0
   28.2228  -20.9883  -17.1604 C   0  0  2  0  0  0  0  0  0  0  0  0
   27.9707  -21.9300  -18.2360 N   0  0  0  0  0  0  0  0  0  0  0  0
   27.3423  -21.3255  -16.0331 C   0  0  0  0  0  0  0  0  0  0  0  0
   26.3579  -22.0998  -16.1530 O   0  0  0  0  0  0  0  0  0  0  0  0
   27.5523  -20.7904  -14.7259 N   0  0  0  0  0  0  0  0  0  0  0  0
   26.6844  -21.0387  -13.5979 C   0  0  1  0  0  0  0  0  0  0  0  0
   27.4175  -20.6310  -12.3450 C   0  0  0  0  0  0  0  0  0  0  0  0
   26.5973  -20.7077  -11.1368 C   0  0  0  0  0  0  0  0  0  0  0  0
   26.3859  -21.9264  -10.5397 C   0  0  0  0  0  0  0  0  0  0  0  0
   25.6301  -22.0707   -9.3805 C   0  0  0  0  0  0  0  0  0  0  0  0
   25.0714  -20.9686   -8.8054 C   0  0  0  0  0  0  0  0  0  0  0  0
   25.2742  -19.7301   -9.3968 C   0  0  0  0  0  0  0  0  0  0  0  0
   26.0252  -19.6022  -10.5436 C   0  0  0  0  0  0  0  0  0  0  0  0
   25.4134  -20.3201  -13.8025 C   0  0  0  0  0  0  0  0  0  0  0  0
   25.4128  -19.1268  -14.1899 O   0  0  0  0  0  0  0  0  0  0  0  0
   24.1645  -20.9494  -13.5698 N   0  0  0  0  0  0  0  0  0  0  0  0
   22.9014  -20.1998  -13.7163 C   0  0  1  0  0  0  0  0  0  0  0  0
   22.3130  -20.6092  -15.0351 C   0  0  0  0  0  0  0  0  0  0  0  0
   20.9909  -20.0025  -15.3591 C   0  0  0  0  0  0  0  0  0  0  0  0
   20.4575  -20.5423  -16.6528 C   0  0  0  0  0  0  0  0  0  0  0  0
   20.9633  -21.5911  -17.1516 O   0  0  0  0  0  0  0  0  0  0  0  0
   21.9620  -20.5698  -12.6356 C   0  0  0  0  0  0  0  0  0  0  0  0
   22.0656  -21.7529  -12.1566 O   0  0  0  0  0  0  0  0  0  0  0  0
   19.4131  -19.8898  -17.2929 O   0  0  0  0  0  0  0  0  0  0  0  0
   20.9960  -19.7747  -12.0966 O   0  0  0  0  0  0  0  0  0  0  0  0
  2  1  1  0
  3  2  1  0
  3  4  1  6
  5  3  1  0
  5  6  2  0
  7  5  1  0
  8  7  1  0
  8  9  1  1
 10  9  1  0
 10 15  2  0
 11 10  1  0
 12 11  2  0
 12 13  1  0
 13 14  2  0
 14 15  1  0
 16  8  1  0
 17 16  2  0
 18 16  1  0
 19 24  1  0
 19 18  1  0
 19 20  1  6
 21 20  1  0
 21 22  1  0
 22 23  2  0
 24 27  1  0
 25 24  2  0
 26 22  1  0
M  END
$$$$
