SFE.pdb
     RDKit          3D

 27 27  0  0  1  0  0  0  0  0999 V2000
   19.0252  -11.0647  -21.9652 O   0  0  0  0  0  0  0  0  0  0  0  0
   19.0643   -9.9588  -21.0941 C   0  0  0  0  0  0  0  0  0  0  0  0
   19.1692  -10.5295  -19.6993 C   0  0  2  0  0  0  0  0  0  0  0  0
   18.0442  -11.4264  -19.5067 N   0  0  0  0  0  0  0  0  0  0  0  0
   19.1468   -9.5214  -18.6302 C   0  0  0  0  0  0  0  0  0  0  0  0
   18.0751   -9.0733  -18.1467 O   0  0  0  0  0  0  0  0  0  0  0  0
   20.3477   -8.9861  -18.0731 N   0  0  0  0  0  0  0  0  0  0  0  0
   20.3842   -7.9677  -17.0490 C   0  0  1  0  0  0  0  0  0  0  0  0
   21.4888   -8.3148  -16.0832 C   0  0  0  0  0  0  0  0  0  0  0  0
   21.6145   -7.3695  -14.9747 C   0  0  0  0  0  0  0  0  0  0  0  0
   22.3666   -6.2320  -15.1386 C   0  0  0  0  0  0  0  0  0  0  0  0
   22.5162   -5.2825  -14.1326 C   0  0  0  0  0  0  0  0  0  0  0  0
   21.8990   -5.4767  -12.9331 C   0  0  0  0  0  0  0  0  0  0  0  0
   21.1366   -6.6213  -12.7508 C   0  0  0  0  0  0  0  0  0  0  0  0
   20.9967   -7.5521  -13.7556 C   0  0  0  0  0  0  0  0  0  0  0  0
   20.5471   -6.6493  -17.6885 C   0  0  0  0  0  0  0  0  0  0  0  0
   21.4182   -6.4756  -18.5745 O   0  0  0  0  0  0  0  0  0  0  0  0
   19.7324   -5.5474  -17.3251 N   0  0  0  0  0  0  0  0  0  0  0  0
   20.0042   -4.1981  -17.8579 C   0  0  1  0  0  0  0  0  0  0  0  0
   18.6737   -3.6090  -18.2263 C   0  0  0  0  0  0  0  0  0  0  0  0
   18.7195   -2.2233  -18.7731 C   0  0  0  0  0  0  0  0  0  0  0  0
   17.3378   -1.7172  -19.0636 C   0  0  0  0  0  0  0  0  0  0  0  0
   16.9811   -0.5817  -18.6300 O   0  0  0  0  0  0  0  0  0  0  0  0
   20.6304   -3.3562  -16.8156 C   0  0  0  0  0  0  0  0  0  0  0  0
   21.6915   -2.7192  -17.1444 O   0  0  0  0  0  0  0  0  0  0  0  0
   16.4610   -2.4957  -19.8062 O   0  0  0  0  0  0  0  0  0  0  0  0
   20.1886   -3.1893  -15.5378 O   0  0  0  0  0  0  0  0  0  0  0  0
  2  1  1  0
  3  2  1  0
  3  4  1  1
  5  3  1  0
  5  6  2  0
  7  5  1  0
  8  7  1  0
  8  9  1  1
 10  9  1  0
 10 15  2  0
 11 10  1  0
 12 11  2  0
 12 13  1  0
 13 14  2  0
 14 15  1  0
 16  8  1  0
 17 16  2  0
 18 16  1  0
 19 24  1  0
 19 18  1  0
 19 20  1  1
 21 20  1  0
 21 22  1  0
 22 23  2  0
 24 27  1  0
 25 24  2  0
 26 22  1  0
M  END
$$$$
