PNE.pdb
     RDKit          3D

 25 25  0  0  1  0  0  0  0  0999 V2000
   21.6573  -12.0652  -18.4954 N   0  0  0  0  0  0  0  0  0  0  0  0
   21.6044  -13.2270  -19.3545 C   0  0  0  0  0  0  0  0  0  0  0  0
   20.1737  -13.7348  -19.1995 C   0  0  0  0  0  0  0  0  0  0  0  0
   19.4105  -12.5700  -18.5838 C   0  0  0  0  0  0  0  0  0  0  0  0
   20.3864  -11.4512  -18.7086 C   0  0  1  0  0  0  0  0  0  0  0  0
   20.1195  -10.3150  -17.7999 C   0  0  0  0  0  0  0  0  0  0  0  0
   19.0697   -9.6324  -17.9112 O   0  0  0  0  0  0  0  0  0  0  0  0
   20.1868   -6.8021  -14.0089 N   0  0  0  0  0  0  0  0  0  0  0  0
   20.3873   -8.1286  -13.4722 C   0  0  0  0  0  0  0  0  0  0  0  0
   20.3726   -8.2113  -12.2393 O   0  0  0  0  0  0  0  0  0  0  0  0
   20.5794   -9.1888  -14.4498 C   0  0  0  0  0  0  0  0  0  0  0  0
   20.7448   -8.8069  -15.8655 C   0  0  2  0  0  0  0  0  0  0  0  0
   21.0048   -9.9186  -16.7596 N   0  0  0  0  0  0  0  0  0  0  0  0
   21.7442   -7.7031  -16.0980 C   0  0  0  0  0  0  0  0  0  0  0  0
   22.9756   -7.9200  -15.9569 O   0  0  0  0  0  0  0  0  0  0  0  0
   21.3451   -6.4048  -16.4747 N   0  0  0  0  0  0  0  0  0  0  0  0
   22.2817   -5.3416  -16.8093 C   0  0  1  0  0  0  0  0  0  0  0  0
   21.7353   -4.4396  -17.8544 C   0  0  0  0  0  0  0  0  0  0  0  0
   21.5695   -5.1134  -19.1700 C   0  0  0  0  0  0  0  0  0  0  0  0
   21.0072   -4.1130  -20.1602 C   0  0  0  0  0  0  0  0  0  0  0  0
   20.6034   -3.0030  -19.7345 O   0  0  0  0  0  0  0  0  0  0  0  0
   22.6291   -4.6162  -15.5853 C   0  0  0  0  0  0  0  0  0  0  0  0
   22.0795   -4.8406  -14.4910 O   0  0  0  0  0  0  0  0  0  0  0  0
   20.9257   -4.3811  -21.5032 O   0  0  0  0  0  0  0  0  0  0  0  0
   23.6078   -3.6364  -15.6290 O   0  0  0  0  0  0  0  0  0  0  0  0
  1  2  1  0
  1  5  1  0
  2  3  1  0
  3  4  1  0
  5  6  1  1
  5  4  1  0
  6 13  1  0
  7  6  2  0
  8  9  1  0
  9 10  2  0
 11  9  1  0
 12 11  1  1
 12 14  1  0
 13 12  1  0
 14 15  2  0
 16 14  1  0
 16 17  1  0
 17 22  1  0
 17 18  1  6
 19 18  1  0
 20 19  1  0
 21 20  2  0
 22 23  2  0
 22 25  1  0
 24 20  1  0
M  END
$$$$
