PNE.pdb
     RDKit          3D

 25 25  0  0  1  0  0  0  0  0999 V2000
   17.9290  -10.9527  -13.8120 N   0  0  0  0  0  0  0  0  0  0  0  0
   17.9357  -12.0923  -14.7018 C   0  0  0  0  0  0  0  0  0  0  0  0
   16.4953  -12.5950  -14.6671 C   0  0  0  0  0  0  0  0  0  0  0  0
   15.6930  -11.4413  -14.0811 C   0  0  0  0  0  0  0  0  0  0  0  0
   16.6804  -10.3257  -14.1041 C   0  0  1  0  0  0  0  0  0  0  0  0
   16.3508   -9.2109  -13.1895 C   0  0  0  0  0  0  0  0  0  0  0  0
   15.3501   -8.4792  -13.3981 O   0  0  0  0  0  0  0  0  0  0  0  0
   15.0354   -6.8284   -8.2721 N   0  0  0  0  0  0  0  0  0  0  0  0
   16.3565   -7.0371   -8.8189 C   0  0  0  0  0  0  0  0  0  0  0  0
   17.2336   -6.2765   -8.3954 O   0  0  0  0  0  0  0  0  0  0  0  0
   16.4804   -8.1110   -9.7925 C   0  0  0  0  0  0  0  0  0  0  0  0
   16.8414   -7.7545  -11.1782 C   0  0  2  0  0  0  0  0  0  0  0  0
   17.1190   -8.8901  -12.0362 N   0  0  0  0  0  0  0  0  0  0  0  0
   17.9435   -6.7325  -11.2892 C   0  0  0  0  0  0  0  0  0  0  0  0
   19.1480   -7.0830  -11.1913 O   0  0  0  0  0  0  0  0  0  0  0  0
   17.6725   -5.3657  -11.5016 N   0  0  0  0  0  0  0  0  0  0  0  0
   18.6418   -4.4308  -12.0547 C   0  0  1  0  0  0  0  0  0  0  0  0
   19.3330   -4.9964  -13.2406 C   0  0  0  0  0  0  0  0  0  0  0  0
   20.2181   -4.0113  -13.9178 C   0  0  0  0  0  0  0  0  0  0  0  0
   20.9578   -4.7138  -15.0389 C   0  0  0  0  0  0  0  0  0  0  0  0
   21.8395   -5.5581  -14.7452 O   0  0  0  0  0  0  0  0  0  0  0  0
   17.9596   -3.1725  -12.3654 C   0  0  0  0  0  0  0  0  0  0  0  0
   16.7422   -3.1116  -12.6185 O   0  0  0  0  0  0  0  0  0  0  0  0
   20.6953   -4.4573  -16.3608 O   0  0  0  0  0  0  0  0  0  0  0  0
   18.6840   -1.9915  -12.3827 O   0  0  0  0  0  0  0  0  0  0  0  0
  1  2  1  0
  1  5  1  0
  2  3  1  0
  3  4  1  0
  5  6  1  1
  5  4  1  0
  6 13  1  0
  7  6  2  0
  8  9  1  0
  9 10  2  0
 11  9  1  0
 12 11  1  1
 12 14  1  0
 13 12  1  0
 14 15  2  0
 16 14  1  0
 16 17  1  0
 17 22  1  0
 17 18  1  6
 19 18  1  0
 20 19  1  0
 21 20  2  0
 22 23  2  0
 22 25  1  0
 24 20  1  0
M  END
$$$$
