PNE.pdb
     RDKit          3D

 25 25  0  0  1  0  0  0  0  0999 V2000
   19.9834  -13.3801  -15.8985 N   0  0  0  0  0  0  0  0  0  0  0  0
   19.9564  -14.7997  -16.1718 C   0  0  0  0  0  0  0  0  0  0  0  0
   19.1991  -14.9061  -17.4924 C   0  0  0  0  0  0  0  0  0  0  0  0
   19.2228  -13.4979  -18.0708 C   0  0  0  0  0  0  0  0  0  0  0  0
   20.2064  -12.8100  -17.1881 C   0  0  1  0  0  0  0  0  0  0  0  0
   20.1040  -11.3345  -17.2073 C   0  0  0  0  0  0  0  0  0  0  0  0
   20.4652  -10.6756  -18.2151 O   0  0  0  0  0  0  0  0  0  0  0  0
   16.5618   -6.9294  -15.1258 N   0  0  0  0  0  0  0  0  0  0  0  0
   17.6365   -7.3268  -16.0061 C   0  0  0  0  0  0  0  0  0  0  0  0
   18.1645   -6.4120  -16.6474 O   0  0  0  0  0  0  0  0  0  0  0  0
   17.9549   -8.7463  -16.0219 C   0  0  0  0  0  0  0  0  0  0  0  0
   19.3679   -9.1399  -16.1831 C   0  0  2  0  0  0  0  0  0  0  0  0
   19.6030  -10.5693  -16.1180 N   0  0  0  0  0  0  0  0  0  0  0  0
   20.3232   -8.4101  -15.2742 C   0  0  0  0  0  0  0  0  0  0  0  0
   20.3560   -8.6720  -14.0440 O   0  0  0  0  0  0  0  0  0  0  0  0
   21.2017   -7.4199  -15.7585 N   0  0  0  0  0  0  0  0  0  0  0  0
   22.1642   -6.7199  -14.9199 C   0  0  1  0  0  0  0  0  0  0  0  0
   23.3471   -6.2747  -15.6988 C   0  0  0  0  0  0  0  0  0  0  0  0
   23.0100   -5.2582  -16.7309 C   0  0  0  0  0  0  0  0  0  0  0  0
   24.2757   -4.8861  -17.4773 C   0  0  0  0  0  0  0  0  0  0  0  0
   25.3739   -5.3352  -17.0662 O   0  0  0  0  0  0  0  0  0  0  0  0
   21.4887   -5.6003  -14.2600 C   0  0  0  0  0  0  0  0  0  0  0  0
   20.4078   -5.1335  -14.6646 O   0  0  0  0  0  0  0  0  0  0  0  0
   24.2598   -4.0765  -18.5847 O   0  0  0  0  0  0  0  0  0  0  0  0
   22.0623   -5.0250  -13.1376 O   0  0  0  0  0  0  0  0  0  0  0  0
  1  2  1  0
  1  5  1  0
  2  3  1  0
  3  4  1  0
  5  6  1  1
  5  4  1  0
  6 13  1  0
  7  6  2  0
  8  9  1  0
  9 10  2  0
 11  9  1  0
 12 11  1  1
 12 14  1  0
 13 12  1  0
 14 15  2  0
 16 14  1  0
 16 17  1  0
 17 22  1  0
 17 18  1  6
 19 18  1  0
 20 19  1  0
 21 20  2  0
 22 23  2  0
 22 25  1  0
 24 20  1  0
M  END
$$$$
