PNE.pdb
     RDKit          3D

 25 25  0  0  1  0  0  0  0  0999 V2000
   20.6030  -11.9331  -16.6149 N   0  0  0  0  0  0  0  0  0  0  0  0
   20.4767  -13.1289  -17.4176 C   0  0  0  0  0  0  0  0  0  0  0  0
   18.9780  -13.2370  -17.6840 C   0  0  0  0  0  0  0  0  0  0  0  0
   18.4229  -11.8573  -17.3580 C   0  0  0  0  0  0  0  0  0  0  0  0
   19.6626  -11.0431  -17.2159 C   0  0  1  0  0  0  0  0  0  0  0  0
   19.4737   -9.7853  -16.4610 C   0  0  0  0  0  0  0  0  0  0  0  0
   18.8470   -8.8186  -16.9640 O   0  0  0  0  0  0  0  0  0  0  0  0
   17.0252   -8.7415  -13.5939 N   0  0  0  0  0  0  0  0  0  0  0  0
   18.0054   -8.8770  -12.5409 C   0  0  0  0  0  0  0  0  0  0  0  0
   17.5521   -9.1494  -11.4241 O   0  0  0  0  0  0  0  0  0  0  0  0
   19.3921   -8.6758  -12.9321 C   0  0  0  0  0  0  0  0  0  0  0  0
   19.6803   -8.3996  -14.3527 C   0  0  2  0  0  0  0  0  0  0  0  0
   19.9726   -9.5785  -15.1451 N   0  0  0  0  0  0  0  0  0  0  0  0
   20.7307   -7.3429  -14.5791 C   0  0  0  0  0  0  0  0  0  0  0  0
   21.9522   -7.6428  -14.5447 O   0  0  0  0  0  0  0  0  0  0  0  0
   20.3915   -5.9984  -14.8320 N   0  0  0  0  0  0  0  0  0  0  0  0
   21.3763   -4.9413  -15.0117 C   0  0  1  0  0  0  0  0  0  0  0  0
   20.7830   -3.7449  -15.6604 C   0  0  0  0  0  0  0  0  0  0  0  0
   21.7648   -2.6437  -15.8494 C   0  0  0  0  0  0  0  0  0  0  0  0
   21.0630   -1.4767  -16.5151 C   0  0  0  0  0  0  0  0  0  0  0  0
   19.8317   -1.5633  -16.7449 O   0  0  0  0  0  0  0  0  0  0  0  0
   21.9695   -4.6229  -13.7110 C   0  0  0  0  0  0  0  0  0  0  0  0
   21.3950   -4.8617  -12.6327 O   0  0  0  0  0  0  0  0  0  0  0  0
   21.7286   -0.3318  -16.8736 O   0  0  0  0  0  0  0  0  0  0  0  0
   23.2214   -4.0312  -13.6601 O   0  0  0  0  0  0  0  0  0  0  0  0
  1  2  1  0
  1  5  1  0
  2  3  1  0
  3  4  1  0
  5  6  1  1
  5  4  1  0
  6 13  1  0
  7  6  2  0
  8  9  1  0
  9 10  2  0
 11  9  1  0
 12 11  1  1
 12 14  1  0
 13 12  1  0
 14 15  2  0
 16 14  1  0
 16 17  1  0
 17 22  1  0
 17 18  1  1
 19 18  1  0
 20 19  1  0
 21 20  2  0
 22 23  2  0
 22 25  1  0
 24 20  1  0
M  END
$$$$
