PNE.pdb
     RDKit          3D

 25 25  0  0  1  0  0  0  0  0999 V2000
   24.7409  -13.0305  -15.4242 N   0  0  0  0  0  0  0  0  0  0  0  0
   25.5724  -14.2131  -15.4018 C   0  0  0  0  0  0  0  0  0  0  0  0
   24.6750  -15.3052  -15.9767 C   0  0  0  0  0  0  0  0  0  0  0  0
   23.5428  -14.5571  -16.6671 C   0  0  0  0  0  0  0  0  0  0  0  0
   24.0425  -13.1535  -16.6631 C   0  0  1  0  0  0  0  0  0  0  0  0
   22.9842  -12.1369  -16.8481 C   0  0  0  0  0  0  0  0  0  0  0  0
   22.4780  -11.9309  -17.9802 O   0  0  0  0  0  0  0  0  0  0  0  0
   18.2571   -9.6417  -16.7647 N   0  0  0  0  0  0  0  0  0  0  0  0
   19.0317   -9.7646  -15.5510 C   0  0  0  0  0  0  0  0  0  0  0  0
   18.7044   -9.0059  -14.6322 O   0  0  0  0  0  0  0  0  0  0  0  0
   20.0911  -10.7615  -15.5699 C   0  0  0  0  0  0  0  0  0  0  0  0
   21.4443  -10.3301  -15.9699 C   0  0  2  0  0  0  0  0  0  0  0  0
   22.4722  -11.3369  -15.7893 N   0  0  0  0  0  0  0  0  0  0  0  0
   21.8822   -9.0205  -15.3660 C   0  0  0  0  0  0  0  0  0  0  0  0
   22.5798   -9.0048  -14.3189 O   0  0  0  0  0  0  0  0  0  0  0  0
   21.5314   -7.7819  -15.9401 N   0  0  0  0  0  0  0  0  0  0  0  0
   21.9566   -6.4977  -15.4019 C   0  0  1  0  0  0  0  0  0  0  0  0
   21.7912   -5.4063  -16.3947 C   0  0  0  0  0  0  0  0  0  0  0  0
   22.7808   -5.4784  -17.5028 C   0  0  0  0  0  0  0  0  0  0  0  0
   22.5528   -4.3046  -18.4343 C   0  0  0  0  0  0  0  0  0  0  0  0
   23.3540   -4.1220  -19.3837 O   0  0  0  0  0  0  0  0  0  0  0  0
   21.2135   -6.2340  -14.1676 C   0  0  0  0  0  0  0  0  0  0  0  0
   20.0350   -6.5986  -14.0006 O   0  0  0  0  0  0  0  0  0  0  0  0
   21.5018   -3.4376  -18.2735 O   0  0  0  0  0  0  0  0  0  0  0  0
   21.8326   -5.5517  -13.1327 O   0  0  0  0  0  0  0  0  0  0  0  0
  1  2  1  0
  1  5  1  0
  2  3  1  0
  3  4  1  0
  5  6  1  1
  5  4  1  0
  6 13  1  0
  7  6  2  0
  8  9  1  0
  9 10  2  0
 11  9  1  0
 12 11  1  1
 12 14  1  0
 13 12  1  0
 14 15  2  0
 16 14  1  0
 16 17  1  0
 17 22  1  0
 17 18  1  6
 19 18  1  0
 20 19  1  0
 21 20  2  0
 22 23  2  0
 22 25  1  0
 24 20  1  0
M  END
$$$$
