YCS.pdb
     RDKit          3D

 25 25  0  0  1  0  0  0  0  0999 V2000
   17.9302  -17.2301  -16.2052 O   0  0  0  0  0  0  0  0  0  0  0  0
   17.9562  -15.8618  -16.4225 C   0  0  0  0  0  0  0  0  0  0  0  0
   18.9233  -15.1094  -15.7900 C   0  0  0  0  0  0  0  0  0  0  0  0
   18.9559  -13.7468  -16.0011 C   0  0  0  0  0  0  0  0  0  0  0  0
   18.0443  -13.1094  -16.8313 C   0  0  0  0  0  0  0  0  0  0  0  0
   18.1216  -11.6387  -17.0259 C   0  0  0  0  0  0  0  0  0  0  0  0
   18.2401  -11.0042  -15.6746 C   0  0  2  0  0  0  0  0  0  0  0  0
   17.0207  -11.2350  -14.9391 N   0  0  0  0  0  0  0  0  0  0  0  0
   18.5662   -9.5517  -15.7584 C   0  0  0  0  0  0  0  0  0  0  0  0
   19.4147   -9.1434  -16.5916 O   0  0  0  0  0  0  0  0  0  0  0  0
   17.0727  -13.8802  -17.4642 C   0  0  0  0  0  0  0  0  0  0  0  0
   17.0310  -15.2459  -17.2598 C   0  0  0  0  0  0  0  0  0  0  0  0
   17.9526   -8.5745  -14.9235 N   0  0  0  0  0  0  0  0  0  0  0  0
   18.2637   -7.1692  -15.0094 C   0  0  1  0  0  0  0  0  0  0  0  0
   17.0810   -6.2972  -14.6634 C   0  0  0  0  0  0  0  0  0  0  0  0
   15.5989   -6.7052  -15.5775 S   0  0  0  0  0  0  0  0  0  0  0  0
   19.4144   -6.7890  -14.1579 C   0  0  0  0  0  0  0  0  0  0  0  0
   19.4722   -7.0047  -12.9193 O   0  0  0  0  0  0  0  0  0  0  0  0
   22.4207   -4.8679  -16.1967 O   0  0  0  0  0  0  0  0  0  0  0  0
   22.8193   -5.7115  -15.1875 C   0  0  0  0  0  0  0  0  0  0  0  0
   21.7450   -5.8296  -14.0979 C   0  0  2  0  0  0  0  0  0  0  0  0
   20.5164   -6.1449  -14.7676 N   0  0  0  0  0  0  0  0  0  0  0  0
   21.6270   -4.4843  -13.4918 C   0  0  0  0  0  0  0  0  0  0  0  0
   20.5953   -3.8015  -13.6963 O   0  0  0  0  0  0  0  0  0  0  0  0
   22.6173   -3.9189  -12.6888 O   0  0  0  0  0  0  0  0  0  0  0  0
  2  3  2  0
  2  1  1  0
  4  3  1  0
  5  4  2  0
  6  7  1  0
  6  5  1  0
  7  8  1  6
  9 13  1  0
  9  7  1  0
 10  9  2  0
 11  5  1  0
 11 12  2  0
 12  2  1  0
 14 13  1  0
 14 15  1  1
 16 15  1  0
 17 14  1  0
 18 17  2  0
 19 20  1  0
 21 20  1  6
 21 23  1  0
 21 22  1  0
 22 17  1  0
 23 25  1  0
 24 23  2  0
M  END
$$$$
