YCS.pdb
     RDKit          3D

 25 25  0  0  1  0  0  0  0  0999 V2000
   24.7727  -20.6626   -8.3014 O   0  0  0  0  0  0  0  0  0  0  0  0
   25.0700  -20.6381   -9.6546 C   0  0  0  0  0  0  0  0  0  0  0  0
   26.0912  -21.4380  -10.1225 C   0  0  0  0  0  0  0  0  0  0  0  0
   26.3933  -21.4193  -11.4681 C   0  0  0  0  0  0  0  0  0  0  0  0
   25.7003  -20.6195  -12.3663 C   0  0  0  0  0  0  0  0  0  0  0  0
   26.0643  -20.6353  -13.8064 C   0  0  0  0  0  0  0  0  0  0  0  0
   24.9453  -21.2928  -14.5536 C   0  0  2  0  0  0  0  0  0  0  0  0
   24.8492  -22.6708  -14.1377 N   0  0  0  0  0  0  0  0  0  0  0  0
   25.1049  -21.1734  -16.0313 C   0  0  0  0  0  0  0  0  0  0  0  0
   25.8336  -21.9869  -16.6542 O   0  0  0  0  0  0  0  0  0  0  0  0
   24.6714  -19.8164  -11.8813 C   0  0  0  0  0  0  0  0  0  0  0  0
   24.3605  -19.8274  -10.5353 C   0  0  0  0  0  0  0  0  0  0  0  0
   24.4596  -20.1605  -16.7969 N   0  0  0  0  0  0  0  0  0  0  0  0
   24.4637  -20.1513  -18.2387 C   0  0  1  0  0  0  0  0  0  0  0  0
   23.4702  -21.1271  -18.8219 C   0  0  0  0  0  0  0  0  0  0  0  0
   22.0286  -21.3811  -17.7945 S   0  0  0  0  0  0  0  0  0  0  0  0
   24.2089  -18.8042  -18.7990 C   0  0  0  0  0  0  0  0  0  0  0  0
   23.4428  -17.9575  -18.2697 O   0  0  0  0  0  0  0  0  0  0  0  0
   25.6574  -15.9868  -22.5231 O   0  0  0  0  0  0  0  0  0  0  0  0
   25.7005  -17.1743  -21.8324 C   0  0  0  0  0  0  0  0  0  0  0  0
   24.7211  -17.1720  -20.6509 C   0  0  2  0  0  0  0  0  0  0  0  0
   24.8629  -18.4423  -20.0001 N   0  0  0  0  0  0  0  0  0  0  0  0
   23.3667  -17.0865  -21.2419 C   0  0  0  0  0  0  0  0  0  0  0  0
   22.7284  -18.1389  -21.4816 O   0  0  0  0  0  0  0  0  0  0  0  0
   22.7449  -15.8780  -21.5548 O   0  0  0  0  0  0  0  0  0  0  0  0
  2  3  2  0
  2  1  1  0
  4  3  1  0
  5  4  2  0
  6  7  1  0
  6  5  1  0
  7  8  1  6
  9 13  1  0
  9  7  1  0
 10  9  2  0
 11  5  1  0
 11 12  2  0
 12  2  1  0
 14 13  1  0
 14 15  1  6
 16 15  1  0
 17 14  1  0
 18 17  2  0
 19 20  1  0
 21 20  1  6
 21 23  1  0
 21 22  1  0
 22 17  1  0
 23 25  1  0
 24 23  2  0
M  END
$$$$
