YCS.pdb
     RDKit          3D

 25 25  0  0  1  0  0  0  0  0999 V2000
   23.9458  -18.1829  -15.3186 O   0  0  0  0  0  0  0  0  0  0  0  0
   23.9785  -16.8033  -15.4445 C   0  0  0  0  0  0  0  0  0  0  0  0
   22.7960  -16.1313  -15.6720 C   0  0  0  0  0  0  0  0  0  0  0  0
   22.8201  -14.7581  -15.7985 C   0  0  0  0  0  0  0  0  0  0  0  0
   23.9989  -14.0314  -15.7036 C   0  0  0  0  0  0  0  0  0  0  0  0
   23.9718  -12.5531  -15.8471 C   0  0  0  0  0  0  0  0  0  0  0  0
   23.3835  -12.2345  -17.1870 C   0  0  2  0  0  0  0  0  0  0  0  0
   24.2747  -12.7115  -18.2163 N   0  0  0  0  0  0  0  0  0  0  0  0
   23.0884  -10.7814  -17.3440 C   0  0  0  0  0  0  0  0  0  0  0  0
   23.9512  -10.0132  -17.8403 O   0  0  0  0  0  0  0  0  0  0  0  0
   25.1861  -14.7217  -15.4737 C   0  0  0  0  0  0  0  0  0  0  0  0
   25.1734  -16.0972  -15.3455 C   0  0  0  0  0  0  0  0  0  0  0  0
   21.8488  -10.1998  -16.9520 N   0  0  0  0  0  0  0  0  0  0  0  0
   21.5233   -8.8172  -17.1995 C   0  0  1  0  0  0  0  0  0  0  0  0
   20.2173   -8.6585  -17.9398 C   0  0  0  0  0  0  0  0  0  0  0  0
   20.1311   -9.6097  -19.4518 S   0  0  0  0  0  0  0  0  0  0  0  0
   21.4792   -8.0127  -15.9568 C   0  0  0  0  0  0  0  0  0  0  0  0
   21.0517   -8.4460  -14.8552 O   0  0  0  0  0  0  0  0  0  0  0  0
   22.8154   -3.5933  -14.3493 O   0  0  0  0  0  0  0  0  0  0  0  0
   22.5939   -4.4739  -15.3810 C   0  0  0  0  0  0  0  0  0  0  0  0
   22.0181   -5.8020  -14.8712 C   0  0  2  0  0  0  0  0  0  0  0  0
   21.9440   -6.6774  -16.0050 N   0  0  0  0  0  0  0  0  0  0  0  0
   20.6444   -5.5020  -14.4086 C   0  0  0  0  0  0  0  0  0  0  0  0
   19.7125   -5.4264  -15.2443 O   0  0  0  0  0  0  0  0  0  0  0  0
   20.3180   -5.2939  -13.0687 O   0  0  0  0  0  0  0  0  0  0  0  0
  2  3  2  0
  2  1  1  0
  4  3  1  0
  5  4  2  0
  6  7  1  0
  6  5  1  0
  7  8  1  6
  9 13  1  0
  9  7  1  0
 10  9  2  0
 11  5  1  0
 11 12  2  0
 12  2  1  0
 14 13  1  0
 14 15  1  1
 16 15  1  0
 17 14  1  0
 18 17  2  0
 19 20  1  0
 21 20  1  6
 21 23  1  0
 21 22  1  0
 22 17  1  0
 23 25  1  0
 24 23  2  0
M  END
$$$$
