EQC.pdb
     RDKit          3D

 25 24  0  0  1  0  0  0  0  0999 V2000
   10.0688  -16.3077   19.9219 N   0  0  0  0  0  0  0  0  0  0  0  0
    8.6816  -15.9301   19.9054 C   0  0  1  0  0  0  0  0  0  0  0  0
    7.8858  -16.8148   18.9720 C   0  0  0  0  0  0  0  0  0  0  0  0
    8.2616  -18.2559   19.2990 C   0  0  0  0  0  0  0  0  0  0  0  0
    7.5056  -19.2077   18.4419 C   0  0  0  0  0  0  0  0  0  0  0  0
    7.6710  -20.4385   18.4460 O   0  0  0  0  0  0  0  0  0  0  0  0
    8.1698  -15.9939   21.2979 C   0  0  0  0  0  0  0  0  0  0  0  0
    6.9785  -15.7397   21.5753 O   0  0  0  0  0  0  0  0  0  0  0  0
    6.5582  -18.6610   17.5893 O   0  0  0  0  0  0  0  0  0  0  0  0
   11.3669  -18.7690   25.9826 N   0  0  0  0  0  0  0  0  0  0  0  0
   10.3924  -18.0478   26.6985 C   0  0  0  0  0  0  0  0  0  0  0  0
   10.3781  -18.0963   27.9433 O   0  0  0  0  0  0  0  0  0  0  0  0
    9.3961  -17.2407   25.9721 C   0  0  0  0  0  0  0  0  0  0  0  0
    9.6587  -17.2460   24.4772 C   0  0  0  0  0  0  0  0  0  0  0  0
    8.6690  -16.3659   23.7434 C   0  0  2  0  0  0  0  0  0  0  0  0
    9.0334  -16.3492   22.3555 N   0  0  0  0  0  0  0  0  0  0  0  0
    8.5962  -15.0423   24.3583 C   0  0  0  0  0  0  0  0  0  0  0  0
    9.6180  -14.3088   24.3178 O   0  0  0  0  0  0  0  0  0  0  0  0
    7.4567  -14.4966   25.0101 N   0  0  0  0  0  0  0  0  0  0  0  0
    7.4243  -13.1541   25.5597 C   0  0  1  0  0  0  0  0  0  0  0  0
    6.0082  -12.6683   25.7696 C   0  0  0  0  0  0  0  0  0  0  0  0
    5.9861  -11.1050   26.6713 S   0  0  0  0  0  0  0  0  0  0  0  0
    8.0665  -13.2236   26.9044 C   0  0  0  0  0  0  0  0  0  0  0  0
    8.6198  -12.0941   27.5240 O   0  0  0  0  0  0  0  0  0  0  0  0
    8.1523  -14.2960   27.5663 O   0  0  0  0  0  0  0  0  0  0  0  0
  2  7  1  0
  2  1  1  1
  3  2  1  0
  4  3  1  0
  5  4  1  0
  5  9  1  0
  6  5  2  0
  7  8  2  0
 11 13  1  0
 11 10  1  0
 12 11  2  0
 15 14  1  1
 14 13  1  0
 16 15  1  0
 16  7  1  0
 17 18  2  0
 17 15  1  0
 19 17  1  0
 20 19  1  0
 20 23  1  0
 20 21  1  1
 22 21  1  0
 23 24  1  0
 25 23  2  0
M  END
$$$$
