EQC.pdb
     RDKit          3D

 25 24  0  0  1  0  0  0  0  0999 V2000
    9.7422  -14.6617   20.5693 N   0  0  0  0  0  0  0  0  0  0  0  0
    8.5785  -13.8177   20.5370 C   0  0  1  0  0  0  0  0  0  0  0  0
    7.9536  -13.8018   19.1599 C   0  0  0  0  0  0  0  0  0  0  0  0
    8.7951  -14.7201   18.2803 C   0  0  0  0  0  0  0  0  0  0  0  0
    8.2702  -14.7475   16.8890 C   0  0  0  0  0  0  0  0  0  0  0  0
    7.3666  -14.0082   16.4658 O   0  0  0  0  0  0  0  0  0  0  0  0
    7.6284  -14.3029   21.5698 C   0  0  0  0  0  0  0  0  0  0  0  0
    6.4972  -13.7932   21.7173 O   0  0  0  0  0  0  0  0  0  0  0  0
    8.8434  -15.6684   16.0248 O   0  0  0  0  0  0  0  0  0  0  0  0
    7.9897  -20.1206   23.7323 N   0  0  0  0  0  0  0  0  0  0  0  0
    8.9006  -19.2165   24.3112 C   0  0  0  0  0  0  0  0  0  0  0  0
    9.8757  -19.6489   24.9549 O   0  0  0  0  0  0  0  0  0  0  0  0
    8.6957  -17.7659   24.1527 C   0  0  0  0  0  0  0  0  0  0  0  0
    7.4093  -17.4640   23.4058 C   0  0  0  0  0  0  0  0  0  0  0  0
    7.1212  -15.9776   23.3881 C   0  0  2  0  0  0  0  0  0  0  0  0
    7.9892  -15.3684   22.4213 N   0  0  0  0  0  0  0  0  0  0  0  0
    7.2314  -15.4117   24.7309 C   0  0  0  0  0  0  0  0  0  0  0  0
    6.4497  -15.8341   25.6221 O   0  0  0  0  0  0  0  0  0  0  0  0
    8.1572  -14.4096   25.1308 N   0  0  0  0  0  0  0  0  0  0  0  0
    8.1482  -13.8016   26.4481 C   0  0  1  0  0  0  0  0  0  0  0  0
    6.7796  -13.2724   26.8121 C   0  0  0  0  0  0  0  0  0  0  0  0
    6.6582  -11.5033   26.4759 S   0  0  0  0  0  0  0  0  0  0  0  0
    8.4725  -14.8826   27.4237 C   0  0  0  0  0  0  0  0  0  0  0  0
    8.6600  -14.6216   28.7885 O   0  0  0  0  0  0  0  0  0  0  0  0
    8.5980  -16.0932   27.0858 O   0  0  0  0  0  0  0  0  0  0  0  0
  2  7  1  0
  2  1  1  6
  3  2  1  0
  4  3  1  0
  5  4  1  0
  5  9  1  0
  6  5  2  0
  7  8  2  0
 11 13  1  0
 11 10  1  0
 12 11  2  0
 15 14  1  1
 14 13  1  0
 16 15  1  0
 16  7  1  0
 17 18  2  0
 17 15  1  0
 19 17  1  0
 20 19  1  0
 20 23  1  0
 20 21  1  1
 22 21  1  0
 23 24  1  0
 25 23  2  0
M  END
$$$$
