EQC.pdb
     RDKit          3D

 25 24  0  0  1  0  0  0  0  0999 V2000
    5.6298  -15.2346   20.3819 N   0  0  0  0  0  0  0  0  0  0  0  0
    6.5876  -16.1335   20.9667 C   0  0  1  0  0  0  0  0  0  0  0  0
    7.9705  -15.9022   20.3999 C   0  0  0  0  0  0  0  0  0  0  0  0
    8.3013  -14.4307   20.6243 C   0  0  0  0  0  0  0  0  0  0  0  0
    9.6170  -14.0861   20.0221 C   0  0  0  0  0  0  0  0  0  0  0  0
    9.7824  -13.7698   18.8327 O   0  0  0  0  0  0  0  0  0  0  0  0
    6.5554  -15.9468   22.4395 C   0  0  0  0  0  0  0  0  0  0  0  0
    6.2646  -14.8485   22.9592 O   0  0  0  0  0  0  0  0  0  0  0  0
   10.7178  -14.1278   20.8646 O   0  0  0  0  0  0  0  0  0  0  0  0
    7.6994  -20.7582   26.4358 N   0  0  0  0  0  0  0  0  0  0  0  0
    7.2959  -19.7309   27.3100 C   0  0  0  0  0  0  0  0  0  0  0  0
    7.1769  -19.9668   28.5275 O   0  0  0  0  0  0  0  0  0  0  0  0
    7.0169  -18.3843   26.7805 C   0  0  0  0  0  0  0  0  0  0  0  0
    7.1117  -18.3513   25.2660 C   0  0  0  0  0  0  0  0  0  0  0  0
    6.8663  -16.9561   24.7314 C   0  0  2  0  0  0  0  0  0  0  0  0
    6.8579  -17.0248   23.2981 N   0  0  0  0  0  0  0  0  0  0  0  0
    7.8382  -16.0122   25.2790 C   0  0  0  0  0  0  0  0  0  0  0  0
    9.0138  -16.0394   24.8308 O   0  0  0  0  0  0  0  0  0  0  0  0
    7.5735  -15.0483   26.2900 N   0  0  0  0  0  0  0  0  0  0  0  0
    8.5772  -14.1282   26.7910 C   0  0  1  0  0  0  0  0  0  0  0  0
    7.9537  -12.9686   27.5341 C   0  0  0  0  0  0  0  0  0  0  0  0
    6.4368  -12.4202   26.7245 S   0  0  0  0  0  0  0  0  0  0  0  0
    9.4026  -14.8857   27.7762 C   0  0  0  0  0  0  0  0  0  0  0  0
    9.1473  -16.2296   28.0835 O   0  0  0  0  0  0  0  0  0  0  0  0
   10.3769  -14.3692   28.3921 O   0  0  0  0  0  0  0  0  0  0  0  0
  2  7  1  0
  2  1  1  6
  3  2  1  0
  4  3  1  0
  5  4  1  0
  5  9  1  0
  6  5  2  0
  7  8  2  0
 11 13  1  0
 11 10  1  0
 12 11  2  0
 15 14  1  1
 14 13  1  0
 16 15  1  0
 16  7  1  0
 17 18  2  0
 17 15  1  0
 19 17  1  0
 20 19  1  0
 20 23  1  0
 20 21  1  1
 22 21  1  0
 23 24  1  0
 25 23  2  0
M  END
$$$$
