EQC.pdb
     RDKit          3D

 25 24  0  0  1  0  0  0  0  0999 V2000
    9.5506  -16.7384   20.4793 N   0  0  0  0  0  0  0  0  0  0  0  0
    8.3638  -16.0138   20.1136 C   0  0  1  0  0  0  0  0  0  0  0  0
    7.5761  -16.7540   19.0559 C   0  0  0  0  0  0  0  0  0  0  0  0
    8.5329  -17.7459   18.4034 C   0  0  0  0  0  0  0  0  0  0  0  0
    7.8414  -18.5319   17.3469 C   0  0  0  0  0  0  0  0  0  0  0  0
    8.3225  -18.7797   16.2292 O   0  0  0  0  0  0  0  0  0  0  0  0
    7.5629  -15.7899   21.3438 C   0  0  0  0  0  0  0  0  0  0  0  0
    6.4316  -15.2611   21.3075 O   0  0  0  0  0  0  0  0  0  0  0  0
    6.5760  -19.0096   17.6536 O   0  0  0  0  0  0  0  0  0  0  0  0
    7.7594  -19.7243   25.8690 N   0  0  0  0  0  0  0  0  0  0  0  0
    8.8787  -18.8702   25.8761 C   0  0  0  0  0  0  0  0  0  0  0  0
    9.9262  -19.2292   26.4471 O   0  0  0  0  0  0  0  0  0  0  0  0
    8.8050  -17.5584   25.2089 C   0  0  0  0  0  0  0  0  0  0  0  0
    7.4362  -17.3213   24.5974 C   0  0  0  0  0  0  0  0  0  0  0  0
    7.3891  -16.0041   23.8522 C   0  0  2  0  0  0  0  0  0  0  0  0
    8.0716  -16.1765   22.6018 N   0  0  0  0  0  0  0  0  0  0  0  0
    7.9192  -14.9214   24.6783 C   0  0  0  0  0  0  0  0  0  0  0  0
    9.1672  -14.7694   24.7332 O   0  0  0  0  0  0  0  0  0  0  0  0
    7.1408  -14.0073   25.4396 N   0  0  0  0  0  0  0  0  0  0  0  0
    7.7144  -12.8888   26.1643 C   0  0  1  0  0  0  0  0  0  0  0  0
    6.6892  -11.8114   26.4355 C   0  0  0  0  0  0  0  0  0  0  0  0
    5.1585  -12.5199   27.0777 S   0  0  0  0  0  0  0  0  0  0  0  0
    8.1566  -13.4148   27.4885 C   0  0  0  0  0  0  0  0  0  0  0  0
    8.9398  -12.6536   28.3677 O   0  0  0  0  0  0  0  0  0  0  0  0
    7.8563  -14.5708   27.8996 O   0  0  0  0  0  0  0  0  0  0  0  0
  2  7  1  0
  2  1  1  1
  3  2  1  0
  4  3  1  0
  5  4  1  0
  5  9  1  0
  6  5  2  0
  7  8  2  0
 11 13  1  0
 11 10  1  0
 12 11  2  0
 15 14  1  1
 14 13  1  0
 16 15  1  0
 16  7  1  0
 17 18  2  0
 17 15  1  0
 19 17  1  0
 20 19  1  0
 20 23  1  0
 20 21  1  1
 22 21  1  0
 23 24  1  0
 25 23  2  0
M  END
$$$$
