EQC.pdb
     RDKit          3D

 25 24  0  0  1  0  0  0  0  0999 V2000
    8.6566  -17.0935   18.9753 N   0  0  0  0  0  0  0  0  0  0  0  0
    9.4492  -16.8586   20.1517 C   0  0  1  0  0  0  0  0  0  0  0  0
   10.4197  -15.7187   19.9377 C   0  0  0  0  0  0  0  0  0  0  0  0
   11.7554  -16.3409   19.5459 C   0  0  0  0  0  0  0  0  0  0  0  0
   12.8033  -15.2958   19.3981 C   0  0  0  0  0  0  0  0  0  0  0  0
   13.9329  -15.4977   18.9231 O   0  0  0  0  0  0  0  0  0  0  0  0
    8.5261  -16.5936   21.2842 C   0  0  0  0  0  0  0  0  0  0  0  0
    7.4964  -15.8992   21.1475 O   0  0  0  0  0  0  0  0  0  0  0  0
   12.4740  -14.0184   19.8261 O   0  0  0  0  0  0  0  0  0  0  0  0
    8.6139  -19.9797   26.6021 N   0  0  0  0  0  0  0  0  0  0  0  0
    7.6186  -19.0229   26.8785 C   0  0  0  0  0  0  0  0  0  0  0  0
    6.9318  -19.1269   27.9128 O   0  0  0  0  0  0  0  0  0  0  0  0
    7.3952  -17.9056   25.9442 C   0  0  0  0  0  0  0  0  0  0  0  0
    8.2318  -18.0561   24.6867 C   0  0  0  0  0  0  0  0  0  0  0  0
    8.0007  -16.9029   23.7330 C   0  0  2  0  0  0  0  0  0  0  0  0
    8.7970  -17.1296   22.5609 N   0  0  0  0  0  0  0  0  0  0  0  0
    8.2582  -15.6246   24.3925 C   0  0  0  0  0  0  0  0  0  0  0  0
    9.4467  -15.2162   24.4585 O   0  0  0  0  0  0  0  0  0  0  0  0
    7.2718  -14.7842   24.9773 N   0  0  0  0  0  0  0  0  0  0  0  0
    7.5670  -13.4684   25.5128 C   0  0  1  0  0  0  0  0  0  0  0  0
    6.3217  -12.7768   26.0190 C   0  0  0  0  0  0  0  0  0  0  0  0
    6.7303  -11.2155   26.8271 S   0  0  0  0  0  0  0  0  0  0  0  0
    8.4622  -13.6727   26.6885 C   0  0  0  0  0  0  0  0  0  0  0  0
    8.6949  -14.9429   27.2348 O   0  0  0  0  0  0  0  0  0  0  0  0
    9.0636  -12.7221   27.2632 O   0  0  0  0  0  0  0  0  0  0  0  0
  2  7  1  0
  2  1  1  6
  3  2  1  0
  4  3  1  0
  5  4  1  0
  5  9  1  0
  6  5  2  0
  7  8  2  0
 11 13  1  0
 11 10  1  0
 12 11  2  0
 15 14  1  1
 14 13  1  0
 16 15  1  0
 16  7  1  0
 17 18  2  0
 17 15  1  0
 19 17  1  0
 20 19  1  0
 20 23  1  0
 20 21  1  1
 22 21  1  0
 23 24  1  0
 25 23  2  0
M  END
$$$$
