EQC.pdb
     RDKit          3D

 25 24  0  0  1  0  0  0  0  0999 V2000
    9.6680  -14.6170   18.8898 N   0  0  0  0  0  0  0  0  0  0  0  0
   10.1185  -15.7486   19.6540 C   0  0  1  0  0  0  0  0  0  0  0  0
   11.6266  -15.8582   19.6300 C   0  0  0  0  0  0  0  0  0  0  0  0
   12.1753  -14.4358   19.6560 C   0  0  0  0  0  0  0  0  0  0  0  0
   13.6621  -14.4410   19.6176 C   0  0  0  0  0  0  0  0  0  0  0  0
   14.3754  -13.4798   19.9484 O   0  0  0  0  0  0  0  0  0  0  0  0
    9.5963  -15.6081   21.0370 C   0  0  0  0  0  0  0  0  0  0  0  0
    9.2226  -14.5064   21.4925 O   0  0  0  0  0  0  0  0  0  0  0  0
   14.2699  -15.6081   19.1797 O   0  0  0  0  0  0  0  0  0  0  0  0
    7.7128  -20.8650   22.9149 N   0  0  0  0  0  0  0  0  0  0  0  0
    6.8128  -19.7996   23.1083 C   0  0  0  0  0  0  0  0  0  0  0  0
    5.6508  -20.0342   23.4915 O   0  0  0  0  0  0  0  0  0  0  0  0
    7.2498  -18.4150   22.8567 C   0  0  0  0  0  0  0  0  0  0  0  0
    8.5434  -18.0988   23.5850 C   0  0  0  0  0  0  0  0  0  0  0  0
    9.0436  -16.7125   23.2377 C   0  0  2  0  0  0  0  0  0  0  0  0
    9.5097  -16.7357   21.8807 N   0  0  0  0  0  0  0  0  0  0  0  0
   10.0425  -16.2638   24.2053 C   0  0  0  0  0  0  0  0  0  0  0  0
   11.0711  -15.6811   23.7739 O   0  0  0  0  0  0  0  0  0  0  0  0
    9.9580  -16.4278   25.6150 N   0  0  0  0  0  0  0  0  0  0  0  0
   10.2908  -15.3759   26.5573 C   0  0  1  0  0  0  0  0  0  0  0  0
    9.3243  -14.2169   26.4683 C   0  0  0  0  0  0  0  0  0  0  0  0
    9.7027  -12.9606   27.7076 S   0  0  0  0  0  0  0  0  0  0  0  0
   10.1485  -15.9599   27.9227 C   0  0  0  0  0  0  0  0  0  0  0  0
   11.0387  -15.6505   28.9608 O   0  0  0  0  0  0  0  0  0  0  0  0
    9.2242  -16.7644   28.2290 O   0  0  0  0  0  0  0  0  0  0  0  0
  2  7  1  0
  2  1  1  6
  3  2  1  0
  4  3  1  0
  5  4  1  0
  5  9  1  0
  6  5  2  0
  7  8  2  0
 11 13  1  0
 11 10  1  0
 12 11  2  0
 15 14  1  1
 14 13  1  0
 16 15  1  0
 16  7  1  0
 17 18  2  0
 17 15  1  0
 19 17  1  0
 20 19  1  0
 20 23  1  0
 20 21  1  1
 22 21  1  0
 23 24  1  0
 25 23  2  0
M  END
$$$$
