EQC.pdb
     RDKit          3D

 25 24  0  0  1  0  0  0  0  0999 V2000
   10.0529  -18.0775   20.9794 N   0  0  0  0  0  0  0  0  0  0  0  0
    9.0149  -17.3261   20.3271 C   0  0  1  0  0  0  0  0  0  0  0  0
    8.4128  -18.1079   19.1811 C   0  0  0  0  0  0  0  0  0  0  0  0
    7.7857  -17.0922   18.2323 C   0  0  0  0  0  0  0  0  0  0  0  0
    7.3722  -17.7415   16.9596 C   0  0  0  0  0  0  0  0  0  0  0  0
    6.7062  -18.7873   16.8902 O   0  0  0  0  0  0  0  0  0  0  0  0
    7.9965  -16.9662   21.3461 C   0  0  0  0  0  0  0  0  0  0  0  0
    6.9503  -16.3530   21.0455 O   0  0  0  0  0  0  0  0  0  0  0  0
    7.7685  -17.1192   15.7853 O   0  0  0  0  0  0  0  0  0  0  0  0
    7.5375  -19.9465   26.7200 N   0  0  0  0  0  0  0  0  0  0  0  0
    6.7072  -20.1624   25.6035 C   0  0  0  0  0  0  0  0  0  0  0  0
    6.0618  -21.2239   25.5095 O   0  0  0  0  0  0  0  0  0  0  0  0
    6.6065  -19.1329   24.5541 C   0  0  0  0  0  0  0  0  0  0  0  0
    7.4493  -17.9151   24.8864 C   0  0  0  0  0  0  0  0  0  0  0  0
    7.3682  -16.8757   23.7885 C   0  0  2  0  0  0  0  0  0  0  0  0
    8.1924  -17.3151   22.6991 N   0  0  0  0  0  0  0  0  0  0  0  0
    7.7117  -15.5512   24.3015 C   0  0  0  0  0  0  0  0  0  0  0  0
    8.9198  -15.1993   24.2831 O   0  0  0  0  0  0  0  0  0  0  0  0
    6.7901  -14.6060   24.8292 N   0  0  0  0  0  0  0  0  0  0  0  0
    7.2003  -13.3698   25.4685 C   0  0  1  0  0  0  0  0  0  0  0  0
    6.0175  -12.4833   25.7858 C   0  0  0  0  0  0  0  0  0  0  0  0
    6.5437  -10.9786   26.6323 S   0  0  0  0  0  0  0  0  0  0  0  0
    7.8270  -13.7448   26.7693 C   0  0  0  0  0  0  0  0  0  0  0  0
    8.9027  -13.0273   27.3113 O   0  0  0  0  0  0  0  0  0  0  0  0
    7.4320  -14.7253   27.4608 O   0  0  0  0  0  0  0  0  0  0  0  0
  2  7  1  0
  2  1  1  1
  3  2  1  0
  4  3  1  0
  5  4  1  0
  5  9  1  0
  6  5  2  0
  7  8  2  0
 11 13  1  0
 11 10  1  0
 12 11  2  0
 15 14  1  1
 14 13  1  0
 16 15  1  0
 16  7  1  0
 17 18  2  0
 17 15  1  0
 19 17  1  0
 20 19  1  0
 20 23  1  0
 20 21  1  1
 22 21  1  0
 23 24  1  0
 25 23  2  0
M  END
$$$$
