EQC.pdb
     RDKit          3D

 25 24  0  0  1  0  0  0  0  0999 V2000
   11.7845  -18.7114   21.2132 N   0  0  0  0  0  0  0  0  0  0  0  0
   12.8579  -17.8815   21.6891 C   0  0  1  0  0  0  0  0  0  0  0  0
   13.6463  -17.2957   20.5391 C   0  0  0  0  0  0  0  0  0  0  0  0
   13.3529  -18.1574   19.3158 C   0  0  0  0  0  0  0  0  0  0  0  0
   14.1280  -17.6853   18.1374 C   0  0  0  0  0  0  0  0  0  0  0  0
   13.8958  -16.6321   17.5216 O   0  0  0  0  0  0  0  0  0  0  0  0
   12.2750  -16.8250   22.5546 C   0  0  0  0  0  0  0  0  0  0  0  0
   12.9575  -15.8684   22.9787 O   0  0  0  0  0  0  0  0  0  0  0  0
   15.1749  -18.4916   17.7166 O   0  0  0  0  0  0  0  0  0  0  0  0
    6.1271  -15.9602   22.8808 N   0  0  0  0  0  0  0  0  0  0  0  0
    7.0234  -15.5649   21.8695 C   0  0  0  0  0  0  0  0  0  0  0  0
    6.5868  -15.2443   20.7475 O   0  0  0  0  0  0  0  0  0  0  0  0
    8.4710  -15.5326   22.1434 C   0  0  0  0  0  0  0  0  0  0  0  0
    8.7818  -16.0106   23.5501 C   0  0  0  0  0  0  0  0  0  0  0  0
   10.2699  -15.9708   23.8266 C   0  0  2  0  0  0  0  0  0  0  0  0
   10.9140  -16.8803   22.9227 N   0  0  0  0  0  0  0  0  0  0  0  0
   10.5428  -16.2365   25.2374 C   0  0  0  0  0  0  0  0  0  0  0  0
   10.9845  -17.3709   25.5561 O   0  0  0  0  0  0  0  0  0  0  0  0
   10.3518  -15.3147   26.3028 N   0  0  0  0  0  0  0  0  0  0  0  0
   10.6792  -15.6189   27.6832 C   0  0  1  0  0  0  0  0  0  0  0  0
   10.3162  -14.4806   28.6095 C   0  0  0  0  0  0  0  0  0  0  0  0
   10.3490  -12.9003   27.7383 S   0  0  0  0  0  0  0  0  0  0  0  0
    9.8402  -16.7878   28.0774 C   0  0  0  0  0  0  0  0  0  0  0  0
   10.0821  -17.5152   29.2514 O   0  0  0  0  0  0  0  0  0  0  0  0
    8.8655  -17.1942   27.3844 O   0  0  0  0  0  0  0  0  0  0  0  0
  2  7  1  0
  2  1  1  6
  3  2  1  0
  4  3  1  0
  5  4  1  0
  5  9  1  0
  6  5  2  0
  7  8  2  0
 11 13  1  0
 11 10  1  0
 12 11  2  0
 15 14  1  1
 14 13  1  0
 16 15  1  0
 16  7  1  0
 17 18  2  0
 17 15  1  0
 19 17  1  0
 20 19  1  0
 20 23  1  0
 20 21  1  1
 22 21  1  0
 23 24  1  0
 25 23  2  0
M  END
$$$$
