EQC.pdb
     RDKit          3D

 25 24  0  0  1  0  0  0  0  0999 V2000
    9.8783  -18.4262   20.2312 N   0  0  0  0  0  0  0  0  0  0  0  0
    9.6609  -17.0272   20.4823 C   0  0  1  0  0  0  0  0  0  0  0  0
    8.9161  -16.3764   19.3383 C   0  0  0  0  0  0  0  0  0  0  0  0
    8.8305  -14.8872   19.6548 C   0  0  0  0  0  0  0  0  0  0  0  0
    8.0585  -14.1668   18.6074 C   0  0  0  0  0  0  0  0  0  0  0  0
    8.2298  -12.9745   18.3056 O   0  0  0  0  0  0  0  0  0  0  0  0
    8.9251  -16.8981   21.7656 C   0  0  0  0  0  0  0  0  0  0  0  0
    7.7088  -17.1677   21.8588 O   0  0  0  0  0  0  0  0  0  0  0  0
    7.0880  -14.8959   17.9366 O   0  0  0  0  0  0  0  0  0  0  0  0
   11.6965  -19.5637   26.0866 N   0  0  0  0  0  0  0  0  0  0  0  0
   10.3751  -19.1916   26.3995 C   0  0  0  0  0  0  0  0  0  0  0  0
    9.9197  -19.4261   27.5352 O   0  0  0  0  0  0  0  0  0  0  0  0
    9.5395  -18.5279   25.3833 C   0  0  0  0  0  0  0  0  0  0  0  0
    9.9255  -17.0702   25.2111 C   0  0  0  0  0  0  0  0  0  0  0  0
    9.0059  -16.3712   24.2322 C   0  0  2  0  0  0  0  0  0  0  0  0
    9.5959  -16.4605   22.9272 N   0  0  0  0  0  0  0  0  0  0  0  0
    8.7248  -15.0053   24.6689 C   0  0  0  0  0  0  0  0  0  0  0  0
    9.6081  -14.1275   24.4876 O   0  0  0  0  0  0  0  0  0  0  0  0
    7.5235  -14.5686   25.2914 N   0  0  0  0  0  0  0  0  0  0  0  0
    7.3054  -13.2004   25.7222 C   0  0  1  0  0  0  0  0  0  0  0  0
    5.8342  -12.8893   25.8777 C   0  0  0  0  0  0  0  0  0  0  0  0
    5.5907  -11.2721   26.6411 S   0  0  0  0  0  0  0  0  0  0  0  0
    7.9248  -13.0702   27.0731 C   0  0  0  0  0  0  0  0  0  0  0  0
    8.4091  -14.1802   27.7797 O   0  0  0  0  0  0  0  0  0  0  0  0
    8.0520  -11.9604   27.6627 O   0  0  0  0  0  0  0  0  0  0  0  0
  2  7  1  0
  2  1  1  6
  3  2  1  0
  4  3  1  0
  5  4  1  0
  5  9  1  0
  6  5  2  0
  7  8  2  0
 11 13  1  0
 11 10  1  0
 12 11  2  0
 15 14  1  1
 14 13  1  0
 16 15  1  0
 16  7  1  0
 17 18  2  0
 17 15  1  0
 19 17  1  0
 20 19  1  0
 20 23  1  0
 20 21  1  1
 22 21  1  0
 23 24  1  0
 25 23  2  0
M  END
$$$$
