EQC.pdb
     RDKit          3D

 25 24  0  0  1  0  0  0  0  0999 V2000
    8.2275  -17.6443   19.3606 N   0  0  0  0  0  0  0  0  0  0  0  0
    9.0747  -17.5337   20.5171 C   0  0  1  0  0  0  0  0  0  0  0  0
   10.2861  -16.6763   20.2266 C   0  0  0  0  0  0  0  0  0  0  0  0
   11.4048  -17.6197   19.7980 C   0  0  0  0  0  0  0  0  0  0  0  0
   12.6606  -16.8672   19.5359 C   0  0  0  0  0  0  0  0  0  0  0  0
   13.7201  -17.0312   20.1626 O   0  0  0  0  0  0  0  0  0  0  0  0
    8.2629  -16.9838   21.6323 C   0  0  0  0  0  0  0  0  0  0  0  0
    7.2711  -16.2519   21.4281 O   0  0  0  0  0  0  0  0  0  0  0  0
   12.6217  -15.9249   18.5190 O   0  0  0  0  0  0  0  0  0  0  0  0
    7.7160  -20.0169   26.9838 N   0  0  0  0  0  0  0  0  0  0  0  0
    7.0305  -18.8276   27.2968 C   0  0  0  0  0  0  0  0  0  0  0  0
    6.4199  -18.7328   28.3787 O   0  0  0  0  0  0  0  0  0  0  0  0
    7.0391  -17.7032   26.3443 C   0  0  0  0  0  0  0  0  0  0  0  0
    7.7484  -18.0723   25.0542 C   0  0  0  0  0  0  0  0  0  0  0  0
    7.8355  -16.8859   24.1174 C   0  0  2  0  0  0  0  0  0  0  0  0
    8.6003  -17.2817   22.9695 N   0  0  0  0  0  0  0  0  0  0  0  0
    8.3633  -15.7138   24.8123 C   0  0  0  0  0  0  0  0  0  0  0  0
    9.5985  -15.6666   25.0487 O   0  0  0  0  0  0  0  0  0  0  0  0
    7.5962  -14.6014   25.2543 N   0  0  0  0  0  0  0  0  0  0  0  0
    8.1617  -13.4955   26.0043 C   0  0  1  0  0  0  0  0  0  0  0  0
    7.1564  -12.3855   26.2104 C   0  0  0  0  0  0  0  0  0  0  0  0
    5.5444  -13.0493   26.6778 S   0  0  0  0  0  0  0  0  0  0  0  0
    8.5114  -14.0249   27.3545 C   0  0  0  0  0  0  0  0  0  0  0  0
    9.2290  -13.2648   28.2888 O   0  0  0  0  0  0  0  0  0  0  0  0
    8.1861  -15.1830   27.7399 O   0  0  0  0  0  0  0  0  0  0  0  0
  2  7  1  0
  2  1  1  6
  3  2  1  0
  4  3  1  0
  5  4  1  0
  5  9  1  0
  6  5  2  0
  7  8  2  0
 11 13  1  0
 11 10  1  0
 12 11  2  0
 15 14  1  1
 14 13  1  0
 16 15  1  0
 16  7  1  0
 17 18  2  0
 17 15  1  0
 19 17  1  0
 20 19  1  0
 20 23  1  0
 20 21  1  1
 22 21  1  0
 23 24  1  0
 25 23  2  0
M  END
$$$$
