LHY.pdb
     RDKit          3D

 31 32  0  0  1  0  0  0  0  0999 V2000
   31.4055  -21.4109  -10.9702 C   0  0  0  0  0  0  0  0  0  0  0  0
   30.0163  -21.7204  -10.3925 C   0  0  1  0  0  0  0  0  0  0  0  0
   30.0508  -21.3299   -8.9436 C   0  0  0  0  0  0  0  0  0  0  0  0
   29.0461  -20.8959  -11.1698 C   0  0  0  0  0  0  0  0  0  0  0  0
   27.6113  -21.0642  -10.7873 C   0  0  2  0  0  0  0  0  0  0  0  0
   27.2981  -22.4796  -10.7924 N   0  0  0  0  0  0  0  0  0  0  0  0
   26.8082  -20.3473  -11.8437 C   0  0  0  0  0  0  0  0  0  0  0  0
   26.9991  -19.1088  -12.0304 O   0  0  0  0  0  0  0  0  0  0  0  0
   25.8736  -21.1037  -12.5792 N   0  0  0  0  0  0  0  0  0  0  0  0
   25.1505  -20.4826  -13.6707 C   0  0  1  0  0  0  0  0  0  0  0  0
   25.6450  -20.9251  -15.0002 C   0  0  0  0  0  0  0  0  0  0  0  0
   26.8994  -20.2498  -15.3913 C   0  0  0  0  0  0  0  0  0  0  0  0
   28.1811  -20.8191  -15.4124 C   0  0  0  0  0  0  0  0  0  0  0  0
   29.0526  -19.8881  -15.8223 N   0  0  0  0  0  0  0  0  0  0  0  0
   28.4017  -18.7571  -16.0643 C   0  0  0  0  0  0  0  0  0  0  0  0
   27.1117  -18.9731  -15.8063 N   0  0  0  0  0  0  0  0  0  0  0  0
   23.6953  -20.7859  -13.5867 C   0  0  0  0  0  0  0  0  0  0  0  0
   23.2473  -21.9504  -13.4599 O   0  0  0  0  0  0  0  0  0  0  0  0
   20.9755  -22.4818   -7.5487 O   0  0  0  0  0  0  0  0  0  0  0  0
   20.9384  -21.6964   -8.7044 C   0  0  0  0  0  0  0  0  0  0  0  0
   21.8702  -20.7182   -8.9612 C   0  0  0  0  0  0  0  0  0  0  0  0
   21.8183  -19.9580  -10.0992 C   0  0  0  0  0  0  0  0  0  0  0  0
   20.8182  -20.1389  -11.0525 C   0  0  0  0  0  0  0  0  0  0  0  0
   20.7399  -19.3190  -12.2727 C   0  0  0  0  0  0  0  0  0  0  0  0
   21.2842  -20.0724  -13.4478 C   0  0  2  0  0  0  0  0  0  0  0  0
   22.7095  -19.7573  -13.6463 N   0  0  0  0  0  0  0  0  0  0  0  0
   20.6026  -19.8223  -14.7223 C   0  0  0  0  0  0  0  0  0  0  0  0
   21.1039  -19.0482  -15.5608 O   0  0  0  0  0  0  0  0  0  0  0  0
   19.8941  -21.1164  -10.7870 C   0  0  0  0  0  0  0  0  0  0  0  0
   19.9422  -21.8874   -9.6385 C   0  0  0  0  0  0  0  0  0  0  0  0
   19.4043  -20.4360  -15.0103 O   0  0  0  0  0  0  0  0  0  0  0  0
  2  1  1  6
  3  2  1  0
  4  5  1  0
  4  2  1  0
  5  6  1  6
  7  5  1  0
  7  8  2  0
  9  7  1  0
 10  9  1  0
 10 11  1  6
 12 11  1  0
 13 12  2  0
 14 15  1  0
 14 13  1  0
 15 16  2  0
 16 12  1  0
 17 10  1  0
 18 17  2  0
 20 19  1  0
 20 30  2  0
 21 20  1  0
 22 21  2  0
 22 23  1  0
 23 29  2  0
 24 23  1  0
 25 26  1  0
 25 24  1  1
 26 17  1  0
 27 25  1  0
 28 27  2  0
 29 30  1  0
 31 27  1  0
M  END
$$$$
