LHY.pdb
     RDKit          3D

 31 32  0  0  1  0  0  0  0  0999 V2000
   47.2231  -11.5484   -4.1317 C   0  0  0  0  0  0  0  0  0  0  0  0
   46.6666  -11.7019   -5.5552 C   0  0  1  0  0  0  0  0  0  0  0  0
   46.5415  -13.1745   -5.8169 C   0  0  0  0  0  0  0  0  0  0  0  0
   45.3403  -11.0191   -5.5624 C   0  0  0  0  0  0  0  0  0  0  0  0
   44.6107  -11.0502   -6.8663 C   0  0  2  0  0  0  0  0  0  0  0  0
   45.3957  -11.8174   -7.8131 N   0  0  0  0  0  0  0  0  0  0  0  0
   44.5000   -9.6159   -7.3198 C   0  0  0  0  0  0  0  0  0  0  0  0
   45.4287   -9.1166   -8.0221 O   0  0  0  0  0  0  0  0  0  0  0  0
   43.3521   -8.8953   -6.9330 N   0  0  0  0  0  0  0  0  0  0  0  0
   43.1286   -7.5659   -7.4648 C   0  0  1  0  0  0  0  0  0  0  0  0
   42.9420   -7.5710   -8.9388 C   0  0  0  0  0  0  0  0  0  0  0  0
   42.7960   -6.2105   -9.4959 C   0  0  0  0  0  0  0  0  0  0  0  0
   43.7867   -5.2190   -9.5449 C   0  0  0  0  0  0  0  0  0  0  0  0
   43.2670   -4.1276  -10.1221 N   0  0  0  0  0  0  0  0  0  0  0  0
   42.0017   -4.3648  -10.4447 C   0  0  0  0  0  0  0  0  0  0  0  0
   41.7188   -5.6125  -10.0698 N   0  0  0  0  0  0  0  0  0  0  0  0
   41.9311   -6.9374   -6.8424 C   0  0  0  0  0  0  0  0  0  0  0  0
   40.7967   -7.4724   -6.8529 O   0  0  0  0  0  0  0  0  0  0  0  0
   36.4450   -2.5956   -1.6416 O   0  0  0  0  0  0  0  0  0  0  0  0
   37.4413   -3.3344   -2.2862 C   0  0  0  0  0  0  0  0  0  0  0  0
   37.1588   -4.4361   -3.0591 C   0  0  0  0  0  0  0  0  0  0  0  0
   38.1481   -5.1482   -3.6835 C   0  0  0  0  0  0  0  0  0  0  0  0
   39.4897   -4.7905   -3.5658 C   0  0  0  0  0  0  0  0  0  0  0  0
   40.5655   -5.5552   -4.2177 C   0  0  0  0  0  0  0  0  0  0  0  0
   40.7932   -5.0575   -5.6125 C   0  0  2  0  0  0  0  0  0  0  0  0
   42.0017   -5.6725   -6.1880 N   0  0  0  0  0  0  0  0  0  0  0  0
   40.9418   -3.6040   -5.7422 C   0  0  0  0  0  0  0  0  0  0  0  0
   42.0631   -3.0741   -5.6178 O   0  0  0  0  0  0  0  0  0  0  0  0
   39.7608   -3.6909   -2.7931 C   0  0  0  0  0  0  0  0  0  0  0  0
   38.7647   -2.9679   -2.1601 C   0  0  0  0  0  0  0  0  0  0  0  0
   39.8498   -2.8067   -6.0021 O   0  0  0  0  0  0  0  0  0  0  0  0
  2  1  1  1
  3  2  1  0
  4  5  1  0
  4  2  1  0
  5  6  1  6
  7  5  1  0
  7  8  2  0
  9  7  1  0
 10  9  1  0
 10 11  1  6
 12 11  1  0
 13 12  2  0
 14 15  1  0
 14 13  1  0
 15 16  2  0
 16 12  1  0
 17 10  1  0
 18 17  2  0
 20 19  1  0
 20 30  2  0
 21 20  1  0
 22 21  2  0
 22 23  1  0
 23 29  2  0
 24 23  1  0
 25 26  1  0
 25 24  1  1
 26 17  1  0
 27 25  1  0
 28 27  2  0
 29 30  1  0
 31 27  1  0
M  END
$$$$
