LHY.pdb
     RDKit          3D

 31 32  0  0  1  0  0  0  0  0999 V2000
   34.6953  -33.1937  -18.8793 C   0  0  0  0  0  0  0  0  0  0  0  0
   33.5631  -32.2961  -18.3576 C   0  0  1  0  0  0  0  0  0  0  0  0
   32.9450  -33.0094  -17.1906 C   0  0  0  0  0  0  0  0  0  0  0  0
   34.2012  -31.0103  -17.9516 C   0  0  0  0  0  0  0  0  0  0  0  0
   34.7469  -30.1842  -19.0710 C   0  0  2  0  0  0  0  0  0  0  0  0
   36.1735  -30.0239  -18.8700 N   0  0  0  0  0  0  0  0  0  0  0  0
   34.0531  -28.8477  -18.9834 C   0  0  0  0  0  0  0  0  0  0  0  0
   34.4695  -27.9890  -18.1502 O   0  0  0  0  0  0  0  0  0  0  0  0
   32.9618  -28.6205  -19.8458 N   0  0  0  0  0  0  0  0  0  0  0  0
   32.2553  -27.3565  -19.7886 C   0  0  1  0  0  0  0  0  0  0  0  0
   32.2831  -26.6344  -21.0868 C   0  0  0  0  0  0  0  0  0  0  0  0
   31.6205  -25.3159  -21.0158 C   0  0  0  0  0  0  0  0  0  0  0  0
   31.9327  -24.2725  -20.1320 C   0  0  0  0  0  0  0  0  0  0  0  0
   31.1093  -23.2454  -20.3799 N   0  0  0  0  0  0  0  0  0  0  0  0
   30.2893  -23.5724  -21.3708 C   0  0  0  0  0  0  0  0  0  0  0  0
   30.5950  -24.8127  -21.7523 N   0  0  0  0  0  0  0  0  0  0  0  0
   30.8340  -27.5578  -19.3940 C   0  0  0  0  0  0  0  0  0  0  0  0
   30.1198  -28.4767  -19.8614 O   0  0  0  0  0  0  0  0  0  0  0  0
   23.0107  -27.4772  -15.4333 O   0  0  0  0  0  0  0  0  0  0  0  0
   24.3650  -27.3214  -15.7421 C   0  0  0  0  0  0  0  0  0  0  0  0
   25.2034  -28.3927  -15.9428 C   0  0  0  0  0  0  0  0  0  0  0  0
   26.5282  -28.2212  -16.2448 C   0  0  0  0  0  0  0  0  0  0  0  0
   27.0910  -26.9521  -16.3633 C   0  0  0  0  0  0  0  0  0  0  0  0
   28.5166  -26.7518  -16.6714 C   0  0  0  0  0  0  0  0  0  0  0  0
   28.7574  -26.8717  -18.1454 C   0  0  2  0  0  0  0  0  0  0  0  0
   30.1896  -26.7070  -18.4483 N   0  0  0  0  0  0  0  0  0  0  0  0
   28.0242  -25.9137  -18.9797 C   0  0  0  0  0  0  0  0  0  0  0  0
   26.9762  -26.2595  -19.5591 O   0  0  0  0  0  0  0  0  0  0  0  0
   26.2469  -25.8907  -16.1611 C   0  0  0  0  0  0  0  0  0  0  0  0
   24.9075  -26.0587  -15.8559 C   0  0  0  0  0  0  0  0  0  0  0  0
   28.4804  -24.6240  -19.1346 O   0  0  0  0  0  0  0  0  0  0  0  0
  2  1  1  1
  3  2  1  0
  4  5  1  0
  4  2  1  0
  5  6  1  1
  7  5  1  0
  7  8  2  0
  9  7  1  0
 10  9  1  0
 10 11  1  6
 12 11  1  0
 13 12  2  0
 14 15  1  0
 14 13  1  0
 15 16  2  0
 16 12  1  0
 17 10  1  0
 18 17  2  0
 20 19  1  0
 20 30  2  0
 21 20  1  0
 22 21  2  0
 22 23  1  0
 23 29  2  0
 24 23  1  0
 25 26  1  0
 25 24  1  1
 26 17  1  0
 27 25  1  0
 28 27  2  0
 29 30  1  0
 31 27  1  0
M  END
$$$$
