LHY.pdb
     RDKit          3D

 31 32  0  0  1  0  0  0  0  0999 V2000
   27.9771  -15.3954  -20.4101 C   0  0  0  0  0  0  0  0  0  0  0  0
   27.8338  -16.7201  -19.6457 C   0  0  1  0  0  0  0  0  0  0  0  0
   29.1742  -17.0204  -19.0408 C   0  0  0  0  0  0  0  0  0  0  0  0
   26.7900  -16.4923  -18.6046 C   0  0  0  0  0  0  0  0  0  0  0  0
   26.6814  -17.5577  -17.5623 C   0  0  2  0  0  0  0  0  0  0  0  0
   26.9956  -18.8331  -18.1754 N   0  0  0  0  0  0  0  0  0  0  0  0
   25.2478  -17.5419  -17.0936 C   0  0  0  0  0  0  0  0  0  0  0  0
   24.7814  -16.4880  -16.5676 O   0  0  0  0  0  0  0  0  0  0  0  0
   24.4907  -18.7179  -17.2680 N   0  0  0  0  0  0  0  0  0  0  0  0
   23.1153  -18.7576  -16.8132 C   0  0  1  0  0  0  0  0  0  0  0  0
   22.1973  -19.3184  -17.8381 C   0  0  0  0  0  0  0  0  0  0  0  0
   21.9534  -18.3810  -18.9536 C   0  0  0  0  0  0  0  0  0  0  0  0
   22.3292  -18.5628  -20.2925 C   0  0  0  0  0  0  0  0  0  0  0  0
   21.9311  -17.4935  -20.9942 N   0  0  0  0  0  0  0  0  0  0  0  0
   21.3227  -16.6393  -20.1809 C   0  0  0  0  0  0  0  0  0  0  0  0
   21.3357  -17.1703  -18.9581 N   0  0  0  0  0  0  0  0  0  0  0  0
   22.9875  -19.5716  -15.5731 C   0  0  0  0  0  0  0  0  0  0  0  0
   23.5754  -20.6678  -15.4130 O   0  0  0  0  0  0  0  0  0  0  0  0
   21.9044  -21.7807   -7.1258 O   0  0  0  0  0  0  0  0  0  0  0  0
   22.1124  -21.1340   -8.3475 C   0  0  0  0  0  0  0  0  0  0  0  0
   23.3058  -21.2074   -9.0268 C   0  0  0  0  0  0  0  0  0  0  0  0
   23.4917  -20.5672  -10.2231 C   0  0  0  0  0  0  0  0  0  0  0  0
   22.4802  -19.8098  -10.8102 C   0  0  0  0  0  0  0  0  0  0  0  0
   22.6702  -19.1028  -12.0874 C   0  0  0  0  0  0  0  0  0  0  0  0
   22.1467  -19.9244  -13.2257 C   0  0  2  0  0  0  0  0  0  0  0  0
   22.1781  -19.1490  -14.4779 N   0  0  0  0  0  0  0  0  0  0  0  0
   20.7780  -20.4250  -13.0592 C   0  0  0  0  0  0  0  0  0  0  0  0
   20.5794  -21.5798  -12.6344 O   0  0  0  0  0  0  0  0  0  0  0  0
   21.2945  -19.7427  -10.1250 C   0  0  0  0  0  0  0  0  0  0  0  0
   21.1015  -20.3880   -8.9159 C   0  0  0  0  0  0  0  0  0  0  0  0
   19.6970  -19.6303  -13.3684 O   0  0  0  0  0  0  0  0  0  0  0  0
  2  1  1  1
  3  2  1  0
  4  5  1  0
  4  2  1  0
  5  6  1  6
  7  5  1  0
  7  8  2  0
  9  7  1  0
 10  9  1  0
 10 11  1  6
 12 11  1  0
 13 12  2  0
 14 15  1  0
 14 13  1  0
 15 16  2  0
 16 12  1  0
 17 10  1  0
 18 17  2  0
 20 19  1  0
 20 30  2  0
 21 20  1  0
 22 21  2  0
 22 23  1  0
 23 29  2  0
 24 23  1  0
 25 26  1  0
 25 24  1  1
 26 17  1  0
 27 25  1  0
 28 27  2  0
 29 30  1  0
 31 27  1  0
M  END
$$$$
