LHY.pdb
     RDKit          3D

 31 32  0  0  1  0  0  0  0  0999 V2000
   24.0867  -14.6847  -22.0766 C   0  0  0  0  0  0  0  0  0  0  0  0
   23.7344  -14.2765  -20.6382 C   0  0  1  0  0  0  0  0  0  0  0  0
   22.6624  -13.2303  -20.7332 C   0  0  0  0  0  0  0  0  0  0  0  0
   23.2492  -15.5127  -19.9588 C   0  0  0  0  0  0  0  0  0  0  0  0
   22.7835  -15.3292  -18.5507 C   0  0  2  0  0  0  0  0  0  0  0  0
   23.5777  -14.2830  -17.9374 N   0  0  0  0  0  0  0  0  0  0  0  0
   23.0246  -16.6450  -17.8539 C   0  0  0  0  0  0  0  0  0  0  0  0
   22.6458  -17.7178  -18.4113 O   0  0  0  0  0  0  0  0  0  0  0  0
   23.6684  -16.6121  -16.6005 N   0  0  0  0  0  0  0  0  0  0  0  0
   23.9757  -17.8545  -15.9208 C   0  0  1  0  0  0  0  0  0  0  0  0
   25.3250  -17.8395  -15.2987 C   0  0  0  0  0  0  0  0  0  0  0  0
   26.4060  -18.0383  -16.2857 C   0  0  0  0  0  0  0  0  0  0  0  0
   26.2473  -18.3060  -17.6533 C   0  0  0  0  0  0  0  0  0  0  0  0
   27.4615  -18.4210  -18.2072 N   0  0  0  0  0  0  0  0  0  0  0  0
   28.3865  -18.2423  -17.2725 C   0  0  0  0  0  0  0  0  0  0  0  0
   27.7550  -18.0130  -16.1211 N   0  0  0  0  0  0  0  0  0  0  0  0
   22.9727  -18.1432  -14.8591 C   0  0  0  0  0  0  0  0  0  0  0  0
   22.7185  -17.3452  -13.9256 O   0  0  0  0  0  0  0  0  0  0  0  0
   16.3778  -21.5318  -10.1527 O   0  0  0  0  0  0  0  0  0  0  0  0
   17.3253  -21.3203  -11.1583 C   0  0  0  0  0  0  0  0  0  0  0  0
   18.3727  -22.1840  -11.3779 C   0  0  0  0  0  0  0  0  0  0  0  0
   19.2920  -21.9608  -12.3682 C   0  0  0  0  0  0  0  0  0  0  0  0
   19.2105  -20.8473  -13.2018 C   0  0  0  0  0  0  0  0  0  0  0  0
   20.1999  -20.5854  -14.2600 C   0  0  0  0  0  0  0  0  0  0  0  0
   21.2365  -19.6150  -13.7817 C   0  0  2  0  0  0  0  0  0  0  0  0
   22.2305  -19.3606  -14.8387 N   0  0  0  0  0  0  0  0  0  0  0  0
   21.9737  -20.0268  -12.5823 C   0  0  0  0  0  0  0  0  0  0  0  0
   22.9425  -20.8052  -12.6775 O   0  0  0  0  0  0  0  0  0  0  0  0
   18.1629  -19.9924  -12.9747 C   0  0  0  0  0  0  0  0  0  0  0  0
   17.2312  -20.2135  -11.9753 C   0  0  0  0  0  0  0  0  0  0  0  0
   21.6081  -19.5619  -11.3390 O   0  0  0  0  0  0  0  0  0  0  0  0
  2  1  1  6
  3  2  1  0
  4  5  1  0
  4  2  1  0
  5  6  1  1
  7  5  1  0
  7  8  2  0
  9  7  1  0
 10  9  1  0
 10 11  1  1
 12 11  1  0
 13 12  2  0
 14 15  1  0
 14 13  1  0
 15 16  2  0
 16 12  1  0
 17 10  1  0
 18 17  2  0
 20 19  1  0
 20 30  2  0
 21 20  1  0
 22 21  2  0
 22 23  1  0
 23 29  2  0
 24 23  1  0
 25 26  1  0
 25 24  1  6
 26 17  1  0
 27 25  1  0
 28 27  2  0
 29 30  1  0
 31 27  1  0
M  END
$$$$
