PIH.pdb
     RDKit          3D

 26 27  0  0  1  0  0  0  0  0999 V2000
    6.7250  -14.9085   21.0600 N   0  0  0  0  0  0  0  0  0  0  0  0
    5.9721  -13.8662   20.4129 C   0  0  0  0  0  0  0  0  0  0  0  0
    6.9368  -13.0841   19.5818 C   0  0  0  0  0  0  0  0  0  0  0  0
    8.2179  -13.1885   20.3878 C   0  0  0  0  0  0  0  0  0  0  0  0
    8.0994  -14.5236   21.0917 C   0  0  1  0  0  0  0  0  0  0  0  0
    8.5477  -14.3873   22.5228 C   0  0  0  0  0  0  0  0  0  0  0  0
    9.7539  -14.1427   22.7776 O   0  0  0  0  0  0  0  0  0  0  0  0
    7.6658  -11.2840   25.5700 C   0  0  0  0  0  0  0  0  0  0  0  0
    6.6058  -12.3357   25.4496 C   0  0  0  0  0  0  0  0  0  0  0  0
    7.0885  -13.6932   25.8297 C   0  0  2  0  0  0  0  0  0  0  0  0
    7.7463  -13.4869   27.2190 C   0  0  0  0  0  0  0  0  0  0  0  0
    8.0952  -14.3321   24.9386 C   0  0  2  0  0  0  0  0  0  0  0  0
    7.6072  -14.5354   23.5821 N   0  0  0  0  0  0  0  0  0  0  0  0
    8.4478  -15.6970   25.4071 C   0  0  0  0  0  0  0  0  0  0  0  0
    7.5096  -16.5736   25.3752 O   0  0  0  0  0  0  0  0  0  0  0  0
    9.6770  -16.1564   25.8759 N   0  0  0  0  0  0  0  0  0  0  0  0
    9.8678  -17.6211   26.1654 C   0  0  1  0  0  0  0  0  0  0  0  0
   11.1911  -17.9313   25.5521 C   0  0  0  0  0  0  0  0  0  0  0  0
   11.2516  -17.9247   24.0888 C   0  0  0  0  0  0  0  0  0  0  0  0
   10.3124  -17.8421   23.0968 C   0  0  0  0  0  0  0  0  0  0  0  0
   10.9243  -17.8271   21.8907 N   0  0  0  0  0  0  0  0  0  0  0  0
   12.2244  -17.8979   22.1254 C   0  0  0  0  0  0  0  0  0  0  0  0
   12.4586  -17.9579   23.4415 N   0  0  0  0  0  0  0  0  0  0  0  0
    9.8841  -17.6872   27.6420 C   0  0  0  0  0  0  0  0  0  0  0  0
    9.9182  -18.8657   28.3405 O   0  0  0  0  0  0  0  0  0  0  0  0
    9.8669  -16.6313   28.3154 O   0  0  0  0  0  0  0  0  0  0  0  0
  2  1  1  0
  3  2  1  0
  4  3  1  0
  4  5  1  0
  5  1  1  0
  5  6  1  1
  6  7  2  0
  9  8  1  0
  9 10  1  0
 10 11  1  1
 12 10  1  0
 13  6  1  0
 12 13  1  6
 14 12  1  0
 14 15  2  0
 16 14  1  0
 17 16  1  0
 18 19  1  0
 17 18  1  6
 19 23  1  0
 20 21  1  0
 20 19  2  0
 21 22  1  0
 22 23  2  0
 24 17  1  0
 24 25  1  0
 26 24  2  0
M  END
$$$$
