PIH.pdb
     RDKit          3D

 26 27  0  0  1  0  0  0  0  0999 V2000
    7.0493  -14.7897   20.7117 N   0  0  0  0  0  0  0  0  0  0  0  0
    6.3511  -13.7464   20.0076 C   0  0  0  0  0  0  0  0  0  0  0  0
    7.3795  -12.9633   19.2578 C   0  0  0  0  0  0  0  0  0  0  0  0
    8.5917  -13.0691   20.1642 C   0  0  0  0  0  0  0  0  0  0  0  0
    8.4168  -14.4052   20.8544 C   0  0  1  0  0  0  0  0  0  0  0  0
    8.7485  -14.2710   22.3171 C   0  0  0  0  0  0  0  0  0  0  0  0
    9.9394  -14.0820   22.6715 O   0  0  0  0  0  0  0  0  0  0  0  0
    5.8475  -11.6757   26.2963 C   0  0  0  0  0  0  0  0  0  0  0  0
    6.9277  -12.2241   25.4152 C   0  0  0  0  0  0  0  0  0  0  0  0
    7.1247  -13.6916   25.5822 C   0  0  2  0  0  0  0  0  0  0  0  0
    7.6197  -13.8442   27.0441 C   0  0  0  0  0  0  0  0  0  0  0  0
    8.1195  -14.3507   24.6924 C   0  0  2  0  0  0  0  0  0  0  0  0
    7.7154  -14.3581   23.2938 N   0  0  0  0  0  0  0  0  0  0  0  0
    8.2844  -15.7876   25.0314 C   0  0  0  0  0  0  0  0  0  0  0  0
    7.2159  -16.5004   25.0393 O   0  0  0  0  0  0  0  0  0  0  0  0
    9.4591  -16.4710   25.3393 N   0  0  0  0  0  0  0  0  0  0  0  0
    9.3914  -17.8915   25.8324 C   0  0  1  0  0  0  0  0  0  0  0  0
    9.5893  -18.7025   24.5969 C   0  0  0  0  0  0  0  0  0  0  0  0
   10.7533  -18.3672   23.7737 C   0  0  0  0  0  0  0  0  0  0  0  0
   11.7285  -17.4098   23.8476 C   0  0  0  0  0  0  0  0  0  0  0  0
   12.6130  -17.5821   22.8390 N   0  0  0  0  0  0  0  0  0  0  0  0
   12.1979  -18.6307   22.1472 C   0  0  0  0  0  0  0  0  0  0  0  0
   11.0781  -19.1300   22.6830 N   0  0  0  0  0  0  0  0  0  0  0  0
   10.5244  -17.9889   26.7767 C   0  0  0  0  0  0  0  0  0  0  0  0
   10.8630  -19.1470   27.4264 O   0  0  0  0  0  0  0  0  0  0  0  0
   11.2284  -16.9807   27.0149 O   0  0  0  0  0  0  0  0  0  0  0  0
  2  1  1  0
  3  2  1  0
  4  3  1  0
  4  5  1  0
  5  1  1  0
  5  6  1  1
  6  7  2  0
  9  8  1  0
  9 10  1  0
 10 11  1  1
 12 10  1  0
 13  6  1  0
 12 13  1  6
 14 12  1  0
 14 15  2  0
 16 14  1  0
 17 16  1  0
 18 19  1  0
 17 18  1  6
 19 23  1  0
 20 21  1  0
 20 19  2  0
 21 22  1  0
 22 23  2  0
 24 17  1  0
 24 25  1  0
 26 24  2  0
M  END
$$$$
