PIH.pdb
     RDKit          3D

 26 27  0  0  1  0  0  0  0  0999 V2000
    9.0584  -14.5204   18.6730 N   0  0  0  0  0  0  0  0  0  0  0  0
    8.1432  -14.1075   17.6416 C   0  0  0  0  0  0  0  0  0  0  0  0
    7.4449  -12.8851   18.1429 C   0  0  0  0  0  0  0  0  0  0  0  0
    7.3899  -13.1337   19.6386 C   0  0  0  0  0  0  0  0  0  0  0  0
    8.6206  -13.9707   19.9158 C   0  0  1  0  0  0  0  0  0  0  0  0
    8.2742  -15.0890   20.8628 C   0  0  0  0  0  0  0  0  0  0  0  0
    7.0692  -15.3397   21.1173 O   0  0  0  0  0  0  0  0  0  0  0  0
   10.0589  -20.1399   20.4817 C   0  0  0  0  0  0  0  0  0  0  0  0
    9.3086  -18.8616   20.6986 C   0  0  0  0  0  0  0  0  0  0  0  0
    9.5997  -18.2338   22.0183 C   0  0  2  0  0  0  0  0  0  0  0  0
    9.1388  -19.2937   23.0527 C   0  0  0  0  0  0  0  0  0  0  0  0
    8.9035  -16.9563   22.3329 C   0  0  2  0  0  0  0  0  0  0  0  0
    9.3094  -15.8586   21.4669 N   0  0  0  0  0  0  0  0  0  0  0  0
    9.2318  -16.4808   23.7016 C   0  0  0  0  0  0  0  0  0  0  0  0
   10.3778  -15.9210   23.8538 O   0  0  0  0  0  0  0  0  0  0  0  0
    8.4490  -16.5584   24.8516 N   0  0  0  0  0  0  0  0  0  0  0  0
    8.9861  -16.0413   26.1591 C   0  0  1  0  0  0  0  0  0  0  0  0
    7.8111  -15.3636   26.7786 C   0  0  0  0  0  0  0  0  0  0  0  0
    7.4373  -14.0622   26.2205 C   0  0  0  0  0  0  0  0  0  0  0  0
    7.9718  -13.2492   25.2580 C   0  0  0  0  0  0  0  0  0  0  0  0
    7.1851  -12.1615   25.0924 N   0  0  0  0  0  0  0  0  0  0  0  0
    6.1751  -12.2934   25.9367 C   0  0  0  0  0  0  0  0  0  0  0  0
    6.2946  -13.4294   26.6338 N   0  0  0  0  0  0  0  0  0  0  0  0
    9.3943  -17.2659   26.8792 C   0  0  0  0  0  0  0  0  0  0  0  0
   10.3114  -17.2678   27.8974 O   0  0  0  0  0  0  0  0  0  0  0  0
    8.8947  -18.3711   26.5664 O   0  0  0  0  0  0  0  0  0  0  0  0
  2  1  1  0
  3  2  1  0
  4  3  1  0
  4  5  1  0
  5  1  1  0
  5  6  1  1
  6  7  2  0
  9  8  1  0
  9 10  1  0
 10 11  1  1
 12 10  1  0
 13  6  1  0
 12 13  1  6
 14 12  1  0
 14 15  2  0
 16 14  1  0
 17 16  1  0
 18 19  1  0
 17 18  1  1
 19 23  1  0
 20 21  1  0
 20 19  2  0
 21 22  1  0
 22 23  2  0
 24 17  1  0
 24 25  1  0
 26 24  2  0
M  END
$$$$
