PIH.pdb
     RDKit          3D

 26 27  0  0  1  0  0  0  0  0999 V2000
    6.8866  -14.7097   20.5949 N   0  0  0  0  0  0  0  0  0  0  0  0
    6.2625  -13.5833   19.9519 C   0  0  0  0  0  0  0  0  0  0  0  0
    7.3287  -12.8780   19.1779 C   0  0  0  0  0  0  0  0  0  0  0  0
    8.5625  -13.1267   20.0252 C   0  0  0  0  0  0  0  0  0  0  0  0
    8.2895  -14.4612   20.6860 C   0  0  1  0  0  0  0  0  0  0  0  0
    8.6944  -14.4051   22.1352 C   0  0  0  0  0  0  0  0  0  0  0  0
    9.9080  -14.2850   22.4393 O   0  0  0  0  0  0  0  0  0  0  0  0
    5.4379  -11.8436   25.8492 C   0  0  0  0  0  0  0  0  0  0  0  0
    6.5825  -12.3050   25.0000 C   0  0  0  0  0  0  0  0  0  0  0  0
    7.0805  -13.6568   25.3808 C   0  0  2  0  0  0  0  0  0  0  0  0
    7.6712  -13.4575   26.8010 C   0  0  0  0  0  0  0  0  0  0  0  0
    8.1407  -14.2576   24.5259 C   0  0  2  0  0  0  0  0  0  0  0  0
    7.7047  -14.4881   23.1562 N   0  0  0  0  0  0  0  0  0  0  0  0
    8.5348  -15.6042   25.0141 C   0  0  0  0  0  0  0  0  0  0  0  0
    7.6421  -16.5246   24.9386 O   0  0  0  0  0  0  0  0  0  0  0  0
    9.7602  -16.0044   25.5431 N   0  0  0  0  0  0  0  0  0  0  0  0
    9.9472  -17.4237   26.0080 C   0  0  1  0  0  0  0  0  0  0  0  0
   11.0541  -17.9325   25.1481 C   0  0  0  0  0  0  0  0  0  0  0  0
   11.6056  -19.2430   25.4992 C   0  0  0  0  0  0  0  0  0  0  0  0
   11.3020  -20.1813   26.4480 C   0  0  0  0  0  0  0  0  0  0  0  0
   12.1078  -21.2573   26.2986 N   0  0  0  0  0  0  0  0  0  0  0  0
   12.9011  -20.9958   25.2725 C   0  0  0  0  0  0  0  0  0  0  0  0
   12.6258  -19.7886   24.7653 N   0  0  0  0  0  0  0  0  0  0  0  0
   10.3357  -17.2793   27.4269 C   0  0  0  0  0  0  0  0  0  0  0  0
   10.4009  -18.3345   28.2987 O   0  0  0  0  0  0  0  0  0  0  0  0
   10.6257  -16.1498   27.8839 O   0  0  0  0  0  0  0  0  0  0  0  0
  2  1  1  0
  3  2  1  0
  4  3  1  0
  4  5  1  0
  5  1  1  0
  5  6  1  1
  6  7  2  0
  9  8  1  0
  9 10  1  0
 10 11  1  1
 12 10  1  0
 13  6  1  0
 12 13  1  6
 14 12  1  0
 14 15  2  0
 16 14  1  0
 17 16  1  0
 18 19  1  0
 17 18  1  6
 19 23  1  0
 20 21  1  0
 20 19  2  0
 21 22  1  0
 22 23  2  0
 24 17  1  0
 24 25  1  0
 26 24  2  0
M  END
$$$$
