PIH.pdb
     RDKit          3D

 26 27  0  0  1  0  0  0  0  0999 V2000
    7.0171  -15.6503   21.3058 N   0  0  0  0  0  0  0  0  0  0  0  0
    6.2270  -14.6693   20.6090 C   0  0  0  0  0  0  0  0  0  0  0  0
    7.1467  -13.9549   19.6726 C   0  0  0  0  0  0  0  0  0  0  0  0
    8.4636  -13.9854   20.4255 C   0  0  0  0  0  0  0  0  0  0  0  0
    8.3882  -15.2576   21.2428 C   0  0  1  0  0  0  0  0  0  0  0  0
    8.8991  -15.0000   22.6357 C   0  0  0  0  0  0  0  0  0  0  0  0
   10.1009  -14.6754   22.8089 O   0  0  0  0  0  0  0  0  0  0  0  0
    6.0602  -11.9752   26.0970 C   0  0  0  0  0  0  0  0  0  0  0  0
    7.1004  -12.6545   25.2600 C   0  0  0  0  0  0  0  0  0  0  0  0
    7.5782  -13.9351   25.8535 C   0  0  2  0  0  0  0  0  0  0  0  0
    8.2872  -13.5049   27.1641 C   0  0  0  0  0  0  0  0  0  0  0  0
    8.5444  -14.7373   25.0542 C   0  0  2  0  0  0  0  0  0  0  0  0
    8.0224  -15.1243   23.7514 N   0  0  0  0  0  0  0  0  0  0  0  0
    8.8598  -16.0282   25.7182 C   0  0  0  0  0  0  0  0  0  0  0  0
    7.8709  -16.8205   25.9286 O   0  0  0  0  0  0  0  0  0  0  0  0
   10.1011  -16.4989   26.1416 N   0  0  0  0  0  0  0  0  0  0  0  0
   10.2217  -17.8885   26.7070 C   0  0  1  0  0  0  0  0  0  0  0  0
   11.5511  -18.3534   26.2171 C   0  0  0  0  0  0  0  0  0  0  0  0
   11.6853  -18.5438   24.7712 C   0  0  0  0  0  0  0  0  0  0  0  0
   10.8289  -18.4225   23.7106 C   0  0  0  0  0  0  0  0  0  0  0  0
   11.4928  -18.6700   22.5586 N   0  0  0  0  0  0  0  0  0  0  0  0
   12.7438  -18.9404   22.8939 C   0  0  0  0  0  0  0  0  0  0  0  0
   12.8963  -18.8731   24.2215 N   0  0  0  0  0  0  0  0  0  0  0  0
   10.1854  -17.6761   28.1694 C   0  0  0  0  0  0  0  0  0  0  0  0
   10.0939  -18.7006   29.0749 O   0  0  0  0  0  0  0  0  0  0  0  0
   10.2397  -16.5143   28.6341 O   0  0  0  0  0  0  0  0  0  0  0  0
  2  1  1  0
  3  2  1  0
  4  3  1  0
  4  5  1  0
  5  1  1  0
  5  6  1  1
  6  7  2  0
  9  8  1  0
  9 10  1  0
 10 11  1  1
 12 10  1  0
 13  6  1  0
 12 13  1  6
 14 12  1  0
 14 15  2  0
 16 14  1  0
 17 16  1  0
 18 19  1  0
 17 18  1  1
 19 23  1  0
 20 21  1  0
 20 19  2  0
 21 22  1  0
 22 23  2  0
 24 17  1  0
 24 25  1  0
 26 24  2  0
M  END
$$$$
