PIH.pdb
     RDKit          3D

 26 27  0  0  1  0  0  0  0  0999 V2000
    9.2420  -14.4265   19.3297 N   0  0  0  0  0  0  0  0  0  0  0  0
    8.6167  -14.2689   18.0428 C   0  0  0  0  0  0  0  0  0  0  0  0
    7.8242  -13.0031   18.0959 C   0  0  0  0  0  0  0  0  0  0  0  0
    7.3953  -12.9501   19.5503 C   0  0  0  0  0  0  0  0  0  0  0  0
    8.5115  -13.6596   20.2869 C   0  0  1  0  0  0  0  0  0  0  0  0
    7.9312  -14.5804   21.3276 C   0  0  0  0  0  0  0  0  0  0  0  0
    7.0220  -14.1656   22.0898 O   0  0  0  0  0  0  0  0  0  0  0  0
    7.5243  -20.1460   20.5879 C   0  0  0  0  0  0  0  0  0  0  0  0
    7.2801  -18.6911   20.8478 C   0  0  0  0  0  0  0  0  0  0  0  0
    7.8903  -18.2182   22.1223 C   0  0  2  0  0  0  0  0  0  0  0  0
    7.1325  -19.0074   23.2216 C   0  0  0  0  0  0  0  0  0  0  0  0
    7.7712  -16.7682   22.4374 C   0  0  2  0  0  0  0  0  0  0  0  0
    8.4121  -15.9159   21.4463 N   0  0  0  0  0  0  0  0  0  0  0  0
    8.4604  -16.4297   23.7091 C   0  0  0  0  0  0  0  0  0  0  0  0
    9.7329  -16.2667   23.6451 O   0  0  0  0  0  0  0  0  0  0  0  0
    7.9005  -16.2586   24.9736 N   0  0  0  0  0  0  0  0  0  0  0  0
    8.7731  -15.8485   26.1294 C   0  0  1  0  0  0  0  0  0  0  0  0
    7.8581  -15.0502   26.9948 C   0  0  0  0  0  0  0  0  0  0  0  0
    7.4062  -13.7646   26.4582 C   0  0  0  0  0  0  0  0  0  0  0  0
    7.7027  -13.0448   25.3326 C   0  0  0  0  0  0  0  0  0  0  0  0
    6.9471  -11.9235   25.2969 N   0  0  0  0  0  0  0  0  0  0  0  0
    6.1901  -11.9432   26.3819 C   0  0  0  0  0  0  0  0  0  0  0  0
    6.4405  -13.0402   27.1060 N   0  0  0  0  0  0  0  0  0  0  0  0
    9.1728  -17.1339   26.7400 C   0  0  0  0  0  0  0  0  0  0  0  0
   10.2462  -17.2636   27.5820 O   0  0  0  0  0  0  0  0  0  0  0  0
    8.5178  -18.1730   26.4951 O   0  0  0  0  0  0  0  0  0  0  0  0
  2  1  1  0
  3  2  1  0
  4  3  1  0
  4  5  1  0
  5  1  1  0
  5  6  1  1
  6  7  2  0
  9  8  1  0
  9 10  1  0
 10 11  1  1
 12 10  1  0
 13  6  1  0
 12 13  1  6
 14 12  1  0
 14 15  2  0
 16 14  1  0
 17 16  1  0
 18 19  1  0
 17 18  1  1
 19 23  1  0
 20 21  1  0
 20 19  2  0
 21 22  1  0
 22 23  2  0
 24 17  1  0
 24 25  1  0
 26 24  2  0
M  END
$$$$
