PIH.pdb
     RDKit          3D

 26 27  0  0  1  0  0  0  0  0999 V2000
    8.1670  -15.1082   20.0252 N   0  0  0  0  0  0  0  0  0  0  0  0
    8.0051  -16.3910   19.3926 C   0  0  0  0  0  0  0  0  0  0  0  0
    6.6421  -16.8857   19.7538 C   0  0  0  0  0  0  0  0  0  0  0  0
    6.4413  -16.3001   21.1390 C   0  0  0  0  0  0  0  0  0  0  0  0
    7.2498  -15.0203   21.1157 C   0  0  1  0  0  0  0  0  0  0  0  0
    8.0167  -14.8780   22.4038 C   0  0  0  0  0  0  0  0  0  0  0  0
    9.2733  -14.8980   22.3867 O   0  0  0  0  0  0  0  0  0  0  0  0
    6.0598  -11.3732   26.2160 C   0  0  0  0  0  0  0  0  0  0  0  0
    6.9394  -12.1062   25.2500 C   0  0  0  0  0  0  0  0  0  0  0  0
    7.3423  -13.4547   25.7393 C   0  0  2  0  0  0  0  0  0  0  0  0
    8.2581  -13.1591   26.9557 C   0  0  0  0  0  0  0  0  0  0  0  0
    8.1010  -14.3222   24.7971 C   0  0  2  0  0  0  0  0  0  0  0  0
    7.3191  -14.7214   23.6358 N   0  0  0  0  0  0  0  0  0  0  0  0
    8.4895  -15.6070   25.4337 C   0  0  0  0  0  0  0  0  0  0  0  0
    7.5310  -16.3976   25.7594 O   0  0  0  0  0  0  0  0  0  0  0  0
    9.7706  -16.0736   25.7211 N   0  0  0  0  0  0  0  0  0  0  0  0
    9.9591  -17.4761   26.2339 C   0  0  1  0  0  0  0  0  0  0  0  0
   11.2722  -17.8871   25.6594 C   0  0  0  0  0  0  0  0  0  0  0  0
   11.3490  -17.9745   24.1995 C   0  0  0  0  0  0  0  0  0  0  0  0
   10.4746  -18.3631   23.2210 C   0  0  0  0  0  0  0  0  0  0  0  0
   11.0467  -18.1968   22.0068 N   0  0  0  0  0  0  0  0  0  0  0  0
   12.2583  -17.7111   22.2231 C   0  0  0  0  0  0  0  0  0  0  0  0
   12.4747  -17.5638   23.5353 N   0  0  0  0  0  0  0  0  0  0  0  0
    9.9958  -17.3103   27.7023 C   0  0  0  0  0  0  0  0  0  0  0  0
    9.9902  -18.3649   28.5773 O   0  0  0  0  0  0  0  0  0  0  0  0
   10.0348  -16.1621   28.2011 O   0  0  0  0  0  0  0  0  0  0  0  0
  2  1  1  0
  3  2  1  0
  4  3  1  0
  4  5  1  0
  5  1  1  0
  5  6  1  1
  6  7  2  0
  9  8  1  0
  9 10  1  0
 10 11  1  1
 12 10  1  0
 13  6  1  0
 12 13  1  6
 14 12  1  0
 14 15  2  0
 16 14  1  0
 17 16  1  0
 18 19  1  0
 17 18  1  6
 19 23  1  0
 20 21  1  0
 20 19  2  0
 21 22  1  0
 22 23  2  0
 24 17  1  0
 24 25  1  0
 26 24  2  0
M  END
$$$$
