LSV.pdb
     RDKit          3D

 22 21  0  0  1  0  0  0  0  0999 V2000
    9.6147  -13.0026   19.6102 C   0  0  0  0  0  0  0  0  0  0  0  0
    8.1099  -13.2700   19.6789 C   0  0  2  0  0  0  0  0  0  0  0  0
    7.3408  -11.9940   19.5669 C   0  0  0  0  0  0  0  0  0  0  0  0
    7.7387  -13.9893   20.9245 C   0  0  0  0  0  0  0  0  0  0  0  0
    8.4866  -15.2640   21.0880 C   0  0  2  0  0  0  0  0  0  0  0  0
    7.9489  -16.2597   20.1591 N   0  0  0  0  0  0  0  0  0  0  0  0
    8.4503  -15.8035   22.4523 C   0  0  0  0  0  0  0  0  0  0  0  0
    7.4165  -15.7814   23.1515 O   0  0  0  0  0  0  0  0  0  0  0  0
   11.3156  -18.5400   23.7578 O   0  0  0  0  0  0  0  0  0  0  0  0
   10.0164  -18.4371   24.2161 C   0  0  0  0  0  0  0  0  0  0  0  0
    9.5479  -17.0084   24.3227 C   0  0  2  0  0  0  0  0  0  0  0  0
    9.6114  -16.3771   23.0275 N   0  0  0  0  0  0  0  0  0  0  0  0
   10.3640  -16.2539   25.3146 C   0  0  0  0  0  0  0  0  0  0  0  0
   11.4270  -15.6608   24.9702 O   0  0  0  0  0  0  0  0  0  0  0  0
    8.7049  -14.7681   28.8955 C   0  0  0  0  0  0  0  0  0  0  0  0
    9.9995  -14.3449   28.2514 C   0  0  2  0  0  0  0  0  0  0  0  0
    9.7381  -13.3158   27.1997 C   0  0  0  0  0  0  0  0  0  0  0  0
   10.7268  -15.5574   27.7071 C   0  0  2  0  0  0  0  0  0  0  0  0
    9.9448  -16.1969   26.6712 N   0  0  0  0  0  0  0  0  0  0  0  0
   11.0118  -16.5255   28.7952 C   0  0  0  0  0  0  0  0  0  0  0  0
   10.4586  -17.6602   28.8441 O   0  0  0  0  0  0  0  0  0  0  0  0
   11.9125  -16.1742   29.7885 O   0  0  0  0  0  0  0  0  0  0  0  0
  2  1  1  1
  2  4  1  0
  2  3  1  0
  4  5  1  0
  5  7  1  0
  5  6  1  6
  7  8  2  0
  9 10  1  0
 11 10  1  6
 11 13  1  0
 12  7  1  0
 12 11  1  0
 13 19  1  0
 13 14  2  0
 16 18  1  0
 16 15  1  6
 17 16  1  0
 18 20  1  0
 18 19  1  6
 20 21  2  0
 20 22  1  0
M  END
$$$$
