LSV.pdb
     RDKit          3D

 22 21  0  0  1  0  0  0  0  0999 V2000
    9.7816  -13.0356   19.6668 C   0  0  0  0  0  0  0  0  0  0  0  0
    8.2840  -13.3187   19.5331 C   0  0  2  0  0  0  0  0  0  0  0  0
    7.5079  -12.0432   19.4792 C   0  0  0  0  0  0  0  0  0  0  0  0
    7.7891  -14.1782   20.6391 C   0  0  0  0  0  0  0  0  0  0  0  0
    8.5851  -15.4252   20.7882 C   0  0  2  0  0  0  0  0  0  0  0  0
    8.1304  -16.4068   19.8017 N   0  0  0  0  0  0  0  0  0  0  0  0
    8.5163  -16.0173   22.1293 C   0  0  0  0  0  0  0  0  0  0  0  0
    7.4325  -16.3085   22.6755 O   0  0  0  0  0  0  0  0  0  0  0  0
   11.5171  -18.2675   23.7308 O   0  0  0  0  0  0  0  0  0  0  0  0
   10.2116  -18.2329   24.1816 C   0  0  0  0  0  0  0  0  0  0  0  0
    9.6337  -16.8408   24.1856 C   0  0  2  0  0  0  0  0  0  0  0  0
    9.7026  -16.2810   22.8581 N   0  0  0  0  0  0  0  0  0  0  0  0
   10.3499  -15.9705   25.1597 C   0  0  0  0  0  0  0  0  0  0  0  0
   11.4948  -15.5005   24.8972 O   0  0  0  0  0  0  0  0  0  0  0  0
    8.2700  -14.2279   28.4704 C   0  0  0  0  0  0  0  0  0  0  0  0
    9.5687  -13.7356   27.8867 C   0  0  2  0  0  0  0  0  0  0  0  0
    9.3007  -12.7734   26.7750 C   0  0  0  0  0  0  0  0  0  0  0  0
   10.4150  -14.9115   27.4433 C   0  0  2  0  0  0  0  0  0  0  0  0
    9.7405  -15.6608   26.4054 N   0  0  0  0  0  0  0  0  0  0  0  0
   10.7155  -15.7997   28.5935 C   0  0  0  0  0  0  0  0  0  0  0  0
   10.2326  -16.9635   28.6852 O   0  0  0  0  0  0  0  0  0  0  0  0
   11.5516  -15.3386   29.5984 O   0  0  0  0  0  0  0  0  0  0  0  0
  2  1  1  1
  2  4  1  0
  2  3  1  0
  4  5  1  0
  5  7  1  0
  5  6  1  6
  7  8  2  0
  9 10  1  0
 11 10  1  6
 11 13  1  0
 12  7  1  0
 12 11  1  0
 13 19  1  0
 13 14  2  0
 16 18  1  0
 16 15  1  6
 17 16  1  0
 18 20  1  0
 18 19  1  6
 20 21  2  0
 20 22  1  0
M  END
$$$$
