LSV.pdb
     RDKit          3D

 22 21  0  0  1  0  0  0  0  0999 V2000
    9.4106  -13.6648   19.9497 C   0  0  0  0  0  0  0  0  0  0  0  0
    7.9187  -13.5407   19.6343 C   0  0  2  0  0  0  0  0  0  0  0  0
    7.5606  -12.1239   19.3236 C   0  0  0  0  0  0  0  0  0  0  0  0
    7.0799  -14.0532   20.7480 C   0  0  0  0  0  0  0  0  0  0  0  0
    7.3901  -15.4673   21.0877 C   0  0  2  0  0  0  0  0  0  0  0  0
    6.5615  -16.3520   20.2665 N   0  0  0  0  0  0  0  0  0  0  0  0
    7.1933  -15.7949   22.5046 C   0  0  0  0  0  0  0  0  0  0  0  0
    6.1059  -15.6078   23.0882 O   0  0  0  0  0  0  0  0  0  0  0  0
    8.7256  -18.9017   24.5188 O   0  0  0  0  0  0  0  0  0  0  0  0
    7.7246  -18.0325   24.9076 C   0  0  0  0  0  0  0  0  0  0  0  0
    8.0870  -16.5874   24.6791 C   0  0  2  0  0  0  0  0  0  0  0  0
    8.2537  -16.3445   23.2672 N   0  0  0  0  0  0  0  0  0  0  0  0
    9.3256  -16.2256   25.4235 C   0  0  0  0  0  0  0  0  0  0  0  0
   10.4685  -16.3750   24.9019 O   0  0  0  0  0  0  0  0  0  0  0  0
    9.1089  -14.2257   29.3456 C   0  0  0  0  0  0  0  0  0  0  0  0
   10.1037  -13.9950   28.2380 C   0  0  2  0  0  0  0  0  0  0  0  0
    9.6122  -12.9226   27.3205 C   0  0  0  0  0  0  0  0  0  0  0  0
   10.3806  -15.2959   27.5123 C   0  0  2  0  0  0  0  0  0  0  0  0
    9.2260  -15.7038   26.7414 N   0  0  0  0  0  0  0  0  0  0  0  0
   10.7462  -16.3626   28.4771 C   0  0  0  0  0  0  0  0  0  0  0  0
    9.9755  -17.3315   28.7283 O   0  0  0  0  0  0  0  0  0  0  0  0
   11.9710  -16.2941   29.1225 O   0  0  0  0  0  0  0  0  0  0  0  0
  2  1  1  1
  2  4  1  0
  2  3  1  0
  4  5  1  0
  5  7  1  0
  5  6  1  6
  7  8  2  0
  9 10  1  0
 11 10  1  6
 11 13  1  0
 12  7  1  0
 12 11  1  0
 13 19  1  0
 13 14  2  0
 16 18  1  0
 16 15  1  1
 17 16  1  0
 18 20  1  0
 18 19  1  1
 20 21  2  0
 20 22  1  0
M  END
$$$$
