LSV.pdb
     RDKit          3D

 22 21  0  0  1  0  0  0  0  0999 V2000
    9.3529  -13.1902   19.0900 C   0  0  0  0  0  0  0  0  0  0  0  0
    7.8717  -13.5550   19.2074 C   0  0  2  0  0  0  0  0  0  0  0  0
    7.0141  -12.4721   18.6383 C   0  0  0  0  0  0  0  0  0  0  0  0
    7.4869  -13.8328   20.6151 C   0  0  0  0  0  0  0  0  0  0  0  0
    8.3113  -14.9085   21.2269 C   0  0  2  0  0  0  0  0  0  0  0  0
    8.0662  -16.1651   20.5168 N   0  0  0  0  0  0  0  0  0  0  0  0
    8.0635  -15.1046   22.6600 C   0  0  0  0  0  0  0  0  0  0  0  0
    8.0648  -14.1577   23.4734 O   0  0  0  0  0  0  0  0  0  0  0  0
    7.8174  -18.9649   24.5063 O   0  0  0  0  0  0  0  0  0  0  0  0
    6.9075  -17.9610   24.7767 C   0  0  0  0  0  0  0  0  0  0  0  0
    7.4808  -16.5831   24.5652 C   0  0  2  0  0  0  0  0  0  0  0  0
    7.8102  -16.4010   23.1728 N   0  0  0  0  0  0  0  0  0  0  0  0
    8.6816  -16.3697   25.4206 C   0  0  0  0  0  0  0  0  0  0  0  0
    9.8429  -16.6341   24.9941 O   0  0  0  0  0  0  0  0  0  0  0  0
    9.0905  -13.2010   27.5323 C   0  0  0  0  0  0  0  0  0  0  0  0
    9.4052  -14.3603   28.4415 C   0  0  2  0  0  0  0  0  0  0  0  0
   10.5665  -14.0241   29.3201 C   0  0  0  0  0  0  0  0  0  0  0  0
    9.6432  -15.6114   27.6208 C   0  0  2  0  0  0  0  0  0  0  0  0
    8.5243  -15.8608   26.7380 N   0  0  0  0  0  0  0  0  0  0  0  0
    9.8583  -16.7822   28.5070 C   0  0  0  0  0  0  0  0  0  0  0  0
    8.9489  -17.6308   28.7283 O   0  0  0  0  0  0  0  0  0  0  0  0
   11.0948  -16.9503   29.1105 O   0  0  0  0  0  0  0  0  0  0  0  0
  2  1  1  1
  2  4  1  0
  2  3  1  0
  4  5  1  0
  5  7  1  0
  5  6  1  6
  7  8  2  0
  9 10  1  0
 11 10  1  6
 11 13  1  0
 12  7  1  0
 12 11  1  0
 13 19  1  0
 13 14  2  0
 16 18  1  0
 16 15  1  6
 17 16  1  0
 18 20  1  0
 18 19  1  6
 20 21  2  0
 20 22  1  0
M  END
$$$$
