LSV.pdb
     RDKit          3D

 22 21  0  0  1  0  0  0  0  0999 V2000
    3.9110  -20.8126   20.5051 C   0  0  0  0  0  0  0  0  0  0  0  0
    5.2677  -21.5172   20.4441 C   0  0  2  0  0  0  0  0  0  0  0  0
    5.1060  -22.9914   20.6250 C   0  0  0  0  0  0  0  0  0  0  0  0
    6.2122  -20.9733   21.4535 C   0  0  0  0  0  0  0  0  0  0  0  0
    6.3829  -19.5009   21.3355 C   0  0  2  0  0  0  0  0  0  0  0  0
    6.8497  -19.1775   19.9860 N   0  0  0  0  0  0  0  0  0  0  0  0
    7.3095  -18.9294   22.3196 C   0  0  0  0  0  0  0  0  0  0  0  0
    8.5400  -18.8668   22.1201 O   0  0  0  0  0  0  0  0  0  0  0  0
    5.8039  -17.1717   25.7648 O   0  0  0  0  0  0  0  0  0  0  0  0
    7.0665  -16.8139   25.3329 C   0  0  0  0  0  0  0  0  0  0  0  0
    7.7397  -17.9023   24.5366 C   0  0  2  0  0  0  0  0  0  0  0  0
    6.8243  -18.4215   23.5503 N   0  0  0  0  0  0  0  0  0  0  0  0
    8.2230  -18.9927   25.4292 C   0  0  0  0  0  0  0  0  0  0  0  0
    7.4812  -19.9750   25.7214 O   0  0  0  0  0  0  0  0  0  0  0  0
   12.4539  -19.2182   26.5242 C   0  0  0  0  0  0  0  0  0  0  0  0
   11.5016  -20.3481   26.2307 C   0  0  2  0  0  0  0  0  0  0  0  0
   11.5082  -20.6595   24.7690 C   0  0  0  0  0  0  0  0  0  0  0  0
   10.1178  -20.0044   26.7432 C   0  0  2  0  0  0  0  0  0  0  0  0
    9.5384  -18.9323   25.9632 N   0  0  0  0  0  0  0  0  0  0  0  0
   10.1746  -19.6146   28.1740 C   0  0  0  0  0  0  0  0  0  0  0  0
    9.9645  -18.4282   28.5539 O   0  0  0  0  0  0  0  0  0  0  0  0
   10.4670  -20.5817   29.1230 O   0  0  0  0  0  0  0  0  0  0  0  0
  2  1  1  1
  2  4  1  0
  2  3  1  0
  4  5  1  0
  5  7  1  0
  5  6  1  6
  7  8  2  0
  9 10  1  0
 11 10  1  1
 11 13  1  0
 12  7  1  0
 12 11  1  0
 13 19  1  0
 13 14  2  0
 16 18  1  0
 16 15  1  6
 17 16  1  0
 18 20  1  0
 18 19  1  6
 20 21  2  0
 20 22  1  0
M  END
$$$$
