LSV.pdb
     RDKit          3D

 22 21  0  0  1  0  0  0  0  0999 V2000
    7.1322  -12.7351   18.3221 C   0  0  0  0  0  0  0  0  0  0  0  0
    8.0175  -13.3392   19.4139 C   0  0  2  0  0  0  0  0  0  0  0  0
    9.3522  -12.6686   19.4432 C   0  0  0  0  0  0  0  0  0  0  0  0
    8.1798  -14.8053   19.2374 C   0  0  0  0  0  0  0  0  0  0  0  0
    8.8816  -15.4406   20.3841 C   0  0  2  0  0  0  0  0  0  0  0  0
    9.0257  -16.8744   20.1252 N   0  0  0  0  0  0  0  0  0  0  0  0
    8.2097  -15.2454   21.6740 C   0  0  0  0  0  0  0  0  0  0  0  0
    7.9162  -14.1130   22.1093 O   0  0  0  0  0  0  0  0  0  0  0  0
    7.8704  -18.2505   24.6986 O   0  0  0  0  0  0  0  0  0  0  0  0
    6.7747  -17.5113   24.2965 C   0  0  0  0  0  0  0  0  0  0  0  0
    7.1557  -16.1717   23.7201 C   0  0  2  0  0  0  0  0  0  0  0  0
    7.8672  -16.3597   22.4797 N   0  0  0  0  0  0  0  0  0  0  0  0
    7.9807  -15.3927   24.6853 C   0  0  0  0  0  0  0  0  0  0  0  0
    9.2425  -15.4851   24.6897 O   0  0  0  0  0  0  0  0  0  0  0  0
    5.9447  -12.9384   27.5595 C   0  0  0  0  0  0  0  0  0  0  0  0
    7.3056  -12.5541   27.0401 C   0  0  2  0  0  0  0  0  0  0  0  0
    7.1707  -11.5704   25.9231 C   0  0  0  0  0  0  0  0  0  0  0  0
    8.0718  -13.7950   26.6294 C   0  0  2  0  0  0  0  0  0  0  0  0
    7.3439  -14.5306   25.6182 N   0  0  0  0  0  0  0  0  0  0  0  0
    8.3220  -14.6653   27.8052 C   0  0  0  0  0  0  0  0  0  0  0  0
    7.7885  -15.8045   27.9209 O   0  0  0  0  0  0  0  0  0  0  0  0
    9.1670  -14.2146   28.8073 O   0  0  0  0  0  0  0  0  0  0  0  0
  2  1  1  6
  2  4  1  0
  2  3  1  0
  4  5  1  0
  5  7  1  0
  5  6  1  6
  7  8  2  0
  9 10  1  0
 11 10  1  1
 11 13  1  0
 12  7  1  0
 12 11  1  0
 13 19  1  0
 13 14  2  0
 16 18  1  0
 16 15  1  6
 17 16  1  0
 18 20  1  0
 18 19  1  6
 20 21  2  0
 20 22  1  0
M  END
$$$$
