LSV.pdb
     RDKit          3D

 22 21  0  0  1  0  0  0  0  0999 V2000
    9.4111  -12.7884   19.3205 C   0  0  0  0  0  0  0  0  0  0  0  0
    8.0353  -13.4418   19.4653 C   0  0  2  0  0  0  0  0  0  0  0  0
    6.9602  -12.5209   18.9875 C   0  0  0  0  0  0  0  0  0  0  0  0
    7.7729  -13.8592   20.8666 C   0  0  0  0  0  0  0  0  0  0  0  0
    8.8163  -14.7810   21.3888 C   0  0  2  0  0  0  0  0  0  0  0  0
    8.8306  -16.0000   20.5780 N   0  0  0  0  0  0  0  0  0  0  0  0
    8.6395  -15.1395   22.8009 C   0  0  0  0  0  0  0  0  0  0  0  0
    8.4592  -14.2820   23.6898 O   0  0  0  0  0  0  0  0  0  0  0  0
    9.3471  -19.0766   24.2889 O   0  0  0  0  0  0  0  0  0  0  0  0
    8.2613  -18.3354   24.7135 C   0  0  0  0  0  0  0  0  0  0  0  0
    8.4865  -16.8500   24.5914 C   0  0  2  0  0  0  0  0  0  0  0  0
    8.6691  -16.4975   23.2048 N   0  0  0  0  0  0  0  0  0  0  0  0
    9.6618  -16.4222   25.4006 C   0  0  0  0  0  0  0  0  0  0  0  0
   10.8117  -16.3254   24.8821 O   0  0  0  0  0  0  0  0  0  0  0  0
    9.1740  -14.3552   29.1678 C   0  0  0  0  0  0  0  0  0  0  0  0
   10.3064  -14.2964   28.1758 C   0  0  2  0  0  0  0  0  0  0  0  0
    9.9980  -13.3039   27.1018 C   0  0  0  0  0  0  0  0  0  0  0  0
   10.5825  -15.6800   27.6236 C   0  0  2  0  0  0  0  0  0  0  0  0
    9.4928  -16.1169   26.7780 N   0  0  0  0  0  0  0  0  0  0  0  0
   10.7853  -16.6504   28.7280 C   0  0  0  0  0  0  0  0  0  0  0  0
    9.9520  -17.5670   28.9757 O   0  0  0  0  0  0  0  0  0  0  0  0
   11.9239  -16.5481   29.5120 O   0  0  0  0  0  0  0  0  0  0  0  0
  2  1  1  1
  2  4  1  0
  2  3  1  0
  4  5  1  0
  5  7  1  0
  5  6  1  6
  7  8  2  0
  9 10  1  0
 11 10  1  6
 11 13  1  0
 12  7  1  0
 12 11  1  0
 13 19  1  0
 13 14  2  0
 16 18  1  0
 16 15  1  1
 17 16  1  0
 18 20  1  0
 18 19  1  1
 20 21  2  0
 20 22  1  0
M  END
$$$$
