YLT.pdb
     RDKit          3D

 28 28  0  0  1  0  0  0  0  0999 V2000
    4.1051  -19.3268   17.6752 O   0  0  0  0  0  0  0  0  0  0  0  0
    4.9209  -18.8159   18.6952 C   0  0  0  0  0  0  0  0  0  0  0  0
    6.2027  -18.4034   18.3974 C   0  0  0  0  0  0  0  0  0  0  0  0
    6.9631  -17.9056   19.4537 C   0  0  0  0  0  0  0  0  0  0  0  0
    6.4578  -17.8294   20.7337 C   0  0  0  0  0  0  0  0  0  0  0  0
    7.2672  -17.3036   21.8332 C   0  0  0  0  0  0  0  0  0  0  0  0
    7.6258  -15.8594   21.7395 C   0  0  2  0  0  0  0  0  0  0  0  0
    8.4862  -15.5561   20.6231 N   0  0  0  0  0  0  0  0  0  0  0  0
    8.2820  -15.3825   22.9756 C   0  0  0  0  0  0  0  0  0  0  0  0
    9.5519  -15.3267   23.0082 O   0  0  0  0  0  0  0  0  0  0  0  0
    5.1765  -18.2465   21.0080 C   0  0  0  0  0  0  0  0  0  0  0  0
    4.4153  -18.7397   19.9762 C   0  0  0  0  0  0  0  0  0  0  0  0
    5.7792  -12.1243   26.7659 C   0  0  0  0  0  0  0  0  0  0  0  0
    6.7857  -12.6694   25.7391 C   0  0  1  0  0  0  0  0  0  0  0  0
    7.8969  -11.6584   25.5245 C   0  0  0  0  0  0  0  0  0  0  0  0
    7.3218  -13.9341   26.3154 C   0  0  0  0  0  0  0  0  0  0  0  0
    8.2182  -14.6698   25.3317 C   0  0  2  0  0  0  0  0  0  0  0  0
    7.5324  -14.9938   24.1062 N   0  0  0  0  0  0  0  0  0  0  0  0
    8.5885  -15.9414   26.0129 C   0  0  0  0  0  0  0  0  0  0  0  0
    7.6872  -16.6885   26.4302 O   0  0  0  0  0  0  0  0  0  0  0  0
   10.7512  -18.7034   24.6807 C   0  0  0  0  0  0  0  0  0  0  0  0
   11.3202  -18.2756   26.0103 C   0  0  1  0  0  0  0  0  0  0  0  0
   12.4458  -17.4720   25.8780 O   0  0  0  0  0  0  0  0  0  0  0  0
   10.2759  -17.5445   26.8400 C   0  0  2  0  0  0  0  0  0  0  0  0
    9.9384  -16.3064   26.1893 N   0  0  0  0  0  0  0  0  0  0  0  0
   10.8197  -17.3146   28.2036 C   0  0  0  0  0  0  0  0  0  0  0  0
   11.1420  -18.3596   29.0406 O   0  0  0  0  0  0  0  0  0  0  0  0
   10.9836  -16.1342   28.5873 O   0  0  0  0  0  0  0  0  0  0  0  0
  2  1  1  0
  3  2  2  0
  4  3  1  0
  5 11  1  0
  5  4  2  0
  6  5  1  0
  7  6  1  0
  7  8  1  6
  9  7  1  0
  9 10  2  0
 11 12  2  0
 12  2  1  0
 14 13  1  1
 14 15  1  0
 16 14  1  0
 17 16  1  1
 17 18  1  0
 18  9  1  0
 19 17  1  0
 20 19  2  0
 22 23  1  0
 22 21  1  6
 24 22  1  0
 24 25  1  6
 25 19  1  0
 26 27  1  0
 26 24  1  0
 28 26  2  0
M  END
$$$$
