YLT.pdb
     RDKit          3D

 28 28  0  0  1  0  0  0  0  0999 V2000
   13.0359  -16.4462   31.3612 O   0  0  0  0  0  0  0  0  0  0  0  0
   12.2198  -16.3929   30.2218 C   0  0  0  0  0  0  0  0  0  0  0  0
   11.4997  -15.2474   29.9551 C   0  0  0  0  0  0  0  0  0  0  0  0
   10.7078  -15.2566   28.8085 C   0  0  0  0  0  0  0  0  0  0  0  0
   10.6478  -16.3577   27.9817 C   0  0  0  0  0  0  0  0  0  0  0  0
    9.8126  -16.3532   26.7805 C   0  0  0  0  0  0  0  0  0  0  0  0
    8.4439  -16.9223   26.9419 C   0  0  2  0  0  0  0  0  0  0  0  0
    8.4257  -18.3635   26.9799 N   0  0  0  0  0  0  0  0  0  0  0  0
    7.5395  -16.4739   25.8616 C   0  0  0  0  0  0  0  0  0  0  0  0
    6.8770  -17.3491   25.2198 O   0  0  0  0  0  0  0  0  0  0  0  0
   11.3744  -17.4896   28.2670 C   0  0  0  0  0  0  0  0  0  0  0  0
   12.1596  -17.4947   29.3943 C   0  0  0  0  0  0  0  0  0  0  0  0
    7.1190  -11.1129   25.2836 C   0  0  0  0  0  0  0  0  0  0  0  0
    6.8613  -12.5517   25.7606 C   0  0  1  0  0  0  0  0  0  0  0  0
    6.0690  -12.5282   27.0547 C   0  0  0  0  0  0  0  0  0  0  0  0
    6.0868  -13.2157   24.6752 C   0  0  0  0  0  0  0  0  0  0  0  0
    6.3820  -14.7055   24.5983 C   0  0  2  0  0  0  0  0  0  0  0  0
    7.4015  -15.1083   25.5339 N   0  0  0  0  0  0  0  0  0  0  0  0
    6.8944  -14.9337   23.2186 C   0  0  0  0  0  0  0  0  0  0  0  0
    6.1157  -14.8160   22.2571 O   0  0  0  0  0  0  0  0  0  0  0  0
    6.8660  -14.1176   20.8301 C   0  0  0  0  0  0  0  0  0  0  0  0
    8.3304  -14.4619   20.7222 C   0  0  1  0  0  0  0  0  0  0  0  0
    9.1568  -13.3749   20.9786 O   0  0  0  0  0  0  0  0  0  0  0  0
    8.6929  -15.6012   21.6625 C   0  0  2  0  0  0  0  0  0  0  0  0
    8.2417  -15.2790   22.9902 N   0  0  0  0  0  0  0  0  0  0  0  0
   10.1635  -15.8098   21.6207 C   0  0  0  0  0  0  0  0  0  0  0  0
   10.8107  -16.1753   20.4613 O   0  0  0  0  0  0  0  0  0  0  0  0
   10.8177  -15.6452   22.6754 O   0  0  0  0  0  0  0  0  0  0  0  0
  2  1  1  0
  3  2  2  0
  4  3  1  0
  5 11  1  0
  5  4  2  0
  6  5  1  0
  7  6  1  0
  7  8  1  6
  9  7  1  0
  9 10  2  0
 11 12  2  0
 12  2  1  0
 14 13  1  6
 14 15  1  0
 16 14  1  0
 17 16  1  6
 17 18  1  0
 18  9  1  0
 19 17  1  0
 20 19  2  0
 22 23  1  0
 22 21  1  1
 24 22  1  0
 24 25  1  1
 25 19  1  0
 26 27  1  0
 26 24  1  0
 28 26  2  0
M  END
$$$$
