YLT.pdb
     RDKit          3D

 28 28  0  0  1  0  0  0  0  0999 V2000
   12.7773  -16.7004   31.7725 O   0  0  0  0  0  0  0  0  0  0  0  0
   12.0876  -16.6939   30.5514 C   0  0  0  0  0  0  0  0  0  0  0  0
   12.1592  -17.7955   29.7249 C   0  0  0  0  0  0  0  0  0  0  0  0
   11.4521  -17.7277   28.5260 C   0  0  0  0  0  0  0  0  0  0  0  0
   10.7170  -16.6133   28.1837 C   0  0  0  0  0  0  0  0  0  0  0  0
    9.9786  -16.5561   26.9219 C   0  0  0  0  0  0  0  0  0  0  0  0
    8.5722  -17.0487   26.9724 C   0  0  2  0  0  0  0  0  0  0  0  0
    8.4693  -18.4865   26.9388 N   0  0  0  0  0  0  0  0  0  0  0  0
    7.7649  -16.4985   25.8626 C   0  0  0  0  0  0  0  0  0  0  0  0
    6.9957  -17.2827   25.2223 O   0  0  0  0  0  0  0  0  0  0  0  0
   10.6596  -15.5258   29.0232 C   0  0  0  0  0  0  0  0  0  0  0  0
   11.3519  -15.5787   30.2087 C   0  0  0  0  0  0  0  0  0  0  0  0
    7.4343  -11.0365   25.7394 C   0  0  0  0  0  0  0  0  0  0  0  0
    7.0682  -12.5169   25.9360 C   0  0  1  0  0  0  0  0  0  0  0  0
    5.8001  -12.6255   26.7627 C   0  0  0  0  0  0  0  0  0  0  0  0
    6.8626  -13.0777   24.5714 C   0  0  0  0  0  0  0  0  0  0  0  0
    6.8712  -14.5984   24.5766 C   0  0  2  0  0  0  0  0  0  0  0  0
    7.8334  -15.1350   25.5057 N   0  0  0  0  0  0  0  0  0  0  0  0
    7.2775  -14.9936   23.1993 C   0  0  0  0  0  0  0  0  0  0  0  0
    6.5125  -14.7515   22.2502 O   0  0  0  0  0  0  0  0  0  0  0  0
    7.3454  -14.3015   20.7127 C   0  0  0  0  0  0  0  0  0  0  0  0
    8.7370  -14.8820   20.6787 C   0  0  1  0  0  0  0  0  0  0  0  0
    9.7163  -13.9446   20.9827 O   0  0  0  0  0  0  0  0  0  0  0  0
    8.8585  -16.0620   21.6307 C   0  0  2  0  0  0  0  0  0  0  0  0
    8.5099  -15.6341   22.9595 N   0  0  0  0  0  0  0  0  0  0  0  0
   10.2476  -16.5861   21.5722 C   0  0  0  0  0  0  0  0  0  0  0  0
   10.7667  -17.1355   20.4210 O   0  0  0  0  0  0  0  0  0  0  0  0
   10.9524  -16.5195   22.6048 O   0  0  0  0  0  0  0  0  0  0  0  0
  2  1  1  0
  3  2  2  0
  4  3  1  0
  5 11  1  0
  5  4  2  0
  6  5  1  0
  7  6  1  0
  7  8  1  6
  9  7  1  0
  9 10  2  0
 11 12  2  0
 12  2  1  0
 14 13  1  6
 14 15  1  0
 16 14  1  0
 17 16  1  6
 17 18  1  0
 18  9  1  0
 19 17  1  0
 20 19  2  0
 22 23  1  0
 22 21  1  1
 24 22  1  0
 24 25  1  1
 25 19  1  0
 26 27  1  0
 26 24  1  0
 28 26  2  0
M  END
$$$$
