YLT.pdb
     RDKit          3D

 28 28  0  0  1  0  0  0  0  0999 V2000
   12.4023  -17.4391   29.6623 O   0  0  0  0  0  0  0  0  0  0  0  0
   11.7313  -17.3371   28.4350 C   0  0  0  0  0  0  0  0  0  0  0  0
   11.8999  -16.2087   27.6604 C   0  0  0  0  0  0  0  0  0  0  0  0
   11.2065  -16.1673   26.4524 C   0  0  0  0  0  0  0  0  0  0  0  0
   10.3919  -17.2044   26.0519 C   0  0  0  0  0  0  0  0  0  0  0  0
    9.6704  -17.1480   24.7804 C   0  0  0  0  0  0  0  0  0  0  0  0
    8.7955  -15.9565   24.5854 C   0  0  2  0  0  0  0  0  0  0  0  0
    7.8047  -15.8000   25.6210 N   0  0  0  0  0  0  0  0  0  0  0  0
    8.1014  -16.0013   23.2806 C   0  0  0  0  0  0  0  0  0  0  0  0
    6.9999  -16.6311   23.1983 O   0  0  0  0  0  0  0  0  0  0  0  0
   10.2384  -18.3204   26.8404 C   0  0  0  0  0  0  0  0  0  0  0  0
   10.9160  -18.3749   28.0342 C   0  0  0  0  0  0  0  0  0  0  0  0
    8.5290  -11.9597   19.6421 C   0  0  0  0  0  0  0  0  0  0  0  0
    8.2511  -13.0512   20.6889 C   0  0  1  0  0  0  0  0  0  0  0  0
    6.9220  -12.7813   21.3700 C   0  0  0  0  0  0  0  0  0  0  0  0
    8.2142  -14.3404   19.9436 C   0  0  0  0  0  0  0  0  0  0  0  0
    7.9722  -15.5229   20.8686 C   0  0  2  0  0  0  0  0  0  0  0  0
    8.6345  -15.3658   22.1390 N   0  0  0  0  0  0  0  0  0  0  0  0
    8.5678  -16.6960   20.1706 C   0  0  0  0  0  0  0  0  0  0  0  0
    8.1290  -17.0224   19.0546 O   0  0  0  0  0  0  0  0  0  0  0  0
    9.5132  -17.6509   17.8596 C   0  0  0  0  0  0  0  0  0  0  0  0
   10.6453  -18.1798   18.7041 C   0  0  1  0  0  0  0  0  0  0  0  0
   11.6832  -17.2665   18.8419 O   0  0  0  0  0  0  0  0  0  0  0  0
   10.1510  -18.5900   20.0828 C   0  0  2  0  0  0  0  0  0  0  0  0
    9.6156  -17.4358   20.7548 N   0  0  0  0  0  0  0  0  0  0  0  0
   11.2807  -19.1882   20.8404 C   0  0  0  0  0  0  0  0  0  0  0  0
   11.8738  -20.3669   20.4460 O   0  0  0  0  0  0  0  0  0  0  0  0
   11.6929  -18.5934   21.8620 O   0  0  0  0  0  0  0  0  0  0  0  0
  2  1  1  0
  3  2  2  0
  4  3  1  0
  5 11  1  0
  5  4  2  0
  6  5  1  0
  7  6  1  0
  7  8  1  1
  9  7  1  0
  9 10  2  0
 11 12  2  0
 12  2  1  0
 14 13  1  6
 14 15  1  0
 16 14  1  0
 17 16  1  6
 17 18  1  0
 18  9  1  0
 19 17  1  0
 20 19  2  0
 22 23  1  0
 22 21  1  6
 24 22  1  0
 24 25  1  1
 25 19  1  0
 26 27  1  0
 26 24  1  0
 28 26  2  0
M  END
$$$$
