YLT.pdb
     RDKit          3D

 28 28  0  0  1  0  0  0  0  0999 V2000
    5.5903  -10.5567   28.5031 O   0  0  0  0  0  0  0  0  0  0  0  0
    6.1075  -11.6399   27.7778 C   0  0  0  0  0  0  0  0  0  0  0  0
    5.3725  -12.1766   26.7417 C   0  0  0  0  0  0  0  0  0  0  0  0
    5.9406  -13.2509   26.0598 C   0  0  0  0  0  0  0  0  0  0  0  0
    7.1772  -13.7522   26.4049 C   0  0  0  0  0  0  0  0  0  0  0  0
    7.7620  -14.8803   25.6798 C   0  0  0  0  0  0  0  0  0  0  0  0
    6.8439  -15.5966   24.7485 C   0  0  2  0  0  0  0  0  0  0  0  0
    6.1515  -16.7003   25.3659 N   0  0  0  0  0  0  0  0  0  0  0  0
    7.5642  -16.1049   23.5614 C   0  0  0  0  0  0  0  0  0  0  0  0
    7.6004  -17.3602   23.3625 O   0  0  0  0  0  0  0  0  0  0  0  0
    7.8928  -13.2015   27.4419 C   0  0  0  0  0  0  0  0  0  0  0  0
    7.3450  -12.1416   28.1230 C   0  0  0  0  0  0  0  0  0  0  0  0
    8.5321  -12.5838   19.4563 C   0  0  0  0  0  0  0  0  0  0  0  0
    7.9947  -13.7766   20.2642 C   0  0  1  0  0  0  0  0  0  0  0  0
    6.8708  -14.4496   19.4980 C   0  0  0  0  0  0  0  0  0  0  0  0
    9.1447  -14.7058   20.4461 C   0  0  0  0  0  0  0  0  0  0  0  0
    8.8511  -15.7735   21.4884 C   0  0  2  0  0  0  0  0  0  0  0  0
    8.2051  -15.2314   22.6572 N   0  0  0  0  0  0  0  0  0  0  0  0
   10.1825  -16.3051   21.8919 C   0  0  0  0  0  0  0  0  0  0  0  0
   10.8467  -15.6898   22.7433 O   0  0  0  0  0  0  0  0  0  0  0  0
   13.4936  -19.9697   21.6240 C   0  0  0  0  0  0  0  0  0  0  0  0
   12.1248  -19.4323   21.2894 C   0  0  1  0  0  0  0  0  0  0  0  0
   11.1018  -20.1756   21.8649 O   0  0  0  0  0  0  0  0  0  0  0  0
   11.9908  -17.9787   21.7167 C   0  0  2  0  0  0  0  0  0  0  0  0
   10.6958  -17.4890   21.3249 N   0  0  0  0  0  0  0  0  0  0  0  0
   13.0848  -17.1909   21.0917 C   0  0  0  0  0  0  0  0  0  0  0  0
   14.2553  -16.9169   21.7637 O   0  0  0  0  0  0  0  0  0  0  0  0
   12.9234  -16.7722   19.9230 O   0  0  0  0  0  0  0  0  0  0  0  0
  2  1  1  0
  3  2  2  0
  4  3  1  0
  5 11  1  0
  5  4  2  0
  6  5  1  0
  7  6  1  0
  7  8  1  1
  9  7  1  0
  9 10  2  0
 11 12  2  0
 12  2  1  0
 14 13  1  6
 14 15  1  0
 16 14  1  0
 17 16  1  6
 17 18  1  0
 18  9  1  0
 19 17  1  0
 20 19  2  0
 22 23  1  0
 22 21  1  1
 24 22  1  0
 24 25  1  6
 25 19  1  0
 26 27  1  0
 26 24  1  0
 28 26  2  0
M  END
$$$$
