YLT.pdb
     RDKit          3D

 28 28  0  0  1  0  0  0  0  0999 V2000
   16.4705  -17.6053   13.6938 O   0  0  0  0  0  0  0  0  0  0  0  0
   15.7010  -17.2537   14.8124 C   0  0  0  0  0  0  0  0  0  0  0  0
   14.4687  -16.6620   14.6305 C   0  0  0  0  0  0  0  0  0  0  0  0
   13.7528  -16.3366   15.7808 C   0  0  0  0  0  0  0  0  0  0  0  0
   14.2528  -16.5939   17.0391 C   0  0  0  0  0  0  0  0  0  0  0  0
   13.4898  -16.2475   18.2384 C   0  0  0  0  0  0  0  0  0  0  0  0
   13.2390  -14.7928   18.4479 C   0  0  2  0  0  0  0  0  0  0  0  0
   14.4474  -14.0216   18.6029 N   0  0  0  0  0  0  0  0  0  0  0  0
   12.3809  -14.5551   19.6284 C   0  0  0  0  0  0  0  0  0  0  0  0
   12.9282  -14.1820   20.7137 O   0  0  0  0  0  0  0  0  0  0  0  0
   15.4843  -17.1848   17.1971 C   0  0  0  0  0  0  0  0  0  0  0  0
   16.2013  -17.5112   16.0717 C   0  0  0  0  0  0  0  0  0  0  0  0
    7.1500  -12.9652   18.9510 C   0  0  0  0  0  0  0  0  0  0  0  0
    8.6473  -13.1173   19.2660 C   0  0  1  0  0  0  0  0  0  0  0  0
    9.2185  -11.7791   19.6974 C   0  0  0  0  0  0  0  0  0  0  0  0
    8.7396  -14.1148   20.3685 C   0  0  0  0  0  0  0  0  0  0  0  0
   10.1831  -14.4265   20.7312 C   0  0  2  0  0  0  0  0  0  0  0  0
   10.9823  -14.7340   19.5720 N   0  0  0  0  0  0  0  0  0  0  0  0
   10.1185  -15.6400   21.5922 C   0  0  0  0  0  0  0  0  0  0  0  0
    9.3903  -15.6289   22.5993 O   0  0  0  0  0  0  0  0  0  0  0  0
    9.1753  -19.1773   20.5967 C   0  0  0  0  0  0  0  0  0  0  0  0
   10.5537  -19.1840   21.2086 C   0  0  1  0  0  0  0  0  0  0  0  0
   11.5632  -19.2274   20.2551 O   0  0  0  0  0  0  0  0  0  0  0  0
   10.7589  -17.9705   22.1024 C   0  0  2  0  0  0  0  0  0  0  0  0
   10.8672  -16.7933   21.2822 N   0  0  0  0  0  0  0  0  0  0  0  0
   11.9799  -18.1787   22.9233 C   0  0  0  0  0  0  0  0  0  0  0  0
   12.0963  -19.2410   23.7919 O   0  0  0  0  0  0  0  0  0  0  0  0
   12.9189  -17.3584   22.8112 O   0  0  0  0  0  0  0  0  0  0  0  0
  2  1  1  0
  3  2  2  0
  4  3  1  0
  5 11  1  0
  5  4  2  0
  6  5  1  0
  7  6  1  0
  7  8  1  1
  9  7  1  0
  9 10  2  0
 11 12  2  0
 12  2  1  0
 14 13  1  1
 14 15  1  0
 16 14  1  0
 17 16  1  6
 17 18  1  0
 18  9  1  0
 19 17  1  0
 20 19  2  0
 22 23  1  0
 22 21  1  6
 24 22  1  0
 24 25  1  6
 25 19  1  0
 26 27  1  0
 26 24  1  0
 28 26  2  0
M  END
$$$$
