YLT.pdb
     RDKit          3D

 28 28  0  0  1  0  0  0  0  0999 V2000
    7.6873  -13.7540   16.0094 O   0  0  0  0  0  0  0  0  0  0  0  0
    8.0618  -13.8200   17.3594 C   0  0  0  0  0  0  0  0  0  0  0  0
    7.8572  -12.7273   18.1753 C   0  0  0  0  0  0  0  0  0  0  0  0
    8.2503  -12.8552   19.5061 C   0  0  0  0  0  0  0  0  0  0  0  0
    8.8161  -14.0181   19.9829 C   0  0  0  0  0  0  0  0  0  0  0  0
    9.2234  -14.1388   21.3829 C   0  0  0  0  0  0  0  0  0  0  0  0
    8.7835  -15.3814   22.0798 C   0  0  2  0  0  0  0  0  0  0  0  0
    7.4348  -15.7725   21.7527 N   0  0  0  0  0  0  0  0  0  0  0  0
    8.8848  -15.2440   23.5485 C   0  0  0  0  0  0  0  0  0  0  0  0
   10.0371  -15.1129   24.0696 O   0  0  0  0  0  0  0  0  0  0  0  0
    9.0109  -15.0956   19.1513 C   0  0  0  0  0  0  0  0  0  0  0  0
    8.6280  -14.9836   17.8366 C   0  0  0  0  0  0  0  0  0  0  0  0
    5.6579  -12.1637   26.5896 C   0  0  0  0  0  0  0  0  0  0  0  0
    6.8897  -12.8677   25.9969 C   0  0  1  0  0  0  0  0  0  0  0  0
    8.1550  -12.2176   26.5257 C   0  0  0  0  0  0  0  0  0  0  0  0
    6.8023  -14.2903   26.4299 C   0  0  0  0  0  0  0  0  0  0  0  0
    7.8930  -15.1423   25.7999 C   0  0  2  0  0  0  0  0  0  0  0  0
    7.7387  -15.2568   24.3716 N   0  0  0  0  0  0  0  0  0  0  0  0
    7.7298  -16.4957   26.3998 C   0  0  0  0  0  0  0  0  0  0  0  0
    7.2500  -16.5973   27.5417 O   0  0  0  0  0  0  0  0  0  0  0  0
    6.3036  -19.8461   24.8424 C   0  0  0  0  0  0  0  0  0  0  0  0
    7.7258  -20.0069   25.3178 C   0  0  1  0  0  0  0  0  0  0  0  0
    8.6460  -19.9696   24.2775 O   0  0  0  0  0  0  0  0  0  0  0  0
    8.0820  -18.9399   26.3416 C   0  0  2  0  0  0  0  0  0  0  0  0
    8.1099  -17.6553   25.6942 N   0  0  0  0  0  0  0  0  0  0  0  0
    9.3965  -19.2749   26.9479 C   0  0  0  0  0  0  0  0  0  0  0  0
    9.5696  -20.3962   27.7284 O   0  0  0  0  0  0  0  0  0  0  0  0
   10.3627  -18.5079   26.7345 O   0  0  0  0  0  0  0  0  0  0  0  0
  2  1  1  0
  3  2  2  0
  4  3  1  0
  5 11  1  0
  5  4  2  0
  6  5  1  0
  7  6  1  0
  7  8  1  1
  9  7  1  0
  9 10  2  0
 11 12  2  0
 12  2  1  0
 14 13  1  1
 14 15  1  0
 16 14  1  0
 17 16  1  1
 17 18  1  0
 18  9  1  0
 19 17  1  0
 20 19  2  0
 22 23  1  0
 22 21  1  6
 24 22  1  0
 24 25  1  6
 25 19  1  0
 26 27  1  0
 26 24  1  0
 28 26  2  0
M  END
$$$$
