YLT.pdb
     RDKit          3D

 28 28  0  0  1  0  0  0  0  0999 V2000
   12.3083  -15.5793   31.5532 O   0  0  0  0  0  0  0  0  0  0  0  0
   11.6700  -15.8856   30.3426 C   0  0  0  0  0  0  0  0  0  0  0  0
   11.7093  -17.1775   29.8617 C   0  0  0  0  0  0  0  0  0  0  0  0
   11.0564  -17.4180   28.6544 C   0  0  0  0  0  0  0  0  0  0  0  0
   10.4031  -16.4127   27.9744 C   0  0  0  0  0  0  0  0  0  0  0  0
    9.7210  -16.6797   26.7080 C   0  0  0  0  0  0  0  0  0  0  0  0
    8.3256  -17.1930   26.8204 C   0  0  2  0  0  0  0  0  0  0  0  0
    8.2350  -18.6281   26.7157 N   0  0  0  0  0  0  0  0  0  0  0  0
    7.4438  -16.5952   25.7951 C   0  0  0  0  0  0  0  0  0  0  0  0
    6.5921  -17.3402   25.2152 O   0  0  0  0  0  0  0  0  0  0  0  0
   10.3766  -15.1314   28.4725 C   0  0  0  0  0  0  0  0  0  0  0  0
   11.0162  -14.8797   29.6620 C   0  0  0  0  0  0  0  0  0  0  0  0
    7.3673  -11.2002   25.7923 C   0  0  0  0  0  0  0  0  0  0  0  0
    6.9142  -12.6566   25.9870 C   0  0  1  0  0  0  0  0  0  0  0  0
    5.7493  -12.7052   26.9586 C   0  0  0  0  0  0  0  0  0  0  0  0
    6.5046  -13.1466   24.6413 C   0  0  0  0  0  0  0  0  0  0  0  0
    6.5606  -14.6635   24.5494 C   0  0  2  0  0  0  0  0  0  0  0  0
    7.5309  -15.2290   25.4527 N   0  0  0  0  0  0  0  0  0  0  0  0
    6.9912  -14.9569   23.1542 C   0  0  0  0  0  0  0  0  0  0  0  0
    6.2040  -14.7333   22.2187 O   0  0  0  0  0  0  0  0  0  0  0  0
    7.1432  -13.8820   20.8597 C   0  0  0  0  0  0  0  0  0  0  0  0
    8.5294  -14.4580   20.7130 C   0  0  1  0  0  0  0  0  0  0  0  0
    9.5242  -13.5613   21.0824 O   0  0  0  0  0  0  0  0  0  0  0  0
    8.6775  -15.7351   21.5256 C   0  0  2  0  0  0  0  0  0  0  0  0
    8.2710  -15.4811   22.8823 N   0  0  0  0  0  0  0  0  0  0  0  0
   10.0906  -16.1892   21.4546 C   0  0  0  0  0  0  0  0  0  0  0  0
   10.6661  -16.5827   20.2670 O   0  0  0  0  0  0  0  0  0  0  0  0
   10.7627  -16.2091   22.5106 O   0  0  0  0  0  0  0  0  0  0  0  0
  2  1  1  0
  3  2  2  0
  4  3  1  0
  5 11  1  0
  5  4  2  0
  6  5  1  0
  7  6  1  0
  7  8  1  6
  9  7  1  0
  9 10  2  0
 11 12  2  0
 12  2  1  0
 14 13  1  6
 14 15  1  0
 16 14  1  0
 17 16  1  6
 17 18  1  0
 18  9  1  0
 19 17  1  0
 20 19  2  0
 22 23  1  0
 22 21  1  1
 24 22  1  0
 24 25  1  1
 25 19  1  0
 26 27  1  0
 26 24  1  0
 28 26  2  0
M  END
$$$$
