YLT.pdb
     RDKit          3D

 28 28  0  0  1  0  0  0  0  0999 V2000
    7.6218  -13.8068   15.5970 O   0  0  0  0  0  0  0  0  0  0  0  0
    7.6655  -14.0358   16.9799 C   0  0  0  0  0  0  0  0  0  0  0  0
    7.9677  -12.9943   17.8318 C   0  0  0  0  0  0  0  0  0  0  0  0
    7.9955  -13.2855   19.1942 C   0  0  0  0  0  0  0  0  0  0  0  0
    7.7335  -14.5535   19.6666 C   0  0  0  0  0  0  0  0  0  0  0  0
    7.7653  -14.8450   21.1000 C   0  0  0  0  0  0  0  0  0  0  0  0
    9.0503  -14.5429   21.7933 C   0  0  2  0  0  0  0  0  0  0  0  0
   10.1861  -15.2092   21.2062 N   0  0  0  0  0  0  0  0  0  0  0  0
    8.9903  -14.9013   23.2265 C   0  0  0  0  0  0  0  0  0  0  0  0
    9.9131  -15.6296   23.7110 O   0  0  0  0  0  0  0  0  0  0  0  0
    7.4343  -15.5774   18.7990 C   0  0  0  0  0  0  0  0  0  0  0  0
    7.4034  -15.3047   17.4529 C   0  0  0  0  0  0  0  0  0  0  0  0
    5.4758  -12.0898   26.6657 C   0  0  0  0  0  0  0  0  0  0  0  0
    6.8034  -12.5482   26.0399 C   0  0  1  0  0  0  0  0  0  0  0  0
    7.9634  -11.8707   26.7459 C   0  0  0  0  0  0  0  0  0  0  0  0
    6.8596  -14.0254   26.2228 C   0  0  0  0  0  0  0  0  0  0  0  0
    8.0341  -14.6440   25.4809 C   0  0  2  0  0  0  0  0  0  0  0  0
    7.9390  -14.4552   24.0553 N   0  0  0  0  0  0  0  0  0  0  0  0
    7.9553  -16.1033   25.7676 C   0  0  0  0  0  0  0  0  0  0  0  0
    6.8565  -16.6778   25.6825 O   0  0  0  0  0  0  0  0  0  0  0  0
    8.8923  -19.0849   24.1801 C   0  0  0  0  0  0  0  0  0  0  0  0
    9.6688  -19.0872   25.4731 C   0  0  1  0  0  0  0  0  0  0  0  0
   10.9823  -18.6649   25.3101 O   0  0  0  0  0  0  0  0  0  0  0  0
    8.9880  -18.2177   26.5190 C   0  0  2  0  0  0  0  0  0  0  0  0
    9.1026  -16.8367   26.1318 N   0  0  0  0  0  0  0  0  0  0  0  0
    9.6210  -18.4692   27.8396 C   0  0  0  0  0  0  0  0  0  0  0  0
   10.3562  -17.5010   28.4867 O   0  0  0  0  0  0  0  0  0  0  0  0
    9.4731  -19.5958   28.3651 O   0  0  0  0  0  0  0  0  0  0  0  0
  2  1  1  0
  3  2  2  0
  4  3  1  0
  5 11  1  0
  5  4  2  0
  6  5  1  0
  7  6  1  0
  7  8  1  6
  9  7  1  0
  9 10  2  0
 11 12  2  0
 12  2  1  0
 14 13  1  1
 14 15  1  0
 16 14  1  0
 17 16  1  1
 17 18  1  0
 18  9  1  0
 19 17  1  0
 20 19  2  0
 22 23  1  0
 22 21  1  6
 24 22  1  0
 24 25  1  6
 25 19  1  0
 26 27  1  0
 26 24  1  0
 28 26  2  0
M  END
$$$$
