PFH.pdb
     RDKit          3D

 29 31  0  0  1  0  0  0  0  0999 V2000
   27.7953  -20.6072  -17.3123 N   0  0  0  0  0  0  0  0  0  0  0  0
   29.0051  -20.5246  -18.0939 C   0  0  0  0  0  0  0  0  0  0  0  0
   29.9048  -21.6419  -17.6295 C   0  0  0  0  0  0  0  0  0  0  0  0
   28.9952  -22.6274  -16.9584 C   0  0  0  0  0  0  0  0  0  0  0  0
   27.6455  -21.9746  -16.8922 C   0  0  1  0  0  0  0  0  0  0  0  0
   27.0270  -22.0842  -15.5444 C   0  0  0  0  0  0  0  0  0  0  0  0
   26.5195  -23.1732  -15.2038 O   0  0  0  0  0  0  0  0  0  0  0  0
   26.9815  -21.0096  -14.6164 N   0  0  0  0  0  0  0  0  0  0  0  0
   26.3355  -21.0971  -13.3176 C   0  0  1  0  0  0  0  0  0  0  0  0
   27.0985  -20.4062  -12.2632 C   0  0  0  0  0  0  0  0  0  0  0  0
   26.5518  -20.3566  -10.9182 C   0  0  0  0  0  0  0  0  0  0  0  0
   25.5779  -19.4870  -10.4984 C   0  0  0  0  0  0  0  0  0  0  0  0
   25.1182  -19.5323   -9.2089 C   0  0  0  0  0  0  0  0  0  0  0  0
   25.6117  -20.4413   -8.2998 C   0  0  0  0  0  0  0  0  0  0  0  0
   26.5906  -21.3280   -8.6915 C   0  0  0  0  0  0  0  0  0  0  0  0
   27.0390  -21.2661   -9.9918 C   0  0  0  0  0  0  0  0  0  0  0  0
   24.9432  -20.5923  -13.3649 C   0  0  0  0  0  0  0  0  0  0  0  0
   24.7480  -19.4532  -13.8567 O   0  0  0  0  0  0  0  0  0  0  0  0
   23.8397  -21.3334  -12.8842 N   0  0  0  0  0  0  0  0  0  0  0  0
   22.4897  -20.8020  -13.1137 C   0  0  1  0  0  0  0  0  0  0  0  0
   21.7602  -21.6591  -14.0927 C   0  0  0  0  0  0  0  0  0  0  0  0
   20.3759  -21.1871  -14.2854 C   0  0  0  0  0  0  0  0  0  0  0  0
   20.0106  -19.9259  -14.8104 C   0  0  0  0  0  0  0  0  0  0  0  0
   18.6752  -19.8279  -14.8475 N   0  0  0  0  0  0  0  0  0  0  0  0
   18.1690  -20.9638  -14.3721 C   0  0  0  0  0  0  0  0  0  0  0  0
   19.1820  -21.7535  -14.0456 N   0  0  0  0  0  0  0  0  0  0  0  0
   21.8345  -20.8205  -11.7982 C   0  0  0  0  0  0  0  0  0  0  0  0
   22.2800  -21.6848  -10.8119 O   0  0  0  0  0  0  0  0  0  0  0  0
   20.8784  -20.0768  -11.5320 O   0  0  0  0  0  0  0  0  0  0  0  0
  1  5  1  0
  2  1  1  0
  3  2  1  0
  3  4  1  0
  5  4  1  0
  6  7  2  0
  5  6  1  1
  8  6  1  0
  9  8  1  0
  9 10  1  1
 11 10  1  0
 12 11  2  0
 13 12  1  0
 14 15  1  0
 14 13  2  0
 15 16  2  0
 16 11  1  0
 17  9  1  0
 17 18  2  0
 19 20  1  0
 19 17  1  0
 20 21  1  6
 21 22  1  0
 22 23  2  0
 22 26  1  0
 23 24  1  0
 24 25  1  0
 26 25  2  0
 27 20  1  0
 28 27  1  0
 29 27  2  0
M  END
$$$$
