PFH.pdb
     RDKit          3D

 29 31  0  0  1  0  0  0  0  0999 V2000
   27.2025  -19.5254  -14.0286 N   0  0  0  0  0  0  0  0  0  0  0  0
   28.4713  -19.0220  -14.4958 C   0  0  0  0  0  0  0  0  0  0  0  0
   29.5371  -19.9273  -13.9320 C   0  0  0  0  0  0  0  0  0  0  0  0
   28.8270  -21.2003  -13.5793 C   0  0  0  0  0  0  0  0  0  0  0  0
   27.3634  -20.9318  -13.7744 C   0  0  1  0  0  0  0  0  0  0  0  0
   26.5430  -21.3926  -12.6231 C   0  0  0  0  0  0  0  0  0  0  0  0
   26.2733  -22.6082  -12.5267 O   0  0  0  0  0  0  0  0  0  0  0  0
   26.0456  -20.5191  -11.6194 N   0  0  0  0  0  0  0  0  0  0  0  0
   25.1337  -20.9394  -10.5690 C   0  0  1  0  0  0  0  0  0  0  0  0
   25.3600  -20.2153   -9.3057 C   0  0  0  0  0  0  0  0  0  0  0  0
   26.6121  -20.4140   -8.5965 C   0  0  0  0  0  0  0  0  0  0  0  0
   27.5662  -21.3402   -8.9327 C   0  0  0  0  0  0  0  0  0  0  0  0
   28.7233  -21.4372   -8.2062 C   0  0  0  0  0  0  0  0  0  0  0  0
   28.9666  -20.6184   -7.1261 C   0  0  0  0  0  0  0  0  0  0  0  0
   28.0273  -19.6780   -6.7637 C   0  0  0  0  0  0  0  0  0  0  0  0
   26.8710  -19.5965   -7.5068 C   0  0  0  0  0  0  0  0  0  0  0  0
   23.7189  -20.8145  -10.9914 C   0  0  0  0  0  0  0  0  0  0  0  0
   22.8343  -20.8588  -10.1009 O   0  0  0  0  0  0  0  0  0  0  0  0
   23.3308  -20.6495  -12.3405 N   0  0  0  0  0  0  0  0  0  0  0  0
   21.9316  -20.3055  -12.6264 C   0  0  1  0  0  0  0  0  0  0  0  0
   21.8303  -18.8792  -13.0517 C   0  0  0  0  0  0  0  0  0  0  0  0
   22.4119  -18.6812  -14.3929 C   0  0  0  0  0  0  0  0  0  0  0  0
   23.4685  -19.4429  -14.9435 C   0  0  0  0  0  0  0  0  0  0  0  0
   23.7455  -18.9962  -16.1755 N   0  0  0  0  0  0  0  0  0  0  0  0
   22.9185  -17.9869  -16.4396 C   0  0  0  0  0  0  0  0  0  0  0  0
   22.1399  -17.8136  -15.3811 N   0  0  0  0  0  0  0  0  0  0  0  0
   21.5197  -21.2135  -13.7062 C   0  0  0  0  0  0  0  0  0  0  0  0
   22.4325  -22.0973  -14.2573 O   0  0  0  0  0  0  0  0  0  0  0  0
   20.3623  -21.2186  -14.1520 O   0  0  0  0  0  0  0  0  0  0  0  0
  1  5  1  0
  2  1  1  0
  3  2  1  0
  3  4  1  0
  5  4  1  0
  6  7  2  0
  5  6  1  1
  8  6  1  0
  9  8  1  0
  9 10  1  1
 11 10  1  0
 12 11  2  0
 13 12  1  0
 14 15  1  0
 14 13  2  0
 15 16  2  0
 16 11  1  0
 17  9  1  0
 17 18  2  0
 19 20  1  0
 19 17  1  0
 20 21  1  6
 21 22  1  0
 22 23  2  0
 22 26  1  0
 23 24  1  0
 24 25  1  0
 26 25  2  0
 27 20  1  0
 28 27  1  0
 29 27  2  0
M  END
$$$$
