PFH.pdb
     RDKit          3D

 29 31  0  0  1  0  0  0  0  0999 V2000
   30.8864  -20.8342  -10.1926 N   0  0  0  0  0  0  0  0  0  0  0  0
   32.2659  -21.1269   -9.8877 C   0  0  0  0  0  0  0  0  0  0  0  0
   32.2757  -22.3964   -9.0742 C   0  0  0  0  0  0  0  0  0  0  0  0
   30.9616  -23.0592   -9.3619 C   0  0  0  0  0  0  0  0  0  0  0  0
   30.1670  -22.0795  -10.1749 C   0  0  1  0  0  0  0  0  0  0  0  0
   28.7771  -21.9188   -9.6715 C   0  0  0  0  0  0  0  0  0  0  0  0
   28.0457  -22.9282   -9.5959 O   0  0  0  0  0  0  0  0  0  0  0  0
   28.2319  -20.6704   -9.2689 N   0  0  0  0  0  0  0  0  0  0  0  0
   26.8574  -20.4986   -8.8297 C   0  0  1  0  0  0  0  0  0  0  0  0
   26.7369  -19.5268   -7.7286 C   0  0  0  0  0  0  0  0  0  0  0  0
   27.4393  -19.7851   -6.4835 C   0  0  0  0  0  0  0  0  0  0  0  0
   27.4277  -20.9791   -5.8088 C   0  0  0  0  0  0  0  0  0  0  0  0
   28.1385  -21.1249   -4.6471 C   0  0  0  0  0  0  0  0  0  0  0  0
   28.8806  -20.0906   -4.1220 C   0  0  0  0  0  0  0  0  0  0  0  0
   28.9122  -18.8788   -4.7768 C   0  0  0  0  0  0  0  0  0  0  0  0
   28.1910  -18.7528   -5.9429 C   0  0  0  0  0  0  0  0  0  0  0  0
   25.9680  -20.1214   -9.9532 C   0  0  0  0  0  0  0  0  0  0  0  0
   26.4005  -19.2920  -10.7914 O   0  0  0  0  0  0  0  0  0  0  0  0
   24.6681  -20.6518  -10.1166 N   0  0  0  0  0  0  0  0  0  0  0  0
   24.0398  -20.5622  -11.4413 C   0  0  1  0  0  0  0  0  0  0  0  0
   24.2579  -21.8283  -12.1996 C   0  0  0  0  0  0  0  0  0  0  0  0
   23.6363  -21.7621  -13.5358 C   0  0  0  0  0  0  0  0  0  0  0  0
   22.8398  -20.6952  -14.0122 C   0  0  0  0  0  0  0  0  0  0  0  0
   22.4392  -20.9612  -15.2623 N   0  0  0  0  0  0  0  0  0  0  0  0
   22.9401  -22.1452  -15.6085 C   0  0  0  0  0  0  0  0  0  0  0  0
   23.6421  -22.6038  -14.5822 N   0  0  0  0  0  0  0  0  0  0  0  0
   22.6110  -20.3373  -11.1808 C   0  0  0  0  0  0  0  0  0  0  0  0
   21.7848  -19.8738  -12.1911 O   0  0  0  0  0  0  0  0  0  0  0  0
   22.1063  -20.5509  -10.0682 O   0  0  0  0  0  0  0  0  0  0  0  0
  1  5  1  0
  2  1  1  0
  3  2  1  0
  3  4  1  0
  5  4  1  0
  6  7  2  0
  5  6  1  1
  8  6  1  0
  9  8  1  0
  9 10  1  1
 11 10  1  0
 12 11  2  0
 13 12  1  0
 14 15  1  0
 14 13  2  0
 15 16  2  0
 16 11  1  0
 17  9  1  0
 17 18  2  0
 19 20  1  0
 19 17  1  0
 20 21  1  1
 21 22  1  0
 22 23  2  0
 22 26  1  0
 23 24  1  0
 24 25  1  0
 26 25  2  0
 27 20  1  0
 28 27  1  0
 29 27  2  0
M  END
$$$$
