PFH.pdb
     RDKit          3D

 29 31  0  0  1  0  0  0  0  0999 V2000
   27.7770  -20.6334  -17.2145 N   0  0  0  0  0  0  0  0  0  0  0  0
   28.9747  -20.5581  -18.0154 C   0  0  0  0  0  0  0  0  0  0  0  0
   29.8534  -21.7109  -17.6003 C   0  0  0  0  0  0  0  0  0  0  0  0
   28.9307  -22.6926  -16.9415 C   0  0  0  0  0  0  0  0  0  0  0  0
   27.5996  -22.0083  -16.8316 C   0  0  1  0  0  0  0  0  0  0  0  0
   27.0023  -22.1421  -15.4765 C   0  0  0  0  0  0  0  0  0  0  0  0
   26.6929  -23.2804  -15.0668 O   0  0  0  0  0  0  0  0  0  0  0  0
   26.7626  -21.0373  -14.6163 N   0  0  0  0  0  0  0  0  0  0  0  0
   26.1565  -21.1602  -13.3013 C   0  0  1  0  0  0  0  0  0  0  0  0
   26.9194  -20.4463  -12.2623 C   0  0  0  0  0  0  0  0  0  0  0  0
   26.3846  -20.3884  -10.9128 C   0  0  0  0  0  0  0  0  0  0  0  0
   25.6424  -19.3522  -10.4065 C   0  0  0  0  0  0  0  0  0  0  0  0
   25.1700  -19.4020   -9.1217 C   0  0  0  0  0  0  0  0  0  0  0  0
   25.4205  -20.4808   -8.3034 C   0  0  0  0  0  0  0  0  0  0  0  0
   26.1631  -21.5373   -8.7834 C   0  0  0  0  0  0  0  0  0  0  0  0
   26.6287  -21.4678  -10.0773 C   0  0  0  0  0  0  0  0  0  0  0  0
   24.7440  -20.7123  -13.3067 C   0  0  0  0  0  0  0  0  0  0  0  0
   24.5036  -19.5326  -13.6645 O   0  0  0  0  0  0  0  0  0  0  0  0
   23.6700  -21.5503  -12.9299 N   0  0  0  0  0  0  0  0  0  0  0  0
   22.2997  -21.0712  -13.1544 C   0  0  1  0  0  0  0  0  0  0  0  0
   21.4159  -22.2079  -13.5445 C   0  0  0  0  0  0  0  0  0  0  0  0
   20.0309  -21.7523  -13.7694 C   0  0  0  0  0  0  0  0  0  0  0  0
   19.6631  -20.4985  -14.3102 C   0  0  0  0  0  0  0  0  0  0  0  0
   18.3279  -20.4155  -14.3760 N   0  0  0  0  0  0  0  0  0  0  0  0
   17.8241  -21.5539  -13.9042 C   0  0  0  0  0  0  0  0  0  0  0  0
   18.8385  -22.3303  -13.5513 N   0  0  0  0  0  0  0  0  0  0  0  0
   21.8776  -20.4834  -11.8752 C   0  0  0  0  0  0  0  0  0  0  0  0
   21.0408  -19.3800  -11.8598 O   0  0  0  0  0  0  0  0  0  0  0  0
   22.2497  -20.9471  -10.7867 O   0  0  0  0  0  0  0  0  0  0  0  0
  1  5  1  0
  2  1  1  0
  3  2  1  0
  3  4  1  0
  5  4  1  0
  6  7  2  0
  5  6  1  1
  8  6  1  0
  9  8  1  0
  9 10  1  1
 11 10  1  0
 12 11  2  0
 13 12  1  0
 14 15  1  0
 14 13  2  0
 15 16  2  0
 16 11  1  0
 17  9  1  0
 17 18  2  0
 19 20  1  0
 19 17  1  0
 20 21  1  1
 21 22  1  0
 22 23  2  0
 22 26  1  0
 23 24  1  0
 24 25  1  0
 26 25  2  0
 27 20  1  0
 28 27  1  0
 29 27  2  0
M  END
$$$$
