PFH.pdb
     RDKit          3D

 29 31  0  0  1  0  0  0  0  0999 V2000
   40.3270  -26.4982    4.2433 N   0  0  0  0  0  0  0  0  0  0  0  0
   40.7806  -27.5935    3.4210 C   0  0  0  0  0  0  0  0  0  0  0  0
   39.5729  -28.1225    2.6894 C   0  0  0  0  0  0  0  0  0  0  0  0
   38.5697  -27.0084    2.7275 C   0  0  0  0  0  0  0  0  0  0  0  0
   39.1481  -25.9538    3.6250 C   0  0  1  0  0  0  0  0  0  0  0  0
   38.1661  -25.4585    4.6256 C   0  0  0  0  0  0  0  0  0  0  0  0
   38.2136  -25.9115    5.7883 O   0  0  0  0  0  0  0  0  0  0  0  0
   37.1694  -24.4907    4.3287 N   0  0  0  0  0  0  0  0  0  0  0  0
   36.2049  -24.0068    5.3019 C   0  0  1  0  0  0  0  0  0  0  0  0
   35.4419  -22.8471    4.8077 C   0  0  0  0  0  0  0  0  0  0  0  0
   34.3140  -22.3648    5.5859 C   0  0  0  0  0  0  0  0  0  0  0  0
   34.3629  -22.0315    6.9154 C   0  0  0  0  0  0  0  0  0  0  0  0
   33.2430  -21.5700    7.5551 C   0  0  0  0  0  0  0  0  0  0  0  0
   32.0436  -21.4262    6.8942 C   0  0  0  0  0  0  0  0  0  0  0  0
   31.9628  -21.7527    5.5582 C   0  0  0  0  0  0  0  0  0  0  0  0
   33.0996  -22.2147    4.9336 C   0  0  0  0  0  0  0  0  0  0  0  0
   35.2856  -25.0826    5.7416 C   0  0  0  0  0  0  0  0  0  0  0  0
   34.6327  -25.6937    4.8597 O   0  0  0  0  0  0  0  0  0  0  0  0
   35.1169  -25.4435    7.0978 N   0  0  0  0  0  0  0  0  0  0  0  0
   34.2725  -26.6040    7.4106 C   0  0  1  0  0  0  0  0  0  0  0  0
   35.0632  -27.6292    8.1518 C   0  0  0  0  0  0  0  0  0  0  0  0
   34.2190  -28.7760    8.5372 C   0  0  0  0  0  0  0  0  0  0  0  0
   33.3663  -29.4901    7.6640 C   0  0  0  0  0  0  0  0  0  0  0  0
   32.7503  -30.4671    8.3422 N   0  0  0  0  0  0  0  0  0  0  0  0
   33.1669  -30.4128    9.6055 C   0  0  0  0  0  0  0  0  0  0  0  0
   34.0308  -29.4127    9.7046 N   0  0  0  0  0  0  0  0  0  0  0  0
   33.1767  -26.0776    8.2365 C   0  0  0  0  0  0  0  0  0  0  0  0
   31.9125  -26.6369    8.1524 O   0  0  0  0  0  0  0  0  0  0  0  0
   33.3440  -25.1324    9.0218 O   0  0  0  0  0  0  0  0  0  0  0  0
  1  5  1  0
  2  1  1  0
  3  2  1  0
  3  4  1  0
  5  4  1  0
  6  7  2  0
  5  6  1  1
  8  6  1  0
  9  8  1  0
  9 10  1  6
 11 10  1  0
 12 11  2  0
 13 12  1  0
 14 15  1  0
 14 13  2  0
 15 16  2  0
 16 11  1  0
 17  9  1  0
 17 18  2  0
 19 20  1  0
 19 17  1  0
 20 21  1  1
 21 22  1  0
 22 23  2  0
 22 26  1  0
 23 24  1  0
 24 25  1  0
 26 25  2  0
 27 20  1  0
 28 27  1  0
 29 27  2  0
M  END
$$$$
