PFH.pdb
     RDKit          3D

 29 31  0  0  1  0  0  0  0  0999 V2000
   27.7074  -20.7722  -16.9386 N   0  0  0  0  0  0  0  0  0  0  0  0
   28.8765  -20.9343  -17.7683 C   0  0  0  0  0  0  0  0  0  0  0  0
   29.4716  -22.2778  -17.4301 C   0  0  0  0  0  0  0  0  0  0  0  0
   28.3581  -23.0527  -16.7909 C   0  0  0  0  0  0  0  0  0  0  0  0
   27.2233  -22.0868  -16.6134 C   0  0  1  0  0  0  0  0  0  0  0  0
   26.6337  -22.1475  -15.2497 C   0  0  0  0  0  0  0  0  0  0  0  0
   26.0328  -23.1853  -14.9012 O   0  0  0  0  0  0  0  0  0  0  0  0
   26.7175  -21.0814  -14.3146 N   0  0  0  0  0  0  0  0  0  0  0  0
   26.0673  -21.1000  -13.0152 C   0  0  1  0  0  0  0  0  0  0  0  0
   26.9673  -20.6703  -11.9305 C   0  0  0  0  0  0  0  0  0  0  0  0
   26.4245  -20.4964  -10.5943 C   0  0  0  0  0  0  0  0  0  0  0  0
   26.2240  -19.2867   -9.9799 C   0  0  0  0  0  0  0  0  0  0  0  0
   25.6900  -19.2304   -8.7198 C   0  0  0  0  0  0  0  0  0  0  0  0
   25.3399  -20.3720   -8.0340 C   0  0  0  0  0  0  0  0  0  0  0  0
   25.5292  -21.6021   -8.6248 C   0  0  0  0  0  0  0  0  0  0  0  0
   26.0672  -21.6372   -9.8917 C   0  0  0  0  0  0  0  0  0  0  0  0
   24.8281  -20.2876  -13.0126 C   0  0  0  0  0  0  0  0  0  0  0  0
   24.9411  -19.0441  -13.1482 O   0  0  0  0  0  0  0  0  0  0  0  0
   23.5398  -20.8503  -12.8654 N   0  0  0  0  0  0  0  0  0  0  0  0
   22.3991  -19.9428  -12.6845 C   0  0  1  0  0  0  0  0  0  0  0  0
   22.2079  -19.1086  -13.9064 C   0  0  0  0  0  0  0  0  0  0  0  0
   22.0644  -19.9509  -15.1089 C   0  0  0  0  0  0  0  0  0  0  0  0
   22.9264  -21.0131  -15.4674 C   0  0  0  0  0  0  0  0  0  0  0  0
   22.5049  -21.5618  -16.6143 N   0  0  0  0  0  0  0  0  0  0  0  0
   21.4164  -20.9031  -17.0065 C   0  0  0  0  0  0  0  0  0  0  0  0
   21.1698  -19.9583  -16.1104 N   0  0  0  0  0  0  0  0  0  0  0  0
   21.2401  -20.8154  -12.4493 C   0  0  0  0  0  0  0  0  0  0  0  0
   19.9819  -20.2659  -12.2673 O   0  0  0  0  0  0  0  0  0  0  0  0
   21.3477  -22.0503  -12.4064 O   0  0  0  0  0  0  0  0  0  0  0  0
  1  5  1  0
  2  1  1  0
  3  2  1  0
  3  4  1  0
  5  4  1  0
  6  7  2  0
  5  6  1  1
  8  6  1  0
  9  8  1  0
  9 10  1  1
 11 10  1  0
 12 11  2  0
 13 12  1  0
 14 15  1  0
 14 13  2  0
 15 16  2  0
 16 11  1  0
 17  9  1  0
 17 18  2  0
 19 20  1  0
 19 17  1  0
 20 21  1  6
 21 22  1  0
 22 23  2  0
 22 26  1  0
 23 24  1  0
 24 25  1  0
 26 25  2  0
 27 20  1  0
 28 27  1  0
 29 27  2  0
M  END
$$$$
