PFH.pdb
     RDKit          3D

 29 31  0  0  1  0  0  0  0  0999 V2000
   27.0909  -19.9370  -17.2349 N   0  0  0  0  0  0  0  0  0  0  0  0
   28.1250  -19.4754  -18.1288 C   0  0  0  0  0  0  0  0  0  0  0  0
   29.4010  -20.1650  -17.7170 C   0  0  0  0  0  0  0  0  0  0  0  0
   28.9645  -21.3670  -16.9336 C   0  0  0  0  0  0  0  0  0  0  0  0
   27.4793  -21.2381  -16.7610 C   0  0  1  0  0  0  0  0  0  0  0  0
   27.0475  -21.4777  -15.3584 C   0  0  0  0  0  0  0  0  0  0  0  0
   26.6173  -22.6081  -15.0477 O   0  0  0  0  0  0  0  0  0  0  0  0
   27.0982  -20.4834  -14.3452 N   0  0  0  0  0  0  0  0  0  0  0  0
   26.7355  -20.7295  -12.9597 C   0  0  1  0  0  0  0  0  0  0  0  0
   27.6049  -20.0069  -12.0146 C   0  0  0  0  0  0  0  0  0  0  0  0
   27.3341  -20.1101  -10.5911 C   0  0  0  0  0  0  0  0  0  0  0  0
   26.3417  -19.4327   -9.9298 C   0  0  0  0  0  0  0  0  0  0  0  0
   26.1587  -19.6126   -8.5843 C   0  0  0  0  0  0  0  0  0  0  0  0
   26.9547  -20.4693   -7.8572 C   0  0  0  0  0  0  0  0  0  0  0  0
   27.9600  -21.1640   -8.4933 C   0  0  0  0  0  0  0  0  0  0  0  0
   28.1275  -20.9692   -9.8460 C   0  0  0  0  0  0  0  0  0  0  0  0
   25.3117  -20.4093  -12.7026 C   0  0  0  0  0  0  0  0  0  0  0  0
   24.9188  -19.2420  -12.9486 O   0  0  0  0  0  0  0  0  0  0  0  0
   24.3899  -21.3545  -12.1977 N   0  0  0  0  0  0  0  0  0  0  0  0
   22.9910  -20.9410  -12.0259 C   0  0  1  0  0  0  0  0  0  0  0  0
   22.0752  -22.0193  -12.4993 C   0  0  0  0  0  0  0  0  0  0  0  0
   21.7516  -21.8531  -13.9290 C   0  0  0  0  0  0  0  0  0  0  0  0
   22.1291  -20.7483  -14.7269 C   0  0  0  0  0  0  0  0  0  0  0  0
   21.6717  -20.9217  -15.9738 N   0  0  0  0  0  0  0  0  0  0  0  0
   21.0206  -22.0823  -16.0124 C   0  0  0  0  0  0  0  0  0  0  0  0
   21.0764  -22.6185  -14.8017 N   0  0  0  0  0  0  0  0  0  0  0  0
   22.8296  -20.7002  -10.5851 C   0  0  0  0  0  0  0  0  0  0  0  0
   21.7453  -19.9758  -10.1186 O   0  0  0  0  0  0  0  0  0  0  0  0
   23.6439  -21.1296   -9.7539 O   0  0  0  0  0  0  0  0  0  0  0  0
  1  5  1  0
  2  1  1  0
  3  2  1  0
  3  4  1  0
  5  4  1  0
  6  7  2  0
  5  6  1  1
  8  6  1  0
  9  8  1  0
  9 10  1  1
 11 10  1  0
 12 11  2  0
 13 12  1  0
 14 15  1  0
 14 13  2  0
 15 16  2  0
 16 11  1  0
 17  9  1  0
 17 18  2  0
 19 20  1  0
 19 17  1  0
 20 21  1  1
 21 22  1  0
 22 23  2  0
 22 26  1  0
 23 24  1  0
 24 25  1  0
 26 25  2  0
 27 20  1  0
 28 27  1  0
 29 27  2  0
M  END
$$$$
