PFH.pdb
     RDKit          3D

 29 31  0  0  1  0  0  0  0  0999 V2000
   12.6389  -13.5423    4.7313 N   0  0  0  0  0  0  0  0  0  0  0  0
   11.2628  -13.2554    5.0562 C   0  0  0  0  0  0  0  0  0  0  0  0
   10.9106  -14.0972    6.2566 C   0  0  0  0  0  0  0  0  0  0  0  0
   12.2240  -14.4572    6.8847 C   0  0  0  0  0  0  0  0  0  0  0  0
   13.2863  -13.9760    5.9401 C   0  0  1  0  0  0  0  0  0  0  0  0
   14.3264  -15.0068    5.6822 C   0  0  0  0  0  0  0  0  0  0  0  0
   14.2299  -15.7133    4.6570 O   0  0  0  0  0  0  0  0  0  0  0  0
   15.4321  -15.2334    6.5448 N   0  0  0  0  0  0  0  0  0  0  0  0
   16.5167  -16.1498    6.2363 C   0  0  1  0  0  0  0  0  0  0  0  0
   17.8288  -15.4796    6.2124 C   0  0  0  0  0  0  0  0  0  0  0  0
   18.1548  -14.6129    5.0931 C   0  0  0  0  0  0  0  0  0  0  0  0
   18.1190  -14.9872    3.7742 C   0  0  0  0  0  0  0  0  0  0  0  0
   18.4305  -14.0866    2.7902 C   0  0  0  0  0  0  0  0  0  0  0  0
   18.7863  -12.7898    3.0869 C   0  0  0  0  0  0  0  0  0  0  0  0
   18.8313  -12.3838    4.4026 C   0  0  0  0  0  0  0  0  0  0  0  0
   18.5147  -13.3041    5.3765 C   0  0  0  0  0  0  0  0  0  0  0  0
   16.5403  -17.3019    7.1679 C   0  0  0  0  0  0  0  0  0  0  0  0
   16.4006  -17.0683    8.3940 O   0  0  0  0  0  0  0  0  0  0  0  0
   16.7118  -18.6368    6.7360 N   0  0  0  0  0  0  0  0  0  0  0  0
   16.5319  -19.7154    7.7168 C   0  0  1  0  0  0  0  0  0  0  0  0
   16.2657  -21.0060    7.0174 C   0  0  0  0  0  0  0  0  0  0  0  0
   14.8205  -21.2031    6.7961 C   0  0  0  0  0  0  0  0  0  0  0  0
   13.8030  -20.3163    7.2182 C   0  0  0  0  0  0  0  0  0  0  0  0
   12.6090  -20.8014    6.8534 N   0  0  0  0  0  0  0  0  0  0  0  0
   12.8129  -21.9541    6.2191 C   0  0  0  0  0  0  0  0  0  0  0  0
   14.1191  -22.1768    6.1934 N   0  0  0  0  0  0  0  0  0  0  0  0
   17.7914  -19.7695    8.4723 C   0  0  0  0  0  0  0  0  0  0  0  0
   17.8572  -20.4713    9.6644 O   0  0  0  0  0  0  0  0  0  0  0  0
   18.8186  -19.1990    8.0752 O   0  0  0  0  0  0  0  0  0  0  0  0
  1  5  1  0
  2  1  1  0
  3  2  1  0
  3  4  1  0
  5  4  1  0
  6  7  2  0
  5  6  1  6
  8  6  1  0
  9  8  1  0
  9 10  1  1
 11 10  1  0
 12 11  2  0
 13 12  1  0
 14 15  1  0
 14 13  2  0
 15 16  2  0
 16 11  1  0
 17  9  1  0
 17 18  2  0
 19 20  1  0
 19 17  1  0
 20 21  1  6
 21 22  1  0
 22 23  2  0
 22 26  1  0
 23 24  1  0
 24 25  1  0
 26 25  2  0
 27 20  1  0
 28 27  1  0
 29 27  2  0
M  END
$$$$
