VEC.pdb
     RDKit          3D

 23 22  0  0  1  0  0  0  0  0999 V2000
   14.0424  -13.7809  -15.1671 C   0  0  0  0  0  0  0  0  0  0  0  0
   14.8854  -13.0816  -14.1219 C   0  0  2  0  0  0  0  0  0  0  0  0
   14.4150  -13.5824  -12.7669 C   0  0  0  0  0  0  0  0  0  0  0  0
   14.5920  -11.5970  -14.1642 C   0  0  2  0  0  0  0  0  0  0  0  0
   15.0214  -11.1150  -15.4683 N   0  0  0  0  0  0  0  0  0  0  0  0
   15.3250  -10.8533  -13.1063 C   0  0  0  0  0  0  0  0  0  0  0  0
   15.1884  -11.1678  -11.8967 O   0  0  0  0  0  0  0  0  0  0  0  0
   16.1746   -9.7971  -13.4301 N   0  0  0  0  0  0  0  0  0  0  0  0
   16.9706   -9.0276  -12.4655 C   0  0  1  0  0  0  0  0  0  0  0  0
   17.8921   -8.2030  -13.3365 C   0  0  0  0  0  0  0  0  0  0  0  0
   18.7402   -7.3136  -12.5144 C   0  0  0  0  0  0  0  0  0  0  0  0
   19.6331   -6.5180  -13.4423 C   0  0  0  0  0  0  0  0  0  0  0  0
   19.1937   -5.4945  -14.0209 O   0  0  0  0  0  0  0  0  0  0  0  0
   16.1456   -8.2472  -11.5686 C   0  0  0  0  0  0  0  0  0  0  0  0
   15.1781   -7.5911  -12.1022 O   0  0  0  0  0  0  0  0  0  0  0  0
   20.9248   -6.9566  -13.6215 O   0  0  0  0  0  0  0  0  0  0  0  0
   16.2459   -8.1025  -10.1675 N   0  0  0  0  0  0  0  0  0  0  0  0
   15.3430   -7.2823   -9.3864 C   0  0  1  0  0  0  0  0  0  0  0  0
   14.9012   -7.9709   -8.1164 C   0  0  0  0  0  0  0  0  0  0  0  0
   13.7352   -6.8564   -7.2733 S   0  0  0  0  0  0  0  0  0  0  0  0
   16.0111   -6.0311   -8.9813 C   0  0  0  0  0  0  0  0  0  0  0  0
   15.3446   -5.1154   -8.4498 O   0  0  0  0  0  0  0  0  0  0  0  0
   17.3711   -5.8409   -9.1759 O   0  0  0  0  0  0  0  0  0  0  0  0
  2  1  1  6
  3  2  1  0
  4  5  1  6
  4  2  1  0
  6  7  2  0
  6  4  1  0
  8  6  1  0
  9  8  1  0
  9 14  1  0
  9 10  1  6
 11 10  1  0
 12 11  1  0
 13 12  2  0
 14 17  1  0
 15 14  2  0
 16 12  1  0
 17 18  1  0
 18 21  1  0
 18 19  1  1
 19 20  1  0
 21 22  2  0
 21 23  1  0
M  END
$$$$
