VEC.pdb
     RDKit          3D

 23 22  0  0  1  0  0  0  0  0999 V2000
   18.0453  -12.8639  -17.3620 C   0  0  0  0  0  0  0  0  0  0  0  0
   17.4745  -12.7745  -15.9625 C   0  0  2  0  0  0  0  0  0  0  0  0
   15.9950  -13.1037  -16.0665 C   0  0  0  0  0  0  0  0  0  0  0  0
   17.5700  -11.3422  -15.4817 C   0  0  2  0  0  0  0  0  0  0  0  0
   16.7296  -10.5414  -16.3592 N   0  0  0  0  0  0  0  0  0  0  0  0
   18.9628  -10.8261  -15.5399 C   0  0  0  0  0  0  0  0  0  0  0  0
   19.8633  -11.3443  -14.8319 O   0  0  0  0  0  0  0  0  0  0  0  0
   19.2991   -9.7627  -16.3756 N   0  0  0  0  0  0  0  0  0  0  0  0
   20.6127   -9.1081  -16.4221 C   0  0  1  0  0  0  0  0  0  0  0  0
   20.9479   -9.0792  -17.8968 C   0  0  0  0  0  0  0  0  0  0  0  0
   21.6841  -10.2981  -18.2949 C   0  0  0  0  0  0  0  0  0  0  0  0
   22.0762  -10.1618  -19.7506 C   0  0  0  0  0  0  0  0  0  0  0  0
   21.4182   -9.4165  -20.5167 O   0  0  0  0  0  0  0  0  0  0  0  0
   20.6022   -7.8064  -15.7901 C   0  0  0  0  0  0  0  0  0  0  0  0
   19.5566   -7.0838  -15.9798 O   0  0  0  0  0  0  0  0  0  0  0  0
   23.1657  -10.8773  -20.1909 O   0  0  0  0  0  0  0  0  0  0  0  0
   21.5873   -7.2050  -14.9764 N   0  0  0  0  0  0  0  0  0  0  0  0
   21.4996   -5.8401  -14.4995 C   0  0  1  0  0  0  0  0  0  0  0  0
   22.2632   -5.6355  -13.2123 C   0  0  0  0  0  0  0  0  0  0  0  0
   22.1025   -3.8799  -12.7601 S   0  0  0  0  0  0  0  0  0  0  0  0
   22.0810   -4.9148  -15.4904 C   0  0  0  0  0  0  0  0  0  0  0  0
   21.9012   -3.6826  -15.3696 O   0  0  0  0  0  0  0  0  0  0  0  0
   22.8287   -5.3787  -16.5625 O   0  0  0  0  0  0  0  0  0  0  0  0
  2  1  1  6
  3  2  1  0
  4  5  1  6
  4  2  1  0
  6  7  2  0
  6  4  1  0
  8  6  1  0
  9  8  1  0
  9 14  1  0
  9 10  1  6
 11 10  1  0
 12 11  1  0
 13 12  2  0
 14 17  1  0
 15 14  2  0
 16 12  1  0
 17 18  1  0
 18 21  1  0
 18 19  1  1
 19 20  1  0
 21 22  2  0
 21 23  1  0
M  END
$$$$
