VEC.pdb
     RDKit          3D

 23 22  0  0  1  0  0  0  0  0999 V2000
   19.9024  -11.7159  -15.3747 C   0  0  0  0  0  0  0  0  0  0  0  0
   18.6938  -12.2979  -16.0767 C   0  0  2  0  0  0  0  0  0  0  0  0
   18.8305  -11.9544  -17.5503 C   0  0  0  0  0  0  0  0  0  0  0  0
   17.4487  -11.5955  -15.5787 C   0  0  2  0  0  0  0  0  0  0  0  0
   16.3149  -12.2088  -16.2538 N   0  0  0  0  0  0  0  0  0  0  0  0
   17.4681  -10.1413  -15.8861 C   0  0  0  0  0  0  0  0  0  0  0  0
   17.6184   -9.7431  -17.0691 O   0  0  0  0  0  0  0  0  0  0  0  0
   17.3208   -9.1929  -14.8756 N   0  0  0  0  0  0  0  0  0  0  0  0
   17.4249   -7.7398  -15.0598 C   0  0  1  0  0  0  0  0  0  0  0  0
   16.1031   -7.2164  -14.5434 C   0  0  0  0  0  0  0  0  0  0  0  0
   15.1510   -6.9993  -15.6536 C   0  0  0  0  0  0  0  0  0  0  0  0
   13.8786   -6.4131  -15.0802 C   0  0  0  0  0  0  0  0  0  0  0  0
   13.1657   -7.0891  -14.2990 O   0  0  0  0  0  0  0  0  0  0  0  0
   18.5840   -7.1820  -14.3971 C   0  0  0  0  0  0  0  0  0  0  0  0
   18.8244   -7.6042  -13.2074 O   0  0  0  0  0  0  0  0  0  0  0  0
   13.5424   -5.1299  -15.4452 O   0  0  0  0  0  0  0  0  0  0  0  0
   19.5095   -6.2291  -14.8762 N   0  0  0  0  0  0  0  0  0  0  0  0
   20.5599   -5.6596  -14.0573 C   0  0  1  0  0  0  0  0  0  0  0  0
   21.9343   -6.0940  -14.5095 C   0  0  0  0  0  0  0  0  0  0  0  0
   23.1469   -5.0776  -13.6099 S   0  0  0  0  0  0  0  0  0  0  0  0
   20.5305   -4.1872  -14.1405 C   0  0  0  0  0  0  0  0  0  0  0  0
   21.0842   -3.5039  -13.2507 O   0  0  0  0  0  0  0  0  0  0  0  0
   19.8995   -3.5338  -15.1887 O   0  0  0  0  0  0  0  0  0  0  0  0
  2  1  1  1
  3  2  1  0
  4  5  1  6
  4  2  1  0
  6  7  2  0
  6  4  1  0
  8  6  1  0
  9  8  1  0
  9 14  1  0
  9 10  1  1
 11 10  1  0
 12 11  1  0
 13 12  2  0
 14 17  1  0
 15 14  2  0
 16 12  1  0
 17 18  1  0
 18 21  1  0
 18 19  1  6
 19 20  1  0
 21 22  2  0
 21 23  1  0
M  END
$$$$
