VEC.pdb
     RDKit          3D

 23 22  0  0  1  0  0  0  0  0999 V2000
   22.3923  -13.6840  -17.1820 C   0  0  0  0  0  0  0  0  0  0  0  0
   23.6737  -12.9877  -17.5888 C   0  0  2  0  0  0  0  0  0  0  0  0
   24.8165  -13.9268  -17.2422 C   0  0  0  0  0  0  0  0  0  0  0  0
   23.8534  -11.7489  -16.7375 C   0  0  2  0  0  0  0  0  0  0  0  0
   23.8798  -12.1860  -15.3497 N   0  0  0  0  0  0  0  0  0  0  0  0
   22.7408  -10.7803  -16.9203 C   0  0  0  0  0  0  0  0  0  0  0  0
   22.5868  -10.1883  -18.0187 O   0  0  0  0  0  0  0  0  0  0  0  0
   21.8491  -10.5087  -15.8842 N   0  0  0  0  0  0  0  0  0  0  0  0
   20.7468   -9.5409  -15.9508 C   0  0  1  0  0  0  0  0  0  0  0  0
   19.5103  -10.3908  -15.7597 C   0  0  0  0  0  0  0  0  0  0  0  0
   18.2847   -9.5693  -15.8568 C   0  0  0  0  0  0  0  0  0  0  0  0
   17.0935  -10.5005  -15.9306 C   0  0  0  0  0  0  0  0  0  0  0  0
   16.8343  -11.2742  -14.9769 O   0  0  0  0  0  0  0  0  0  0  0  0
   20.8901   -8.4751  -14.9827 C   0  0  0  0  0  0  0  0  0  0  0  0
   21.5361   -8.7576  -13.9083 O   0  0  0  0  0  0  0  0  0  0  0  0
   16.3203  -10.4636  -17.0680 O   0  0  0  0  0  0  0  0  0  0  0  0
   20.4208   -7.1448  -15.0486 N   0  0  0  0  0  0  0  0  0  0  0  0
   20.8624   -6.1006  -14.1471 C   0  0  1  0  0  0  0  0  0  0  0  0
   22.3519   -5.8641  -14.2343 C   0  0  0  0  0  0  0  0  0  0  0  0
   22.7406   -4.4522  -13.1536 S   0  0  0  0  0  0  0  0  0  0  0  0
   20.2085   -4.8227  -14.4867 C   0  0  0  0  0  0  0  0  0  0  0  0
   19.7144   -4.6614  -15.6247 O   0  0  0  0  0  0  0  0  0  0  0  0
   20.1259   -3.7856  -13.5696 O   0  0  0  0  0  0  0  0  0  0  0  0
  2  1  1  1
  3  2  1  0
  4  5  1  1
  4  2  1  0
  6  7  2  0
  6  4  1  0
  8  6  1  0
  9  8  1  0
  9 14  1  0
  9 10  1  1
 11 10  1  0
 12 11  1  0
 13 12  2  0
 14 17  1  0
 15 14  2  0
 16 12  1  0
 17 18  1  0
 18 21  1  0
 18 19  1  6
 19 20  1  0
 21 22  2  0
 21 23  1  0
M  END
$$$$
