VEC.pdb
     RDKit          3D

 23 22  0  0  1  0  0  0  0  0999 V2000
   21.3274  -13.1682  -18.5383 C   0  0  0  0  0  0  0  0  0  0  0  0
   20.4514  -14.1550  -17.7960 C   0  0  2  0  0  0  0  0  0  0  0  0
   19.9361  -15.1486  -18.8233 C   0  0  0  0  0  0  0  0  0  0  0  0
   19.2424  -13.4266  -17.2488 C   0  0  2  0  0  0  0  0  0  0  0  0
   18.4979  -12.9189  -18.3914 N   0  0  0  0  0  0  0  0  0  0  0  0
   19.6262  -12.2874  -16.3744 C   0  0  0  0  0  0  0  0  0  0  0  0
   20.3071  -12.4839  -15.3360 O   0  0  0  0  0  0  0  0  0  0  0  0
   19.2418  -10.9843  -16.6848 N   0  0  0  0  0  0  0  0  0  0  0  0
   19.5347   -9.8002  -15.8671 C   0  0  1  0  0  0  0  0  0  0  0  0
   20.1969   -8.8479  -16.8379 C   0  0  0  0  0  0  0  0  0  0  0  0
   20.4690   -7.5440  -16.1959 C   0  0  0  0  0  0  0  0  0  0  0  0
   21.7363   -7.6728  -15.3781 C   0  0  0  0  0  0  0  0  0  0  0  0
   22.6366   -8.4748  -15.7270 O   0  0  0  0  0  0  0  0  0  0  0  0
   18.3520   -9.2672  -15.2259 C   0  0  0  0  0  0  0  0  0  0  0  0
   17.2752   -9.2526  -15.9272 O   0  0  0  0  0  0  0  0  0  0  0  0
   21.8576   -6.8869  -14.2554 O   0  0  0  0  0  0  0  0  0  0  0  0
   18.2033   -8.7568  -13.9177 N   0  0  0  0  0  0  0  0  0  0  0  0
   16.9533   -8.2335  -13.4060 C   0  0  1  0  0  0  0  0  0  0  0  0
   16.8453   -8.3793  -11.9062 C   0  0  0  0  0  0  0  0  0  0  0  0
   16.5742  -10.1438  -11.5517 S   0  0  0  0  0  0  0  0  0  0  0  0
   16.8440   -6.7925  -13.7019 C   0  0  0  0  0  0  0  0  0  0  0  0
   17.8157   -6.1867  -14.2061 O   0  0  0  0  0  0  0  0  0  0  0  0
   15.6819   -6.0845  -13.4338 O   0  0  0  0  0  0  0  0  0  0  0  0
  2  1  1  6
  3  2  1  0
  4  5  1  6
  4  2  1  0
  6  7  2  0
  6  4  1  0
  8  6  1  0
  9  8  1  0
  9 14  1  0
  9 10  1  6
 11 10  1  0
 12 11  1  0
 13 12  2  0
 14 17  1  0
 15 14  2  0
 16 12  1  0
 17 18  1  0
 18 21  1  0
 18 19  1  1
 19 20  1  0
 21 22  2  0
 21 23  1  0
M  END
$$$$
