VEC.pdb
     RDKit          3D

 23 22  0  0  1  0  0  0  0  0999 V2000
   15.6941  -11.0762  -16.4402 C   0  0  0  0  0  0  0  0  0  0  0  0
   17.0026  -11.6964  -16.8821 C   0  0  2  0  0  0  0  0  0  0  0  0
   16.9517  -13.1631  -16.4893 C   0  0  0  0  0  0  0  0  0  0  0  0
   18.1348  -11.0728  -16.0942 C   0  0  2  0  0  0  0  0  0  0  0  0
   17.9086  -11.3974  -14.6938 N   0  0  0  0  0  0  0  0  0  0  0  0
   18.1746   -9.5950  -16.2495 C   0  0  0  0  0  0  0  0  0  0  0  0
   18.3915   -9.0793  -17.3754 O   0  0  0  0  0  0  0  0  0  0  0  0
   17.9734   -8.7536  -15.1569 N   0  0  0  0  0  0  0  0  0  0  0  0
   18.0297   -7.2868  -15.1991 C   0  0  1  0  0  0  0  0  0  0  0  0
   16.6511   -6.8609  -14.7455 C   0  0  0  0  0  0  0  0  0  0  0  0
   16.5222   -5.3880  -14.7594 C   0  0  0  0  0  0  0  0  0  0  0  0
   15.0492   -5.0401  -14.7352 C   0  0  0  0  0  0  0  0  0  0  0  0
   14.2527   -5.6009  -15.5267 O   0  0  0  0  0  0  0  0  0  0  0  0
   19.1097   -6.7537  -14.3971 C   0  0  0  0  0  0  0  0  0  0  0  0
   19.0939   -7.0446  -13.1455 O   0  0  0  0  0  0  0  0  0  0  0  0
   14.6274   -4.0992  -13.8243 O   0  0  0  0  0  0  0  0  0  0  0  0
   20.2010   -5.9509  -14.7958 N   0  0  0  0  0  0  0  0  0  0  0  0
   21.2476   -5.5252  -13.8894 C   0  0  1  0  0  0  0  0  0  0  0  0
   22.5600   -6.2197  -14.1674 C   0  0  0  0  0  0  0  0  0  0  0  0
   22.3586   -7.9667  -13.6982 S   0  0  0  0  0  0  0  0  0  0  0  0
   21.4929   -4.0781  -14.0364 C   0  0  0  0  0  0  0  0  0  0  0  0
   21.0015   -3.4606  -15.0072 O   0  0  0  0  0  0  0  0  0  0  0  0
   22.2609   -3.3771  -13.1185 O   0  0  0  0  0  0  0  0  0  0  0  0
  2  1  1  1
  3  2  1  0
  4  5  1  1
  4  2  1  0
  6  7  2  0
  6  4  1  0
  8  6  1  0
  9  8  1  0
  9 14  1  0
  9 10  1  1
 11 10  1  0
 12 11  1  0
 13 12  2  0
 14 17  1  0
 15 14  2  0
 16 12  1  0
 17 18  1  0
 18 21  1  0
 18 19  1  6
 19 20  1  0
 21 22  2  0
 21 23  1  0
M  END
$$$$
