VEC.pdb
     RDKit          3D

 23 22  0  0  1  0  0  0  0  0999 V2000
   17.8816  -12.1842  -18.0889 C   0  0  0  0  0  0  0  0  0  0  0  0
   19.2114  -12.6293  -17.5181 C   0  0  2  0  0  0  0  0  0  0  0  0
   19.0266  -14.0548  -17.0262 C   0  0  0  0  0  0  0  0  0  0  0  0
   19.5329  -11.7865  -16.3023 C   0  0  2  0  0  0  0  0  0  0  0  0
   18.4798  -12.0264  -15.3271 N   0  0  0  0  0  0  0  0  0  0  0  0
   19.5748  -10.3360  -16.6246 C   0  0  0  0  0  0  0  0  0  0  0  0
   20.4462   -9.8838  -17.4100 O   0  0  0  0  0  0  0  0  0  0  0  0
   18.6545   -9.4507  -16.0664 N   0  0  0  0  0  0  0  0  0  0  0  0
   18.5978   -8.0088  -16.3386 C   0  0  1  0  0  0  0  0  0  0  0  0
   17.1159   -7.7097  -16.3849 C   0  0  0  0  0  0  0  0  0  0  0  0
   16.8747   -6.2620  -16.5645 C   0  0  0  0  0  0  0  0  0  0  0  0
   15.3840   -6.0437  -16.7117 C   0  0  0  0  0  0  0  0  0  0  0  0
   14.5825   -6.9885  -16.5107 O   0  0  0  0  0  0  0  0  0  0  0  0
   19.3295   -7.2342  -15.3596 C   0  0  0  0  0  0  0  0  0  0  0  0
   19.6169   -7.8267  -14.2561 O   0  0  0  0  0  0  0  0  0  0  0  0
   14.9522   -4.7872  -17.0689 O   0  0  0  0  0  0  0  0  0  0  0  0
   19.7872   -5.9008  -15.4423 N   0  0  0  0  0  0  0  0  0  0  0  0
   20.5640   -5.2609  -14.4006 C   0  0  1  0  0  0  0  0  0  0  0  0
   21.8684   -5.9772  -14.1403 C   0  0  0  0  0  0  0  0  0  0  0  0
   22.7765   -5.0128  -12.8922 S   0  0  0  0  0  0  0  0  0  0  0  0
   20.9077   -3.8815  -14.7943 C   0  0  0  0  0  0  0  0  0  0  0  0
   20.9277   -2.9762  -13.9311 O   0  0  0  0  0  0  0  0  0  0  0  0
   21.2122   -3.5583  -16.1083 O   0  0  0  0  0  0  0  0  0  0  0  0
  2  1  1  1
  3  2  1  0
  4  5  1  1
  4  2  1  0
  6  7  2  0
  6  4  1  0
  8  6  1  0
  9  8  1  0
  9 14  1  0
  9 10  1  1
 11 10  1  0
 12 11  1  0
 13 12  2  0
 14 17  1  0
 15 14  2  0
 16 12  1  0
 17 18  1  0
 18 21  1  0
 18 19  1  6
 19 20  1  0
 21 22  2  0
 21 23  1  0
M  END
$$$$
