WYF.pdb
     RDKit          3D

 38 41  0  0  1  0  0  0  0  0999 V2000
   25.2404  -18.1230  -16.0444 N   0  0  0  0  0  0  0  0  0  0  0  0
   26.1774  -18.2756  -14.9062 C   0  0  1  0  0  0  0  0  0  0  0  0
   26.7672  -16.8906  -14.7309 C   0  0  0  0  0  0  0  0  0  0  0  0
   27.5755  -16.4858  -15.8846 C   0  0  0  0  0  0  0  0  0  0  0  0
   27.5143  -15.2615  -16.5622 C   0  0  0  0  0  0  0  0  0  0  0  0
   28.4110  -15.2974  -17.5582 N   0  0  0  0  0  0  0  0  0  0  0  0
   29.0642  -16.4775  -17.5794 C   0  0  0  0  0  0  0  0  0  0  0  0
   30.0591  -17.0046  -18.3898 C   0  0  0  0  0  0  0  0  0  0  0  0
   30.5519  -18.2750  -18.1779 C   0  0  0  0  0  0  0  0  0  0  0  0
   30.0314  -19.0130  -17.1371 C   0  0  0  0  0  0  0  0  0  0  0  0
   29.0435  -18.4923  -16.3301 C   0  0  0  0  0  0  0  0  0  0  0  0
   28.5462  -17.2118  -16.5434 C   0  0  0  0  0  0  0  0  0  0  0  0
   25.3994  -18.6385  -13.6905 C   0  0  0  0  0  0  0  0  0  0  0  0
   24.4147  -17.9081  -13.3094 O   0  0  0  0  0  0  0  0  0  0  0  0
   25.2513  -24.8356  -15.8874 O   0  0  0  0  0  0  0  0  0  0  0  0
   24.9492  -23.9572  -14.8641 C   0  0  0  0  0  0  0  0  0  0  0  0
   25.3156  -24.1761  -13.5504 C   0  0  0  0  0  0  0  0  0  0  0  0
   25.0041  -23.2846  -12.5361 C   0  0  0  0  0  0  0  0  0  0  0  0
   24.3045  -22.1289  -12.8152 C   0  0  0  0  0  0  0  0  0  0  0  0
   23.9156  -21.1173  -11.8345 C   0  0  0  0  0  0  0  0  0  0  0  0
   24.9987  -20.0367  -11.6329 C   0  0  2  0  0  0  0  0  0  0  0  0
   25.6534  -19.7683  -12.8767 N   0  0  0  0  0  0  0  0  0  0  0  0
   25.8698  -20.4959  -10.5421 C   0  0  0  0  0  0  0  0  0  0  0  0
   26.8561  -21.2412  -10.6411 O   0  0  0  0  0  0  0  0  0  0  0  0
   23.9412  -21.9200  -14.1434 C   0  0  0  0  0  0  0  0  0  0  0  0
   24.2503  -22.8028  -15.1441 C   0  0  0  0  0  0  0  0  0  0  0  0
   25.5534  -20.0361   -9.2134 N   0  0  0  0  0  0  0  0  0  0  0  0
   26.2825  -20.5490   -8.0592 C   0  0  1  0  0  0  0  0  0  0  0  0
   27.1119  -19.3959   -7.5273 C   0  0  0  0  0  0  0  0  0  0  0  0
   27.8286  -19.7057   -6.2802 C   0  0  0  0  0  0  0  0  0  0  0  0
   28.9326  -20.5276   -6.2486 C   0  0  0  0  0  0  0  0  0  0  0  0
   29.6060  -20.8081   -5.0775 C   0  0  0  0  0  0  0  0  0  0  0  0
   29.1924  -20.2678   -3.8752 C   0  0  0  0  0  0  0  0  0  0  0  0
   28.0908  -19.4467   -3.9004 C   0  0  0  0  0  0  0  0  0  0  0  0
   27.4020  -19.1531   -5.0654 C   0  0  0  0  0  0  0  0  0  0  0  0
   25.3286  -20.9723   -7.0263 C   0  0  0  0  0  0  0  0  0  0  0  0
   25.6803  -21.9280   -6.0990 O   0  0  0  0  0  0  0  0  0  0  0  0
   24.1901  -20.4637   -6.9868 O   0  0  0  0  0  0  0  0  0  0  0  0
  2  1  1  6
  3  4  1  0
  3  2  1  0
  4  5  2  0
  6  5  1  0
  7  6  1  0
  8  7  2  0
  9  8  1  0
 10  9  2  0
 10 11  1  0
 11 12  2  0
 12  7  1  0
 12  4  1  0
 13  2  1  0
 14 13  2  0
 15 16  1  0
 16 17  2  0
 17 18  1  0
 19 20  1  0
 19 18  2  0
 21 20  1  6
 21 22  1  0
 21 23  1  0
 22 13  1  0
 23 27  1  0
 23 24  2  0
 25 19  1  0
 26 25  2  0
 26 16  1  0
 27 28  1  0
 28 29  1  1
 29 30  1  0
 30 35  1  0
 30 31  2  0
 31 32  1  0
 32 33  2  0
 34 33  1  0
 35 34  2  0
 36 28  1  0
 36 37  1  0
 38 36  2  0
M  END
$$$$
