WYF.pdb
     RDKit          3D

 38 41  0  0  1  0  0  0  0  0999 V2000
   25.4296  -18.7722  -15.5766 N   0  0  0  0  0  0  0  0  0  0  0  0
   26.3019  -18.5794  -14.3940 C   0  0  1  0  0  0  0  0  0  0  0  0
   26.4341  -17.0739  -14.2798 C   0  0  0  0  0  0  0  0  0  0  0  0
   27.1494  -16.4954  -15.4208 C   0  0  0  0  0  0  0  0  0  0  0  0
   26.7683  -15.3728  -16.1666 C   0  0  0  0  0  0  0  0  0  0  0  0
   27.6888  -15.1822  -17.1224 N   0  0  0  0  0  0  0  0  0  0  0  0
   28.6599  -16.1159  -17.0526 C   0  0  0  0  0  0  0  0  0  0  0  0
   29.8083  -16.3575  -17.7925 C   0  0  0  0  0  0  0  0  0  0  0  0
   30.6402  -17.4153  -17.4914 C   0  0  0  0  0  0  0  0  0  0  0  0
   30.3035  -18.2312  -16.4333 C   0  0  0  0  0  0  0  0  0  0  0  0
   29.1639  -17.9939  -15.6962 C   0  0  0  0  0  0  0  0  0  0  0  0
   28.3249  -16.9277  -15.9994 C   0  0  0  0  0  0  0  0  0  0  0  0
   25.6017  -19.1063  -13.1911 C   0  0  0  0  0  0  0  0  0  0  0  0
   24.5351  -18.5360  -12.7606 O   0  0  0  0  0  0  0  0  0  0  0  0
   19.7111  -21.1549  -13.7094 O   0  0  0  0  0  0  0  0  0  0  0  0
   20.9125  -21.3129  -13.0449 C   0  0  0  0  0  0  0  0  0  0  0  0
   21.0561  -21.1020  -11.6873 C   0  0  0  0  0  0  0  0  0  0  0  0
   22.2688  -21.2647  -11.0366 C   0  0  0  0  0  0  0  0  0  0  0  0
   23.3907  -21.6500  -11.7406 C   0  0  0  0  0  0  0  0  0  0  0  0
   24.7210  -21.8507  -11.1693 C   0  0  0  0  0  0  0  0  0  0  0  0
   25.5528  -20.5515  -11.1276 C   0  0  2  0  0  0  0  0  0  0  0  0
   26.0195  -20.2322  -12.4421 N   0  0  0  0  0  0  0  0  0  0  0  0
   26.5967  -20.7389  -10.1105 C   0  0  0  0  0  0  0  0  0  0  0  0
   27.8228  -20.6618  -10.2796 O   0  0  0  0  0  0  0  0  0  0  0  0
   23.2326  -21.8596  -13.1084 C   0  0  0  0  0  0  0  0  0  0  0  0
   22.0327  -21.6980  -13.7493 C   0  0  0  0  0  0  0  0  0  0  0  0
   26.1594  -21.0439   -8.7715 N   0  0  0  0  0  0  0  0  0  0  0  0
   27.1266  -21.1689   -7.6872 C   0  0  1  0  0  0  0  0  0  0  0  0
   27.7549  -19.7996   -7.5113 C   0  0  0  0  0  0  0  0  0  0  0  0
   28.5359  -19.6594   -6.2722 C   0  0  0  0  0  0  0  0  0  0  0  0
   28.6862  -18.4522   -5.6277 C   0  0  0  0  0  0  0  0  0  0  0  0
   29.4127  -18.3280   -4.4614 C   0  0  0  0  0  0  0  0  0  0  0  0
   30.0257  -19.4252   -3.8879 C   0  0  0  0  0  0  0  0  0  0  0  0
   29.8793  -20.6330   -4.5268 C   0  0  0  0  0  0  0  0  0  0  0  0
   29.1541  -20.7777   -5.6977 C   0  0  0  0  0  0  0  0  0  0  0  0
   26.4292  -21.5409   -6.4498 C   0  0  0  0  0  0  0  0  0  0  0  0
   27.1004  -22.1883   -5.4362 O   0  0  0  0  0  0  0  0  0  0  0  0
   25.2192  -21.2695   -6.3135 O   0  0  0  0  0  0  0  0  0  0  0  0
  2  1  1  6
  3  4  1  0
  3  2  1  0
  4  5  2  0
  6  5  1  0
  7  6  1  0
  8  7  2  0
  9  8  1  0
 10  9  2  0
 10 11  1  0
 11 12  2  0
 12  7  1  0
 12  4  1  0
 13  2  1  0
 14 13  2  0
 15 16  1  0
 16 17  2  0
 17 18  1  0
 19 20  1  0
 19 18  2  0
 21 20  1  6
 21 22  1  0
 21 23  1  0
 22 13  1  0
 23 27  1  0
 23 24  2  0
 25 19  1  0
 26 25  2  0
 26 16  1  0
 27 28  1  0
 28 29  1  1
 29 30  1  0
 30 35  1  0
 30 31  2  0
 31 32  1  0
 32 33  2  0
 34 33  1  0
 35 34  2  0
 36 28  1  0
 36 37  1  0
 38 36  2  0
M  END
$$$$
