WYF.pdb
     RDKit          3D

 38 41  0  0  1  0  0  0  0  0999 V2000
   25.1591  -20.9027  -19.3346 N   0  0  0  0  0  0  0  0  0  0  0  0
   24.2278  -20.3913  -18.3013 C   0  0  1  0  0  0  0  0  0  0  0  0
   23.0136  -19.9472  -19.0921 C   0  0  0  0  0  0  0  0  0  0  0  0
   23.2728  -18.7262  -19.8604 C   0  0  0  0  0  0  0  0  0  0  0  0
   23.7549  -18.6492  -21.1733 C   0  0  0  0  0  0  0  0  0  0  0  0
   23.8570  -17.3526  -21.4984 N   0  0  0  0  0  0  0  0  0  0  0  0
   23.4695  -16.5646  -20.4744 C   0  0  0  0  0  0  0  0  0  0  0  0
   23.3899  -15.1902  -20.3033 C   0  0  0  0  0  0  0  0  0  0  0  0
   22.9482  -14.6445  -19.1163 C   0  0  0  0  0  0  0  0  0  0  0  0
   22.5855  -15.4998  -18.0986 C   0  0  0  0  0  0  0  0  0  0  0  0
   22.6631  -16.8653  -18.2654 C   0  0  0  0  0  0  0  0  0  0  0  0
   23.1084  -17.4158  -19.4616 C   0  0  0  0  0  0  0  0  0  0  0  0
   23.8473  -21.5139  -17.4013 C   0  0  0  0  0  0  0  0  0  0  0  0
   23.5601  -22.6663  -17.8888 O   0  0  0  0  0  0  0  0  0  0  0  0
   28.9482  -24.9112  -17.1486 O   0  0  0  0  0  0  0  0  0  0  0  0
   27.8869  -24.3801  -16.4405 C   0  0  0  0  0  0  0  0  0  0  0  0
   27.7677  -23.0331  -16.1587 C   0  0  0  0  0  0  0  0  0  0  0  0
   26.6966  -22.5172  -15.4468 C   0  0  0  0  0  0  0  0  0  0  0  0
   25.6976  -23.3514  -14.9897 C   0  0  0  0  0  0  0  0  0  0  0  0
   24.5239  -22.9282  -14.2281 C   0  0  0  0  0  0  0  0  0  0  0  0
   23.3520  -22.4941  -15.1335 C   0  0  2  0  0  0  0  0  0  0  0  0
   23.7708  -21.4275  -15.9907 N   0  0  0  0  0  0  0  0  0  0  0  0
   22.2143  -22.1931  -14.2535 C   0  0  0  0  0  0  0  0  0  0  0  0
   22.0907  -21.2107  -13.5067 O   0  0  0  0  0  0  0  0  0  0  0  0
   25.8293  -24.7070  -15.2806 C   0  0  0  0  0  0  0  0  0  0  0  0
   26.8893  -25.2146  -15.9844 C   0  0  0  0  0  0  0  0  0  0  0  0
   21.1211  -23.1323  -14.2518 N   0  0  0  0  0  0  0  0  0  0  0  0
   19.9410  -22.8933  -13.4289 C   0  0  1  0  0  0  0  0  0  0  0  0
   19.2447  -21.6811  -14.0175 C   0  0  0  0  0  0  0  0  0  0  0  0
   17.9173  -21.4198  -13.4391 C   0  0  0  0  0  0  0  0  0  0  0  0
   17.7529  -20.8129  -12.2143 C   0  0  0  0  0  0  0  0  0  0  0  0
   16.5055  -20.5627  -11.6804 C   0  0  0  0  0  0  0  0  0  0  0  0
   15.3580  -20.9166  -12.3635 C   0  0  0  0  0  0  0  0  0  0  0  0
   15.5158  -21.5230  -13.5865 C   0  0  0  0  0  0  0  0  0  0  0  0
   16.7590  -21.7822  -14.1391 C   0  0  0  0  0  0  0  0  0  0  0  0
   19.0430  -24.0519  -13.5128 C   0  0  0  0  0  0  0  0  0  0  0  0
   18.2587  -24.4081  -12.4382 O   0  0  0  0  0  0  0  0  0  0  0  0
   18.9888  -24.7204  -14.5647 O   0  0  0  0  0  0  0  0  0  0  0  0
  2  1  1  6
  3  4  1  0
  3  2  1  0
  4  5  2  0
  6  5  1  0
  7  6  1  0
  8  7  2  0
  9  8  1  0
 10  9  2  0
 10 11  1  0
 11 12  2  0
 12  7  1  0
 12  4  1  0
 13  2  1  0
 14 13  2  0
 15 16  1  0
 16 17  2  0
 17 18  1  0
 19 20  1  0
 19 18  2  0
 21 20  1  1
 21 22  1  0
 21 23  1  0
 22 13  1  0
 23 27  1  0
 23 24  2  0
 25 19  1  0
 26 25  2  0
 26 16  1  0
 27 28  1  0
 28 29  1  6
 29 30  1  0
 30 35  1  0
 30 31  2  0
 31 32  1  0
 32 33  2  0
 34 33  1  0
 35 34  2  0
 36 28  1  0
 36 37  1  0
 38 36  2  0
M  END
$$$$
