WYF.pdb
     RDKit          3D

 38 41  0  0  1  0  0  0  0  0999 V2000
   22.6960  -18.9900  -14.4050 N   0  0  0  0  0  0  0  0  0  0  0  0
   23.5635  -19.9316  -15.1517 C   0  0  1  0  0  0  0  0  0  0  0  0
   23.0834  -19.8123  -16.5842 C   0  0  0  0  0  0  0  0  0  0  0  0
   21.7159  -20.3128  -16.7505 C   0  0  0  0  0  0  0  0  0  0  0  0
   20.5685  -19.5486  -16.9983 C   0  0  0  0  0  0  0  0  0  0  0  0
   19.5250  -20.3867  -17.0762 N   0  0  0  0  0  0  0  0  0  0  0  0
   19.9160  -21.6649  -16.8941 C   0  0  0  0  0  0  0  0  0  0  0  0
   19.2420  -22.8773  -16.8781 C   0  0  0  0  0  0  0  0  0  0  0  0
   19.9126  -24.0624  -16.6600 C   0  0  0  0  0  0  0  0  0  0  0  0
   21.2748  -24.0149  -16.4574 C   0  0  0  0  0  0  0  0  0  0  0  0
   21.9473  -22.8125  -16.4729 C   0  0  0  0  0  0  0  0  0  0  0  0
   21.2716  -21.6176  -16.6926 C   0  0  0  0  0  0  0  0  0  0  0  0
   24.9719  -19.4593  -15.0620 C   0  0  0  0  0  0  0  0  0  0  0  0
   25.3227  -18.3577  -15.6203 O   0  0  0  0  0  0  0  0  0  0  0  0
   24.6261  -20.3601   -8.8208 O   0  0  0  0  0  0  0  0  0  0  0  0
   25.4854  -20.2808   -9.9003 C   0  0  0  0  0  0  0  0  0  0  0  0
   26.0331  -21.3923  -10.5107 C   0  0  0  0  0  0  0  0  0  0  0  0
   26.8937  -21.2947  -11.5925 C   0  0  0  0  0  0  0  0  0  0  0  0
   27.2351  -20.0589  -12.1016 C   0  0  0  0  0  0  0  0  0  0  0  0
   28.1319  -19.8277  -13.2323 C   0  0  0  0  0  0  0  0  0  0  0  0
   27.4069  -19.9060  -14.5924 C   0  0  2  0  0  0  0  0  0  0  0  0
   26.0108  -20.1415  -14.3848 N   0  0  0  0  0  0  0  0  0  0  0  0
   28.1086  -20.9141  -15.3991 C   0  0  0  0  0  0  0  0  0  0  0  0
   28.3265  -22.0950  -15.0893 O   0  0  0  0  0  0  0  0  0  0  0  0
   26.6760  -18.9464  -11.4775 C   0  0  0  0  0  0  0  0  0  0  0  0
   25.8257  -19.0455  -10.4081 C   0  0  0  0  0  0  0  0  0  0  0  0
   28.5985  -20.4962  -16.6885 N   0  0  0  0  0  0  0  0  0  0  0  0
   28.7733  -21.4658  -17.7638 C   0  0  1  0  0  0  0  0  0  0  0  0
   27.3955  -22.0213  -18.0702 C   0  0  0  0  0  0  0  0  0  0  0  0
   26.9561  -23.0685  -17.1347 C   0  0  0  0  0  0  0  0  0  0  0  0
   27.5851  -24.2900  -17.0465 C   0  0  0  0  0  0  0  0  0  0  0  0
   27.1741  -25.2653  -16.1614 C   0  0  0  0  0  0  0  0  0  0  0  0
   26.1008  -25.0508  -15.3184 C   0  0  0  0  0  0  0  0  0  0  0  0
   25.4689  -23.8334  -15.4020 C   0  0  0  0  0  0  0  0  0  0  0  0
   25.8667  -22.8420  -16.2834 C   0  0  0  0  0  0  0  0  0  0  0  0
   29.2939  -20.7855  -18.9562 C   0  0  0  0  0  0  0  0  0  0  0  0
   29.0996  -19.4332  -19.1308 O   0  0  0  0  0  0  0  0  0  0  0  0
   29.9172  -21.4357  -19.8194 O   0  0  0  0  0  0  0  0  0  0  0  0
  2  1  1  1
  3  4  1  0
  3  2  1  0
  4  5  2  0
  6  5  1  0
  7  6  1  0
  8  7  2  0
  9  8  1  0
 10  9  2  0
 10 11  1  0
 11 12  2  0
 12  7  1  0
 12  4  1  0
 13  2  1  0
 14 13  2  0
 15 16  1  0
 16 17  2  0
 17 18  1  0
 19 20  1  0
 19 18  2  0
 21 20  1  1
 21 22  1  0
 21 23  1  0
 22 13  1  0
 23 27  1  0
 23 24  2  0
 25 19  1  0
 26 25  2  0
 26 16  1  0
 27 28  1  0
 28 29  1  6
 29 30  1  0
 30 35  1  0
 30 31  2  0
 31 32  1  0
 32 33  2  0
 34 33  1  0
 35 34  2  0
 36 28  1  0
 36 37  1  0
 38 36  2  0
M  END
$$$$
