WYF.pdb
     RDKit          3D

 38 41  0  0  1  0  0  0  0  0999 V2000
   26.8277  -26.0107  -19.2022 N   0  0  0  0  0  0  0  0  0  0  0  0
   25.9080  -26.4096  -18.1107 C   0  0  1  0  0  0  0  0  0  0  0  0
   26.4691  -25.7123  -16.8876 C   0  0  0  0  0  0  0  0  0  0  0  0
   27.8508  -26.1145  -16.6094 C   0  0  0  0  0  0  0  0  0  0  0  0
   28.3098  -27.4126  -16.3521 C   0  0  0  0  0  0  0  0  0  0  0  0
   29.6323  -27.3471  -16.1423 N   0  0  0  0  0  0  0  0  0  0  0  0
   30.0768  -26.0777  -16.2462 C   0  0  0  0  0  0  0  0  0  0  0  0
   31.3269  -25.4896  -16.1196 C   0  0  0  0  0  0  0  0  0  0  0  0
   31.4940  -24.1301  -16.2795 C   0  0  0  0  0  0  0  0  0  0  0  0
   30.3854  -23.3649  -16.5696 C   0  0  0  0  0  0  0  0  0  0  0  0
   29.1426  -23.9458  -16.6964 C   0  0  0  0  0  0  0  0  0  0  0  0
   28.9736  -25.3162  -16.5351 C   0  0  0  0  0  0  0  0  0  0  0  0
   24.5519  -25.8728  -18.4065 C   0  0  0  0  0  0  0  0  0  0  0  0
   24.4164  -24.7133  -18.9409 O   0  0  0  0  0  0  0  0  0  0  0  0
   15.8577  -25.4256  -20.0976 O   0  0  0  0  0  0  0  0  0  0  0  0
   17.1677  -25.8137  -19.8900 C   0  0  0  0  0  0  0  0  0  0  0  0
   18.1982  -25.4768  -20.7459 C   0  0  0  0  0  0  0  0  0  0  0  0
   19.5067  -25.8748  -20.5227 C   0  0  0  0  0  0  0  0  0  0  0  0
   19.8244  -26.6347  -19.4162 C   0  0  0  0  0  0  0  0  0  0  0  0
   21.1617  -27.1163  -19.0757 C   0  0  0  0  0  0  0  0  0  0  0  0
   22.0369  -26.0277  -18.4195 C   0  0  2  0  0  0  0  0  0  0  0  0
   23.3390  -26.5533  -18.1438 N   0  0  0  0  0  0  0  0  0  0  0  0
   21.2965  -25.5210  -17.2557 C   0  0  0  0  0  0  0  0  0  0  0  0
   21.1100  -26.1078  -16.1792 O   0  0  0  0  0  0  0  0  0  0  0  0
   18.7766  -26.9674  -18.5610 C   0  0  0  0  0  0  0  0  0  0  0  0
   17.4839  -26.5728  -18.7840 C   0  0  0  0  0  0  0  0  0  0  0  0
   20.7234  -24.2033  -17.3670 N   0  0  0  0  0  0  0  0  0  0  0  0
   20.0120  -23.6079  -16.2418 C   0  0  1  0  0  0  0  0  0  0  0  0
   20.4022  -22.1424  -16.2131 C   0  0  0  0  0  0  0  0  0  0  0  0
   20.0571  -21.4120  -17.4429 C   0  0  0  0  0  0  0  0  0  0  0  0
   18.8165  -20.8495  -17.6431 C   0  0  0  0  0  0  0  0  0  0  0  0
   18.5010  -20.1583  -18.7947 C   0  0  0  0  0  0  0  0  0  0  0  0
   19.4302  -20.0022  -19.8050 C   0  0  0  0  0  0  0  0  0  0  0  0
   20.6703  -20.5617  -19.6109 C   0  0  0  0  0  0  0  0  0  0  0  0
   21.0060  -21.2586  -18.4621 C   0  0  0  0  0  0  0  0  0  0  0  0
   18.5648  -23.7162  -16.4651 C   0  0  0  0  0  0  0  0  0  0  0  0
   18.0693  -23.9859  -17.7215 O   0  0  0  0  0  0  0  0  0  0  0  0
   17.7762  -23.5627  -15.5107 O   0  0  0  0  0  0  0  0  0  0  0  0
  2  1  1  6
  3  4  1  0
  3  2  1  0
  4  5  2  0
  6  5  1  0
  7  6  1  0
  8  7  2  0
  9  8  1  0
 10  9  2  0
 10 11  1  0
 11 12  2  0
 12  7  1  0
 12  4  1  0
 13  2  1  0
 14 13  2  0
 15 16  1  0
 16 17  2  0
 17 18  1  0
 19 20  1  0
 19 18  2  0
 21 20  1  1
 21 22  1  0
 21 23  1  0
 22 13  1  0
 23 27  1  0
 23 24  2  0
 25 19  1  0
 26 25  2  0
 26 16  1  0
 27 28  1  0
 28 29  1  6
 29 30  1  0
 30 35  1  0
 30 31  2  0
 31 32  1  0
 32 33  2  0
 34 33  1  0
 35 34  2  0
 36 28  1  0
 36 37  1  0
 38 36  2  0
M  END
$$$$
