WYF.pdb
     RDKit          3D

 38 41  0  0  1  0  0  0  0  0999 V2000
   21.1664  -17.4185  -18.8347 N   0  0  0  0  0  0  0  0  0  0  0  0
   22.4855  -17.9139  -18.3755 C   0  0  1  0  0  0  0  0  0  0  0  0
   23.3750  -16.6880  -18.4302 C   0  0  0  0  0  0  0  0  0  0  0  0
   23.8428  -16.4070  -19.7905 C   0  0  0  0  0  0  0  0  0  0  0  0
   23.7365  -15.1916  -20.4785 C   0  0  0  0  0  0  0  0  0  0  0  0
   24.2795  -15.3578  -21.6930 N   0  0  0  0  0  0  0  0  0  0  0  0
   24.7404  -16.6159  -21.8494 C   0  0  0  0  0  0  0  0  0  0  0  0
   25.3695  -17.2804  -22.8921 C   0  0  0  0  0  0  0  0  0  0  0  0
   25.7376  -18.6042  -22.7741 C   0  0  0  0  0  0  0  0  0  0  0  0
   25.4653  -19.2554  -21.5907 C   0  0  0  0  0  0  0  0  0  0  0  0
   24.8410  -18.5983  -20.5530 C   0  0  0  0  0  0  0  0  0  0  0  0
   24.4695  -17.2639  -20.6716 C   0  0  0  0  0  0  0  0  0  0  0  0
   22.3610  -18.3711  -16.9646 C   0  0  0  0  0  0  0  0  0  0  0  0
   21.8781  -17.5872  -16.0698 O   0  0  0  0  0  0  0  0  0  0  0  0
   16.2493  -19.9267  -15.7786 O   0  0  0  0  0  0  0  0  0  0  0  0
   17.5819  -20.2693  -15.6495 C   0  0  0  0  0  0  0  0  0  0  0  0
   18.3729  -20.6361  -16.7210 C   0  0  0  0  0  0  0  0  0  0  0  0
   19.7079  -20.9772  -16.5737 C   0  0  0  0  0  0  0  0  0  0  0  0
   20.2978  -20.9597  -15.3268 C   0  0  0  0  0  0  0  0  0  0  0  0
   21.6908  -21.3006  -15.0446 C   0  0  0  0  0  0  0  0  0  0  0  0
   22.6317  -20.0807  -15.1335 C   0  0  2  0  0  0  0  0  0  0  0  0
   22.7409  -19.6507  -16.4940 N   0  0  0  0  0  0  0  0  0  0  0  0
   23.8938  -20.4598  -14.4833 C   0  0  0  0  0  0  0  0  0  0  0  0
   24.8329  -21.0900  -14.9921 O   0  0  0  0  0  0  0  0  0  0  0  0
   19.4898  -20.5879  -14.2551 C   0  0  0  0  0  0  0  0  0  0  0  0
   18.1702  -20.2514  -14.4033 C   0  0  0  0  0  0  0  0  0  0  0  0
   24.0687  -20.0608  -13.1095 N   0  0  0  0  0  0  0  0  0  0  0  0
   25.3483  -20.2580  -12.4384 C   0  0  1  0  0  0  0  0  0  0  0  0
   25.2272  -19.5970  -11.0786 C   0  0  0  0  0  0  0  0  0  0  0  0
   24.2066  -20.2061  -10.2112 C   0  0  0  0  0  0  0  0  0  0  0  0
   24.5275  -21.0760   -9.1935 C   0  0  0  0  0  0  0  0  0  0  0  0
   23.5670  -21.6377   -8.3776 C   0  0  0  0  0  0  0  0  0  0  0  0
   22.2284  -21.3450   -8.5532 C   0  0  0  0  0  0  0  0  0  0  0  0
   21.9020  -20.4774   -9.5676 C   0  0  0  0  0  0  0  0  0  0  0  0
   22.8513  -19.9033  -10.3966 C   0  0  0  0  0  0  0  0  0  0  0  0
   25.5885  -21.6949  -12.2552 C   0  0  0  0  0  0  0  0  0  0  0  0
   26.8242  -22.1518  -11.8538 O   0  0  0  0  0  0  0  0  0  0  0  0
   24.6675  -22.5099  -12.4646 O   0  0  0  0  0  0  0  0  0  0  0  0
  2  1  1  1
  3  4  1  0
  3  2  1  0
  4  5  2  0
  6  5  1  0
  7  6  1  0
  8  7  2  0
  9  8  1  0
 10  9  2  0
 10 11  1  0
 11 12  2  0
 12  7  1  0
 12  4  1  0
 13  2  1  0
 14 13  2  0
 15 16  1  0
 16 17  2  0
 17 18  1  0
 19 20  1  0
 19 18  2  0
 21 20  1  6
 21 22  1  0
 21 23  1  0
 22 13  1  0
 23 27  1  0
 23 24  2  0
 25 19  1  0
 26 25  2  0
 26 16  1  0
 27 28  1  0
 28 29  1  1
 29 30  1  0
 30 35  1  0
 30 31  2  0
 31 32  1  0
 32 33  2  0
 34 33  1  0
 35 34  2  0
 36 28  1  0
 36 37  1  0
 38 36  2  0
M  END
$$$$
