WYF.pdb
     RDKit          3D

 38 41  0  0  1  0  0  0  0  0999 V2000
   16.2239  -26.3371    4.1451 N   0  0  0  0  0  0  0  0  0  0  0  0
   17.6852  -26.1086    4.2385 C   0  0  1  0  0  0  0  0  0  0  0  0
   17.9243  -24.9062    3.3475 C   0  0  0  0  0  0  0  0  0  0  0  0
   17.9511  -25.2692    1.9277 C   0  0  0  0  0  0  0  0  0  0  0  0
   16.8681  -25.2580    1.0396 C   0  0  0  0  0  0  0  0  0  0  0  0
   17.3141  -25.6634   -0.1580 N   0  0  0  0  0  0  0  0  0  0  0  0
   18.6330  -25.9429   -0.1143 C   0  0  0  0  0  0  0  0  0  0  0  0
   19.5473  -26.3882   -1.0579 C   0  0  0  0  0  0  0  0  0  0  0  0
   20.8693  -26.5970   -0.7257 C   0  0  0  0  0  0  0  0  0  0  0  0
   21.2640  -26.3517    0.5715 C   0  0  0  0  0  0  0  0  0  0  0  0
   20.3587  -25.9091    1.5110 C   0  0  0  0  0  0  0  0  0  0  0  0
   19.0258  -25.6986    1.1767 C   0  0  0  0  0  0  0  0  0  0  0  0
   18.0264  -25.7574    5.6439 C   0  0  0  0  0  0  0  0  0  0  0  0
   17.3199  -24.8999    6.2873 O   0  0  0  0  0  0  0  0  0  0  0  0
   16.6171  -31.4709    9.2193 O   0  0  0  0  0  0  0  0  0  0  0  0
   17.4582  -30.3845    9.0696 C   0  0  0  0  0  0  0  0  0  0  0  0
   17.4820  -29.3226    9.9526 C   0  0  0  0  0  0  0  0  0  0  0  0
   18.3319  -28.2406    9.7872 C   0  0  0  0  0  0  0  0  0  0  0  0
   19.1966  -28.1920    8.7136 C   0  0  0  0  0  0  0  0  0  0  0  0
   20.1347  -27.1073    8.4308 C   0  0  0  0  0  0  0  0  0  0  0  0
   19.4695  -25.9201    7.7031 C   0  0  2  0  0  0  0  0  0  0  0  0
   19.1069  -26.3075    6.3741 N   0  0  0  0  0  0  0  0  0  0  0  0
   20.3912  -24.7800    7.8038 C   0  0  0  0  0  0  0  0  0  0  0  0
   21.4959  -24.6652    7.2520 O   0  0  0  0  0  0  0  0  0  0  0  0
   19.1630  -29.2687    7.8310 C   0  0  0  0  0  0  0  0  0  0  0  0
   18.3218  -30.3371    7.9966 C   0  0  0  0  0  0  0  0  0  0  0  0
   19.9760  -23.6728    8.6278 N   0  0  0  0  0  0  0  0  0  0  0  0
   20.7848  -22.4616    8.7028 C   0  0  1  0  0  0  0  0  0  0  0  0
   19.8735  -21.3115    8.3187 C   0  0  0  0  0  0  0  0  0  0  0  0
   19.4199  -21.3551    6.9197 C   0  0  0  0  0  0  0  0  0  0  0  0
   20.2799  -21.1756    5.8596 C   0  0  0  0  0  0  0  0  0  0  0  0
   19.8506  -21.2260    4.5493 C   0  0  0  0  0  0  0  0  0  0  0  0
   18.5234  -21.4614    4.2467 C   0  0  0  0  0  0  0  0  0  0  0  0
   17.6602  -21.6411    5.3007 C   0  0  0  0  0  0  0  0  0  0  0  0
   18.0719  -21.5945    6.6222 C   0  0  0  0  0  0  0  0  0  0  0  0
   21.2489  -22.2677   10.0822 C   0  0  0  0  0  0  0  0  0  0  0  0
   20.7619  -23.0559   11.1013 O   0  0  0  0  0  0  0  0  0  0  0  0
   22.0907  -21.3826   10.3353 O   0  0  0  0  0  0  0  0  0  0  0  0
  2  1  1  1
  3  4  1  0
  3  2  1  0
  4  5  2  0
  6  5  1  0
  7  6  1  0
  8  7  2  0
  9  8  1  0
 10  9  2  0
 10 11  1  0
 11 12  2  0
 12  7  1  0
 12  4  1  0
 13  2  1  0
 14 13  2  0
 15 16  1  0
 16 17  2  0
 17 18  1  0
 19 20  1  0
 19 18  2  0
 21 20  1  6
 21 22  1  0
 21 23  1  0
 22 13  1  0
 23 27  1  0
 23 24  2  0
 25 19  1  0
 26 25  2  0
 26 16  1  0
 27 28  1  0
 28 29  1  1
 29 30  1  0
 30 35  1  0
 30 31  2  0
 31 32  1  0
 32 33  2  0
 34 33  1  0
 35 34  2  0
 36 28  1  0
 36 37  1  0
 38 36  2  0
M  END
$$$$
