HYV.pdb
     RDKit          3D

 30 31  0  0  1  0  0  0  0  0999 V2000
   26.1384  -19.5143  -15.6408 N   0  0  0  0  0  0  0  0  0  0  0  0
   27.0675  -19.3759  -14.5429 C   0  0  1  0  0  0  0  0  0  0  0  0
   27.9282  -18.1240  -14.6755 C   0  0  0  0  0  0  0  0  0  0  0  0
   28.6510  -18.1518  -15.9764 C   0  0  0  0  0  0  0  0  0  0  0  0
   28.3266  -17.3958  -17.0927 C   0  0  0  0  0  0  0  0  0  0  0  0
   29.2091  -17.6964  -18.0718 N   0  0  0  0  0  0  0  0  0  0  0  0
   30.0599  -18.6165  -17.5738 C   0  0  0  0  0  0  0  0  0  0  0  0
   29.7278  -18.9023  -16.2934 N   0  0  0  0  0  0  0  0  0  0  0  0
   26.3779  -19.3956  -13.2367 C   0  0  0  0  0  0  0  0  0  0  0  0
   25.7006  -18.4052  -12.8580 O   0  0  0  0  0  0  0  0  0  0  0  0
   20.2864  -20.2219  -14.4785 O   0  0  0  0  0  0  0  0  0  0  0  0
   21.3668  -20.5674  -13.6523 C   0  0  0  0  0  0  0  0  0  0  0  0
   21.4534  -20.1638  -12.3420 C   0  0  0  0  0  0  0  0  0  0  0  0
   22.4985  -20.4850  -11.5052 C   0  0  0  0  0  0  0  0  0  0  0  0
   23.5280  -21.2542  -11.9878 C   0  0  0  0  0  0  0  0  0  0  0  0
   24.6999  -21.6526  -11.1651 C   0  0  0  0  0  0  0  0  0  0  0  0
   25.7251  -20.5128  -11.1060 C   0  0  2  0  0  0  0  0  0  0  0  0
   26.4362  -20.4999  -12.3564 N   0  0  0  0  0  0  0  0  0  0  0  0
   26.5980  -20.7747   -9.9493 C   0  0  0  0  0  0  0  0  0  0  0  0
   27.5676  -21.5767  -10.0670 O   0  0  0  0  0  0  0  0  0  0  0  0
   23.4662  -21.6731  -13.3001 C   0  0  0  0  0  0  0  0  0  0  0  0
   22.4110  -21.3426  -14.1266 C   0  0  0  0  0  0  0  0  0  0  0  0
   28.9957  -19.5753   -5.9092 C   0  0  0  0  0  0  0  0  0  0  0  0
   28.0568  -19.2567   -7.0540 C   0  0  2  0  0  0  0  0  0  0  0  0
   27.1661  -18.1357   -6.6454 C   0  0  0  0  0  0  0  0  0  0  0  0
   27.3224  -20.4689   -7.5473 C   0  0  2  0  0  0  0  0  0  0  0  0
   26.4442  -20.1866   -8.6651 N   0  0  0  0  0  0  0  0  0  0  0  0
   26.4808  -21.0786   -6.4840 C   0  0  0  0  0  0  0  0  0  0  0  0
   25.2321  -21.0197   -6.5798 O   0  0  0  0  0  0  0  0  0  0  0  0
   27.0090  -21.7204   -5.3719 O   0  0  0  0  0  0  0  0  0  0  0  0
  2  1  1  6
  2  3  1  0
  3  4  1  0
  4  5  2  0
  5  6  1  0
  7  6  1  0
  8  4  1  0
  8  7  2  0
  9  2  1  0
  9 18  1  0
 10  9  2  0
 12 22  2  0
 12 11  1  0
 13 12  1  0
 14 13  2  0
 15 14  1  0
 15 21  2  0
 17 16  1  6
 16 15  1  0
 17 18  1  0
 19 17  1  0
 20 19  2  0
 21 22  1  0
 24 23  1  1
 24 26  1  0
 25 24  1  0
 26 27  1  6
 26 28  1  0
 27 19  1  0
 28 30  1  0
 29 28  2  0
M  END
$$$$
