HYV.pdb
     RDKit          3D

 30 31  0  0  1  0  0  0  0  0999 V2000
   27.6317  -34.6697  -16.6134 N   0  0  0  0  0  0  0  0  0  0  0  0
   27.7726  -33.8846  -15.4087 C   0  0  1  0  0  0  0  0  0  0  0  0
   27.6220  -32.3911  -15.6777 C   0  0  0  0  0  0  0  0  0  0  0  0
   28.8302  -31.8882  -16.3867 C   0  0  0  0  0  0  0  0  0  0  0  0
   29.9442  -32.6465  -16.7138 C   0  0  0  0  0  0  0  0  0  0  0  0
   30.8260  -31.8416  -17.3482 N   0  0  0  0  0  0  0  0  0  0  0  0
   30.2714  -30.6140  -17.4125 C   0  0  0  0  0  0  0  0  0  0  0  0
   29.0511  -30.6312  -16.8276 N   0  0  0  0  0  0  0  0  0  0  0  0
   26.8298  -34.3203  -14.3582 C   0  0  0  0  0  0  0  0  0  0  0  0
   25.6140  -34.5004  -14.6271 O   0  0  0  0  0  0  0  0  0  0  0  0
   24.0575  -39.6361  -15.7710 O   0  0  0  0  0  0  0  0  0  0  0  0
   24.6780  -38.8544  -14.7845 C   0  0  0  0  0  0  0  0  0  0  0  0
   26.0142  -38.5380  -14.8247 C   0  0  0  0  0  0  0  0  0  0  0  0
   26.6532  -37.7743  -13.8739 C   0  0  0  0  0  0  0  0  0  0  0  0
   25.9313  -37.2885  -12.8120 C   0  0  0  0  0  0  0  0  0  0  0  0
   26.5292  -36.4573  -11.7348 C   0  0  0  0  0  0  0  0  0  0  0  0
   26.2893  -34.9676  -12.0123 C   0  0  2  0  0  0  0  0  0  0  0  0
   27.2270  -34.5550  -13.0222 N   0  0  0  0  0  0  0  0  0  0  0  0
   26.4662  -34.2551  -10.7358 C   0  0  0  0  0  0  0  0  0  0  0  0
   27.6284  -33.9403  -10.3517 O   0  0  0  0  0  0  0  0  0  0  0  0
   24.5876  -37.5913  -12.7472 C   0  0  0  0  0  0  0  0  0  0  0  0
   23.9614  -38.3585  -13.7089 C   0  0  0  0  0  0  0  0  0  0  0  0
   23.1952  -33.0430   -8.0002 C   0  0  0  0  0  0  0  0  0  0  0  0
   24.4890  -32.2879   -8.2230 C   0  0  2  0  0  0  0  0  0  0  0  0
   24.2413  -31.1902   -9.1980 C   0  0  0  0  0  0  0  0  0  0  0  0
   25.6235  -33.1942   -8.6022 C   0  0  2  0  0  0  0  0  0  0  0  0
   25.4109  -33.8750   -9.8637 N   0  0  0  0  0  0  0  0  0  0  0  0
   25.8572  -34.2482   -7.5799 C   0  0  0  0  0  0  0  0  0  0  0  0
   25.3929  -35.3978   -7.7660 O   0  0  0  0  0  0  0  0  0  0  0  0
   26.5728  -34.0272   -6.4109 O   0  0  0  0  0  0  0  0  0  0  0  0
  2  1  1  6
  2  3  1  0
  3  4  1  0
  4  5  2  0
  5  6  1  0
  7  6  1  0
  8  4  1  0
  8  7  2  0
  9  2  1  0
  9 18  1  0
 10  9  2  0
 12 22  2  0
 12 11  1  0
 13 12  1  0
 14 13  2  0
 15 14  1  0
 15 21  2  0
 17 16  1  1
 16 15  1  0
 17 18  1  0
 19 17  1  0
 20 19  2  0
 21 22  1  0
 24 23  1  6
 24 26  1  0
 25 24  1  0
 26 27  1  6
 26 28  1  0
 27 19  1  0
 28 30  1  0
 29 28  2  0
M  END
$$$$
