HYV.pdb
     RDKit          3D

 30 31  0  0  1  0  0  0  0  0999 V2000
   17.4263  -14.6559  -16.0427 N   0  0  0  0  0  0  0  0  0  0  0  0
   18.4148  -14.4864  -17.0827 C   0  0  1  0  0  0  0  0  0  0  0  0
   17.9797  -15.1275  -18.3963 C   0  0  0  0  0  0  0  0  0  0  0  0
   17.6623  -16.5637  -18.1687 C   0  0  0  0  0  0  0  0  0  0  0  0
   18.5935  -17.5861  -18.0643 C   0  0  0  0  0  0  0  0  0  0  0  0
   17.9233  -18.7425  -17.8606 N   0  0  0  0  0  0  0  0  0  0  0  0
   16.6085  -18.4435  -17.8393 C   0  0  0  0  0  0  0  0  0  0  0  0
   16.4376  -17.1142  -18.0267 N   0  0  0  0  0  0  0  0  0  0  0  0
   18.7555  -13.0637  -17.2874 C   0  0  0  0  0  0  0  0  0  0  0  0
   19.6023  -12.7292  -18.1557 O   0  0  0  0  0  0  0  0  0  0  0  0
   18.4499   -4.2842  -17.5334 O   0  0  0  0  0  0  0  0  0  0  0  0
   18.1605   -5.6468  -17.3634 C   0  0  0  0  0  0  0  0  0  0  0  0
   18.2471   -6.5543  -18.3910 C   0  0  0  0  0  0  0  0  0  0  0  0
   17.9703   -7.8964  -18.2580 C   0  0  0  0  0  0  0  0  0  0  0  0
   17.5823   -8.3799  -17.0331 C   0  0  0  0  0  0  0  0  0  0  0  0
   17.2607   -9.8101  -16.7884 C   0  0  0  0  0  0  0  0  0  0  0  0
   18.5464  -10.6446  -16.7230 C   0  0  2  0  0  0  0  0  0  0  0  0
   18.1656  -12.0196  -16.5394 N   0  0  0  0  0  0  0  0  0  0  0  0
   19.3502  -10.1154  -15.6085 C   0  0  0  0  0  0  0  0  0  0  0  0
   18.9846  -10.3289  -14.4177 O   0  0  0  0  0  0  0  0  0  0  0  0
   17.4873   -7.4902  -15.9840 C   0  0  0  0  0  0  0  0  0  0  0  0
   17.7684   -6.1469  -16.1336 C   0  0  0  0  0  0  0  0  0  0  0  0
   23.5783   -9.0271  -15.7737 C   0  0  0  0  0  0  0  0  0  0  0  0
   22.7238   -9.5134  -14.6217 C   0  0  2  0  0  0  0  0  0  0  0  0
   22.7324  -11.0022  -14.6138 C   0  0  0  0  0  0  0  0  0  0  0  0
   21.3486   -8.9127  -14.6349 C   0  0  2  0  0  0  0  0  0  0  0  0
   20.5436   -9.3583  -15.7546 N   0  0  0  0  0  0  0  0  0  0  0  0
   21.3922   -7.4280  -14.7017 C   0  0  0  0  0  0  0  0  0  0  0  0
   21.1654   -6.8556  -15.7938 O   0  0  0  0  0  0  0  0  0  0  0  0
   21.6748   -6.6263  -13.6041 O   0  0  0  0  0  0  0  0  0  0  0  0
  2  1  1  1
  2  3  1  0
  3  4  1  0
  4  5  2  0
  5  6  1  0
  7  6  1  0
  8  4  1  0
  8  7  2  0
  9  2  1  0
  9 18  1  0
 10  9  2  0
 12 22  2  0
 12 11  1  0
 13 12  1  0
 14 13  2  0
 15 14  1  0
 15 21  2  0
 17 16  1  1
 16 15  1  0
 17 18  1  0
 19 17  1  0
 20 19  2  0
 21 22  1  0
 24 23  1  6
 24 26  1  0
 25 24  1  0
 26 27  1  6
 26 28  1  0
 27 19  1  0
 28 30  1  0
 29 28  2  0
M  END
$$$$
