HYV.pdb
     RDKit          3D

 30 31  0  0  1  0  0  0  0  0999 V2000
   22.4770  -16.7803  -18.4993 N   0  0  0  0  0  0  0  0  0  0  0  0
   23.6505  -17.5026  -18.0650 C   0  0  1  0  0  0  0  0  0  0  0  0
   24.9287  -16.6977  -18.2753 C   0  0  0  0  0  0  0  0  0  0  0  0
   25.1686  -16.5155  -19.7329 C   0  0  0  0  0  0  0  0  0  0  0  0
   25.2410  -15.2961  -20.3894 C   0  0  0  0  0  0  0  0  0  0  0  0
   25.4693  -15.5398  -21.6995 N   0  0  0  0  0  0  0  0  0  0  0  0
   25.5367  -16.8782  -21.8508 C   0  0  0  0  0  0  0  0  0  0  0  0
   25.3542  -17.4844  -20.6547 N   0  0  0  0  0  0  0  0  0  0  0  0
   23.5363  -17.9367  -16.6577 C   0  0  0  0  0  0  0  0  0  0  0  0
   23.5008  -17.0883  -15.7293 O   0  0  0  0  0  0  0  0  0  0  0  0
   17.4164  -17.2192  -14.9120 O   0  0  0  0  0  0  0  0  0  0  0  0
   18.5582  -18.0338  -14.8680 C   0  0  0  0  0  0  0  0  0  0  0  0
   19.2993  -18.2060  -13.7242 C   0  0  0  0  0  0  0  0  0  0  0  0
   20.4235  -18.9971  -13.6472 C   0  0  0  0  0  0  0  0  0  0  0  0
   20.8486  -19.6640  -14.7693 C   0  0  0  0  0  0  0  0  0  0  0  0
   22.0494  -20.5396  -14.7885 C   0  0  0  0  0  0  0  0  0  0  0  0
   23.3256  -19.6959  -14.9041 C   0  0  2  0  0  0  0  0  0  0  0  0
   23.4619  -19.2965  -16.2793 N   0  0  0  0  0  0  0  0  0  0  0  0
   24.4422  -20.5326  -14.4335 C   0  0  0  0  0  0  0  0  0  0  0  0
   24.8034  -21.5338  -15.1150 O   0  0  0  0  0  0  0  0  0  0  0  0
   20.1228  -19.5088  -15.9314 C   0  0  0  0  0  0  0  0  0  0  0  0
   18.9973  -18.7117  -15.9922 C   0  0  0  0  0  0  0  0  0  0  0  0
   27.5417  -19.2062  -11.7742 C   0  0  0  0  0  0  0  0  0  0  0  0
   27.5968  -20.3368  -12.7803 C   0  0  2  0  0  0  0  0  0  0  0  0
   28.0308  -19.7881  -14.0946 C   0  0  0  0  0  0  0  0  0  0  0  0
   26.3147  -21.1147  -12.8389 C   0  0  2  0  0  0  0  0  0  0  0  0
   25.1782  -20.3094  -13.2388 N   0  0  0  0  0  0  0  0  0  0  0  0
   25.9714  -21.7184  -11.5242 C   0  0  0  0  0  0  0  0  0  0  0  0
   24.9989  -21.2653  -10.8757 O   0  0  0  0  0  0  0  0  0  0  0  0
   26.6793  -22.7737  -10.9649 O   0  0  0  0  0  0  0  0  0  0  0  0
  2  1  1  1
  2  3  1  0
  3  4  1  0
  4  5  2  0
  5  6  1  0
  7  6  1  0
  8  4  1  0
  8  7  2  0
  9  2  1  0
  9 18  1  0
 10  9  2  0
 12 22  2  0
 12 11  1  0
 13 12  1  0
 14 13  2  0
 15 14  1  0
 15 21  2  0
 17 16  1  6
 16 15  1  0
 17 18  1  0
 19 17  1  0
 20 19  2  0
 21 22  1  0
 24 23  1  1
 24 26  1  0
 25 24  1  0
 26 27  1  1
 26 28  1  0
 27 19  1  0
 28 30  1  0
 29 28  2  0
M  END
$$$$
