HYV.pdb
     RDKit          3D

 30 31  0  0  1  0  0  0  0  0999 V2000
   20.9918  -11.2835  -17.6110 N   0  0  0  0  0  0  0  0  0  0  0  0
   21.0961   -9.8442  -17.6812 C   0  0  1  0  0  0  0  0  0  0  0  0
   20.4960   -9.2887  -18.9686 C   0  0  0  0  0  0  0  0  0  0  0  0
   21.2589   -9.8056  -20.1374 C   0  0  0  0  0  0  0  0  0  0  0  0
   20.9946  -10.9891  -20.8102 C   0  0  0  0  0  0  0  0  0  0  0  0
   21.8982  -11.1131  -21.8082 N   0  0  0  0  0  0  0  0  0  0  0  0
   22.7029  -10.0323  -21.7548 C   0  0  0  0  0  0  0  0  0  0  0  0
   22.3210   -9.2264  -20.7370 N   0  0  0  0  0  0  0  0  0  0  0  0
   20.4885   -9.1933  -16.5025 C   0  0  0  0  0  0  0  0  0  0  0  0
   19.4293   -9.6479  -15.9982 O   0  0  0  0  0  0  0  0  0  0  0  0
   19.3031   -5.0412   -8.9176 O   0  0  0  0  0  0  0  0  0  0  0  0
   19.8556   -5.5256  -10.1131 C   0  0  0  0  0  0  0  0  0  0  0  0
   20.2199   -4.6980  -11.1473 C   0  0  0  0  0  0  0  0  0  0  0  0
   20.7640   -5.1405  -12.3321 C   0  0  0  0  0  0  0  0  0  0  0  0
   20.9637   -6.4865  -12.5136 C   0  0  0  0  0  0  0  0  0  0  0  0
   21.5426   -7.0622  -13.7555 C   0  0  0  0  0  0  0  0  0  0  0  0
   20.4297   -7.4239  -14.7476 C   0  0  2  0  0  0  0  0  0  0  0  0
   21.0464   -8.0502  -15.8863 N   0  0  0  0  0  0  0  0  0  0  0  0
   19.7285   -6.1741  -15.0866 C   0  0  0  0  0  0  0  0  0  0  0  0
   20.3207   -5.2908  -15.7695 O   0  0  0  0  0  0  0  0  0  0  0  0
   20.6067   -7.3399  -11.4910 C   0  0  0  0  0  0  0  0  0  0  0  0
   20.0622   -6.8804  -10.3086 C   0  0  0  0  0  0  0  0  0  0  0  0
   15.4721   -5.6942  -15.0697 C   0  0  0  0  0  0  0  0  0  0  0  0
   16.4620   -4.8300  -15.8226 C   0  0  2  0  0  0  0  0  0  0  0  0
   16.6613   -5.4030  -17.1823 C   0  0  0  0  0  0  0  0  0  0  0  0
   17.7362   -4.6192  -15.0583 C   0  0  2  0  0  0  0  0  0  0  0  0
   18.3977   -5.8584  -14.7019 N   0  0  0  0  0  0  0  0  0  0  0  0
   17.5068   -3.8756  -13.7913 C   0  0  0  0  0  0  0  0  0  0  0  0
   17.3197   -2.6366  -13.8318 O   0  0  0  0  0  0  0  0  0  0  0  0
   17.4879   -4.4866  -12.5448 O   0  0  0  0  0  0  0  0  0  0  0  0
  2  1  1  1
  2  3  1  0
  3  4  1  0
  4  5  2  0
  5  6  1  0
  7  6  1  0
  8  4  1  0
  8  7  2  0
  9  2  1  0
  9 18  1  0
 10  9  2  0
 12 22  2  0
 12 11  1  0
 13 12  1  0
 14 13  2  0
 15 14  1  0
 15 21  2  0
 17 16  1  1
 16 15  1  0
 17 18  1  0
 19 17  1  0
 20 19  2  0
 21 22  1  0
 24 23  1  1
 24 26  1  0
 25 24  1  0
 26 27  1  1
 26 28  1  0
 27 19  1  0
 28 30  1  0
 29 28  2  0
M  END
$$$$
