HYV.pdb
     RDKit          3D

 30 31  0  0  1  0  0  0  0  0999 V2000
   27.9928  -22.3614  -17.7835 N   0  0  0  0  0  0  0  0  0  0  0  0
   27.5350  -21.1380  -17.1661 C   0  0  1  0  0  0  0  0  0  0  0  0
   26.6480  -20.3221  -18.1005 C   0  0  0  0  0  0  0  0  0  0  0  0
   27.4680  -19.7785  -19.2174 C   0  0  0  0  0  0  0  0  0  0  0  0
   28.5688  -18.9470  -19.0760 C   0  0  0  0  0  0  0  0  0  0  0  0
   29.0436  -18.6686  -20.3109 N   0  0  0  0  0  0  0  0  0  0  0  0
   28.2558  -19.3124  -21.1960 C   0  0  0  0  0  0  0  0  0  0  0  0
   27.2893  -19.9940  -20.5383 N   0  0  0  0  0  0  0  0  0  0  0  0
   26.8423  -21.3963  -15.8872 C   0  0  0  0  0  0  0  0  0  0  0  0
   25.9251  -22.2549  -15.8208 O   0  0  0  0  0  0  0  0  0  0  0  0
   24.4975  -20.8030   -7.3546 O   0  0  0  0  0  0  0  0  0  0  0  0
   25.1706  -20.6841   -8.5802 C   0  0  0  0  0  0  0  0  0  0  0  0
   25.7785  -21.7512   -9.1957 C   0  0  0  0  0  0  0  0  0  0  0  0
   26.4464  -21.6687  -10.3969 C   0  0  0  0  0  0  0  0  0  0  0  0
   26.5224  -20.4565  -11.0367 C   0  0  0  0  0  0  0  0  0  0  0  0
   27.2210  -20.2645  -12.3344 C   0  0  0  0  0  0  0  0  0  0  0  0
   26.4468  -20.9525  -13.4663 C   0  0  2  0  0  0  0  0  0  0  0  0
   27.1602  -20.7119  -14.6921 N   0  0  0  0  0  0  0  0  0  0  0  0
   25.0880  -20.3849  -13.4692 C   0  0  0  0  0  0  0  0  0  0  0  0
   24.9095  -19.1930  -13.8498 O   0  0  0  0  0  0  0  0  0  0  0  0
   25.9204  -19.3685  -10.4406 C   0  0  0  0  0  0  0  0  0  0  0  0
   25.2542  -19.4677   -9.2355 C   0  0  0  0  0  0  0  0  0  0  0  0
   20.4032  -20.5607  -14.4363 C   0  0  0  0  0  0  0  0  0  0  0  0
   21.8039  -21.1272  -14.3328 C   0  0  2  0  0  0  0  0  0  0  0  0
   21.7183  -22.6131  -14.2940 C   0  0  0  0  0  0  0  0  0  0  0  0
   22.5799  -20.5323  -13.1943 C   0  0  2  0  0  0  0  0  0  0  0  0
   23.9157  -21.0802  -13.0683 N   0  0  0  0  0  0  0  0  0  0  0  0
   21.9027  -20.7482  -11.8884 C   0  0  0  0  0  0  0  0  0  0  0  0
   22.2769  -21.6906  -11.1511 O   0  0  0  0  0  0  0  0  0  0  0  0
   20.8615  -19.9514  -11.4319 O   0  0  0  0  0  0  0  0  0  0  0  0
  2  1  1  6
  2  3  1  0
  3  4  1  0
  4  5  2  0
  5  6  1  0
  7  6  1  0
  8  4  1  0
  8  7  2  0
  9  2  1  0
  9 18  1  0
 10  9  2  0
 12 22  2  0
 12 11  1  0
 13 12  1  0
 14 13  2  0
 15 14  1  0
 15 21  2  0
 17 16  1  1
 16 15  1  0
 17 18  1  0
 19 17  1  0
 20 19  2  0
 21 22  1  0
 24 23  1  1
 24 26  1  0
 25 24  1  0
 26 27  1  1
 26 28  1  0
 27 19  1  0
 28 30  1  0
 29 28  2  0
M  END
$$$$
