HYV.pdb
     RDKit          3D

 30 31  0  0  1  0  0  0  0  0999 V2000
   26.3037  -20.7982  -19.3149 N   0  0  0  0  0  0  0  0  0  0  0  0
   26.0204  -19.7374  -18.3758 C   0  0  1  0  0  0  0  0  0  0  0  0
   24.8795  -18.8431  -18.8492 C   0  0  0  0  0  0  0  0  0  0  0  0
   25.4101  -17.8078  -19.7776 C   0  0  0  0  0  0  0  0  0  0  0  0
   25.2638  -17.8137  -21.1566 C   0  0  0  0  0  0  0  0  0  0  0  0
   25.8791  -16.7142  -21.6468 N   0  0  0  0  0  0  0  0  0  0  0  0
   26.3941  -16.0432  -20.5965 C   0  0  0  0  0  0  0  0  0  0  0  0
   26.1133  -16.7030  -19.4489 N   0  0  0  0  0  0  0  0  0  0  0  0
   25.7408  -20.2634  -17.0240 C   0  0  0  0  0  0  0  0  0  0  0  0
   25.0089  -21.2755  -16.8723 O   0  0  0  0  0  0  0  0  0  0  0  0
   25.4367  -20.8810   -8.1928 O   0  0  0  0  0  0  0  0  0  0  0  0
   25.8043  -20.5669   -9.5102 C   0  0  0  0  0  0  0  0  0  0  0  0
   26.5390  -21.4214  -10.2959 C   0  0  0  0  0  0  0  0  0  0  0  0
   26.9160  -21.1441  -11.5907 C   0  0  0  0  0  0  0  0  0  0  0  0
   26.5466  -19.9469  -12.1518 C   0  0  0  0  0  0  0  0  0  0  0  0
   26.9053  -19.5545  -13.5397 C   0  0  0  0  0  0  0  0  0  0  0  0
   25.9019  -20.1441  -14.5393 C   0  0  2  0  0  0  0  0  0  0  0  0
   26.2654  -19.6764  -15.8502 N   0  0  0  0  0  0  0  0  0  0  0  0
   24.5616  -19.7010  -14.1203 C   0  0  0  0  0  0  0  0  0  0  0  0
   24.2317  -18.4891  -14.2608 O   0  0  0  0  0  0  0  0  0  0  0  0
   25.8084  -19.0703  -11.3849 C   0  0  0  0  0  0  0  0  0  0  0  0
   25.4381  -19.3633  -10.0876 C   0  0  0  0  0  0  0  0  0  0  0  0
   20.9320  -21.7504  -14.3561 C   0  0  0  0  0  0  0  0  0  0  0  0
   21.1789  -20.2812  -14.0838 C   0  0  2  0  0  0  0  0  0  0  0  0
   21.3860  -19.5815  -15.3817 C   0  0  0  0  0  0  0  0  0  0  0  0
   22.2816  -20.0599  -13.0903 C   0  0  2  0  0  0  0  0  0  0  0  0
   23.5681  -20.5423  -13.5510 N   0  0  0  0  0  0  0  0  0  0  0  0
   22.0072  -20.7388  -11.7963 C   0  0  0  0  0  0  0  0  0  0  0  0
   21.0644  -20.3318  -11.0771 O   0  0  0  0  0  0  0  0  0  0  0  0
   22.7491  -21.8164  -11.3317 O   0  0  0  0  0  0  0  0  0  0  0  0
  2  1  1  6
  2  3  1  0
  3  4  1  0
  4  5  2  0
  5  6  1  0
  7  6  1  0
  8  4  1  0
  8  7  2  0
  9  2  1  0
  9 18  1  0
 10  9  2  0
 12 22  2  0
 12 11  1  0
 13 12  1  0
 14 13  2  0
 15 14  1  0
 15 21  2  0
 17 16  1  1
 16 15  1  0
 17 18  1  0
 19 17  1  0
 20 19  2  0
 21 22  1  0
 24 23  1  6
 24 26  1  0
 25 24  1  0
 26 27  1  6
 26 28  1  0
 27 19  1  0
 28 30  1  0
 29 28  2  0
M  END
$$$$
