HYV.pdb
     RDKit          3D

 30 31  0  0  1  0  0  0  0  0999 V2000
   29.0909  -22.4412  -18.0918 N   0  0  0  0  0  0  0  0  0  0  0  0
   28.3674  -21.2666  -17.6624 C   0  0  1  0  0  0  0  0  0  0  0  0
   27.4769  -20.7069  -18.7667 C   0  0  0  0  0  0  0  0  0  0  0  0
   28.3230  -20.2205  -19.8905 C   0  0  0  0  0  0  0  0  0  0  0  0
   28.8408  -18.9397  -20.0111 C   0  0  0  0  0  0  0  0  0  0  0  0
   29.5521  -18.8829  -21.1594 N   0  0  0  0  0  0  0  0  0  0  0  0
   29.4768  -20.0996  -21.7362 C   0  0  0  0  0  0  0  0  0  0  0  0
   28.7277  -20.9250  -20.9689 N   0  0  0  0  0  0  0  0  0  0  0  0
   27.5782  -21.5261  -16.4409 C   0  0  0  0  0  0  0  0  0  0  0  0
   26.6966  -22.4236  -16.4299 O   0  0  0  0  0  0  0  0  0  0  0  0
   24.2164  -20.5168   -8.2967 O   0  0  0  0  0  0  0  0  0  0  0  0
   25.0429  -20.4727   -9.4300 C   0  0  0  0  0  0  0  0  0  0  0  0
   25.7269  -21.5722   -9.8887 C   0  0  0  0  0  0  0  0  0  0  0  0
   26.5450  -21.5628  -10.9961 C   0  0  0  0  0  0  0  0  0  0  0  0
   26.7021  -20.3949  -11.7003 C   0  0  0  0  0  0  0  0  0  0  0  0
   27.5632  -20.2824  -12.9064 C   0  0  0  0  0  0  0  0  0  0  0  0
   26.9118  -20.9963  -14.0980 C   0  0  2  0  0  0  0  0  0  0  0  0
   27.7614  -20.8002  -15.2421 N   0  0  0  0  0  0  0  0  0  0  0  0
   25.5697  -20.4153  -14.2703 C   0  0  0  0  0  0  0  0  0  0  0  0
   25.4496  -19.2487  -14.7415 O   0  0  0  0  0  0  0  0  0  0  0  0
   26.0266  -19.2758  -11.2613 C   0  0  0  0  0  0  0  0  0  0  0  0
   25.2096  -19.3016  -10.1488 C   0  0  0  0  0  0  0  0  0  0  0  0
   23.0530  -20.8023  -16.6121 C   0  0  0  0  0  0  0  0  0  0  0  0
   22.3066  -21.0182  -15.3120 C   0  0  2  0  0  0  0  0  0  0  0  0
   20.9236  -20.4868  -15.4596 C   0  0  0  0  0  0  0  0  0  0  0  0
   23.0469  -20.4682  -14.1281 C   0  0  2  0  0  0  0  0  0  0  0  0
   24.3521  -21.0702  -13.9431 N   0  0  0  0  0  0  0  0  0  0  0  0
   22.2967  -20.6725  -12.8607 C   0  0  0  0  0  0  0  0  0  0  0  0
   22.2791  -21.8102  -12.3342 O   0  0  0  0  0  0  0  0  0  0  0  0
   21.6026  -19.6571  -12.2168 O   0  0  0  0  0  0  0  0  0  0  0  0
  2  1  1  6
  2  3  1  0
  3  4  1  0
  4  5  2  0
  5  6  1  0
  7  6  1  0
  8  4  1  0
  8  7  2  0
  9  2  1  0
  9 18  1  0
 10  9  2  0
 12 22  2  0
 12 11  1  0
 13 12  1  0
 14 13  2  0
 15 14  1  0
 15 21  2  0
 17 16  1  1
 16 15  1  0
 17 18  1  0
 19 17  1  0
 20 19  2  0
 21 22  1  0
 24 23  1  6
 24 26  1  0
 25 24  1  0
 26 27  1  1
 26 28  1  0
 27 19  1  0
 28 30  1  0
 29 28  2  0
M  END
$$$$
