HYV.pdb
     RDKit          3D

 30 31  0  0  1  0  0  0  0  0999 V2000
   26.2366  -20.0014  -19.2129 N   0  0  0  0  0  0  0  0  0  0  0  0
   25.8766  -19.1167  -18.1289 C   0  0  1  0  0  0  0  0  0  0  0  0
   24.7344  -18.1806  -18.5091 C   0  0  0  0  0  0  0  0  0  0  0  0
   25.2087  -17.2032  -19.5265 C   0  0  0  0  0  0  0  0  0  0  0  0
   25.8508  -16.0050  -19.2522 C   0  0  0  0  0  0  0  0  0  0  0  0
   26.1235  -15.3981  -20.4292 N   0  0  0  0  0  0  0  0  0  0  0  0
   25.6614  -16.2013  -21.4090 C   0  0  0  0  0  0  0  0  0  0  0  0
   25.1002  -17.3076  -20.8683 N   0  0  0  0  0  0  0  0  0  0  0  0
   25.5469  -19.8647  -16.8985 C   0  0  0  0  0  0  0  0  0  0  0  0
   24.7295  -20.8206  -16.9329 O   0  0  0  0  0  0  0  0  0  0  0  0
   24.5583  -21.4454   -8.2323 O   0  0  0  0  0  0  0  0  0  0  0  0
   25.0444  -21.0170   -9.4771 C   0  0  0  0  0  0  0  0  0  0  0  0
   25.6217  -21.8763  -10.3801 C   0  0  0  0  0  0  0  0  0  0  0  0
   26.1083  -21.4889  -11.6085 C   0  0  0  0  0  0  0  0  0  0  0  0
   26.0222  -20.1687  -11.9746 C   0  0  0  0  0  0  0  0  0  0  0  0
   26.5192  -19.6520  -13.2765 C   0  0  0  0  0  0  0  0  0  0  0  0
   25.6517  -20.1774  -14.4276 C   0  0  2  0  0  0  0  0  0  0  0  0
   26.1154  -19.5594  -15.6410 N   0  0  0  0  0  0  0  0  0  0  0  0
   24.2548  -19.8403  -14.1062 C   0  0  0  0  0  0  0  0  0  0  0  0
   23.8870  -18.6311  -14.1100 O   0  0  0  0  0  0  0  0  0  0  0  0
   25.4470  -19.2844  -11.0865 C   0  0  0  0  0  0  0  0  0  0  0  0
   24.9636  -19.6887   -9.8582 C   0  0  0  0  0  0  0  0  0  0  0  0
   21.0731  -20.2713  -15.7973 C   0  0  0  0  0  0  0  0  0  0  0  0
   20.8724  -20.8893  -14.4293 C   0  0  2  0  0  0  0  0  0  0  0  0
   19.4618  -20.6698  -14.0065 C   0  0  0  0  0  0  0  0  0  0  0  0
   21.8878  -20.4144  -13.4314 C   0  0  2  0  0  0  0  0  0  0  0  0
   23.2448  -20.7848  -13.7800 N   0  0  0  0  0  0  0  0  0  0  0  0
   21.6291  -20.9616  -12.0733 C   0  0  0  0  0  0  0  0  0  0  0  0
   21.0082  -20.2630  -11.2378 O   0  0  0  0  0  0  0  0  0  0  0  0
   22.0439  -22.2242  -11.6716 O   0  0  0  0  0  0  0  0  0  0  0  0
  2  1  1  6
  2  3  1  0
  3  4  1  0
  4  5  2  0
  5  6  1  0
  7  6  1  0
  8  4  1  0
  8  7  2  0
  9  2  1  0
  9 18  1  0
 10  9  2  0
 12 22  2  0
 12 11  1  0
 13 12  1  0
 14 13  2  0
 15 14  1  0
 15 21  2  0
 17 16  1  1
 16 15  1  0
 17 18  1  0
 19 17  1  0
 20 19  2  0
 21 22  1  0
 24 23  1  6
 24 26  1  0
 25 24  1  0
 26 27  1  6
 26 28  1  0
 27 19  1  0
 28 30  1  0
 29 28  2  0
M  END
$$$$
