HYV.pdb
     RDKit          3D

 30 31  0  0  1  0  0  0  0  0999 V2000
   28.1882  -20.8207  -19.0638 N   0  0  0  0  0  0  0  0  0  0  0  0
   27.9160  -19.7792  -18.1001 C   0  0  1  0  0  0  0  0  0  0  0  0
   27.2000  -18.5891  -18.7301 C   0  0  0  0  0  0  0  0  0  0  0  0
   28.1676  -17.7946  -19.5351 C   0  0  0  0  0  0  0  0  0  0  0  0
   28.8689  -16.6863  -19.0847 C   0  0  0  0  0  0  0  0  0  0  0  0
   29.6433  -16.2411  -20.0996 N   0  0  0  0  0  0  0  0  0  0  0  0
   29.4268  -17.0543  -21.1534 C   0  0  0  0  0  0  0  0  0  0  0  0
   28.5263  -18.0076  -20.8192 N   0  0  0  0  0  0  0  0  0  0  0  0
   27.1535  -20.2902  -16.9427 C   0  0  0  0  0  0  0  0  0  0  0  0
   26.2971  -21.1993  -17.0943 O   0  0  0  0  0  0  0  0  0  0  0  0
   24.2121  -21.4080   -8.6664 O   0  0  0  0  0  0  0  0  0  0  0  0
   24.9648  -21.0351   -9.7906 C   0  0  0  0  0  0  0  0  0  0  0  0
   25.8344  -21.8953  -10.4159 C   0  0  0  0  0  0  0  0  0  0  0  0
   26.5870  -21.5614  -11.5194 C   0  0  0  0  0  0  0  0  0  0  0  0
   26.4784  -20.2975  -12.0442 C   0  0  0  0  0  0  0  0  0  0  0  0
   27.2482  -19.8409  -13.2306 C   0  0  0  0  0  0  0  0  0  0  0  0
   26.5506  -20.2818  -14.5239 C   0  0  2  0  0  0  0  0  0  0  0  0
   27.3358  -19.8010  -15.6292 N   0  0  0  0  0  0  0  0  0  0  0  0
   25.1900  -19.7195  -14.4957 C   0  0  0  0  0  0  0  0  0  0  0  0
   25.0280  -18.4701  -14.5956 O   0  0  0  0  0  0  0  0  0  0  0  0
   25.6124  -19.4137  -11.4356 C   0  0  0  0  0  0  0  0  0  0  0  0
   24.8644  -19.7640  -10.3294 C   0  0  0  0  0  0  0  0  0  0  0  0
   21.6808  -21.5217  -15.9102 C   0  0  0  0  0  0  0  0  0  0  0  0
   21.8837  -20.0644  -15.5511 C   0  0  2  0  0  0  0  0  0  0  0  0
   22.4584  -19.3564  -16.7281 C   0  0  0  0  0  0  0  0  0  0  0  0
   22.6768  -19.8902  -14.2891 C   0  0  2  0  0  0  0  0  0  0  0  0
   23.9981  -20.4811  -14.3611 N   0  0  0  0  0  0  0  0  0  0  0  0
   21.9965  -20.5021  -13.1172 C   0  0  0  0  0  0  0  0  0  0  0  0
   22.3452  -21.6429  -12.7314 O   0  0  0  0  0  0  0  0  0  0  0  0
   20.9794  -19.8706  -12.4143 O   0  0  0  0  0  0  0  0  0  0  0  0
  2  1  1  6
  2  3  1  0
  3  4  1  0
  4  5  2  0
  5  6  1  0
  7  6  1  0
  8  4  1  0
  8  7  2  0
  9  2  1  0
  9 18  1  0
 10  9  2  0
 12 22  2  0
 12 11  1  0
 13 12  1  0
 14 13  2  0
 15 14  1  0
 15 21  2  0
 17 16  1  1
 16 15  1  0
 17 18  1  0
 19 17  1  0
 20 19  2  0
 21 22  1  0
 24 23  1  6
 24 26  1  0
 25 24  1  0
 26 27  1  6
 26 28  1  0
 27 19  1  0
 28 30  1  0
 29 28  2  0
M  END
$$$$
