DTE.pdb
     RDKit          3D

 25 24  0  0  1  0  0  0  0  0999 V2000
   15.8695  -12.0834  -15.5400 N   0  0  0  0  0  0  0  0  0  0  0  0
   17.2374  -11.7428  -15.2067 C   0  0  1  0  0  0  0  0  0  0  0  0
   18.1507  -12.3833  -16.2273 C   0  0  0  0  0  0  0  0  0  0  0  0
   18.1648  -13.8521  -16.0193 C   0  0  0  0  0  0  0  0  0  0  0  0
   17.7490  -14.3353  -14.9332 O   0  0  0  0  0  0  0  0  0  0  0  0
   17.3483  -10.2624  -15.2181 C   0  0  0  0  0  0  0  0  0  0  0  0
   16.8154   -9.5761  -16.1255 O   0  0  0  0  0  0  0  0  0  0  0  0
   18.6145  -14.7721  -16.9570 O   0  0  0  0  0  0  0  0  0  0  0  0
   16.0560   -8.0331  -12.6725 C   0  0  0  0  0  0  0  0  0  0  0  0
   17.5326   -7.8019  -12.7081 C   0  0  1  0  0  0  0  0  0  0  0  0
   18.2160   -8.3928  -11.6521 O   0  0  0  0  0  0  0  0  0  0  0  0
   18.1216   -8.1478  -14.0497 C   0  0  2  0  0  0  0  0  0  0  0  0
   18.0634   -9.5842  -14.1987 N   0  0  0  0  0  0  0  0  0  0  0  0
   19.5354   -7.6841  -14.2047 C   0  0  0  0  0  0  0  0  0  0  0  0
   20.4643   -8.4478  -13.7991 O   0  0  0  0  0  0  0  0  0  0  0  0
   19.8922   -6.4576  -14.7719 N   0  0  0  0  0  0  0  0  0  0  0  0
   21.2522   -5.9692  -14.9622 C   0  0  1  0  0  0  0  0  0  0  0  0
   21.3221   -5.0965  -16.1823 C   0  0  0  0  0  0  0  0  0  0  0  0
   22.7235   -4.6937  -16.5155 C   0  0  0  0  0  0  0  0  0  0  0  0
   22.8714   -3.8073  -17.6678 C   0  0  0  0  0  0  0  0  0  0  0  0
   23.9785   -3.2998  -17.9754 O   0  0  0  0  0  0  0  0  0  0  0  0
   21.7475   -5.2586  -13.7687 C   0  0  0  0  0  0  0  0  0  0  0  0
   22.9654   -5.2023  -13.5390 O   0  0  0  0  0  0  0  0  0  0  0  0
   21.7475   -3.5214  -18.4427 O   0  0  0  0  0  0  0  0  0  0  0  0
   20.8594   -4.6590  -12.9118 O   0  0  0  0  0  0  0  0  0  0  0  0
  2  1  1  6
  3  2  1  0
  3  4  1  0
  4  8  1  0
  4  5  2  0
  6  2  1  0
  7  6  2  0
 10  9  1  6
 10 12  1  0
 11 10  1  0
 12 14  1  0
 12 13  1  1
 13  6  1  0
 14 16  1  0
 15 14  2  0
 16 17  1  0
 17 18  1  6
 17 22  1  0
 19 20  1  0
 19 18  1  0
 20 21  2  0
 22 23  2  0
 22 25  1  0
 24 20  1  0
M  END
$$$$
