DTE.pdb
     RDKit          3D

 25 24  0  0  1  0  0  0  0  0999 V2000
   18.9597  -14.6652  -16.3464 N   0  0  0  0  0  0  0  0  0  0  0  0
   18.4562  -13.3117  -16.4609 C   0  0  1  0  0  0  0  0  0  0  0  0
   17.6587  -12.9925  -15.2167 C   0  0  0  0  0  0  0  0  0  0  0  0
   16.4003  -13.7779  -15.2260 C   0  0  0  0  0  0  0  0  0  0  0  0
   16.0032  -14.3129  -16.2947 O   0  0  0  0  0  0  0  0  0  0  0  0
   19.6243  -12.4085  -16.6153 C   0  0  0  0  0  0  0  0  0  0  0  0
   20.6475  -12.5382  -15.8980 O   0  0  0  0  0  0  0  0  0  0  0  0
   15.5942  -13.9799  -14.1135 O   0  0  0  0  0  0  0  0  0  0  0  0
   21.2618  -11.6509  -19.9456 C   0  0  0  0  0  0  0  0  0  0  0  0
   20.8760  -10.3473  -19.3237 C   0  0  1  0  0  0  0  0  0  0  0  0
   19.7910   -9.7346  -19.9389 O   0  0  0  0  0  0  0  0  0  0  0  0
   20.7100  -10.4655  -17.8321 C   0  0  2  0  0  0  0  0  0  0  0  0
   19.6119  -11.3712  -17.5820 N   0  0  0  0  0  0  0  0  0  0  0  0
   20.4389   -9.1526  -17.1681 C   0  0  0  0  0  0  0  0  0  0  0  0
   19.3099   -8.9835  -16.6138 O   0  0  0  0  0  0  0  0  0  0  0  0
   21.3588   -8.1014  -17.1223 N   0  0  0  0  0  0  0  0  0  0  0  0
   21.1668   -6.8292  -16.4376 C   0  0  1  0  0  0  0  0  0  0  0  0
   21.7809   -6.8813  -15.0682 C   0  0  0  0  0  0  0  0  0  0  0  0
   21.5795   -5.6112  -14.3044 C   0  0  0  0  0  0  0  0  0  0  0  0
   22.2293   -5.5477  -12.9971 C   0  0  0  0  0  0  0  0  0  0  0  0
   23.1200   -4.6999  -12.7406 O   0  0  0  0  0  0  0  0  0  0  0  0
   21.7056   -5.7022  -17.2215 C   0  0  0  0  0  0  0  0  0  0  0  0
   21.0916   -4.6251  -17.2653 O   0  0  0  0  0  0  0  0  0  0  0  0
   21.8446   -6.4571  -12.0120 O   0  0  0  0  0  0  0  0  0  0  0  0
   22.8878   -5.8462  -17.9029 O   0  0  0  0  0  0  0  0  0  0  0  0
  2  1  1  1
  3  2  1  0
  3  4  1  0
  4  8  1  0
  4  5  2  0
  6  2  1  0
  7  6  2  0
 10  9  1  6
 10 12  1  0
 11 10  1  0
 12 14  1  0
 12 13  1  6
 13  6  1  0
 14 16  1  0
 15 14  2  0
 16 17  1  0
 17 18  1  1
 17 22  1  0
 19 20  1  0
 19 18  1  0
 20 21  2  0
 22 23  2  0
 22 25  1  0
 24 20  1  0
M  END
$$$$
