DTE.pdb
     RDKit          3D

 25 24  0  0  1  0  0  0  0  0999 V2000
   19.3107  -13.8457  -15.8020 N   0  0  0  0  0  0  0  0  0  0  0  0
   19.2304  -12.5852  -16.5112 C   0  0  1  0  0  0  0  0  0  0  0  0
   17.7716  -12.2302  -16.6896 C   0  0  0  0  0  0  0  0  0  0  0  0
   17.0935  -13.3098  -17.4481 C   0  0  0  0  0  0  0  0  0  0  0  0
   17.5327  -13.6536  -18.5772 O   0  0  0  0  0  0  0  0  0  0  0  0
   19.9519  -11.5684  -15.7051 C   0  0  0  0  0  0  0  0  0  0  0  0
   19.6692  -11.3748  -14.4964 O   0  0  0  0  0  0  0  0  0  0  0  0
   15.9739  -13.9981  -17.0001 O   0  0  0  0  0  0  0  0  0  0  0  0
   23.5006  -11.3720  -14.7908 C   0  0  0  0  0  0  0  0  0  0  0  0
   23.2037  -10.1903  -15.6572 C   0  0  1  0  0  0  0  0  0  0  0  0
   23.6543  -10.3292  -16.9645 O   0  0  0  0  0  0  0  0  0  0  0  0
   21.7549   -9.7885  -15.5796 C   0  0  2  0  0  0  0  0  0  0  0  0
   20.9831  -10.7867  -16.2846 N   0  0  0  0  0  0  0  0  0  0  0  0
   21.4898   -8.4398  -16.1701 C   0  0  0  0  0  0  0  0  0  0  0  0
   21.1813   -8.3742  -17.3993 O   0  0  0  0  0  0  0  0  0  0  0  0
   21.5613   -7.2473  -15.4447 N   0  0  0  0  0  0  0  0  0  0  0  0
   21.4603   -5.9037  -16.0002 C   0  0  1  0  0  0  0  0  0  0  0  0
   21.0761   -4.9275  -14.9258 C   0  0  0  0  0  0  0  0  0  0  0  0
   20.9351   -3.5325  -15.4467 C   0  0  0  0  0  0  0  0  0  0  0  0
   20.5768   -2.5193  -14.4567 C   0  0  0  0  0  0  0  0  0  0  0  0
   19.7469   -1.6107  -14.7092 O   0  0  0  0  0  0  0  0  0  0  0  0
   22.7095   -5.4960  -16.6697 C   0  0  0  0  0  0  0  0  0  0  0  0
   22.6676   -4.9227  -17.7692 O   0  0  0  0  0  0  0  0  0  0  0  0
   21.1772   -2.5687  -13.1988 O   0  0  0  0  0  0  0  0  0  0  0  0
   23.9193   -5.7514  -16.0748 O   0  0  0  0  0  0  0  0  0  0  0  0
  2  1  1  1
  3  2  1  0
  3  4  1  0
  4  8  1  0
  4  5  2  0
  6  2  1  0
  7  6  2  0
 10  9  1  1
 10 12  1  0
 11 10  1  0
 12 14  1  0
 12 13  1  6
 13  6  1  0
 14 16  1  0
 15 14  2  0
 16 17  1  0
 17 18  1  1
 17 22  1  0
 19 20  1  0
 19 18  1  0
 20 21  2  0
 22 23  2  0
 22 25  1  0
 24 20  1  0
M  END
$$$$
