DTE.pdb
     RDKit          3D

 25 24  0  0  1  0  0  0  0  0999 V2000
   15.5944  -16.0282  -15.5260 N   0  0  0  0  0  0  0  0  0  0  0  0
   16.7085  -15.1063  -15.6113 C   0  0  1  0  0  0  0  0  0  0  0  0
   17.6919  -15.6392  -16.6286 C   0  0  0  0  0  0  0  0  0  0  0  0
   18.2988  -16.8914  -16.1147 C   0  0  0  0  0  0  0  0  0  0  0  0
   19.1168  -16.8449  -15.1584 O   0  0  0  0  0  0  0  0  0  0  0  0
   16.1674  -13.7816  -16.0071 C   0  0  0  0  0  0  0  0  0  0  0  0
   15.3994  -13.6600  -16.9938 O   0  0  0  0  0  0  0  0  0  0  0  0
   18.0299  -18.1570  -16.6187 O   0  0  0  0  0  0  0  0  0  0  0  0
   13.6907  -11.7973  -14.8235 C   0  0  0  0  0  0  0  0  0  0  0  0
   14.9196  -10.9850  -14.5685 C   0  0  1  0  0  0  0  0  0  0  0  0
   15.3618  -11.0396  -13.2521 O   0  0  0  0  0  0  0  0  0  0  0  0
   16.0086  -11.2893  -15.5623 C   0  0  2  0  0  0  0  0  0  0  0  0
   16.5075  -12.6153  -15.2761 N   0  0  0  0  0  0  0  0  0  0  0  0
   17.1363  -10.3075  -15.5131 C   0  0  0  0  0  0  0  0  0  0  0  0
   18.0236  -10.4586  -14.6184 O   0  0  0  0  0  0  0  0  0  0  0  0
   17.2691   -9.2333  -16.3973 N   0  0  0  0  0  0  0  0  0  0  0  0
   18.3332   -8.2375  -16.3758 C   0  0  1  0  0  0  0  0  0  0  0  0
   18.1790   -7.2911  -17.5315 C   0  0  0  0  0  0  0  0  0  0  0  0
   19.2539   -6.2515  -17.5644 C   0  0  0  0  0  0  0  0  0  0  0  0
   19.1248   -5.2391  -18.6101 C   0  0  0  0  0  0  0  0  0  0  0  0
   19.0041   -4.0184  -18.3390 O   0  0  0  0  0  0  0  0  0  0  0  0
   18.3735   -7.5112  -15.0929 C   0  0  0  0  0  0  0  0  0  0  0  0
   17.3174   -7.1846  -14.5296 O   0  0  0  0  0  0  0  0  0  0  0  0
   19.1367   -5.6470  -19.9438 O   0  0  0  0  0  0  0  0  0  0  0  0
   19.5811   -7.1968  -14.5224 O   0  0  0  0  0  0  0  0  0  0  0  0
  2  1  1  6
  3  2  1  0
  3  4  1  0
  4  8  1  0
  4  5  2  0
  6  2  1  0
  7  6  2  0
 10  9  1  1
 10 12  1  0
 11 10  1  0
 12 14  1  0
 12 13  1  1
 13  6  1  0
 14 16  1  0
 15 14  2  0
 16 17  1  0
 17 18  1  6
 17 22  1  0
 19 20  1  0
 19 18  1  0
 20 21  2  0
 22 23  2  0
 22 25  1  0
 24 20  1  0
M  END
$$$$
