DTE.pdb
     RDKit          3D

 25 24  0  0  1  0  0  0  0  0999 V2000
   17.7994  -15.3162  -16.1315 N   0  0  0  0  0  0  0  0  0  0  0  0
   17.2247  -14.1466  -15.4989 C   0  0  1  0  0  0  0  0  0  0  0  0
   17.2626  -14.3473  -14.0009 C   0  0  0  0  0  0  0  0  0  0  0  0
   16.3458  -15.4534  -13.6310 C   0  0  0  0  0  0  0  0  0  0  0  0
   16.7924  -16.4596  -13.0193 O   0  0  0  0  0  0  0  0  0  0  0  0
   18.0247  -12.9687  -15.9190 C   0  0  0  0  0  0  0  0  0  0  0  0
   19.2405  -13.0791  -16.2156 O   0  0  0  0  0  0  0  0  0  0  0  0
   14.9865  -15.4722  -13.9132 O   0  0  0  0  0  0  0  0  0  0  0  0
   17.2186  -10.8780  -18.8273 C   0  0  0  0  0  0  0  0  0  0  0  0
   17.2206   -9.9706  -17.6392 C   0  0  1  0  0  0  0  0  0  0  0  0
   15.9490   -9.6099  -17.2099 O   0  0  0  0  0  0  0  0  0  0  0  0
   18.0813  -10.5065  -16.5264 C   0  0  2  0  0  0  0  0  0  0  0  0
   17.4315  -11.6831  -15.9952 N   0  0  0  0  0  0  0  0  0  0  0  0
   18.3006   -9.5151  -15.4277 C   0  0  0  0  0  0  0  0  0  0  0  0
   17.5221   -9.5490  -14.4260 O   0  0  0  0  0  0  0  0  0  0  0  0
   19.3152   -8.5539  -15.4407 N   0  0  0  0  0  0  0  0  0  0  0  0
   19.5622   -7.5605  -14.4033 C   0  0  1  0  0  0  0  0  0  0  0  0
   20.8480   -6.8350  -14.6780 C   0  0  0  0  0  0  0  0  0  0  0  0
   21.2209   -5.8975  -13.5737 C   0  0  0  0  0  0  0  0  0  0  0  0
   22.4811   -5.1793  -13.7502 C   0  0  0  0  0  0  0  0  0  0  0  0
   22.7398   -4.1288  -13.1118 O   0  0  0  0  0  0  0  0  0  0  0  0
   18.4353   -6.6182  -14.2723 C   0  0  0  0  0  0  0  0  0  0  0  0
   18.0987   -6.2028  -13.1528 O   0  0  0  0  0  0  0  0  0  0  0  0
   23.4176   -5.6800  -14.6544 O   0  0  0  0  0  0  0  0  0  0  0  0
   17.7591   -6.2008  -15.3908 O   0  0  0  0  0  0  0  0  0  0  0  0
  2  1  1  6
  3  2  1  0
  3  4  1  0
  4  8  1  0
  4  5  2  0
  6  2  1  0
  7  6  2  0
 10  9  1  6
 10 12  1  0
 11 10  1  0
 12 14  1  0
 12 13  1  1
 13  6  1  0
 14 16  1  0
 15 14  2  0
 16 17  1  0
 17 18  1  6
 17 22  1  0
 19 20  1  0
 19 18  1  0
 20 21  2  0
 22 23  2  0
 22 25  1  0
 24 20  1  0
M  END
$$$$
