DTE.pdb
     RDKit          3D

 25 24  0  0  1  0  0  0  0  0999 V2000
   18.3809  -12.5051  -16.2717 N   0  0  0  0  0  0  0  0  0  0  0  0
   18.7758  -11.2363  -16.8484 C   0  0  1  0  0  0  0  0  0  0  0  0
   17.5463  -10.5702  -17.4233 C   0  0  0  0  0  0  0  0  0  0  0  0
   17.0710  -11.3460  -18.5950 C   0  0  0  0  0  0  0  0  0  0  0  0
   17.6712  -12.3999  -18.9342 O   0  0  0  0  0  0  0  0  0  0  0  0
   19.3910  -10.4233  -15.7691 C   0  0  0  0  0  0  0  0  0  0  0  0
   18.8413  -10.3098  -14.6452 O   0  0  0  0  0  0  0  0  0  0  0  0
   15.9793  -10.9940  -19.3775 O   0  0  0  0  0  0  0  0  0  0  0  0
   22.5460  -11.0068  -14.1302 C   0  0  0  0  0  0  0  0  0  0  0  0
   22.6768   -9.6670  -14.7806 C   0  0  1  0  0  0  0  0  0  0  0  0
   23.4429   -9.6815  -15.9399 O   0  0  0  0  0  0  0  0  0  0  0  0
   21.3385   -9.0054  -14.9746 C   0  0  2  0  0  0  0  0  0  0  0  0
   20.6210   -9.7513  -15.9834 N   0  0  0  0  0  0  0  0  0  0  0  0
   21.4494   -7.5734  -15.3934 C   0  0  0  0  0  0  0  0  0  0  0  0
   21.8166   -7.3236  -16.5822 O   0  0  0  0  0  0  0  0  0  0  0  0
   21.1705   -6.4944  -14.5500 N   0  0  0  0  0  0  0  0  0  0  0  0
   21.3261   -5.0852  -14.8881 C   0  0  1  0  0  0  0  0  0  0  0  0
   19.9878   -4.4042  -14.8941 C   0  0  0  0  0  0  0  0  0  0  0  0
   20.0984   -2.9318  -15.1333 C   0  0  0  0  0  0  0  0  0  0  0  0
   18.8409   -2.1883  -15.1026 C   0  0  0  0  0  0  0  0  0  0  0  0
   18.8054   -0.9565  -14.8587 O   0  0  0  0  0  0  0  0  0  0  0  0
   22.2659   -4.4071  -13.9760 C   0  0  0  0  0  0  0  0  0  0  0  0
   22.4665   -4.8614  -12.8391 O   0  0  0  0  0  0  0  0  0  0  0  0
   17.6511   -2.8721  -15.3519 O   0  0  0  0  0  0  0  0  0  0  0  0
   22.9189   -3.2723  -14.3864 O   0  0  0  0  0  0  0  0  0  0  0  0
  2  1  1  1
  3  2  1  0
  3  4  1  0
  4  8  1  0
  4  5  2  0
  6  2  1  0
  7  6  2  0
 10  9  1  6
 10 12  1  0
 11 10  1  0
 12 14  1  0
 12 13  1  6
 13  6  1  0
 14 16  1  0
 15 14  2  0
 16 17  1  0
 17 18  1  1
 17 22  1  0
 19 20  1  0
 19 18  1  0
 20 21  2  0
 22 23  2  0
 22 25  1  0
 24 20  1  0
M  END
$$$$
