DTE.pdb
     RDKit          3D

 25 24  0  0  1  0  0  0  0  0999 V2000
   19.1019  -13.0247  -16.5936 N   0  0  0  0  0  0  0  0  0  0  0  0
   19.2847  -11.6733  -17.0822 C   0  0  1  0  0  0  0  0  0  0  0  0
   17.9541  -11.1651  -17.5891 C   0  0  0  0  0  0  0  0  0  0  0  0
   17.5315  -11.9773  -18.7564 C   0  0  0  0  0  0  0  0  0  0  0  0
   16.4804  -12.6679  -18.6919 O   0  0  0  0  0  0  0  0  0  0  0  0
   19.7967  -10.8528  -15.9558 C   0  0  0  0  0  0  0  0  0  0  0  0
   19.2982  -10.9414  -14.8060 O   0  0  0  0  0  0  0  0  0  0  0  0
   18.2237  -12.0415  -19.9583 O   0  0  0  0  0  0  0  0  0  0  0  0
   22.9974  -11.0013  -14.3936 C   0  0  0  0  0  0  0  0  0  0  0  0
   22.9122   -9.6253  -14.9717 C   0  0  1  0  0  0  0  0  0  0  0  0
   23.6434   -9.4653  -16.1427 O   0  0  0  0  0  0  0  0  0  0  0  0
   21.4863   -9.1618  -15.1071 C   0  0  2  0  0  0  0  0  0  0  0  0
   20.8668   -9.9438  -16.1529 N   0  0  0  0  0  0  0  0  0  0  0  0
   21.3731   -7.7065  -15.4348 C   0  0  0  0  0  0  0  0  0  0  0  0
   21.4283   -7.3611  -16.6547 O   0  0  0  0  0  0  0  0  0  0  0  0
   21.2089   -6.7051  -14.4738 N   0  0  0  0  0  0  0  0  0  0  0  0
   21.2197   -5.2698  -14.7271 C   0  0  1  0  0  0  0  0  0  0  0  0
   19.8289   -4.7147  -14.6155 C   0  0  0  0  0  0  0  0  0  0  0  0
   19.7880   -3.2336  -14.8207 C   0  0  0  0  0  0  0  0  0  0  0  0
   18.4717   -2.6121  -14.6933 C   0  0  0  0  0  0  0  0  0  0  0  0
   18.2450   -1.7076  -13.8515 O   0  0  0  0  0  0  0  0  0  0  0  0
   22.1497   -4.5648  -13.8255 C   0  0  0  0  0  0  0  0  0  0  0  0
   22.6586   -3.4885  -14.1745 O   0  0  0  0  0  0  0  0  0  0  0  0
   17.4436   -3.0403  -15.5328 O   0  0  0  0  0  0  0  0  0  0  0  0
   22.4517   -5.1007  -12.5990 O   0  0  0  0  0  0  0  0  0  0  0  0
  2  1  1  1
  3  2  1  0
  3  4  1  0
  4  8  1  0
  4  5  2  0
  6  2  1  0
  7  6  2  0
 10  9  1  6
 10 12  1  0
 11 10  1  0
 12 14  1  0
 12 13  1  6
 13  6  1  0
 14 16  1  0
 15 14  2  0
 16 17  1  0
 17 18  1  1
 17 22  1  0
 19 20  1  0
 19 18  1  0
 20 21  2  0
 22 23  2  0
 22 25  1  0
 24 20  1  0
M  END
$$$$
