DTE.pdb
     RDKit          3D

 25 24  0  0  1  0  0  0  0  0999 V2000
   18.5799  -15.1031  -17.6539 N   0  0  0  0  0  0  0  0  0  0  0  0
   18.2600  -14.1736  -16.5899 C   0  0  1  0  0  0  0  0  0  0  0  0
   18.3147  -14.9169  -15.2745 C   0  0  0  0  0  0  0  0  0  0  0  0
   16.9719  -15.4663  -14.9654 C   0  0  0  0  0  0  0  0  0  0  0  0
   16.0144  -15.2642  -15.7581 O   0  0  0  0  0  0  0  0  0  0  0  0
   19.2518  -13.0702  -16.6427 C   0  0  0  0  0  0  0  0  0  0  0  0
   20.3755  -13.1773  -16.0911 O   0  0  0  0  0  0  0  0  0  0  0  0
   16.6719  -16.2125  -13.8335 O   0  0  0  0  0  0  0  0  0  0  0  0
   20.2813  -11.1943  -19.8880 C   0  0  0  0  0  0  0  0  0  0  0  0
   19.7263  -10.2368  -18.8830 C   0  0  1  0  0  0  0  0  0  0  0  0
   18.4353   -9.8108  -19.1712 O   0  0  0  0  0  0  0  0  0  0  0  0
   19.8687  -10.7554  -17.4768 C   0  0  2  0  0  0  0  0  0  0  0  0
   18.9518  -11.8617  -17.3210 N   0  0  0  0  0  0  0  0  0  0  0  0
   19.5829   -9.7167  -16.4388 C   0  0  0  0  0  0  0  0  0  0  0  0
   18.4565   -9.7473  -15.8549 O   0  0  0  0  0  0  0  0  0  0  0  0
   20.4863   -8.7146  -16.0743 N   0  0  0  0  0  0  0  0  0  0  0  0
   20.2348   -7.6477  -15.1137 C   0  0  1  0  0  0  0  0  0  0  0  0
   21.5021   -6.8905  -14.8385 C   0  0  0  0  0  0  0  0  0  0  0  0
   21.2989   -5.7738  -13.8643 C   0  0  0  0  0  0  0  0  0  0  0  0
   22.4699   -4.9400  -13.6025 C   0  0  0  0  0  0  0  0  0  0  0  0
   22.4068   -3.9198  -12.8723 O   0  0  0  0  0  0  0  0  0  0  0  0
   19.1623   -6.7448  -15.5712 C   0  0  0  0  0  0  0  0  0  0  0  0
   19.0446   -6.4798  -16.7775 O   0  0  0  0  0  0  0  0  0  0  0  0
   23.6880   -5.2929  -14.1830 O   0  0  0  0  0  0  0  0  0  0  0  0
   18.2938   -6.1977  -14.6607 O   0  0  0  0  0  0  0  0  0  0  0  0
  2  1  1  6
  3  2  1  0
  3  4  1  0
  4  8  1  0
  4  5  2  0
  6  2  1  0
  7  6  2  0
 10  9  1  6
 10 12  1  0
 11 10  1  0
 12 14  1  0
 12 13  1  6
 13  6  1  0
 14 16  1  0
 15 14  2  0
 16 17  1  0
 17 18  1  6
 17 22  1  0
 19 20  1  0
 19 18  1  0
 20 21  2  0
 22 23  2  0
 22 25  1  0
 24 20  1  0
M  END
$$$$
