DTE.pdb
     RDKit          3D

 25 24  0  0  1  0  0  0  0  0999 V2000
   16.6100  -13.4591  -16.9754 N   0  0  0  0  0  0  0  0  0  0  0  0
   17.3968  -12.6937  -16.0302 C   0  0  1  0  0  0  0  0  0  0  0  0
   18.4857  -13.5877  -15.4815 C   0  0  0  0  0  0  0  0  0  0  0  0
   17.9091  -14.4883  -14.4534 C   0  0  0  0  0  0  0  0  0  0  0  0
   16.7333  -14.2998  -14.0435 O   0  0  0  0  0  0  0  0  0  0  0  0
   17.9549  -11.5231  -16.7528 C   0  0  0  0  0  0  0  0  0  0  0  0
   18.4081  -11.6331  -17.9194 O   0  0  0  0  0  0  0  0  0  0  0  0
   18.5824  -15.5612  -13.8847 O   0  0  0  0  0  0  0  0  0  0  0  0
   16.2640   -8.4571  -17.7963 C   0  0  0  0  0  0  0  0  0  0  0  0
   17.3108   -8.0604  -16.8054 C   0  0  1  0  0  0  0  0  0  0  0  0
   16.8067   -7.7889  -15.5391 O   0  0  0  0  0  0  0  0  0  0  0  0
   18.4565   -9.0367  -16.7796 C   0  0  2  0  0  0  0  0  0  0  0  0
   17.9903  -10.2455  -16.1390 N   0  0  0  0  0  0  0  0  0  0  0  0
   19.6544   -8.5133  -16.0521 C   0  0  0  0  0  0  0  0  0  0  0  0
   19.7518   -8.7511  -14.8094 O   0  0  0  0  0  0  0  0  0  0  0  0
   20.6736   -7.7779  -16.6636 N   0  0  0  0  0  0  0  0  0  0  0  0
   21.8663   -7.2615  -16.0040 C   0  0  1  0  0  0  0  0  0  0  0  0
   22.7538   -6.5765  -17.0030 C   0  0  0  0  0  0  0  0  0  0  0  0
   23.9791   -5.9947  -16.3724 C   0  0  0  0  0  0  0  0  0  0  0  0
   24.8472   -5.2277  -17.2631 C   0  0  0  0  0  0  0  0  0  0  0  0
   24.6253   -5.1473  -18.4969 O   0  0  0  0  0  0  0  0  0  0  0  0
   21.5242   -6.3603  -14.8878 C   0  0  0  0  0  0  0  0  0  0  0  0
   22.1938   -6.3815  -13.8436 O   0  0  0  0  0  0  0  0  0  0  0  0
   25.9510   -4.5696  -16.7210 O   0  0  0  0  0  0  0  0  0  0  0  0
   20.4639   -5.4974  -15.0055 O   0  0  0  0  0  0  0  0  0  0  0  0
  2  1  1  6
  3  2  1  0
  3  4  1  0
  4  8  1  0
  4  5  2  0
  6  2  1  0
  7  6  2  0
 10  9  1  6
 10 12  1  0
 11 10  1  0
 12 14  1  0
 12 13  1  1
 13  6  1  0
 14 16  1  0
 15 14  2  0
 16 17  1  0
 17 18  1  6
 17 22  1  0
 19 20  1  0
 19 18  1  0
 20 21  2  0
 22 23  2  0
 22 25  1  0
 24 20  1  0
M  END
$$$$
