DTE.pdb
     RDKit          3D

 25 24  0  0  1  0  0  0  0  0999 V2000
   13.5030  -11.0213  -10.3237 N   0  0  0  0  0  0  0  0  0  0  0  0
   14.9058  -10.6619  -10.2866 C   0  0  1  0  0  0  0  0  0  0  0  0
   15.6511  -11.5478  -11.2591 C   0  0  0  0  0  0  0  0  0  0  0  0
   15.4914  -12.9654  -10.8524 C   0  0  0  0  0  0  0  0  0  0  0  0
   15.8815  -13.3389   -9.7147 O   0  0  0  0  0  0  0  0  0  0  0  0
   15.0128   -9.2271  -10.6526 C   0  0  0  0  0  0  0  0  0  0  0  0
   14.3087   -8.7343  -11.5690 O   0  0  0  0  0  0  0  0  0  0  0  0
   14.9267  -13.9510  -11.6510 O   0  0  0  0  0  0  0  0  0  0  0  0
   14.0961   -6.2820   -8.9694 C   0  0  0  0  0  0  0  0  0  0  0  0
   15.5834   -6.1868   -9.0872 C   0  0  1  0  0  0  0  0  0  0  0  0
   16.2567   -6.4770   -7.9066 O   0  0  0  0  0  0  0  0  0  0  0  0
   16.1037   -6.9705  -10.2626 C   0  0  2  0  0  0  0  0  0  0  0  0
   15.9184   -8.3742   -9.9724 N   0  0  0  0  0  0  0  0  0  0  0  0
   17.5474   -6.7038  -10.5503 C   0  0  0  0  0  0  0  0  0  0  0  0
   18.4157   -7.4427   -9.9930 O   0  0  0  0  0  0  0  0  0  0  0  0
   17.9948   -5.6876  -11.3991 N   0  0  0  0  0  0  0  0  0  0  0  0
   19.3204   -5.5986  -11.9983 C   0  0  1  0  0  0  0  0  0  0  0  0
   19.6121   -6.8380  -12.7944 C   0  0  0  0  0  0  0  0  0  0  0  0
   20.9382   -6.7740  -13.4834 C   0  0  0  0  0  0  0  0  0  0  0  0
   21.2648   -7.9142  -14.3369 C   0  0  0  0  0  0  0  0  0  0  0  0
   20.4271   -8.8165  -14.5862 O   0  0  0  0  0  0  0  0  0  0  0  0
   19.4635   -4.3865  -12.8261 C   0  0  0  0  0  0  0  0  0  0  0  0
   20.5547   -3.7993  -12.8860 O   0  0  0  0  0  0  0  0  0  0  0  0
   22.5442   -7.9961  -14.8862 O   0  0  0  0  0  0  0  0  0  0  0  0
   18.3876   -3.9086  -13.5310 O   0  0  0  0  0  0  0  0  0  0  0  0
  2  1  1  6
  3  2  1  0
  3  4  1  0
  4  8  1  0
  4  5  2  0
  6  2  1  0
  7  6  2  0
 10  9  1  1
 10 12  1  0
 11 10  1  0
 12 14  1  0
 12 13  1  1
 13  6  1  0
 14 16  1  0
 15 14  2  0
 16 17  1  0
 17 18  1  6
 17 22  1  0
 19 20  1  0
 19 18  1  0
 20 21  2  0
 22 23  2  0
 22 25  1  0
 24 20  1  0
M  END
$$$$
