DTE.pdb
     RDKit          3D

 25 24  0  0  1  0  0  0  0  0999 V2000
   19.3785  -13.3487  -16.5339 N   0  0  0  0  0  0  0  0  0  0  0  0
   19.2307  -11.9971  -17.0334 C   0  0  1  0  0  0  0  0  0  0  0  0
   17.7737  -11.7681  -17.3663 C   0  0  0  0  0  0  0  0  0  0  0  0
   17.3743  -12.6760  -18.4694 C   0  0  0  0  0  0  0  0  0  0  0  0
   16.4434  -13.5055  -18.2924 O   0  0  0  0  0  0  0  0  0  0  0  0
   19.7077  -11.0714  -15.9753 C   0  0  0  0  0  0  0  0  0  0  0  0
   19.1870  -11.0651  -14.8320 O   0  0  0  0  0  0  0  0  0  0  0  0
   17.9627  -12.6875  -19.7270 O   0  0  0  0  0  0  0  0  0  0  0  0
   22.8814  -10.9871  -14.3044 C   0  0  0  0  0  0  0  0  0  0  0  0
   22.7796   -9.6919  -15.0442 C   0  0  1  0  0  0  0  0  0  0  0  0
   23.5249   -9.6585  -16.2167 O   0  0  0  0  0  0  0  0  0  0  0  0
   21.3476   -9.2764  -15.2518 C   0  0  2  0  0  0  0  0  0  0  0  0
   20.7687  -10.1667  -16.2323 N   0  0  0  0  0  0  0  0  0  0  0  0
   21.2110   -7.8610  -15.7167 C   0  0  0  0  0  0  0  0  0  0  0  0
   21.5813   -7.5799  -16.8975 O   0  0  0  0  0  0  0  0  0  0  0  0
   20.6974   -6.8302  -14.9248 N   0  0  0  0  0  0  0  0  0  0  0  0
   20.6666   -5.4168  -15.2793 C   0  0  1  0  0  0  0  0  0  0  0  0
   19.3413   -4.8186  -14.9044 C   0  0  0  0  0  0  0  0  0  0  0  0
   19.2222   -3.3880  -15.3245 C   0  0  0  0  0  0  0  0  0  0  0  0
   17.9605   -2.7317  -14.9892 C   0  0  0  0  0  0  0  0  0  0  0  0
   17.0442   -3.3323  -14.3746 O   0  0  0  0  0  0  0  0  0  0  0  0
   21.7810   -4.6757  -14.6598 C   0  0  0  0  0  0  0  0  0  0  0  0
   22.2308   -5.0333  -13.5603 O   0  0  0  0  0  0  0  0  0  0  0  0
   17.7756   -1.4014  -15.3654 O   0  0  0  0  0  0  0  0  0  0  0  0
   22.3206   -3.5895  -15.3014 O   0  0  0  0  0  0  0  0  0  0  0  0
  2  1  1  1
  3  2  1  0
  3  4  1  0
  4  8  1  0
  4  5  2  0
  6  2  1  0
  7  6  2  0
 10  9  1  6
 10 12  1  0
 11 10  1  0
 12 14  1  0
 12 13  1  6
 13  6  1  0
 14 16  1  0
 15 14  2  0
 16 17  1  0
 17 18  1  1
 17 22  1  0
 19 20  1  0
 19 18  1  0
 20 21  2  0
 22 23  2  0
 22 25  1  0
 24 20  1  0
M  END
$$$$
