DTE.pdb
     RDKit          3D

 25 24  0  0  1  0  0  0  0  0999 V2000
   21.9606  -14.9079  -16.0429 N   0  0  0  0  0  0  0  0  0  0  0  0
   22.5045  -13.9869  -17.0198 C   0  0  1  0  0  0  0  0  0  0  0  0
   21.4030  -13.6088  -17.9840 C   0  0  0  0  0  0  0  0  0  0  0  0
   20.9478  -14.8209  -18.7081 C   0  0  0  0  0  0  0  0  0  0  0  0
   21.6410  -15.8715  -18.6692 O   0  0  0  0  0  0  0  0  0  0  0  0
   23.0247  -12.8065  -16.2849 C   0  0  0  0  0  0  0  0  0  0  0  0
   22.4090  -12.3295  -15.2991 O   0  0  0  0  0  0  0  0  0  0  0  0
   19.7779  -14.8962  -19.4523 O   0  0  0  0  0  0  0  0  0  0  0  0
   26.9927   -9.9209  -15.6178 C   0  0  0  0  0  0  0  0  0  0  0  0
   26.3005  -11.1710  -16.0574 C   0  0  1  0  0  0  0  0  0  0  0  0
   26.7215  -12.3097  -15.3811 O   0  0  0  0  0  0  0  0  0  0  0  0
   24.8034  -11.0125  -16.0561 C   0  0  2  0  0  0  0  0  0  0  0  0
   24.2362  -12.1856  -16.6814 N   0  0  0  0  0  0  0  0  0  0  0  0
   24.3447   -9.7865  -16.7804 C   0  0  0  0  0  0  0  0  0  0  0  0
   24.5478   -9.7184  -18.0312 O   0  0  0  0  0  0  0  0  0  0  0  0
   23.7037   -8.7117  -16.1580 N   0  0  0  0  0  0  0  0  0  0  0  0
   23.2419   -7.4964  -16.8169 C   0  0  1  0  0  0  0  0  0  0  0  0
   22.1168   -6.8806  -16.0360 C   0  0  0  0  0  0  0  0  0  0  0  0
   21.5454   -5.6755  -16.7133 C   0  0  0  0  0  0  0  0  0  0  0  0
   20.4878   -4.9799  -15.9834 C   0  0  0  0  0  0  0  0  0  0  0  0
   19.8970   -3.9814  -16.4650 O   0  0  0  0  0  0  0  0  0  0  0  0
   24.3415   -6.5343  -17.0175 C   0  0  0  0  0  0  0  0  0  0  0  0
   25.2627   -6.4610  -16.1898 O   0  0  0  0  0  0  0  0  0  0  0  0
   20.1300   -5.4431  -14.7174 O   0  0  0  0  0  0  0  0  0  0  0  0
   24.3449   -5.7199  -18.1218 O   0  0  0  0  0  0  0  0  0  0  0  0
  2  1  1  1
  3  2  1  0
  3  4  1  0
  4  8  1  0
  4  5  2  0
  6  2  1  0
  7  6  2  0
 10  9  1  1
 10 12  1  0
 11 10  1  0
 12 14  1  0
 12 13  1  6
 13  6  1  0
 14 16  1  0
 15 14  2  0
 16 17  1  0
 17 18  1  1
 17 22  1  0
 19 20  1  0
 19 18  1  0
 20 21  2  0
 22 23  2  0
 22 25  1  0
 24 20  1  0
M  END
$$$$
