DTE.pdb
     RDKit          3D

 25 24  0  0  1  0  0  0  0  0999 V2000
   25.9410  -11.9803  -19.2291 N   0  0  0  0  0  0  0  0  0  0  0  0
   26.7860  -11.1743  -20.0863 C   0  0  1  0  0  0  0  0  0  0  0  0
   25.9419  -10.6377  -21.2201 C   0  0  0  0  0  0  0  0  0  0  0  0
   25.4215  -11.7712  -22.0231 C   0  0  0  0  0  0  0  0  0  0  0  0
   26.2174  -12.6356  -22.4765 O   0  0  0  0  0  0  0  0  0  0  0  0
   27.3570  -10.0827  -19.2578 C   0  0  0  0  0  0  0  0  0  0  0  0
   26.6738   -9.5125  -18.3710 O   0  0  0  0  0  0  0  0  0  0  0  0
   24.0808  -11.9658  -22.3274 O   0  0  0  0  0  0  0  0  0  0  0  0
   30.1978  -10.4339  -17.0538 C   0  0  0  0  0  0  0  0  0  0  0  0
   30.5832   -9.3645  -18.0248 C   0  0  1  0  0  0  0  0  0  0  0  0
   31.4941   -9.7853  -18.9864 O   0  0  0  0  0  0  0  0  0  0  0  0
   29.3776   -8.6878  -18.6206 C   0  0  2  0  0  0  0  0  0  0  0  0
   28.6951   -9.6550  -19.4499 N   0  0  0  0  0  0  0  0  0  0  0  0
   29.7268   -7.4841  -19.4374 C   0  0  0  0  0  0  0  0  0  0  0  0
   30.0213   -7.6545  -20.6600 O   0  0  0  0  0  0  0  0  0  0  0  0
   29.7461   -6.1816  -18.9310 N   0  0  0  0  0  0  0  0  0  0  0  0
   30.0706   -4.9777  -19.6858 C   0  0  1  0  0  0  0  0  0  0  0  0
   29.5877   -3.7607  -18.9506 C   0  0  0  0  0  0  0  0  0  0  0  0
   29.7491   -2.5085  -19.7527 C   0  0  0  0  0  0  0  0  0  0  0  0
   29.4303   -1.2641  -19.0564 C   0  0  0  0  0  0  0  0  0  0  0  0
   29.1198   -1.2468  -17.8394 O   0  0  0  0  0  0  0  0  0  0  0  0
   31.5140   -4.8888  -19.9748 C   0  0  0  0  0  0  0  0  0  0  0  0
   32.3419   -5.2574  -19.1276 O   0  0  0  0  0  0  0  0  0  0  0  0
   29.4740   -0.0663  -19.7696 O   0  0  0  0  0  0  0  0  0  0  0  0
   31.9408   -4.3979  -21.1829 O   0  0  0  0  0  0  0  0  0  0  0  0
  2  1  1  1
  3  2  1  0
  3  4  1  0
  4  8  1  0
  4  5  2  0
  6  2  1  0
  7  6  2  0
 10  9  1  6
 10 12  1  0
 11 10  1  0
 12 14  1  0
 12 13  1  6
 13  6  1  0
 14 16  1  0
 15 14  2  0
 16 17  1  0
 17 18  1  1
 17 22  1  0
 19 20  1  0
 19 18  1  0
 20 21  2  0
 22 23  2  0
 22 25  1  0
 24 20  1  0
M  END
$$$$
