SDK.pdb
     RDKit          3D

 24 23  0  0  1  0  0  0  0  0999 V2000
   26.4241  -12.8995  -15.7902 O   0  0  0  0  0  0  0  0  0  0  0  0
   25.6759  -11.7481  -16.0423 C   0  0  0  0  0  0  0  0  0  0  0  0
   24.3045  -12.1762  -16.5212 C   0  0  2  0  0  0  0  0  0  0  0  0
   24.4353  -12.8283  -17.7834 N   0  0  0  0  0  0  0  0  0  0  0  0
   23.3419  -11.0309  -16.5681 C   0  0  0  0  0  0  0  0  0  0  0  0
   23.2702  -10.3507  -17.5892 O   0  0  0  0  0  0  0  0  0  0  0  0
   22.5385  -10.7590  -15.4400 N   0  0  0  0  0  0  0  0  0  0  0  0
   21.5568   -9.7563  -15.2462 C   0  0  1  0  0  0  0  0  0  0  0  0
   20.3522  -10.1518  -14.4380 C   0  0  0  0  0  0  0  0  0  0  0  0
   19.3584   -9.0564  -14.4491 C   0  0  0  0  0  0  0  0  0  0  0  0
   19.3362   -8.2315  -13.5129 O   0  0  0  0  0  0  0  0  0  0  0  0
   22.1325   -8.4608  -14.9925 C   0  0  0  0  0  0  0  0  0  0  0  0
   23.0258   -8.3569  -14.0988 O   0  0  0  0  0  0  0  0  0  0  0  0
   18.4330   -8.9173  -15.4880 O   0  0  0  0  0  0  0  0  0  0  0  0
   21.7622   -7.3050  -15.6758 N   0  0  0  0  0  0  0  0  0  0  0  0
   22.4337   -5.9770  -15.3938 C   0  0  1  0  0  0  0  0  0  0  0  0
   22.3843   -5.2218  -16.6573 C   0  0  0  0  0  0  0  0  0  0  0  0
   22.9021   -3.8613  -16.7594 C   0  0  0  0  0  0  0  0  0  0  0  0
   22.9129   -3.2055  -18.0878 C   0  0  0  0  0  0  0  0  0  0  0  0
   23.4435   -1.7887  -18.0533 C   0  0  0  0  0  0  0  0  0  0  0  0
   23.4809   -1.2406  -19.3885 N   0  0  0  0  0  0  0  0  0  0  0  0
   21.7018   -5.4550  -14.2440 C   0  0  0  0  0  0  0  0  0  0  0  0
   22.3913   -4.7198  -13.2594 O   0  0  0  0  0  0  0  0  0  0  0  0
   20.4896   -5.5936  -14.0282 O   0  0  0  0  0  0  0  0  0  0  0  0
  2  1  1  0
  2  3  1  0
  3  4  1  6
  5  3  1  0
  5  6  2  0
  7  5  1  0
  8  7  1  0
  9 10  1  0
  8  9  1  1
 10 11  2  0
 12  8  1  0
 13 12  2  0
 14 10  1  0
 15 12  1  0
 16 15  1  0
 16 17  1  6
 18 17  1  0
 19 20  1  0
 19 18  1  0
 20 21  1  0
 22 16  1  0
 23 22  1  0
 24 22  2  0
M  END
$$$$
