SDK.pdb
     RDKit          3D

 24 23  0  0  1  0  0  0  0  0999 V2000
   21.6959  -10.9446  -18.1143 O   0  0  0  0  0  0  0  0  0  0  0  0
   20.8492   -9.9284  -17.6674 C   0  0  0  0  0  0  0  0  0  0  0  0
   21.7081   -8.8254  -17.0851 C   0  0  2  0  0  0  0  0  0  0  0  0
   22.5973   -9.3880  -16.1216 N   0  0  0  0  0  0  0  0  0  0  0  0
   20.8850   -7.7107  -16.5189 C   0  0  0  0  0  0  0  0  0  0  0  0
   19.7330   -7.9410  -16.1578 O   0  0  0  0  0  0  0  0  0  0  0  0
   21.4504   -6.4220  -16.4117 N   0  0  0  0  0  0  0  0  0  0  0  0
   20.9115   -5.2392  -15.8484 C   0  0  1  0  0  0  0  0  0  0  0  0
   21.8362   -4.4364  -14.9761 C   0  0  0  0  0  0  0  0  0  0  0  0
   22.0214   -5.1202  -13.6777 C   0  0  0  0  0  0  0  0  0  0  0  0
   23.0893   -5.7213  -13.4417 O   0  0  0  0  0  0  0  0  0  0  0  0
   20.0752   -4.5180  -16.7728 C   0  0  0  0  0  0  0  0  0  0  0  0
   20.4726   -4.3754  -17.9683 O   0  0  0  0  0  0  0  0  0  0  0  0
   21.0244   -5.1135  -12.6974 O   0  0  0  0  0  0  0  0  0  0  0  0
   18.8454   -3.9622  -16.4283 N   0  0  0  0  0  0  0  0  0  0  0  0
   17.9634   -3.3019  -17.4675 C   0  0  1  0  0  0  0  0  0  0  0  0
   16.5811   -3.6731  -17.1205 C   0  0  0  0  0  0  0  0  0  0  0  0
   15.4383   -3.1702  -17.8758 C   0  0  0  0  0  0  0  0  0  0  0  0
   14.0801   -3.6141  -17.4846 C   0  0  0  0  0  0  0  0  0  0  0  0
   12.9850   -3.0275  -18.3486 C   0  0  0  0  0  0  0  0  0  0  0  0
   11.6918   -3.4496  -17.8646 N   0  0  0  0  0  0  0  0  0  0  0  0
   18.3419   -1.8939  -17.4003 C   0  0  0  0  0  0  0  0  0  0  0  0
   18.1705   -1.0755  -18.5344 O   0  0  0  0  0  0  0  0  0  0  0  0
   18.8184   -1.3141  -16.4144 O   0  0  0  0  0  0  0  0  0  0  0  0
  2  1  1  0
  2  3  1  0
  3  4  1  1
  5  3  1  0
  5  6  2  0
  7  5  1  0
  8  7  1  0
  9 10  1  0
  8  9  1  6
 10 11  2  0
 12  8  1  0
 13 12  2  0
 14 10  1  0
 15 12  1  0
 16 15  1  0
 16 17  1  1
 18 17  1  0
 19 20  1  0
 19 18  1  0
 20 21  1  0
 22 16  1  0
 23 22  1  0
 24 22  2  0
M  END
$$$$
