SDK.pdb
     RDKit          3D

 24 23  0  0  1  0  0  0  0  0999 V2000
   13.5342  -13.5699   -9.6948 O   0  0  0  0  0  0  0  0  0  0  0  0
   13.9052  -12.4072  -10.3728 C   0  0  0  0  0  0  0  0  0  0  0  0
   13.1920  -11.2391   -9.7244 C   0  0  2  0  0  0  0  0  0  0  0  0
   11.8021  -11.3107  -10.0382 N   0  0  0  0  0  0  0  0  0  0  0  0
   13.7969   -9.9256  -10.1110 C   0  0  0  0  0  0  0  0  0  0  0  0
   13.7318   -9.5582  -11.2819 O   0  0  0  0  0  0  0  0  0  0  0  0
   14.4268   -9.1393   -9.1226 N   0  0  0  0  0  0  0  0  0  0  0  0
   15.0320   -7.8629   -9.2287 C   0  0  1  0  0  0  0  0  0  0  0  0
   14.9705   -6.9934   -8.0036 C   0  0  0  0  0  0  0  0  0  0  0  0
   15.4478   -5.6320   -8.3297 C   0  0  0  0  0  0  0  0  0  0  0  0
   15.1553   -5.1207   -9.4299 O   0  0  0  0  0  0  0  0  0  0  0  0
   16.2734   -7.8987   -9.9579 C   0  0  0  0  0  0  0  0  0  0  0  0
   17.2542   -8.5278   -9.4581 O   0  0  0  0  0  0  0  0  0  0  0  0
   16.2261   -4.8940   -7.4326 O   0  0  0  0  0  0  0  0  0  0  0  0
   16.4624   -7.2770  -11.1898 N   0  0  0  0  0  0  0  0  0  0  0  0
   17.7257   -7.4986  -11.9955 C   0  0  1  0  0  0  0  0  0  0  0  0
   17.4599   -8.6666  -12.8524 C   0  0  0  0  0  0  0  0  0  0  0  0
   18.4577   -9.1760  -13.7874 C   0  0  0  0  0  0  0  0  0  0  0  0
   18.0646  -10.2533  -14.7252 C   0  0  0  0  0  0  0  0  0  0  0  0
   19.1546  -10.6198  -15.7089 C   0  0  0  0  0  0  0  0  0  0  0  0
   18.6542  -11.5733  -16.6708 N   0  0  0  0  0  0  0  0  0  0  0  0
   17.9609   -6.2078  -12.6347 C   0  0  0  0  0  0  0  0  0  0  0  0
   19.2027   -5.9558  -13.2509 O   0  0  0  0  0  0  0  0  0  0  0  0
   17.1552   -5.2685  -12.6974 O   0  0  0  0  0  0  0  0  0  0  0  0
  2  1  1  0
  2  3  1  0
  3  4  1  6
  5  3  1  0
  5  6  2  0
  7  5  1  0
  8  7  1  0
  9 10  1  0
  8  9  1  1
 10 11  2  0
 12  8  1  0
 13 12  2  0
 14 10  1  0
 15 12  1  0
 16 15  1  0
 16 17  1  6
 18 17  1  0
 19 20  1  0
 19 18  1  0
 20 21  1  0
 22 16  1  0
 23 22  1  0
 24 22  2  0
M  END
$$$$
