SDK.pdb
     RDKit          3D

 24 23  0  0  1  0  0  0  0  0999 V2000
   24.4399  -10.7881  -19.0269 O   0  0  0  0  0  0  0  0  0  0  0  0
   23.5154  -10.2296  -18.1423 C   0  0  0  0  0  0  0  0  0  0  0  0
   24.2843   -9.5449  -17.0317 C   0  0  2  0  0  0  0  0  0  0  0  0
   25.0618  -10.5181  -16.3361 N   0  0  0  0  0  0  0  0  0  0  0  0
   23.3849   -8.7736  -16.1170 C   0  0  0  0  0  0  0  0  0  0  0  0
   22.7503   -9.3758  -15.2539 O   0  0  0  0  0  0  0  0  0  0  0  0
   23.2869   -7.3735  -16.2659 N   0  0  0  0  0  0  0  0  0  0  0  0
   22.4989   -6.4385  -15.5509 C   0  0  1  0  0  0  0  0  0  0  0  0
   23.1858   -5.1659  -15.1395 C   0  0  0  0  0  0  0  0  0  0  0  0
   22.3075   -4.3903  -14.2369 C   0  0  0  0  0  0  0  0  0  0  0  0
   21.9357   -4.8900  -13.1554 O   0  0  0  0  0  0  0  0  0  0  0  0
   21.1591   -6.3343  -16.0688 C   0  0  0  0  0  0  0  0  0  0  0  0
   20.9968   -5.9213  -17.2565 O   0  0  0  0  0  0  0  0  0  0  0  0
   21.8765   -3.1010  -14.5637 O   0  0  0  0  0  0  0  0  0  0  0  0
   20.0211   -6.6620  -15.3357 N   0  0  0  0  0  0  0  0  0  0  0  0
   18.6351   -6.5099  -15.9274 C   0  0  1  0  0  0  0  0  0  0  0  0
   17.9286   -7.7681  -15.6328 C   0  0  0  0  0  0  0  0  0  0  0  0
   17.3022   -8.5616  -16.6852 C   0  0  0  0  0  0  0  0  0  0  0  0
   16.7124   -9.8727  -16.3275 C   0  0  0  0  0  0  0  0  0  0  0  0
   16.1712  -10.6323  -17.5191 C   0  0  0  0  0  0  0  0  0  0  0  0
   15.8476  -11.9869  -17.1383 N   0  0  0  0  0  0  0  0  0  0  0  0
   18.1353   -5.2763  -15.3285 C   0  0  0  0  0  0  0  0  0  0  0  0
   18.6273   -4.8667  -14.0733 O   0  0  0  0  0  0  0  0  0  0  0  0
   17.2895   -4.5175  -15.8225 O   0  0  0  0  0  0  0  0  0  0  0  0
  2  1  1  0
  2  3  1  0
  3  4  1  1
  5  3  1  0
  5  6  2  0
  7  5  1  0
  8  7  1  0
  9 10  1  0
  8  9  1  6
 10 11  2  0
 12  8  1  0
 13 12  2  0
 14 10  1  0
 15 12  1  0
 16 15  1  0
 16 17  1  1
 18 17  1  0
 19 20  1  0
 19 18  1  0
 20 21  1  0
 22 16  1  0
 23 22  1  0
 24 22  2  0
M  END
$$$$
