FSW.pdb
     RDKit          3D

 32 34  0  0  1  0  0  0  0  0999 V2000
   20.8408  -20.0652  -14.7154 N   0  0  0  0  0  0  0  0  0  0  0  0
   22.1162  -19.3545  -14.6915 C   0  0  1  0  0  0  0  0  0  0  0  0
   21.8546  -18.1352  -13.8023 C   0  0  0  0  0  0  0  0  0  0  0  0
   21.3951  -16.9824  -14.5804 C   0  0  0  0  0  0  0  0  0  0  0  0
   22.2590  -16.2089  -15.2975 C   0  0  0  0  0  0  0  0  0  0  0  0
   21.8719  -15.1158  -16.0482 C   0  0  0  0  0  0  0  0  0  0  0  0
   20.5269  -14.7971  -16.0645 C   0  0  0  0  0  0  0  0  0  0  0  0
   19.6328  -15.5603  -15.3501 C   0  0  0  0  0  0  0  0  0  0  0  0
   20.0541  -16.6522  -14.6065 C   0  0  0  0  0  0  0  0  0  0  0  0
   23.1920  -20.1619  -14.0589 C   0  0  0  0  0  0  0  0  0  0  0  0
   22.9647  -20.9618  -13.0804 O   0  0  0  0  0  0  0  0  0  0  0  0
   27.8675  -21.4990  -14.2476 O   0  0  0  0  0  0  0  0  0  0  0  0
   26.8719  -20.7484  -14.8195 C   0  0  0  0  0  0  0  0  0  0  0  0
   25.6332  -20.8281  -13.9319 C   0  0  2  0  0  0  0  0  0  0  0  0
   24.5379  -20.1068  -14.4930 N   0  0  0  0  0  0  0  0  0  0  0  0
   25.9675  -20.3817  -12.5557 C   0  0  0  0  0  0  0  0  0  0  0  0
   25.7353  -19.1916  -12.2782 O   0  0  0  0  0  0  0  0  0  0  0  0
   26.5256  -21.1875  -11.5408 N   0  0  0  0  0  0  0  0  0  0  0  0
   26.9973  -20.6757  -10.2616 C   0  0  1  0  0  0  0  0  0  0  0  0
   25.9938  -19.9117   -9.5176 C   0  0  0  0  0  0  0  0  0  0  0  0
   26.5764  -19.2296   -8.3360 C   0  0  0  0  0  0  0  0  0  0  0  0
   27.0413  -17.9319   -8.2481 C   0  0  0  0  0  0  0  0  0  0  0  0
   27.5285  -17.6942   -7.0215 N   0  0  0  0  0  0  0  0  0  0  0  0
   27.4061  -18.8023   -6.2656 C   0  0  0  0  0  0  0  0  0  0  0  0
   27.7499  -19.0338   -4.9519 C   0  0  0  0  0  0  0  0  0  0  0  0
   27.4782  -20.3078   -4.4265 C   0  0  0  0  0  0  0  0  0  0  0  0
   26.8877  -21.2765   -5.2128 C   0  0  0  0  0  0  0  0  0  0  0  0
   26.5696  -20.9863   -6.5129 C   0  0  0  0  0  0  0  0  0  0  0  0
   26.8122  -19.7714   -7.0708 C   0  0  0  0  0  0  0  0  0  0  0  0
   27.7787  -21.6493   -9.5144 C   0  0  0  0  0  0  0  0  0  0  0  0
   28.9369  -21.3721   -9.1436 O   0  0  0  0  0  0  0  0  0  0  0  0
   27.2624  -22.8913   -9.1975 O   0  0  0  0  0  0  0  0  0  0  0  0
  2  1  1  1
  3  2  1  0
  4  3  1  0
  5  4  2  0
  6  5  1  0
  7  8  1  0
  7  6  2  0
  8  9  2  0
  9  4  1  0
 10 11  2  0
 10  2  1  0
 12 13  1  0
 14 13  1  6
 14 15  1  0
 15 10  1  0
 16 14  1  0
 17 16  2  0
 18 16  1  0
 19 20  1  1
 19 18  1  0
 21 20  1  0
 22 21  2  0
 23 24  1  0
 23 22  1  0
 24 29  2  0
 25 24  1  0
 25 26  2  0
 26 27  1  0
 27 28  2  0
 29 21  1  0
 29 28  1  0
 30 32  1  0
 30 19  1  0
 31 30  2  0
M  END
$$$$
