FSW.pdb
     RDKit          3D

 32 34  0  0  1  0  0  0  0  0999 V2000
  -31.1349    8.7523   -5.9081 N   0  0  0  0  0  0  0  0  0  0  0  0
  -30.6592    9.3156   -4.6477 C   0  0  1  0  0  0  0  0  0  0  0  0
  -30.4004    8.0946   -3.7600 C   0  0  0  0  0  0  0  0  0  0  0  0
  -30.0084    8.4815   -2.4027 C   0  0  0  0  0  0  0  0  0  0  0  0
  -29.0712    9.4445   -2.1723 C   0  0  0  0  0  0  0  0  0  0  0  0
  -28.6727    9.8447   -0.9115 C   0  0  0  0  0  0  0  0  0  0  0  0
  -29.2657    9.2241    0.1720 C   0  0  0  0  0  0  0  0  0  0  0  0
  -30.2144    8.2490   -0.0312 C   0  0  0  0  0  0  0  0  0  0  0  0
  -30.5927    7.8704   -1.3104 C   0  0  0  0  0  0  0  0  0  0  0  0
  -29.3739   10.0439   -4.8129 C   0  0  0  0  0  0  0  0  0  0  0  0
  -28.3946    9.9023   -3.9945 O   0  0  0  0  0  0  0  0  0  0  0  0
  -30.2061   12.4134   -7.5864 O   0  0  0  0  0  0  0  0  0  0  0  0
  -29.4994   11.4408   -8.2471 C   0  0  0  0  0  0  0  0  0  0  0  0
  -28.7741   10.5822   -7.2150 C   0  0  2  0  0  0  0  0  0  0  0  0
  -29.1409   10.9396   -5.8836 N   0  0  0  0  0  0  0  0  0  0  0  0
  -27.3081   10.6486   -7.4421 C   0  0  0  0  0  0  0  0  0  0  0  0
  -26.6489   11.3555   -6.6592 O   0  0  0  0  0  0  0  0  0  0  0  0
  -26.6021    9.9833   -8.4667 N   0  0  0  0  0  0  0  0  0  0  0  0
  -27.2069    9.5342   -9.7131 C   0  0  1  0  0  0  0  0  0  0  0  0
  -26.3256    9.6430  -10.8775 C   0  0  0  0  0  0  0  0  0  0  0  0
  -26.2997    8.3925  -11.6752 C   0  0  0  0  0  0  0  0  0  0  0  0
  -27.1203    8.0401  -12.7289 C   0  0  0  0  0  0  0  0  0  0  0  0
  -26.8108    6.8118  -13.1692 N   0  0  0  0  0  0  0  0  0  0  0  0
  -25.7935    6.3148  -12.4395 C   0  0  0  0  0  0  0  0  0  0  0  0
  -25.1322    5.1096  -12.5276 C   0  0  0  0  0  0  0  0  0  0  0  0
  -24.0818    4.8799  -11.6237 C   0  0  0  0  0  0  0  0  0  0  0  0
  -23.7403    5.8386  -10.6913 C   0  0  0  0  0  0  0  0  0  0  0  0
  -24.4360    7.0177  -10.6523 C   0  0  0  0  0  0  0  0  0  0  0  0
  -25.4608    7.2897  -11.5019 C   0  0  0  0  0  0  0  0  0  0  0  0
  -27.9613    8.2991   -9.5648 C   0  0  0  0  0  0  0  0  0  0  0  0
  -27.5584    7.4072   -8.7914 O   0  0  0  0  0  0  0  0  0  0  0  0
  -29.1322    8.0858  -10.2669 O   0  0  0  0  0  0  0  0  0  0  0  0
  2  1  1  6
  3  2  1  0
  4  3  1  0
  5  4  2  0
  6  5  1  0
  7  8  1  0
  7  6  2  0
  8  9  2  0
  9  4  1  0
 10 11  2  0
 10  2  1  0
 12 13  1  0
 14 13  1  6
 14 15  1  0
 15 10  1  0
 16 14  1  0
 17 16  2  0
 18 16  1  0
 19 20  1  6
 19 18  1  0
 21 20  1  0
 22 21  2  0
 23 24  1  0
 23 22  1  0
 24 29  2  0
 25 24  1  0
 25 26  2  0
 26 27  1  0
 27 28  2  0
 29 21  1  0
 29 28  1  0
 30 32  1  0
 30 19  1  0
 31 30  2  0
M  END
$$$$
