FSW.pdb
     RDKit          3D

 32 34  0  0  1  0  0  0  0  0999 V2000
   24.3762  -13.6683  -19.6541 N   0  0  0  0  0  0  0  0  0  0  0  0
   24.6260  -12.2520  -19.9074 C   0  0  1  0  0  0  0  0  0  0  0  0
   23.4640  -11.8164  -20.8051 C   0  0  0  0  0  0  0  0  0  0  0  0
   23.5855  -12.3657  -22.1576 C   0  0  0  0  0  0  0  0  0  0  0  0
   24.4621  -11.8510  -23.0663 C   0  0  0  0  0  0  0  0  0  0  0  0
   24.6140  -12.3376  -24.3502 C   0  0  0  0  0  0  0  0  0  0  0  0
   23.8247  -13.4090  -24.7240 C   0  0  0  0  0  0  0  0  0  0  0  0
   22.9317  -13.9483  -23.8275 C   0  0  0  0  0  0  0  0  0  0  0  0
   22.8037  -13.4365  -22.5451 C   0  0  0  0  0  0  0  0  0  0  0  0
   24.5704  -11.4450  -18.6604 C   0  0  0  0  0  0  0  0  0  0  0  0
   23.7840  -11.7371  -17.6881 O   0  0  0  0  0  0  0  0  0  0  0  0
   27.2679   -8.3096  -18.0775 O   0  0  0  0  0  0  0  0  0  0  0  0
   26.7155   -8.8999  -16.9692 C   0  0  0  0  0  0  0  0  0  0  0  0
   25.3298   -9.4220  -17.3372 C   0  0  2  0  0  0  0  0  0  0  0  0
   25.3811  -10.3028  -18.4583 N   0  0  0  0  0  0  0  0  0  0  0  0
   24.3992   -8.2838  -17.5460 C   0  0  0  0  0  0  0  0  0  0  0  0
   24.4370   -7.7223  -18.6553 O   0  0  0  0  0  0  0  0  0  0  0  0
   23.4817   -7.7850  -16.5973 N   0  0  0  0  0  0  0  0  0  0  0  0
   22.5641   -6.6833  -16.8528 C   0  0  1  0  0  0  0  0  0  0  0  0
   21.8936   -6.7539  -18.1527 C   0  0  0  0  0  0  0  0  0  0  0  0
   20.7373   -7.6832  -18.1332 C   0  0  0  0  0  0  0  0  0  0  0  0
   19.7384   -7.7762  -17.1839 C   0  0  0  0  0  0  0  0  0  0  0  0
   18.8889   -8.7652  -17.4976 N   0  0  0  0  0  0  0  0  0  0  0  0
   19.2842   -9.3520  -18.6438 C   0  0  0  0  0  0  0  0  0  0  0  0
   18.7281  -10.3910  -19.3571 C   0  0  0  0  0  0  0  0  0  0  0  0
   19.3692  -10.7761  -20.5461 C   0  0  0  0  0  0  0  0  0  0  0  0
   20.5111  -10.1246  -20.9668 C   0  0  0  0  0  0  0  0  0  0  0  0
   21.0169   -9.0987  -20.2136 C   0  0  0  0  0  0  0  0  0  0  0  0
   20.4372   -8.6878  -19.0554 C   0  0  0  0  0  0  0  0  0  0  0  0
   21.7424   -6.3503  -15.6993 C   0  0  0  0  0  0  0  0  0  0  0  0
   21.0971   -5.2831  -15.6761 O   0  0  0  0  0  0  0  0  0  0  0  0
   21.6545   -7.1998  -14.6129 O   0  0  0  0  0  0  0  0  0  0  0  0
  2  1  1  1
  3  2  1  0
  4  3  1  0
  5  4  2  0
  6  5  1  0
  7  8  1  0
  7  6  2  0
  8  9  2  0
  9  4  1  0
 10 11  2  0
 10  2  1  0
 12 13  1  0
 14 13  1  6
 14 15  1  0
 15 10  1  0
 16 14  1  0
 17 16  2  0
 18 16  1  0
 19 20  1  6
 19 18  1  0
 21 20  1  0
 22 21  2  0
 23 24  1  0
 23 22  1  0
 24 29  2  0
 25 24  1  0
 25 26  2  0
 26 27  1  0
 27 28  2  0
 29 21  1  0
 29 28  1  0
 30 32  1  0
 30 19  1  0
 31 30  2  0
M  END
$$$$
