DEI.pdb
     RDKit          3D

 26 25  0  0  1  0  0  0  0  0999 V2000
    9.2776  -18.0863   18.4035 N   0  0  0  0  0  0  0  0  0  0  0  0
    9.2138  -16.7097   18.7789 C   0  0  1  0  0  0  0  0  0  0  0  0
    8.4648  -15.8808   17.7697 C   0  0  0  0  0  0  0  0  0  0  0  0
    9.3089  -15.6824   16.5787 C   0  0  0  0  0  0  0  0  0  0  0  0
   10.5087  -16.0862   16.5170 O   0  0  0  0  0  0  0  0  0  0  0  0
    8.6385  -16.5332   20.1569 C   0  0  0  0  0  0  0  0  0  0  0  0
    7.5444  -15.9388   20.3296 O   0  0  0  0  0  0  0  0  0  0  0  0
    8.7861  -15.0324   15.4785 O   0  0  0  0  0  0  0  0  0  0  0  0
    9.2950  -17.0238   21.3195 N   0  0  0  0  0  0  0  0  0  0  0  0
    8.6226  -17.1318   22.5997 C   0  0  1  0  0  0  0  0  0  0  0  0
    8.8217  -18.4929   23.2278 C   0  0  0  0  0  0  0  0  0  0  0  0
    8.1155  -19.5803   22.4759 C   0  0  0  0  0  0  0  0  0  0  0  0
    8.3471  -20.8689   23.1678 C   0  0  0  0  0  0  0  0  0  0  0  0
    7.8201  -21.0926   24.2832 O   0  0  0  0  0  0  0  0  0  0  0  0
    9.0183  -16.0438   23.5254 C   0  0  0  0  0  0  0  0  0  0  0  0
   10.2463  -15.7815   23.6012 O   0  0  0  0  0  0  0  0  0  0  0  0
    9.1426  -21.8623   22.6186 O   0  0  0  0  0  0  0  0  0  0  0  0
    6.6220  -11.1424   26.5754 C   0  0  0  0  0  0  0  0  0  0  0  0
    7.7445  -12.1099   26.3264 C   0  0  0  0  0  0  0  0  0  0  0  0
    7.3757  -13.2644   25.4509 C   0  0  2  0  0  0  0  0  0  0  0  0
    6.2307  -13.9983   26.1134 C   0  0  0  0  0  0  0  0  0  0  0  0
    8.4934  -14.2500   25.2362 C   0  0  2  0  0  0  0  0  0  0  0  0
    8.1249  -15.3009   24.3088 N   0  0  0  0  0  0  0  0  0  0  0  0
    8.7732  -14.8779   26.5485 C   0  0  0  0  0  0  0  0  0  0  0  0
    8.2854  -15.9996   26.8098 O   0  0  0  0  0  0  0  0  0  0  0  0
    9.5566  -14.2785   27.5113 O   0  0  0  0  0  0  0  0  0  0  0  0
  2  1  1  6
  3  2  1  0
  3  4  1  0
  4  8  1  0
  4  5  2  0
  6  2  1  0
  6  7  2  0
  9  6  1  0
 10  9  1  0
 10 11  1  1
 12 11  1  0
 12 13  1  0
 13 14  2  0
 15 10  1  0
 15 23  1  0
 16 15  2  0
 17 13  1  0
 19 18  1  0
 20 19  1  0
 20 21  1  1
 22 23  1  6
 22 20  1  0
 24 22  1  0
 25 24  2  0
 26 24  1  0
M  END
$$$$
