DEI.pdb
     RDKit          3D

 26 25  0  0  1  0  0  0  0  0999 V2000
    9.2528  -17.2301   18.5921 N   0  0  0  0  0  0  0  0  0  0  0  0
    9.0016  -15.9849   19.2451 C   0  0  1  0  0  0  0  0  0  0  0  0
    7.8975  -15.2078   18.5790 C   0  0  0  0  0  0  0  0  0  0  0  0
    8.1463  -15.1533   17.1279 C   0  0  0  0  0  0  0  0  0  0  0  0
    9.3137  -15.1125   16.6363 O   0  0  0  0  0  0  0  0  0  0  0  0
    8.7236  -16.1697   20.7112 C   0  0  0  0  0  0  0  0  0  0  0  0
    7.6663  -15.7295   21.2295 O   0  0  0  0  0  0  0  0  0  0  0  0
    7.0752  -15.1458   16.2567 O   0  0  0  0  0  0  0  0  0  0  0  0
    9.6315  -16.8434   21.5744 N   0  0  0  0  0  0  0  0  0  0  0  0
    9.3411  -17.0707   22.9768 C   0  0  1  0  0  0  0  0  0  0  0  0
   10.1650  -18.2034   23.5466 C   0  0  0  0  0  0  0  0  0  0  0  0
    9.8822  -18.4444   24.9987 C   0  0  0  0  0  0  0  0  0  0  0  0
   10.7630  -19.5314   25.4839 C   0  0  0  0  0  0  0  0  0  0  0  0
   11.0883  -20.4714   24.7206 O   0  0  0  0  0  0  0  0  0  0  0  0
    9.4904  -15.8336   23.7797 C   0  0  0  0  0  0  0  0  0  0  0  0
   10.5962  -15.2384   23.7050 O   0  0  0  0  0  0  0  0  0  0  0  0
   11.2546  -19.5522   26.7798 O   0  0  0  0  0  0  0  0  0  0  0  0
    6.0516  -11.4296   26.5498 C   0  0  0  0  0  0  0  0  0  0  0  0
    7.3771  -12.1010   26.3254 C   0  0  0  0  0  0  0  0  0  0  0  0
    7.2977  -13.3632   25.5279 C   0  0  2  0  0  0  0  0  0  0  0  0
    6.3374  -14.2951   26.2337 C   0  0  0  0  0  0  0  0  0  0  0  0
    8.6142  -14.0790   25.3840 C   0  0  2  0  0  0  0  0  0  0  0  0
    8.4934  -15.2942   24.6036 N   0  0  0  0  0  0  0  0  0  0  0  0
    9.0522  -14.4555   26.7483 C   0  0  0  0  0  0  0  0  0  0  0  0
    9.4385  -13.5655   27.5375 O   0  0  0  0  0  0  0  0  0  0  0  0
    9.0552  -15.7582   27.1988 O   0  0  0  0  0  0  0  0  0  0  0  0
  2  1  1  6
  3  2  1  0
  3  4  1  0
  4  8  1  0
  4  5  2  0
  6  2  1  0
  6  7  2  0
  9  6  1  0
 10  9  1  0
 10 11  1  1
 12 11  1  0
 12 13  1  0
 13 14  2  0
 15 10  1  0
 15 23  1  0
 16 15  2  0
 17 13  1  0
 19 18  1  0
 20 19  1  0
 20 21  1  1
 22 23  1  6
 22 20  1  0
 24 22  1  0
 25 24  2  0
 26 24  1  0
M  END
$$$$
