DEI.pdb
     RDKit          3D

 26 25  0  0  1  0  0  0  0  0999 V2000
    7.6933  -18.3267   19.6913 N   0  0  0  0  0  0  0  0  0  0  0  0
    8.0602  -16.9960   20.0585 C   0  0  1  0  0  0  0  0  0  0  0  0
    7.4846  -15.9696   19.1195 C   0  0  0  0  0  0  0  0  0  0  0  0
    8.0163  -16.1958   17.7643 C   0  0  0  0  0  0  0  0  0  0  0  0
    7.2769  -16.2157   16.7352 O   0  0  0  0  0  0  0  0  0  0  0  0
    7.6940  -16.6895   21.4842 C   0  0  0  0  0  0  0  0  0  0  0  0
    6.9764  -15.6973   21.7687 O   0  0  0  0  0  0  0  0  0  0  0  0
    9.3717  -16.3956   17.5929 O   0  0  0  0  0  0  0  0  0  0  0  0
    8.1356  -17.4965   22.5692 N   0  0  0  0  0  0  0  0  0  0  0  0
    7.6485  -17.3077   23.9218 C   0  0  1  0  0  0  0  0  0  0  0  0
    7.6749  -18.5948   24.7152 C   0  0  0  0  0  0  0  0  0  0  0  0
    7.2095  -18.4076   26.1276 C   0  0  0  0  0  0  0  0  0  0  0  0
    7.2949  -19.7053   26.8357 C   0  0  0  0  0  0  0  0  0  0  0  0
    7.7196  -19.7570   28.0142 O   0  0  0  0  0  0  0  0  0  0  0  0
    8.3738  -16.2223   24.6240 C   0  0  0  0  0  0  0  0  0  0  0  0
    9.6293  -16.2989   24.6439 O   0  0  0  0  0  0  0  0  0  0  0  0
    6.9148  -20.8945   26.2335 O   0  0  0  0  0  0  0  0  0  0  0  0
    5.5496  -11.6991   26.8998 C   0  0  0  0  0  0  0  0  0  0  0  0
    6.3383  -12.9748   26.8060 C   0  0  0  0  0  0  0  0  0  0  0  0
    7.6496  -12.8343   26.1018 C   0  0  2  0  0  0  0  0  0  0  0  0
    7.3670  -12.3777   24.6875 C   0  0  0  0  0  0  0  0  0  0  0  0
    8.4420  -14.1121   26.0250 C   0  0  2  0  0  0  0  0  0  0  0  0
    7.7588  -15.1338   25.2570 N   0  0  0  0  0  0  0  0  0  0  0  0
    8.5936  -14.6100   27.4120 C   0  0  0  0  0  0  0  0  0  0  0  0
    8.0069  -15.6598   27.7560 O   0  0  0  0  0  0  0  0  0  0  0  0
    9.3610  -13.9643   28.3576 O   0  0  0  0  0  0  0  0  0  0  0  0
  2  1  1  6
  3  2  1  0
  3  4  1  0
  4  8  1  0
  4  5  2  0
  6  2  1  0
  6  7  2  0
  9  6  1  0
 10  9  1  0
 10 11  1  1
 12 11  1  0
 12 13  1  0
 13 14  2  0
 15 10  1  0
 15 23  1  0
 16 15  2  0
 17 13  1  0
 19 18  1  0
 20 19  1  0
 20 21  1  6
 22 23  1  6
 22 20  1  0
 24 22  1  0
 25 24  2  0
 26 24  1  0
M  END
$$$$
