DEI.pdb
     RDKit          3D

 26 25  0  0  1  0  0  0  0  0999 V2000
    8.2110  -16.2018   18.6952 N   0  0  0  0  0  0  0  0  0  0  0  0
    8.4571  -14.8707   19.1507 C   0  0  1  0  0  0  0  0  0  0  0  0
    7.8118  -13.8394   18.2638 C   0  0  0  0  0  0  0  0  0  0  0  0
    8.4444  -13.8753   16.9338 C   0  0  0  0  0  0  0  0  0  0  0  0
    9.2914  -14.7586   16.6041 O   0  0  0  0  0  0  0  0  0  0  0  0
    8.0429  -14.6858   20.5842 C   0  0  0  0  0  0  0  0  0  0  0  0
    8.4899  -13.7308   21.2686 O   0  0  0  0  0  0  0  0  0  0  0  0
    8.1114  -12.9153   15.9990 O   0  0  0  0  0  0  0  0  0  0  0  0
    7.1358  -15.5710   21.2299 N   0  0  0  0  0  0  0  0  0  0  0  0
    7.5279  -16.3918   22.3592 C   0  0  1  0  0  0  0  0  0  0  0  0
    8.3423  -17.5909   21.9285 C   0  0  0  0  0  0  0  0  0  0  0  0
    8.7652  -18.4430   23.0868 C   0  0  0  0  0  0  0  0  0  0  0  0
    9.5217  -19.6078   22.5732 C   0  0  0  0  0  0  0  0  0  0  0  0
   10.0473  -19.5699   21.4355 O   0  0  0  0  0  0  0  0  0  0  0  0
    8.2313  -15.6027   23.3982 C   0  0  0  0  0  0  0  0  0  0  0  0
    9.4368  -15.3195   23.1767 O   0  0  0  0  0  0  0  0  0  0  0  0
    9.6761  -20.7668   23.3176 O   0  0  0  0  0  0  0  0  0  0  0  0
    5.9432  -11.3521   25.8272 C   0  0  0  0  0  0  0  0  0  0  0  0
    6.9199  -12.3374   25.2498 C   0  0  0  0  0  0  0  0  0  0  0  0
    7.4227  -13.3482   26.2301 C   0  0  2  0  0  0  0  0  0  0  0  0
    8.2171  -12.6113   27.2859 C   0  0  0  0  0  0  0  0  0  0  0  0
    8.3195  -14.3943   25.6235 C   0  0  2  0  0  0  0  0  0  0  0  0
    7.6474  -15.1595   24.5926 N   0  0  0  0  0  0  0  0  0  0  0  0
    8.6930  -15.3267   26.7125 C   0  0  0  0  0  0  0  0  0  0  0  0
    8.0045  -16.3527   26.9065 O   0  0  0  0  0  0  0  0  0  0  0  0
    9.7785  -15.1170   27.5358 O   0  0  0  0  0  0  0  0  0  0  0  0
  2  1  1  6
  3  2  1  0
  3  4  1  0
  4  8  1  0
  4  5  2  0
  6  2  1  0
  6  7  2  0
  9  6  1  0
 10  9  1  0
 10 11  1  6
 12 11  1  0
 12 13  1  0
 13 14  2  0
 15 10  1  0
 15 23  1  0
 16 15  2  0
 17 13  1  0
 19 18  1  0
 20 19  1  0
 20 21  1  1
 22 23  1  6
 22 20  1  0
 24 22  1  0
 25 24  2  0
 26 24  1  0
M  END
$$$$
