DEI.pdb
     RDKit          3D

 26 25  0  0  1  0  0  0  0  0999 V2000
   10.1433  -13.4767   18.9027 N   0  0  0  0  0  0  0  0  0  0  0  0
    8.8552  -13.0203   19.3182 C   0  0  1  0  0  0  0  0  0  0  0  0
    7.8668  -13.0017   18.1828 C   0  0  0  0  0  0  0  0  0  0  0  0
    8.1778  -14.0966   17.2474 C   0  0  0  0  0  0  0  0  0  0  0  0
    9.0187  -15.0060   17.5159 O   0  0  0  0  0  0  0  0  0  0  0  0
    8.3289  -13.8169   20.4798 C   0  0  0  0  0  0  0  0  0  0  0  0
    7.2798  -13.4701   21.0794 O   0  0  0  0  0  0  0  0  0  0  0  0
    7.5358  -14.1471   16.0261 O   0  0  0  0  0  0  0  0  0  0  0  0
    8.9832  -14.9880   20.9527 N   0  0  0  0  0  0  0  0  0  0  0  0
    8.5268  -15.7089   22.1252 C   0  0  1  0  0  0  0  0  0  0  0  0
    8.8780  -17.1781   22.0555 C   0  0  0  0  0  0  0  0  0  0  0  0
   10.3561  -17.4182   22.1192 C   0  0  0  0  0  0  0  0  0  0  0  0
   10.5987  -18.7604   22.6957 C   0  0  0  0  0  0  0  0  0  0  0  0
    9.6351  -19.5026   22.9998 O   0  0  0  0  0  0  0  0  0  0  0  0
    9.0193  -15.0920   23.3798 C   0  0  0  0  0  0  0  0  0  0  0  0
   10.1992  -14.6559   23.3728 O   0  0  0  0  0  0  0  0  0  0  0  0
   11.8796  -19.2412   22.9182 O   0  0  0  0  0  0  0  0  0  0  0  0
    5.4778  -12.7235   27.1289 C   0  0  0  0  0  0  0  0  0  0  0  0
    6.3422  -13.6610   26.3339 C   0  0  0  0  0  0  0  0  0  0  0  0
    7.7643  -13.2191   26.2004 C   0  0  2  0  0  0  0  0  0  0  0  0
    7.8116  -12.1271   25.1544 C   0  0  0  0  0  0  0  0  0  0  0  0
    8.7060  -14.3120   25.7701 C   0  0  2  0  0  0  0  0  0  0  0  0
    8.2653  -14.9661   24.5543 N   0  0  0  0  0  0  0  0  0  0  0  0
    8.7175  -15.3229   26.8529 C   0  0  0  0  0  0  0  0  0  0  0  0
    9.1987  -15.0241   27.9680 O   0  0  0  0  0  0  0  0  0  0  0  0
    8.2164  -16.5967   26.6907 O   0  0  0  0  0  0  0  0  0  0  0  0
  2  1  1  6
  3  2  1  0
  3  4  1  0
  4  8  1  0
  4  5  2  0
  6  2  1  0
  6  7  2  0
  9  6  1  0
 10  9  1  0
 10 11  1  6
 12 11  1  0
 12 13  1  0
 13 14  2  0
 15 10  1  0
 15 23  1  0
 16 15  2  0
 17 13  1  0
 19 18  1  0
 20 19  1  0
 20 21  1  6
 22 23  1  6
 22 20  1  0
 24 22  1  0
 25 24  2  0
 26 24  1  0
M  END
$$$$
