DEI.pdb
     RDKit          3D

 26 25  0  0  1  0  0  0  0  0999 V2000
    8.6062  -16.4342   19.1432 N   0  0  0  0  0  0  0  0  0  0  0  0
    8.2708  -15.1628   19.7009 C   0  0  1  0  0  0  0  0  0  0  0  0
    7.3590  -14.3717   18.8013 C   0  0  0  0  0  0  0  0  0  0  0  0
    7.9114  -14.3597   17.4356 C   0  0  0  0  0  0  0  0  0  0  0  0
    8.0870  -15.4180   16.7608 O   0  0  0  0  0  0  0  0  0  0  0  0
    7.6873  -15.2949   21.0804 C   0  0  0  0  0  0  0  0  0  0  0  0
    7.2347  -14.2929   21.6898 O   0  0  0  0  0  0  0  0  0  0  0  0
    8.2561  -13.1555   16.8548 O   0  0  0  0  0  0  0  0  0  0  0  0
    7.6190  -16.5445   21.7566 N   0  0  0  0  0  0  0  0  0  0  0  0
    7.0432  -16.6768   23.0808 C   0  0  1  0  0  0  0  0  0  0  0  0
    6.7646  -18.1208   23.4325 C   0  0  0  0  0  0  0  0  0  0  0  0
    7.2640  -18.4852   24.7980 C   0  0  0  0  0  0  0  0  0  0  0  0
    6.9318  -19.9030   25.0666 C   0  0  0  0  0  0  0  0  0  0  0  0
    7.3556  -20.8074   24.3087 O   0  0  0  0  0  0  0  0  0  0  0  0
    7.8766  -16.0175   24.1142 C   0  0  0  0  0  0  0  0  0  0  0  0
    9.1207  -16.1841   24.0314 O   0  0  0  0  0  0  0  0  0  0  0  0
    6.1519  -20.2801   26.1487 O   0  0  0  0  0  0  0  0  0  0  0  0
    5.6362  -11.5400   26.5554 C   0  0  0  0  0  0  0  0  0  0  0  0
    6.7434  -12.3261   25.9116 C   0  0  0  0  0  0  0  0  0  0  0  0
    7.3234  -13.3941   26.7824 C   0  0  2  0  0  0  0  0  0  0  0  0
    8.2025  -12.7215   27.8137 C   0  0  0  0  0  0  0  0  0  0  0  0
    8.1662  -14.3969   26.0404 C   0  0  2  0  0  0  0  0  0  0  0  0
    7.3738  -15.2329   25.1609 N   0  0  0  0  0  0  0  0  0  0  0  0
    8.7925  -15.2720   27.0586 C   0  0  0  0  0  0  0  0  0  0  0  0
    8.2619  -16.3703   27.3355 O   0  0  0  0  0  0  0  0  0  0  0  0
    9.9489  -14.9313   27.7268 O   0  0  0  0  0  0  0  0  0  0  0  0
  2  1  1  6
  3  2  1  0
  3  4  1  0
  4  8  1  0
  4  5  2  0
  6  2  1  0
  6  7  2  0
  9  6  1  0
 10  9  1  0
 10 11  1  1
 12 11  1  0
 12 13  1  0
 13 14  2  0
 15 10  1  0
 15 23  1  0
 16 15  2  0
 17 13  1  0
 19 18  1  0
 20 19  1  0
 20 21  1  1
 22 23  1  6
 22 20  1  0
 24 22  1  0
 25 24  2  0
 26 24  1  0
M  END
$$$$
