DEI.pdb
     RDKit          3D

 26 25  0  0  1  0  0  0  0  0999 V2000
    8.7850  -18.2982   20.0144 N   0  0  0  0  0  0  0  0  0  0  0  0
    7.9345  -17.1540   20.1007 C   0  0  1  0  0  0  0  0  0  0  0  0
    6.7114  -17.2898   19.2334 C   0  0  0  0  0  0  0  0  0  0  0  0
    7.1210  -17.6561   17.8665 C   0  0  0  0  0  0  0  0  0  0  0  0
    8.3294  -17.8694   17.5497 O   0  0  0  0  0  0  0  0  0  0  0  0
    7.5568  -16.8453   21.5229 C   0  0  0  0  0  0  0  0  0  0  0  0
    6.7787  -15.8958   21.7939 O   0  0  0  0  0  0  0  0  0  0  0  0
    6.1615  -17.7754   16.8808 O   0  0  0  0  0  0  0  0  0  0  0  0
    8.0546  -17.6024   22.6194 N   0  0  0  0  0  0  0  0  0  0  0  0
    7.6704  -17.3237   23.9896 C   0  0  1  0  0  0  0  0  0  0  0  0
    7.8406  -18.5340   24.8800 C   0  0  0  0  0  0  0  0  0  0  0  0
    7.4263  -18.2674   26.2956 C   0  0  0  0  0  0  0  0  0  0  0  0
    7.5965  -19.5080   27.0859 C   0  0  0  0  0  0  0  0  0  0  0  0
    6.6248  -20.2779   27.2733 O   0  0  0  0  0  0  0  0  0  0  0  0
    8.3840  -16.1443   24.5346 C   0  0  0  0  0  0  0  0  0  0  0  0
    9.6341  -16.1231   24.3957 O   0  0  0  0  0  0  0  0  0  0  0  0
    8.8167  -19.8614   27.6405 O   0  0  0  0  0  0  0  0  0  0  0  0
    5.4637  -11.6005   26.5825 C   0  0  0  0  0  0  0  0  0  0  0  0
    6.2843  -12.8545   26.4728 C   0  0  0  0  0  0  0  0  0  0  0  0
    7.5661  -12.6845   25.7222 C   0  0  2  0  0  0  0  0  0  0  0  0
    7.2199  -12.3650   24.2846 C   0  0  0  0  0  0  0  0  0  0  0  0
    8.4429  -13.9083   25.7251 C   0  0  2  0  0  0  0  0  0  0  0  0
    7.7636  -15.0688   25.1844 N   0  0  0  0  0  0  0  0  0  0  0  0
    8.7791  -14.1951   27.1391 C   0  0  0  0  0  0  0  0  0  0  0  0
    9.4696  -13.3763   27.7850 O   0  0  0  0  0  0  0  0  0  0  0  0
    8.3626  -15.3370   27.7890 O   0  0  0  0  0  0  0  0  0  0  0  0
  2  1  1  1
  3  2  1  0
  3  4  1  0
  4  8  1  0
  4  5  2  0
  6  2  1  0
  6  7  2  0
  9  6  1  0
 10  9  1  0
 10 11  1  1
 12 11  1  0
 12 13  1  0
 13 14  2  0
 15 10  1  0
 15 23  1  0
 16 15  2  0
 17 13  1  0
 19 18  1  0
 20 19  1  0
 20 21  1  6
 22 23  1  1
 22 20  1  0
 24 22  1  0
 25 24  2  0
 26 24  1  0
M  END
$$$$
