DEI.pdb
     RDKit          3D

 26 25  0  0  1  0  0  0  0  0999 V2000
    9.4071  -16.9283   19.5639 N   0  0  0  0  0  0  0  0  0  0  0  0
    8.1961  -16.1797   19.6788 C   0  0  1  0  0  0  0  0  0  0  0  0
    7.1734  -16.5951   18.6551 C   0  0  0  0  0  0  0  0  0  0  0  0
    7.8491  -17.2853   17.5427 C   0  0  0  0  0  0  0  0  0  0  0  0
    9.0848  -17.5663   17.5634 O   0  0  0  0  0  0  0  0  0  0  0  0
    7.6277  -16.2480   21.0691 C   0  0  0  0  0  0  0  0  0  0  0  0
    6.5622  -15.6487   21.3623 O   0  0  0  0  0  0  0  0  0  0  0  0
    7.1205  -17.6466   16.4270 O   0  0  0  0  0  0  0  0  0  0  0  0
    8.2588  -16.9848   22.1093 N   0  0  0  0  0  0  0  0  0  0  0  0
    7.7431  -17.0064   23.4644 C   0  0  1  0  0  0  0  0  0  0  0  0
    7.8168  -18.3885   24.0735 C   0  0  0  0  0  0  0  0  0  0  0  0
    6.5390  -19.1553   23.9121 C   0  0  0  0  0  0  0  0  0  0  0  0
    6.6961  -20.4856   24.5431 C   0  0  0  0  0  0  0  0  0  0  0  0
    5.8435  -20.9026   25.3624 O   0  0  0  0  0  0  0  0  0  0  0  0
    8.4070  -15.9981   24.3246 C   0  0  0  0  0  0  0  0  0  0  0  0
    9.6566  -15.8972   24.2201 O   0  0  0  0  0  0  0  0  0  0  0  0
    7.7741  -21.3089   24.2576 O   0  0  0  0  0  0  0  0  0  0  0  0
    5.8668  -11.2958   25.6973 C   0  0  0  0  0  0  0  0  0  0  0  0
    6.8677  -12.3539   25.3276 C   0  0  0  0  0  0  0  0  0  0  0  0
    7.4490  -13.0829   26.4963 C   0  0  2  0  0  0  0  0  0  0  0  0
    8.2395  -12.0860   27.3149 C   0  0  0  0  0  0  0  0  0  0  0  0
    8.3758  -14.2067   26.1162 C   0  0  2  0  0  0  0  0  0  0  0  0
    7.7409  -15.1637   25.2322 N   0  0  0  0  0  0  0  0  0  0  0  0
    8.7353  -14.9120   27.3684 C   0  0  0  0  0  0  0  0  0  0  0  0
    8.0735  -15.9125   27.7222 O   0  0  0  0  0  0  0  0  0  0  0  0
    9.7793  -14.5147   28.1760 O   0  0  0  0  0  0  0  0  0  0  0  0
  2  1  1  1
  3  2  1  0
  3  4  1  0
  4  8  1  0
  4  5  2  0
  6  2  1  0
  6  7  2  0
  9  6  1  0
 10  9  1  0
 10 11  1  1
 12 11  1  0
 12 13  1  0
 13 14  2  0
 15 10  1  0
 15 23  1  0
 16 15  2  0
 17 13  1  0
 19 18  1  0
 20 19  1  0
 20 21  1  1
 22 23  1  6
 22 20  1  0
 24 22  1  0
 25 24  2  0
 26 24  1  0
M  END
$$$$
