DEI.pdb
     RDKit          3D

 26 25  0  0  1  0  0  0  0  0999 V2000
    9.5795  -13.2533   19.0461 N   0  0  0  0  0  0  0  0  0  0  0  0
    8.2557  -13.3388   19.5757 C   0  0  1  0  0  0  0  0  0  0  0  0
    7.2465  -13.7111   18.5223 C   0  0  0  0  0  0  0  0  0  0  0  0
    7.9465  -14.0165   17.2625 C   0  0  0  0  0  0  0  0  0  0  0  0
    7.7349  -13.3742   16.1907 O   0  0  0  0  0  0  0  0  0  0  0  0
    8.1833  -14.2766   20.7487 C   0  0  0  0  0  0  0  0  0  0  0  0
    7.1412  -14.3601   21.4467 O   0  0  0  0  0  0  0  0  0  0  0  0
    8.8724  -15.0403   17.2329 O   0  0  0  0  0  0  0  0  0  0  0  0
    9.2766  -15.1060   21.1229 N   0  0  0  0  0  0  0  0  0  0  0  0
    9.2161  -15.9965   22.2658 C   0  0  1  0  0  0  0  0  0  0  0  0
   10.1788  -17.1546   22.1295 C   0  0  0  0  0  0  0  0  0  0  0  0
   10.1744  -18.0488   23.3324 C   0  0  0  0  0  0  0  0  0  0  0  0
   11.0496  -19.2133   23.0666 C   0  0  0  0  0  0  0  0  0  0  0  0
   11.1120  -20.1591   23.8872 O   0  0  0  0  0  0  0  0  0  0  0  0
    9.4168  -15.2712   23.5428 C   0  0  0  0  0  0  0  0  0  0  0  0
   10.4058  -14.4964   23.6061 O   0  0  0  0  0  0  0  0  0  0  0  0
   11.8217  -19.3021   21.9189 O   0  0  0  0  0  0  0  0  0  0  0  0
    5.8354  -12.2310   25.7625 C   0  0  0  0  0  0  0  0  0  0  0  0
    7.0880  -12.9579   25.3615 C   0  0  0  0  0  0  0  0  0  0  0  0
    7.5687  -13.9524   26.3692 C   0  0  2  0  0  0  0  0  0  0  0  0
    7.9221  -13.1963   27.6310 C   0  0  0  0  0  0  0  0  0  0  0  0
    8.7877  -14.7218   25.9350 C   0  0  2  0  0  0  0  0  0  0  0  0
    8.5876  -15.3925   24.6660 N   0  0  0  0  0  0  0  0  0  0  0  0
    9.0331  -15.7585   26.9644 C   0  0  0  0  0  0  0  0  0  0  0  0
    8.5680  -16.9081   26.8023 O   0  0  0  0  0  0  0  0  0  0  0  0
    9.7600  -15.5159   28.1102 O   0  0  0  0  0  0  0  0  0  0  0  0
  2  1  1  6
  3  2  1  0
  3  4  1  0
  4  8  1  0
  4  5  2  0
  6  2  1  0
  6  7  2  0
  9  6  1  0
 10  9  1  0
 10 11  1  6
 12 11  1  0
 12 13  1  0
 13 14  2  0
 15 10  1  0
 15 23  1  0
 16 15  2  0
 17 13  1  0
 19 18  1  0
 20 19  1  0
 20 21  1  1
 22 23  1  6
 22 20  1  0
 24 22  1  0
 25 24  2  0
 26 24  1  0
M  END
$$$$
