DEI.pdb
     RDKit          3D

 26 25  0  0  1  0  0  0  0  0999 V2000
   11.0908  -18.6416   18.8014 N   0  0  0  0  0  0  0  0  0  0  0  0
   11.4457  -17.6488   19.7649 C   0  0  1  0  0  0  0  0  0  0  0  0
   12.1258  -16.4633   19.1334 C   0  0  0  0  0  0  0  0  0  0  0  0
   13.4638  -16.8621   18.6631 C   0  0  0  0  0  0  0  0  0  0  0  0
   14.1712  -17.7232   19.2666 O   0  0  0  0  0  0  0  0  0  0  0  0
   10.2612  -17.2185   20.5851 C   0  0  0  0  0  0  0  0  0  0  0  0
    9.2035  -16.8207   20.0345 O   0  0  0  0  0  0  0  0  0  0  0  0
   13.9808  -16.2833   17.5211 O   0  0  0  0  0  0  0  0  0  0  0  0
   10.2778  -17.2397   22.0073 N   0  0  0  0  0  0  0  0  0  0  0  0
    9.0907  -16.9796   22.7985 C   0  0  1  0  0  0  0  0  0  0  0  0
    8.5050  -18.2510   23.3704 C   0  0  0  0  0  0  0  0  0  0  0  0
    9.2507  -19.4746   22.9307 C   0  0  0  0  0  0  0  0  0  0  0  0
    8.5678  -20.6718   23.4722 C   0  0  0  0  0  0  0  0  0  0  0  0
    7.5385  -20.5490   24.1774 O   0  0  0  0  0  0  0  0  0  0  0  0
    9.3419  -15.9733   23.8575 C   0  0  0  0  0  0  0  0  0  0  0  0
   10.4935  -15.9571   24.3635 O   0  0  0  0  0  0  0  0  0  0  0  0
    9.0320  -21.9542   23.2249 O   0  0  0  0  0  0  0  0  0  0  0  0
    6.7322  -10.9095   26.4341 C   0  0  0  0  0  0  0  0  0  0  0  0
    7.6315  -12.1037   26.5866 C   0  0  0  0  0  0  0  0  0  0  0  0
    7.4304  -13.1592   25.5469 C   0  0  2  0  0  0  0  0  0  0  0  0
    6.2519  -14.0070   25.9725 C   0  0  0  0  0  0  0  0  0  0  0  0
    8.6141  -14.0715   25.3653 C   0  0  2  0  0  0  0  0  0  0  0  0
    8.3924  -15.0537   24.3229 N   0  0  0  0  0  0  0  0  0  0  0  0
    8.7995  -14.7975   26.6433 C   0  0  0  0  0  0  0  0  0  0  0  0
    9.2583  -14.1891   27.6351 O   0  0  0  0  0  0  0  0  0  0  0  0
    8.4868  -16.1312   26.7968 O   0  0  0  0  0  0  0  0  0  0  0  0
  2  1  1  6
  3  2  1  0
  3  4  1  0
  4  8  1  0
  4  5  2  0
  6  2  1  0
  6  7  2  0
  9  6  1  0
 10  9  1  0
 10 11  1  1
 12 11  1  0
 12 13  1  0
 13 14  2  0
 15 10  1  0
 15 23  1  0
 16 15  2  0
 17 13  1  0
 19 18  1  0
 20 19  1  0
 20 21  1  1
 22 23  1  6
 22 20  1  0
 24 22  1  0
 25 24  2  0
 26 24  1  0
M  END
$$$$
