IAG.pdb
     RDKit          3D

 18 17  0  0  1  0  0  0  0  0999 V2000
   23.5731  -13.7541  -14.7019 C   0  0  0  0  0  0  0  0  0  0  0  0
   24.2092  -13.0093  -15.8224 C   0  0  0  0  0  0  0  0  0  0  0  0
   23.8752  -11.5228  -15.8521 C   0  0  2  0  0  0  0  0  0  0  0  0
   24.0629  -11.0428  -14.4289 C   0  0  0  0  0  0  0  0  0  0  0  0
   22.4237  -11.4013  -16.2636 C   0  0  2  0  0  0  0  0  0  0  0  0
   22.3406  -11.8801  -17.6477 N   0  0  0  0  0  0  0  0  0  0  0  0
   21.8928  -10.0398  -16.2223 C   0  0  0  0  0  0  0  0  0  0  0  0
   22.5162   -9.1033  -16.8356 O   0  0  0  0  0  0  0  0  0  0  0  0
   18.8340   -8.0872  -15.1922 C   0  0  0  0  0  0  0  0  0  0  0  0
   20.2944   -8.2330  -15.4646 C   0  0  2  0  0  0  0  0  0  0  0  0
   20.7186   -9.6118  -15.5569 N   0  0  0  0  0  0  0  0  0  0  0  0
   21.0483   -7.4853  -14.4346 C   0  0  0  0  0  0  0  0  0  0  0  0
   21.4681   -8.0925  -13.4261 O   0  0  0  0  0  0  0  0  0  0  0  0
   21.3058   -6.1018  -14.5620 N   0  0  0  0  0  0  0  0  0  0  0  0
   21.9745   -5.3272  -13.5250 C   0  0  0  0  0  0  0  0  0  0  0  0
   22.0971   -3.8980  -13.9436 C   0  0  0  0  0  0  0  0  0  0  0  0
   22.6096   -2.9872  -13.0507 O   0  0  0  0  0  0  0  0  0  0  0  0
   21.7496   -3.5205  -15.0686 O   0  0  0  0  0  0  0  0  0  0  0  0
  2  1  1  0
  3  2  1  0
  3  4  1  1
  5  7  1  0
  5  3  1  0
  5  6  1  6
  7  8  2  0
 10  9  1  1
 10 12  1  0
 11 10  1  0
 11  7  1  0
 12 13  2  0
 12 14  1  0
 14 15  1  0
 15 16  1  0
 16 18  2  0
 16 17  1  0
M  END
$$$$
