IAG.pdb
     RDKit          3D

 18 17  0  0  1  0  0  0  0  0999 V2000
   15.7859  -13.1411  -15.2134 C   0  0  0  0  0  0  0  0  0  0  0  0
   16.9696  -13.0888  -16.1140 C   0  0  0  0  0  0  0  0  0  0  0  0
   18.0675  -12.1411  -15.6465 C   0  0  2  0  0  0  0  0  0  0  0  0
   17.4366  -10.7651  -15.6526 C   0  0  0  0  0  0  0  0  0  0  0  0
   19.1831  -12.2153  -16.6667 C   0  0  2  0  0  0  0  0  0  0  0  0
   19.7156  -13.5808  -16.6046 N   0  0  0  0  0  0  0  0  0  0  0  0
   20.2870  -11.2870  -16.4281 C   0  0  0  0  0  0  0  0  0  0  0  0
   21.1467  -11.5542  -15.5164 O   0  0  0  0  0  0  0  0  0  0  0  0
   21.9300   -8.2206  -17.9041 C   0  0  0  0  0  0  0  0  0  0  0  0
   21.6039   -9.1591  -16.7901 C   0  0  2  0  0  0  0  0  0  0  0  0
   20.5325  -10.0735  -17.1149 N   0  0  0  0  0  0  0  0  0  0  0  0
   21.3144   -8.3709  -15.5722 C   0  0  0  0  0  0  0  0  0  0  0  0
   20.1347   -8.0384  -15.3277 O   0  0  0  0  0  0  0  0  0  0  0  0
   22.3380   -7.9843  -14.6780 N   0  0  0  0  0  0  0  0  0  0  0  0
   22.0929   -7.1308  -13.5231 C   0  0  0  0  0  0  0  0  0  0  0  0
   21.9912   -5.7015  -13.9473 C   0  0  0  0  0  0  0  0  0  0  0  0
   22.7717   -4.7645  -13.3129 O   0  0  0  0  0  0  0  0  0  0  0  0
   21.2250   -5.3470  -14.8506 O   0  0  0  0  0  0  0  0  0  0  0  0
  2  1  1  0
  3  2  1  0
  3  4  1  6
  5  7  1  0
  5  3  1  0
  5  6  1  1
  7  8  2  0
 10  9  1  6
 10 12  1  0
 11 10  1  0
 11  7  1  0
 12 13  2  0
 12 14  1  0
 14 15  1  0
 15 16  1  0
 16 18  2  0
 16 17  1  0
M  END
$$$$
