IAG.pdb
     RDKit          3D

 18 17  0  0  1  0  0  0  0  0999 V2000
   16.7529  -14.0092  -16.4657 C   0  0  0  0  0  0  0  0  0  0  0  0
   16.7680  -12.5370  -16.2482 C   0  0  0  0  0  0  0  0  0  0  0  0
   18.1646  -11.9329  -16.1667 C   0  0  2  0  0  0  0  0  0  0  0  0
   18.8217  -12.6047  -14.9801 C   0  0  0  0  0  0  0  0  0  0  0  0
   17.9939  -10.4515  -15.9076 C   0  0  2  0  0  0  0  0  0  0  0  0
   17.2759   -9.9052  -17.0643 N   0  0  0  0  0  0  0  0  0  0  0  0
   19.2466   -9.7123  -15.7612 C   0  0  0  0  0  0  0  0  0  0  0  0
   19.9766   -9.9114  -14.7271 O   0  0  0  0  0  0  0  0  0  0  0  0
   21.5126   -7.3869  -17.7170 C   0  0  0  0  0  0  0  0  0  0  0  0
   21.0375   -8.0798  -16.4832 C   0  0  2  0  0  0  0  0  0  0  0  0
   19.7751   -8.7601  -16.6659 N   0  0  0  0  0  0  0  0  0  0  0  0
   20.9879   -7.1004  -15.3757 C   0  0  0  0  0  0  0  0  0  0  0  0
   19.9145   -6.5077  -15.1341 O   0  0  0  0  0  0  0  0  0  0  0  0
   22.1236   -6.8180  -14.5838 N   0  0  0  0  0  0  0  0  0  0  0  0
   22.0838   -5.9067  -13.4478 C   0  0  0  0  0  0  0  0  0  0  0  0
   22.1531   -4.4898  -13.9175 C   0  0  0  0  0  0  0  0  0  0  0  0
   22.1254   -3.4802  -12.9851 O   0  0  0  0  0  0  0  0  0  0  0  0
   22.2341   -4.2090  -15.1189 O   0  0  0  0  0  0  0  0  0  0  0  0
  2  1  1  0
  3  2  1  0
  3  4  1  1
  5  7  1  0
  5  3  1  0
  5  6  1  6
  7  8  2  0
 10  9  1  6
 10 12  1  0
 11 10  1  0
 11  7  1  0
 12 13  2  0
 12 14  1  0
 14 15  1  0
 15 16  1  0
 16 18  2  0
 16 17  1  0
M  END
$$$$
