IAG.pdb
     RDKit          3D

 18 17  0  0  1  0  0  0  0  0999 V2000
   18.3719   -2.4475  -23.4649 C   0  0  0  0  0  0  0  0  0  0  0  0
   19.3339   -2.2856  -22.3410 C   0  0  0  0  0  0  0  0  0  0  0  0
   19.2530   -3.3838  -21.2877 C   0  0  2  0  0  0  0  0  0  0  0  0
   17.9501   -3.1407  -20.5565 C   0  0  0  0  0  0  0  0  0  0  0  0
   20.4276   -3.1908  -20.3529 C   0  0  2  0  0  0  0  0  0  0  0  0
   21.6373   -3.2858  -21.1772 N   0  0  0  0  0  0  0  0  0  0  0  0
   20.5258   -4.1869  -19.2874 C   0  0  0  0  0  0  0  0  0  0  0  0
   19.5440   -4.3408  -18.4786 O   0  0  0  0  0  0  0  0  0  0  0  0
   22.4006   -7.2352  -18.2581 C   0  0  0  0  0  0  0  0  0  0  0  0
   21.6927   -5.9653  -17.9201 C   0  0  2  0  0  0  0  0  0  0  0  0
   21.6247   -5.0417  -19.0302 N   0  0  0  0  0  0  0  0  0  0  0  0
   22.3359   -5.3628  -16.7321 C   0  0  0  0  0  0  0  0  0  0  0  0
   23.2507   -4.5265  -16.8928 O   0  0  0  0  0  0  0  0  0  0  0  0
   21.9422   -5.7087  -15.4198 N   0  0  0  0  0  0  0  0  0  0  0  0
   22.5421   -5.1101  -14.2348 C   0  0  0  0  0  0  0  0  0  0  0  0
   21.8952   -5.6467  -12.9992 C   0  0  0  0  0  0  0  0  0  0  0  0
   20.8031   -6.4715  -13.1273 O   0  0  0  0  0  0  0  0  0  0  0  0
   22.3191   -5.3662  -11.8721 O   0  0  0  0  0  0  0  0  0  0  0  0
  2  1  1  0
  3  2  1  0
  3  4  1  1
  5  7  1  0
  5  3  1  0
  5  6  1  6
  7  8  2  0
 10  9  1  6
 10 12  1  0
 11 10  1  0
 11  7  1  0
 12 13  2  0
 12 14  1  0
 14 15  1  0
 15 16  1  0
 16 18  2  0
 16 17  1  0
M  END
$$$$
