IAG.pdb
     RDKit          3D

 18 17  0  0  1  0  0  0  0  0999 V2000
   23.2427  -31.9873   -8.5292 C   0  0  0  0  0  0  0  0  0  0  0  0
   24.6904  -32.2372   -8.7663 C   0  0  0  0  0  0  0  0  0  0  0  0
   25.3211  -33.2232   -7.7905 C   0  0  2  0  0  0  0  0  0  0  0  0
   25.2746  -32.5361   -6.4425 C   0  0  0  0  0  0  0  0  0  0  0  0
   26.7550  -33.4281   -8.2299 C   0  0  2  0  0  0  0  0  0  0  0  0
   26.7013  -33.9528   -9.5987 N   0  0  0  0  0  0  0  0  0  0  0  0
   27.5117  -34.3738   -7.4113 C   0  0  0  0  0  0  0  0  0  0  0  0
   27.3268  -35.6316   -7.5712 O   0  0  0  0  0  0  0  0  0  0  0  0
   30.4422  -34.5410   -5.0485 C   0  0  0  0  0  0  0  0  0  0  0  0
   29.1414  -35.0306   -5.5930 C   0  0  2  0  0  0  0  0  0  0  0  0
   28.4688  -34.0530   -6.4185 N   0  0  0  0  0  0  0  0  0  0  0  0
   28.2958  -35.4876   -4.4686 C   0  0  0  0  0  0  0  0  0  0  0  0
   28.7187  -36.3917   -3.7164 O   0  0  0  0  0  0  0  0  0  0  0  0
   27.0218  -34.9277   -4.2232 N   0  0  0  0  0  0  0  0  0  0  0  0
   26.1953  -35.3195   -3.0893 C   0  0  0  0  0  0  0  0  0  0  0  0
   26.4188  -34.3911   -1.9398 C   0  0  0  0  0  0  0  0  0  0  0  0
   25.6380  -34.5265   -0.8167 O   0  0  0  0  0  0  0  0  0  0  0  0
   27.2853  -33.5099   -1.9780 O   0  0  0  0  0  0  0  0  0  0  0  0
  2  1  1  0
  3  2  1  0
  3  4  1  1
  5  7  1  0
  5  3  1  0
  5  6  1  6
  7  8  2  0
 10  9  1  1
 10 12  1  0
 11 10  1  0
 11  7  1  0
 12 13  2  0
 12 14  1  0
 14 15  1  0
 15 16  1  0
 16 18  2  0
 16 17  1  0
M  END
$$$$
