IAG.pdb
     RDKit          3D

 18 17  0  0  1  0  0  0  0  0999 V2000
   30.3693  -19.9591    8.4568 C   0  0  0  0  0  0  0  0  0  0  0  0
   29.2147  -20.6900    9.0462 C   0  0  0  0  0  0  0  0  0  0  0  0
   29.5785  -22.0324    9.6689 C   0  0  2  0  0  0  0  0  0  0  0  0
   30.1267  -22.8654    8.5302 C   0  0  0  0  0  0  0  0  0  0  0  0
   28.2968  -22.6391   10.1980 C   0  0  2  0  0  0  0  0  0  0  0  0
   27.7531  -21.6845   11.1702 N   0  0  0  0  0  0  0  0  0  0  0  0
   28.4666  -23.9252   10.8720 C   0  0  0  0  0  0  0  0  0  0  0  0
   29.1300  -23.9781   11.9670 O   0  0  0  0  0  0  0  0  0  0  0  0
   27.1731  -27.4562   10.8753 C   0  0  0  0  0  0  0  0  0  0  0  0
   28.2352  -26.4325   11.1032 C   0  0  2  0  0  0  0  0  0  0  0  0
   27.9628  -25.1764   10.4417 N   0  0  0  0  0  0  0  0  0  0  0  0
   29.5402  -27.0023   10.7024 C   0  0  0  0  0  0  0  0  0  0  0  0
   29.9292  -26.8634    9.5228 O   0  0  0  0  0  0  0  0  0  0  0  0
   30.3583  -27.6996   11.6195 N   0  0  0  0  0  0  0  0  0  0  0  0
   31.6626  -28.2390   11.2582 C   0  0  0  0  0  0  0  0  0  0  0  0
   31.5176  -29.6207   10.7079 C   0  0  0  0  0  0  0  0  0  0  0  0
   31.3478  -29.7804    9.3532 O   0  0  0  0  0  0  0  0  0  0  0  0
   31.5470  -30.6161   11.4408 O   0  0  0  0  0  0  0  0  0  0  0  0
  2  1  1  0
  3  2  1  0
  3  4  1  6
  5  7  1  0
  5  3  1  0
  5  6  1  1
  7  8  2  0
 10  9  1  6
 10 12  1  0
 11 10  1  0
 11  7  1  0
 12 13  2  0
 12 14  1  0
 14 15  1  0
 15 16  1  0
 16 18  2  0
 16 17  1  0
M  END
$$$$
