IAG.pdb
     RDKit          3D

 18 17  0  0  1  0  0  0  0  0999 V2000
   25.0891  -14.0625  -15.3731 C   0  0  0  0  0  0  0  0  0  0  0  0
   23.7582  -13.6139  -15.8653 C   0  0  0  0  0  0  0  0  0  0  0  0
   23.5118  -12.1171  -15.7202 C   0  0  2  0  0  0  0  0  0  0  0  0
   23.4763  -11.8609  -14.2288 C   0  0  0  0  0  0  0  0  0  0  0  0
   22.1611  -11.8269  -16.3385 C   0  0  2  0  0  0  0  0  0  0  0  0
   22.2601  -12.2022  -17.7532 N   0  0  0  0  0  0  0  0  0  0  0  0
   21.7499  -10.4257  -16.2691 C   0  0  0  0  0  0  0  0  0  0  0  0
   22.4349   -9.5383  -16.8895 O   0  0  0  0  0  0  0  0  0  0  0  0
   18.7771   -8.3189  -15.3785 C   0  0  0  0  0  0  0  0  0  0  0  0
   20.2431   -8.5159  -15.5793 C   0  0  2  0  0  0  0  0  0  0  0  0
   20.6345   -9.9075  -15.5677 N   0  0  0  0  0  0  0  0  0  0  0  0
   20.9736   -7.7228  -14.5667 C   0  0  0  0  0  0  0  0  0  0  0  0
   21.2971   -8.2628  -13.4869 O   0  0  0  0  0  0  0  0  0  0  0  0
   21.3152   -6.3698  -14.7891 N   0  0  0  0  0  0  0  0  0  0  0  0
   22.0671   -5.5791  -13.8238 C   0  0  0  0  0  0  0  0  0  0  0  0
   22.1595   -4.1583  -14.2774 C   0  0  0  0  0  0  0  0  0  0  0  0
   22.7283   -3.2301  -13.4382 O   0  0  0  0  0  0  0  0  0  0  0  0
   21.7378   -3.8030  -15.3840 O   0  0  0  0  0  0  0  0  0  0  0  0
  2  1  1  0
  3  2  1  0
  3  4  1  1
  5  7  1  0
  5  3  1  0
  5  6  1  6
  7  8  2  0
 10  9  1  1
 10 12  1  0
 11 10  1  0
 11  7  1  0
 12 13  2  0
 12 14  1  0
 14 15  1  0
 15 16  1  0
 16 18  2  0
 16 17  1  0
M  END
$$$$
