IAG.pdb
     RDKit          3D

 18 17  0  0  1  0  0  0  0  0999 V2000
   28.8952  -13.2804  -17.1208 C   0  0  0  0  0  0  0  0  0  0  0  0
   27.8554  -12.7911  -16.1752 C   0  0  0  0  0  0  0  0  0  0  0  0
   27.1180  -11.5447  -16.6494 C   0  0  2  0  0  0  0  0  0  0  0  0
   28.1522  -10.4395  -16.6362 C   0  0  0  0  0  0  0  0  0  0  0  0
   26.0284  -11.2608  -15.6380 C   0  0  2  0  0  0  0  0  0  0  0  0
   25.1765  -12.4543  -15.5959 N   0  0  0  0  0  0  0  0  0  0  0  0
   25.1839  -10.1122  -15.9613 C   0  0  0  0  0  0  0  0  0  0  0  0
   25.7147   -8.9504  -16.0621 O   0  0  0  0  0  0  0  0  0  0  0  0
   21.6095   -9.3031  -16.9542 C   0  0  0  0  0  0  0  0  0  0  0  0
   23.0093   -8.9684  -16.5586 C   0  0  2  0  0  0  0  0  0  0  0  0
   23.7864  -10.1297  -16.1880 N   0  0  0  0  0  0  0  0  0  0  0  0
   22.9709   -7.9561  -15.4806 C   0  0  0  0  0  0  0  0  0  0  0  0
   22.8837   -8.3341  -14.2926 O   0  0  0  0  0  0  0  0  0  0  0  0
   23.0302   -6.5722  -15.7601 N   0  0  0  0  0  0  0  0  0  0  0  0
   23.1537   -5.5633  -14.7164 C   0  0  0  0  0  0  0  0  0  0  0  0
   21.8188   -4.9627  -14.4156 C   0  0  0  0  0  0  0  0  0  0  0  0
   21.7381   -3.9632  -13.4754 O   0  0  0  0  0  0  0  0  0  0  0  0
   20.7928   -5.3436  -14.9909 O   0  0  0  0  0  0  0  0  0  0  0  0
  2  1  1  0
  3  2  1  0
  3  4  1  1
  5  7  1  0
  5  3  1  0
  5  6  1  6
  7  8  2  0
 10  9  1  1
 10 12  1  0
 11 10  1  0
 11  7  1  0
 12 13  2  0
 12 14  1  0
 14 15  1  0
 15 16  1  0
 16 18  2  0
 16 17  1  0
M  END
$$$$
