IAG.pdb
     RDKit          3D

 18 17  0  0  1  0  0  0  0  0999 V2000
   19.9641  -14.2432  -19.5015 C   0  0  0  0  0  0  0  0  0  0  0  0
   19.9495  -13.5973  -18.1608 C   0  0  0  0  0  0  0  0  0  0  0  0
   20.2696  -12.1076  -18.1828 C   0  0  2  0  0  0  0  0  0  0  0  0
   21.6881  -12.0115  -18.7021 C   0  0  0  0  0  0  0  0  0  0  0  0
   20.1958  -11.6158  -16.7533 C   0  0  2  0  0  0  0  0  0  0  0  0
   18.9593  -12.1647  -16.1861 N   0  0  0  0  0  0  0  0  0  0  0  0
   20.1523  -10.1613  -16.6129 C   0  0  0  0  0  0  0  0  0  0  0  0
   21.2038   -9.4739  -16.8651 O   0  0  0  0  0  0  0  0  0  0  0  0
   17.7395   -7.3527  -15.7735 C   0  0  0  0  0  0  0  0  0  0  0  0
   19.0894   -7.9647  -15.9505 C   0  0  2  0  0  0  0  0  0  0  0  0
   19.0373   -9.3850  -16.2147 N   0  0  0  0  0  0  0  0  0  0  0  0
   19.9154   -7.6481  -14.7649 C   0  0  0  0  0  0  0  0  0  0  0  0
   19.9341   -8.4473  -13.8042 O   0  0  0  0  0  0  0  0  0  0  0  0
   20.6840   -6.4647  -14.6909 N   0  0  0  0  0  0  0  0  0  0  0  0
   21.4673   -6.1074  -13.5156 C   0  0  0  0  0  0  0  0  0  0  0  0
   22.1296   -4.7831  -13.7173 C   0  0  0  0  0  0  0  0  0  0  0  0
   22.0168   -4.1647  -14.9397 O   0  0  0  0  0  0  0  0  0  0  0  0
   22.7725   -4.2361  -12.8138 O   0  0  0  0  0  0  0  0  0  0  0  0
  2  1  1  0
  3  2  1  0
  3  4  1  1
  5  7  1  0
  5  3  1  0
  5  6  1  6
  7  8  2  0
 10  9  1  1
 10 12  1  0
 11 10  1  0
 11  7  1  0
 12 13  2  0
 12 14  1  0
 14 15  1  0
 15 16  1  0
 16 18  2  0
 16 17  1  0
M  END
$$$$
