IAG.pdb
     RDKit          3D

 18 17  0  0  1  0  0  0  0  0999 V2000
   16.8064  -12.9833  -19.6137 C   0  0  0  0  0  0  0  0  0  0  0  0
   17.7737  -12.8095  -18.4961 C   0  0  0  0  0  0  0  0  0  0  0  0
   17.7875  -11.4091  -17.8954 C   0  0  2  0  0  0  0  0  0  0  0  0
   18.2740  -10.5029  -19.0059 C   0  0  0  0  0  0  0  0  0  0  0  0
   18.7805  -11.4251  -16.7532 C   0  0  2  0  0  0  0  0  0  0  0  0
   18.3291  -12.4648  -15.8220 N   0  0  0  0  0  0  0  0  0  0  0  0
   18.8774  -10.1668  -16.0152 C   0  0  0  0  0  0  0  0  0  0  0  0
   19.3080   -9.1189  -16.6137 O   0  0  0  0  0  0  0  0  0  0  0  0
   17.8582   -8.6485  -12.6982 C   0  0  0  0  0  0  0  0  0  0  0  0
   18.6003   -8.6742  -13.9930 C   0  0  2  0  0  0  0  0  0  0  0  0
   18.5366   -9.9567  -14.6572 N   0  0  0  0  0  0  0  0  0  0  0  0
   19.9937   -8.2395  -13.7525 C   0  0  0  0  0  0  0  0  0  0  0  0
   20.8857   -9.1035  -13.6111 O   0  0  0  0  0  0  0  0  0  0  0  0
   20.3418   -6.8721  -13.6785 N   0  0  0  0  0  0  0  0  0  0  0  0
   21.7186   -6.4172  -13.5366 C   0  0  0  0  0  0  0  0  0  0  0  0
   21.7682   -4.9248  -13.4810 C   0  0  0  0  0  0  0  0  0  0  0  0
   22.9649   -4.3113  -13.1963 O   0  0  0  0  0  0  0  0  0  0  0  0
   20.7622   -4.2353  -13.6843 O   0  0  0  0  0  0  0  0  0  0  0  0
  2  1  1  0
  3  2  1  0
  3  4  1  6
  5  7  1  0
  5  3  1  0
  5  6  1  1
  7  8  2  0
 10  9  1  1
 10 12  1  0
 11 10  1  0
 11  7  1  0
 12 13  2  0
 12 14  1  0
 14 15  1  0
 15 16  1  0
 16 18  2  0
 16 17  1  0
M  END
$$$$
