IAG.pdb
     RDKit          3D

 18 17  0  0  1  0  0  0  0  0999 V2000
   27.0953  -14.4133  -15.9939 C   0  0  0  0  0  0  0  0  0  0  0  0
   25.9958  -13.9558  -16.8864 C   0  0  0  0  0  0  0  0  0  0  0  0
   25.4646  -12.5656  -16.5591 C   0  0  2  0  0  0  0  0  0  0  0  0
   24.8357  -12.6909  -15.1880 C   0  0  0  0  0  0  0  0  0  0  0  0
   24.4116  -12.2366  -17.5953 C   0  0  2  0  0  0  0  0  0  0  0  0
   25.0902  -12.2397  -18.8959 N   0  0  0  0  0  0  0  0  0  0  0  0
   23.7735  -10.9330  -17.4202 C   0  0  0  0  0  0  0  0  0  0  0  0
   24.4695   -9.8676  -17.5693 O   0  0  0  0  0  0  0  0  0  0  0  0
   20.3669   -9.3661  -17.2934 C   0  0  0  0  0  0  0  0  0  0  0  0
   21.8269   -9.3797  -16.9825 C   0  0  2  0  0  0  0  0  0  0  0  0
   22.4171  -10.6948  -17.0916 N   0  0  0  0  0  0  0  0  0  0  0  0
   22.0348   -8.7845  -15.6444 C   0  0  0  0  0  0  0  0  0  0  0  0
   22.0824   -9.5335  -14.6450 O   0  0  0  0  0  0  0  0  0  0  0  0
   22.1811   -7.3902  -15.4673 N   0  0  0  0  0  0  0  0  0  0  0  0
   22.3499   -6.7769  -14.1566 C   0  0  0  0  0  0  0  0  0  0  0  0
   22.4581   -5.2924  -14.2892 C   0  0  0  0  0  0  0  0  0  0  0  0
   22.5785   -4.5321  -13.1503 O   0  0  0  0  0  0  0  0  0  0  0  0
   22.4417   -4.7379  -15.3942 O   0  0  0  0  0  0  0  0  0  0  0  0
  2  1  1  0
  3  2  1  0
  3  4  1  1
  5  7  1  0
  5  3  1  0
  5  6  1  6
  7  8  2  0
 10  9  1  1
 10 12  1  0
 11 10  1  0
 11  7  1  0
 12 13  2  0
 12 14  1  0
 14 15  1  0
 15 16  1  0
 16 18  2  0
 16 17  1  0
M  END
$$$$
