RCN.pdb
     RDKit          3D

 26 25  0  0  1  0  0  0  0  0999 V2000
    7.7382  -12.4933   18.3070 N   0  0  0  0  0  0  0  0  0  0  0  0
    8.5856  -13.5408   17.8616 C   0  0  0  0  0  0  0  0  0  0  0  0
    8.5242  -14.0375   16.6591 N   0  0  0  0  0  0  0  0  0  0  0  0
    9.5586  -14.1021   18.7330 N   0  0  0  0  0  0  0  0  0  0  0  0
    9.1956  -14.8324   19.9289 C   0  0  0  0  0  0  0  0  0  0  0  0
    7.7369  -15.2666   19.8691 C   0  0  0  0  0  0  0  0  0  0  0  0
    7.3596  -16.1235   21.0228 C   0  0  0  0  0  0  0  0  0  0  0  0
    6.4900  -15.3829   21.9984 C   0  0  2  0  0  0  0  0  0  0  0  0
    5.6997  -14.4102   21.2336 N   0  0  0  0  0  0  0  0  0  0  0  0
    7.2058  -14.7113   23.0924 C   0  0  0  0  0  0  0  0  0  0  0  0
    8.0061  -13.7654   22.7789 O   0  0  0  0  0  0  0  0  0  0  0  0
    9.1682  -14.7826   16.3378 N   0  0  0  0  0  0  0  0  0  0  0  0
    7.0502  -15.0603   24.4553 C   0  0  1  0  0  0  0  0  0  0  0  0
    7.8228  -14.3466   25.4568 C   0  0  0  0  0  0  0  0  0  0  0  0
    6.8794  -13.4172   26.1791 S   0  0  0  0  0  0  0  0  0  0  0  0
    7.6864  -12.6104   27.5722 C   0  0  0  0  0  0  0  0  0  0  0  0
    8.5592  -15.2750   26.3237 O   0  0  0  0  0  0  0  0  0  0  0  0
    7.8922  -16.2582   26.8023 N   0  0  0  0  0  0  0  0  0  0  0  0
   12.2990  -16.6278   24.6315 C   0  0  0  0  0  0  0  0  0  0  0  0
   11.7090  -17.2529   25.7571 O   0  0  0  0  0  0  0  0  0  0  0  0
   11.0640  -18.3496   25.6056 C   0  0  0  0  0  0  0  0  0  0  0  0
   11.8164  -16.6807   27.1043 C   0  0  2  0  0  0  0  0  0  0  0  0
   10.5056  -16.1894   27.6231 N   0  0  0  0  0  0  0  0  0  0  0  0
    9.9066  -15.2216   26.6943 C   0  0  0  0  0  0  0  0  0  0  0  0
   10.7398  -15.5179   28.9359 O   0  0  0  0  0  0  0  0  0  0  0  0
   10.4339  -14.2159   29.1929 O   0  0  0  0  0  0  0  0  0  0  0  0
  1  2  1  0
  2  3  2  0
  4  5  1  0
  4  2  1  0
  6  5  1  0
  7  6  1  0
  7  8  1  0
  8 10  1  0
  8  9  1  6
 10 11  2  0
 12 13  1  0
 12 10  1  0
 14 15  1  0
 13 14  1  1
 16 23  1  0
 16 13  1  0
 17 16  2  0
 19 21  1  0
 19 18  1  0
 20 19  2  0
 22 23  1  0
 22 21  1  6
 24 22  1  0
 25 24  1  0
 26 24  2  0
M  END
$$$$
