RCN.pdb
     RDKit          3D

 26 25  0  0  1  0  0  0  0  0999 V2000
    7.7227  -16.3932   16.1652 N   0  0  0  0  0  0  0  0  0  0  0  0
    7.4759  -15.0934   15.6520 C   0  0  0  0  0  0  0  0  0  0  0  0
    7.6652  -14.7786   14.4024 N   0  0  0  0  0  0  0  0  0  0  0  0
    7.0005  -14.0593   16.5039 N   0  0  0  0  0  0  0  0  0  0  0  0
    7.6337  -13.7464   17.7674 C   0  0  0  0  0  0  0  0  0  0  0  0
    7.0139  -14.5632   18.8938 C   0  0  0  0  0  0  0  0  0  0  0  0
    7.9436  -14.7326   20.0402 C   0  0  0  0  0  0  0  0  0  0  0  0
    8.2181  -13.4243   20.7254 C   0  0  2  0  0  0  0  0  0  0  0  0
    9.3521  -12.7959   20.0363 N   0  0  0  0  0  0  0  0  0  0  0  0
    8.4845  -13.5154   22.1679 C   0  0  0  0  0  0  0  0  0  0  0  0
    9.6046  -14.0137   22.5293 O   0  0  0  0  0  0  0  0  0  0  0  0
    7.5027  -13.8196   14.0457 N   0  0  0  0  0  0  0  0  0  0  0  0
    7.5703  -13.0827   23.1580 C   0  0  2  0  0  0  0  0  0  0  0  0
    7.8657  -13.3522   24.5542 C   0  0  0  0  0  0  0  0  0  0  0  0
    6.8553  -12.6001   25.3843 S   0  0  0  0  0  0  0  0  0  0  0  0
    7.1771  -12.7894   27.1459 C   0  0  0  0  0  0  0  0  0  0  0  0
    7.9292  -14.7954   24.8170 O   0  0  0  0  0  0  0  0  0  0  0  0
    7.4507  -15.5614   23.9088 N   0  0  0  0  0  0  0  0  0  0  0  0
   10.1082  -18.3862   23.8399 C   0  0  0  0  0  0  0  0  0  0  0  0
   10.8504  -17.1852   23.9520 O   0  0  0  0  0  0  0  0  0  0  0  0
   11.7923  -16.9438   23.1176 C   0  0  0  0  0  0  0  0  0  0  0  0
   10.5703  -16.1979   25.0011 C   0  0  2  0  0  0  0  0  0  0  0  0
    9.3889  -16.5691   25.8349 N   0  0  0  0  0  0  0  0  0  0  0  0
    8.4509  -15.4435   25.9411 C   0  0  0  0  0  0  0  0  0  0  0  0
    9.8704  -16.9272   27.2021 O   0  0  0  0  0  0  0  0  0  0  0  0
   10.5772  -16.0864   28.0072 O   0  0  0  0  0  0  0  0  0  0  0  0
  1  2  1  0
  2  3  2  0
  4  5  1  0
  4  2  1  0
  6  5  1  0
  7  6  1  0
  7  8  1  0
  8 10  1  0
  8  9  1  6
 10 11  2  0
 12 13  1  0
 12 10  1  0
 14 15  1  0
 13 14  1  6
 16 23  1  0
 16 13  1  0
 17 16  2  0
 19 21  1  0
 19 18  1  0
 20 19  2  0
 22 23  1  0
 22 21  1  6
 24 22  1  0
 25 24  1  0
 26 24  2  0
M  END
$$$$
