RCN.pdb
     RDKit          3D

 26 25  0  0  1  0  0  0  0  0999 V2000
    6.8960  -14.2347   19.6360 N   0  0  0  0  0  0  0  0  0  0  0  0
    7.7985  -13.3236   19.0284 C   0  0  0  0  0  0  0  0  0  0  0  0
    8.3234  -12.3166   19.6663 N   0  0  0  0  0  0  0  0  0  0  0  0
    8.1735  -13.4793   17.6660 N   0  0  0  0  0  0  0  0  0  0  0  0
    8.5809  -14.7554   17.1174 C   0  0  0  0  0  0  0  0  0  0  0  0
   10.0728  -14.9777   17.3294 C   0  0  0  0  0  0  0  0  0  0  0  0
   10.3850  -16.3872   17.6805 C   0  0  0  0  0  0  0  0  0  0  0  0
    9.6966  -16.8049   18.9487 C   0  0  2  0  0  0  0  0  0  0  0  0
    8.3027  -16.3520   18.8627 N   0  0  0  0  0  0  0  0  0  0  0  0
   10.3163  -16.3166   20.1888 C   0  0  0  0  0  0  0  0  0  0  0  0
   11.1169  -15.3247   20.0958 O   0  0  0  0  0  0  0  0  0  0  0  0
    8.9306  -11.6223   19.1944 N   0  0  0  0  0  0  0  0  0  0  0  0
   10.0693  -16.8872   21.4604 C   0  0  1  0  0  0  0  0  0  0  0  0
   10.7808  -16.3674   22.6148 C   0  0  0  0  0  0  0  0  0  0  0  0
    9.8799  -16.5312   23.8136 S   0  0  0  0  0  0  0  0  0  0  0  0
   10.6929  -15.9940   25.3279 C   0  0  0  0  0  0  0  0  0  0  0  0
   12.1052  -16.9870   22.7486 O   0  0  0  0  0  0  0  0  0  0  0  0
   12.1610  -18.2550   22.5766 N   0  0  0  0  0  0  0  0  0  0  0  0
   15.7434  -14.2035   21.2782 C   0  0  0  0  0  0  0  0  0  0  0  0
   15.5709  -15.5978   21.4566 O   0  0  0  0  0  0  0  0  0  0  0  0
   15.2600  -16.3302   20.4523 C   0  0  0  0  0  0  0  0  0  0  0  0
   15.7415  -16.2368   22.7668 C   0  0  2  0  0  0  0  0  0  0  0  0
   14.5852  -17.1070   23.1335 N   0  0  0  0  0  0  0  0  0  0  0  0
   13.3220  -16.3628   23.0408 C   0  0  0  0  0  0  0  0  0  0  0  0
   14.7710  -17.5699   24.5408 O   0  0  0  0  0  0  0  0  0  0  0  0
   13.8784  -17.3416   25.5438 O   0  0  0  0  0  0  0  0  0  0  0  0
  1  2  1  0
  2  3  2  0
  4  5  1  0
  4  2  1  0
  6  5  1  0
  7  6  1  0
  7  8  1  0
  8 10  1  0
  8  9  1  6
 10 11  2  0
 12 13  1  0
 12 10  1  0
 14 15  1  0
 13 14  1  6
 16 23  1  0
 16 13  1  0
 17 16  2  0
 19 21  1  0
 19 18  1  0
 20 19  2  0
 22 23  1  0
 22 21  1  6
 24 22  1  0
 25 24  1  0
 26 24  2  0
M  END
$$$$
