RCN.pdb
     RDKit          3D

 26 25  0  0  1  0  0  0  0  0999 V2000
    5.8074  -20.3051   12.8156 N   0  0  0  0  0  0  0  0  0  0  0  0
    6.8095  -19.6948   12.0175 C   0  0  0  0  0  0  0  0  0  0  0  0
    7.3309  -20.2725   10.9730 N   0  0  0  0  0  0  0  0  0  0  0  0
    7.2947  -18.3970   12.3356 N   0  0  0  0  0  0  0  0  0  0  0  0
    6.8276  -17.6586   13.4897 C   0  0  0  0  0  0  0  0  0  0  0  0
    7.9834  -17.3529   14.4335 C   0  0  0  0  0  0  0  0  0  0  0  0
    7.5284  -16.6781   15.6765 C   0  0  0  0  0  0  0  0  0  0  0  0
    8.1460  -15.3166   15.8224 C   0  0  2  0  0  0  0  0  0  0  0  0
    9.2622  -15.2353   14.8720 N   0  0  0  0  0  0  0  0  0  0  0  0
    8.6037  -14.9774   17.1773 C   0  0  0  0  0  0  0  0  0  0  0  0
    9.8022  -15.2928   17.4899 O   0  0  0  0  0  0  0  0  0  0  0  0
    8.0565  -19.8121   10.3943 N   0  0  0  0  0  0  0  0  0  0  0  0
    7.7891  -14.3276   18.1351 C   0  0  2  0  0  0  0  0  0  0  0  0
    8.3409  -14.0369   19.4467 C   0  0  0  0  0  0  0  0  0  0  0  0
    7.4258  -13.0391   20.1121 S   0  0  0  0  0  0  0  0  0  0  0  0
    8.0535  -12.5421   21.7250 C   0  0  0  0  0  0  0  0  0  0  0  0
    8.5731  -15.2680   20.2125 O   0  0  0  0  0  0  0  0  0  0  0  0
    8.3422  -16.3704   19.6026 N   0  0  0  0  0  0  0  0  0  0  0  0
   12.2696  -17.8288   19.4128 C   0  0  0  0  0  0  0  0  0  0  0  0
   11.6709  -17.6710   20.6864 O   0  0  0  0  0  0  0  0  0  0  0  0
   11.5108  -18.6940   21.4411 C   0  0  0  0  0  0  0  0  0  0  0  0
   11.2266  -16.3604   21.1752 C   0  0  2  0  0  0  0  0  0  0  0  0
    9.9547  -16.4411   21.9525 N   0  0  0  0  0  0  0  0  0  0  0  0
    9.0188  -15.3895   21.5324 C   0  0  0  0  0  0  0  0  0  0  0  0
   10.2734  -16.2542   23.3992 O   0  0  0  0  0  0  0  0  0  0  0  0
   10.9210  -17.1767   24.1637 O   0  0  0  0  0  0  0  0  0  0  0  0
  1  2  1  0
  2  3  2  0
  4  5  1  0
  4  2  1  0
  6  5  1  0
  7  6  1  0
  7  8  1  0
  8 10  1  0
  8  9  1  6
 10 11  2  0
 12 13  1  0
 12 10  1  0
 14 15  1  0
 13 14  1  1
 16 23  1  0
 16 13  1  0
 17 16  2  0
 19 21  1  0
 19 18  1  0
 20 19  2  0
 22 23  1  0
 22 21  1  6
 24 22  1  0
 25 24  1  0
 26 24  2  0
M  END
$$$$
