RCN.pdb
     RDKit          3D

 26 25  0  0  1  0  0  0  0  0999 V2000
    9.2154  -12.8901   17.6496 N   0  0  0  0  0  0  0  0  0  0  0  0
    8.2657  -13.7009   16.9754 C   0  0  0  0  0  0  0  0  0  0  0  0
    8.4554  -14.1597   15.7713 N   0  0  0  0  0  0  0  0  0  0  0  0
    7.0403  -14.0522   17.6047 N   0  0  0  0  0  0  0  0  0  0  0  0
    6.9644  -14.4047   19.0066 C   0  0  0  0  0  0  0  0  0  0  0  0
    8.0456  -15.4164   19.3636 C   0  0  0  0  0  0  0  0  0  0  0  0
    8.7601  -15.0548   20.6150 C   0  0  0  0  0  0  0  0  0  0  0  0
    8.1505  -15.7274   21.8119 C   0  0  2  0  0  0  0  0  0  0  0  0
    6.6923  -15.6826   21.6470 N   0  0  0  0  0  0  0  0  0  0  0  0
    8.5346  -15.1613   23.1129 C   0  0  0  0  0  0  0  0  0  0  0  0
    9.7825  -15.0969   23.3814 O   0  0  0  0  0  0  0  0  0  0  0  0
    7.7522  -14.7487   15.2896 N   0  0  0  0  0  0  0  0  0  0  0  0
    7.5987  -14.6921   24.0654 C   0  0  1  0  0  0  0  0  0  0  0  0
    8.0840  -14.1753   25.3329 C   0  0  0  0  0  0  0  0  0  0  0  0
    7.0057  -13.2874   25.9027 S   0  0  0  0  0  0  0  0  0  0  0  0
    7.4341  -12.7053   27.5520 C   0  0  0  0  0  0  0  0  0  0  0  0
    8.5219  -15.2611   26.2190 O   0  0  0  0  0  0  0  0  0  0  0  0
    7.6856  -16.2120   26.4112 N   0  0  0  0  0  0  0  0  0  0  0  0
   12.7573  -18.6438   28.7704 C   0  0  0  0  0  0  0  0  0  0  0  0
   11.4285  -18.4115   28.3391 O   0  0  0  0  0  0  0  0  0  0  0  0
   10.4780  -19.1364   28.8006 C   0  0  0  0  0  0  0  0  0  0  0  0
   11.1021  -17.3552   27.3740 C   0  0  2  0  0  0  0  0  0  0  0  0
   10.0057  -16.4622   27.8526 N   0  0  0  0  0  0  0  0  0  0  0  0
    9.7459  -15.3894   26.8832 C   0  0  0  0  0  0  0  0  0  0  0  0
   10.4270  -15.8510   29.1481 O   0  0  0  0  0  0  0  0  0  0  0  0
   10.4829  -16.5273   30.3289 O   0  0  0  0  0  0  0  0  0  0  0  0
  1  2  1  0
  2  3  2  0
  4  5  1  0
  4  2  1  0
  6  5  1  0
  7  6  1  0
  7  8  1  0
  8 10  1  0
  8  9  1  6
 10 11  2  0
 12 13  1  0
 12 10  1  0
 14 15  1  0
 13 14  1  1
 16 23  1  0
 16 13  1  0
 17 16  2  0
 19 21  1  0
 19 18  1  0
 20 19  2  0
 22 23  1  0
 22 21  1  6
 24 22  1  0
 25 24  1  0
 26 24  2  0
M  END
$$$$
