RCN.pdb
     RDKit          3D

 26 25  0  0  1  0  0  0  0  0999 V2000
    7.3898  -13.0685   15.7781 N   0  0  0  0  0  0  0  0  0  0  0  0
    8.2306  -14.2090   15.8562 C   0  0  0  0  0  0  0  0  0  0  0  0
    8.6349  -14.8630   14.8049 N   0  0  0  0  0  0  0  0  0  0  0  0
    8.6751  -14.6931   17.1168 N   0  0  0  0  0  0  0  0  0  0  0  0
    7.7542  -15.0897   18.1608 C   0  0  0  0  0  0  0  0  0  0  0  0
    7.1844  -13.8656   18.8657 C   0  0  0  0  0  0  0  0  0  0  0  0
    8.0372  -13.4242   19.9994 C   0  0  0  0  0  0  0  0  0  0  0  0
    8.3520  -14.5622   20.9281 C   0  0  2  0  0  0  0  0  0  0  0  0
    7.2492  -15.5266   20.8324 N   0  0  0  0  0  0  0  0  0  0  0  0
    8.5785  -14.1834   22.3301 C   0  0  0  0  0  0  0  0  0  0  0  0
    9.3201  -13.1666   22.5526 O   0  0  0  0  0  0  0  0  0  0  0  0
    9.3107  -15.6455   14.8696 N   0  0  0  0  0  0  0  0  0  0  0  0
    8.0205  -14.8837   23.4263 C   0  0  1  0  0  0  0  0  0  0  0  0
    8.2756  -14.4016   24.7724 C   0  0  0  0  0  0  0  0  0  0  0  0
    6.9839  -13.8288   25.3006 S   0  0  0  0  0  0  0  0  0  0  0  0
    7.1468  -13.3071   27.0164 C   0  0  0  0  0  0  0  0  0  0  0  0
    8.8745  -15.4487   25.6094 O   0  0  0  0  0  0  0  0  0  0  0  0
    8.1627  -16.4944   25.8100 N   0  0  0  0  0  0  0  0  0  0  0  0
    9.6182  -13.9023   29.5186 C   0  0  0  0  0  0  0  0  0  0  0  0
   10.5448  -14.7277   28.8363 O   0  0  0  0  0  0  0  0  0  0  0  0
   11.6657  -14.2385   28.4543 C   0  0  0  0  0  0  0  0  0  0  0  0
   10.2607  -16.1395   28.5531 C   0  0  2  0  0  0  0  0  0  0  0  0
   10.5616  -16.5107   27.1388 N   0  0  0  0  0  0  0  0  0  0  0  0
   10.1335  -15.4488   26.2183 C   0  0  0  0  0  0  0  0  0  0  0  0
    9.8172  -17.7629   26.8113 O   0  0  0  0  0  0  0  0  0  0  0  0
   10.0326  -18.9610   27.4220 O   0  0  0  0  0  0  0  0  0  0  0  0
  1  2  1  0
  2  3  2  0
  4  5  1  0
  4  2  1  0
  6  5  1  0
  7  6  1  0
  7  8  1  0
  8 10  1  0
  8  9  1  1
 10 11  2  0
 12 13  1  0
 12 10  1  0
 14 15  1  0
 13 14  1  1
 16 23  1  0
 16 13  1  0
 17 16  2  0
 19 21  1  0
 19 18  1  0
 20 19  2  0
 22 23  1  0
 22 21  1  1
 24 22  1  0
 25 24  1  0
 26 24  2  0
M  END
$$$$
