RCN.pdb
     RDKit          3D

 26 25  0  0  1  0  0  0  0  0999 V2000
    9.9472  -19.1834   18.8289 N   0  0  0  0  0  0  0  0  0  0  0  0
   10.2919  -20.0232   19.9197 C   0  0  0  0  0  0  0  0  0  0  0  0
   11.3002  -20.8470   19.8870 N   0  0  0  0  0  0  0  0  0  0  0  0
    9.5305  -19.9964   21.1199 N   0  0  0  0  0  0  0  0  0  0  0  0
    8.3981  -19.1123   21.2974 C   0  0  0  0  0  0  0  0  0  0  0  0
    8.8654  -17.7132   21.6771 C   0  0  0  0  0  0  0  0  0  0  0  0
    7.7279  -16.7839   21.9005 C   0  0  0  0  0  0  0  0  0  0  0  0
    8.2031  -15.3814   22.1525 C   0  0  2  0  0  0  0  0  0  0  0  0
    9.0442  -14.9903   21.0144 N   0  0  0  0  0  0  0  0  0  0  0  0
    8.9285  -15.1822   23.4152 C   0  0  0  0  0  0  0  0  0  0  0  0
   10.1896  -15.3897   23.4086 O   0  0  0  0  0  0  0  0  0  0  0  0
   11.5273  -21.4708   20.6824 N   0  0  0  0  0  0  0  0  0  0  0  0
    8.3022  -14.7774   24.6182 C   0  0  2  0  0  0  0  0  0  0  0  0
    9.1077  -14.6387   25.8187 C   0  0  0  0  0  0  0  0  0  0  0  0
    8.3720  -13.7109   26.7532 S   0  0  0  0  0  0  0  0  0  0  0  0
    9.2266  -13.5492   28.3299 C   0  0  0  0  0  0  0  0  0  0  0  0
    9.4453  -15.9491   26.3888 O   0  0  0  0  0  0  0  0  0  0  0  0
    8.4748  -16.7710   26.5415 N   0  0  0  0  0  0  0  0  0  0  0  0
   13.4747  -18.3948   24.8958 C   0  0  0  0  0  0  0  0  0  0  0  0
   12.2949  -18.6373   25.6407 O   0  0  0  0  0  0  0  0  0  0  0  0
   11.2755  -19.1529   25.0605 C   0  0  0  0  0  0  0  0  0  0  0  0
   12.2030  -18.3166   27.0699 C   0  0  2  0  0  0  0  0  0  0  0  0
   10.8848  -17.7206   27.4386 N   0  0  0  0  0  0  0  0  0  0  0  0
   10.7015  -16.4165   26.7876 C   0  0  0  0  0  0  0  0  0  0  0  0
   10.8507  -17.5306   28.9191 O   0  0  0  0  0  0  0  0  0  0  0  0
   10.9978  -18.5395   29.8220 O   0  0  0  0  0  0  0  0  0  0  0  0
  1  2  1  0
  2  3  2  0
  4  5  1  0
  4  2  1  0
  6  5  1  0
  7  6  1  0
  7  8  1  0
  8 10  1  0
  8  9  1  6
 10 11  2  0
 12 13  1  0
 12 10  1  0
 14 15  1  0
 13 14  1  1
 16 23  1  0
 16 13  1  0
 17 16  2  0
 19 21  1  0
 19 18  1  0
 20 19  2  0
 22 23  1  0
 22 21  1  6
 24 22  1  0
 25 24  1  0
 26 24  2  0
M  END
$$$$
