RCN.pdb
     RDKit          3D

 26 25  0  0  1  0  0  0  0  0999 V2000
    9.1120  -14.4250   17.6742 N   0  0  0  0  0  0  0  0  0  0  0  0
    8.2243  -13.3181   17.7017 C   0  0  0  0  0  0  0  0  0  0  0  0
    7.5996  -12.8861   16.6436 N   0  0  0  0  0  0  0  0  0  0  0  0
    7.9770  -12.6212   18.9158 N   0  0  0  0  0  0  0  0  0  0  0  0
    7.9917  -13.2823   20.2034 C   0  0  0  0  0  0  0  0  0  0  0  0
    7.2307  -14.6001   20.1375 C   0  0  0  0  0  0  0  0  0  0  0  0
    8.1399  -15.7746   20.1735 C   0  0  0  0  0  0  0  0  0  0  0  0
    8.0964  -16.4647   21.5071 C   0  0  2  0  0  0  0  0  0  0  0  0
    6.6938  -16.7977   21.7850 N   0  0  0  0  0  0  0  0  0  0  0  0
    8.6717  -15.7046   22.6258 C   0  0  0  0  0  0  0  0  0  0  0  0
    9.8804  -15.3066   22.5070 O   0  0  0  0  0  0  0  0  0  0  0  0
    7.0549  -12.0049   16.6475 N   0  0  0  0  0  0  0  0  0  0  0  0
    7.9577  -15.3990   23.8091 C   0  0  1  0  0  0  0  0  0  0  0  0
    8.7000  -15.0825   25.0166 C   0  0  0  0  0  0  0  0  0  0  0  0
    7.8498  -14.1458   25.8385 S   0  0  0  0  0  0  0  0  0  0  0  0
    6.2665  -14.8920   26.2615 C   0  0  0  0  0  0  0  0  0  0  0  0
    9.1274  -16.3014   25.7149 O   0  0  0  0  0  0  0  0  0  0  0  0
    8.2194  -17.1756   25.9426 N   0  0  0  0  0  0  0  0  0  0  0  0
   10.2145  -20.1306   25.2679 C   0  0  0  0  0  0  0  0  0  0  0  0
   11.5558  -19.7115   25.4440 O   0  0  0  0  0  0  0  0  0  0  0  0
   12.4999  -20.3505   24.8591 C   0  0  0  0  0  0  0  0  0  0  0  0
   11.9017  -18.5561   26.2802 C   0  0  2  0  0  0  0  0  0  0  0  0
   10.6987  -17.8911   26.8625 N   0  0  0  0  0  0  0  0  0  0  0  0
   10.4099  -16.6311   26.1645 C   0  0  0  0  0  0  0  0  0  0  0  0
   10.9729  -17.5951   28.3000 O   0  0  0  0  0  0  0  0  0  0  0  0
   11.1403  -18.5491   29.2575 O   0  0  0  0  0  0  0  0  0  0  0  0
  1  2  1  0
  2  3  2  0
  4  5  1  0
  4  2  1  0
  6  5  1  0
  7  6  1  0
  7  8  1  0
  8 10  1  0
  8  9  1  1
 10 11  2  0
 12 13  1  0
 12 10  1  0
 14 15  1  0
 13 14  1  1
 16 23  1  0
 16 13  1  0
 17 16  2  0
 19 21  1  0
 19 18  1  0
 20 19  2  0
 22 23  1  0
 22 21  1  6
 24 22  1  0
 25 24  1  0
 26 24  2  0
M  END
$$$$
