RCN.pdb
     RDKit          3D

 26 25  0  0  1  0  0  0  0  0999 V2000
    7.2376  -18.7933   18.9171 N   0  0  0  0  0  0  0  0  0  0  0  0
    7.5603  -18.3662   17.6028 C   0  0  0  0  0  0  0  0  0  0  0  0
    7.1640  -18.9997   16.5360 N   0  0  0  0  0  0  0  0  0  0  0  0
    8.3482  -17.2013   17.3955 N   0  0  0  0  0  0  0  0  0  0  0  0
    8.8788  -16.4214   18.4934 C   0  0  0  0  0  0  0  0  0  0  0  0
    7.7488  -15.8547   19.3430 C   0  0  0  0  0  0  0  0  0  0  0  0
    8.2546  -15.0265   20.4680 C   0  0  0  0  0  0  0  0  0  0  0  0
    7.8586  -15.6021   21.7979 C   0  0  2  0  0  0  0  0  0  0  0  0
    6.4108  -15.8428   21.7599 N   0  0  0  0  0  0  0  0  0  0  0  0
    8.2090  -14.7816   22.9659 C   0  0  0  0  0  0  0  0  0  0  0  0
    9.4463  -14.5213   23.1524 O   0  0  0  0  0  0  0  0  0  0  0  0
    7.3693  -18.6526   15.5817 N   0  0  0  0  0  0  0  0  0  0  0  0
    7.2523  -14.2755   23.8780 C   0  0  1  0  0  0  0  0  0  0  0  0
    7.7125  -13.6483   25.1043 C   0  0  0  0  0  0  0  0  0  0  0  0
    6.6772  -12.6278   25.5073 S   0  0  0  0  0  0  0  0  0  0  0  0
    7.0294  -11.9377   27.1329 C   0  0  0  0  0  0  0  0  0  0  0  0
    8.0244  -14.6502   26.1314 O   0  0  0  0  0  0  0  0  0  0  0  0
    7.2719  -15.6862   26.1637 N   0  0  0  0  0  0  0  0  0  0  0  0
   10.8966  -18.1307   28.6120 C   0  0  0  0  0  0  0  0  0  0  0  0
   11.0434  -17.7898   27.2453 O   0  0  0  0  0  0  0  0  0  0  0  0
   11.7500  -18.5359   26.4798 C   0  0  0  0  0  0  0  0  0  0  0  0
   10.4034  -16.6001   26.6718 C   0  0  1  0  0  0  0  0  0  0  0  0
    9.6086  -15.8368   27.6790 N   0  0  0  0  0  0  0  0  0  0  0  0
    9.0472  -14.6164   27.0844 C   0  0  0  0  0  0  0  0  0  0  0  0
   10.5142  -15.4542   28.8028 O   0  0  0  0  0  0  0  0  0  0  0  0
   10.9522  -16.3196   29.7589 O   0  0  0  0  0  0  0  0  0  0  0  0
  1  2  1  0
  2  3  2  0
  4  5  1  0
  4  2  1  0
  6  5  1  0
  7  6  1  0
  7  8  1  0
  8 10  1  0
  8  9  1  6
 10 11  2  0
 12 13  1  0
 12 10  1  0
 14 15  1  0
 13 14  1  6
 16 23  1  0
 16 13  1  0
 17 16  2  0
 19 21  1  0
 19 18  1  0
 20 19  2  0
 22 23  1  0
 22 21  1  6
 24 22  1  0
 25 24  1  0
 26 24  2  0
M  END
$$$$
