ARP.pdb
     RDKit          3D

 24 24  0  0  1  0  0  0  0  0999 V2000
   20.4866  -20.1677  -17.2278 C   0  0  0  0  0  0  0  0  0  0  0  0
   20.7038  -20.7288  -15.8628 C   0  0  2  0  0  0  0  0  0  0  0  0
   19.5308  -20.6081  -15.0168 N   0  0  0  0  0  0  0  0  0  0  0  0
   21.9055  -20.1564  -15.1852 C   0  0  0  0  0  0  0  0  0  0  0  0
   21.8103  -19.1320  -14.4611 O   0  0  0  0  0  0  0  0  0  0  0  0
   25.2484  -21.4441   -8.3124 N   0  0  0  0  0  0  0  0  0  0  0  0
   24.5223  -21.1274   -9.4847 C   0  0  0  0  0  0  0  0  0  0  0  0
   23.3516  -20.5365   -9.4593 N   0  0  0  0  0  0  0  0  0  0  0  0
   25.0092  -21.4274  -10.7953 N   0  0  0  0  0  0  0  0  0  0  0  0
   25.7666  -20.4813  -11.5929 C   0  0  0  0  0  0  0  0  0  0  0  0
   26.0917  -21.0493  -12.9606 C   0  0  0  0  0  0  0  0  0  0  0  0
   24.9012  -21.3230  -13.7788 C   0  0  0  0  0  0  0  0  0  0  0  0
   24.3741  -20.1645  -14.5908 C   0  0  2  0  0  0  0  0  0  0  0  0
   23.1826  -20.7377  -15.3302 N   0  0  0  0  0  0  0  0  0  0  0  0
   25.2889  -19.6561  -15.6128 C   0  0  0  0  0  0  0  0  0  0  0  0
   25.5679  -20.5613  -16.5231 O   0  0  0  0  0  0  0  0  0  0  0  0
   22.9751  -20.2602  -10.3920 N   0  0  0  0  0  0  0  0  0  0  0  0
   25.8951  -18.4133  -15.7873 C   0  0  0  0  0  0  0  0  0  0  0  0
   25.8797  -17.3903  -14.7070 C   0  0  0  0  0  0  0  0  0  0  0  0
   27.2479  -16.7217  -14.9163 C   0  0  0  0  0  0  0  0  0  0  0  0
   27.1672  -16.4950  -16.4089 C   0  0  1  0  0  0  0  0  0  0  0  0
   26.6481  -17.8791  -16.8752 C   0  0  0  0  0  0  0  0  0  0  0  0
   27.9200  -18.6742  -17.0748 O   0  0  0  0  0  0  0  0  0  0  0  0
   28.5452  -18.5471  -18.1580 O   0  0  0  0  0  0  0  0  0  0  0  0
  2  1  1  6
  2  3  1  0
  4  2  1  0
  4  5  2  0
  6  7  1  0
  7  9  1  0
  8  7  2  0
  9 10  1  0
 10 11  1  0
 11 12  1  0
 13 12  1  6
 13 14  1  0
 14  4  1  0
 15 13  1  0
 16 15  2  0
 17 15  1  0
 18 19  1  0
 18 17  1  0
 19 20  1  0
 20 21  1  0
 21 17  1  0
 21 22  1  6
 23 22  2  0
 24 22  1  0
M  END
$$$$
