ARP.pdb
     RDKit          3D

 24 24  0  0  1  0  0  0  0  0999 V2000
   44.0078   -8.6005   -5.4943 C   0  0  0  0  0  0  0  0  0  0  0  0
   43.9915   -9.2313   -6.8459 C   0  0  2  0  0  0  0  0  0  0  0  0
   42.6468   -9.5086   -7.3161 N   0  0  0  0  0  0  0  0  0  0  0  0
   44.8420  -10.4566   -6.9239 C   0  0  0  0  0  0  0  0  0  0  0  0
   46.0475  -10.4283   -6.5649 O   0  0  0  0  0  0  0  0  0  0  0  0
   42.6625  -18.1242   -9.9930 N   0  0  0  0  0  0  0  0  0  0  0  0
   43.7788  -18.5648   -9.2437 C   0  0  0  0  0  0  0  0  0  0  0  0
   44.3185  -19.7500   -9.4001 N   0  0  0  0  0  0  0  0  0  0  0  0
   44.4098  -17.7497   -8.2525 N   0  0  0  0  0  0  0  0  0  0  0  0
   43.8373  -16.5072   -7.7695 C   0  0  0  0  0  0  0  0  0  0  0  0
   44.8389  -15.3717   -7.8477 C   0  0  0  0  0  0  0  0  0  0  0  0
   44.2787  -14.0692   -7.4586 C   0  0  0  0  0  0  0  0  0  0  0  0
   45.2289  -12.8971   -7.5086 C   0  0  2  0  0  0  0  0  0  0  0  0
   44.3304  -11.6824   -7.3990 N   0  0  0  0  0  0  0  0  0  0  0  0
   45.9692  -12.7515   -8.7619 C   0  0  0  0  0  0  0  0  0  0  0  0
   45.1710  -12.6538   -9.8007 O   0  0  0  0  0  0  0  0  0  0  0  0
   45.2038  -19.9063   -8.8714 N   0  0  0  0  0  0  0  0  0  0  0  0
   47.3341  -12.6952   -9.0380 C   0  0  0  0  0  0  0  0  0  0  0  0
   48.3446  -12.7876   -7.9498 C   0  0  0  0  0  0  0  0  0  0  0  0
   49.4749  -13.5473   -8.6625 C   0  0  0  0  0  0  0  0  0  0  0  0
   49.5465  -12.7207   -9.9264 C   0  0  2  0  0  0  0  0  0  0  0  0
   48.0402  -12.6103  -10.2750 C   0  0  0  0  0  0  0  0  0  0  0  0
   47.7887  -13.8469  -11.1101 O   0  0  0  0  0  0  0  0  0  0  0  0
   48.2288  -13.8776  -12.2872 O   0  0  0  0  0  0  0  0  0  0  0  0
  2  1  1  1
  2  3  1  0
  4  2  1  0
  4  5  2  0
  6  7  1  0
  7  9  1  0
  8  7  2  0
  9 10  1  0
 10 11  1  0
 11 12  1  0
 13 12  1  6
 13 14  1  0
 14  4  1  0
 15 13  1  0
 16 15  2  0
 17 15  1  0
 18 19  1  0
 18 17  1  0
 19 20  1  0
 20 21  1  0
 21 17  1  0
 21 22  1  6
 23 22  2  0
 24 22  1  0
M  END
$$$$
