ARP.pdb
     RDKit          3D

 24 24  0  0  1  0  0  0  0  0999 V2000
   20.2840  -12.4592  -20.0633 C   0  0  0  0  0  0  0  0  0  0  0  0
   21.2206  -13.3351  -19.3012 C   0  0  2  0  0  0  0  0  0  0  0  0
   20.6402  -14.6255  -18.9788 N   0  0  0  0  0  0  0  0  0  0  0  0
   21.7607  -12.6768  -18.0740 C   0  0  0  0  0  0  0  0  0  0  0  0
   21.0280  -12.4865  -17.0692 O   0  0  0  0  0  0  0  0  0  0  0  0
   29.5190  -12.7910  -17.3947 N   0  0  0  0  0  0  0  0  0  0  0  0
   29.1603  -11.4225  -17.3851 C   0  0  0  0  0  0  0  0  0  0  0  0
   29.7687  -10.5217  -18.1191 N   0  0  0  0  0  0  0  0  0  0  0  0
   28.1016  -10.9107  -16.5713 N   0  0  0  0  0  0  0  0  0  0  0  0
   27.3416  -11.7365  -15.6518 C   0  0  0  0  0  0  0  0  0  0  0  0
   25.8801  -11.3337  -15.6283 C   0  0  0  0  0  0  0  0  0  0  0  0
   25.0833  -11.9597  -16.6937 C   0  0  0  0  0  0  0  0  0  0  0  0
   23.6218  -11.5837  -16.7366 C   0  0  2  0  0  0  0  0  0  0  0  0
   23.1019  -12.2468  -17.9955 N   0  0  0  0  0  0  0  0  0  0  0  0
   23.3532  -10.1530  -16.8822 C   0  0  0  0  0  0  0  0  0  0  0  0
   23.8647   -9.6626  -17.9885 O   0  0  0  0  0  0  0  0  0  0  0  0
   29.3462   -9.5685  -18.0903 N   0  0  0  0  0  0  0  0  0  0  0  0
   22.6652   -9.2464  -16.0779 C   0  0  0  0  0  0  0  0  0  0  0  0
   22.0850   -9.6611  -14.7721 C   0  0  0  0  0  0  0  0  0  0  0  0
   22.2744   -8.3786  -13.9461 C   0  0  0  0  0  0  0  0  0  0  0  0
   21.7130   -7.3828  -14.9356 C   0  0  2  0  0  0  0  0  0  0  0  0
   22.4185   -7.8497  -16.2344 C   0  0  0  0  0  0  0  0  0  0  0  0
   23.7212   -7.0802  -16.2142 O   0  0  0  0  0  0  0  0  0  0  0  0
   24.7733   -7.6870  -15.8901 O   0  0  0  0  0  0  0  0  0  0  0  0
  2  1  1  1
  2  3  1  0
  4  2  1  0
  4  5  2  0
  6  7  1  0
  7  9  1  0
  8  7  2  0
  9 10  1  0
 10 11  1  0
 11 12  1  0
 13 12  1  6
 13 14  1  0
 14  4  1  0
 15 13  1  0
 16 15  2  0
 17 15  1  0
 18 19  1  0
 18 17  1  0
 19 20  1  0
 20 21  1  0
 21 17  1  0
 21 22  1  1
 23 22  2  0
 24 22  1  0
M  END
$$$$
