ARP.pdb
     RDKit          3D

 24 24  0  0  1  0  0  0  0  0999 V2000
   11.3894  -17.6009    0.2646 C   0  0  0  0  0  0  0  0  0  0  0  0
   10.9828  -18.6788   -0.6831 C   0  0  2  0  0  0  0  0  0  0  0  0
    9.5470  -18.7289   -0.8884 N   0  0  0  0  0  0  0  0  0  0  0  0
   11.5084  -20.0215   -0.2935 C   0  0  0  0  0  0  0  0  0  0  0  0
   10.8584  -20.7675    0.4834 O   0  0  0  0  0  0  0  0  0  0  0  0
   17.5285  -25.1147   -4.6032 N   0  0  0  0  0  0  0  0  0  0  0  0
   17.1111  -25.8261   -3.4537 C   0  0  0  0  0  0  0  0  0  0  0  0
   17.5089  -27.0475   -3.1888 N   0  0  0  0  0  0  0  0  0  0  0  0
   16.2191  -25.2676   -2.4856 N   0  0  0  0  0  0  0  0  0  0  0  0
   15.5430  -23.9977   -2.6737 C   0  0  0  0  0  0  0  0  0  0  0  0
   14.6836  -23.6479   -1.4745 C   0  0  0  0  0  0  0  0  0  0  0  0
   13.9754  -22.3672   -1.6156 C   0  0  0  0  0  0  0  0  0  0  0  0
   13.2345  -21.8812   -0.3933 C   0  0  2  0  0  0  0  0  0  0  0  0
   12.7436  -20.5006   -0.7781 N   0  0  0  0  0  0  0  0  0  0  0  0
   14.0580  -21.7080    0.8033 C   0  0  0  0  0  0  0  0  0  0  0  0
   15.0222  -20.8349    0.6196 O   0  0  0  0  0  0  0  0  0  0  0  0
   17.1320  -27.4538   -2.3051 N   0  0  0  0  0  0  0  0  0  0  0  0
   13.9972  -22.2874    2.0695 C   0  0  0  0  0  0  0  0  0  0  0  0
   12.9175  -23.2469    2.4264 C   0  0  0  0  0  0  0  0  0  0  0  0
   13.6718  -24.2013    3.3661 C   0  0  0  0  0  0  0  0  0  0  0  0
   14.3306  -23.1733    4.2577 C   0  0  2  0  0  0  0  0  0  0  0  0
   14.8696  -22.1833    3.1937 C   0  0  0  0  0  0  0  0  0  0  0  0
   16.2319  -22.7490    2.8563 O   0  0  0  0  0  0  0  0  0  0  0  0
   17.1725  -22.5801    3.6731 O   0  0  0  0  0  0  0  0  0  0  0  0
  2  1  1  1
  2  3  1  0
  4  2  1  0
  4  5  2  0
  6  7  1  0
  7  9  1  0
  8  7  2  0
  9 10  1  0
 10 11  1  0
 11 12  1  0
 13 12  1  6
 13 14  1  0
 14  4  1  0
 15 13  1  0
 16 15  2  0
 17 15  1  0
 18 19  1  0
 18 17  1  0
 19 20  1  0
 20 21  1  0
 21 17  1  0
 21 22  1  1
 23 22  2  0
 24 22  1  0
M  END
$$$$
