ARP.pdb
     RDKit          3D

 24 24  0  0  1  0  0  0  0  0999 V2000
   20.9867  -17.4807  -18.1301 C   0  0  0  0  0  0  0  0  0  0  0  0
   21.2373  -17.4726  -16.6596 C   0  0  2  0  0  0  0  0  0  0  0  0
   20.5014  -16.4264  -15.9739 N   0  0  0  0  0  0  0  0  0  0  0  0
   22.6903  -17.4068  -16.3196 C   0  0  0  0  0  0  0  0  0  0  0  0
   23.3013  -16.3071  -16.3124 O   0  0  0  0  0  0  0  0  0  0  0  0
   27.1821  -21.9161  -11.2060 N   0  0  0  0  0  0  0  0  0  0  0  0
   26.1072  -21.0683  -10.8493 C   0  0  0  0  0  0  0  0  0  0  0  0
   25.3418  -21.2888   -9.8071 N   0  0  0  0  0  0  0  0  0  0  0  0
   25.7685  -19.8989  -11.5994 N   0  0  0  0  0  0  0  0  0  0  0  0
   26.6546  -19.3075  -12.5843 C   0  0  0  0  0  0  0  0  0  0  0  0
   26.3375  -19.8060  -13.9807 C   0  0  0  0  0  0  0  0  0  0  0  0
   24.9741  -19.4792  -14.4233 C   0  0  0  0  0  0  0  0  0  0  0  0
   24.8629  -18.4550  -15.5270 C   0  0  2  0  0  0  0  0  0  0  0  0
   23.4268  -18.5657  -15.9964 N   0  0  0  0  0  0  0  0  0  0  0  0
   25.7011  -18.7115  -16.6982 C   0  0  0  0  0  0  0  0  0  0  0  0
   25.3914  -19.8418  -17.2917 O   0  0  0  0  0  0  0  0  0  0  0  0
   24.5715  -20.5992   -9.6699 N   0  0  0  0  0  0  0  0  0  0  0  0
   26.7380  -17.9847  -17.2805 C   0  0  0  0  0  0  0  0  0  0  0  0
   27.1812  -16.6836  -16.7108 C   0  0  0  0  0  0  0  0  0  0  0  0
   28.6897  -16.7343  -17.0020 C   0  0  0  0  0  0  0  0  0  0  0  0
   28.6296  -17.1365  -18.4582 C   0  0  2  0  0  0  0  0  0  0  0  0
   27.5846  -18.2793  -18.3906 C   0  0  0  0  0  0  0  0  0  0  0  0
   28.4288  -19.5007  -18.0986 O   0  0  0  0  0  0  0  0  0  0  0  0
   28.4116  -19.9800  -16.9366 O   0  0  0  0  0  0  0  0  0  0  0  0
  2  1  1  6
  2  3  1  0
  4  2  1  0
  4  5  2  0
  6  7  1  0
  7  9  1  0
  8  7  2  0
  9 10  1  0
 10 11  1  0
 11 12  1  0
 13 12  1  1
 13 14  1  0
 14  4  1  0
 15 13  1  0
 16 15  2  0
 17 15  1  0
 18 19  1  0
 18 17  1  0
 19 20  1  0
 20 21  1  0
 21 17  1  0
 21 22  1  1
 23 22  2  0
 24 22  1  0
M  END
$$$$
