ARP.pdb
     RDKit          3D

 24 24  0  0  1  0  0  0  0  0999 V2000
   14.7319  -22.5539  -15.1630 C   0  0  0  0  0  0  0  0  0  0  0  0
   14.9465  -23.0566  -13.7751 C   0  0  2  0  0  0  0  0  0  0  0  0
   14.2252  -22.2812  -12.7829 N   0  0  0  0  0  0  0  0  0  0  0  0
   16.3920  -23.1631  -13.4143 C   0  0  0  0  0  0  0  0  0  0  0  0
   17.0756  -22.1330  -13.1812 O   0  0  0  0  0  0  0  0  0  0  0  0
   18.5105  -25.6664   -6.3152 N   0  0  0  0  0  0  0  0  0  0  0  0
   17.6151  -24.9094   -7.1068 C   0  0  0  0  0  0  0  0  0  0  0  0
   16.4131  -24.5762   -6.7012 N   0  0  0  0  0  0  0  0  0  0  0  0
   17.9508  -24.4453   -8.4171 N   0  0  0  0  0  0  0  0  0  0  0  0
   19.2625  -24.6302   -9.0091 C   0  0  0  0  0  0  0  0  0  0  0  0
   19.3008  -24.1168  -10.4352 C   0  0  0  0  0  0  0  0  0  0  0  0
   18.2766  -24.7184  -11.3017 C   0  0  0  0  0  0  0  0  0  0  0  0
   18.4543  -24.5043  -12.7855 C   0  0  2  0  0  0  0  0  0  0  0  0
   17.0406  -24.4124  -13.3220 N   0  0  0  0  0  0  0  0  0  0  0  0
   19.0959  -25.6084  -13.4992 C   0  0  0  0  0  0  0  0  0  0  0  0
   18.4776  -26.7509  -13.3039 O   0  0  0  0  0  0  0  0  0  0  0  0
   15.8508  -24.0274   -7.3871 N   0  0  0  0  0  0  0  0  0  0  0  0
   20.2137  -25.6577  -14.3302 C   0  0  0  0  0  0  0  0  0  0  0  0
   21.0136  -24.4367  -14.6185 C   0  0  0  0  0  0  0  0  0  0  0  0
   22.4278  -25.0301  -14.7230 C   0  0  0  0  0  0  0  0  0  0  0  0
   22.1257  -26.1819  -15.6547 C   0  0  1  0  0  0  0  0  0  0  0  0
   20.8476  -26.7531  -14.9893 C   0  0  0  0  0  0  0  0  0  0  0  0
   21.3962  -27.7316  -13.9738 O   0  0  0  0  0  0  0  0  0  0  0  0
   21.4196  -27.3926  -12.7635 O   0  0  0  0  0  0  0  0  0  0  0  0
  2  1  1  6
  2  3  1  0
  4  2  1  0
  4  5  2  0
  6  7  1  0
  7  9  1  0
  8  7  2  0
  9 10  1  0
 10 11  1  0
 11 12  1  0
 13 12  1  1
 13 14  1  0
 14  4  1  0
 15 13  1  0
 16 15  2  0
 17 15  1  0
 18 19  1  0
 18 17  1  0
 19 20  1  0
 20 21  1  0
 21 17  1  0
 21 22  1  1
 23 22  2  0
 24 22  1  0
M  END
$$$$
