HFM.pdb
     RDKit          3D

 30 31  0  0  1  0  0  0  0  0999 V2000
   10.1335  -17.3801   19.4751 N   0  0  0  0  0  0  0  0  0  0  0  0
    9.2325  -17.5927   20.5833 C   0  0  1  0  0  0  0  0  0  0  0  0
    9.3769  -19.0074   21.1464 C   0  0  0  0  0  0  0  0  0  0  0  0
    8.9225  -19.9402   20.0845 C   0  0  0  0  0  0  0  0  0  0  0  0
    7.5922  -20.2928   19.8530 C   0  0  0  0  0  0  0  0  0  0  0  0
    7.5982  -21.1597   18.8030 N   0  0  0  0  0  0  0  0  0  0  0  0
    8.8490  -21.3495   18.3897 C   0  0  0  0  0  0  0  0  0  0  0  0
    9.6484  -20.6096   19.1679 N   0  0  0  0  0  0  0  0  0  0  0  0
    9.3807  -16.5787   21.6421 C   0  0  0  0  0  0  0  0  0  0  0  0
   10.5256  -16.2680   22.0575 O   0  0  0  0  0  0  0  0  0  0  0  0
    8.2167  -15.9756   22.1687 N   0  0  0  0  0  0  0  0  0  0  0  0
    8.3350  -14.9857   23.2632 C   0  0  1  0  0  0  0  0  0  0  0  0
    7.0427  -14.2574   23.3944 C   0  0  0  0  0  0  0  0  0  0  0  0
    6.9241  -13.2647   24.4486 C   0  0  0  0  0  0  0  0  0  0  0  0
    6.1787  -13.5832   25.5833 C   0  0  0  0  0  0  0  0  0  0  0  0
    6.1180  -12.6533   26.5881 C   0  0  0  0  0  0  0  0  0  0  0  0
    6.7559  -11.4162   26.5380 C   0  0  0  0  0  0  0  0  0  0  0  0
    7.4786  -11.1648   25.3826 C   0  0  0  0  0  0  0  0  0  0  0  0
    7.5820  -12.0510   24.3363 C   0  0  0  0  0  0  0  0  0  0  0  0
    8.6326  -15.7827   24.4659 C   0  0  0  0  0  0  0  0  0  0  0  0
    7.7603  -15.8319   25.4051 O   0  0  0  0  0  0  0  0  0  0  0  0
   10.6590  -13.1985   28.8870 C   0  0  0  0  0  0  0  0  0  0  0  0
    9.9256  -14.8286   29.1810 S   0  0  0  0  0  0  0  0  0  0  0  0
   10.8327  -16.0462   28.1998 C   0  0  0  0  0  0  0  0  0  0  0  0
    9.9350  -16.4986   27.0584 C   0  0  0  0  0  0  0  0  0  0  0  0
   10.6934  -16.1419   25.7636 C   0  0  2  0  0  0  0  0  0  0  0  0
    9.8561  -16.5261   24.6500 N   0  0  0  0  0  0  0  0  0  0  0  0
   11.9257  -16.9212   25.7692 C   0  0  0  0  0  0  0  0  0  0  0  0
   12.0233  -18.0178   25.1990 O   0  0  0  0  0  0  0  0  0  0  0  0
   13.0394  -16.3945   26.4530 O   0  0  0  0  0  0  0  0  0  0  0  0
  2  1  1  6
  2  3  1  0
  3  4  1  0
  4  5  2  0
  5  6  1  0
  7  6  1  0
  8  4  1  0
  8  7  2  0
  9  2  1  0
  9 11  1  0
 10  9  2  0
 12 11  1  0
 12 13  1  1
 13 14  1  0
 14 15  2  0
 14 19  1  0
 15 16  1  0
 16 17  2  0
 18 17  1  0
 19 18  2  0
 20 12  1  0
 21 20  2  0
 22 23  1  0
 24 23  1  0
 25 24  1  0
 26 25  1  1
 26 27  1  0
 26 28  1  0
 27 20  1  0
 28 30  1  0
 29 28  2  0
M  END
$$$$
