HFM.pdb
     RDKit          3D

 30 31  0  0  1  0  0  0  0  0999 V2000
   10.6384  -16.8853   18.7913 N   0  0  0  0  0  0  0  0  0  0  0  0
   10.6097  -17.5683   20.0632 C   0  0  1  0  0  0  0  0  0  0  0  0
   11.8442  -18.4538   20.2403 C   0  0  0  0  0  0  0  0  0  0  0  0
   11.8244  -19.4438   19.1340 C   0  0  0  0  0  0  0  0  0  0  0  0
   11.0318  -20.5921   19.1099 C   0  0  0  0  0  0  0  0  0  0  0  0
   11.3035  -21.2260   17.9358 N   0  0  0  0  0  0  0  0  0  0  0  0
   12.2097  -20.5297   17.2536 C   0  0  0  0  0  0  0  0  0  0  0  0
   12.5230  -19.4512   17.9820 N   0  0  0  0  0  0  0  0  0  0  0  0
   10.4448  -16.6479   21.2019 C   0  0  0  0  0  0  0  0  0  0  0  0
   11.3800  -15.8711   21.5212 O   0  0  0  0  0  0  0  0  0  0  0  0
    9.2244  -16.6639   21.9134 N   0  0  0  0  0  0  0  0  0  0  0  0
    9.0173  -15.7201   23.0351 C   0  0  1  0  0  0  0  0  0  0  0  0
    7.5697  -15.3806   23.1166 C   0  0  0  0  0  0  0  0  0  0  0  0
    7.1379  -14.4886   24.1791 C   0  0  0  0  0  0  0  0  0  0  0  0
    7.4904  -13.1416   24.1029 C   0  0  0  0  0  0  0  0  0  0  0  0
    7.0335  -12.3061   25.0884 C   0  0  0  0  0  0  0  0  0  0  0  0
    6.2415  -12.7262   26.1543 C   0  0  0  0  0  0  0  0  0  0  0  0
    5.9291  -14.0763   26.1686 C   0  0  0  0  0  0  0  0  0  0  0  0
    6.3532  -14.9704   25.2138 C   0  0  0  0  0  0  0  0  0  0  0  0
    9.4716  -16.4479   24.2327 C   0  0  0  0  0  0  0  0  0  0  0  0
    9.3570  -17.7252   24.2592 O   0  0  0  0  0  0  0  0  0  0  0  0
   12.0258  -13.1276   28.5775 C   0  0  0  0  0  0  0  0  0  0  0  0
   10.3700  -13.6338   29.1100 S   0  0  0  0  0  0  0  0  0  0  0  0
    9.8122  -14.9762   28.0353 C   0  0  0  0  0  0  0  0  0  0  0  0
   11.0343  -15.7633   27.5873 C   0  0  0  0  0  0  0  0  0  0  0  0
   10.5501  -16.6666   26.4347 C   0  0  2  0  0  0  0  0  0  0  0  0
   10.0517  -15.8045   25.3873 N   0  0  0  0  0  0  0  0  0  0  0  0
    9.4754  -17.4934   26.9708 C   0  0  0  0  0  0  0  0  0  0  0  0
    8.2779  -17.2415   26.7714 O   0  0  0  0  0  0  0  0  0  0  0  0
    9.8273  -18.6183   27.7429 O   0  0  0  0  0  0  0  0  0  0  0  0
  2  1  1  6
  2  3  1  0
  3  4  1  0
  4  5  2  0
  5  6  1  0
  7  6  1  0
  8  4  1  0
  8  7  2  0
  9  2  1  0
  9 11  1  0
 10  9  2  0
 12 11  1  0
 12 13  1  1
 13 14  1  0
 14 15  2  0
 14 19  1  0
 15 16  1  0
 16 17  2  0
 18 17  1  0
 19 18  2  0
 20 12  1  0
 21 20  2  0
 22 23  1  0
 24 23  1  0
 25 24  1  0
 26 25  1  1
 26 27  1  0
 26 28  1  0
 27 20  1  0
 28 30  1  0
 29 28  2  0
M  END
$$$$
