HFM.pdb
     RDKit          3D

 30 31  0  0  1  0  0  0  0  0999 V2000
    9.9716  -17.9194   18.9585 N   0  0  0  0  0  0  0  0  0  0  0  0
    9.3242  -18.1932   20.2198 C   0  0  1  0  0  0  0  0  0  0  0  0
    9.7613  -19.5475   20.7804 C   0  0  0  0  0  0  0  0  0  0  0  0
    9.0526  -20.5870   19.9920 C   0  0  0  0  0  0  0  0  0  0  0  0
    8.6692  -20.4480   18.6575 C   0  0  0  0  0  0  0  0  0  0  0  0
    8.0534  -21.6110   18.3079 N   0  0  0  0  0  0  0  0  0  0  0  0
    8.0433  -22.4396   19.3494 C   0  0  0  0  0  0  0  0  0  0  0  0
    8.6491  -21.8165   20.3676 N   0  0  0  0  0  0  0  0  0  0  0  0
    9.5206  -17.1178   21.2077 C   0  0  0  0  0  0  0  0  0  0  0  0
   10.5554  -16.4058   21.1626 O   0  0  0  0  0  0  0  0  0  0  0  0
    8.5276  -16.9136   22.1917 N   0  0  0  0  0  0  0  0  0  0  0  0
    8.5978  -15.7223   23.0679 C   0  0  1  0  0  0  0  0  0  0  0  0
    7.2166  -15.3429   23.4750 C   0  0  0  0  0  0  0  0  0  0  0  0
    7.0599  -14.2415   24.4094 C   0  0  0  0  0  0  0  0  0  0  0  0
    7.4189  -12.9594   23.9947 C   0  0  0  0  0  0  0  0  0  0  0  0
    7.2189  -11.9260   24.8722 C   0  0  0  0  0  0  0  0  0  0  0  0
    6.6803  -12.0854   26.1468 C   0  0  0  0  0  0  0  0  0  0  0  0
    6.3462  -13.3848   26.4942 C   0  0  0  0  0  0  0  0  0  0  0  0
    6.5198  -14.4676   25.6646 C   0  0  0  0  0  0  0  0  0  0  0  0
    9.4059  -16.1479   24.2239 C   0  0  0  0  0  0  0  0  0  0  0  0
    8.9672  -17.0962   24.9680 O   0  0  0  0  0  0  0  0  0  0  0  0
    9.7060  -12.9770   29.0710 C   0  0  0  0  0  0  0  0  0  0  0  0
    9.9002  -14.7147   29.5450 S   0  0  0  0  0  0  0  0  0  0  0  0
   10.8848  -15.5440   28.2758 C   0  0  0  0  0  0  0  0  0  0  0  0
   10.2643  -15.2398   26.9208 C   0  0  0  0  0  0  0  0  0  0  0  0
   11.2083  -15.8715   25.8775 C   0  0  2  0  0  0  0  0  0  0  0  0
   10.6790  -15.5616   24.5689 N   0  0  0  0  0  0  0  0  0  0  0  0
   11.1888  -17.3110   26.1090 C   0  0  0  0  0  0  0  0  0  0  0  0
   11.6983  -17.8316   27.1123 O   0  0  0  0  0  0  0  0  0  0  0  0
   10.5630  -18.1281   25.1467 O   0  0  0  0  0  0  0  0  0  0  0  0
  2  1  1  6
  2  3  1  0
  3  4  1  0
  4  5  2  0
  5  6  1  0
  7  6  1  0
  8  4  1  0
  8  7  2  0
  9  2  1  0
  9 11  1  0
 10  9  2  0
 12 11  1  0
 12 13  1  1
 13 14  1  0
 14 15  2  0
 14 19  1  0
 15 16  1  0
 16 17  2  0
 18 17  1  0
 19 18  2  0
 20 12  1  0
 21 20  2  0
 22 23  1  0
 24 23  1  0
 25 24  1  0
 26 25  1  1
 26 27  1  0
 26 28  1  0
 27 20  1  0
 28 30  1  0
 29 28  2  0
M  END
$$$$
