HFM.pdb
     RDKit          3D

 30 31  0  0  1  0  0  0  0  0999 V2000
    9.2159  -17.1679   18.5621 N   0  0  0  0  0  0  0  0  0  0  0  0
   10.2662  -17.2310   19.5510 C   0  0  1  0  0  0  0  0  0  0  0  0
   11.6398  -17.0316   18.9084 C   0  0  0  0  0  0  0  0  0  0  0  0
   11.7985  -18.1038   17.8938 C   0  0  0  0  0  0  0  0  0  0  0  0
   12.0943  -19.4361   18.1857 C   0  0  0  0  0  0  0  0  0  0  0  0
   12.1544  -20.0900   16.9928 N   0  0  0  0  0  0  0  0  0  0  0  0
   11.9130  -19.2335   16.0031 C   0  0  0  0  0  0  0  0  0  0  0  0
   11.6980  -18.0316   16.5522 N   0  0  0  0  0  0  0  0  0  0  0  0
   10.0570  -16.2915   20.6667 C   0  0  0  0  0  0  0  0  0  0  0  0
   10.4479  -15.1011   20.5661 O   0  0  0  0  0  0  0  0  0  0  0  0
    9.4147  -16.7603   21.8344 N   0  0  0  0  0  0  0  0  0  0  0  0
    9.1676  -15.8298   22.9590 C   0  0  1  0  0  0  0  0  0  0  0  0
    7.7399  -15.4076   22.9288 C   0  0  0  0  0  0  0  0  0  0  0  0
    7.2442  -14.6018   24.0315 C   0  0  0  0  0  0  0  0  0  0  0  0
    7.5086  -13.2326   24.0281 C   0  0  0  0  0  0  0  0  0  0  0  0
    6.9920  -12.4808   25.0508 C   0  0  0  0  0  0  0  0  0  0  0  0
    6.2225  -13.0062   26.0861 C   0  0  0  0  0  0  0  0  0  0  0  0
    5.9987  -14.3726   26.0280 C   0  0  0  0  0  0  0  0  0  0  0  0
    6.4862  -15.1865   25.0325 C   0  0  0  0  0  0  0  0  0  0  0  0
    9.4773  -16.6079   24.1711 C   0  0  0  0  0  0  0  0  0  0  0  0
    9.1489  -17.8473   24.2094 O   0  0  0  0  0  0  0  0  0  0  0  0
   11.0401  -12.3053   28.8419 C   0  0  0  0  0  0  0  0  0  0  0  0
   11.5877  -14.0321   28.8406 S   0  0  0  0  0  0  0  0  0  0  0  0
   11.0684  -14.7926   27.2850 C   0  0  0  0  0  0  0  0  0  0  0  0
   11.5285  -16.2424   27.2897 C   0  0  0  0  0  0  0  0  0  0  0  0
   10.5638  -16.9900   26.3466 C   0  0  2  0  0  0  0  0  0  0  0  0
   10.1422  -16.0562   25.3273 N   0  0  0  0  0  0  0  0  0  0  0  0
    9.4263  -17.4114   27.1557 C   0  0  0  0  0  0  0  0  0  0  0  0
    8.2909  -16.9357   27.0083 O   0  0  0  0  0  0  0  0  0  0  0  0
    9.6417  -18.3981   28.1383 O   0  0  0  0  0  0  0  0  0  0  0  0
  2  1  1  6
  2  3  1  0
  3  4  1  0
  4  5  2  0
  5  6  1  0
  7  6  1  0
  8  4  1  0
  8  7  2  0
  9  2  1  0
  9 11  1  0
 10  9  2  0
 12 11  1  0
 12 13  1  1
 13 14  1  0
 14 15  2  0
 14 19  1  0
 15 16  1  0
 16 17  2  0
 18 17  1  0
 19 18  2  0
 20 12  1  0
 21 20  2  0
 22 23  1  0
 24 23  1  0
 25 24  1  0
 26 25  1  1
 26 27  1  0
 26 28  1  0
 27 20  1  0
 28 30  1  0
 29 28  2  0
M  END
$$$$
