HFM.pdb
     RDKit          3D

 30 31  0  0  1  0  0  0  0  0999 V2000
    8.8794  -16.7164   19.0370 N   0  0  0  0  0  0  0  0  0  0  0  0
    8.3670  -17.1230   20.3242 C   0  0  1  0  0  0  0  0  0  0  0  0
    8.5662  -18.6230   20.5472 C   0  0  0  0  0  0  0  0  0  0  0  0
    7.8422  -19.3191   19.4537 C   0  0  0  0  0  0  0  0  0  0  0  0
    6.4531  -19.3881   19.3389 C   0  0  0  0  0  0  0  0  0  0  0  0
    6.1926  -20.1067   18.2120 N   0  0  0  0  0  0  0  0  0  0  0  0
    7.3387  -20.4733   17.6432 C   0  0  0  0  0  0  0  0  0  0  0  0
    8.3356  -19.9948   18.3976 N   0  0  0  0  0  0  0  0  0  0  0  0
    8.9305  -16.3382   21.4368 C   0  0  0  0  0  0  0  0  0  0  0  0
   10.1005  -15.8861   21.3562 O   0  0  0  0  0  0  0  0  0  0  0  0
    8.1300  -16.1126   22.5789 N   0  0  0  0  0  0  0  0  0  0  0  0
    8.6689  -15.3192   23.7067 C   0  0  1  0  0  0  0  0  0  0  0  0
    7.6435  -15.2582   24.7848 C   0  0  0  0  0  0  0  0  0  0  0  0
    7.2525  -13.9494   25.2799 C   0  0  0  0  0  0  0  0  0  0  0  0
    8.0552  -12.8522   24.9693 C   0  0  0  0  0  0  0  0  0  0  0  0
    7.6451  -11.6188   25.4036 C   0  0  0  0  0  0  0  0  0  0  0  0
    6.4784  -11.4031   26.1332 C   0  0  0  0  0  0  0  0  0  0  0  0
    5.7288  -12.5361   26.4070 C   0  0  0  0  0  0  0  0  0  0  0  0
    6.0803  -13.8026   26.0029 C   0  0  0  0  0  0  0  0  0  0  0  0
    9.8721  -16.0485   24.1436 C   0  0  0  0  0  0  0  0  0  0  0  0
   11.0235  -15.6073   23.7902 O   0  0  0  0  0  0  0  0  0  0  0  0
   10.4087  -13.1698   28.7108 C   0  0  0  0  0  0  0  0  0  0  0  0
   11.5760  -14.5257   28.4271 S   0  0  0  0  0  0  0  0  0  0  0  0
   10.6487  -16.0771   28.3923 C   0  0  0  0  0  0  0  0  0  0  0  0
    9.8514  -16.1236   27.0978 C   0  0  0  0  0  0  0  0  0  0  0  0
   10.5408  -17.1884   26.2204 C   0  0  2  0  0  0  0  0  0  0  0  0
    9.8337  -17.2376   24.9609 N   0  0  0  0  0  0  0  0  0  0  0  0
   10.4178  -18.4588   26.9255 C   0  0  0  0  0  0  0  0  0  0  0  0
    9.4240  -19.1911   26.8108 O   0  0  0  0  0  0  0  0  0  0  0  0
   11.4773  -18.8555   27.7654 O   0  0  0  0  0  0  0  0  0  0  0  0
  2  1  1  6
  2  3  1  0
  3  4  1  0
  4  5  2  0
  5  6  1  0
  7  6  1  0
  8  4  1  0
  8  7  2  0
  9  2  1  0
  9 11  1  0
 10  9  2  0
 12 11  1  0
 12 13  1  1
 13 14  1  0
 14 15  2  0
 14 19  1  0
 15 16  1  0
 16 17  2  0
 18 17  1  0
 19 18  2  0
 20 12  1  0
 21 20  2  0
 22 23  1  0
 24 23  1  0
 25 24  1  0
 26 25  1  1
 26 27  1  0
 26 28  1  0
 27 20  1  0
 28 30  1  0
 29 28  2  0
M  END
$$$$
