HFM.pdb
     RDKit          3D

 30 31  0  0  1  0  0  0  0  0999 V2000
   10.3792  -17.1341   18.6299 N   0  0  0  0  0  0  0  0  0  0  0  0
   10.1628  -17.7521   19.9169 C   0  0  1  0  0  0  0  0  0  0  0  0
   11.1937  -18.8509   20.1802 C   0  0  0  0  0  0  0  0  0  0  0  0
   10.9445  -19.9211   19.1817 C   0  0  0  0  0  0  0  0  0  0  0  0
    9.7399  -20.6116   19.0413 C   0  0  0  0  0  0  0  0  0  0  0  0
    9.9188  -21.5004   18.0254 N   0  0  0  0  0  0  0  0  0  0  0  0
   11.1555  -21.3865   17.5471 C   0  0  0  0  0  0  0  0  0  0  0  0
   11.7740  -20.4293   18.2495 N   0  0  0  0  0  0  0  0  0  0  0  0
   10.1287  -16.7763   21.0204 C   0  0  0  0  0  0  0  0  0  0  0  0
   11.0957  -15.9924   21.1947 O   0  0  0  0  0  0  0  0  0  0  0  0
    8.9956  -16.7479   21.8636 N   0  0  0  0  0  0  0  0  0  0  0  0
    8.8627  -15.6773   22.8775 C   0  0  1  0  0  0  0  0  0  0  0  0
    7.4162  -15.4032   23.1006 C   0  0  0  0  0  0  0  0  0  0  0  0
    7.0563  -14.4238   24.1115 C   0  0  0  0  0  0  0  0  0  0  0  0
    7.4132  -13.0915   23.9058 C   0  0  0  0  0  0  0  0  0  0  0  0
    7.0231  -12.1743   24.8463 C   0  0  0  0  0  0  0  0  0  0  0  0
    6.2946  -12.4981   25.9883 C   0  0  0  0  0  0  0  0  0  0  0  0
    5.9739  -13.8388   26.1304 C   0  0  0  0  0  0  0  0  0  0  0  0
    6.3327  -14.8116   25.2271 C   0  0  0  0  0  0  0  0  0  0  0  0
    9.5049  -16.2185   24.0879 C   0  0  0  0  0  0  0  0  0  0  0  0
    9.6626  -17.4876   24.1879 O   0  0  0  0  0  0  0  0  0  0  0  0
   10.9829  -13.0131   29.4462 C   0  0  0  0  0  0  0  0  0  0  0  0
   11.3690  -14.6798   30.0416 S   0  0  0  0  0  0  0  0  0  0  0  0
   11.1485  -15.8387   28.6718 C   0  0  0  0  0  0  0  0  0  0  0  0
   10.6522  -15.0569   27.4651 C   0  0  0  0  0  0  0  0  0  0  0  0
   10.5287  -16.0857   26.3226 C   0  0  2  0  0  0  0  0  0  0  0  0
    9.9798  -15.3978   25.1762 N   0  0  0  0  0  0  0  0  0  0  0  0
    9.6114  -17.1205   26.7852 C   0  0  0  0  0  0  0  0  0  0  0  0
    8.3818  -17.0272   26.6564 O   0  0  0  0  0  0  0  0  0  0  0  0
   10.1587  -18.2641   27.4000 O   0  0  0  0  0  0  0  0  0  0  0  0
  2  1  1  6
  2  3  1  0
  3  4  1  0
  4  5  2  0
  5  6  1  0
  7  6  1  0
  8  4  1  0
  8  7  2  0
  9  2  1  0
  9 11  1  0
 10  9  2  0
 12 11  1  0
 12 13  1  1
 13 14  1  0
 14 15  2  0
 14 19  1  0
 15 16  1  0
 16 17  2  0
 18 17  1  0
 19 18  2  0
 20 12  1  0
 21 20  2  0
 22 23  1  0
 24 23  1  0
 25 24  1  0
 26 25  1  1
 26 27  1  0
 26 28  1  0
 27 20  1  0
 28 30  1  0
 29 28  2  0
M  END
$$$$
