GLW.pdb
     RDKit          3D

 27 28  0  0  1  0  0  0  0  0999 V2000
   13.3915  -15.1100   18.1088 N   0  0  0  0  0  0  0  0  0  0  0  0
   12.4997  -16.0125   18.8008 C   0  0  0  0  0  0  0  0  0  0  0  0
   11.7810  -15.3655   19.9076 C   0  0  0  0  0  0  0  0  0  0  0  0
   12.3698  -14.6532   20.7566 O   0  0  0  0  0  0  0  0  0  0  0  0
    6.3344  -13.8837   19.6642 C   0  0  0  0  0  0  0  0  0  0  0  0
    7.8694  -13.8337   19.8144 C   0  0  1  0  0  0  0  0  0  0  0  0
    8.2443  -12.4088   19.9735 C   0  0  0  0  0  0  0  0  0  0  0  0
    8.2091  -14.7735   20.8887 C   0  0  0  0  0  0  0  0  0  0  0  0
    9.6285  -15.0654   21.1857 C   0  0  2  0  0  0  0  0  0  0  0  0
   10.3829  -15.5285   20.0518 N   0  0  0  0  0  0  0  0  0  0  0  0
    9.8251  -15.9153   22.3866 C   0  0  0  0  0  0  0  0  0  0  0  0
   10.1684  -17.1097   22.2053 O   0  0  0  0  0  0  0  0  0  0  0  0
    9.6508  -15.4669   23.7211 N   0  0  0  0  0  0  0  0  0  0  0  0
    9.9048  -16.3118   24.8784 C   0  0  1  0  0  0  0  0  0  0  0  0
    9.5702  -15.5910   26.1624 C   0  0  0  0  0  0  0  0  0  0  0  0
    8.1862  -15.0635   26.1623 C   0  0  0  0  0  0  0  0  0  0  0  0
    7.0136  -15.7178   25.8627 C   0  0  0  0  0  0  0  0  0  0  0  0
    5.9798  -14.8765   25.9852 N   0  0  0  0  0  0  0  0  0  0  0  0
    6.4266  -13.6568   26.3639 C   0  0  0  0  0  0  0  0  0  0  0  0
    5.8103  -12.4526   26.6270 C   0  0  0  0  0  0  0  0  0  0  0  0
    6.5343  -11.3278   27.0069 C   0  0  0  0  0  0  0  0  0  0  0  0
    7.9000  -11.4889   27.1042 C   0  0  0  0  0  0  0  0  0  0  0  0
    8.5309  -12.6881   26.8440 C   0  0  0  0  0  0  0  0  0  0  0  0
    7.7991  -13.7701   26.4748 C   0  0  0  0  0  0  0  0  0  0  0  0
    8.9185  -17.4482   24.7788 C   0  0  0  0  0  0  0  0  0  0  0  0
    9.0452  -18.5681   25.5986 O   0  0  0  0  0  0  0  0  0  0  0  0
    7.9576  -17.4414   23.9717 O   0  0  0  0  0  0  0  0  0  0  0  0
  2  1  1  0
  3  2  1  0
  3  4  2  0
  6  5  1  1
  6  7  1  0
  8  6  1  0
  9  8  1  6
  9 10  1  0
 10  3  1  0
 11  9  1  0
 12 11  2  0
 13 11  1  0
 14 13  1  0
 14 25  1  0
 14 15  1  1
 16 15  1  0
 17 16  2  0
 18 17  1  0
 19 18  1  0
 19 24  2  0
 20 19  1  0
 21 20  2  0
 21 22  1  0
 22 23  2  0
 23 24  1  0
 24 16  1  0
 25 26  1  0
 27 25  2  0
M  END
$$$$
