GLW.pdb
     RDKit          3D

 27 28  0  0  1  0  0  0  0  0999 V2000
   12.9243  -16.6811   18.3368 N   0  0  0  0  0  0  0  0  0  0  0  0
   11.8293  -17.2922   19.0553 C   0  0  0  0  0  0  0  0  0  0  0  0
   11.3684  -16.4794   20.1898 C   0  0  0  0  0  0  0  0  0  0  0  0
   12.1630  -16.0244   21.0481 O   0  0  0  0  0  0  0  0  0  0  0  0
    6.3016  -13.8146   20.0994 C   0  0  0  0  0  0  0  0  0  0  0  0
    7.8322  -13.9980   20.1713 C   0  0  1  0  0  0  0  0  0  0  0  0
    8.4282  -12.6441   20.2624 C   0  0  0  0  0  0  0  0  0  0  0  0
    8.0825  -14.9501   21.2592 C   0  0  0  0  0  0  0  0  0  0  0  0
    9.4497  -15.4709   21.4775 C   0  0  2  0  0  0  0  0  0  0  0  0
    9.9948  -16.1808   20.3514 N   0  0  0  0  0  0  0  0  0  0  0  0
    9.6091  -16.2151   22.7518 C   0  0  0  0  0  0  0  0  0  0  0  0
    9.7548  -17.4608   22.6848 O   0  0  0  0  0  0  0  0  0  0  0  0
    9.6076  -15.6122   24.0359 N   0  0  0  0  0  0  0  0  0  0  0  0
    9.8802  -16.3539   25.2578 C   0  0  1  0  0  0  0  0  0  0  0  0
    9.4967  -15.5519   26.4784 C   0  0  0  0  0  0  0  0  0  0  0  0
    8.1403  -14.9689   26.3600 C   0  0  0  0  0  0  0  0  0  0  0  0
    6.9526  -15.5997   26.0693 C   0  0  0  0  0  0  0  0  0  0  0  0
    5.9549  -14.7075   26.0591 N   0  0  0  0  0  0  0  0  0  0  0  0
    6.4413  -13.4761   26.3380 C   0  0  0  0  0  0  0  0  0  0  0  0
    5.8712  -12.2267   26.4522 C   0  0  0  0  0  0  0  0  0  0  0  0
    6.6297  -11.1012   26.7551 C   0  0  0  0  0  0  0  0  0  0  0  0
    7.9808  -11.3094   26.9335 C   0  0  0  0  0  0  0  0  0  0  0  0
    8.5656  -12.5541   26.8224 C   0  0  0  0  0  0  0  0  0  0  0  0
    7.8008  -13.6356   26.5257 C   0  0  0  0  0  0  0  0  0  0  0  0
    8.9445  -17.5363   25.2352 C   0  0  0  0  0  0  0  0  0  0  0  0
    9.1378  -18.6075   26.1055 O   0  0  0  0  0  0  0  0  0  0  0  0
    7.9686  -17.6120   24.4500 O   0  0  0  0  0  0  0  0  0  0  0  0
  2  1  1  0
  3  2  1  0
  3  4  2  0
  6  5  1  1
  6  7  1  0
  8  6  1  0
  9  8  1  6
  9 10  1  0
 10  3  1  0
 11  9  1  0
 12 11  2  0
 13 11  1  0
 14 13  1  0
 14 25  1  0
 14 15  1  1
 16 15  1  0
 17 16  2  0
 18 17  1  0
 19 18  1  0
 19 24  2  0
 20 19  1  0
 21 20  2  0
 21 22  1  0
 22 23  2  0
 23 24  1  0
 24 16  1  0
 25 26  1  0
 27 25  2  0
M  END
$$$$
