GLW.pdb
     RDKit          3D

 27 28  0  0  1  0  0  0  0  0999 V2000
    6.9075  -20.6316   20.9644 N   0  0  0  0  0  0  0  0  0  0  0  0
    6.7125  -19.4712   21.8035 C   0  0  0  0  0  0  0  0  0  0  0  0
    7.6049  -18.3576   21.4518 C   0  0  0  0  0  0  0  0  0  0  0  0
    8.7638  -18.5484   21.0094 O   0  0  0  0  0  0  0  0  0  0  0  0
    8.2646  -13.4612   19.3476 C   0  0  0  0  0  0  0  0  0  0  0  0
    8.0285  -13.3819   20.8706 C   0  0  1  0  0  0  0  0  0  0  0  0
    7.4030  -12.0667   21.1455 C   0  0  0  0  0  0  0  0  0  0  0  0
    7.2954  -14.5987   21.2378 C   0  0  0  0  0  0  0  0  0  0  0  0
    8.0279  -15.8725   21.4083 C   0  0  2  0  0  0  0  0  0  0  0  0
    7.1787  -17.0170   21.6035 N   0  0  0  0  0  0  0  0  0  0  0  0
    9.1263  -15.8014   22.4041 C   0  0  0  0  0  0  0  0  0  0  0  0
   10.1735  -15.1917   22.0739 O   0  0  0  0  0  0  0  0  0  0  0  0
    9.0696  -16.3756   23.7000 N   0  0  0  0  0  0  0  0  0  0  0  0
   10.1779  -16.3140   24.6411 C   0  0  1  0  0  0  0  0  0  0  0  0
    9.8033  -15.5235   25.8720 C   0  0  0  0  0  0  0  0  0  0  0  0
    8.3975  -15.0590   25.8309 C   0  0  0  0  0  0  0  0  0  0  0  0
    7.2505  -15.7959   25.6454 C   0  0  0  0  0  0  0  0  0  0  0  0
    6.1825  -14.9898   25.6768 N   0  0  0  0  0  0  0  0  0  0  0  0
    6.5807  -13.7128   25.8807 C   0  0  0  0  0  0  0  0  0  0  0  0
    5.9158  -12.5110   25.9944 C   0  0  0  0  0  0  0  0  0  0  0  0
    6.5951  -11.3163   26.2064 C   0  0  0  0  0  0  0  0  0  0  0  0
    7.9679  -11.4057   26.2956 C   0  0  0  0  0  0  0  0  0  0  0  0
    8.6472  -12.6015   26.1838 C   0  0  0  0  0  0  0  0  0  0  0  0
    7.9584  -13.7527   25.9769 C   0  0  0  0  0  0  0  0  0  0  0  0
   10.3913  -17.7299   25.1141 C   0  0  0  0  0  0  0  0  0  0  0  0
   11.5402  -18.0721   25.8249 O   0  0  0  0  0  0  0  0  0  0  0  0
    9.5643  -18.6481   24.8959 O   0  0  0  0  0  0  0  0  0  0  0  0
  2  1  1  0
  3  2  1  0
  3  4  2  0
  6  5  1  6
  6  7  1  0
  8  6  1  0
  9  8  1  1
  9 10  1  0
 10  3  1  0
 11  9  1  0
 12 11  2  0
 13 11  1  0
 14 13  1  0
 14 25  1  0
 14 15  1  1
 16 15  1  0
 17 16  2  0
 18 17  1  0
 19 18  1  0
 19 24  2  0
 20 19  1  0
 21 20  2  0
 21 22  1  0
 22 23  2  0
 23 24  1  0
 24 16  1  0
 25 26  1  0
 27 25  2  0
M  END
$$$$
