GLW.pdb
     RDKit          3D

 27 28  0  0  1  0  0  0  0  0999 V2000
    9.4593  -19.8971   20.3263 N   0  0  0  0  0  0  0  0  0  0  0  0
    8.6562  -18.7031   20.1918 C   0  0  0  0  0  0  0  0  0  0  0  0
    9.3117  -17.5104   20.7466 C   0  0  0  0  0  0  0  0  0  0  0  0
   10.5403  -17.2989   20.6018 O   0  0  0  0  0  0  0  0  0  0  0  0
    6.4831  -12.8370   20.6410 C   0  0  0  0  0  0  0  0  0  0  0  0
    7.5863  -13.8942   20.4249 C   0  0  1  0  0  0  0  0  0  0  0  0
    8.4619  -13.3930   19.3393 C   0  0  0  0  0  0  0  0  0  0  0  0
    8.1777  -14.1481   21.7434 C   0  0  0  0  0  0  0  0  0  0  0  0
    9.0967  -15.2927   21.9265 C   0  0  2  0  0  0  0  0  0  0  0  0
    8.5669  -16.5502   21.4714 N   0  0  0  0  0  0  0  0  0  0  0  0
    9.6791  -15.3792   23.2891 C   0  0  0  0  0  0  0  0  0  0  0  0
   10.4413  -14.4513   23.6569 O   0  0  0  0  0  0  0  0  0  0  0  0
    9.4311  -16.4387   24.1992 N   0  0  0  0  0  0  0  0  0  0  0  0
   10.0876  -16.5384   25.4941 C   0  0  1  0  0  0  0  0  0  0  0  0
    9.0797  -16.5164   26.6184 C   0  0  0  0  0  0  0  0  0  0  0  0
    7.8665  -15.7433   26.2657 C   0  0  0  0  0  0  0  0  0  0  0  0
    6.7066  -16.1825   25.6702 C   0  0  0  0  0  0  0  0  0  0  0  0
    5.8538  -15.1606   25.5282 N   0  0  0  0  0  0  0  0  0  0  0  0
    6.4121  -14.0292   26.0170 C   0  0  0  0  0  0  0  0  0  0  0  0
    5.9883  -12.7220   26.1205 C   0  0  0  0  0  0  0  0  0  0  0  0
    6.7913  -11.7347   26.6813 C   0  0  0  0  0  0  0  0  0  0  0  0
    8.0317  -12.1405   27.1256 C   0  0  0  0  0  0  0  0  0  0  0  0
    8.4695  -13.4454   27.0286 C   0  0  0  0  0  0  0  0  0  0  0  0
    7.6645  -14.3886   26.4765 C   0  0  0  0  0  0  0  0  0  0  0  0
   10.7113  -17.9108   25.5312 C   0  0  0  0  0  0  0  0  0  0  0  0
   11.5121  -18.2945   26.6054 O   0  0  0  0  0  0  0  0  0  0  0  0
   10.5440  -18.7550   24.6180 O   0  0  0  0  0  0  0  0  0  0  0  0
  2  1  1  0
  3  2  1  0
  3  4  2  0
  6  5  1  1
  6  7  1  0
  8  6  1  0
  9  8  1  1
  9 10  1  0
 10  3  1  0
 11  9  1  0
 12 11  2  0
 13 11  1  0
 14 13  1  0
 14 25  1  0
 14 15  1  1
 16 15  1  0
 17 16  2  0
 18 17  1  0
 19 18  1  0
 19 24  2  0
 20 19  1  0
 21 20  2  0
 21 22  1  0
 22 23  2  0
 23 24  1  0
 24 16  1  0
 25 26  1  0
 27 25  2  0
M  END
$$$$
