GLW.pdb
     RDKit          3D

 27 28  0  0  1  0  0  0  0  0999 V2000
    6.9604  -20.1076   20.3641 N   0  0  0  0  0  0  0  0  0  0  0  0
    6.8061  -18.7699   20.8889 C   0  0  0  0  0  0  0  0  0  0  0  0
    8.0712  -18.0227   20.9247 C   0  0  0  0  0  0  0  0  0  0  0  0
    9.1752  -18.5728   20.6929 O   0  0  0  0  0  0  0  0  0  0  0  0
    7.4279  -13.5594   22.1311 C   0  0  0  0  0  0  0  0  0  0  0  0
    7.7251  -13.8667   20.6484 C   0  0  1  0  0  0  0  0  0  0  0  0
    7.5006  -12.6126   19.8912 C   0  0  0  0  0  0  0  0  0  0  0  0
    9.0579  -14.4791   20.6136 C   0  0  0  0  0  0  0  0  0  0  0  0
    9.2645  -15.8194   21.2045 C   0  0  2  0  0  0  0  0  0  0  0  0
    8.0835  -16.6403   21.2262 N   0  0  0  0  0  0  0  0  0  0  0  0
    9.9650  -15.7939   22.5129 C   0  0  0  0  0  0  0  0  0  0  0  0
   11.0406  -15.1497   22.5855 O   0  0  0  0  0  0  0  0  0  0  0  0
    9.4994  -16.4481   23.6823 N   0  0  0  0  0  0  0  0  0  0  0  0
   10.2580  -16.4830   24.9237 C   0  0  1  0  0  0  0  0  0  0  0  0
    9.9480  -15.2819   25.7848 C   0  0  0  0  0  0  0  0  0  0  0  0
    8.4988  -14.9781   25.8186 C   0  0  0  0  0  0  0  0  0  0  0  0
    7.4353  -15.8200   25.5879 C   0  0  0  0  0  0  0  0  0  0  0  0
    6.2860  -15.1466   25.7194 N   0  0  0  0  0  0  0  0  0  0  0  0
    6.5464  -13.8572   26.0363 C   0  0  0  0  0  0  0  0  0  0  0  0
    5.7563  -12.7545   26.2791 C   0  0  0  0  0  0  0  0  0  0  0  0
    6.3054  -11.5152   26.5901 C   0  0  0  0  0  0  0  0  0  0  0  0
    7.6818  -11.4563   26.6408 C   0  0  0  0  0  0  0  0  0  0  0  0
    8.4856  -12.5516   26.4002 C   0  0  0  0  0  0  0  0  0  0  0  0
    7.9224  -13.7493   26.0987 C   0  0  0  0  0  0  0  0  0  0  0  0
    9.7398  -17.6767   25.6856 C   0  0  0  0  0  0  0  0  0  0  0  0
    8.7553  -18.4945   25.1340 O   0  0  0  0  0  0  0  0  0  0  0  0
   10.1597  -17.9850   26.8272 O   0  0  0  0  0  0  0  0  0  0  0  0
  2  1  1  0
  3  2  1  0
  3  4  2  0
  6  5  1  1
  6  7  1  0
  8  6  1  0
  9  8  1  1
  9 10  1  0
 10  3  1  0
 11  9  1  0
 12 11  2  0
 13 11  1  0
 14 13  1  0
 14 25  1  0
 14 15  1  1
 16 15  1  0
 17 16  2  0
 18 17  1  0
 19 18  1  0
 19 24  2  0
 20 19  1  0
 21 20  2  0
 21 22  1  0
 22 23  2  0
 23 24  1  0
 24 16  1  0
 25 26  1  0
 27 25  2  0
M  END
$$$$
