GLW.pdb
     RDKit          3D

 27 28  0  0  1  0  0  0  0  0999 V2000
    9.1535  -19.6353   19.4160 N   0  0  0  0  0  0  0  0  0  0  0  0
    8.4881  -18.8322   20.4164 C   0  0  0  0  0  0  0  0  0  0  0  0
    9.1769  -17.5602   20.6762 C   0  0  0  0  0  0  0  0  0  0  0  0
   10.3756  -17.3752   20.3538 O   0  0  0  0  0  0  0  0  0  0  0  0
    6.6121  -12.7005   20.5437 C   0  0  0  0  0  0  0  0  0  0  0  0
    7.5241  -13.9258   20.3240 C   0  0  1  0  0  0  0  0  0  0  0  0
    8.2133  -13.7275   19.0271 C   0  0  0  0  0  0  0  0  0  0  0  0
    8.3368  -14.0576   21.5384 C   0  0  0  0  0  0  0  0  0  0  0  0
    9.1394  -15.2813   21.7542 C   0  0  2  0  0  0  0  0  0  0  0  0
    8.4999  -16.4897   21.3069 N   0  0  0  0  0  0  0  0  0  0  0  0
    9.6876  -15.4016   23.1283 C   0  0  0  0  0  0  0  0  0  0  0  0
   10.5081  -14.5293   23.5067 O   0  0  0  0  0  0  0  0  0  0  0  0
    9.3457  -16.4347   24.0383 N   0  0  0  0  0  0  0  0  0  0  0  0
    9.9857  -16.5887   25.3361 C   0  0  1  0  0  0  0  0  0  0  0  0
    8.9615  -16.6500   26.4441 C   0  0  0  0  0  0  0  0  0  0  0  0
    7.8240  -15.7322   26.2044 C   0  0  0  0  0  0  0  0  0  0  0  0
    6.5649  -16.0238   25.7327 C   0  0  0  0  0  0  0  0  0  0  0  0
    5.8350  -14.9038   25.6637 N   0  0  0  0  0  0  0  0  0  0  0  0
    6.5750  -13.8506   26.0806 C   0  0  0  0  0  0  0  0  0  0  0  0
    6.3286  -12.5009   26.2098 C   0  0  0  0  0  0  0  0  0  0  0  0
    7.2995  -11.6212   26.6757 C   0  0  0  0  0  0  0  0  0  0  0  0
    8.5185  -12.1780   26.9994 C   0  0  0  0  0  0  0  0  0  0  0  0
    8.7798  -13.5271   26.8753 C   0  0  0  0  0  0  0  0  0  0  0  0
    7.8131  -14.3629   26.4177 C   0  0  0  0  0  0  0  0  0  0  0  0
   10.6411  -17.9465   25.3099 C   0  0  0  0  0  0  0  0  0  0  0  0
   11.5156  -18.3291   26.3253 O   0  0  0  0  0  0  0  0  0  0  0  0
   10.4361  -18.7792   24.3938 O   0  0  0  0  0  0  0  0  0  0  0  0
  2  1  1  0
  3  2  1  0
  3  4  2  0
  6  5  1  1
  6  7  1  0
  8  6  1  0
  9  8  1  1
  9 10  1  0
 10  3  1  0
 11  9  1  0
 12 11  2  0
 13 11  1  0
 14 13  1  0
 14 25  1  0
 14 15  1  1
 16 15  1  0
 17 16  2  0
 18 17  1  0
 19 18  1  0
 19 24  2  0
 20 19  1  0
 21 20  2  0
 21 22  1  0
 22 23  2  0
 23 24  1  0
 24 16  1  0
 25 26  1  0
 27 25  2  0
M  END
$$$$
