PSW.pdb
     RDKit          3D

 28 30  0  0  1  0  0  0  0  0999 V2000
   27.8009  -21.4035  -17.3057 N   0  0  0  0  0  0  0  0  0  0  0  0
   28.2602  -21.8956  -18.5857 C   0  0  0  0  0  0  0  0  0  0  0  0
   29.7562  -21.7969  -18.4756 C   0  0  0  0  0  0  0  0  0  0  0  0
   30.0734  -21.7796  -16.9818 C   0  0  0  0  0  0  0  0  0  0  0  0
   28.7224  -21.9963  -16.3829 C   0  0  1  0  0  0  0  0  0  0  0  0
   28.5697  -21.4854  -15.0079 C   0  0  0  0  0  0  0  0  0  0  0  0
   28.9922  -22.1199  -14.0016 O   0  0  0  0  0  0  0  0  0  0  0  0
   26.1078  -18.0640  -14.1587 O   0  0  0  0  0  0  0  0  0  0  0  0
   27.3000  -18.2307  -13.4715 C   0  0  0  0  0  0  0  0  0  0  0  0
   27.7503  -19.6655  -13.4639 C   0  0  2  0  0  0  0  0  0  0  0  0
   27.9292  -20.2354  -14.7576 N   0  0  0  0  0  0  0  0  0  0  0  0
   26.8900  -20.5083  -12.5807 C   0  0  0  0  0  0  0  0  0  0  0  0
   26.0401  -21.2722  -13.0959 O   0  0  0  0  0  0  0  0  0  0  0  0
   26.9915  -20.4841  -11.1741 N   0  0  0  0  0  0  0  0  0  0  0  0
   26.1351  -21.2978  -10.2957 C   0  0  1  0  0  0  0  0  0  0  0  0
   27.0206  -21.6356   -9.1043 C   0  0  0  0  0  0  0  0  0  0  0  0
   27.2146  -20.5428   -8.1711 C   0  0  0  0  0  0  0  0  0  0  0  0
   26.6771  -19.2797   -8.2768 C   0  0  0  0  0  0  0  0  0  0  0  0
   27.0942  -18.5531   -7.2093 N   0  0  0  0  0  0  0  0  0  0  0  0
   27.8836  -19.2932   -6.4105 C   0  0  0  0  0  0  0  0  0  0  0  0
   28.5412  -19.0179   -5.2315 C   0  0  0  0  0  0  0  0  0  0  0  0
   29.2914  -20.0061   -4.6382 C   0  0  0  0  0  0  0  0  0  0  0  0
   29.3901  -21.2641   -5.2112 C   0  0  0  0  0  0  0  0  0  0  0  0
   28.7309  -21.5087   -6.3749 C   0  0  0  0  0  0  0  0  0  0  0  0
   27.9618  -20.5538   -7.0167 C   0  0  0  0  0  0  0  0  0  0  0  0
   25.0493  -20.4196   -9.7939 C   0  0  0  0  0  0  0  0  0  0  0  0
   25.0529  -19.1798   -9.9996 O   0  0  0  0  0  0  0  0  0  0  0  0
   23.9797  -20.9276   -9.0741 O   0  0  0  0  0  0  0  0  0  0  0  0
  1  2  1  0
  2  3  1  0
  4  3  1  0
  5  1  1  0
  5  4  1  0
  5  6  1  1
  6 11  1  0
  7  6  2  0
  9  8  1  0
 10 12  1  0
 10  9  1  6
 11 10  1  0
 12 14  1  0
 13 12  2  0
 14 15  1  0
 15 26  1  0
 15 16  1  1
 17 16  1  0
 18 17  2  0
 19 20  1  0
 19 18  1  0
 20 25  2  0
 21 22  2  0
 21 20  1  0
 22 23  1  0
 23 24  2  0
 25 17  1  0
 25 24  1  0
 26 27  2  0
 26 28  1  0
M  END
$$$$
