PSW.pdb
     RDKit          3D

 28 30  0  0  1  0  0  0  0  0999 V2000
   28.7868  -20.0809  -17.1317 N   0  0  0  0  0  0  0  0  0  0  0  0
   29.8047  -20.1513  -18.1566 C   0  0  0  0  0  0  0  0  0  0  0  0
   29.8662  -18.7425  -18.6777 C   0  0  0  0  0  0  0  0  0  0  0  0
   29.2950  -17.8546  -17.5742 C   0  0  0  0  0  0  0  0  0  0  0  0
   29.0761  -18.8414  -16.4746 C   0  0  1  0  0  0  0  0  0  0  0  0
   28.0433  -18.4531  -15.4961 C   0  0  0  0  0  0  0  0  0  0  0  0
   28.1001  -17.3709  -14.8485 O   0  0  0  0  0  0  0  0  0  0  0  0
   24.0129  -19.4428  -15.8889 O   0  0  0  0  0  0  0  0  0  0  0  0
   24.6134  -18.4468  -15.1345 C   0  0  0  0  0  0  0  0  0  0  0  0
   25.8254  -18.9496  -14.3999 C   0  0  2  0  0  0  0  0  0  0  0  0
   26.9227  -19.2980  -15.2393 N   0  0  0  0  0  0  0  0  0  0  0  0
   25.4744  -20.0350  -13.4359 C   0  0  0  0  0  0  0  0  0  0  0  0
   25.5974  -21.2326  -13.7851 O   0  0  0  0  0  0  0  0  0  0  0  0
   25.0047  -19.7708  -12.1325 N   0  0  0  0  0  0  0  0  0  0  0  0
   24.5464  -20.8287  -11.2170 C   0  0  1  0  0  0  0  0  0  0  0  0
   24.9760  -20.3524   -9.8365 C   0  0  0  0  0  0  0  0  0  0  0  0
   26.3641  -20.6202   -9.5136 C   0  0  0  0  0  0  0  0  0  0  0  0
   27.2603  -21.3140  -10.2953 C   0  0  0  0  0  0  0  0  0  0  0  0
   28.4504  -21.3473   -9.6441 N   0  0  0  0  0  0  0  0  0  0  0  0
   28.3659  -20.7019   -8.4671 C   0  0  0  0  0  0  0  0  0  0  0  0
   29.2798  -20.4638   -7.4640 C   0  0  0  0  0  0  0  0  0  0  0  0
   28.8838  -19.7559   -6.3534 C   0  0  0  0  0  0  0  0  0  0  0  0
   27.5857  -19.2848   -6.2366 C   0  0  0  0  0  0  0  0  0  0  0  0
   26.7042  -19.5339   -7.2414 C   0  0  0  0  0  0  0  0  0  0  0  0
   27.0460  -20.2402   -8.3814 C   0  0  0  0  0  0  0  0  0  0  0  0
   23.0626  -20.8222  -11.2357 C   0  0  0  0  0  0  0  0  0  0  0  0
   22.4127  -19.9453  -11.8587 O   0  0  0  0  0  0  0  0  0  0  0  0
   22.3245  -21.7848  -10.5657 O   0  0  0  0  0  0  0  0  0  0  0  0
  1  2  1  0
  2  3  1  0
  4  3  1  0
  5  1  1  0
  5  4  1  0
  5  6  1  1
  6 11  1  0
  7  6  2  0
  9  8  1  0
 10 12  1  0
 10  9  1  6
 11 10  1  0
 12 14  1  0
 13 12  2  0
 14 15  1  0
 15 26  1  0
 15 16  1  1
 17 16  1  0
 18 17  2  0
 19 20  1  0
 19 18  1  0
 20 25  2  0
 21 22  2  0
 21 20  1  0
 22 23  1  0
 23 24  2  0
 25 17  1  0
 25 24  1  0
 26 27  2  0
 26 28  1  0
M  END
$$$$
