PSW.pdb
     RDKit          3D

 28 30  0  0  1  0  0  0  0  0999 V2000
   27.1846  -21.1344  -17.2612 N   0  0  0  0  0  0  0  0  0  0  0  0
   27.4820  -21.6703  -18.5711 C   0  0  0  0  0  0  0  0  0  0  0  0
   28.9786  -21.8117  -18.5533 C   0  0  0  0  0  0  0  0  0  0  0  0
   29.3835  -21.8714  -17.0820 C   0  0  0  0  0  0  0  0  0  0  0  0
   28.0537  -21.8820  -16.4022 C   0  0  1  0  0  0  0  0  0  0  0  0
   28.0671  -21.3779  -15.0163 C   0  0  0  0  0  0  0  0  0  0  0  0
   28.6902  -21.9673  -14.0899 O   0  0  0  0  0  0  0  0  0  0  0  0
   25.4541  -18.1801  -13.6736 O   0  0  0  0  0  0  0  0  0  0  0  0
   26.7844  -18.2279  -13.2869 C   0  0  0  0  0  0  0  0  0  0  0  0
   27.3411  -19.6232  -13.3545 C   0  0  2  0  0  0  0  0  0  0  0  0
   27.3661  -20.1866  -14.6631 N   0  0  0  0  0  0  0  0  0  0  0  0
   26.6929  -20.5242  -12.3553 C   0  0  0  0  0  0  0  0  0  0  0  0
   25.7872  -21.3067  -12.7278 O   0  0  0  0  0  0  0  0  0  0  0  0
   27.0580  -20.5353  -10.9930 N   0  0  0  0  0  0  0  0  0  0  0  0
   26.4177  -21.4133   -9.9998 C   0  0  1  0  0  0  0  0  0  0  0  0
   27.4617  -21.5766   -8.9041 C   0  0  0  0  0  0  0  0  0  0  0  0
   27.5421  -20.4620   -7.9799 C   0  0  0  0  0  0  0  0  0  0  0  0
   26.9127  -19.2455   -8.1184 C   0  0  0  0  0  0  0  0  0  0  0  0
   27.2393  -18.4774   -7.0484 N   0  0  0  0  0  0  0  0  0  0  0  0
   28.0579  -19.1456   -6.2165 C   0  0  0  0  0  0  0  0  0  0  0  0
   28.6554  -18.8076   -5.0219 C   0  0  0  0  0  0  0  0  0  0  0  0
   29.4604  -19.7285   -4.3932 C   0  0  0  0  0  0  0  0  0  0  0  0
   29.6733  -20.9813   -4.9464 C   0  0  0  0  0  0  0  0  0  0  0  0
   29.0714  -21.2886   -6.1261 C   0  0  0  0  0  0  0  0  0  0  0  0
   28.2516  -20.4029   -6.8034 C   0  0  0  0  0  0  0  0  0  0  0  0
   25.2820  -20.6632   -9.4085 C   0  0  0  0  0  0  0  0  0  0  0  0
   25.1302  -19.4309   -9.6030 O   0  0  0  0  0  0  0  0  0  0  0  0
   24.3352  -21.2887   -8.6131 O   0  0  0  0  0  0  0  0  0  0  0  0
  1  2  1  0
  2  3  1  0
  4  3  1  0
  5  1  1  0
  5  4  1  0
  5  6  1  1
  6 11  1  0
  7  6  2  0
  9  8  1  0
 10 12  1  0
 10  9  1  6
 11 10  1  0
 12 14  1  0
 13 12  2  0
 14 15  1  0
 15 26  1  0
 15 16  1  1
 17 16  1  0
 18 17  2  0
 19 20  1  0
 19 18  1  0
 20 25  2  0
 21 22  2  0
 21 20  1  0
 22 23  1  0
 23 24  2  0
 25 17  1  0
 25 24  1  0
 26 27  2  0
 26 28  1  0
M  END
$$$$
