PSW.pdb
     RDKit          3D

 28 30  0  0  1  0  0  0  0  0999 V2000
   28.3118  -22.0321  -16.5497 N   0  0  0  0  0  0  0  0  0  0  0  0
   29.0145  -22.1288  -17.8100 C   0  0  0  0  0  0  0  0  0  0  0  0
   28.8749  -20.7483  -18.3885 C   0  0  0  0  0  0  0  0  0  0  0  0
   28.5900  -19.8193  -17.2104 C   0  0  0  0  0  0  0  0  0  0  0  0
   28.7185  -20.7523  -16.0512 C   0  0  1  0  0  0  0  0  0  0  0  0
   27.9759  -20.3411  -14.8452 C   0  0  0  0  0  0  0  0  0  0  0  0
   28.1308  -19.2077  -14.3111 O   0  0  0  0  0  0  0  0  0  0  0  0
   24.5072  -22.6289  -13.4605 O   0  0  0  0  0  0  0  0  0  0  0  0
   24.6617  -21.2567  -13.5820 C   0  0  0  0  0  0  0  0  0  0  0  0
   26.0652  -20.8177  -13.2674 C   0  0  2  0  0  0  0  0  0  0  0  0
   27.0393  -21.2212  -14.2259 N   0  0  0  0  0  0  0  0  0  0  0  0
   26.4541  -21.1747  -11.8703 C   0  0  0  0  0  0  0  0  0  0  0  0
   27.5511  -21.7448  -11.6628 O   0  0  0  0  0  0  0  0  0  0  0  0
   25.6326  -20.8958  -10.7582 N   0  0  0  0  0  0  0  0  0  0  0  0
   26.0820  -21.0700   -9.3673 C   0  0  1  0  0  0  0  0  0  0  0  0
   27.1923  -20.0434   -9.1926 C   0  0  0  0  0  0  0  0  0  0  0  0
   27.4662  -19.6832   -7.8149 C   0  0  0  0  0  0  0  0  0  0  0  0
   26.7140  -18.8365   -7.0322 C   0  0  0  0  0  0  0  0  0  0  0  0
   27.3001  -18.7593   -5.8106 N   0  0  0  0  0  0  0  0  0  0  0  0
   28.4061  -19.5232   -5.7656 C   0  0  0  0  0  0  0  0  0  0  0  0
   29.3283  -19.7751   -4.7734 C   0  0  0  0  0  0  0  0  0  0  0  0
   30.3787  -20.6228   -5.0369 C   0  0  0  0  0  0  0  0  0  0  0  0
   30.5154  -21.2198   -6.2801 C   0  0  0  0  0  0  0  0  0  0  0  0
   29.5910  -20.9538   -7.2411 C   0  0  0  0  0  0  0  0  0  0  0  0
   28.5142  -20.1098   -7.0332 C   0  0  0  0  0  0  0  0  0  0  0  0
   24.9649  -20.6555   -8.4828 C   0  0  0  0  0  0  0  0  0  0  0  0
   24.9280  -20.9775   -7.2686 O   0  0  0  0  0  0  0  0  0  0  0  0
   23.9093  -19.8928   -8.9565 O   0  0  0  0  0  0  0  0  0  0  0  0
  1  2  1  0
  2  3  1  0
  4  3  1  0
  5  1  1  0
  5  4  1  0
  5  6  1  1
  6 11  1  0
  7  6  2  0
  9  8  1  0
 10 12  1  0
 10  9  1  6
 11 10  1  0
 12 14  1  0
 13 12  2  0
 14 15  1  0
 15 26  1  0
 15 16  1  1
 17 16  1  0
 18 17  2  0
 19 20  1  0
 19 18  1  0
 20 25  2  0
 21 22  2  0
 21 20  1  0
 22 23  1  0
 23 24  2  0
 25 17  1  0
 25 24  1  0
 26 27  2  0
 26 28  1  0
M  END
$$$$
