PSW.pdb
     RDKit          3D

 28 30  0  0  1  0  0  0  0  0999 V2000
   27.8533  -22.0584  -18.4452 N   0  0  0  0  0  0  0  0  0  0  0  0
   28.3833  -22.3670  -19.7550 C   0  0  0  0  0  0  0  0  0  0  0  0
   29.7207  -21.6804  -19.7553 C   0  0  0  0  0  0  0  0  0  0  0  0
   30.1043  -21.4937  -18.2890 C   0  0  0  0  0  0  0  0  0  0  0  0
   28.9940  -22.2095  -17.5920 C   0  0  1  0  0  0  0  0  0  0  0  0
   28.7436  -21.7594  -16.2101 C   0  0  0  0  0  0  0  0  0  0  0  0
   28.9662  -22.4965  -15.2097 O   0  0  0  0  0  0  0  0  0  0  0  0
   26.7723  -17.9937  -15.3848 O   0  0  0  0  0  0  0  0  0  0  0  0
   27.8016  -18.4516  -14.5770 C   0  0  0  0  0  0  0  0  0  0  0  0
   27.9487  -19.9467  -14.6450 C   0  0  2  0  0  0  0  0  0  0  0  0
   28.2323  -20.4539  -15.9460 N   0  0  0  0  0  0  0  0  0  0  0  0
   26.7978  -20.6436  -13.9969 C   0  0  0  0  0  0  0  0  0  0  0  0
   25.8314  -21.0218  -14.7001 O   0  0  0  0  0  0  0  0  0  0  0  0
   26.7475  -20.8996  -12.6108 N   0  0  0  0  0  0  0  0  0  0  0  0
   25.6186  -21.5887  -11.9644 C   0  0  1  0  0  0  0  0  0  0  0  0
   26.1872  -22.1046  -10.6500 C   0  0  0  0  0  0  0  0  0  0  0  0
   26.3212  -21.0964   -9.6164 C   0  0  0  0  0  0  0  0  0  0  0  0
   25.3777  -20.1541   -9.2743 C   0  0  0  0  0  0  0  0  0  0  0  0
   25.8819  -19.3993   -8.2654 N   0  0  0  0  0  0  0  0  0  0  0  0
   27.1185  -19.8126   -7.9357 C   0  0  0  0  0  0  0  0  0  0  0  0
   28.0291  -19.3802   -6.9964 C   0  0  0  0  0  0  0  0  0  0  0  0
   29.2419  -20.0209   -6.8970 C   0  0  0  0  0  0  0  0  0  0  0  0
   29.5523  -21.0873   -7.7259 C   0  0  0  0  0  0  0  0  0  0  0  0
   28.6354  -21.4934   -8.6440 C   0  0  0  0  0  0  0  0  0  0  0  0
   27.3998  -20.8872   -8.7893 C   0  0  0  0  0  0  0  0  0  0  0  0
   24.6045  -20.5601  -11.6242 C   0  0  0  0  0  0  0  0  0  0  0  0
   24.8916  -19.3374  -11.5796 O   0  0  0  0  0  0  0  0  0  0  0  0
   23.2920  -20.9016  -11.3396 O   0  0  0  0  0  0  0  0  0  0  0  0
  1  2  1  0
  2  3  1  0
  4  3  1  0
  5  1  1  0
  5  4  1  0
  5  6  1  1
  6 11  1  0
  7  6  2  0
  9  8  1  0
 10 12  1  0
 10  9  1  6
 11 10  1  0
 12 14  1  0
 13 12  2  0
 14 15  1  0
 15 26  1  0
 15 16  1  1
 17 16  1  0
 18 17  2  0
 19 20  1  0
 19 18  1  0
 20 25  2  0
 21 22  2  0
 21 20  1  0
 22 23  1  0
 23 24  2  0
 25 17  1  0
 25 24  1  0
 26 27  2  0
 26 28  1  0
M  END
$$$$
