PSW.pdb
     RDKit          3D

 28 30  0  0  1  0  0  0  0  0999 V2000
   27.8848  -21.4062  -17.8137 N   0  0  0  0  0  0  0  0  0  0  0  0
   28.3375  -21.9689  -19.0667 C   0  0  0  0  0  0  0  0  0  0  0  0
   29.8039  -22.2002  -18.8300 C   0  0  0  0  0  0  0  0  0  0  0  0
   29.9848  -22.2731  -17.3153 C   0  0  0  0  0  0  0  0  0  0  0  0
   28.5717  -22.1983  -16.8376 C   0  0  1  0  0  0  0  0  0  0  0  0
   28.4128  -21.6855  -15.4641 C   0  0  0  0  0  0  0  0  0  0  0  0
   28.7360  -22.3632  -14.4492 O   0  0  0  0  0  0  0  0  0  0  0  0
   26.1548  -18.1125  -14.6380 O   0  0  0  0  0  0  0  0  0  0  0  0
   27.3271  -18.3563  -13.9396 C   0  0  0  0  0  0  0  0  0  0  0  0
   27.6854  -19.8168  -13.9323 C   0  0  2  0  0  0  0  0  0  0  0  0
   27.8798  -20.3839  -15.2250 N   0  0  0  0  0  0  0  0  0  0  0  0
   26.7390  -20.6122  -13.0944 C   0  0  0  0  0  0  0  0  0  0  0  0
   25.8331  -21.2766  -13.6504 O   0  0  0  0  0  0  0  0  0  0  0  0
   26.8189  -20.6508  -11.6867 N   0  0  0  0  0  0  0  0  0  0  0  0
   25.9138  -21.4613  -10.8555 C   0  0  1  0  0  0  0  0  0  0  0  0
   26.7513  -21.8502   -9.6453 C   0  0  0  0  0  0  0  0  0  0  0  0
   26.9691  -20.7764   -8.6953 C   0  0  0  0  0  0  0  0  0  0  0  0
   26.3018  -19.5727   -8.6636 C   0  0  0  0  0  0  0  0  0  0  0  0
   26.7940  -18.8447   -7.6296 N   0  0  0  0  0  0  0  0  0  0  0  0
   27.7572  -19.5268   -6.9847 C   0  0  0  0  0  0  0  0  0  0  0  0
   28.5460  -19.2264   -5.8958 C   0  0  0  0  0  0  0  0  0  0  0  0
   29.4655  -20.1521   -5.4610 C   0  0  0  0  0  0  0  0  0  0  0  0
   29.6034  -21.3725   -6.1032 C   0  0  0  0  0  0  0  0  0  0  0  0
   28.8122  -21.6430   -7.1753 C   0  0  0  0  0  0  0  0  0  0  0  0
   27.8705  -20.7507   -7.6570 C   0  0  0  0  0  0  0  0  0  0  0  0
   24.8357  -20.5661  -10.3673 C   0  0  0  0  0  0  0  0  0  0  0  0
   24.8612  -19.3266  -10.5731 O   0  0  0  0  0  0  0  0  0  0  0  0
   23.7494  -21.0572   -9.6608 O   0  0  0  0  0  0  0  0  0  0  0  0
  1  2  1  0
  2  3  1  0
  4  3  1  0
  5  1  1  0
  5  4  1  0
  5  6  1  1
  6 11  1  0
  7  6  2  0
  9  8  1  0
 10 12  1  0
 10  9  1  6
 11 10  1  0
 12 14  1  0
 13 12  2  0
 14 15  1  0
 15 26  1  0
 15 16  1  1
 17 16  1  0
 18 17  2  0
 19 20  1  0
 19 18  1  0
 20 25  2  0
 21 22  2  0
 21 20  1  0
 22 23  1  0
 23 24  2  0
 25 17  1  0
 25 24  1  0
 26 27  2  0
 26 28  1  0
M  END
$$$$
