PSW.pdb
     RDKit          3D

 28 30  0  0  1  0  0  0  0  0999 V2000
   28.6533  -19.7945  -17.1052 N   0  0  0  0  0  0  0  0  0  0  0  0
   29.7690  -19.6908  -18.0195 C   0  0  0  0  0  0  0  0  0  0  0  0
   29.8583  -18.2142  -18.2872 C   0  0  0  0  0  0  0  0  0  0  0  0
   29.1656  -17.5256  -17.1133 C   0  0  0  0  0  0  0  0  0  0  0  0
   28.8551  -18.6840  -16.2231 C   0  0  1  0  0  0  0  0  0  0  0  0
   27.7237  -18.4666  -15.3024 C   0  0  0  0  0  0  0  0  0  0  0  0
   27.6908  -17.5007  -14.4901 O   0  0  0  0  0  0  0  0  0  0  0  0
   23.0575  -18.5903  -14.7193 O   0  0  0  0  0  0  0  0  0  0  0  0
   24.2030  -18.8336  -15.4610 C   0  0  0  0  0  0  0  0  0  0  0  0
   25.3927  -19.1137  -14.5847 C   0  0  2  0  0  0  0  0  0  0  0  0
   26.6055  -19.3525  -15.2937 N   0  0  0  0  0  0  0  0  0  0  0  0
   25.0980  -20.1778  -13.5791 C   0  0  0  0  0  0  0  0  0  0  0  0
   25.1573  -21.3822  -13.9214 O   0  0  0  0  0  0  0  0  0  0  0  0
   24.7515  -19.8859  -12.2434 N   0  0  0  0  0  0  0  0  0  0  0  0
   24.4653  -20.9286  -11.2445 C   0  0  1  0  0  0  0  0  0  0  0  0
   24.9627  -20.3452   -9.9294 C   0  0  0  0  0  0  0  0  0  0  0  0
   26.3610  -20.6058   -9.6473 C   0  0  0  0  0  0  0  0  0  0  0  0
   27.2464  -21.2640  -10.4707 C   0  0  0  0  0  0  0  0  0  0  0  0
   28.4519  -21.3027   -9.8488 N   0  0  0  0  0  0  0  0  0  0  0  0
   28.3877  -20.6949   -8.6507 C   0  0  0  0  0  0  0  0  0  0  0  0
   29.3223  -20.4766   -7.6621 C   0  0  0  0  0  0  0  0  0  0  0  0
   28.9445  -19.8081   -6.5213 C   0  0  0  0  0  0  0  0  0  0  0  0
   27.6441  -19.3568   -6.3597 C   0  0  0  0  0  0  0  0  0  0  0  0
   26.7421  -19.5857   -7.3510 C   0  0  0  0  0  0  0  0  0  0  0  0
   27.0650  -20.2523   -8.5200 C   0  0  0  0  0  0  0  0  0  0  0  0
   22.9902  -21.0483  -11.1355 C   0  0  0  0  0  0  0  0  0  0  0  0
   22.2168  -20.2374  -11.7045 O   0  0  0  0  0  0  0  0  0  0  0  0
   22.3971  -22.0618  -10.3997 O   0  0  0  0  0  0  0  0  0  0  0  0
  1  2  1  0
  2  3  1  0
  4  3  1  0
  5  1  1  0
  5  4  1  0
  5  6  1  6
  6 11  1  0
  7  6  2  0
  9  8  1  0
 10 12  1  0
 10  9  1  6
 11 10  1  0
 12 14  1  0
 13 12  2  0
 14 15  1  0
 15 26  1  0
 15 16  1  1
 17 16  1  0
 18 17  2  0
 19 20  1  0
 19 18  1  0
 20 25  2  0
 21 22  2  0
 21 20  1  0
 22 23  1  0
 23 24  2  0
 25 17  1  0
 25 24  1  0
 26 27  2  0
 26 28  1  0
M  END
$$$$
