NFF.pdb
     RDKit          3D

 31 32  0  0  1  0  0  0  0  0999 V2000
   11.7320  -19.0139   17.2983 N   0  0  0  0  0  0  0  0  0  0  0  0
   12.7309  -18.6957   18.2992 C   0  0  0  0  0  0  0  0  0  0  0  0
   13.8003  -19.3149   18.3990 O   0  0  0  0  0  0  0  0  0  0  0  0
   12.4324  -17.5801   19.2300 C   0  0  0  0  0  0  0  0  0  0  0  0
   11.1185  -17.9151   19.9385 C   0  0  2  0  0  0  0  0  0  0  0  0
   10.0541  -17.6153   18.9638 N   0  0  0  0  0  0  0  0  0  0  0  0
   10.9675  -16.9830   21.0766 C   0  0  0  0  0  0  0  0  0  0  0  0
   11.7902  -15.9879   21.1338 O   0  0  0  0  0  0  0  0  0  0  0  0
    9.9929  -17.1296   22.0702 N   0  0  0  0  0  0  0  0  0  0  0  0
    9.5852  -16.0067   22.9535 C   0  0  1  0  0  0  0  0  0  0  0  0
    8.1227  -15.7702   22.7031 C   0  0  0  0  0  0  0  0  0  0  0  0
    7.8021  -14.6845   21.7711 C   0  0  0  0  0  0  0  0  0  0  0  0
    7.0846  -14.9928   20.6347 C   0  0  0  0  0  0  0  0  0  0  0  0
    6.6968  -14.0660   19.7275 C   0  0  0  0  0  0  0  0  0  0  0  0
    7.0172  -12.7385   19.9169 C   0  0  0  0  0  0  0  0  0  0  0  0
    7.7425  -12.4191   21.0641 C   0  0  0  0  0  0  0  0  0  0  0  0
    8.1235  -13.3738   21.9663 C   0  0  0  0  0  0  0  0  0  0  0  0
    9.8930  -16.4172   24.3161 C   0  0  0  0  0  0  0  0  0  0  0  0
    9.9417  -17.6752   24.6274 O   0  0  0  0  0  0  0  0  0  0  0  0
   10.1682  -15.5578   25.4054 N   0  0  0  0  0  0  0  0  0  0  0  0
   10.5812  -16.0483   26.6991 C   0  0  1  0  0  0  0  0  0  0  0  0
   10.7437  -14.8210   27.5934 C   0  0  0  0  0  0  0  0  0  0  0  0
    9.5170  -14.0052   27.6274 C   0  0  0  0  0  0  0  0  0  0  0  0
    9.3274  -13.0577   28.6088 C   0  0  0  0  0  0  0  0  0  0  0  0
    8.2194  -12.2695   28.6935 C   0  0  0  0  0  0  0  0  0  0  0  0
    7.2439  -12.4574   27.7171 C   0  0  0  0  0  0  0  0  0  0  0  0
    7.4200  -13.4050   26.7244 C   0  0  0  0  0  0  0  0  0  0  0  0
    8.5550  -14.1920   26.6622 C   0  0  0  0  0  0  0  0  0  0  0  0
    9.6636  -17.0155   27.2601 C   0  0  0  0  0  0  0  0  0  0  0  0
    8.4640  -17.3959   26.7442 O   0  0  0  0  0  0  0  0  0  0  0  0
   10.0180  -17.5716   28.3623 O   0  0  0  0  0  0  0  0  0  0  0  0
  2  1  1  0
  2  4  1  0
  3  2  2  0
  4  5  1  0
  5  6  1  6
  7  9  1  0
  7  5  1  0
  8  7  2  0
 10  9  1  0
 10 11  1  1
 11 12  1  0
 12 13  2  0
 12 17  1  0
 13 14  1  0
 14 15  2  0
 16 15  1  0
 17 16  2  0
 18 10  1  0
 19 18  2  0
 20 18  1  0
 21 29  1  0
 21 20  1  0
 22 23  1  0
 21 22  1  1
 23 24  2  0
 23 28  1  0
 24 25  1  0
 25 26  2  0
 27 26  1  0
 28 27  2  0
 29 30  1  0
 31 29  2  0
M  END
$$$$
