NFF.pdb
     RDKit          3D

 31 32  0  0  1  0  0  0  0  0999 V2000
   10.0600  -17.1630   15.9396 N   0  0  0  0  0  0  0  0  0  0  0  0
   10.6074  -17.6195   17.2016 C   0  0  0  0  0  0  0  0  0  0  0  0
   11.1702  -18.7166   17.3302 O   0  0  0  0  0  0  0  0  0  0  0  0
   10.4714  -16.7164   18.3705 C   0  0  0  0  0  0  0  0  0  0  0  0
   10.0979  -17.5817   19.5756 C   0  0  2  0  0  0  0  0  0  0  0  0
    8.7671  -18.1364   19.2690 N   0  0  0  0  0  0  0  0  0  0  0  0
    9.9592  -16.6903   20.7473 C   0  0  0  0  0  0  0  0  0  0  0  0
   10.9732  -15.9451   21.0416 O   0  0  0  0  0  0  0  0  0  0  0  0
    8.8021  -16.6208   21.5315 N   0  0  0  0  0  0  0  0  0  0  0  0
    8.7185  -15.7738   22.7493 C   0  0  1  0  0  0  0  0  0  0  0  0
    7.2851  -15.3416   22.8764 C   0  0  0  0  0  0  0  0  0  0  0  0
    6.9415  -14.6246   24.1084 C   0  0  0  0  0  0  0  0  0  0  0  0
    7.2979  -13.2964   24.2095 C   0  0  0  0  0  0  0  0  0  0  0  0
    6.9952  -12.5262   25.2808 C   0  0  0  0  0  0  0  0  0  0  0  0
    6.2968  -13.0628   26.3414 C   0  0  0  0  0  0  0  0  0  0  0  0
    5.9327  -14.4055   26.2462 C   0  0  0  0  0  0  0  0  0  0  0  0
    6.2506  -15.1637   25.1532 C   0  0  0  0  0  0  0  0  0  0  0  0
    9.1900  -16.5919   23.8575 C   0  0  0  0  0  0  0  0  0  0  0  0
    8.8320  -17.8346   23.9548 O   0  0  0  0  0  0  0  0  0  0  0  0
   10.0485  -16.1713   24.9002 N   0  0  0  0  0  0  0  0  0  0  0  0
   10.6716  -17.0968   25.8168 C   0  0  1  0  0  0  0  0  0  0  0  0
   11.7288  -16.3014   26.5797 C   0  0  0  0  0  0  0  0  0  0  0  0
   11.1180  -15.3248   27.4989 C   0  0  0  0  0  0  0  0  0  0  0  0
   10.9248  -15.6323   28.8275 C   0  0  0  0  0  0  0  0  0  0  0  0
   10.3703  -14.7738   29.7283 C   0  0  0  0  0  0  0  0  0  0  0  0
    9.9896  -13.5236   29.2462 C   0  0  0  0  0  0  0  0  0  0  0  0
   10.1775  -13.1997   27.9142 C   0  0  0  0  0  0  0  0  0  0  0  0
   10.7430  -14.0908   27.0211 C   0  0  0  0  0  0  0  0  0  0  0  0
    9.7280  -17.7418   26.7031 C   0  0  0  0  0  0  0  0  0  0  0  0
    8.4000  -17.4706   26.8171 O   0  0  0  0  0  0  0  0  0  0  0  0
   10.1935  -18.6659   27.4639 O   0  0  0  0  0  0  0  0  0  0  0  0
  2  1  1  0
  2  4  1  0
  3  2  2  0
  4  5  1  0
  5  6  1  6
  7  9  1  0
  7  5  1  0
  8  7  2  0
 10  9  1  0
 10 11  1  1
 11 12  1  0
 12 13  2  0
 12 17  1  0
 13 14  1  0
 14 15  2  0
 16 15  1  0
 17 16  2  0
 18 10  1  0
 19 18  2  0
 20 18  1  0
 21 29  1  0
 21 20  1  0
 22 23  1  0
 21 22  1  1
 23 24  2  0
 23 28  1  0
 24 25  1  0
 25 26  2  0
 27 26  1  0
 28 27  2  0
 29 30  1  0
 31 29  2  0
M  END
$$$$
