NFF.pdb
     RDKit          3D

 31 32  0  0  1  0  0  0  0  0999 V2000
   10.2281  -18.2761   17.0241 N   0  0  0  0  0  0  0  0  0  0  0  0
   10.1173  -17.5867   18.2943 C   0  0  0  0  0  0  0  0  0  0  0  0
    9.0354  -17.4289   18.8788 O   0  0  0  0  0  0  0  0  0  0  0  0
   11.3662  -17.0571   18.8941 C   0  0  0  0  0  0  0  0  0  0  0  0
   11.4769  -17.6365   20.3057 C   0  0  2  0  0  0  0  0  0  0  0  0
   10.5042  -18.7428   20.3583 N   0  0  0  0  0  0  0  0  0  0  0  0
   11.0330  -16.5961   21.2582 C   0  0  0  0  0  0  0  0  0  0  0  0
   11.7619  -15.5327   21.3480 O   0  0  0  0  0  0  0  0  0  0  0  0
    9.8827  -16.7119   22.0468 N   0  0  0  0  0  0  0  0  0  0  0  0
    9.4369  -15.6309   22.9634 C   0  0  1  0  0  0  0  0  0  0  0  0
    7.9637  -15.4488   22.7311 C   0  0  0  0  0  0  0  0  0  0  0  0
    7.5967  -14.6388   21.5653 C   0  0  0  0  0  0  0  0  0  0  0  0
    7.9839  -13.3155   21.5441 C   0  0  0  0  0  0  0  0  0  0  0  0
    7.7373  -12.4866   20.5026 C   0  0  0  0  0  0  0  0  0  0  0  0
    7.0687  -12.9545   19.3915 C   0  0  0  0  0  0  0  0  0  0  0  0
    6.6741  -14.2918   19.4056 C   0  0  0  0  0  0  0  0  0  0  0  0
    6.9344  -15.1098   20.4703 C   0  0  0  0  0  0  0  0  0  0  0  0
    9.7738  -16.0645   24.3119 C   0  0  0  0  0  0  0  0  0  0  0  0
   10.3455  -17.2117   24.5089 O   0  0  0  0  0  0  0  0  0  0  0  0
    9.5448  -15.3388   25.5044 N   0  0  0  0  0  0  0  0  0  0  0  0
    9.8313  -15.8796   26.8121 C   0  0  1  0  0  0  0  0  0  0  0  0
    9.7522  -14.7085   27.7893 C   0  0  0  0  0  0  0  0  0  0  0  0
    8.7472  -13.7156   27.3700 C   0  0  0  0  0  0  0  0  0  0  0  0
    9.0789  -12.3843   27.2498 C   0  0  0  0  0  0  0  0  0  0  0  0
    8.1988  -11.4188   26.8633 C   0  0  0  0  0  0  0  0  0  0  0  0
    6.9000  -11.8353   26.5808 C   0  0  0  0  0  0  0  0  0  0  0  0
    6.5515  -13.1694   26.6965 C   0  0  0  0  0  0  0  0  0  0  0  0
    7.4653  -14.1289   27.0911 C   0  0  0  0  0  0  0  0  0  0  0  0
    8.9488  -16.9631   27.1853 C   0  0  0  0  0  0  0  0  0  0  0  0
    7.8948  -17.4396   26.4697 O   0  0  0  0  0  0  0  0  0  0  0  0
    9.1839  -17.5336   28.3117 O   0  0  0  0  0  0  0  0  0  0  0  0
  2  1  1  0
  2  4  1  0
  3  2  2  0
  4  5  1  0
  5  6  1  6
  7  9  1  0
  7  5  1  0
  8  7  2  0
 10  9  1  0
 10 11  1  1
 11 12  1  0
 12 13  2  0
 12 17  1  0
 13 14  1  0
 14 15  2  0
 16 15  1  0
 17 16  2  0
 18 10  1  0
 19 18  2  0
 20 18  1  0
 21 29  1  0
 21 20  1  0
 22 23  1  0
 21 22  1  1
 23 24  2  0
 23 28  1  0
 24 25  1  0
 25 26  2  0
 27 26  1  0
 28 27  2  0
 29 30  1  0
 31 29  2  0
M  END
$$$$
