NFF.pdb
     RDKit          3D

 31 32  0  0  1  0  0  0  0  0999 V2000
   12.2402  -18.3127   18.2338 N   0  0  0  0  0  0  0  0  0  0  0  0
   11.5940  -18.6649   19.4825 C   0  0  0  0  0  0  0  0  0  0  0  0
   11.0872  -19.7782   19.6840 O   0  0  0  0  0  0  0  0  0  0  0  0
   11.5503  -17.6293   20.5435 C   0  0  0  0  0  0  0  0  0  0  0  0
   10.1349  -17.6294   21.1244 C   0  0  2  0  0  0  0  0  0  0  0  0
    9.2459  -17.2734   20.0039 N   0  0  0  0  0  0  0  0  0  0  0  0
   10.0573  -16.5457   22.1276 C   0  0  0  0  0  0  0  0  0  0  0  0
   11.0983  -15.7911   22.2587 O   0  0  0  0  0  0  0  0  0  0  0  0
    8.9294  -16.3081   22.9212 N   0  0  0  0  0  0  0  0  0  0  0  0
    8.9074  -15.2620   23.9760 C   0  0  1  0  0  0  0  0  0  0  0  0
    7.5363  -14.6482   23.9462 C   0  0  0  0  0  0  0  0  0  0  0  0
    7.2559  -13.6610   24.9935 C   0  0  0  0  0  0  0  0  0  0  0  0
    7.7205  -12.3748   24.8168 C   0  0  0  0  0  0  0  0  0  0  0  0
    7.4849  -11.3732   25.6964 C   0  0  0  0  0  0  0  0  0  0  0  0
    6.7474  -11.6146   26.8359 C   0  0  0  0  0  0  0  0  0  0  0  0
    6.2739  -12.9129   27.0212 C   0  0  0  0  0  0  0  0  0  0  0  0
    6.5256  -13.9087   26.1181 C   0  0  0  0  0  0  0  0  0  0  0  0
    9.2295  -15.9291   25.2295 C   0  0  0  0  0  0  0  0  0  0  0  0
    8.6396  -17.0376   25.5535 O   0  0  0  0  0  0  0  0  0  0  0  0
   10.1695  -15.4909   26.1915 N   0  0  0  0  0  0  0  0  0  0  0  0
   10.3847  -16.1820   27.4408 C   0  0  1  0  0  0  0  0  0  0  0  0
   11.8910  -16.4063   27.5551 C   0  0  0  0  0  0  0  0  0  0  0  0
   12.4057  -17.2272   26.4448 C   0  0  0  0  0  0  0  0  0  0  0  0
   12.9937  -16.6393   25.3469 C   0  0  0  0  0  0  0  0  0  0  0  0
   13.4922  -17.3410   24.2909 C   0  0  0  0  0  0  0  0  0  0  0  0
   13.3860  -18.7283   24.3576 C   0  0  0  0  0  0  0  0  0  0  0  0
   12.7981  -19.3338   25.4541 C   0  0  0  0  0  0  0  0  0  0  0  0
   12.3001  -18.5970   26.5126 C   0  0  0  0  0  0  0  0  0  0  0  0
    9.8497  -15.4730   28.5825 C   0  0  0  0  0  0  0  0  0  0  0  0
    9.2155  -14.2698   28.5711 O   0  0  0  0  0  0  0  0  0  0  0  0
    9.9904  -16.0380   29.7272 O   0  0  0  0  0  0  0  0  0  0  0  0
  2  1  1  0
  2  4  1  0
  3  2  2  0
  4  5  1  0
  5  6  1  6
  7  9  1  0
  7  5  1  0
  8  7  2  0
 10  9  1  0
 10 11  1  1
 11 12  1  0
 12 13  2  0
 12 17  1  0
 13 14  1  0
 14 15  2  0
 16 15  1  0
 17 16  2  0
 18 10  1  0
 19 18  2  0
 20 18  1  0
 21 29  1  0
 21 20  1  0
 22 23  1  0
 21 22  1  1
 23 24  2  0
 23 28  1  0
 24 25  1  0
 25 26  2  0
 27 26  1  0
 28 27  2  0
 29 30  1  0
 31 29  2  0
M  END
$$$$
