NFF.pdb
     RDKit          3D

 31 32  0  0  1  0  0  0  0  0999 V2000
   12.3084  -17.8485   16.8292 N   0  0  0  0  0  0  0  0  0  0  0  0
   10.9942  -17.6261   17.3985 C   0  0  0  0  0  0  0  0  0  0  0  0
    9.9577  -18.0747   16.8871 O   0  0  0  0  0  0  0  0  0  0  0  0
   10.9172  -16.8228   18.6431 C   0  0  0  0  0  0  0  0  0  0  0  0
   10.4708  -17.7613   19.7659 C   0  0  2  0  0  0  0  0  0  0  0  0
    9.1425  -18.2579   19.3639 N   0  0  0  0  0  0  0  0  0  0  0  0
   10.3010  -16.9518   20.9917 C   0  0  0  0  0  0  0  0  0  0  0  0
   11.3671  -16.4310   21.5040 O   0  0  0  0  0  0  0  0  0  0  0  0
    9.0626  -16.7304   21.6049 N   0  0  0  0  0  0  0  0  0  0  0  0
    8.9251  -15.9303   22.8493 C   0  0  1  0  0  0  0  0  0  0  0  0
    7.4945  -15.4758   22.9139 C   0  0  0  0  0  0  0  0  0  0  0  0
    7.1151  -14.7308   24.1185 C   0  0  0  0  0  0  0  0  0  0  0  0
    7.4644  -13.3992   24.1972 C   0  0  0  0  0  0  0  0  0  0  0  0
    7.1302  -12.6047   25.2411 C   0  0  0  0  0  0  0  0  0  0  0  0
    6.4048  -13.1185   26.2949 C   0  0  0  0  0  0  0  0  0  0  0  0
    6.0478  -14.4644   26.2221 C   0  0  0  0  0  0  0  0  0  0  0  0
    6.3977  -15.2473   25.1567 C   0  0  0  0  0  0  0  0  0  0  0  0
    9.3194  -16.8003   23.9482 C   0  0  0  0  0  0  0  0  0  0  0  0
    8.9386  -18.0397   23.9731 O   0  0  0  0  0  0  0  0  0  0  0  0
   10.1212  -16.4365   25.0553 N   0  0  0  0  0  0  0  0  0  0  0  0
   10.5783  -17.3947   26.0339 C   0  0  1  0  0  0  0  0  0  0  0  0
   11.8325  -16.7975   26.6684 C   0  0  0  0  0  0  0  0  0  0  0  0
   11.5354  -15.5487   27.3922 C   0  0  0  0  0  0  0  0  0  0  0  0
   11.3899  -15.5450   28.7618 C   0  0  0  0  0  0  0  0  0  0  0  0
   11.1194  -14.4255   29.4894 C   0  0  0  0  0  0  0  0  0  0  0  0
   10.9898  -13.2351   28.7779 C   0  0  0  0  0  0  0  0  0  0  0  0
   11.1336  -13.2224   27.4018 C   0  0  0  0  0  0  0  0  0  0  0  0
   11.4081  -14.3741   26.6879 C   0  0  0  0  0  0  0  0  0  0  0  0
    9.5722  -17.7256   27.0190 C   0  0  0  0  0  0  0  0  0  0  0  0
    8.3380  -17.1677   27.1430 O   0  0  0  0  0  0  0  0  0  0  0  0
    9.8774  -18.6406   27.8670 O   0  0  0  0  0  0  0  0  0  0  0  0
  2  1  1  0
  2  4  1  0
  3  2  2  0
  4  5  1  0
  5  6  1  6
  7  9  1  0
  7  5  1  0
  8  7  2  0
 10  9  1  0
 10 11  1  1
 11 12  1  0
 12 13  2  0
 12 17  1  0
 13 14  1  0
 14 15  2  0
 16 15  1  0
 17 16  2  0
 18 10  1  0
 19 18  2  0
 20 18  1  0
 21 29  1  0
 21 20  1  0
 22 23  1  0
 21 22  1  1
 23 24  2  0
 23 28  1  0
 24 25  1  0
 25 26  2  0
 27 26  1  0
 28 27  2  0
 29 30  1  0
 31 29  2  0
M  END
$$$$
