NFF.pdb
     RDKit          3D

 31 32  0  0  1  0  0  0  0  0999 V2000
    9.2961  -19.8713   17.5011 N   0  0  0  0  0  0  0  0  0  0  0  0
    8.3382  -19.0997   18.2680 C   0  0  0  0  0  0  0  0  0  0  0  0
    7.1433  -19.4167   18.3608 O   0  0  0  0  0  0  0  0  0  0  0  0
    8.8367  -17.8846   18.9572 C   0  0  0  0  0  0  0  0  0  0  0  0
    9.0311  -18.2427   20.4318 C   0  0  2  0  0  0  0  0  0  0  0  0
    7.6805  -18.5158   20.9554 N   0  0  0  0  0  0  0  0  0  0  0  0
    9.5524  -17.0443   21.1238 C   0  0  0  0  0  0  0  0  0  0  0  0
   10.7115  -16.6095   20.7525 O   0  0  0  0  0  0  0  0  0  0  0  0
    8.8586  -16.3764   22.1392 N   0  0  0  0  0  0  0  0  0  0  0  0
    9.4176  -15.1872   22.8326 C   0  0  1  0  0  0  0  0  0  0  0  0
    8.3878  -14.0989   22.7203 C   0  0  0  0  0  0  0  0  0  0  0  0
    8.1104  -13.6203   21.3624 C   0  0  0  0  0  0  0  0  0  0  0  0
    7.0705  -14.2009   20.6674 C   0  0  0  0  0  0  0  0  0  0  0  0
    6.6980  -13.8106   19.4259 C   0  0  0  0  0  0  0  0  0  0  0  0
    7.3689  -12.7848   18.7947 C   0  0  0  0  0  0  0  0  0  0  0  0
    8.4215  -12.1926   19.4915 C   0  0  0  0  0  0  0  0  0  0  0  0
    8.7796  -12.6050   20.7453 C   0  0  0  0  0  0  0  0  0  0  0  0
    9.6973  -15.5978   24.2012 C   0  0  0  0  0  0  0  0  0  0  0  0
   10.6778  -15.0624   24.8597 O   0  0  0  0  0  0  0  0  0  0  0  0
    8.9813  -16.5637   24.9464 N   0  0  0  0  0  0  0  0  0  0  0  0
    9.1519  -16.7319   26.3703 C   0  0  1  0  0  0  0  0  0  0  0  0
    7.7654  -16.5768   26.9916 C   0  0  0  0  0  0  0  0  0  0  0  0
    7.2607  -15.1985   26.8610 C   0  0  0  0  0  0  0  0  0  0  0  0
    6.1296  -14.9287   26.1229 C   0  0  0  0  0  0  0  0  0  0  0  0
    5.6101  -13.6791   25.9667 C   0  0  0  0  0  0  0  0  0  0  0  0
    6.2841  -12.6392   26.6028 C   0  0  0  0  0  0  0  0  0  0  0  0
    7.4216  -12.8942   27.3482 C   0  0  0  0  0  0  0  0  0  0  0  0
    7.9275  -14.1730   27.4900 C   0  0  0  0  0  0  0  0  0  0  0  0
    9.7715  -17.9901   26.7241 C   0  0  0  0  0  0  0  0  0  0  0  0
   10.1965  -18.3709   27.9588 O   0  0  0  0  0  0  0  0  0  0  0  0
    9.9402  -18.8354   25.7720 O   0  0  0  0  0  0  0  0  0  0  0  0
  2  1  1  0
  2  4  1  0
  3  2  2  0
  4  5  1  0
  5  6  1  1
  7  9  1  0
  7  5  1  0
  8  7  2  0
 10  9  1  0
 10 11  1  1
 11 12  1  0
 12 13  2  0
 12 17  1  0
 13 14  1  0
 14 15  2  0
 16 15  1  0
 17 16  2  0
 18 10  1  0
 19 18  2  0
 20 18  1  0
 21 29  1  0
 21 20  1  0
 22 23  1  0
 21 22  1  1
 23 24  2  0
 23 28  1  0
 24 25  1  0
 25 26  2  0
 27 26  1  0
 28 27  2  0
 29 30  1  0
 31 29  2  0
M  END
$$$$
