NFF.pdb
     RDKit          3D

 31 32  0  0  1  0  0  0  0  0999 V2000
   11.0131  -17.2582   16.1483 N   0  0  0  0  0  0  0  0  0  0  0  0
   11.3822  -17.6700   17.4882 C   0  0  0  0  0  0  0  0  0  0  0  0
   11.9293  -18.7562   17.7284 O   0  0  0  0  0  0  0  0  0  0  0  0
   11.0781  -16.7335   18.5975 C   0  0  0  0  0  0  0  0  0  0  0  0
   10.4764  -17.5564   19.7384 C   0  0  2  0  0  0  0  0  0  0  0  0
    9.1701  -18.0263   19.2429 N   0  0  0  0  0  0  0  0  0  0  0  0
   10.2291  -16.6423   20.8742 C   0  0  0  0  0  0  0  0  0  0  0  0
   11.2176  -15.9050   21.2607 O   0  0  0  0  0  0  0  0  0  0  0  0
    8.9975  -16.5440   21.5316 N   0  0  0  0  0  0  0  0  0  0  0  0
    8.8164  -15.7268   22.7592 C   0  0  1  0  0  0  0  0  0  0  0  0
    7.3595  -15.3656   22.8257 C   0  0  0  0  0  0  0  0  0  0  0  0
    6.9222  -14.7010   24.0573 C   0  0  0  0  0  0  0  0  0  0  0  0
    7.3563  -13.4133   24.2915 C   0  0  0  0  0  0  0  0  0  0  0  0
    6.9825  -12.6890   25.3723 C   0  0  0  0  0  0  0  0  0  0  0  0
    6.1263  -13.2336   26.3056 C   0  0  0  0  0  0  0  0  0  0  0  0
    5.6828  -14.5354   26.0753 C   0  0  0  0  0  0  0  0  0  0  0  0
    6.0751  -15.2476   24.9756 C   0  0  0  0  0  0  0  0  0  0  0  0
    9.2745  -16.5441   23.8736 C   0  0  0  0  0  0  0  0  0  0  0  0
    8.9094  -17.7847   23.9714 O   0  0  0  0  0  0  0  0  0  0  0  0
   10.1262  -16.1249   24.9223 N   0  0  0  0  0  0  0  0  0  0  0  0
   10.6420  -17.0350   25.9176 C   0  0  1  0  0  0  0  0  0  0  0  0
   11.6664  -16.2475   26.7317 C   0  0  0  0  0  0  0  0  0  0  0  0
   11.0228  -15.2240   27.5741 C   0  0  0  0  0  0  0  0  0  0  0  0
   10.7155  -13.9822   27.0638 C   0  0  0  0  0  0  0  0  0  0  0  0
   10.1176  -12.9951   27.7878 C   0  0  0  0  0  0  0  0  0  0  0  0
    9.8127  -13.2915   29.1142 C   0  0  0  0  0  0  0  0  0  0  0  0
   10.1147  -14.5347   29.6413 C   0  0  0  0  0  0  0  0  0  0  0  0
   10.7222  -15.5186   28.8836 C   0  0  0  0  0  0  0  0  0  0  0  0
    9.6095  -17.6121   26.7500 C   0  0  0  0  0  0  0  0  0  0  0  0
    8.3008  -17.2447   26.7983 O   0  0  0  0  0  0  0  0  0  0  0  0
    9.9666  -18.5705   27.5268 O   0  0  0  0  0  0  0  0  0  0  0  0
  2  1  1  0
  2  4  1  0
  3  2  2  0
  4  5  1  0
  5  6  1  6
  7  9  1  0
  7  5  1  0
  8  7  2  0
 10  9  1  0
 10 11  1  1
 11 12  1  0
 12 13  2  0
 12 17  1  0
 13 14  1  0
 14 15  2  0
 16 15  1  0
 17 16  2  0
 18 10  1  0
 19 18  2  0
 20 18  1  0
 21 29  1  0
 21 20  1  0
 22 23  1  0
 21 22  1  1
 23 24  2  0
 23 28  1  0
 24 25  1  0
 25 26  2  0
 27 26  1  0
 28 27  2  0
 29 30  1  0
 31 29  2  0
M  END
$$$$
