RYY.pdb
     RDKit          3D

 36 37  0  0  1  0  0  0  0  0999 V2000
   28.5401  -27.5427  -16.7889 N   0  0  0  0  0  0  0  0  0  0  0  0
   28.6379  -26.8160  -17.9995 C   0  0  0  0  0  0  0  0  0  0  0  0
   29.5435  -27.0981  -18.8887 N   0  0  0  0  0  0  0  0  0  0  0  0
   27.7410  -25.7560  -18.2669 N   0  0  0  0  0  0  0  0  0  0  0  0
   26.6330  -25.4834  -17.3382 C   0  0  0  0  0  0  0  0  0  0  0  0
   26.2769  -24.0446  -17.4746 C   0  0  0  0  0  0  0  0  0  0  0  0
   25.0966  -23.6582  -16.6547 C   0  0  0  0  0  0  0  0  0  0  0  0
   25.3677  -23.7153  -15.1913 C   0  0  2  0  0  0  0  0  0  0  0  0
   25.5463  -25.0923  -14.6927 N   0  0  0  0  0  0  0  0  0  0  0  0
   24.1968  -23.1956  -14.4037 C   0  0  0  0  0  0  0  0  0  0  0  0
   23.3220  -23.9395  -13.9234 O   0  0  0  0  0  0  0  0  0  0  0  0
   29.7722  -26.5112  -19.7002 O   0  0  0  0  0  0  0  0  0  0  0  0
   26.8831  -20.9941   -8.1610 C   0  0  0  0  0  0  0  0  0  0  0  0
   26.0747  -20.7460   -9.2702 C   0  0  0  0  0  0  0  0  0  0  0  0
   24.7269  -20.5305   -9.1546 C   0  0  0  0  0  0  0  0  0  0  0  0
   23.9380  -20.2848  -10.2739 C   0  0  0  0  0  0  0  0  0  0  0  0
   24.5047  -20.2539  -11.5292 C   0  0  0  0  0  0  0  0  0  0  0  0
   23.6727  -20.0013  -12.7067 C   0  0  2  0  0  0  0  0  0  0  0  0
   23.0882  -21.2375  -13.3441 N   0  0  0  0  0  0  0  0  0  0  0  0
   24.1141  -21.7938  -14.2168 C   0  0  0  0  0  0  0  0  0  0  0  0
   21.9243  -20.8866  -14.1806 O   0  0  0  0  0  0  0  0  0  0  0  0
   22.0474  -20.3262  -15.3105 C   0  0  0  0  0  0  0  0  0  0  0  0
   25.8619  -20.4729  -11.6245 C   0  0  0  0  0  0  0  0  0  0  0  0
   26.6503  -20.7181  -10.5084 O   0  0  0  0  0  0  0  0  0  0  0  0
   15.0639  -21.1592  -19.2622 C   0  0  0  0  0  0  0  0  0  0  0  0
   16.1721  -21.2917  -18.4305 C   0  0  0  0  0  0  0  0  0  0  0  0
   16.2073  -22.2633  -17.4711 C   0  0  0  0  0  0  0  0  0  0  0  0
   17.2774  -22.4291  -16.6315 C   0  0  0  0  0  0  0  0  0  0  0  0
   18.3827  -21.5844  -16.7441 C   0  0  0  0  0  0  0  0  0  0  0  0
   19.5222  -21.7501  -15.8470 C   0  0  1  0  0  0  0  0  0  0  0  0
   19.4360  -20.8890  -14.6344 N   0  0  0  0  0  0  0  0  0  0  0  0
   20.5964  -21.1584  -13.7652 C   0  0  0  0  0  0  0  0  0  0  0  0
   18.1831  -20.9742  -13.8788 O   0  0  0  0  0  0  0  0  0  0  0  0
   18.1041  -21.6696  -12.8107 C   0  0  0  0  0  0  0  0  0  0  0  0
   18.3702  -20.5952  -17.7056 C   0  0  0  0  0  0  0  0  0  0  0  0
   17.2735  -20.4646  -18.5284 O   0  0  0  0  0  0  0  0  0  0  0  0
  2  1  1  0
  2  3  2  0
  4  5  1  0
  4  2  1  0
  5  6  1  0
  6  7  1  0
  7  8  1  0
  8 10  1  0
  8  9  1  1
 10 19  1  0
 11 10  2  0
 13 12  1  0
 13 14  2  0
 15 14  1  0
 16 15  2  0
 17 16  1  0
 18 17  1  1
 18 20  1  0
 19 18  1  0
 20 21  2  0
 20 31  1  0
 22 23  2  0
 22 16  1  0
 23 13  1  0
 25 24  1  0
 25 35  2  0
 26 25  1  0
 27 26  2  0
 27 28  1  0
 28 34  2  0
 29 28  1  0
 30 29  1  6
 30 32  1  0
 31 30  1  0
 32 36  1  0
 33 32  2  0
 34 35  1  0
M  END
$$$$
