RYY.pdb
     RDKit          3D

 36 37  0  0  1  0  0  0  0  0999 V2000
   24.4481  -14.6316  -22.3464 N   0  0  0  0  0  0  0  0  0  0  0  0
   23.7173  -14.7552  -21.1406 C   0  0  0  0  0  0  0  0  0  0  0  0
   23.7218  -15.8597  -20.4548 N   0  0  0  0  0  0  0  0  0  0  0  0
   22.9588  -13.6654  -20.6541 N   0  0  0  0  0  0  0  0  0  0  0  0
   23.0292  -12.3632  -21.3351 C   0  0  0  0  0  0  0  0  0  0  0  0
   22.0448  -11.4599  -20.6789 C   0  0  0  0  0  0  0  0  0  0  0  0
   22.5616  -10.8523  -19.4226 C   0  0  0  0  0  0  0  0  0  0  0  0
   21.9091  -11.4062  -18.2036 C   0  0  2  0  0  0  0  0  0  0  0  0
   20.9265  -12.4639  -18.5073 N   0  0  0  0  0  0  0  0  0  0  0  0
   21.0994  -10.3536  -17.4980 C   0  0  0  0  0  0  0  0  0  0  0  0
   20.3648   -9.5495  -18.1006 O   0  0  0  0  0  0  0  0  0  0  0  0
   23.2001  -16.0114  -19.5830 O   0  0  0  0  0  0  0  0  0  0  0  0
   15.1962  -12.9341  -16.3607 C   0  0  0  0  0  0  0  0  0  0  0  0
   16.2765  -12.2151  -15.8495 C   0  0  0  0  0  0  0  0  0  0  0  0
   16.1549  -10.9149  -15.4360 C   0  0  0  0  0  0  0  0  0  0  0  0
   17.2452  -10.2151  -14.9290 C   0  0  0  0  0  0  0  0  0  0  0  0
   18.4773  -10.8242  -14.8336 C   0  0  0  0  0  0  0  0  0  0  0  0
   19.6251  -10.0851  -14.3057 C   0  0  2  0  0  0  0  0  0  0  0  0
   20.4157   -9.3230  -15.3402 N   0  0  0  0  0  0  0  0  0  0  0  0
   21.1977  -10.3008  -16.0858 C   0  0  0  0  0  0  0  0  0  0  0  0
   21.3575   -8.3924  -14.6886 O   0  0  0  0  0  0  0  0  0  0  0  0
   22.5264   -8.7421  -14.3464 C   0  0  0  0  0  0  0  0  0  0  0  0
   18.5791  -12.1325  -15.2545 C   0  0  0  0  0  0  0  0  0  0  0  0
   17.4918  -12.8319  -15.7606 O   0  0  0  0  0  0  0  0  0  0  0  0
   25.7557   -1.7919  -17.6759 C   0  0  0  0  0  0  0  0  0  0  0  0
   24.9445   -2.8525  -17.2829 C   0  0  0  0  0  0  0  0  0  0  0  0
   23.6364   -2.9068  -17.6724 C   0  0  0  0  0  0  0  0  0  0  0  0
   22.8029   -3.9318  -17.3086 C   0  0  0  0  0  0  0  0  0  0  0  0
   23.2887   -4.9687  -16.5107 C   0  0  0  0  0  0  0  0  0  0  0  0
   22.4037   -6.0591  -16.1124 C   0  0  1  0  0  0  0  0  0  0  0  0
   21.9106   -5.9244  -14.7131 N   0  0  0  0  0  0  0  0  0  0  0  0
   21.0057   -7.0481  -14.4078 C   0  0  0  0  0  0  0  0  0  0  0  0
   21.2866   -4.6417  -14.3769 O   0  0  0  0  0  0  0  0  0  0  0  0
   20.0533   -4.4238  -14.6261 C   0  0  0  0  0  0  0  0  0  0  0  0
   24.6067   -4.9357  -16.1046 C   0  0  0  0  0  0  0  0  0  0  0  0
   25.4090   -3.8861  -16.4939 O   0  0  0  0  0  0  0  0  0  0  0  0
  2  1  1  0
  2  3  2  0
  4  5  1  0
  4  2  1  0
  5  6  1  0
  6  7  1  0
  7  8  1  0
  8 10  1  0
  8  9  1  6
 10 19  1  0
 11 10  2  0
 13 12  1  0
 13 14  2  0
 15 14  1  0
 16 15  2  0
 17 16  1  0
 18 17  1  6
 18 20  1  0
 19 18  1  0
 20 21  2  0
 20 31  1  0
 22 23  2  0
 22 16  1  0
 23 13  1  0
 25 24  1  0
 25 35  2  0
 26 25  1  0
 27 26  2  0
 27 28  1  0
 28 34  2  0
 29 28  1  0
 30 29  1  1
 30 32  1  0
 31 30  1  0
 32 36  1  0
 33 32  2  0
 34 35  1  0
M  END
$$$$
