RYY.pdb
     RDKit          3D

 36 37  0  0  1  0  0  0  0  0999 V2000
   32.6167  -24.5656  -17.5119 N   0  0  0  0  0  0  0  0  0  0  0  0
   31.7925  -24.8971  -16.4100 C   0  0  0  0  0  0  0  0  0  0  0  0
   32.2637  -25.5297  -15.3766 N   0  0  0  0  0  0  0  0  0  0  0  0
   30.4238  -24.5421  -16.4138 N   0  0  0  0  0  0  0  0  0  0  0  0
   29.8492  -23.8562  -17.5816 C   0  0  0  0  0  0  0  0  0  0  0  0
   30.1748  -22.4091  -17.4571 C   0  0  0  0  0  0  0  0  0  0  0  0
   28.9826  -21.5307  -17.6051 C   0  0  0  0  0  0  0  0  0  0  0  0
   27.9681  -21.7512  -16.5371 C   0  0  2  0  0  0  0  0  0  0  0  0
   27.0440  -22.8602  -16.8416 N   0  0  0  0  0  0  0  0  0  0  0  0
   27.0645  -20.5576  -16.3948 C   0  0  0  0  0  0  0  0  0  0  0  0
   27.4730  -19.3857  -16.4916 O   0  0  0  0  0  0  0  0  0  0  0  0
   31.7398  -25.7147  -14.5125 O   0  0  0  0  0  0  0  0  0  0  0  0
   20.6618  -15.2575  -18.3544 C   0  0  0  0  0  0  0  0  0  0  0  0
   21.5857  -16.2863  -18.1714 C   0  0  0  0  0  0  0  0  0  0  0  0
   21.2412  -17.6055  -18.3033 C   0  0  0  0  0  0  0  0  0  0  0  0
   22.1780  -18.6170  -18.1165 C   0  0  0  0  0  0  0  0  0  0  0  0
   23.4803  -18.3055  -17.7924 C   0  0  0  0  0  0  0  0  0  0  0  0
   24.4637  -19.3706  -17.5900 C   0  0  1  0  0  0  0  0  0  0  0  0
   24.7399  -19.7092  -16.1460 N   0  0  0  0  0  0  0  0  0  0  0  0
   25.6941  -20.8105  -16.1406 C   0  0  0  0  0  0  0  0  0  0  0  0
   23.5083  -20.1744  -15.4796 O   0  0  0  0  0  0  0  0  0  0  0  0
   22.9445  -21.2671  -15.7861 C   0  0  0  0  0  0  0  0  0  0  0  0
   23.8070  -16.9728  -17.6644 C   0  0  0  0  0  0  0  0  0  0  0  0
   22.8731  -15.9625  -17.8506 O   0  0  0  0  0  0  0  0  0  0  0  0
   16.3463  -20.1454  -10.2500 C   0  0  0  0  0  0  0  0  0  0  0  0
   17.5516  -19.8314  -10.8714 C   0  0  0  0  0  0  0  0  0  0  0  0
   18.6909  -20.5190  -10.5631 C   0  0  0  0  0  0  0  0  0  0  0  0
   19.8978  -20.2431  -11.1502 C   0  0  0  0  0  0  0  0  0  0  0  0
   19.9881  -19.2255  -12.1011 C   0  0  0  0  0  0  0  0  0  0  0  0
   21.2726  -18.9207  -12.7240 C   0  0  1  0  0  0  0  0  0  0  0  0
   21.5964  -19.8282  -13.8601 N   0  0  0  0  0  0  0  0  0  0  0  0
   22.8837  -19.4214  -14.4536 C   0  0  0  0  0  0  0  0  0  0  0  0
   20.5612  -19.9568  -14.8894 O   0  0  0  0  0  0  0  0  0  0  0  0
   19.8533  -21.0155  -14.9829 C   0  0  0  0  0  0  0  0  0  0  0  0
   18.8509  -18.5167  -12.4288 C   0  0  0  0  0  0  0  0  0  0  0  0
   17.6585  -18.8279  -11.8138 O   0  0  0  0  0  0  0  0  0  0  0  0
  2  1  1  0
  2  3  2  0
  4  5  1  0
  4  2  1  0
  5  6  1  0
  6  7  1  0
  7  8  1  0
  8 10  1  0
  8  9  1  6
 10 19  1  0
 11 10  2  0
 13 12  1  0
 13 14  2  0
 15 14  1  0
 16 15  2  0
 17 16  1  0
 18 17  1  1
 18 20  1  0
 19 18  1  0
 20 21  2  0
 20 31  1  0
 22 23  2  0
 22 16  1  0
 23 13  1  0
 25 24  1  0
 25 35  2  0
 26 25  1  0
 27 26  2  0
 27 28  1  0
 28 34  2  0
 29 28  1  0
 30 29  1  1
 30 32  1  0
 31 30  1  0
 32 36  1  0
 33 32  2  0
 34 35  1  0
M  END
$$$$
