RYY.pdb
     RDKit          3D

 36 37  0  0  1  0  0  0  0  0999 V2000
   26.3117  -23.6850  -16.7459 N   0  0  0  0  0  0  0  0  0  0  0  0
   26.5828  -24.9525  -17.3145 C   0  0  0  0  0  0  0  0  0  0  0  0
   27.5953  -25.1371  -18.1089 N   0  0  0  0  0  0  0  0  0  0  0  0
   25.7461  -26.0551  -17.0253 N   0  0  0  0  0  0  0  0  0  0  0  0
   24.8550  -26.0102  -15.8555 C   0  0  0  0  0  0  0  0  0  0  0  0
   23.4602  -25.8799  -16.3586 C   0  0  0  0  0  0  0  0  0  0  0  0
   22.7272  -27.1748  -16.3803 C   0  0  0  0  0  0  0  0  0  0  0  0
   22.4939  -27.7279  -15.0172 C   0  0  2  0  0  0  0  0  0  0  0  0
   22.3802  -29.1987  -15.0048 N   0  0  0  0  0  0  0  0  0  0  0  0
   21.1771  -27.2597  -14.4618 C   0  0  0  0  0  0  0  0  0  0  0  0
   20.0913  -27.7909  -14.7590 O   0  0  0  0  0  0  0  0  0  0  0  0
   27.8083  -26.0174  -18.5935 O   0  0  0  0  0  0  0  0  0  0  0  0
   19.1391  -30.4165   -8.8549 C   0  0  0  0  0  0  0  0  0  0  0  0
   19.3920  -29.2192   -9.5242 C   0  0  0  0  0  0  0  0  0  0  0  0
   20.6392  -28.8946   -9.9885 C   0  0  0  0  0  0  0  0  0  0  0  0
   20.8706  -27.6949  -10.6538 C   0  0  0  0  0  0  0  0  0  0  0  0
   19.8392  -26.8048  -10.8586 C   0  0  0  0  0  0  0  0  0  0  0  0
   20.0850  -25.5401  -11.5533 C   0  0  2  0  0  0  0  0  0  0  0  0
   19.9590  -25.6096  -13.0551 N   0  0  0  0  0  0  0  0  0  0  0  0
   21.2067  -26.1650  -13.5632 C   0  0  0  0  0  0  0  0  0  0  0  0
   19.8013  -24.2569  -13.6236 O   0  0  0  0  0  0  0  0  0  0  0  0
   20.7852  -23.4778  -13.7989 C   0  0  0  0  0  0  0  0  0  0  0  0
   18.5921  -27.1497  -10.3843 C   0  0  0  0  0  0  0  0  0  0  0  0
   18.3599  -28.3466   -9.7202 O   0  0  0  0  0  0  0  0  0  0  0  0
   18.8042  -17.5469  -18.7442 C   0  0  0  0  0  0  0  0  0  0  0  0
   18.8775  -18.7539  -18.0547 C   0  0  0  0  0  0  0  0  0  0  0  0
   19.9468  -19.0298  -17.2509 C   0  0  0  0  0  0  0  0  0  0  0  0
   20.0594  -20.2045  -16.5546 C   0  0  0  0  0  0  0  0  0  0  0  0
   19.0550  -21.1683  -16.6565 C   0  0  0  0  0  0  0  0  0  0  0  0
   19.1730  -22.4255  -15.9241 C   0  0  1  0  0  0  0  0  0  0  0  0
   18.3833  -22.4374  -14.6611 N   0  0  0  0  0  0  0  0  0  0  0  0
   18.5340  -23.7509  -14.0076 C   0  0  0  0  0  0  0  0  0  0  0  0
   16.9693  -22.0739  -14.7888 O   0  0  0  0  0  0  0  0  0  0  0  0
   16.0962  -22.9375  -15.1386 C   0  0  0  0  0  0  0  0  0  0  0  0
   17.9651  -20.9123  -17.4625 C   0  0  0  0  0  0  0  0  0  0  0  0
   17.8930  -19.7178  -18.1444 O   0  0  0  0  0  0  0  0  0  0  0  0
  2  1  1  0
  2  3  2  0
  4  5  1  0
  4  2  1  0
  5  6  1  0
  6  7  1  0
  7  8  1  0
  8 10  1  0
  8  9  1  6
 10 19  1  0
 11 10  2  0
 13 12  1  0
 13 14  2  0
 15 14  1  0
 16 15  2  0
 17 16  1  0
 18 17  1  1
 18 20  1  0
 19 18  1  0
 20 21  2  0
 20 31  1  0
 22 23  2  0
 22 16  1  0
 23 13  1  0
 25 24  1  0
 25 35  2  0
 26 25  1  0
 27 26  2  0
 27 28  1  0
 28 34  2  0
 29 28  1  0
 30 29  1  1
 30 32  1  0
 31 30  1  0
 32 36  1  0
 33 32  2  0
 34 35  1  0
M  END
$$$$
