RYY.pdb
     RDKit          3D

 36 37  0  0  1  0  0  0  0  0999 V2000
   28.4315  -22.3196  -22.0499 N   0  0  0  0  0  0  0  0  0  0  0  0
   27.6629  -21.1657  -22.3344 C   0  0  0  0  0  0  0  0  0  0  0  0
   27.8012  -20.5172  -23.4527 N   0  0  0  0  0  0  0  0  0  0  0  0
   26.7187  -20.6909  -21.3949 N   0  0  0  0  0  0  0  0  0  0  0  0
   26.4765  -21.4460  -20.1557 C   0  0  0  0  0  0  0  0  0  0  0  0
   25.3834  -20.7570  -19.4168 C   0  0  0  0  0  0  0  0  0  0  0  0
   24.9337  -21.5070  -18.2127 C   0  0  0  0  0  0  0  0  0  0  0  0
   25.9750  -21.5679  -17.1495 C   0  0  2  0  0  0  0  0  0  0  0  0
   26.8676  -22.7348  -17.2847 N   0  0  0  0  0  0  0  0  0  0  0  0
   25.3523  -21.7456  -15.7922 C   0  0  0  0  0  0  0  0  0  0  0  0
   24.3072  -22.3963  -15.6083 O   0  0  0  0  0  0  0  0  0  0  0  0
   27.3785  -19.6036  -23.6577 O   0  0  0  0  0  0  0  0  0  0  0  0
   24.7658  -20.4756   -7.0109 C   0  0  0  0  0  0  0  0  0  0  0  0
   25.1895  -20.5167   -8.3391 C   0  0  0  0  0  0  0  0  0  0  0  0
   25.4037  -19.3781   -9.0700 C   0  0  0  0  0  0  0  0  0  0  0  0
   25.8263  -19.4407  -10.3940 C   0  0  0  0  0  0  0  0  0  0  0  0
   26.0383  -20.6607  -10.9978 C   0  0  0  0  0  0  0  0  0  0  0  0
   26.4771  -20.7256  -12.3927 C   0  0  1  0  0  0  0  0  0  0  0  0
   25.4407  -21.2469  -13.3573 N   0  0  0  0  0  0  0  0  0  0  0  0
   26.0074  -21.1344  -14.6950 C   0  0  0  0  0  0  0  0  0  0  0  0
   24.2244  -20.4126  -13.3096 O   0  0  0  0  0  0  0  0  0  0  0  0
   24.2111  -19.2120  -13.7149 C   0  0  0  0  0  0  0  0  0  0  0  0
   25.8176  -21.7943  -10.2459 C   0  0  0  0  0  0  0  0  0  0  0  0
   25.3958  -21.7331   -8.9245 O   0  0  0  0  0  0  0  0  0  0  0  0
   16.7190  -16.4644  -14.0877 C   0  0  0  0  0  0  0  0  0  0  0  0
   17.9045  -17.1937  -14.0742 C   0  0  0  0  0  0  0  0  0  0  0  0
   17.9082  -18.5179  -14.4088 C   0  0  0  0  0  0  0  0  0  0  0  0
   19.0516  -19.2730  -14.4089 C   0  0  0  0  0  0  0  0  0  0  0  0
   20.2682  -18.6865  -14.0570 C   0  0  0  0  0  0  0  0  0  0  0  0
   21.4885  -19.4875  -14.0465 C   0  0  1  0  0  0  0  0  0  0  0  0
   21.7928  -20.0637  -12.7069 N   0  0  0  0  0  0  0  0  0  0  0  0
   22.9964  -20.9101  -12.8055 C   0  0  0  0  0  0  0  0  0  0  0  0
   20.6948  -20.7860  -12.0584 O   0  0  0  0  0  0  0  0  0  0  0  0
   20.5477  -22.0441  -12.2202 C   0  0  0  0  0  0  0  0  0  0  0  0
   20.2895  -17.3502  -13.7149 C   0  0  0  0  0  0  0  0  0  0  0  0
   19.1162  -16.6290  -13.7286 O   0  0  0  0  0  0  0  0  0  0  0  0
  2  1  1  0
  2  3  2  0
  4  5  1  0
  4  2  1  0
  5  6  1  0
  6  7  1  0
  7  8  1  0
  8 10  1  0
  8  9  1  6
 10 19  1  0
 11 10  2  0
 13 12  1  0
 13 14  2  0
 15 14  1  0
 16 15  2  0
 17 16  1  0
 18 17  1  1
 18 20  1  0
 19 18  1  0
 20 21  2  0
 20 31  1  0
 22 23  2  0
 22 16  1  0
 23 13  1  0
 25 24  1  0
 25 35  2  0
 26 25  1  0
 27 26  2  0
 27 28  1  0
 28 34  2  0
 29 28  1  0
 30 29  1  1
 30 32  1  0
 31 30  1  0
 32 36  1  0
 33 32  2  0
 34 35  1  0
M  END
$$$$
