RYY.pdb
     RDKit          3D

 36 37  0  0  1  0  0  0  0  0999 V2000
   27.5385  -22.7523  -16.3957 N   0  0  0  0  0  0  0  0  0  0  0  0
   27.9126  -21.6944  -17.2582 C   0  0  0  0  0  0  0  0  0  0  0  0
   28.9805  -21.7662  -17.9963 N   0  0  0  0  0  0  0  0  0  0  0  0
   27.1215  -20.5247  -17.3334 N   0  0  0  0  0  0  0  0  0  0  0  0
   25.7277  -20.5528  -16.8631 C   0  0  0  0  0  0  0  0  0  0  0  0
   25.5282  -19.3712  -15.9802 C   0  0  0  0  0  0  0  0  0  0  0  0
   24.1373  -19.2613  -15.4625 C   0  0  0  0  0  0  0  0  0  0  0  0
   23.7525  -20.4098  -14.5957 C   0  0  2  0  0  0  0  0  0  0  0  0
   23.4459  -21.6321  -15.3629 N   0  0  0  0  0  0  0  0  0  0  0  0
   22.4781  -20.1222  -13.8511 C   0  0  0  0  0  0  0  0  0  0  0  0
   22.3579  -19.1679  -13.0610 O   0  0  0  0  0  0  0  0  0  0  0  0
   29.3523  -20.9974  -18.5672 O   0  0  0  0  0  0  0  0  0  0  0  0
   19.5579  -14.7492  -15.9665 C   0  0  0  0  0  0  0  0  0  0  0  0
   19.4853  -16.1073  -15.6572 C   0  0  0  0  0  0  0  0  0  0  0  0
   20.2945  -17.0347  -16.2584 C   0  0  0  0  0  0  0  0  0  0  0  0
   20.2061  -18.3851  -15.9358 C   0  0  0  0  0  0  0  0  0  0  0  0
   19.2944  -18.8162  -14.9973 C   0  0  0  0  0  0  0  0  0  0  0  0
   19.1980  -20.2380  -14.6630 C   0  0  2  0  0  0  0  0  0  0  0  0
   20.0770  -20.6788  -13.5188 N   0  0  0  0  0  0  0  0  0  0  0  0
   21.3843  -20.9926  -14.0807 C   0  0  0  0  0  0  0  0  0  0  0  0
   19.5432  -21.9080  -12.9009 O   0  0  0  0  0  0  0  0  0  0  0  0
   19.6081  -23.0365  -13.4739 C   0  0  0  0  0  0  0  0  0  0  0  0
   18.4896  -17.8679  -14.4037 C   0  0  0  0  0  0  0  0  0  0  0  0
   18.5768  -16.5200  -14.7247 O   0  0  0  0  0  0  0  0  0  0  0  0
   15.6019  -27.4188   -7.2360 C   0  0  0  0  0  0  0  0  0  0  0  0
   16.3426  -26.4073   -7.8408 C   0  0  0  0  0  0  0  0  0  0  0  0
   15.9627  -25.1010   -7.7183 C   0  0  0  0  0  0  0  0  0  0  0  0
   16.6621  -24.0745   -8.2967 C   0  0  0  0  0  0  0  0  0  0  0  0
   17.8083  -24.3524   -9.0430 C   0  0  0  0  0  0  0  0  0  0  0  0
   18.5530  -23.2642   -9.6691 C   0  0  1  0  0  0  0  0  0  0  0  0
   18.1934  -23.0636  -11.1008 N   0  0  0  0  0  0  0  0  0  0  0  0
   18.9251  -21.8955  -11.6252 C   0  0  0  0  0  0  0  0  0  0  0  0
   16.7606  -22.9588  -11.3905 O   0  0  0  0  0  0  0  0  0  0  0  0
   16.0937  -23.9717  -11.7901 C   0  0  0  0  0  0  0  0  0  0  0  0
   18.2118  -25.6644   -9.1811 C   0  0  0  0  0  0  0  0  0  0  0  0
   17.4785  -26.6648   -8.5824 O   0  0  0  0  0  0  0  0  0  0  0  0
  2  1  1  0
  2  3  2  0
  4  5  1  0
  4  2  1  0
  5  6  1  0
  6  7  1  0
  7  8  1  0
  8 10  1  0
  8  9  1  6
 10 19  1  0
 11 10  2  0
 13 12  1  0
 13 14  2  0
 15 14  1  0
 16 15  2  0
 17 16  1  0
 18 17  1  1
 18 20  1  0
 19 18  1  0
 20 21  2  0
 20 31  1  0
 22 23  2  0
 22 16  1  0
 23 13  1  0
 25 24  1  0
 25 35  2  0
 26 25  1  0
 27 26  2  0
 27 28  1  0
 28 34  2  0
 29 28  1  0
 30 29  1  6
 30 32  1  0
 31 30  1  0
 32 36  1  0
 33 32  2  0
 34 35  1  0
M  END
$$$$
