RYY.pdb
     RDKit          3D

 36 37  0  0  1  0  0  0  0  0999 V2000
   31.6476  -24.1361  -17.7998 N   0  0  0  0  0  0  0  0  0  0  0  0
   30.9688  -24.8950  -16.8167 C   0  0  0  0  0  0  0  0  0  0  0  0
   31.5121  -25.9446  -16.2751 N   0  0  0  0  0  0  0  0  0  0  0  0
   29.6702  -24.5204  -16.4008 N   0  0  0  0  0  0  0  0  0  0  0  0
   29.0189  -23.3471  -17.0038 C   0  0  0  0  0  0  0  0  0  0  0  0
   29.4305  -22.1520  -16.2176 C   0  0  0  0  0  0  0  0  0  0  0  0
   28.3577  -21.1257  -16.1165 C   0  0  0  0  0  0  0  0  0  0  0  0
   27.0319  -21.7099  -15.7709 C   0  0  2  0  0  0  0  0  0  0  0  0
   26.3482  -22.3116  -16.9316 N   0  0  0  0  0  0  0  0  0  0  0  0
   26.0779  -20.6462  -15.3020 C   0  0  0  0  0  0  0  0  0  0  0  0
   26.4171  -19.7235  -14.5385 O   0  0  0  0  0  0  0  0  0  0  0  0
   31.0807  -26.5142  -15.5370 O   0  0  0  0  0  0  0  0  0  0  0  0
   26.6916  -14.5668  -17.9576 C   0  0  0  0  0  0  0  0  0  0  0  0
   25.8683  -15.6419  -17.6232 C   0  0  0  0  0  0  0  0  0  0  0  0
   24.9641  -15.5741  -16.5966 C   0  0  0  0  0  0  0  0  0  0  0  0
   24.1519  -16.6582  -16.2790 C   0  0  0  0  0  0  0  0  0  0  0  0
   24.2447  -17.8292  -16.9987 C   0  0  0  0  0  0  0  0  0  0  0  0
   23.3941  -18.9712  -16.6598 C   0  0  2  0  0  0  0  0  0  0  0  0
   23.7821  -19.6941  -15.3937 N   0  0  0  0  0  0  0  0  0  0  0  0
   24.7423  -20.7245  -15.7674 C   0  0  0  0  0  0  0  0  0  0  0  0
   22.6083  -20.3632  -14.8003 O   0  0  0  0  0  0  0  0  0  0  0  0
   22.1301  -21.4368  -15.2741 C   0  0  0  0  0  0  0  0  0  0  0  0
   25.1602  -17.8775  -18.0277 C   0  0  0  0  0  0  0  0  0  0  0  0
   25.9712  -16.7964  -18.3456 O   0  0  0  0  0  0  0  0  0  0  0  0
   15.7263  -21.9253   -9.4419 C   0  0  0  0  0  0  0  0  0  0  0  0
   16.9065  -21.4449  -10.0022 C   0  0  0  0  0  0  0  0  0  0  0  0
   16.9280  -20.2419  -10.6489 C   0  0  0  0  0  0  0  0  0  0  0  0
   18.0669  -19.7315  -11.2145 C   0  0  0  0  0  0  0  0  0  0  0  0
   19.2600  -20.4517  -11.1383 C   0  0  0  0  0  0  0  0  0  0  0  0
   20.4749  -19.9178  -11.7463 C   0  0  1  0  0  0  0  0  0  0  0  0
   20.7322  -20.4668  -13.1070 N   0  0  0  0  0  0  0  0  0  0  0  0
   21.9468  -19.8400  -13.6608 C   0  0  0  0  0  0  0  0  0  0  0  0
   19.6168  -20.3765  -14.0533 O   0  0  0  0  0  0  0  0  0  0  0  0
   18.8591  -21.3799  -14.2760 C   0  0  0  0  0  0  0  0  0  0  0  0
   19.2630  -21.6696  -10.4902 C   0  0  0  0  0  0  0  0  0  0  0  0
   18.0951  -22.1444   -9.9359 O   0  0  0  0  0  0  0  0  0  0  0  0
  2  1  1  0
  2  3  2  0
  4  5  1  0
  4  2  1  0
  5  6  1  0
  6  7  1  0
  7  8  1  0
  8 10  1  0
  8  9  1  6
 10 19  1  0
 11 10  2  0
 13 12  1  0
 13 14  2  0
 15 14  1  0
 16 15  2  0
 17 16  1  0
 18 17  1  1
 18 20  1  0
 19 18  1  0
 20 21  2  0
 20 31  1  0
 22 23  2  0
 22 16  1  0
 23 13  1  0
 25 24  1  0
 25 35  2  0
 26 25  1  0
 27 26  2  0
 27 28  1  0
 28 34  2  0
 29 28  1  0
 30 29  1  1
 30 32  1  0
 31 30  1  0
 32 36  1  0
 33 32  2  0
 34 35  1  0
M  END
$$$$
