RYY.pdb
     RDKit          3D

 36 37  0  0  1  0  0  0  0  0999 V2000
   18.6532  -24.0629  -16.4670 N   0  0  0  0  0  0  0  0  0  0  0  0
   19.4069  -23.8838  -17.6515 C   0  0  0  0  0  0  0  0  0  0  0  0
   19.5620  -22.7087  -18.1857 N   0  0  0  0  0  0  0  0  0  0  0  0
   20.0124  -24.9944  -18.2837 N   0  0  0  0  0  0  0  0  0  0  0  0
   19.7221  -26.3555  -17.8067 C   0  0  0  0  0  0  0  0  0  0  0  0
   20.9734  -26.8986  -17.2110 C   0  0  0  0  0  0  0  0  0  0  0  0
   21.2426  -26.3723  -15.8453 C   0  0  0  0  0  0  0  0  0  0  0  0
   21.3996  -27.4525  -14.8320 C   0  0  2  0  0  0  0  0  0  0  0  0
   21.5043  -28.7953  -15.4340 N   0  0  0  0  0  0  0  0  0  0  0  0
   20.1857  -27.5466  -13.9494 C   0  0  0  0  0  0  0  0  0  0  0  0
   19.2819  -28.3832  -14.1305 O   0  0  0  0  0  0  0  0  0  0  0  0
   20.0265  -22.5290  -19.0842 O   0  0  0  0  0  0  0  0  0  0  0  0
   21.7819  -31.3395   -8.5148 C   0  0  0  0  0  0  0  0  0  0  0  0
   21.2070  -30.1686   -9.0086 C   0  0  0  0  0  0  0  0  0  0  0  0
   19.9043  -29.8327   -8.7507 C   0  0  0  0  0  0  0  0  0  0  0  0
   19.3498  -28.6598   -9.2530 C   0  0  0  0  0  0  0  0  0  0  0  0
   20.1089  -27.8085  -10.0255 C   0  0  0  0  0  0  0  0  0  0  0  0
   19.5227  -26.5777  -10.5585 C   0  0  2  0  0  0  0  0  0  0  0  0
   18.9659  -26.6967  -11.9556 N   0  0  0  0  0  0  0  0  0  0  0  0
   20.0961  -26.6301  -12.8729 C   0  0  0  0  0  0  0  0  0  0  0  0
   18.0730  -25.5605  -12.2545 O   0  0  0  0  0  0  0  0  0  0  0  0
   18.5154  -24.3987  -12.5003 C   0  0  0  0  0  0  0  0  0  0  0  0
   21.4172  -28.1639  -10.2734 C   0  0  0  0  0  0  0  0  0  0  0  0
   21.9718  -29.3341   -9.7728 O   0  0  0  0  0  0  0  0  0  0  0  0
   16.6334  -25.0117  -18.8096 C   0  0  0  0  0  0  0  0  0  0  0  0
   16.1648  -25.0143  -17.4989 C   0  0  0  0  0  0  0  0  0  0  0  0
   15.5709  -23.9027  -16.9723 C   0  0  0  0  0  0  0  0  0  0  0  0
   15.0957  -23.8617  -15.6878 C   0  0  0  0  0  0  0  0  0  0  0  0
   15.2130  -24.9869  -14.8703 C   0  0  0  0  0  0  0  0  0  0  0  0
   14.7168  -24.9470  -13.4981 C   0  0  2  0  0  0  0  0  0  0  0  0
   15.7649  -24.5588  -12.5133 N   0  0  0  0  0  0  0  0  0  0  0  0
   16.6631  -25.7057  -12.2840 C   0  0  0  0  0  0  0  0  0  0  0  0
   15.2771  -24.0122  -11.2440 O   0  0  0  0  0  0  0  0  0  0  0  0
   15.6716  -24.4885  -10.1268 C   0  0  0  0  0  0  0  0  0  0  0  0
   15.8095  -26.1216  -15.3801 C   0  0  0  0  0  0  0  0  0  0  0  0
   16.2729  -26.1185  -16.6770 O   0  0  0  0  0  0  0  0  0  0  0  0
  2  1  1  0
  2  3  2  0
  4  5  1  0
  4  2  1  0
  5  6  1  0
  6  7  1  0
  7  8  1  0
  8 10  1  0
  8  9  1  6
 10 19  1  0
 11 10  2  0
 13 12  1  0
 13 14  2  0
 15 14  1  0
 16 15  2  0
 17 16  1  0
 18 17  1  1
 18 20  1  0
 19 18  1  0
 20 21  2  0
 20 31  1  0
 22 23  2  0
 22 16  1  0
 23 13  1  0
 25 24  1  0
 25 35  2  0
 26 25  1  0
 27 26  2  0
 27 28  1  0
 28 34  2  0
 29 28  1  0
 30 29  1  6
 30 32  1  0
 31 30  1  0
 32 36  1  0
 33 32  2  0
 34 35  1  0
M  END
$$$$
