RYY.pdb
     RDKit          3D

 36 37  0  0  1  0  0  0  0  0999 V2000
   26.3370  -20.1403  -24.1873 N   0  0  0  0  0  0  0  0  0  0  0  0
   26.8825  -18.9277  -23.7022 C   0  0  0  0  0  0  0  0  0  0  0  0
   26.9544  -17.8683  -24.4524 N   0  0  0  0  0  0  0  0  0  0  0  0
   27.3658  -18.8459  -22.3759 N   0  0  0  0  0  0  0  0  0  0  0  0
   27.0754  -19.9289  -21.4234 C   0  0  0  0  0  0  0  0  0  0  0  0
   25.6333  -20.2715  -21.5595 C   0  0  0  0  0  0  0  0  0  0  0  0
   25.0380  -20.7902  -20.2981 C   0  0  0  0  0  0  0  0  0  0  0  0
   25.9590  -20.6692  -19.1338 C   0  0  2  0  0  0  0  0  0  0  0  0
   27.0978  -21.6046  -19.2014 N   0  0  0  0  0  0  0  0  0  0  0  0
   25.2632  -21.0401  -17.8532 C   0  0  0  0  0  0  0  0  0  0  0  0
   24.1612  -21.6182  -17.8260 O   0  0  0  0  0  0  0  0  0  0  0  0
   27.3804  -16.9771  -24.1702 O   0  0  0  0  0  0  0  0  0  0  0  0
   24.3293  -21.4100   -9.0224 C   0  0  0  0  0  0  0  0  0  0  0  0
   24.7978  -21.2041  -10.3199 C   0  0  0  0  0  0  0  0  0  0  0  0
   24.5419  -20.0496  -11.0112 C   0  0  0  0  0  0  0  0  0  0  0  0
   25.0184  -19.8639  -12.3051 C   0  0  0  0  0  0  0  0  0  0  0  0
   25.7627  -20.8477  -12.9184 C   0  0  0  0  0  0  0  0  0  0  0  0
   26.2584  -20.6538  -14.2819 C   0  0  1  0  0  0  0  0  0  0  0  0
   25.2551  -20.9553  -15.3676 N   0  0  0  0  0  0  0  0  0  0  0  0
   25.9162  -20.7044  -16.6417 C   0  0  0  0  0  0  0  0  0  0  0  0
   24.0990  -20.0433  -15.2705 O   0  0  0  0  0  0  0  0  0  0  0  0
   24.1775  -18.8162  -15.5771 C   0  0  0  0  0  0  0  0  0  0  0  0
   26.0094  -22.0015  -12.2064 C   0  0  0  0  0  0  0  0  0  0  0  0
   25.5345  -22.1880  -10.9152 O   0  0  0  0  0  0  0  0  0  0  0  0
   18.0105  -23.2827  -18.1620 C   0  0  0  0  0  0  0  0  0  0  0  0
   18.7846  -22.2719  -17.5992 C   0  0  0  0  0  0  0  0  0  0  0  0
   18.2666  -21.4586  -16.6317 C   0  0  0  0  0  0  0  0  0  0  0  0
   18.9927  -20.4520  -16.0512 C   0  0  0  0  0  0  0  0  0  0  0  0
   20.3125  -20.2328  -16.4489 C   0  0  0  0  0  0  0  0  0  0  0  0
   21.0887  -19.1565  -15.8407 C   0  0  1  0  0  0  0  0  0  0  0  0
   21.7232  -19.5548  -14.5531 N   0  0  0  0  0  0  0  0  0  0  0  0
   22.8292  -20.4911  -14.8269 C   0  0  0  0  0  0  0  0  0  0  0  0
   20.8176  -20.0955  -13.5355 O   0  0  0  0  0  0  0  0  0  0  0  0
   19.8353  -19.4082  -13.0959 C   0  0  0  0  0  0  0  0  0  0  0  0
   20.8576  -21.0414  -17.4247 C   0  0  0  0  0  0  0  0  0  0  0  0
   20.0913  -22.0415  -17.9811 O   0  0  0  0  0  0  0  0  0  0  0  0
  2  1  1  0
  2  3  2  0
  4  5  1  0
  4  2  1  0
  5  6  1  0
  6  7  1  0
  7  8  1  0
  8 10  1  0
  8  9  1  6
 10 19  1  0
 11 10  2  0
 13 12  1  0
 13 14  2  0
 15 14  1  0
 16 15  2  0
 17 16  1  0
 18 17  1  6
 18 20  1  0
 19 18  1  0
 20 21  2  0
 20 31  1  0
 22 23  2  0
 22 16  1  0
 23 13  1  0
 25 24  1  0
 25 35  2  0
 26 25  1  0
 27 26  2  0
 27 28  1  0
 28 34  2  0
 29 28  1  0
 30 29  1  6
 30 32  1  0
 31 30  1  0
 32 36  1  0
 33 32  2  0
 34 35  1  0
M  END
$$$$
