RYY.pdb
     RDKit          3D

 36 37  0  0  1  0  0  0  0  0999 V2000
   25.9917  -16.9567  -19.2926 N   0  0  0  0  0  0  0  0  0  0  0  0
   27.1268  -17.2661  -18.5058 C   0  0  0  0  0  0  0  0  0  0  0  0
   27.6549  -18.4541  -18.5147 N   0  0  0  0  0  0  0  0  0  0  0  0
   27.7142  -16.2759  -17.6848 N   0  0  0  0  0  0  0  0  0  0  0  0
   27.2030  -14.8968  -17.7225 C   0  0  0  0  0  0  0  0  0  0  0  0
   27.9932  -14.0986  -16.7457 C   0  0  0  0  0  0  0  0  0  0  0  0
   27.6982  -12.6416  -16.8126 C   0  0  0  0  0  0  0  0  0  0  0  0
   27.8986  -12.0750  -18.1755 C   0  0  2  0  0  0  0  0  0  0  0  0
   29.3161  -12.0442  -18.5829 N   0  0  0  0  0  0  0  0  0  0  0  0
   27.4766  -10.6326  -18.2288 C   0  0  0  0  0  0  0  0  0  0  0  0
   28.1832   -9.7054  -17.7924 O   0  0  0  0  0  0  0  0  0  0  0  0
   28.4328  -18.7552  -17.9151 O   0  0  0  0  0  0  0  0  0  0  0  0
   23.1872   -3.7124  -21.5964 C   0  0  0  0  0  0  0  0  0  0  0  0
   23.7344   -4.9619  -21.3051 C   0  0  0  0  0  0  0  0  0  0  0  0
   22.9577   -6.0815  -21.1646 C   0  0  0  0  0  0  0  0  0  0  0  0
   23.5233   -7.3188  -20.8737 C   0  0  0  0  0  0  0  0  0  0  0  0
   24.8871   -7.4398  -20.7206 C   0  0  0  0  0  0  0  0  0  0  0  0
   25.4805   -8.7409  -20.4087 C   0  0  1  0  0  0  0  0  0  0  0  0
   25.7752   -8.9665  -18.9463 N   0  0  0  0  0  0  0  0  0  0  0  0
   26.2152  -10.3487  -18.8075 C   0  0  0  0  0  0  0  0  0  0  0  0
   24.5505   -8.7984  -18.1405 O   0  0  0  0  0  0  0  0  0  0  0  0
   23.5579   -9.5791  -18.2471 C   0  0  0  0  0  0  0  0  0  0  0  0
   25.6511   -6.3021  -20.8660 C   0  0  0  0  0  0  0  0  0  0  0  0
   25.0879   -5.0667  -21.1563 O   0  0  0  0  0  0  0  0  0  0  0  0
   18.4680   -7.8611  -12.1388 C   0  0  0  0  0  0  0  0  0  0  0  0
   19.6478   -7.9321  -12.8740 C   0  0  0  0  0  0  0  0  0  0  0  0
   19.9220   -9.0283  -13.6414 C   0  0  0  0  0  0  0  0  0  0  0  0
   21.0704   -9.1398  -14.3805 C   0  0  0  0  0  0  0  0  0  0  0  0
   22.0079   -8.1060  -14.3625 C   0  0  0  0  0  0  0  0  0  0  0  0
   23.2375   -8.2223  -15.1407 C   0  0  2  0  0  0  0  0  0  0  0  0
   23.1608   -7.5242  -16.4544 N   0  0  0  0  0  0  0  0  0  0  0  0
   24.4150   -7.7493  -17.1968 C   0  0  0  0  0  0  0  0  0  0  0  0
   22.8315   -6.0971  -16.4007 O   0  0  0  0  0  0  0  0  0  0  0  0
   21.6175   -5.7011  -16.3943 C   0  0  0  0  0  0  0  0  0  0  0  0
   21.7532   -6.9886  -13.5946 C   0  0  0  0  0  0  0  0  0  0  0  0
   20.5856   -6.9188  -12.8673 O   0  0  0  0  0  0  0  0  0  0  0  0
  2  1  1  0
  2  3  2  0
  4  5  1  0
  4  2  1  0
  5  6  1  0
  6  7  1  0
  7  8  1  0
  8 10  1  0
  8  9  1  1
 10 19  1  0
 11 10  2  0
 13 12  1  0
 13 14  2  0
 15 14  1  0
 16 15  2  0
 17 16  1  0
 18 17  1  6
 18 20  1  0
 19 18  1  0
 20 21  2  0
 20 31  1  0
 22 23  2  0
 22 16  1  0
 23 13  1  0
 25 24  1  0
 25 35  2  0
 26 25  1  0
 27 26  2  0
 27 28  1  0
 28 34  2  0
 29 28  1  0
 30 29  1  6
 30 32  1  0
 31 30  1  0
 32 36  1  0
 33 32  2  0
 34 35  1  0
M  END
$$$$
