WCD.pdb
     RDKit          3D

 29 30  0  0  1  0  0  0  0  0999 V2000
   10.6313  -17.2519   19.2562 N   0  0  0  0  0  0  0  0  0  0  0  0
   11.2373  -15.9876   19.5898 C   0  0  1  0  0  0  0  0  0  0  0  0
   10.8901  -15.4462   20.9343 C   0  0  0  0  0  0  0  0  0  0  0  0
    9.4377  -15.0778   21.0154 C   0  0  0  0  0  0  0  0  0  0  0  0
    8.4505  -15.6304   21.7926 C   0  0  0  0  0  0  0  0  0  0  0  0
    7.2741  -14.9740   21.5741 N   0  0  0  0  0  0  0  0  0  0  0  0
    7.4979  -14.0099   20.6672 C   0  0  0  0  0  0  0  0  0  0  0  0
    6.6415  -13.0678   20.0875 C   0  0  0  0  0  0  0  0  0  0  0  0
    7.1088  -12.1892   19.1646 C   0  0  0  0  0  0  0  0  0  0  0  0
    8.4193  -12.2127   18.7899 C   0  0  0  0  0  0  0  0  0  0  0  0
    9.2762  -13.1477   19.3643 C   0  0  0  0  0  0  0  0  0  0  0  0
    8.8238  -14.0469   20.3016 C   0  0  0  0  0  0  0  0  0  0  0  0
   12.7077  -16.0727   19.3722 C   0  0  0  0  0  0  0  0  0  0  0  0
   13.2890  -17.1744   19.6238 O   0  0  0  0  0  0  0  0  0  0  0  0
   13.5283  -15.0318   18.9099 N   0  0  0  0  0  0  0  0  0  0  0  0
   14.9743  -15.1441   18.8992 C   0  0  1  0  0  0  0  0  0  0  0  0
   15.6747  -14.1445   18.0550 C   0  0  0  0  0  0  0  0  0  0  0  0
   14.9911  -14.0259   16.3837 S   0  0  0  0  0  0  0  0  0  0  0  0
   15.4487  -15.1710   20.3180 C   0  0  0  0  0  0  0  0  0  0  0  0
   14.7582  -14.6135   21.2033 O   0  0  0  0  0  0  0  0  0  0  0  0
   16.6455  -15.7966   20.7399 N   0  0  0  0  0  0  0  0  0  0  0  0
   17.0182  -15.8434   22.1650 C   0  0  1  0  0  0  0  0  0  0  0  0
   17.3521  -17.2826   22.4933 C   0  0  0  0  0  0  0  0  0  0  0  0
   17.8679  -17.5155   23.8225 C   0  0  0  0  0  0  0  0  0  0  0  0
   18.0790  -16.6037   24.6337 O   0  0  0  0  0  0  0  0  0  0  0  0
   18.2110  -14.9959   22.3713 C   0  0  0  0  0  0  0  0  0  0  0  0
   18.7160  -14.8533   23.5363 O   0  0  0  0  0  0  0  0  0  0  0  0
   18.1478  -18.8362   24.2243 O   0  0  0  0  0  0  0  0  0  0  0  0
   18.8459  -14.3187   21.3505 O   0  0  0  0  0  0  0  0  0  0  0  0
  2 13  1  0
  2  1  1  1
  3  2  1  0
  4 12  1  0
  4  3  1  0
  5  4  2  0
  6  5  1  0
  6  7  1  0
  7 12  2  0
  8  7  1  0
  8  9  2  0
  9 10  1  0
 10 11  2  0
 12 11  1  0
 13 14  2  0
 15 13  1  0
 15 16  1  0
 16 17  1  6
 18 17  1  0
 19 21  1  0
 19 16  1  0
 20 19  2  0
 22 23  1  6
 22 21  1  0
 23 24  1  0
 24 25  2  0
 24 28  1  0
 26 22  1  0
 26 29  1  0
 27 26  2  0
M  END
$$$$
