WCD.pdb
     RDKit          3D

 29 30  0  0  1  0  0  0  0  0999 V2000
    6.7443  -17.8730   24.5388 N   0  0  0  0  0  0  0  0  0  0  0  0
    7.3581  -16.7115   23.9462 C   0  0  1  0  0  0  0  0  0  0  0  0
    8.1538  -15.8625   24.8777 C   0  0  0  0  0  0  0  0  0  0  0  0
    7.2631  -15.0311   25.7535 C   0  0  0  0  0  0  0  0  0  0  0  0
    6.1382  -15.4080   26.4438 C   0  0  0  0  0  0  0  0  0  0  0  0
    5.6477  -14.3406   27.1383 N   0  0  0  0  0  0  0  0  0  0  0  0
    6.4450  -13.2872   26.8999 C   0  0  0  0  0  0  0  0  0  0  0  0
    6.3883  -11.9633   27.3483 C   0  0  0  0  0  0  0  0  0  0  0  0
    7.3200  -11.0609   26.9485 C   0  0  0  0  0  0  0  0  0  0  0  0
    8.3238  -11.4324   26.1043 C   0  0  0  0  0  0  0  0  0  0  0  0
    8.3855  -12.7490   25.6557 C   0  0  0  0  0  0  0  0  0  0  0  0
    7.4521  -13.6796   26.0486 C   0  0  0  0  0  0  0  0  0  0  0  0
    8.1358  -17.1231   22.7452 C   0  0  0  0  0  0  0  0  0  0  0  0
    8.2626  -18.3652   22.5088 O   0  0  0  0  0  0  0  0  0  0  0  0
    8.7562  -16.2535   21.8343 N   0  0  0  0  0  0  0  0  0  0  0  0
    9.3341  -16.7308   20.5927 C   0  0  1  0  0  0  0  0  0  0  0  0
    8.9017  -15.9976   19.3770 C   0  0  0  0  0  0  0  0  0  0  0  0
    7.5668  -14.8189   19.6986 S   0  0  0  0  0  0  0  0  0  0  0  0
   10.8195  -16.7884   20.7635 C   0  0  0  0  0  0  0  0  0  0  0  0
   11.5114  -15.7978   20.4295 O   0  0  0  0  0  0  0  0  0  0  0  0
   11.5124  -17.9044   21.2889 N   0  0  0  0  0  0  0  0  0  0  0  0
   12.9018  -17.7822   21.7653 C   0  0  1  0  0  0  0  0  0  0  0  0
   13.3298  -16.3490   21.5342 C   0  0  0  0  0  0  0  0  0  0  0  0
   14.7326  -16.0756   21.7446 C   0  0  0  0  0  0  0  0  0  0  0  0
   15.5905  -16.2357   20.8657 O   0  0  0  0  0  0  0  0  0  0  0  0
   12.9356  -18.0852   23.2112 C   0  0  0  0  0  0  0  0  0  0  0  0
   11.8917  -17.9370   23.9330 O   0  0  0  0  0  0  0  0  0  0  0  0
   15.1551  -15.6057   23.0035 O   0  0  0  0  0  0  0  0  0  0  0  0
   14.0635  -18.5368   23.8652 O   0  0  0  0  0  0  0  0  0  0  0  0
  2 13  1  0
  2  1  1  1
  3  2  1  0
  4 12  1  0
  4  3  1  0
  5  4  2  0
  6  5  1  0
  6  7  1  0
  7 12  2  0
  8  7  1  0
  8  9  2  0
  9 10  1  0
 10 11  2  0
 12 11  1  0
 13 14  2  0
 15 13  1  0
 15 16  1  0
 16 17  1  6
 18 17  1  0
 19 21  1  0
 19 16  1  0
 20 19  2  0
 22 23  1  1
 22 21  1  0
 23 24  1  0
 24 25  2  0
 24 28  1  0
 26 22  1  0
 26 29  1  0
 27 26  2  0
M  END
$$$$
