WCD.pdb
     RDKit          3D

 29 30  0  0  1  0  0  0  0  0999 V2000
    5.8486  -17.1868   25.2061 N   0  0  0  0  0  0  0  0  0  0  0  0
    7.0053  -16.3313   25.1210 C   0  0  1  0  0  0  0  0  0  0  0  0
    7.9998  -16.4883   26.2200 C   0  0  0  0  0  0  0  0  0  0  0  0
    8.0751  -15.2526   27.0679 C   0  0  0  0  0  0  0  0  0  0  0  0
    8.7563  -15.0538   28.2428 C   0  0  0  0  0  0  0  0  0  0  0  0
    8.5740  -13.7694   28.6665 N   0  0  0  0  0  0  0  0  0  0  0  0
    7.7849  -13.1461   27.7772 C   0  0  0  0  0  0  0  0  0  0  0  0
    7.2848  -11.8402   27.7392 C   0  0  0  0  0  0  0  0  0  0  0  0
    6.4780  -11.4416   26.7231 C   0  0  0  0  0  0  0  0  0  0  0  0
    6.1441  -12.3086   25.7255 C   0  0  0  0  0  0  0  0  0  0  0  0
    6.6397  -13.6092   25.7579 C   0  0  0  0  0  0  0  0  0  0  0  0
    7.4590  -14.0338   26.7778 C   0  0  0  0  0  0  0  0  0  0  0  0
    7.6206  -16.4665   23.7720 C   0  0  0  0  0  0  0  0  0  0  0  0
    8.0499  -17.6096   23.4198 O   0  0  0  0  0  0  0  0  0  0  0  0
    7.7772  -15.4317   22.8364 N   0  0  0  0  0  0  0  0  0  0  0  0
    8.5717  -15.6000   21.6348 C   0  0  1  0  0  0  0  0  0  0  0  0
    8.3258  -14.5917   20.5740 C   0  0  0  0  0  0  0  0  0  0  0  0
    6.6440  -14.6591   19.9095 S   0  0  0  0  0  0  0  0  0  0  0  0
   10.0082  -15.7091   22.0392 C   0  0  0  0  0  0  0  0  0  0  0  0
   10.3606  -15.2790   23.1627 O   0  0  0  0  0  0  0  0  0  0  0  0
   11.0174  -16.2777   21.2269 N   0  0  0  0  0  0  0  0  0  0  0  0
   12.4025  -16.4079   21.7134 C   0  0  1  0  0  0  0  0  0  0  0  0
   12.3776  -17.3678   22.8833 C   0  0  0  0  0  0  0  0  0  0  0  0
   13.6695  -17.8118   23.3531 C   0  0  0  0  0  0  0  0  0  0  0  0
   14.5377  -17.0355   23.7746 O   0  0  0  0  0  0  0  0  0  0  0  0
   13.2357  -16.9666   20.6284 C   0  0  0  0  0  0  0  0  0  0  0  0
   14.4858  -16.7092   20.5678 O   0  0  0  0  0  0  0  0  0  0  0  0
   13.9662  -19.1887   23.3346 O   0  0  0  0  0  0  0  0  0  0  0  0
   12.7378  -17.7823   19.6332 O   0  0  0  0  0  0  0  0  0  0  0  0
  2 13  1  0
  2  1  1  1
  3  2  1  0
  4 12  1  0
  4  3  1  0
  5  4  2  0
  6  5  1  0
  6  7  1  0
  7 12  2  0
  8  7  1  0
  8  9  2  0
  9 10  1  0
 10 11  2  0
 12 11  1  0
 13 14  2  0
 15 13  1  0
 15 16  1  0
 16 17  1  6
 18 17  1  0
 19 21  1  0
 19 16  1  0
 20 19  2  0
 22 23  1  1
 22 21  1  0
 23 24  1  0
 24 25  2  0
 24 28  1  0
 26 22  1  0
 26 29  1  0
 27 26  2  0
M  END
$$$$
