WCD.pdb
     RDKit          3D

 29 30  0  0  1  0  0  0  0  0999 V2000
    7.0548  -17.8877   24.6725 N   0  0  0  0  0  0  0  0  0  0  0  0
    7.9406  -16.8215   24.2781 C   0  0  1  0  0  0  0  0  0  0  0  0
    8.4161  -15.9422   25.3838 C   0  0  0  0  0  0  0  0  0  0  0  0
    7.3118  -15.0650   25.8962 C   0  0  0  0  0  0  0  0  0  0  0  0
    6.1482  -15.4251   26.5287 C   0  0  0  0  0  0  0  0  0  0  0  0
    5.4362  -14.3061   26.8503 N   0  0  0  0  0  0  0  0  0  0  0  0
    6.1305  -13.2364   26.4306 C   0  0  0  0  0  0  0  0  0  0  0  0
    5.8511  -11.8673   26.4976 C   0  0  0  0  0  0  0  0  0  0  0  0
    6.7194  -10.9618   25.9795 C   0  0  0  0  0  0  0  0  0  0  0  0
    7.8757  -11.3742   25.3869 C   0  0  0  0  0  0  0  0  0  0  0  0
    8.1591  -12.7356   25.3183 C   0  0  0  0  0  0  0  0  0  0  0  0
    7.2935  -13.6702   25.8372 C   0  0  0  0  0  0  0  0  0  0  0  0
    9.0612  -17.3828   23.4745 C   0  0  0  0  0  0  0  0  0  0  0  0
    9.4245  -18.5788   23.7043 O   0  0  0  0  0  0  0  0  0  0  0  0
    9.7694  -16.7032   22.4709 N   0  0  0  0  0  0  0  0  0  0  0  0
   10.8968  -17.3070   21.7869 C   0  0  1  0  0  0  0  0  0  0  0  0
   11.0900  -16.8634   20.3839 C   0  0  0  0  0  0  0  0  0  0  0  0
   12.4991  -17.6618   19.5767 S   0  0  0  0  0  0  0  0  0  0  0  0
   12.1095  -17.1311   22.6455 C   0  0  0  0  0  0  0  0  0  0  0  0
   12.3421  -16.0077   23.1508 O   0  0  0  0  0  0  0  0  0  0  0  0
   13.0301  -18.1655   22.9353 N   0  0  0  0  0  0  0  0  0  0  0  0
   14.2055  -17.9208   23.7902 C   0  0  1  0  0  0  0  0  0  0  0  0
   14.6997  -19.2691   24.2683 C   0  0  0  0  0  0  0  0  0  0  0  0
   13.8763  -19.9185   25.2619 C   0  0  0  0  0  0  0  0  0  0  0  0
   13.0280  -19.3160   25.9339 O   0  0  0  0  0  0  0  0  0  0  0  0
   15.2529  -17.2652   22.9799 C   0  0  0  0  0  0  0  0  0  0  0  0
   15.1687  -17.2364   21.7052 O   0  0  0  0  0  0  0  0  0  0  0  0
   14.0381  -21.2998   25.4856 O   0  0  0  0  0  0  0  0  0  0  0  0
   16.3634  -16.6550   23.5261 O   0  0  0  0  0  0  0  0  0  0  0  0
  2 13  1  0
  2  1  1  1
  3  2  1  0
  4 12  1  0
  4  3  1  0
  5  4  2  0
  6  5  1  0
  6  7  1  0
  7 12  2  0
  8  7  1  0
  8  9  2  0
  9 10  1  0
 10 11  2  0
 12 11  1  0
 13 14  2  0
 15 13  1  0
 15 16  1  0
 16 17  1  6
 18 17  1  0
 19 21  1  0
 19 16  1  0
 20 19  2  0
 22 23  1  6
 22 21  1  0
 23 24  1  0
 24 25  2  0
 24 28  1  0
 26 22  1  0
 26 29  1  0
 27 26  2  0
M  END
$$$$
