WCD.pdb
     RDKit          3D

 29 30  0  0  1  0  0  0  0  0999 V2000
    6.8608  -17.6385   24.1263 N   0  0  0  0  0  0  0  0  0  0  0  0
    7.8228  -16.6238   23.7771 C   0  0  1  0  0  0  0  0  0  0  0  0
    8.3631  -15.8337   24.9197 C   0  0  0  0  0  0  0  0  0  0  0  0
    7.2929  -14.9995   25.5603 C   0  0  0  0  0  0  0  0  0  0  0  0
    6.1114  -15.4030   26.1306 C   0  0  0  0  0  0  0  0  0  0  0  0
    5.4443  -14.3174   26.6195 N   0  0  0  0  0  0  0  0  0  0  0  0
    6.1848  -13.2262   26.3681 C   0  0  0  0  0  0  0  0  0  0  0  0
    5.9619  -11.8729   26.6434 C   0  0  0  0  0  0  0  0  0  0  0  0
    6.8700  -10.9360   26.2696 C   0  0  0  0  0  0  0  0  0  0  0  0
    8.0120  -11.3011   25.6207 C   0  0  0  0  0  0  0  0  0  0  0  0
    8.2392  -12.6467   25.3449 C   0  0  0  0  0  0  0  0  0  0  0  0
    7.3326  -13.6125   25.7150 C   0  0  0  0  0  0  0  0  0  0  0  0
    8.8980  -17.2291   22.9440 C   0  0  0  0  0  0  0  0  0  0  0  0
    9.4305  -18.3112   23.3447 O   0  0  0  0  0  0  0  0  0  0  0  0
    9.3903  -16.7071   21.7374 N   0  0  0  0  0  0  0  0  0  0  0  0
   10.6057  -17.2092   21.1255 C   0  0  1  0  0  0  0  0  0  0  0  0
   10.6007  -17.2241   19.6415 C   0  0  0  0  0  0  0  0  0  0  0  0
    9.5116  -15.9693   18.9247 S   0  0  0  0  0  0  0  0  0  0  0  0
   11.7635  -16.4674   21.7155 C   0  0  0  0  0  0  0  0  0  0  0  0
   11.7347  -15.2145   21.7453 O   0  0  0  0  0  0  0  0  0  0  0  0
   12.9114  -17.0936   22.2556 N   0  0  0  0  0  0  0  0  0  0  0  0
   13.9838  -16.3034   22.8862 C   0  0  1  0  0  0  0  0  0  0  0  0
   13.9628  -16.6208   24.3659 C   0  0  0  0  0  0  0  0  0  0  0  0
   13.9343  -18.0255   24.7019 C   0  0  0  0  0  0  0  0  0  0  0  0
   13.7706  -18.9179   23.8587 O   0  0  0  0  0  0  0  0  0  0  0  0
   15.2794  -16.7149   22.3068 C   0  0  0  0  0  0  0  0  0  0  0  0
   16.3701  -16.1797   22.7028 O   0  0  0  0  0  0  0  0  0  0  0  0
   14.0983  -18.4089   26.0474 O   0  0  0  0  0  0  0  0  0  0  0  0
   15.4000  -17.6782   21.3265 O   0  0  0  0  0  0  0  0  0  0  0  0
  2 13  1  0
  2  1  1  1
  3  2  1  0
  4 12  1  0
  4  3  1  0
  5  4  2  0
  6  5  1  0
  6  7  1  0
  7 12  2  0
  8  7  1  0
  8  9  2  0
  9 10  1  0
 10 11  2  0
 12 11  1  0
 13 14  2  0
 15 13  1  0
 15 16  1  0
 16 17  1  6
 18 17  1  0
 19 21  1  0
 19 16  1  0
 20 19  2  0
 22 23  1  1
 22 21  1  0
 23 24  1  0
 24 25  2  0
 24 28  1  0
 26 22  1  0
 26 29  1  0
 27 26  2  0
M  END
$$$$
