WCD.pdb
     RDKit          3D

 29 30  0  0  1  0  0  0  0  0999 V2000
    7.3712  -17.4984   23.7512 N   0  0  0  0  0  0  0  0  0  0  0  0
    8.4437  -16.5361   23.7718 C   0  0  1  0  0  0  0  0  0  0  0  0
    8.7251  -15.9193   25.0993 C   0  0  0  0  0  0  0  0  0  0  0  0
    7.5122  -15.2257   25.6464 C   0  0  0  0  0  0  0  0  0  0  0  0
    6.3046  -15.7639   26.0152 C   0  0  0  0  0  0  0  0  0  0  0  0
    5.4884  -14.7773   26.4873 N   0  0  0  0  0  0  0  0  0  0  0  0
    6.1595  -13.6164   26.4242 C   0  0  0  0  0  0  0  0  0  0  0  0
    5.7872  -12.3124   26.7675 C   0  0  0  0  0  0  0  0  0  0  0  0
    6.6533  -11.2817   26.5952 C   0  0  0  0  0  0  0  0  0  0  0  0
    7.8980  -11.5032   26.0853 C   0  0  0  0  0  0  0  0  0  0  0  0
    8.2740  -12.7993   25.7428 C   0  0  0  0  0  0  0  0  0  0  0  0
    7.4123  -13.8582   25.9095 C   0  0  0  0  0  0  0  0  0  0  0  0
    9.6577  -17.1370   23.1539 C   0  0  0  0  0  0  0  0  0  0  0  0
    9.7916  -18.4000   23.1988 O   0  0  0  0  0  0  0  0  0  0  0  0
   10.6887  -16.4279   22.5176 N   0  0  0  0  0  0  0  0  0  0  0  0
   11.8226  -17.1021   21.9148 C   0  0  1  0  0  0  0  0  0  0  0  0
   12.0760  -16.7550   20.4943 C   0  0  0  0  0  0  0  0  0  0  0  0
   12.1274  -14.9702   20.2001 S   0  0  0  0  0  0  0  0  0  0  0  0
   13.0092  -16.9006   22.8039 C   0  0  0  0  0  0  0  0  0  0  0  0
   13.1461  -15.8068   23.4009 O   0  0  0  0  0  0  0  0  0  0  0  0
   14.0069  -17.8789   23.0248 N   0  0  0  0  0  0  0  0  0  0  0  0
   15.1375  -17.6210   23.9344 C   0  0  1  0  0  0  0  0  0  0  0  0
   15.6809  -18.9660   24.3657 C   0  0  0  0  0  0  0  0  0  0  0  0
   14.8807  -19.6808   25.3329 C   0  0  0  0  0  0  0  0  0  0  0  0
   14.9972  -20.8966   25.5387 O   0  0  0  0  0  0  0  0  0  0  0  0
   16.1792  -16.8763   23.1967 C   0  0  0  0  0  0  0  0  0  0  0  0
   16.1249  -16.7664   21.9248 O   0  0  0  0  0  0  0  0  0  0  0  0
   13.9201  -18.9725   26.0811 O   0  0  0  0  0  0  0  0  0  0  0  0
   17.2524  -16.2642   23.8109 O   0  0  0  0  0  0  0  0  0  0  0  0
  2 13  1  0
  2  1  1  1
  3  2  1  0
  4 12  1  0
  4  3  1  0
  5  4  2  0
  6  5  1  0
  6  7  1  0
  7 12  2  0
  8  7  1  0
  8  9  2  0
  9 10  1  0
 10 11  2  0
 12 11  1  0
 13 14  2  0
 15 13  1  0
 15 16  1  0
 16 17  1  6
 18 17  1  0
 19 21  1  0
 19 16  1  0
 20 19  2  0
 22 23  1  6
 22 21  1  0
 23 24  1  0
 24 25  2  0
 24 28  1  0
 26 22  1  0
 26 29  1  0
 27 26  2  0
M  END
$$$$
