WCD.pdb
     RDKit          3D

 29 30  0  0  1  0  0  0  0  0999 V2000
    5.7363  -18.0124   24.8920 N   0  0  0  0  0  0  0  0  0  0  0  0
    6.5866  -16.8624   25.0697 C   0  0  1  0  0  0  0  0  0  0  0  0
    7.1113  -16.6616   26.4503 C   0  0  0  0  0  0  0  0  0  0  0  0
    7.9062  -15.3930   26.5523 C   0  0  0  0  0  0  0  0  0  0  0  0
    9.2686  -15.2262   26.5386 C   0  0  0  0  0  0  0  0  0  0  0  0
    9.5685  -13.8980   26.6293 N   0  0  0  0  0  0  0  0  0  0  0  0
    8.4149  -13.2150   26.7010 C   0  0  0  0  0  0  0  0  0  0  0  0
    8.1561  -11.8452   26.8174 C   0  0  0  0  0  0  0  0  0  0  0  0
    6.8795  -11.3897   26.8878 C   0  0  0  0  0  0  0  0  0  0  0  0
    5.8319  -12.2610   26.8459 C   0  0  0  0  0  0  0  0  0  0  0  0
    6.0838  -13.6253   26.7293 C   0  0  0  0  0  0  0  0  0  0  0  0
    7.3695  -14.1083   26.6560 C   0  0  0  0  0  0  0  0  0  0  0  0
    7.6682  -16.8858   24.0468 C   0  0  0  0  0  0  0  0  0  0  0  0
    8.3565  -17.9471   23.9251 O   0  0  0  0  0  0  0  0  0  0  0  0
    8.0079  -15.8266   23.1906 N   0  0  0  0  0  0  0  0  0  0  0  0
    8.9844  -15.9830   22.1296 C   0  0  1  0  0  0  0  0  0  0  0  0
    8.7846  -15.0949   20.9575 C   0  0  0  0  0  0  0  0  0  0  0  0
    7.1795  -14.2593   20.9680 S   0  0  0  0  0  0  0  0  0  0  0  0
   10.3488  -15.8814   22.7353 C   0  0  0  0  0  0  0  0  0  0  0  0
   10.5957  -14.9439   23.5301 O   0  0  0  0  0  0  0  0  0  0  0  0
   11.4011  -16.7892   22.4706 N   0  0  0  0  0  0  0  0  0  0  0  0
   12.7218  -16.6292   23.1050 C   0  0  1  0  0  0  0  0  0  0  0  0
   13.2348  -18.0163   23.4265 C   0  0  0  0  0  0  0  0  0  0  0  0
   13.4021  -18.3091   24.8312 C   0  0  0  0  0  0  0  0  0  0  0  0
   13.2428  -17.4621   25.7208 O   0  0  0  0  0  0  0  0  0  0  0  0
   13.6324  -15.9715   22.1449 C   0  0  0  0  0  0  0  0  0  0  0  0
   13.3334  -15.9033   20.9044 O   0  0  0  0  0  0  0  0  0  0  0  0
   13.7636  -19.6145   25.2180 O   0  0  0  0  0  0  0  0  0  0  0  0
   14.8346  -15.4006   22.5089 O   0  0  0  0  0  0  0  0  0  0  0  0
  2 13  1  0
  2  1  1  1
  3  2  1  0
  4 12  1  0
  4  3  1  0
  5  4  2  0
  6  5  1  0
  6  7  1  0
  7 12  2  0
  8  7  1  0
  8  9  2  0
  9 10  1  0
 10 11  2  0
 12 11  1  0
 13 14  2  0
 15 13  1  0
 15 16  1  0
 16 17  1  6
 18 17  1  0
 19 21  1  0
 19 16  1  0
 20 19  2  0
 22 23  1  6
 22 21  1  0
 23 24  1  0
 24 25  2  0
 24 28  1  0
 26 22  1  0
 26 29  1  0
 27 26  2  0
M  END
$$$$
