WCD.pdb
     RDKit          3D

 29 30  0  0  1  0  0  0  0  0999 V2000
    7.1208  -18.3190   24.9020 N   0  0  0  0  0  0  0  0  0  0  0  0
    7.7531  -17.0563   24.6145 C   0  0  1  0  0  0  0  0  0  0  0  0
    8.1157  -16.2361   25.8050 C   0  0  0  0  0  0  0  0  0  0  0  0
    7.0564  -15.2176   26.1087 C   0  0  0  0  0  0  0  0  0  0  0  0
    5.7374  -15.4163   26.4323 C   0  0  0  0  0  0  0  0  0  0  0  0
    5.1344  -14.2128   26.6567 N   0  0  0  0  0  0  0  0  0  0  0  0
    6.0516  -13.2485   26.4801 C   0  0  0  0  0  0  0  0  0  0  0  0
    5.9600  -11.8557   26.5731 C   0  0  0  0  0  0  0  0  0  0  0  0
    7.0446  -11.0770   26.3297 C   0  0  0  0  0  0  0  0  0  0  0  0
    8.2384  -11.6416   25.9913 C   0  0  0  0  0  0  0  0  0  0  0  0
    8.3354  -13.0274   25.8982 C   0  0  0  0  0  0  0  0  0  0  0  0
    7.2491  -13.8352   26.1409 C   0  0  0  0  0  0  0  0  0  0  0  0
    8.9090  -17.2797   23.7030 C   0  0  0  0  0  0  0  0  0  0  0  0
    9.5989  -18.3358   23.8562 O   0  0  0  0  0  0  0  0  0  0  0  0
    9.3183  -16.4172   22.6738 N   0  0  0  0  0  0  0  0  0  0  0  0
   10.5089  -16.6756   21.8868 C   0  0  1  0  0  0  0  0  0  0  0  0
   10.6808  -15.7974   20.7028 C   0  0  0  0  0  0  0  0  0  0  0  0
   12.1702  -16.1792   19.7486 S   0  0  0  0  0  0  0  0  0  0  0  0
   11.6856  -16.6760   22.8110 C   0  0  0  0  0  0  0  0  0  0  0  0
   11.8701  -15.6918   23.5651 O   0  0  0  0  0  0  0  0  0  0  0  0
   12.6229  -17.7322   22.8973 N   0  0  0  0  0  0  0  0  0  0  0  0
   13.7997  -17.6352   23.7793 C   0  0  1  0  0  0  0  0  0  0  0  0
   14.0489  -19.0160   24.3466 C   0  0  0  0  0  0  0  0  0  0  0  0
   13.2181  -19.3887   25.4680 C   0  0  0  0  0  0  0  0  0  0  0  0
   12.4498  -18.5971   26.0312 O   0  0  0  0  0  0  0  0  0  0  0  0
   14.9630  -17.2106   22.9730 C   0  0  0  0  0  0  0  0  0  0  0  0
   14.8877  -17.1555   21.6986 O   0  0  0  0  0  0  0  0  0  0  0  0
   13.2772  -20.7103   25.9518 O   0  0  0  0  0  0  0  0  0  0  0  0
   16.1770  -16.8534   23.5227 O   0  0  0  0  0  0  0  0  0  0  0  0
  2 13  1  0
  2  1  1  1
  3  2  1  0
  4 12  1  0
  4  3  1  0
  5  4  2  0
  6  5  1  0
  6  7  1  0
  7 12  2  0
  8  7  1  0
  8  9  2  0
  9 10  1  0
 10 11  2  0
 12 11  1  0
 13 14  2  0
 15 13  1  0
 15 16  1  0
 16 17  1  6
 18 17  1  0
 19 21  1  0
 19 16  1  0
 20 19  2  0
 22 23  1  6
 22 21  1  0
 23 24  1  0
 24 25  2  0
 24 28  1  0
 26 22  1  0
 26 29  1  0
 27 26  2  0
M  END
$$$$
