WCD.pdb
     RDKit          3D

 29 30  0  0  1  0  0  0  0  0999 V2000
    6.3560  -17.5531   24.3025 N   0  0  0  0  0  0  0  0  0  0  0  0
    7.0933  -16.3623   23.9626 C   0  0  1  0  0  0  0  0  0  0  0  0
    8.0010  -15.8460   25.0261 C   0  0  0  0  0  0  0  0  0  0  0  0
    7.2533  -15.0095   26.0225 C   0  0  0  0  0  0  0  0  0  0  0  0
    6.4024  -15.4134   27.0209 C   0  0  0  0  0  0  0  0  0  0  0  0
    5.9595  -14.3243   27.7139 N   0  0  0  0  0  0  0  0  0  0  0  0
    6.5165  -13.2306   27.1702 C   0  0  0  0  0  0  0  0  0  0  0  0
    6.3913  -11.8736   27.4865 C   0  0  0  0  0  0  0  0  0  0  0  0
    7.0573  -10.9351   26.7669 C   0  0  0  0  0  0  0  0  0  0  0  0
    7.8575  -11.3020   25.7260 C   0  0  0  0  0  0  0  0  0  0  0  0
    7.9863  -12.6512   25.4075 C   0  0  0  0  0  0  0  0  0  0  0  0
    7.3209  -13.6187   26.1236 C   0  0  0  0  0  0  0  0  0  0  0  0
    7.7949  -16.5697   22.6659 C   0  0  0  0  0  0  0  0  0  0  0  0
    8.3877  -17.6774   22.4746 O   0  0  0  0  0  0  0  0  0  0  0  0
    7.8675  -15.6399   21.6167 N   0  0  0  0  0  0  0  0  0  0  0  0
    8.6707  -15.8821   20.4336 C   0  0  1  0  0  0  0  0  0  0  0  0
    8.4375  -14.9372   19.3131 C   0  0  0  0  0  0  0  0  0  0  0  0
    6.7421  -14.9913   18.6829 S   0  0  0  0  0  0  0  0  0  0  0  0
   10.1035  -15.9727   20.8553 C   0  0  0  0  0  0  0  0  0  0  0  0
   10.4869  -15.3257   21.8582 O   0  0  0  0  0  0  0  0  0  0  0  0
   11.0758  -16.7555   20.1894 N   0  0  0  0  0  0  0  0  0  0  0  0
   12.4582  -16.8421   20.6929 C   0  0  1  0  0  0  0  0  0  0  0  0
   12.3865  -17.3717   22.1089 C   0  0  0  0  0  0  0  0  0  0  0  0
   13.6585  -17.6064   22.7520 C   0  0  0  0  0  0  0  0  0  0  0  0
   14.7447  -17.3668   22.2070 O   0  0  0  0  0  0  0  0  0  0  0  0
   13.2133  -17.7880   19.8451 C   0  0  0  0  0  0  0  0  0  0  0  0
   14.4571  -17.9971   20.0497 O   0  0  0  0  0  0  0  0  0  0  0  0
   13.6760  -18.1326   24.0586 O   0  0  0  0  0  0  0  0  0  0  0  0
   12.6455  -18.4922   18.8033 O   0  0  0  0  0  0  0  0  0  0  0  0
  2 13  1  0
  2  1  1  1
  3  2  1  0
  4 12  1  0
  4  3  1  0
  5  4  2  0
  6  5  1  0
  6  7  1  0
  7 12  2  0
  8  7  1  0
  8  9  2  0
  9 10  1  0
 10 11  2  0
 12 11  1  0
 13 14  2  0
 15 13  1  0
 15 16  1  0
 16 17  1  6
 18 17  1  0
 19 21  1  0
 19 16  1  0
 20 19  2  0
 22 23  1  1
 22 21  1  0
 23 24  1  0
 24 25  2  0
 24 28  1  0
 26 22  1  0
 26 29  1  0
 27 26  2  0
M  END
$$$$
