WCD.pdb
     RDKit          3D

 29 30  0  0  1  0  0  0  0  0999 V2000
    8.1496  -20.4009   15.8213 N   0  0  0  0  0  0  0  0  0  0  0  0
    9.5065  -20.7112   15.4477 C   0  0  1  0  0  0  0  0  0  0  0  0
    9.8735  -20.3848   14.0404 C   0  0  0  0  0  0  0  0  0  0  0  0
    9.0333  -21.1556   13.0650 C   0  0  0  0  0  0  0  0  0  0  0  0
    7.7248  -20.9509   12.7045 C   0  0  0  0  0  0  0  0  0  0  0  0
    7.3600  -21.8687   11.7628 N   0  0  0  0  0  0  0  0  0  0  0  0
    8.4188  -22.6568   11.5178 C   0  0  0  0  0  0  0  0  0  0  0  0
    8.5807  -23.7488   10.6587 C   0  0  0  0  0  0  0  0  0  0  0  0
    9.7667  -24.4058   10.5968 C   0  0  0  0  0  0  0  0  0  0  0  0
   10.8166  -24.0103   11.3712 C   0  0  0  0  0  0  0  0  0  0  0  0
   10.6613  -22.9235   12.2274 C   0  0  0  0  0  0  0  0  0  0  0  0
    9.4684  -22.2433   12.3055 C   0  0  0  0  0  0  0  0  0  0  0  0
   10.4411  -20.1050   16.4355 C   0  0  0  0  0  0  0  0  0  0  0  0
   10.4009  -18.8463   16.6059 O   0  0  0  0  0  0  0  0  0  0  0  0
   11.3816  -20.8042   17.2083 N   0  0  0  0  0  0  0  0  0  0  0  0
   12.2284  -20.1327   18.1756 C   0  0  1  0  0  0  0  0  0  0  0  0
   11.6444  -19.9974   19.5333 C   0  0  0  0  0  0  0  0  0  0  0  0
   11.1050  -21.5769   20.2324 S   0  0  0  0  0  0  0  0  0  0  0  0
   13.5684  -20.7983   18.1612 C   0  0  0  0  0  0  0  0  0  0  0  0
   13.6566  -21.9848   17.7662 O   0  0  0  0  0  0  0  0  0  0  0  0
   14.7684  -20.1689   18.5679 N   0  0  0  0  0  0  0  0  0  0  0  0
   16.0576  -20.8810   18.5133 C   0  0  1  0  0  0  0  0  0  0  0  0
   17.0418  -19.9716   17.8099 C   0  0  0  0  0  0  0  0  0  0  0  0
   17.1556  -20.1610   16.3823 C   0  0  0  0  0  0  0  0  0  0  0  0
   16.3754  -20.8692   15.7313 O   0  0  0  0  0  0  0  0  0  0  0  0
   16.5163  -21.1381   19.8943 C   0  0  0  0  0  0  0  0  0  0  0  0
   16.0313  -20.4791   20.8757 O   0  0  0  0  0  0  0  0  0  0  0  0
   18.1986  -19.5162   15.6891 O   0  0  0  0  0  0  0  0  0  0  0  0
   17.4722  -22.0807   20.2128 O   0  0  0  0  0  0  0  0  0  0  0  0
  2 13  1  0
  2  1  1  1
  3  2  1  0
  4 12  1  0
  4  3  1  0
  5  4  2  0
  6  5  1  0
  6  7  1  0
  7 12  2  0
  8  7  1  0
  8  9  2  0
  9 10  1  0
 10 11  2  0
 12 11  1  0
 13 14  2  0
 15 13  1  0
 15 16  1  0
 16 17  1  1
 18 17  1  0
 19 21  1  0
 19 16  1  0
 20 19  2  0
 22 23  1  1
 22 21  1  0
 23 24  1  0
 24 25  2  0
 24 28  1  0
 26 22  1  0
 26 29  1  0
 27 26  2  0
M  END
$$$$
