IVK.pdb
     RDKit          3D

 25 24  0  0  1  0  0  0  0  0999 V2000
   22.5064  -19.7210  -16.3225 C   0  0  0  0  0  0  0  0  0  0  0  0
   23.7569  -19.8077  -15.4535 C   0  0  0  0  0  0  0  0  0  0  0  0
   23.4695  -20.4578  -14.1389 C   0  0  2  0  0  0  0  0  0  0  0  0
   22.3374  -19.7705  -13.3962 C   0  0  0  0  0  0  0  0  0  0  0  0
   24.6516  -20.4865  -13.2054 C   0  0  2  0  0  0  0  0  0  0  0  0
   25.7537  -21.0836  -13.9324 N   0  0  0  0  0  0  0  0  0  0  0  0
   24.3864  -21.1275  -11.9266 C   0  0  0  0  0  0  0  0  0  0  0  0
   24.0864  -22.3311  -11.8446 O   0  0  0  0  0  0  0  0  0  0  0  0
   26.5759  -20.5853   -8.4262 C   0  0  0  0  0  0  0  0  0  0  0  0
   25.0670  -20.5112   -8.2515 C   0  0  1  0  0  0  0  0  0  0  0  0
   24.6223  -19.1486   -7.7757 C   0  0  0  0  0  0  0  0  0  0  0  0
   24.3124  -21.0460   -9.3962 C   0  0  2  0  0  0  0  0  0  0  0  0
   24.4408  -20.4600  -10.6616 N   0  0  0  0  0  0  0  0  0  0  0  0
   22.8576  -21.0703   -9.0111 C   0  0  0  0  0  0  0  0  0  0  0  0
   22.0794  -20.1411   -9.3627 O   0  0  0  0  0  0  0  0  0  0  0  0
   22.3100  -22.1210   -8.2500 N   0  0  0  0  0  0  0  0  0  0  0  0
   20.8347  -22.0919   -7.8568 C   0  0  1  0  0  0  0  0  0  0  0  0
   20.3740  -23.4413   -8.2880 C   0  0  0  0  0  0  0  0  0  0  0  0
   19.0288  -23.8664   -7.9598 C   0  0  0  0  0  0  0  0  0  0  0  0
   18.5153  -25.1550   -8.4369 C   0  0  0  0  0  0  0  0  0  0  0  0
   17.0372  -25.3293   -7.9626 C   0  0  0  0  0  0  0  0  0  0  0  0
   16.6030  -26.5692   -8.5916 N   0  0  0  0  0  0  0  0  0  0  0  0
   20.9519  -22.0032   -6.3828 C   0  0  0  0  0  0  0  0  0  0  0  0
   20.1159  -21.4990   -5.6302 O   0  0  0  0  0  0  0  0  0  0  0  0
   22.0916  -22.5236   -5.7386 O   0  0  0  0  0  0  0  0  0  0  0  0
  1  2  1  0
  2  3  1  0
  3  5  1  0
  3  4  1  1
  5  7  1  0
  5  6  1  6
  7  8  2  0
 10 11  1  6
 10  9  1  0
 10 12  1  0
 12 14  1  0
 12 13  1  6
 13  7  1  0
 14 15  2  0
 16 14  1  0
 16 17  1  0
 17 23  1  0
 17 18  1  1
 19 18  1  0
 20 21  1  0
 20 19  1  0
 21 22  1  0
 23 24  2  0
 23 25  1  0
M  END
$$$$
