IVK.pdb
     RDKit          3D

 25 24  0  0  1  0  0  0  0  0999 V2000
   21.7375  -19.2050  -20.7346 C   0  0  0  0  0  0  0  0  0  0  0  0
   22.5774  -18.4802  -19.6878 C   0  0  0  0  0  0  0  0  0  0  0  0
   22.9695  -19.3911  -18.5699 C   0  0  2  0  0  0  0  0  0  0  0  0
   21.7632  -20.0104  -17.8867 C   0  0  0  0  0  0  0  0  0  0  0  0
   23.7829  -18.7172  -17.4957 C   0  0  2  0  0  0  0  0  0  0  0  0
   24.8078  -17.9398  -18.1626 N   0  0  0  0  0  0  0  0  0  0  0  0
   24.3086  -19.6250  -16.4877 C   0  0  0  0  0  0  0  0  0  0  0  0
   23.6346  -20.5668  -16.0359 O   0  0  0  0  0  0  0  0  0  0  0  0
   28.4432  -20.6517  -15.7475 C   0  0  0  0  0  0  0  0  0  0  0  0
   27.5726  -20.2672  -14.5613 C   0  0  1  0  0  0  0  0  0  0  0  0
   28.0702  -19.0139  -13.8814 C   0  0  0  0  0  0  0  0  0  0  0  0
   26.1309  -20.2831  -14.8564 C   0  0  2  0  0  0  0  0  0  0  0  0
   25.6211  -19.5338  -15.9239 N   0  0  0  0  0  0  0  0  0  0  0  0
   25.4039  -19.9000  -13.5954 C   0  0  0  0  0  0  0  0  0  0  0  0
   25.0758  -18.7013  -13.3763 O   0  0  0  0  0  0  0  0  0  0  0  0
   25.0629  -20.8543  -12.6178 N   0  0  0  0  0  0  0  0  0  0  0  0
   24.3515  -20.4180  -11.3388 C   0  0  1  0  0  0  0  0  0  0  0  0
   23.0260  -21.0828  -11.4810 C   0  0  0  0  0  0  0  0  0  0  0  0
   21.8208  -20.3058  -11.2766 C   0  0  0  0  0  0  0  0  0  0  0  0
   20.5007  -20.9402  -11.3562 C   0  0  0  0  0  0  0  0  0  0  0  0
   19.3935  -19.8437  -11.2455 C   0  0  0  0  0  0  0  0  0  0  0  0
   18.1449  -20.5938  -11.2493 N   0  0  0  0  0  0  0  0  0  0  0  0
   25.1912  -21.0922  -10.3217 C   0  0  0  0  0  0  0  0  0  0  0  0
   25.9823  -22.0106  -10.5454 O   0  0  0  0  0  0  0  0  0  0  0  0
   25.1186  -20.6878   -8.9741 O   0  0  0  0  0  0  0  0  0  0  0  0
  1  2  1  0
  2  3  1  0
  3  5  1  0
  3  4  1  1
  5  7  1  0
  5  6  1  6
  7  8  2  0
 10 11  1  6
 10  9  1  0
 10 12  1  0
 12 14  1  0
 12 13  1  6
 13  7  1  0
 14 15  2  0
 16 14  1  0
 16 17  1  0
 17 23  1  0
 17 18  1  6
 19 18  1  0
 20 21  1  0
 20 19  1  0
 21 22  1  0
 23 24  2  0
 23 25  1  0
M  END
$$$$
