IVK.pdb
     RDKit          3D

 25 24  0  0  1  0  0  0  0  0999 V2000
   28.2121  -16.9387  -17.4623 C   0  0  0  0  0  0  0  0  0  0  0  0
   28.6959  -18.0615  -16.5502 C   0  0  0  0  0  0  0  0  0  0  0  0
   27.5561  -18.7448  -15.8666 C   0  0  2  0  0  0  0  0  0  0  0  0
   26.7020  -17.7745  -15.0700 C   0  0  0  0  0  0  0  0  0  0  0  0
   27.9835  -19.8334  -14.9169 C   0  0  2  0  0  0  0  0  0  0  0  0
   28.7906  -20.7676  -15.6755 N   0  0  0  0  0  0  0  0  0  0  0  0
   26.8858  -20.4650  -14.2007 C   0  0  0  0  0  0  0  0  0  0  0  0
   26.0097  -21.1225  -14.7884 O   0  0  0  0  0  0  0  0  0  0  0  0
   25.9797  -19.5246  -10.0225 C   0  0  0  0  0  0  0  0  0  0  0  0
   25.6730  -20.9087  -10.5727 C   0  0  1  0  0  0  0  0  0  0  0  0
   24.4727  -21.5288   -9.8977 C   0  0  0  0  0  0  0  0  0  0  0  0
   25.6596  -20.9708  -12.0430 C   0  0  2  0  0  0  0  0  0  0  0  0
   26.7020  -20.3989  -12.7827 N   0  0  0  0  0  0  0  0  0  0  0  0
   24.3506  -20.3939  -12.5111 C   0  0  0  0  0  0  0  0  0  0  0  0
   24.1638  -19.1460  -12.5319 O   0  0  0  0  0  0  0  0  0  0  0  0
   23.2906  -21.2150  -12.9413 N   0  0  0  0  0  0  0  0  0  0  0  0
   21.9730  -20.5887  -13.3929 C   0  0  1  0  0  0  0  0  0  0  0  0
   21.6628  -21.3743  -14.6200 C   0  0  0  0  0  0  0  0  0  0  0  0
   20.3716  -21.2106  -15.2555 C   0  0  0  0  0  0  0  0  0  0  0  0
   20.0307  -21.9729  -16.4615 C   0  0  0  0  0  0  0  0  0  0  0  0
   18.6147  -21.5421  -16.9614 C   0  0  0  0  0  0  0  0  0  0  0  0
   18.8624  -20.3411  -17.7473 N   0  0  0  0  0  0  0  0  0  0  0  0
   21.0931  -20.9729  -12.2649 C   0  0  0  0  0  0  0  0  0  0  0  0
   21.2592  -21.9500  -11.5320 O   0  0  0  0  0  0  0  0  0  0  0  0
   19.9614  -20.1905  -11.9620 O   0  0  0  0  0  0  0  0  0  0  0  0
  1  2  1  0
  2  3  1  0
  3  5  1  0
  3  4  1  1
  5  7  1  0
  5  6  1  6
  7  8  2  0
 10 11  1  6
 10  9  1  0
 10 12  1  0
 12 14  1  0
 12 13  1  6
 13  7  1  0
 14 15  2  0
 16 14  1  0
 16 17  1  0
 17 23  1  0
 17 18  1  6
 19 18  1  0
 20 21  1  0
 20 19  1  0
 21 22  1  0
 23 24  2  0
 23 25  1  0
M  END
$$$$
