IVK.pdb
     RDKit          3D

 25 24  0  0  1  0  0  0  0  0999 V2000
   23.1631  -18.1099  -15.1986 C   0  0  0  0  0  0  0  0  0  0  0  0
   23.0417  -19.6209  -15.3681 C   0  0  0  0  0  0  0  0  0  0  0  0
   22.9301  -20.3153  -14.0495 C   0  0  2  0  0  0  0  0  0  0  0  0
   21.7169  -19.8543  -13.2612 C   0  0  0  0  0  0  0  0  0  0  0  0
   24.1299  -20.1221  -13.1592 C   0  0  2  0  0  0  0  0  0  0  0  0
   25.3018  -20.4433  -13.9485 N   0  0  0  0  0  0  0  0  0  0  0  0
   24.0621  -20.8492  -11.9008 C   0  0  0  0  0  0  0  0  0  0  0  0
   23.8826  -22.0786  -11.8611 O   0  0  0  0  0  0  0  0  0  0  0  0
   26.6140  -20.5187   -8.7374 C   0  0  0  0  0  0  0  0  0  0  0  0
   25.1521  -20.4596   -8.3225 C   0  0  1  0  0  0  0  0  0  0  0  0
   24.8042  -19.1402   -7.6754 C   0  0  0  0  0  0  0  0  0  0  0  0
   24.2211  -20.9006   -9.3735 C   0  0  2  0  0  0  0  0  0  0  0  0
   24.1911  -20.2440  -10.6101 N   0  0  0  0  0  0  0  0  0  0  0  0
   22.8364  -20.9018   -8.7838 C   0  0  0  0  0  0  0  0  0  0  0  0
   22.0680  -19.9120   -8.9342 O   0  0  0  0  0  0  0  0  0  0  0  0
   22.3458  -21.9970   -8.0471 N   0  0  0  0  0  0  0  0  0  0  0  0
   20.9409  -21.9491   -7.4500 C   0  0  1  0  0  0  0  0  0  0  0  0
   20.3482  -23.2193   -7.9541 C   0  0  0  0  0  0  0  0  0  0  0  0
   18.9202  -23.4292   -7.8327 C   0  0  0  0  0  0  0  0  0  0  0  0
   18.3022  -24.6649   -8.3254 C   0  0  0  0  0  0  0  0  0  0  0  0
   16.7713  -24.6355   -8.0159 C   0  0  0  0  0  0  0  0  0  0  0  0
   16.2595  -25.8560   -8.6242 N   0  0  0  0  0  0  0  0  0  0  0  0
   21.2604  -22.0340   -6.0061 C   0  0  0  0  0  0  0  0  0  0  0  0
   22.3538  -22.3540   -5.5355 O   0  0  0  0  0  0  0  0  0  0  0  0
   20.2694  -21.7333   -5.0510 O   0  0  0  0  0  0  0  0  0  0  0  0
  1  2  1  0
  2  3  1  0
  3  5  1  0
  3  4  1  1
  5  7  1  0
  5  6  1  6
  7  8  2  0
 10 11  1  6
 10  9  1  0
 10 12  1  0
 12 14  1  0
 12 13  1  6
 13  7  1  0
 14 15  2  0
 16 14  1  0
 16 17  1  0
 17 23  1  0
 17 18  1  6
 19 18  1  0
 20 21  1  0
 20 19  1  0
 21 22  1  0
 23 24  2  0
 23 25  1  0
M  END
$$$$
