IVK.pdb
     RDKit          3D

 25 24  0  0  1  0  0  0  0  0999 V2000
   17.9763   -9.7708  -21.4991 C   0  0  0  0  0  0  0  0  0  0  0  0
   18.9379  -10.6285  -20.6830 C   0  0  0  0  0  0  0  0  0  0  0  0
   19.0194  -10.1657  -19.2643 C   0  0  2  0  0  0  0  0  0  0  0  0
   19.4761   -8.7214  -19.1591 C   0  0  0  0  0  0  0  0  0  0  0  0
   19.9548  -10.9837  -18.4126 C   0  0  2  0  0  0  0  0  0  0  0  0
   19.5082  -12.3600  -18.4910 N   0  0  0  0  0  0  0  0  0  0  0  0
   20.0980  -10.4982  -17.0486 C   0  0  0  0  0  0  0  0  0  0  0  0
   19.1991  -10.6419  -16.2021 O   0  0  0  0  0  0  0  0  0  0  0  0
   23.8304  -10.0829  -15.0491 C   0  0  0  0  0  0  0  0  0  0  0  0
   22.4743   -9.9257  -14.3790 C   0  0  1  0  0  0  0  0  0  0  0  0
   22.5922   -9.2936  -13.0125 C   0  0  0  0  0  0  0  0  0  0  0  0
   21.4490   -9.3314  -15.2518 C   0  0  2  0  0  0  0  0  0  0  0  0
   21.2566   -9.8220  -16.5492 N   0  0  0  0  0  0  0  0  0  0  0  0
   21.7117   -7.8510  -15.3199 C   0  0  0  0  0  0  0  0  0  0  0  0
   22.6629   -7.3936  -16.0117 O   0  0  0  0  0  0  0  0  0  0  0  0
   20.9142   -6.9241  -14.6214 N   0  0  0  0  0  0  0  0  0  0  0  0
   21.2433   -5.4340  -14.6816 C   0  0  1  0  0  0  0  0  0  0  0  0
   19.8902   -4.8160  -14.6023 C   0  0  0  0  0  0  0  0  0  0  0  0
   19.1358   -4.6094  -15.8213 C   0  0  0  0  0  0  0  0  0  0  0  0
   17.7714   -4.0729  -15.7735 C   0  0  0  0  0  0  0  0  0  0  0  0
   17.2209   -3.9317  -17.2285 C   0  0  0  0  0  0  0  0  0  0  0  0
   17.1952   -5.2968  -17.7358 N   0  0  0  0  0  0  0  0  0  0  0  0
   21.9896   -5.2729  -13.4123 C   0  0  0  0  0  0  0  0  0  0  0  0
   21.8301   -5.9576  -12.3997 O   0  0  0  0  0  0  0  0  0  0  0  0
   22.9737   -4.2710  -13.3011 O   0  0  0  0  0  0  0  0  0  0  0  0
  1  2  1  0
  2  3  1  0
  3  5  1  0
  3  4  1  6
  5  7  1  0
  5  6  1  1
  7  8  2  0
 10 11  1  1
 10  9  1  0
 10 12  1  0
 12 14  1  0
 12 13  1  6
 13  7  1  0
 14 15  2  0
 16 14  1  0
 16 17  1  0
 17 23  1  0
 17 18  1  1
 19 18  1  0
 20 21  1  0
 20 19  1  0
 21 22  1  0
 23 24  2  0
 23 25  1  0
M  END
$$$$
