IVK.pdb
     RDKit          3D

 25 24  0  0  1  0  0  0  0  0999 V2000
   28.9912  -19.1429  -13.9865 C   0  0  0  0  0  0  0  0  0  0  0  0
   28.3774  -19.8017  -12.7552 C   0  0  0  0  0  0  0  0  0  0  0  0
   26.9534  -20.1891  -12.9908 C   0  0  2  0  0  0  0  0  0  0  0  0
   26.0969  -19.0022  -13.3947 C   0  0  0  0  0  0  0  0  0  0  0  0
   26.2909  -20.8198  -11.7937 C   0  0  2  0  0  0  0  0  0  0  0  0
   27.0842  -21.9759  -11.4280 N   0  0  0  0  0  0  0  0  0  0  0  0
   24.8803  -21.1217  -11.9829 C   0  0  0  0  0  0  0  0  0  0  0  0
   24.5005  -22.0701  -12.6911 O   0  0  0  0  0  0  0  0  0  0  0  0
   21.6590  -18.8716   -9.9184 C   0  0  0  0  0  0  0  0  0  0  0  0
   21.5222  -20.3054  -10.4064 C   0  0  1  0  0  0  0  0  0  0  0  0
   20.0791  -20.6850  -10.6388 C   0  0  0  0  0  0  0  0  0  0  0  0
   22.4387  -20.6454  -11.5065 C   0  0  2  0  0  0  0  0  0  0  0  0
   23.8088  -20.3801  -11.3906 N   0  0  0  0  0  0  0  0  0  0  0  0
   21.9147  -19.9885  -12.7551 C   0  0  0  0  0  0  0  0  0  0  0  0
   22.1506  -18.7720  -12.9943 O   0  0  0  0  0  0  0  0  0  0  0  0
   21.1471  -20.6975  -13.6990 N   0  0  0  0  0  0  0  0  0  0  0  0
   20.7157  -20.0198  -14.9979 C   0  0  1  0  0  0  0  0  0  0  0  0
   21.3713  -20.8765  -16.0251 C   0  0  0  0  0  0  0  0  0  0  0  0
   21.0606  -20.6647  -17.4239 C   0  0  0  0  0  0  0  0  0  0  0  0
   21.6548  -21.5180  -18.4586 C   0  0  0  0  0  0  0  0  0  0  0  0
   21.1797  -21.0312  -19.8648 C   0  0  0  0  0  0  0  0  0  0  0  0
   21.9114  -21.8732  -20.8014 N   0  0  0  0  0  0  0  0  0  0  0  0
   19.2537  -20.2525  -14.9489 C   0  0  0  0  0  0  0  0  0  0  0  0
   18.4195  -19.7015  -15.6701 O   0  0  0  0  0  0  0  0  0  0  0  0
   18.7214  -21.1695  -14.0213 O   0  0  0  0  0  0  0  0  0  0  0  0
  1  2  1  0
  2  3  1  0
  3  5  1  0
  3  4  1  1
  5  7  1  0
  5  6  1  6
  7  8  2  0
 10 11  1  6
 10  9  1  0
 10 12  1  0
 12 14  1  0
 12 13  1  1
 13  7  1  0
 14 15  2  0
 16 14  1  0
 16 17  1  0
 17 23  1  0
 17 18  1  6
 19 18  1  0
 20 21  1  0
 20 19  1  0
 21 22  1  0
 23 24  2  0
 23 25  1  0
M  END
$$$$
