IVK.pdb
     RDKit          3D

 25 24  0  0  1  0  0  0  0  0999 V2000
   29.9349  -20.6314  -17.9549 C   0  0  0  0  0  0  0  0  0  0  0  0
   29.0824  -19.7584  -17.0395 C   0  0  0  0  0  0  0  0  0  0  0  0
   28.2640  -20.5825  -16.0990 C   0  0  2  0  0  0  0  0  0  0  0  0
   27.4994  -21.6803  -16.8172 C   0  0  0  0  0  0  0  0  0  0  0  0
   27.2533  -19.7850  -15.3166 C   0  0  2  0  0  0  0  0  0  0  0  0
   27.9658  -18.6861  -14.6966 N   0  0  0  0  0  0  0  0  0  0  0  0
   26.4713  -20.5724  -14.3757 C   0  0  0  0  0  0  0  0  0  0  0  0
   25.8724  -21.6053  -14.7218 O   0  0  0  0  0  0  0  0  0  0  0  0
   24.4118  -21.2262   -9.8303 C   0  0  0  0  0  0  0  0  0  0  0  0
   25.5171  -20.5825  -10.6530 C   0  0  1  0  0  0  0  0  0  0  0  0
   26.8856  -20.8844  -10.0900 C   0  0  0  0  0  0  0  0  0  0  0  0
   25.3795  -20.8014  -12.1018 C   0  0  2  0  0  0  0  0  0  0  0  0
   26.3121  -20.2513  -12.9899 N   0  0  0  0  0  0  0  0  0  0  0  0
   23.9985  -20.3551  -12.5005 C   0  0  0  0  0  0  0  0  0  0  0  0
   23.6957  -19.1302  -12.5240 O   0  0  0  0  0  0  0  0  0  0  0  0
   22.9970  -21.2772  -12.8603 N   0  0  0  0  0  0  0  0  0  0  0  0
   21.6196  -20.7798  -13.2936 C   0  0  1  0  0  0  0  0  0  0  0  0
   21.2987  -21.7017  -14.4189 C   0  0  0  0  0  0  0  0  0  0  0  0
   19.9747  -21.6661  -15.0051 C   0  0  0  0  0  0  0  0  0  0  0  0
   19.4805  -20.4505  -15.6607 C   0  0  0  0  0  0  0  0  0  0  0  0
   18.0498  -20.7158  -16.2290 C   0  0  0  0  0  0  0  0  0  0  0  0
   17.6481  -19.4369  -16.7989 N   0  0  0  0  0  0  0  0  0  0  0  0
   20.8261  -21.1010  -12.0848 C   0  0  0  0  0  0  0  0  0  0  0  0
   20.9684  -22.1057  -11.3848 O   0  0  0  0  0  0  0  0  0  0  0  0
   19.8148  -20.2187  -11.6563 O   0  0  0  0  0  0  0  0  0  0  0  0
  1  2  1  0
  2  3  1  0
  3  5  1  0
  3  4  1  6
  5  7  1  0
  5  6  1  1
  7  8  2  0
 10 11  1  1
 10  9  1  0
 10 12  1  0
 12 14  1  0
 12 13  1  6
 13  7  1  0
 14 15  2  0
 16 14  1  0
 16 17  1  0
 17 23  1  0
 17 18  1  6
 19 18  1  0
 20 21  1  0
 20 19  1  0
 21 22  1  0
 23 24  2  0
 23 25  1  0
M  END
$$$$
