IVK.pdb
     RDKit          3D

 25 24  0  0  1  0  0  0  0  0999 V2000
   19.9429  -21.5461  -16.9716 C   0  0  0  0  0  0  0  0  0  0  0  0
   21.3521  -21.3287  -16.4301 C   0  0  0  0  0  0  0  0  0  0  0  0
   21.6086  -19.8881  -16.1261 C   0  0  2  0  0  0  0  0  0  0  0  0
   21.4316  -19.0052  -17.3487 C   0  0  0  0  0  0  0  0  0  0  0  0
   22.9897  -19.6187  -15.5879 C   0  0  2  0  0  0  0  0  0  0  0  0
   23.1724  -20.4779  -14.4354 N   0  0  0  0  0  0  0  0  0  0  0  0
   23.2595  -18.2158  -15.3130 C   0  0  0  0  0  0  0  0  0  0  0  0
   22.6809  -17.6020  -14.3998 O   0  0  0  0  0  0  0  0  0  0  0  0
   26.5117  -16.2005  -14.3553 C   0  0  0  0  0  0  0  0  0  0  0  0
   25.8819  -15.6335  -15.6180 C   0  0  1  0  0  0  0  0  0  0  0  0
   26.7858  -15.7920  -16.8173 C   0  0  0  0  0  0  0  0  0  0  0  0
   24.4900  -16.0628  -15.8284 C   0  0  2  0  0  0  0  0  0  0  0  0
   24.1936  -17.4144  -16.0438 N   0  0  0  0  0  0  0  0  0  0  0  0
   23.9295  -15.2495  -16.9641 C   0  0  0  0  0  0  0  0  0  0  0  0
   24.0334  -15.6467  -18.1575 O   0  0  0  0  0  0  0  0  0  0  0  0
   23.2722  -14.0239  -16.7439 N   0  0  0  0  0  0  0  0  0  0  0  0
   22.6577  -13.2642  -17.9176 C   0  0  1  0  0  0  0  0  0  0  0  0
   21.7292  -12.3268  -17.2260 C   0  0  0  0  0  0  0  0  0  0  0  0
   21.0119  -11.3395  -18.0062 C   0  0  0  0  0  0  0  0  0  0  0  0
   20.2115  -10.3030  -17.3455 C   0  0  0  0  0  0  0  0  0  0  0  0
   19.5030   -9.4288  -18.4290 C   0  0  0  0  0  0  0  0  0  0  0  0
   18.8148   -8.3981  -17.6637 N   0  0  0  0  0  0  0  0  0  0  0  0
   23.8532  -12.5604  -18.4367 C   0  0  0  0  0  0  0  0  0  0  0  0
   24.8061  -12.1763  -17.7556 O   0  0  0  0  0  0  0  0  0  0  0  0
   23.9600  -12.2842  -19.8141 O   0  0  0  0  0  0  0  0  0  0  0  0
  1  2  1  0
  2  3  1  0
  3  5  1  0
  3  4  1  6
  5  7  1  0
  5  6  1  1
  7  8  2  0
 10 11  1  6
 10  9  1  0
 10 12  1  0
 12 14  1  0
 12 13  1  6
 13  7  1  0
 14 15  2  0
 16 14  1  0
 16 17  1  0
 17 23  1  0
 17 18  1  1
 19 18  1  0
 20 21  1  0
 20 19  1  0
 21 22  1  0
 23 24  2  0
 23 25  1  0
M  END
$$$$
