TEA.pdb
     RDKit          3D

 22 21  0  0  1  0  0  0  0  0999 V2000
    9.1826  -12.3803   19.1566 C   0  0  0  0  0  0  0  0  0  0  0  0
    8.1109  -13.1075   18.3572 C   0  0  1  0  0  0  0  0  0  0  0  0
    7.4156  -12.1590   17.6415 O   0  0  0  0  0  0  0  0  0  0  0  0
    8.8237  -14.1102   17.4811 C   0  0  2  0  0  0  0  0  0  0  0  0
    7.8649  -14.7174   16.6067 N   0  0  0  0  0  0  0  0  0  0  0  0
    9.5412  -15.1424   18.2466 C   0  0  0  0  0  0  0  0  0  0  0  0
    8.9147  -16.1772   18.6631 O   0  0  0  0  0  0  0  0  0  0  0  0
   10.9147  -15.0831   18.5716 N   0  0  0  0  0  0  0  0  0  0  0  0
   11.6050  -16.1353   19.3484 C   0  0  1  0  0  0  0  0  0  0  0  0
   13.0216  -16.0919   18.8333 C   0  0  0  0  0  0  0  0  0  0  0  0
   13.2510  -16.8033   17.5362 C   0  0  0  0  0  0  0  0  0  0  0  0
   14.6943  -16.6355   17.1679 C   0  0  0  0  0  0  0  0  0  0  0  0
   15.5865  -17.0844   17.8970 O   0  0  0  0  0  0  0  0  0  0  0  0
   11.5623  -15.8101   20.7797 C   0  0  0  0  0  0  0  0  0  0  0  0
   12.1000  -14.7113   21.1849 O   0  0  0  0  0  0  0  0  0  0  0  0
   15.0671  -15.9692   15.9947 O   0  0  0  0  0  0  0  0  0  0  0  0
    9.5403  -16.2624   23.7745 C   0  0  0  0  0  0  0  0  0  0  0  0
   10.9336  -16.1056   23.1994 C   0  0  2  0  0  0  0  0  0  0  0  0
   10.9769  -16.5762   21.8147 N   0  0  0  0  0  0  0  0  0  0  0  0
   11.9059  -16.8655   24.0010 C   0  0  0  0  0  0  0  0  0  0  0  0
   12.0972  -16.4892   25.1963 O   0  0  0  0  0  0  0  0  0  0  0  0
   12.6111  -17.9466   23.5384 O   0  0  0  0  0  0  0  0  0  0  0  0
  2  4  1  0
  2  1  1  6
  2  3  1  0
  4  5  1  6
  6  4  1  0
  6  7  2  0
  8  6  1  0
  9  8  1  0
  9 10  1  6
 11 10  1  0
 12 16  1  0
 12 11  1  0
 13 12  2  0
 14  9  1  0
 15 14  2  0
 18 17  1  1
 18 19  1  0
 18 20  1  0
 19 14  1  0
 20 22  1  0
 21 20  2  0
M  END
$$$$
