TEA.pdb
     RDKit          3D

 22 21  0  0  1  0  0  0  0  0999 V2000
   -2.6147  -25.3316   27.1808 C   0  0  0  0  0  0  0  0  0  0  0  0
   -1.9663  -24.0898   26.5857 C   0  0  1  0  0  0  0  0  0  0  0  0
   -0.6705  -24.4186   26.2568 O   0  0  0  0  0  0  0  0  0  0  0  0
   -2.8005  -23.6906   25.3916 C   0  0  2  0  0  0  0  0  0  0  0  0
   -2.1297  -22.6317   24.6980 N   0  0  0  0  0  0  0  0  0  0  0  0
   -4.1674  -23.2794   25.7507 C   0  0  0  0  0  0  0  0  0  0  0  0
   -4.4327  -22.0412   25.9335 O   0  0  0  0  0  0  0  0  0  0  0  0
   -5.2505  -24.1711   25.9162 N   0  0  0  0  0  0  0  0  0  0  0  0
   -6.5982  -23.7323   26.3382 C   0  0  1  0  0  0  0  0  0  0  0  0
   -7.5113  -24.8026   25.7954 C   0  0  0  0  0  0  0  0  0  0  0  0
   -8.9597  -24.6391   26.1370 C   0  0  0  0  0  0  0  0  0  0  0  0
   -9.7091  -25.7841   25.5253 C   0  0  0  0  0  0  0  0  0  0  0  0
   -9.4079  -26.9519   25.7989 O   0  0  0  0  0  0  0  0  0  0  0  0
   -6.6717  -23.6806   27.8038 C   0  0  0  0  0  0  0  0  0  0  0  0
   -6.1319  -24.6298   28.4882 O   0  0  0  0  0  0  0  0  0  0  0  0
  -10.7643  -25.5616   24.6328 O   0  0  0  0  0  0  0  0  0  0  0  0
   -7.0107  -21.2845   30.5932 C   0  0  0  0  0  0  0  0  0  0  0  0
   -7.1995  -22.6892   30.0568 C   0  0  2  0  0  0  0  0  0  0  0  0
   -7.2784  -22.6779   28.5959 N   0  0  0  0  0  0  0  0  0  0  0  0
   -8.4285  -23.2846   30.6048 C   0  0  0  0  0  0  0  0  0  0  0  0
   -9.4290  -23.3723   29.8314 O   0  0  0  0  0  0  0  0  0  0  0  0
   -8.5565  -23.7468   31.8894 O   0  0  0  0  0  0  0  0  0  0  0  0
  2  4  1  0
  2  1  1  6
  2  3  1  0
  4  5  1  1
  6  4  1  0
  6  7  2  0
  8  6  1  0
  9  8  1  0
  9 10  1  1
 11 10  1  0
 12 16  1  0
 12 11  1  0
 13 12  2  0
 14  9  1  0
 15 14  2  0
 18 17  1  1
 18 19  1  0
 18 20  1  0
 19 14  1  0
 20 22  1  0
 21 20  2  0
M  END
$$$$
