TEA.pdb
     RDKit          3D

 22 21  0  0  1  0  0  0  0  0999 V2000
    8.5908  -12.3881   19.7557 C   0  0  0  0  0  0  0  0  0  0  0  0
    7.7188  -13.2688   18.8722 C   0  0  1  0  0  0  0  0  0  0  0  0
    6.6849  -12.4891   18.4050 O   0  0  0  0  0  0  0  0  0  0  0  0
    8.6071  -13.8009   17.7727 C   0  0  2  0  0  0  0  0  0  0  0  0
    7.7879  -14.4674   16.8047 N   0  0  0  0  0  0  0  0  0  0  0  0
    9.6570  -14.7082   18.2635 C   0  0  0  0  0  0  0  0  0  0  0  0
    9.3771  -15.9320   18.5099 O   0  0  0  0  0  0  0  0  0  0  0  0
   10.9973  -14.3258   18.4936 N   0  0  0  0  0  0  0  0  0  0  0  0
   12.0287  -15.2626   18.9890 C   0  0  1  0  0  0  0  0  0  0  0  0
   13.3138  -14.7171   18.4188 C   0  0  0  0  0  0  0  0  0  0  0  0
   14.5624  -15.3811   18.9101 C   0  0  0  0  0  0  0  0  0  0  0  0
   15.7331  -14.6520   18.3232 C   0  0  0  0  0  0  0  0  0  0  0  0
   15.9775  -14.7237   17.1131 O   0  0  0  0  0  0  0  0  0  0  0  0
   12.0610  -15.2409   20.4570 C   0  0  0  0  0  0  0  0  0  0  0  0
   12.3538  -14.1386   21.0571 O   0  0  0  0  0  0  0  0  0  0  0  0
   16.5758  -13.8747   19.1264 O   0  0  0  0  0  0  0  0  0  0  0  0
   10.7211  -16.9491   23.4449 C   0  0  0  0  0  0  0  0  0  0  0  0
   11.8374  -16.1612   22.7894 C   0  0  2  0  0  0  0  0  0  0  0  0
   11.7948  -16.3172   21.3353 N   0  0  0  0  0  0  0  0  0  0  0  0
   13.1450  -16.6158   23.2883 C   0  0  0  0  0  0  0  0  0  0  0  0
   13.3657  -16.5042   24.5315 O   0  0  0  0  0  0  0  0  0  0  0  0
   14.1306  -17.1485   22.4976 O   0  0  0  0  0  0  0  0  0  0  0  0
  2  4  1  0
  2  1  1  1
  2  3  1  0
  4  5  1  6
  6  4  1  0
  6  7  2  0
  8  6  1  0
  9  8  1  0
  9 10  1  6
 11 10  1  0
 12 16  1  0
 12 11  1  0
 13 12  2  0
 14  9  1  0
 15 14  2  0
 18 17  1  1
 18 19  1  0
 18 20  1  0
 19 14  1  0
 20 22  1  0
 21 20  2  0
M  END
$$$$
