TEA.pdb
     RDKit          3D

 22 21  0  0  1  0  0  0  0  0999 V2000
    8.6157  -12.5060   20.3788 C   0  0  0  0  0  0  0  0  0  0  0  0
    7.8565  -13.4030   19.4117 C   0  0  1  0  0  0  0  0  0  0  0  0
    8.1944  -13.0126   18.1354 O   0  0  0  0  0  0  0  0  0  0  0  0
    8.2593  -14.8244   19.7257 C   0  0  2  0  0  0  0  0  0  0  0  0
    7.6351  -15.6974   18.7767 N   0  0  0  0  0  0  0  0  0  0  0  0
    7.9176  -15.2343   21.0974 C   0  0  0  0  0  0  0  0  0  0  0  0
    6.6922  -15.3996   21.4261 O   0  0  0  0  0  0  0  0  0  0  0  0
    8.8650  -15.4688   22.1186 N   0  0  0  0  0  0  0  0  0  0  0  0
    8.4875  -15.8670   23.4919 C   0  0  1  0  0  0  0  0  0  0  0  0
    9.5631  -16.8456   23.8911 C   0  0  0  0  0  0  0  0  0  0  0  0
    9.4701  -17.3586   25.2945 C   0  0  0  0  0  0  0  0  0  0  0  0
   10.6431  -18.2606   25.5338 C   0  0  0  0  0  0  0  0  0  0  0  0
   10.8092  -19.2738   24.8445 O   0  0  0  0  0  0  0  0  0  0  0  0
    8.4991  -14.6934   24.3744 C   0  0  0  0  0  0  0  0  0  0  0  0
    9.5887  -14.0158   24.4950 O   0  0  0  0  0  0  0  0  0  0  0  0
   11.5760  -17.9803   26.5390 O   0  0  0  0  0  0  0  0  0  0  0  0
    6.2266  -12.3462   26.2296 C   0  0  0  0  0  0  0  0  0  0  0  0
    7.5678  -13.0140   26.0022 C   0  0  2  0  0  0  0  0  0  0  0  0
    7.4218  -14.1847   25.1368 N   0  0  0  0  0  0  0  0  0  0  0  0
    8.1560  -13.4293   27.2855 C   0  0  0  0  0  0  0  0  0  0  0  0
    8.4810  -12.5150   28.1011 O   0  0  0  0  0  0  0  0  0  0  0  0
    8.3718  -14.7335   27.6501 O   0  0  0  0  0  0  0  0  0  0  0  0
  2  4  1  0
  2  1  1  1
  2  3  1  0
  4  5  1  6
  6  4  1  0
  6  7  2  0
  8  6  1  0
  9  8  1  0
  9 10  1  1
 11 10  1  0
 12 16  1  0
 12 11  1  0
 13 12  2  0
 14  9  1  0
 15 14  2  0
 18 17  1  1
 18 19  1  0
 18 20  1  0
 19 14  1  0
 20 22  1  0
 21 20  2  0
M  END
$$$$
