TEA.pdb
     RDKit          3D

 22 21  0  0  1  0  0  0  0  0999 V2000
    7.9546  -12.1492   18.9949 C   0  0  0  0  0  0  0  0  0  0  0  0
    8.4597  -13.1584   20.0161 C   0  0  1  0  0  0  0  0  0  0  0  0
    7.5696  -13.1630   21.0664 O   0  0  0  0  0  0  0  0  0  0  0  0
    8.5514  -14.4890   19.3075 C   0  0  2  0  0  0  0  0  0  0  0  0
    7.2564  -14.8248   18.7950 N   0  0  0  0  0  0  0  0  0  0  0  0
    9.0552  -15.5710   20.1687 C   0  0  0  0  0  0  0  0  0  0  0  0
    8.2337  -16.2833   20.8430 O   0  0  0  0  0  0  0  0  0  0  0  0
   10.4208  -15.9004   20.3182 N   0  0  0  0  0  0  0  0  0  0  0  0
   10.9042  -16.9165   21.2777 C   0  0  1  0  0  0  0  0  0  0  0  0
   12.3484  -17.1165   20.8928 C   0  0  0  0  0  0  0  0  0  0  0  0
   13.0807  -18.1573   21.6812 C   0  0  0  0  0  0  0  0  0  0  0  0
   14.0103  -18.8726   20.7479 C   0  0  0  0  0  0  0  0  0  0  0  0
   13.8177  -20.0581   20.4533 O   0  0  0  0  0  0  0  0  0  0  0  0
   10.7983  -16.4009   22.6486 C   0  0  0  0  0  0  0  0  0  0  0  0
   11.5586  -15.4240   23.0068 O   0  0  0  0  0  0  0  0  0  0  0  0
   15.1150  -18.2198   20.1887 O   0  0  0  0  0  0  0  0  0  0  0  0
    8.5202  -15.7635   25.3519 C   0  0  0  0  0  0  0  0  0  0  0  0
    9.9129  -16.2465   25.0001 C   0  0  2  0  0  0  0  0  0  0  0  0
    9.9284  -16.8525   23.6684 N   0  0  0  0  0  0  0  0  0  0  0  0
   10.3763  -17.2336   25.9881 C   0  0  0  0  0  0  0  0  0  0  0  0
   10.4795  -16.8498   27.1918 O   0  0  0  0  0  0  0  0  0  0  0  0
   10.7001  -18.5321   25.6891 O   0  0  0  0  0  0  0  0  0  0  0  0
  2  4  1  0
  2  1  1  6
  2  3  1  0
  4  5  1  1
  6  4  1  0
  6  7  2  0
  8  6  1  0
  9  8  1  0
  9 10  1  6
 11 10  1  0
 12 16  1  0
 12 11  1  0
 13 12  2  0
 14  9  1  0
 15 14  2  0
 18 17  1  1
 18 19  1  0
 18 20  1  0
 19 14  1  0
 20 22  1  0
 21 20  2  0
M  END
$$$$
