TEA.pdb
     RDKit          3D

 22 21  0  0  1  0  0  0  0  0999 V2000
    8.9778  -12.6306   19.7597 C   0  0  0  0  0  0  0  0  0  0  0  0
    8.0368  -13.2450   18.7333 C   0  0  1  0  0  0  0  0  0  0  0  0
    7.9062  -12.3429   17.7016 O   0  0  0  0  0  0  0  0  0  0  0  0
    8.6534  -14.5552   18.3040 C   0  0  2  0  0  0  0  0  0  0  0  0
    7.7981  -15.1665   17.3308 N   0  0  0  0  0  0  0  0  0  0  0  0
    8.8920  -15.4786   19.4250 C   0  0  0  0  0  0  0  0  0  0  0  0
    7.9101  -16.1060   19.9534 O   0  0  0  0  0  0  0  0  0  0  0  0
   10.1617  -15.7394   19.9866 N   0  0  0  0  0  0  0  0  0  0  0  0
   10.3694  -16.6841   21.1051 C   0  0  1  0  0  0  0  0  0  0  0  0
   11.7877  -17.1601   20.9153 C   0  0  0  0  0  0  0  0  0  0  0  0
   12.3082  -18.0602   21.9923 C   0  0  0  0  0  0  0  0  0  0  0  0
   13.7444  -18.3613   21.6867 C   0  0  0  0  0  0  0  0  0  0  0  0
   14.0657  -19.4365   21.1672 O   0  0  0  0  0  0  0  0  0  0  0  0
   10.2239  -15.9823   22.3867 C   0  0  0  0  0  0  0  0  0  0  0  0
   10.9127  -14.9127   22.5926 O   0  0  0  0  0  0  0  0  0  0  0  0
   14.7539  -17.4371   21.9802 O   0  0  0  0  0  0  0  0  0  0  0  0
    8.0591  -14.8607   24.9023 C   0  0  0  0  0  0  0  0  0  0  0  0
    9.3759  -15.5892   24.7242 C   0  0  2  0  0  0  0  0  0  0  0  0
    9.3852  -16.3397   23.4682 N   0  0  0  0  0  0  0  0  0  0  0  0
    9.6033  -16.5153   25.8448 C   0  0  0  0  0  0  0  0  0  0  0  0
    9.5816  -17.7567   25.5890 O   0  0  0  0  0  0  0  0  0  0  0  0
    9.8356  -16.1213   27.1375 O   0  0  0  0  0  0  0  0  0  0  0  0
  2  4  1  0
  2  1  1  1
  2  3  1  0
  4  5  1  6
  6  4  1  0
  6  7  2  0
  8  6  1  0
  9  8  1  0
  9 10  1  6
 11 10  1  0
 12 16  1  0
 12 11  1  0
 13 12  2  0
 14  9  1  0
 15 14  2  0
 18 17  1  1
 18 19  1  0
 18 20  1  0
 19 14  1  0
 20 22  1  0
 21 20  2  0
M  END
$$$$
