TEA.pdb
     RDKit          3D

 22 21  0  0  1  0  0  0  0  0999 V2000
    6.9883  -12.7290   18.5081 C   0  0  0  0  0  0  0  0  0  0  0  0
    7.5881  -13.9967   19.0994 C   0  0  1  0  0  0  0  0  0  0  0  0
    8.5899  -14.4130   18.2518 O   0  0  0  0  0  0  0  0  0  0  0  0
    8.0860  -13.6419   20.4805 C   0  0  2  0  0  0  0  0  0  0  0  0
    9.0937  -12.6310   20.3582 N   0  0  0  0  0  0  0  0  0  0  0  0
    8.6120  -14.7993   21.2222 C   0  0  0  0  0  0  0  0  0  0  0  0
    7.8331  -15.7669   21.5286 O   0  0  0  0  0  0  0  0  0  0  0  0
    9.9549  -14.9354   21.6392 N   0  0  0  0  0  0  0  0  0  0  0  0
   10.4304  -16.0628   22.4696 C   0  0  1  0  0  0  0  0  0  0  0  0
   11.9287  -15.8933   22.4824 C   0  0  0  0  0  0  0  0  0  0  0  0
   12.6738  -16.8680   23.3403 C   0  0  0  0  0  0  0  0  0  0  0  0
   14.1397  -16.6087   23.1653 C   0  0  0  0  0  0  0  0  0  0  0  0
   14.7567  -15.9086   23.9767 O   0  0  0  0  0  0  0  0  0  0  0  0
    9.8830  -15.9500   23.8275 C   0  0  0  0  0  0  0  0  0  0  0  0
   10.1115  -14.8771   24.5038 O   0  0  0  0  0  0  0  0  0  0  0  0
   14.8444  -17.1500   22.0837 O   0  0  0  0  0  0  0  0  0  0  0  0
    7.1520  -16.9142   26.0042 C   0  0  0  0  0  0  0  0  0  0  0  0
    8.6466  -16.6906   25.8916 C   0  0  2  0  0  0  0  0  0  0  0  0
    9.0986  -16.9043   24.5165 N   0  0  0  0  0  0  0  0  0  0  0  0
    9.3694  -17.6064   26.7882 C   0  0  0  0  0  0  0  0  0  0  0  0
    9.1047  -17.5404   28.0261 O   0  0  0  0  0  0  0  0  0  0  0  0
   10.3034  -18.5193   26.3702 O   0  0  0  0  0  0  0  0  0  0  0  0
  2  4  1  0
  2  1  1  6
  2  3  1  0
  4  5  1  6
  6  4  1  0
  6  7  2  0
  8  6  1  0
  9  8  1  0
  9 10  1  1
 11 10  1  0
 12 16  1  0
 12 11  1  0
 13 12  2  0
 14  9  1  0
 15 14  2  0
 18 17  1  6
 18 19  1  0
 18 20  1  0
 19 14  1  0
 20 22  1  0
 21 20  2  0
M  END
$$$$
