TEA.pdb
     RDKit          3D

 22 21  0  0  1  0  0  0  0  0999 V2000
    8.6980  -12.5423   20.1952 C   0  0  0  0  0  0  0  0  0  0  0  0
    7.8588  -13.4778   19.3366 C   0  0  1  0  0  0  0  0  0  0  0  0
    8.0511  -13.1151   18.0225 O   0  0  0  0  0  0  0  0  0  0  0  0
    8.3217  -14.8830   19.6402 C   0  0  2  0  0  0  0  0  0  0  0  0
    7.6993  -15.7804   18.7130 N   0  0  0  0  0  0  0  0  0  0  0  0
    8.0383  -15.3009   21.0227 C   0  0  0  0  0  0  0  0  0  0  0  0
    6.8530  -15.6529   21.3514 O   0  0  0  0  0  0  0  0  0  0  0  0
    9.0018  -15.3472   22.0548 N   0  0  0  0  0  0  0  0  0  0  0  0
    8.6962  -15.8216   23.4217 C   0  0  1  0  0  0  0  0  0  0  0  0
    9.8073  -16.7962   23.7211 C   0  0  0  0  0  0  0  0  0  0  0  0
    9.3828  -18.2252   23.8583 C   0  0  0  0  0  0  0  0  0  0  0  0
   10.5991  -19.0372   24.1874 C   0  0  0  0  0  0  0  0  0  0  0  0
   10.6732  -19.6557   25.2557 O   0  0  0  0  0  0  0  0  0  0  0  0
    8.7269  -14.6937   24.3615 C   0  0  0  0  0  0  0  0  0  0  0  0
    9.7687  -13.9358   24.3907 O   0  0  0  0  0  0  0  0  0  0  0  0
   11.6770  -19.1157   23.2978 O   0  0  0  0  0  0  0  0  0  0  0  0
    6.5512  -12.4970   26.4377 C   0  0  0  0  0  0  0  0  0  0  0  0
    7.8806  -13.1796   26.1859 C   0  0  2  0  0  0  0  0  0  0  0  0
    7.7154  -14.3112   25.2733 N   0  0  0  0  0  0  0  0  0  0  0  0
    8.4577  -13.6575   27.4523 C   0  0  0  0  0  0  0  0  0  0  0  0
    8.5183  -14.9113   27.6291 O   0  0  0  0  0  0  0  0  0  0  0  0
    8.9302  -12.8369   28.4441 O   0  0  0  0  0  0  0  0  0  0  0  0
  2  4  1  0
  2  1  1  1
  2  3  1  0
  4  5  1  6
  6  4  1  0
  6  7  2  0
  8  6  1  0
  9  8  1  0
  9 10  1  1
 11 10  1  0
 12 16  1  0
 12 11  1  0
 13 12  2  0
 14  9  1  0
 15 14  2  0
 18 17  1  1
 18 19  1  0
 18 20  1  0
 19 14  1  0
 20 22  1  0
 21 20  2  0
M  END
$$$$
