TEA.pdb
     RDKit          3D

 22 21  0  0  1  0  0  0  0  0999 V2000
    8.6765  -12.3216   20.2329 C   0  0  0  0  0  0  0  0  0  0  0  0
    7.9499  -13.2266   19.2483 C   0  0  1  0  0  0  0  0  0  0  0  0
    8.2670  -12.7948   17.9800 O   0  0  0  0  0  0  0  0  0  0  0  0
    8.4103  -14.6373   19.5293 C   0  0  2  0  0  0  0  0  0  0  0  0
    7.8493  -15.5077   18.5393 N   0  0  0  0  0  0  0  0  0  0  0  0
    8.0559  -15.1048   20.8792 C   0  0  0  0  0  0  0  0  0  0  0  0
    6.8625  -15.4952   21.1251 O   0  0  0  0  0  0  0  0  0  0  0  0
    8.9569  -15.1603   21.9657 N   0  0  0  0  0  0  0  0  0  0  0  0
    8.5718  -15.6474   23.3078 C   0  0  1  0  0  0  0  0  0  0  0  0
    9.6873  -16.5906   23.6820 C   0  0  0  0  0  0  0  0  0  0  0  0
    9.6050  -17.1596   25.0643 C   0  0  0  0  0  0  0  0  0  0  0  0
   10.7657  -18.0899   25.2491 C   0  0  0  0  0  0  0  0  0  0  0  0
   10.6785  -19.2788   24.9203 O   0  0  0  0  0  0  0  0  0  0  0  0
    8.5052  -14.5219   24.2487 C   0  0  0  0  0  0  0  0  0  0  0  0
    9.5185  -13.7317   24.3469 O   0  0  0  0  0  0  0  0  0  0  0  0
   11.9725  -17.6385   25.7962 O   0  0  0  0  0  0  0  0  0  0  0  0
    6.1565  -12.4752   26.3206 C   0  0  0  0  0  0  0  0  0  0  0  0
    7.5196  -13.0869   26.0672 C   0  0  2  0  0  0  0  0  0  0  0  0
    7.4246  -14.1741   25.0926 N   0  0  0  0  0  0  0  0  0  0  0  0
    8.0875  -13.6072   27.3210 C   0  0  0  0  0  0  0  0  0  0  0  0
    8.1786  -14.8657   27.4419 O   0  0  0  0  0  0  0  0  0  0  0  0
    8.5208  -12.8208   28.3574 O   0  0  0  0  0  0  0  0  0  0  0  0
  2  4  1  0
  2  1  1  1
  2  3  1  0
  4  5  1  6
  6  4  1  0
  6  7  2  0
  8  6  1  0
  9  8  1  0
  9 10  1  1
 11 10  1  0
 12 16  1  0
 12 11  1  0
 13 12  2  0
 14  9  1  0
 15 14  2  0
 18 17  1  1
 18 19  1  0
 18 20  1  0
 19 14  1  0
 20 22  1  0
 21 20  2  0
M  END
$$$$
