YCH.pdb
     RDKit          3D

 29 30  0  0  1  0  0  0  0  0999 V2000
   19.8341   -8.3773  -27.3124 O   0  0  0  0  0  0  0  0  0  0  0  0
   20.1316   -8.7321  -26.0047 C   0  0  0  0  0  0  0  0  0  0  0  0
   20.5416   -7.8042  -25.0718 C   0  0  0  0  0  0  0  0  0  0  0  0
   20.8319   -8.1970  -23.7671 C   0  0  0  0  0  0  0  0  0  0  0  0
   20.7186   -9.5144  -23.3738 C   0  0  0  0  0  0  0  0  0  0  0  0
   21.0443   -9.8527  -21.9729 C   0  0  0  0  0  0  0  0  0  0  0  0
   22.2909   -9.1217  -21.4933 C   0  0  2  0  0  0  0  0  0  0  0  0
   23.4737   -9.5913  -22.1868 N   0  0  0  0  0  0  0  0  0  0  0  0
   22.3859   -9.3756  -20.0311 C   0  0  0  0  0  0  0  0  0  0  0  0
   23.2538  -10.2000  -19.6457 O   0  0  0  0  0  0  0  0  0  0  0  0
   20.3145  -10.4395  -24.2871 C   0  0  0  0  0  0  0  0  0  0  0  0
   20.0239  -10.0460  -25.5933 C   0  0  0  0  0  0  0  0  0  0  0  0
   21.5746   -8.7588  -19.0583 N   0  0  0  0  0  0  0  0  0  0  0  0
   21.7433   -8.9191  -17.6364 C   0  0  1  0  0  0  0  0  0  0  0  0
   23.1259   -8.4023  -17.2183 C   0  0  0  0  0  0  0  0  0  0  0  0
   23.3222   -8.5447  -15.4210 S   0  0  0  0  0  0  0  0  0  0  0  0
   20.6738   -8.2282  -16.8770 C   0  0  0  0  0  0  0  0  0  0  0  0
   20.4188   -7.0395  -17.1889 O   0  0  0  0  0  0  0  0  0  0  0  0
   19.9548   -8.8704  -15.8336 N   0  0  0  0  0  0  0  0  0  0  0  0
   18.8974   -8.2890  -15.0732 C   0  0  1  0  0  0  0  0  0  0  0  0
   17.8984   -9.2781  -14.4964 C   0  0  0  0  0  0  0  0  0  0  0  0
   17.2302  -10.0861  -15.5179 C   0  0  0  0  0  0  0  0  0  0  0  0
   16.8756   -9.7751  -16.7951 C   0  0  0  0  0  0  0  0  0  0  0  0
   16.2795  -10.8506  -17.3824 N   0  0  0  0  0  0  0  0  0  0  0  0
   16.2620  -11.8341  -16.4715 C   0  0  0  0  0  0  0  0  0  0  0  0
   16.8295  -11.3873  -15.3492 N   0  0  0  0  0  0  0  0  0  0  0  0
   19.3005   -7.2872  -14.0803 C   0  0  0  0  0  0  0  0  0  0  0  0
   18.4253   -6.5113  -13.3553 O   0  0  0  0  0  0  0  0  0  0  0  0
   20.5486   -7.1337  -13.8841 O   0  0  0  0  0  0  0  0  0  0  0  0
  2  1  1  0
  3  2  2  0
  4  3  1  0
  5  4  2  0
  5 11  1  0
  6  5  1  0
  7  8  1  6
  7  6  1  0
  9  7  1  0
  9 13  1  0
 10  9  2  0
 11 12  2  0
 12  2  1  0
 14 13  1  0
 14 15  1  1
 15 16  1  0
 17 14  1  0
 18 17  2  0
 19 17  1  0
 20 27  1  0
 20 19  1  0
 21 22  1  0
 20 21  1  1
 22 26  1  0
 23 22  2  0
 23 24  1  0
 24 25  1  0
 26 25  2  0
 27 28  1  0
 29 27  2  0
M  END
$$$$
