YCH.pdb
     RDKit          3D

 29 30  0  0  1  0  0  0  0  0999 V2000
   21.0258  -22.6473  -17.4979 O   0  0  0  0  0  0  0  0  0  0  0  0
   22.2583  -23.2685  -17.6369 C   0  0  0  0  0  0  0  0  0  0  0  0
   22.9624  -23.2366  -18.8212 C   0  0  0  0  0  0  0  0  0  0  0  0
   24.1979  -23.8720  -18.9242 C   0  0  0  0  0  0  0  0  0  0  0  0
   24.7482  -24.5458  -17.8536 C   0  0  0  0  0  0  0  0  0  0  0  0
   26.0624  -25.1944  -18.0410 C   0  0  0  0  0  0  0  0  0  0  0  0
   27.1817  -24.3962  -17.3862 C   0  0  2  0  0  0  0  0  0  0  0  0
   27.3349  -23.0977  -18.0113 N   0  0  0  0  0  0  0  0  0  0  0  0
   28.4155  -25.2138  -17.5304 C   0  0  0  0  0  0  0  0  0  0  0  0
   28.7885  -25.4909  -18.6990 O   0  0  0  0  0  0  0  0  0  0  0  0
   24.0614  -24.5837  -16.6789 C   0  0  0  0  0  0  0  0  0  0  0  0
   22.8244  -23.9475  -16.5760 C   0  0  0  0  0  0  0  0  0  0  0  0
   29.1869  -25.6938  -16.4536 N   0  0  0  0  0  0  0  0  0  0  0  0
   30.3754  -26.4955  -16.5966 C   0  0  1  0  0  0  0  0  0  0  0  0
   31.5192  -25.8737  -15.7850 C   0  0  0  0  0  0  0  0  0  0  0  0
   31.3861  -24.0652  -15.8134 S   0  0  0  0  0  0  0  0  0  0  0  0
   30.1418  -27.8996  -16.1823 C   0  0  0  0  0  0  0  0  0  0  0  0
   29.1996  -28.1171  -15.3820 O   0  0  0  0  0  0  0  0  0  0  0  0
   30.9427  -28.9704  -16.6619 N   0  0  0  0  0  0  0  0  0  0  0  0
   30.4563  -30.2273  -17.1289 C   0  0  1  0  0  0  0  0  0  0  0  0
   29.2810  -30.1476  -18.0888 C   0  0  0  0  0  0  0  0  0  0  0  0
   27.9831  -30.2799  -17.4248 C   0  0  0  0  0  0  0  0  0  0  0  0
   27.6810  -30.4932  -16.1145 C   0  0  0  0  0  0  0  0  0  0  0  0
   26.3284  -30.5375  -15.9551 N   0  0  0  0  0  0  0  0  0  0  0  0
   25.7853  -30.3515  -17.1666 C   0  0  0  0  0  0  0  0  0  0  0  0
   26.7680  -30.1957  -18.0562 N   0  0  0  0  0  0  0  0  0  0  0  0
   31.4752  -31.1717  -17.5998 C   0  0  0  0  0  0  0  0  0  0  0  0
   31.2509  -32.5092  -17.8328 O   0  0  0  0  0  0  0  0  0  0  0  0
   32.6440  -30.7108  -17.8036 O   0  0  0  0  0  0  0  0  0  0  0  0
  2  1  1  0
  3  2  2  0
  4  3  1  0
  5  4  2  0
  5 11  1  0
  6  5  1  0
  7  8  1  6
  7  6  1  0
  9  7  1  0
  9 13  1  0
 10  9  2  0
 11 12  2  0
 12  2  1  0
 14 13  1  0
 14 15  1  1
 15 16  1  0
 17 14  1  0
 18 17  2  0
 19 17  1  0
 20 27  1  0
 20 19  1  0
 21 22  1  0
 20 21  1  6
 22 26  1  0
 23 22  2  0
 23 24  1  0
 24 25  1  0
 26 25  2  0
 27 28  1  0
 29 27  2  0
M  END
$$$$
