YCH.pdb
     RDKit          3D

 29 30  0  0  1  0  0  0  0  0999 V2000
   16.9261  -18.4700  -14.9579 O   0  0  0  0  0  0  0  0  0  0  0  0
   17.0054  -17.0892  -15.0644 C   0  0  0  0  0  0  0  0  0  0  0  0
   16.1245  -16.2549  -14.4108 C   0  0  0  0  0  0  0  0  0  0  0  0
   16.2344  -14.8722  -14.5410 C   0  0  0  0  0  0  0  0  0  0  0  0
   17.2192  -14.3024  -15.3210 C   0  0  0  0  0  0  0  0  0  0  0  0
   17.2710  -12.8285  -15.4093 C   0  0  0  0  0  0  0  0  0  0  0  0
   16.2043  -12.2838  -16.3495 C   0  0  2  0  0  0  0  0  0  0  0  0
   16.4180  -12.7430  -17.7074 N   0  0  0  0  0  0  0  0  0  0  0  0
   16.2888  -10.8017  -16.2612 C   0  0  0  0  0  0  0  0  0  0  0  0
   17.0699  -10.2217  -17.0580 O   0  0  0  0  0  0  0  0  0  0  0  0
   18.0948  -15.1170  -15.9713 C   0  0  0  0  0  0  0  0  0  0  0  0
   17.9846  -16.5013  -15.8407 C   0  0  0  0  0  0  0  0  0  0  0  0
   15.5580  -10.0120  -15.3516 N   0  0  0  0  0  0  0  0  0  0  0  0
   15.5938   -8.5722  -15.3111 C   0  0  1  0  0  0  0  0  0  0  0  0
   14.4189   -8.0492  -14.4746 C   0  0  0  0  0  0  0  0  0  0  0  0
   12.8917   -8.9042  -14.9502 S   0  0  0  0  0  0  0  0  0  0  0  0
   16.8823   -8.0715  -14.7757 C   0  0  0  0  0  0  0  0  0  0  0  0
   17.6017   -8.8847  -14.1460 O   0  0  0  0  0  0  0  0  0  0  0  0
   17.3031   -6.7270  -14.9583 N   0  0  0  0  0  0  0  0  0  0  0  0
   18.6564   -6.2817  -15.0243 C   0  0  1  0  0  0  0  0  0  0  0  0
   19.5693   -7.1211  -15.9025 C   0  0  0  0  0  0  0  0  0  0  0  0
   20.9652   -6.6816  -15.8705 C   0  0  0  0  0  0  0  0  0  0  0  0
   22.0408   -7.2088  -15.2234 C   0  0  0  0  0  0  0  0  0  0  0  0
   23.1505   -6.4654  -15.4931 N   0  0  0  0  0  0  0  0  0  0  0  0
   22.7678   -5.4732  -16.3096 C   0  0  0  0  0  0  0  0  0  0  0  0
   21.4592   -5.5925  -16.5430 N   0  0  0  0  0  0  0  0  0  0  0  0
   18.8460   -4.8469  -15.2639 C   0  0  0  0  0  0  0  0  0  0  0  0
   19.8003   -4.0721  -14.6454 O   0  0  0  0  0  0  0  0  0  0  0  0
   18.0682   -4.2909  -16.1040 O   0  0  0  0  0  0  0  0  0  0  0  0
  2  1  1  0
  3  2  2  0
  4  3  1  0
  5  4  2  0
  5 11  1  0
  6  5  1  0
  7  8  1  6
  7  6  1  0
  9  7  1  0
  9 13  1  0
 10  9  2  0
 11 12  2  0
 12  2  1  0
 14 13  1  0
 14 15  1  1
 15 16  1  0
 17 14  1  0
 18 17  2  0
 19 17  1  0
 20 27  1  0
 20 19  1  0
 21 22  1  0
 20 21  1  6
 22 26  1  0
 23 22  2  0
 23 24  1  0
 24 25  1  0
 26 25  2  0
 27 28  1  0
 29 27  2  0
M  END
$$$$
