YCH.pdb
     RDKit          3D

 29 30  0  0  1  0  0  0  0  0999 V2000
   32.1473  -34.2009  -15.5131 O   0  0  0  0  0  0  0  0  0  0  0  0
   31.9365  -32.8970  -15.9371 C   0  0  0  0  0  0  0  0  0  0  0  0
   32.9765  -32.0106  -16.1168 C   0  0  0  0  0  0  0  0  0  0  0  0
   32.7270  -30.7083  -16.5438 C   0  0  0  0  0  0  0  0  0  0  0  0
   31.4434  -30.2711  -16.7972 C   0  0  0  0  0  0  0  0  0  0  0  0
   31.2597  -28.8759  -17.2471 C   0  0  0  0  0  0  0  0  0  0  0  0
   32.0197  -28.5963  -18.5365 C   0  0  2  0  0  0  0  0  0  0  0  0
   33.4448  -28.4931  -18.2935 N   0  0  0  0  0  0  0  0  0  0  0  0
   31.4705  -27.3239  -19.0761 C   0  0  0  0  0  0  0  0  0  0  0  0
   32.2951  -26.4235  -19.3771 O   0  0  0  0  0  0  0  0  0  0  0  0
   30.4085  -31.1382  -16.6231 C   0  0  0  0  0  0  0  0  0  0  0  0
   30.6584  -32.4421  -16.1955 C   0  0  0  0  0  0  0  0  0  0  0  0
   30.0996  -27.0637  -19.2703 N   0  0  0  0  0  0  0  0  0  0  0  0
   29.5634  -26.2953  -20.3648 C   0  0  1  0  0  0  0  0  0  0  0  0
   30.1579  -26.7954  -21.6877 C   0  0  0  0  0  0  0  0  0  0  0  0
   29.9138  -25.5519  -22.9851 S   0  0  0  0  0  0  0  0  0  0  0  0
   28.0825  -26.3531  -20.4006 C   0  0  0  0  0  0  0  0  0  0  0  0
   27.4916  -25.5631  -21.1765 O   0  0  0  0  0  0  0  0  0  0  0  0
   27.3438  -27.2608  -19.5953 N   0  0  0  0  0  0  0  0  0  0  0  0
   26.3935  -28.2113  -20.0727 C   0  0  1  0  0  0  0  0  0  0  0  0
   25.8331  -27.9241  -21.4556 C   0  0  0  0  0  0  0  0  0  0  0  0
   24.7649  -26.9233  -21.4494 C   0  0  0  0  0  0  0  0  0  0  0  0
   24.8168  -25.5800  -21.2344 C   0  0  0  0  0  0  0  0  0  0  0  0
   23.5660  -25.0486  -21.3358 N   0  0  0  0  0  0  0  0  0  0  0  0
   22.7323  -26.0609  -21.6143 C   0  0  0  0  0  0  0  0  0  0  0  0
   23.4399  -27.1904  -21.6850 N   0  0  0  0  0  0  0  0  0  0  0  0
   26.7705  -29.6213  -19.9247 C   0  0  0  0  0  0  0  0  0  0  0  0
   25.8979  -30.6311  -19.5895 O   0  0  0  0  0  0  0  0  0  0  0  0
   27.9920  -29.9195  -20.1225 O   0  0  0  0  0  0  0  0  0  0  0  0
  2  1  1  0
  3  2  2  0
  4  3  1  0
  5  4  2  0
  5 11  1  0
  6  5  1  0
  7  8  1  1
  7  6  1  0
  9  7  1  0
  9 13  1  0
 10  9  2  0
 11 12  2  0
 12  2  1  0
 14 13  1  0
 14 15  1  6
 15 16  1  0
 17 14  1  0
 18 17  2  0
 19 17  1  0
 20 27  1  0
 20 19  1  0
 21 22  1  0
 20 21  1  6
 22 26  1  0
 23 22  2  0
 23 24  1  0
 24 25  1  0
 26 25  2  0
 27 28  1  0
 29 27  2  0
M  END
$$$$
