YCH.pdb
     RDKit          3D

 29 30  0  0  1  0  0  0  0  0999 V2000
   28.0454  -16.8275  -15.5288 O   0  0  0  0  0  0  0  0  0  0  0  0
   27.1044  -15.8504  -15.8190 C   0  0  0  0  0  0  0  0  0  0  0  0
   26.4616  -15.1391  -14.8290 C   0  0  0  0  0  0  0  0  0  0  0  0
   25.5218  -14.1647  -15.1578 C   0  0  0  0  0  0  0  0  0  0  0  0
   25.2095  -13.8856  -16.4722 C   0  0  0  0  0  0  0  0  0  0  0  0
   24.2024  -12.8384  -16.7407 C   0  0  0  0  0  0  0  0  0  0  0  0
   22.7858  -13.3509  -16.5195 C   0  0  2  0  0  0  0  0  0  0  0  0
   22.4943  -14.4767  -17.3844 N   0  0  0  0  0  0  0  0  0  0  0  0
   21.8799  -12.2054  -16.8005 C   0  0  0  0  0  0  0  0  0  0  0  0
   21.5848  -11.9873  -18.0033 O   0  0  0  0  0  0  0  0  0  0  0  0
   25.8383  -14.5822  -17.4583 C   0  0  0  0  0  0  0  0  0  0  0  0
   26.7793  -15.5577  -17.1288 C   0  0  0  0  0  0  0  0  0  0  0  0
   21.3358  -11.3565  -15.8166 N   0  0  0  0  0  0  0  0  0  0  0  0
   20.3181  -10.3675  -16.0663 C   0  0  1  0  0  0  0  0  0  0  0  0
   19.3182  -10.3496  -14.9030 C   0  0  0  0  0  0  0  0  0  0  0  0
   18.3761  -11.8990  -14.8728 S   0  0  0  0  0  0  0  0  0  0  0  0
   20.9026   -9.0214  -16.2759 C   0  0  0  0  0  0  0  0  0  0  0  0
   21.9151   -8.7189  -15.5986 O   0  0  0  0  0  0  0  0  0  0  0  0
   20.3520   -8.0964  -17.2028 N   0  0  0  0  0  0  0  0  0  0  0  0
   20.7948   -6.7550  -17.4005 C   0  0  1  0  0  0  0  0  0  0  0  0
   20.7775   -6.2762  -18.8425 C   0  0  0  0  0  0  0  0  0  0  0  0
   21.3326   -4.9324  -19.0115 C   0  0  0  0  0  0  0  0  0  0  0  0
   22.3972   -4.5041  -19.7441 C   0  0  0  0  0  0  0  0  0  0  0  0
   22.5380   -3.1556  -19.6072 N   0  0  0  0  0  0  0  0  0  0  0  0
   21.5604   -2.7413  -18.7886 C   0  0  0  0  0  0  0  0  0  0  0  0
   20.8309   -3.7981  -18.4248 N   0  0  0  0  0  0  0  0  0  0  0  0
   20.2256   -5.7538  -16.4920 C   0  0  0  0  0  0  0  0  0  0  0  0
   20.8705   -4.6050  -16.0943 O   0  0  0  0  0  0  0  0  0  0  0  0
   19.0535   -5.9733  -16.0470 O   0  0  0  0  0  0  0  0  0  0  0  0
  2  1  1  0
  3  2  2  0
  4  3  1  0
  5  4  2  0
  5 11  1  0
  6  5  1  0
  7  8  1  6
  7  6  1  0
  9  7  1  0
  9 13  1  0
 10  9  2  0
 11 12  2  0
 12  2  1  0
 14 13  1  0
 14 15  1  1
 15 16  1  0
 17 14  1  0
 18 17  2  0
 19 17  1  0
 20 27  1  0
 20 19  1  0
 21 22  1  0
 20 21  1  6
 22 26  1  0
 23 22  2  0
 23 24  1  0
 24 25  1  0
 26 25  2  0
 27 28  1  0
 29 27  2  0
M  END
$$$$
