YCH.pdb
     RDKit          3D

 29 30  0  0  1  0  0  0  0  0999 V2000
   27.6218  -19.6157   -5.5027 O   0  0  0  0  0  0  0  0  0  0  0  0
   27.0150  -19.8470   -6.7285 C   0  0  0  0  0  0  0  0  0  0  0  0
   26.4975  -21.0789   -7.0659 C   0  0  0  0  0  0  0  0  0  0  0  0
   25.8948  -21.2746   -8.3066 C   0  0  0  0  0  0  0  0  0  0  0  0
   25.7991  -20.2505   -9.2258 C   0  0  0  0  0  0  0  0  0  0  0  0
   25.1460  -20.5360  -10.5200 C   0  0  0  0  0  0  0  0  0  0  0  0
   26.0650  -21.3110  -11.4545 C   0  0  2  0  0  0  0  0  0  0  0  0
   27.2306  -20.5275  -11.8125 N   0  0  0  0  0  0  0  0  0  0  0  0
   25.2519  -21.6477  -12.6533 C   0  0  0  0  0  0  0  0  0  0  0  0
   25.0751  -20.7374  -13.5026 O   0  0  0  0  0  0  0  0  0  0  0  0
   26.3069  -19.0294   -8.9031 C   0  0  0  0  0  0  0  0  0  0  0  0
   26.9103  -18.8336   -7.6608 C   0  0  0  0  0  0  0  0  0  0  0  0
   24.6720  -22.9083  -12.8975 N   0  0  0  0  0  0  0  0  0  0  0  0
   23.9271  -23.2463  -14.0836 C   0  0  1  0  0  0  0  0  0  0  0  0
   23.9594  -24.7648  -14.2992 C   0  0  0  0  0  0  0  0  0  0  0  0
   22.9552  -25.2063  -15.7435 S   0  0  0  0  0  0  0  0  0  0  0  0
   22.5297  -22.7568  -14.0105 C   0  0  0  0  0  0  0  0  0  0  0  0
   21.9239  -22.8983  -12.9205 O   0  0  0  0  0  0  0  0  0  0  0  0
   21.8849  -22.1487  -15.1207 N   0  0  0  0  0  0  0  0  0  0  0  0
   20.5432  -21.6650  -15.1396 C   0  0  1  0  0  0  0  0  0  0  0  0
   20.2654  -20.5740  -16.1600 C   0  0  0  0  0  0  0  0  0  0  0  0
   18.8947  -20.0636  -16.1011 C   0  0  0  0  0  0  0  0  0  0  0  0
   17.8673  -20.3908  -15.2698 C   0  0  0  0  0  0  0  0  0  0  0  0
   16.7689  -19.6463  -15.5801 N   0  0  0  0  0  0  0  0  0  0  0  0
   17.1106  -18.8534  -16.6057 C   0  0  0  0  0  0  0  0  0  0  0  0
   18.3834  -19.0947  -16.9269 N   0  0  0  0  0  0  0  0  0  0  0  0
   19.4944  -22.6906  -15.1461 C   0  0  0  0  0  0  0  0  0  0  0  0
   19.4641  -23.7700  -15.9991 O   0  0  0  0  0  0  0  0  0  0  0  0
   18.5522  -22.5629  -14.3000 O   0  0  0  0  0  0  0  0  0  0  0  0
  2  1  1  0
  3  2  2  0
  4  3  1  0
  5  4  2  0
  5 11  1  0
  6  5  1  0
  7  8  1  6
  7  6  1  0
  9  7  1  0
  9 13  1  0
 10  9  2  0
 11 12  2  0
 12  2  1  0
 14 13  1  0
 14 15  1  1
 15 16  1  0
 17 14  1  0
 18 17  2  0
 19 17  1  0
 20 27  1  0
 20 19  1  0
 21 22  1  0
 20 21  1  6
 22 26  1  0
 23 22  2  0
 23 24  1  0
 24 25  1  0
 26 25  2  0
 27 28  1  0
 29 27  2  0
M  END
$$$$
