YCH.pdb
     RDKit          3D

 29 30  0  0  1  0  0  0  0  0999 V2000
   37.9873   -2.4847    1.0153 O   0  0  0  0  0  0  0  0  0  0  0  0
   38.3100   -3.0711   -0.1998 C   0  0  0  0  0  0  0  0  0  0  0  0
   37.7722   -2.6293   -1.3893 C   0  0  0  0  0  0  0  0  0  0  0  0
   38.1194   -3.2427   -2.5909 C   0  0  0  0  0  0  0  0  0  0  0  0
   39.0037   -4.3009   -2.6255 C   0  0  0  0  0  0  0  0  0  0  0  0
   39.3222   -4.8987   -3.9386 C   0  0  0  0  0  0  0  0  0  0  0  0
   40.7021   -4.4797   -4.4272 C   0  0  2  0  0  0  0  0  0  0  0  0
   40.7433   -3.0631   -4.7306 N   0  0  0  0  0  0  0  0  0  0  0  0
   40.9824   -5.2991   -5.6361 C   0  0  0  0  0  0  0  0  0  0  0  0
   40.6749   -4.8040   -6.7504 O   0  0  0  0  0  0  0  0  0  0  0  0
   39.5410   -4.7456   -1.4565 C   0  0  0  0  0  0  0  0  0  0  0  0
   39.1933   -4.1313   -0.2535 C   0  0  0  0  0  0  0  0  0  0  0  0
   41.5645   -6.5820   -5.6150 N   0  0  0  0  0  0  0  0  0  0  0  0
   41.8925   -7.3471   -6.7910 C   0  0  1  0  0  0  0  0  0  0  0  0
   42.9646   -6.6106   -7.6045 C   0  0  0  0  0  0  0  0  0  0  0  0
   44.1611   -5.8296   -6.4875 S   0  0  0  0  0  0  0  0  0  0  0  0
   42.3451   -8.7157   -6.4450 C   0  0  0  0  0  0  0  0  0  0  0  0
   43.2903   -8.8224   -5.6262 O   0  0  0  0  0  0  0  0  0  0  0  0
   41.7444   -9.8733   -7.0082 N   0  0  0  0  0  0  0  0  0  0  0  0
   42.3853  -11.1333   -7.1975 C   0  0  1  0  0  0  0  0  0  0  0  0
   41.8458  -11.9647   -8.3494 C   0  0  0  0  0  0  0  0  0  0  0  0
   42.4455  -13.2975   -8.4301 C   0  0  0  0  0  0  0  0  0  0  0  0
   43.3460  -13.9099   -7.6130 C   0  0  0  0  0  0  0  0  0  0  0  0
   43.6124  -15.1628   -8.0781 N   0  0  0  0  0  0  0  0  0  0  0  0
   42.8776  -15.3331   -9.1865 C   0  0  0  0  0  0  0  0  0  0  0  0
   42.1736  -14.2210   -9.4076 N   0  0  0  0  0  0  0  0  0  0  0  0
   43.8521  -11.1120   -7.1873 C   0  0  0  0  0  0  0  0  0  0  0  0
   44.6373  -11.8615   -6.3414 O   0  0  0  0  0  0  0  0  0  0  0  0
   44.4274  -10.3435   -8.0229 O   0  0  0  0  0  0  0  0  0  0  0  0
  2  1  1  0
  3  2  2  0
  4  3  1  0
  5  4  2  0
  5 11  1  0
  6  5  1  0
  7  8  1  6
  7  6  1  0
  9  7  1  0
  9 13  1  0
 10  9  2  0
 11 12  2  0
 12  2  1  0
 14 13  1  0
 14 15  1  1
 15 16  1  0
 17 14  1  0
 18 17  2  0
 19 17  1  0
 20 27  1  0
 20 19  1  0
 21 22  1  0
 20 21  1  6
 22 26  1  0
 23 22  2  0
 23 24  1  0
 24 25  1  0
 26 25  2  0
 27 28  1  0
 29 27  2  0
M  END
$$$$
