WED.pdb
     RDKit          3D

 32 33  0  0  1  0  0  0  0  0999 V2000
   27.5827  -19.8168  -11.7653 N   0  0  0  0  0  0  0  0  0  0  0  0
   26.7807  -20.9539  -12.1782 C   0  0  1  0  0  0  0  0  0  0  0  0
   26.3061  -21.6347  -10.9077 C   0  0  0  0  0  0  0  0  0  0  0  0
   27.0620  -21.1163   -9.7549 C   0  0  0  0  0  0  0  0  0  0  0  0
   26.6574  -20.2435   -8.7673 C   0  0  0  0  0  0  0  0  0  0  0  0
   27.7009  -20.0549   -7.9288 N   0  0  0  0  0  0  0  0  0  0  0  0
   28.7641  -20.7686   -8.3311 C   0  0  0  0  0  0  0  0  0  0  0  0
   30.0641  -20.9456   -7.8542 C   0  0  0  0  0  0  0  0  0  0  0  0
   30.9470  -21.7744   -8.5119 C   0  0  0  0  0  0  0  0  0  0  0  0
   30.5776  -22.4511   -9.6543 C   0  0  0  0  0  0  0  0  0  0  0  0
   29.2920  -22.2647  -10.1109 C   0  0  0  0  0  0  0  0  0  0  0  0
   28.3818  -21.4369   -9.4697 C   0  0  0  0  0  0  0  0  0  0  0  0
   25.6363  -20.4264  -12.9838 C   0  0  0  0  0  0  0  0  0  0  0  0
   24.9610  -19.4402  -12.6003 O   0  0  0  0  0  0  0  0  0  0  0  0
   25.2485  -21.0016  -14.2147 N   0  0  0  0  0  0  0  0  0  0  0  0
   24.1605  -20.6470  -15.0269 C   0  0  1  0  0  0  0  0  0  0  0  0
   24.2158  -20.9747  -16.4876 C   0  0  0  0  0  0  0  0  0  0  0  0
   23.7930  -19.8711  -17.4196 C   0  0  0  0  0  0  0  0  0  0  0  0
   24.9334  -19.0309  -17.8935 C   0  0  0  0  0  0  0  0  0  0  0  0
   24.8873  -18.6393  -19.0863 O   0  0  0  0  0  0  0  0  0  0  0  0
   22.8441  -21.0061  -14.4887 C   0  0  0  0  0  0  0  0  0  0  0  0
   22.7753  -22.0415  -13.7872 O   0  0  0  0  0  0  0  0  0  0  0  0
   26.0184  -18.6519  -17.1389 O   0  0  0  0  0  0  0  0  0  0  0  0
   21.7258  -20.2072  -14.7616 N   0  0  0  0  0  0  0  0  0  0  0  0
   20.4028  -20.5183  -14.2019 C   0  0  1  0  0  0  0  0  0  0  0  0
   19.5416  -19.3404  -14.4650 C   0  0  0  0  0  0  0  0  0  0  0  0
   19.5559  -18.3052  -13.4136 C   0  0  0  0  0  0  0  0  0  0  0  0
   20.2065  -18.4935  -12.3641 O   0  0  0  0  0  0  0  0  0  0  0  0
   19.9324  -21.7557  -14.8686 C   0  0  0  0  0  0  0  0  0  0  0  0
   19.2997  -22.7532  -14.1262 O   0  0  0  0  0  0  0  0  0  0  0  0
   18.8247  -17.1420  -13.6531 O   0  0  0  0  0  0  0  0  0  0  0  0
   20.0530  -22.0003  -16.0925 O   0  0  0  0  0  0  0  0  0  0  0  0
  2 13  1  0
  2  1  1  1
  3  4  1  0
  3  2  1  0
  4 12  1  0
  5  4  2  0
  5  6  1  0
  6  7  1  0
  7 12  2  0
  7  8  1  0
  8  9  2  0
  9 10  1  0
 11 10  2  0
 12 11  1  0
 13 14  2  0
 15 16  1  0
 15 13  1  0
 16 17  1  6
 18 17  1  0
 19 18  1  0
 19 20  2  0
 21 16  1  0
 22 21  2  0
 23 19  1  0
 24 21  1  0
 25 29  1  0
 25 24  1  0
 25 26  1  6
 27 26  1  0
 28 27  2  0
 29 30  1  0
 31 27  1  0
 32 29  2  0
M  END
$$$$
