WED.pdb
     RDKit          3D

 32 33  0  0  1  0  0  0  0  0999 V2000
   22.2010  -12.7948  -18.6073 N   0  0  0  0  0  0  0  0  0  0  0  0
   21.2123  -11.8197  -19.0292 C   0  0  1  0  0  0  0  0  0  0  0  0
   19.9297  -12.1541  -18.2902 C   0  0  0  0  0  0  0  0  0  0  0  0
   19.3666  -13.4091  -18.8165 C   0  0  0  0  0  0  0  0  0  0  0  0
   19.0516  -14.5725  -18.1472 C   0  0  0  0  0  0  0  0  0  0  0  0
   18.5709  -15.4537  -19.0528 N   0  0  0  0  0  0  0  0  0  0  0  0
   18.5611  -14.9105  -20.2801 C   0  0  0  0  0  0  0  0  0  0  0  0
   18.1775  -15.3553  -21.5466 C   0  0  0  0  0  0  0  0  0  0  0  0
   18.2912  -14.5308  -22.6450 C   0  0  0  0  0  0  0  0  0  0  0  0
   18.7839  -13.2489  -22.5295 C   0  0  0  0  0  0  0  0  0  0  0  0
   19.1578  -12.8268  -21.2733 C   0  0  0  0  0  0  0  0  0  0  0  0
   19.0547  -13.6343  -20.1499 C   0  0  0  0  0  0  0  0  0  0  0  0
   21.7292  -10.4668  -18.6557 C   0  0  0  0  0  0  0  0  0  0  0  0
   22.2910  -10.2586  -17.5526 O   0  0  0  0  0  0  0  0  0  0  0  0
   21.6170   -9.3502  -19.5141 N   0  0  0  0  0  0  0  0  0  0  0  0
   22.0492   -8.0360  -19.2796 C   0  0  1  0  0  0  0  0  0  0  0  0
   22.2942   -7.1385  -20.4538 C   0  0  0  0  0  0  0  0  0  0  0  0
   22.8485   -5.7774  -20.1292 C   0  0  0  0  0  0  0  0  0  0  0  0
   23.0659   -4.9263  -21.3373 C   0  0  0  0  0  0  0  0  0  0  0  0
   22.7974   -5.4465  -22.4488 O   0  0  0  0  0  0  0  0  0  0  0  0
   21.2947   -7.3109  -18.2517 C   0  0  0  0  0  0  0  0  0  0  0  0
   20.0459   -7.3153  -18.3481 O   0  0  0  0  0  0  0  0  0  0  0  0
   23.5292   -3.6319  -21.3338 O   0  0  0  0  0  0  0  0  0  0  0  0
   21.9664   -6.6499  -17.2148 N   0  0  0  0  0  0  0  0  0  0  0  0
   21.2375   -5.9122  -16.1732 C   0  0  1  0  0  0  0  0  0  0  0  0
   22.0307   -6.0400  -14.9270 C   0  0  0  0  0  0  0  0  0  0  0  0
   21.4604   -5.3608  -13.7477 C   0  0  0  0  0  0  0  0  0  0  0  0
   20.3970   -4.7146  -13.8559 O   0  0  0  0  0  0  0  0  0  0  0  0
   21.1033   -4.5146  -16.6481 C   0  0  0  0  0  0  0  0  0  0  0  0
   19.9752   -3.7663  -16.3106 O   0  0  0  0  0  0  0  0  0  0  0  0
   22.1555   -5.4796  -12.5445 O   0  0  0  0  0  0  0  0  0  0  0  0
   21.9471   -3.9138  -17.3546 O   0  0  0  0  0  0  0  0  0  0  0  0
  2 13  1  0
  2  1  1  1
  3  4  1  0
  3  2  1  0
  4 12  1  0
  5  4  2  0
  5  6  1  0
  6  7  1  0
  7 12  2  0
  7  8  1  0
  8  9  2  0
  9 10  1  0
 11 10  2  0
 12 11  1  0
 13 14  2  0
 15 16  1  0
 15 13  1  0
 16 17  1  6
 18 17  1  0
 19 18  1  0
 19 20  2  0
 21 16  1  0
 22 21  2  0
 23 19  1  0
 24 21  1  0
 25 29  1  0
 25 24  1  0
 25 26  1  1
 27 26  1  0
 28 27  2  0
 29 30  1  0
 31 27  1  0
 32 29  2  0
M  END
$$$$
