WED.pdb
     RDKit          3D

 32 33  0  0  1  0  0  0  0  0999 V2000
   27.6157  -21.6176   -9.5613 N   0  0  0  0  0  0  0  0  0  0  0  0
   26.4056  -20.8358   -9.3862 C   0  0  1  0  0  0  0  0  0  0  0  0
   26.7704  -19.6650   -8.4922 C   0  0  0  0  0  0  0  0  0  0  0  0
   26.9072  -20.1273   -7.1005 C   0  0  0  0  0  0  0  0  0  0  0  0
   26.1754  -21.0776   -6.4208 C   0  0  0  0  0  0  0  0  0  0  0  0
   26.6622  -21.1525   -5.1618 N   0  0  0  0  0  0  0  0  0  0  0  0
   27.6783  -20.2910   -4.9972 C   0  0  0  0  0  0  0  0  0  0  0  0
   28.5220  -19.9610   -3.9352 C   0  0  0  0  0  0  0  0  0  0  0  0
   29.5022  -19.0044   -4.0878 C   0  0  0  0  0  0  0  0  0  0  0  0
   29.6803  -18.3471   -5.2860 C   0  0  0  0  0  0  0  0  0  0  0  0
   28.8391  -18.6848   -6.3226 C   0  0  0  0  0  0  0  0  0  0  0  0
   27.8439  -19.6433   -6.1981 C   0  0  0  0  0  0  0  0  0  0  0  0
   25.9658  -20.3809  -10.7414 C   0  0  0  0  0  0  0  0  0  0  0  0
   26.7365  -19.7506  -11.5060 O   0  0  0  0  0  0  0  0  0  0  0  0
   24.6672  -20.6300  -11.2390 N   0  0  0  0  0  0  0  0  0  0  0  0
   24.2279  -20.5690  -12.5703 C   0  0  1  0  0  0  0  0  0  0  0  0
   24.9306  -21.4011  -13.5989 C   0  0  0  0  0  0  0  0  0  0  0  0
   25.0787  -22.8613  -13.2656 C   0  0  0  0  0  0  0  0  0  0  0  0
   24.9292  -23.7549  -14.4532 C   0  0  0  0  0  0  0  0  0  0  0  0
   24.7243  -23.1938  -15.5583 O   0  0  0  0  0  0  0  0  0  0  0  0
   22.7764  -20.6838  -12.7484 C   0  0  0  0  0  0  0  0  0  0  0  0
   22.1950  -21.6060  -12.1318 O   0  0  0  0  0  0  0  0  0  0  0  0
   24.9989  -25.1278  -14.4379 O   0  0  0  0  0  0  0  0  0  0  0  0
   22.0920  -19.7862  -13.5786 N   0  0  0  0  0  0  0  0  0  0  0  0
   20.6240  -19.7130  -13.5878 C   0  0  1  0  0  0  0  0  0  0  0  0
   20.2602  -18.5733  -14.4637 C   0  0  0  0  0  0  0  0  0  0  0  0
   19.2584  -17.6461  -13.9034 C   0  0  0  0  0  0  0  0  0  0  0  0
   18.7514  -17.8794  -12.7859 O   0  0  0  0  0  0  0  0  0  0  0  0
   20.1300  -21.0201  -14.0822 C   0  0  0  0  0  0  0  0  0  0  0  0
   20.8433  -21.7129  -15.0609 O   0  0  0  0  0  0  0  0  0  0  0  0
   18.9226  -16.5302  -14.6695 O   0  0  0  0  0  0  0  0  0  0  0  0
   19.0856  -21.5884  -13.6842 O   0  0  0  0  0  0  0  0  0  0  0  0
  2 13  1  0
  2  1  1  6
  3  4  1  0
  3  2  1  0
  4 12  1  0
  5  4  2  0
  5  6  1  0
  6  7  1  0
  7 12  2  0
  7  8  1  0
  8  9  2  0
  9 10  1  0
 11 10  2  0
 12 11  1  0
 13 14  2  0
 15 16  1  0
 15 13  1  0
 16 17  1  6
 18 17  1  0
 19 18  1  0
 19 20  2  0
 21 16  1  0
 22 21  2  0
 23 19  1  0
 24 21  1  0
 25 29  1  0
 25 24  1  0
 25 26  1  6
 27 26  1  0
 28 27  2  0
 29 30  1  0
 31 27  1  0
 32 29  2  0
M  END
$$$$
