WED.pdb
     RDKit          3D

 32 33  0  0  1  0  0  0  0  0999 V2000
   27.5743  -21.6148  -14.1188 N   0  0  0  0  0  0  0  0  0  0  0  0
   26.5731  -21.2228  -13.1439 C   0  0  1  0  0  0  0  0  0  0  0  0
   27.0714  -19.9417  -12.5008 C   0  0  0  0  0  0  0  0  0  0  0  0
   28.1005  -20.2585  -11.4960 C   0  0  0  0  0  0  0  0  0  0  0  0
   29.4731  -20.1795  -11.5979 C   0  0  0  0  0  0  0  0  0  0  0  0
   29.9995  -20.5830  -10.4199 N   0  0  0  0  0  0  0  0  0  0  0  0
   29.0262  -20.9198   -9.5593 C   0  0  0  0  0  0  0  0  0  0  0  0
   28.9983  -21.3871   -8.2441 C   0  0  0  0  0  0  0  0  0  0  0  0
   27.7993  -21.6458   -7.6158 C   0  0  0  0  0  0  0  0  0  0  0  0
   26.5969  -21.4527   -8.2611 C   0  0  0  0  0  0  0  0  0  0  0  0
   26.6431  -20.9918   -9.5579 C   0  0  0  0  0  0  0  0  0  0  0  0
   27.8347  -20.7229  -10.2156 C   0  0  0  0  0  0  0  0  0  0  0  0
   25.2894  -21.0089  -13.8808 C   0  0  0  0  0  0  0  0  0  0  0  0
   25.2604  -20.4446  -15.0017 O   0  0  0  0  0  0  0  0  0  0  0  0
   24.0418  -21.4247  -13.3643 N   0  0  0  0  0  0  0  0  0  0  0  0
   22.7838  -21.3449  -13.9811 C   0  0  1  0  0  0  0  0  0  0  0  0
   21.9376  -22.5790  -14.0524 C   0  0  0  0  0  0  0  0  0  0  0  0
   20.6962  -22.4700  -14.8964 C   0  0  0  0  0  0  0  0  0  0  0  0
   19.8743  -23.7172  -14.8995 C   0  0  0  0  0  0  0  0  0  0  0  0
   18.7135  -23.6284  -14.4275 O   0  0  0  0  0  0  0  0  0  0  0  0
   21.9614  -20.2045  -13.5629 C   0  0  0  0  0  0  0  0  0  0  0  0
   21.8713  -19.9837  -12.3334 O   0  0  0  0  0  0  0  0  0  0  0  0
   20.2782  -24.9429  -15.3737 O   0  0  0  0  0  0  0  0  0  0  0  0
   21.3146  -19.4101  -14.5189 N   0  0  0  0  0  0  0  0  0  0  0  0
   20.5042  -18.2466  -14.1314 C   0  0  1  0  0  0  0  0  0  0  0  0
   20.2884  -17.4492  -15.3628 C   0  0  0  0  0  0  0  0  0  0  0  0
   19.4065  -18.0732  -16.3679 C   0  0  0  0  0  0  0  0  0  0  0  0
   19.1801  -19.3006  -16.3205 O   0  0  0  0  0  0  0  0  0  0  0  0
   19.2509  -18.7716  -13.5396 C   0  0  0  0  0  0  0  0  0  0  0  0
   18.4018  -17.9210  -12.8311 O   0  0  0  0  0  0  0  0  0  0  0  0
   18.8579  -17.2388  -17.3415 O   0  0  0  0  0  0  0  0  0  0  0  0
   18.8634  -19.9613  -13.6212 O   0  0  0  0  0  0  0  0  0  0  0  0
  2 13  1  0
  2  1  1  6
  3  4  1  0
  3  2  1  0
  4 12  1  0
  5  4  2  0
  5  6  1  0
  6  7  1  0
  7 12  2  0
  7  8  1  0
  8  9  2  0
  9 10  1  0
 11 10  2  0
 12 11  1  0
 13 14  2  0
 15 16  1  0
 15 13  1  0
 16 17  1  1
 18 17  1  0
 19 18  1  0
 19 20  2  0
 21 16  1  0
 22 21  2  0
 23 19  1  0
 24 21  1  0
 25 29  1  0
 25 24  1  0
 25 26  1  6
 27 26  1  0
 28 27  2  0
 29 30  1  0
 31 27  1  0
 32 29  2  0
M  END
$$$$
