WED.pdb
     RDKit          3D

 32 33  0  0  1  0  0  0  0  0999 V2000
   25.7129  -19.3903   -9.6101 N   0  0  0  0  0  0  0  0  0  0  0  0
   26.6281  -19.8370  -10.6442 C   0  0  1  0  0  0  0  0  0  0  0  0
   27.0239  -21.2585  -10.2894 C   0  0  0  0  0  0  0  0  0  0  0  0
   27.9846  -21.2421   -9.1732 C   0  0  0  0  0  0  0  0  0  0  0  0
   27.7887  -20.8759   -7.8586 C   0  0  0  0  0  0  0  0  0  0  0  0
   28.9662  -21.0177   -7.2096 N   0  0  0  0  0  0  0  0  0  0  0  0
   29.9163  -21.4602   -8.0480 C   0  0  0  0  0  0  0  0  0  0  0  0
   31.2704  -21.7739   -7.9181 C   0  0  0  0  0  0  0  0  0  0  0  0
   31.9951  -22.2208   -9.0016 C   0  0  0  0  0  0  0  0  0  0  0  0
   31.4104  -22.3716  -10.2406 C   0  0  0  0  0  0  0  0  0  0  0  0
   30.0743  -22.0573  -10.3507 C   0  0  0  0  0  0  0  0  0  0  0  0
   29.3199  -21.6054   -9.2778 C   0  0  0  0  0  0  0  0  0  0  0  0
   25.8967  -19.7753  -11.9473 C   0  0  0  0  0  0  0  0  0  0  0  0
   24.6425  -19.7644  -11.9980 O   0  0  0  0  0  0  0  0  0  0  0  0
   26.5671  -19.7268  -13.1900 N   0  0  0  0  0  0  0  0  0  0  0  0
   26.0142  -19.4978  -14.4592 C   0  0  1  0  0  0  0  0  0  0  0  0
   26.9379  -19.2681  -15.6161 C   0  0  0  0  0  0  0  0  0  0  0  0
   27.9204  -18.1399  -15.4515 C   0  0  0  0  0  0  0  0  0  0  0  0
   28.7930  -17.9393  -16.6471 C   0  0  0  0  0  0  0  0  0  0  0  0
   28.5135  -16.9671  -17.3920 O   0  0  0  0  0  0  0  0  0  0  0  0
   24.9548  -20.4340  -14.8503 C   0  0  0  0  0  0  0  0  0  0  0  0
   25.2919  -21.6195  -15.0733 O   0  0  0  0  0  0  0  0  0  0  0  0
   29.8683  -18.7219  -16.9957 O   0  0  0  0  0  0  0  0  0  0  0  0
   23.6286  -19.9958  -14.9617 N   0  0  0  0  0  0  0  0  0  0  0  0
   22.5178  -20.9421  -15.1376 C   0  0  1  0  0  0  0  0  0  0  0  0
   21.7687  -20.9618  -13.8581 C   0  0  0  0  0  0  0  0  0  0  0  0
   20.5441  -21.7850  -13.8605 C   0  0  0  0  0  0  0  0  0  0  0  0
   20.1918  -22.3728  -14.9048 O   0  0  0  0  0  0  0  0  0  0  0  0
   21.7152  -20.4569  -16.2854 C   0  0  0  0  0  0  0  0  0  0  0  0
   20.8090  -21.3099  -16.9158 O   0  0  0  0  0  0  0  0  0  0  0  0
   19.8273  -21.8661  -12.6669 O   0  0  0  0  0  0  0  0  0  0  0  0
   21.7753  -19.2992  -16.7632 O   0  0  0  0  0  0  0  0  0  0  0  0
  2 13  1  0
  2  1  1  1
  3  4  1  0
  3  2  1  0
  4 12  1  0
  5  4  2  0
  5  6  1  0
  6  7  1  0
  7 12  2  0
  7  8  1  0
  8  9  2  0
  9 10  1  0
 11 10  2  0
 12 11  1  0
 13 14  2  0
 15 16  1  0
 15 13  1  0
 16 17  1  6
 18 17  1  0
 19 18  1  0
 19 20  2  0
 21 16  1  0
 22 21  2  0
 23 19  1  0
 24 21  1  0
 25 29  1  0
 25 24  1  0
 25 26  1  1
 27 26  1  0
 28 27  2  0
 29 30  1  0
 31 27  1  0
 32 29  2  0
M  END
$$$$
