WED.pdb
     RDKit          3D

 32 33  0  0  1  0  0  0  0  0999 V2000
   16.7034  -17.9898    5.2740 N   0  0  0  0  0  0  0  0  0  0  0  0
   17.4078  -19.0387    4.5597 C   0  0  1  0  0  0  0  0  0  0  0  0
   18.7877  -18.4945    4.2392 C   0  0  0  0  0  0  0  0  0  0  0  0
   18.6629  -17.2778    3.4185 C   0  0  0  0  0  0  0  0  0  0  0  0
   17.5874  -16.4270    3.2775 C   0  0  0  0  0  0  0  0  0  0  0  0
   17.9412  -15.4531    2.4091 N   0  0  0  0  0  0  0  0  0  0  0  0
   19.2002  -15.6370    1.9818 C   0  0  0  0  0  0  0  0  0  0  0  0
   20.0490  -14.9549    1.1083 C   0  0  0  0  0  0  0  0  0  0  0  0
   21.3282  -15.4102    0.8730 C   0  0  0  0  0  0  0  0  0  0  0  0
   21.8080  -16.5462    1.4886 C   0  0  0  0  0  0  0  0  0  0  0  0
   20.9573  -17.2066    2.3466 C   0  0  0  0  0  0  0  0  0  0  0  0
   19.6650  -16.7718    2.6026 C   0  0  0  0  0  0  0  0  0  0  0  0
   17.4785  -20.2276    5.4644 C   0  0  0  0  0  0  0  0  0  0  0  0
   17.5561  -20.1020    6.7110 O   0  0  0  0  0  0  0  0  0  0  0  0
   17.4630  -21.5529    4.9751 N   0  0  0  0  0  0  0  0  0  0  0  0
   17.8875  -22.7186    5.6309 C   0  0  1  0  0  0  0  0  0  0  0  0
   17.8984  -24.0091    4.8700 C   0  0  0  0  0  0  0  0  0  0  0  0
   18.1824  -25.2430    5.6837 C   0  0  0  0  0  0  0  0  0  0  0  0
   18.1281  -26.5025    4.8826 C   0  0  0  0  0  0  0  0  0  0  0  0
   16.9905  -26.8876    4.5146 O   0  0  0  0  0  0  0  0  0  0  0  0
   19.1350  -22.5815    6.3903 C   0  0  0  0  0  0  0  0  0  0  0  0
   20.1160  -22.0804    5.7945 O   0  0  0  0  0  0  0  0  0  0  0  0
   19.2103  -27.2672    4.5160 O   0  0  0  0  0  0  0  0  0  0  0  0
   19.2002  -23.0005    7.7258 N   0  0  0  0  0  0  0  0  0  0  0  0
   20.4387  -22.8850    8.5088 C   0  0  1  0  0  0  0  0  0  0  0  0
   20.2120  -21.8135    9.5084 C   0  0  0  0  0  0  0  0  0  0  0  0
   21.3104  -21.6126   10.4730 C   0  0  0  0  0  0  0  0  0  0  0  0
   21.3727  -22.3195   11.5009 O   0  0  0  0  0  0  0  0  0  0  0  0
   20.6923  -24.2141    9.1138 C   0  0  0  0  0  0  0  0  0  0  0  0
   21.8641  -24.4422    9.8358 O   0  0  0  0  0  0  0  0  0  0  0  0
   22.2448  -20.6200   10.1787 O   0  0  0  0  0  0  0  0  0  0  0  0
   19.9168  -25.1964    9.0360 O   0  0  0  0  0  0  0  0  0  0  0  0
  2 13  1  0
  2  1  1  1
  3  4  1  0
  3  2  1  0
  4 12  1  0
  5  4  2  0
  5  6  1  0
  6  7  1  0
  7 12  2  0
  7  8  1  0
  8  9  2  0
  9 10  1  0
 11 10  2  0
 12 11  1  0
 13 14  2  0
 15 16  1  0
 15 13  1  0
 16 17  1  6
 18 17  1  0
 19 18  1  0
 19 20  2  0
 21 16  1  0
 22 21  2  0
 23 19  1  0
 24 21  1  0
 25 29  1  0
 25 24  1  0
 25 26  1  1
 27 26  1  0
 28 27  2  0
 29 30  1  0
 31 27  1  0
 32 29  2  0
M  END
$$$$
