WED.pdb
     RDKit          3D

 32 33  0  0  1  0  0  0  0  0999 V2000
   16.2301  -16.5036    5.6513 N   0  0  0  0  0  0  0  0  0  0  0  0
   17.3260  -17.3878    5.2998 C   0  0  1  0  0  0  0  0  0  0  0  0
   18.5997  -16.5725    5.4269 C   0  0  0  0  0  0  0  0  0  0  0  0
   18.6675  -15.5850    4.3363 C   0  0  0  0  0  0  0  0  0  0  0  0
   18.0593  -14.3517    4.2369 C   0  0  0  0  0  0  0  0  0  0  0  0
   18.4096  -13.8122    3.0478 N   0  0  0  0  0  0  0  0  0  0  0  0
   19.2189  -14.6435    2.3730 C   0  0  0  0  0  0  0  0  0  0  0  0
   19.8622  -14.5959    1.1350 C   0  0  0  0  0  0  0  0  0  0  0  0
   20.6534  -15.6425    0.7136 C   0  0  0  0  0  0  0  0  0  0  0  0
   20.8344  -16.7628    1.4958 C   0  0  0  0  0  0  0  0  0  0  0  0
   20.1923  -16.7931    2.7135 C   0  0  0  0  0  0  0  0  0  0  0  0
   19.3899  -15.7548    3.1636 C   0  0  0  0  0  0  0  0  0  0  0  0
   17.3041  -18.5330    6.2616 C   0  0  0  0  0  0  0  0  0  0  0  0
   17.0510  -18.3646    7.4795 O   0  0  0  0  0  0  0  0  0  0  0  0
   17.5654  -19.8626    5.8614 N   0  0  0  0  0  0  0  0  0  0  0  0
   17.8092  -20.9766    6.6791 C   0  0  1  0  0  0  0  0  0  0  0  0
   17.5818  -22.3462    6.1162 C   0  0  0  0  0  0  0  0  0  0  0  0
   18.4226  -22.7074    4.9213 C   0  0  0  0  0  0  0  0  0  0  0  0
   18.0993  -24.0527    4.3584 C   0  0  0  0  0  0  0  0  0  0  0  0
   17.1182  -24.6536    4.8627 O   0  0  0  0  0  0  0  0  0  0  0  0
   19.0842  -20.9448    7.4035 C   0  0  0  0  0  0  0  0  0  0  0  0
   20.0639  -20.4310    6.8162 O   0  0  0  0  0  0  0  0  0  0  0  0
   18.7789  -24.6813    3.3419 O   0  0  0  0  0  0  0  0  0  0  0  0
   19.1762  -21.4730    8.6981 N   0  0  0  0  0  0  0  0  0  0  0  0
   20.4377  -21.4468    9.4520 C   0  0  1  0  0  0  0  0  0  0  0  0
   20.0761  -21.2909   10.8815 C   0  0  0  0  0  0  0  0  0  0  0  0
   19.7911  -19.9078   11.3095 C   0  0  0  0  0  0  0  0  0  0  0  0
   20.2584  -18.9475   10.6617 O   0  0  0  0  0  0  0  0  0  0  0  0
   21.1439  -22.7157    9.1556 C   0  0  0  0  0  0  0  0  0  0  0  0
   22.4080  -22.9555    9.6951 O   0  0  0  0  0  0  0  0  0  0  0  0
   18.9949  -19.7414   12.4423 O   0  0  0  0  0  0  0  0  0  0  0  0
   20.6909  -23.6364    8.4349 O   0  0  0  0  0  0  0  0  0  0  0  0
  2 13  1  0
  2  1  1  1
  3  4  1  0
  3  2  1  0
  4 12  1  0
  5  4  2  0
  5  6  1  0
  6  7  1  0
  7 12  2  0
  7  8  1  0
  8  9  2  0
  9 10  1  0
 11 10  2  0
 12 11  1  0
 13 14  2  0
 15 16  1  0
 15 13  1  0
 16 17  1  6
 18 17  1  0
 19 18  1  0
 19 20  2  0
 21 16  1  0
 22 21  2  0
 23 19  1  0
 24 21  1  0
 25 29  1  0
 25 24  1  0
 25 26  1  1
 27 26  1  0
 28 27  2  0
 29 30  1  0
 31 27  1  0
 32 29  2  0
M  END
$$$$
