PGM.pdb
     RDKit          3D

 20 20  0  0  1  0  0  0  0  0999 V2000
   26.0155  -20.0245  -16.1781 N   0  0  0  0  0  0  0  0  0  0  0  0
   25.3542  -19.6312  -17.4305 C   0  0  0  0  0  0  0  0  0  0  0  0
   24.3606  -18.5824  -16.9778 C   0  0  0  0  0  0  0  0  0  0  0  0
   24.8073  -18.1710  -15.5742 C   0  0  0  0  0  0  0  0  0  0  0  0
   26.2368  -18.7135  -15.5815 C   0  0  1  0  0  0  0  0  0  0  0  0
   26.8023  -18.8458  -14.2395 C   0  0  0  0  0  0  0  0  0  0  0  0
   26.3958  -18.0848  -13.3247 O   0  0  0  0  0  0  0  0  0  0  0  0
   27.7939  -19.8020  -13.9287 N   0  0  0  0  0  0  0  0  0  0  0  0
   27.4164  -21.2004  -13.9146 C   0  0  0  0  0  0  0  0  0  0  0  0
   26.6552  -21.5769  -12.7257 C   0  0  0  0  0  0  0  0  0  0  0  0
   25.7241  -22.4076  -12.8113 O   0  0  0  0  0  0  0  0  0  0  0  0
   27.9711  -18.6514   -7.0796 C   0  0  0  0  0  0  0  0  0  0  0  0
   27.1224  -20.1372   -6.4378 S   0  0  0  0  0  0  0  0  0  0  0  0
   26.1419  -20.8706   -7.7887 C   0  0  0  0  0  0  0  0  0  0  0  0
   26.8954  -20.7258   -9.0656 C   0  0  0  0  0  0  0  0  0  0  0  0
   26.1961  -21.3008  -10.2515 C   0  0  2  0  0  0  0  0  0  0  0  0
   26.9535  -21.0124  -11.4624 N   0  0  0  0  0  0  0  0  0  0  0  0
   24.8389  -20.7703  -10.4327 C   0  0  0  0  0  0  0  0  0  0  0  0
   23.9307  -21.0493   -9.6191 O   0  0  0  0  0  0  0  0  0  0  0  0
   24.5525  -19.9518  -11.5132 O   0  0  0  0  0  0  0  0  0  0  0  0
  1  2  1  0
  1  5  1  0
  2  3  1  0
  3  4  1  0
  5  4  1  0
  5  6  1  1
  6  7  2  0
  8  6  1  0
  9  8  1  0
  9 10  1  0
 10 17  1  0
 11 10  2  0
 13 12  1  0
 14 13  1  0
 15 14  1  0
 16 15  1  1
 16 18  1  0
 17 16  1  0
 18 19  2  0
 18 20  1  0
M  END
$$$$
