PGM.pdb
     RDKit          3D

 20 20  0  0  1  0  0  0  0  0999 V2000
   44.8942  -18.0141   -7.5327 N   0  0  0  0  0  0  0  0  0  0  0  0
   43.8391  -18.9153   -7.0481 C   0  0  0  0  0  0  0  0  0  0  0  0
   43.1292  -18.0803   -6.0037 C   0  0  0  0  0  0  0  0  0  0  0  0
   43.5750  -16.6393   -6.2562 C   0  0  0  0  0  0  0  0  0  0  0  0
   44.1333  -16.7792   -7.6727 C   0  0  1  0  0  0  0  0  0  0  0  0
   45.0109  -15.6722   -8.0505 C   0  0  0  0  0  0  0  0  0  0  0  0
   44.5180  -14.5271   -8.2148 O   0  0  0  0  0  0  0  0  0  0  0  0
   46.4003  -15.8403   -8.2390 N   0  0  0  0  0  0  0  0  0  0  0  0
   47.2518  -14.6731   -8.1350 C   0  0  0  0  0  0  0  0  0  0  0  0
   47.9304  -14.5715   -6.8452 C   0  0  0  0  0  0  0  0  0  0  0  0
   47.3601  -14.0257   -5.8750 O   0  0  0  0  0  0  0  0  0  0  0  0
   52.6902  -18.6521   -4.7412 C   0  0  0  0  0  0  0  0  0  0  0  0
   51.7285  -18.0220   -3.3207 S   0  0  0  0  0  0  0  0  0  0  0  0
   51.1915  -16.3206   -3.6964 C   0  0  0  0  0  0  0  0  0  0  0  0
   50.4736  -16.3182   -5.0017 C   0  0  0  0  0  0  0  0  0  0  0  0
   49.9866  -14.9727   -5.4241 C   0  0  2  0  0  0  0  0  0  0  0  0
   49.2379  -15.0841   -6.6691 N   0  0  0  0  0  0  0  0  0  0  0  0
   51.0731  -14.0080   -5.6372 C   0  0  0  0  0  0  0  0  0  0  0  0
   51.4309  -13.6953   -6.7942 O   0  0  0  0  0  0  0  0  0  0  0  0
   51.7140  -13.4339   -4.5514 O   0  0  0  0  0  0  0  0  0  0  0  0
  1  2  1  0
  1  5  1  0
  2  3  1  0
  3  4  1  0
  5  4  1  0
  5  6  1  1
  6  7  2  0
  8  6  1  0
  9  8  1  0
  9 10  1  0
 10 17  1  0
 11 10  2  0
 13 12  1  0
 14 13  1  0
 15 14  1  0
 16 15  1  6
 16 18  1  0
 17 16  1  0
 18 19  2  0
 18 20  1  0
M  END
$$$$
