PGM.pdb
     RDKit          3D

 20 20  0  0  1  0  0  0  0  0999 V2000
   19.2196  -11.9404  -19.2529 N   0  0  0  0  0  0  0  0  0  0  0  0
   19.0483  -13.1237  -20.1079 C   0  0  0  0  0  0  0  0  0  0  0  0
   17.8824  -13.8442  -19.4650 C   0  0  0  0  0  0  0  0  0  0  0  0
   17.2252  -12.8196  -18.5392 C   0  0  0  0  0  0  0  0  0  0  0  0
   17.8294  -11.5313  -19.0987 C   0  0  1  0  0  0  0  0  0  0  0  0
   17.7228  -10.4039  -18.1735 C   0  0  0  0  0  0  0  0  0  0  0  0
   16.5891   -9.9212  -17.9227 O   0  0  0  0  0  0  0  0  0  0  0  0
   18.8515   -9.8324  -17.5460 N   0  0  0  0  0  0  0  0  0  0  0  0
   18.6355   -8.7787  -16.5759 C   0  0  0  0  0  0  0  0  0  0  0  0
   19.8731   -8.2987  -15.9656 C   0  0  0  0  0  0  0  0  0  0  0  0
   19.8352   -7.4401  -15.0569 O   0  0  0  0  0  0  0  0  0  0  0  0
   27.3132  -10.6476  -14.7541 C   0  0  0  0  0  0  0  0  0  0  0  0
   25.8535  -10.6563  -15.8537 S   0  0  0  0  0  0  0  0  0  0  0  0
   24.6417   -9.4537  -15.2137 C   0  0  0  0  0  0  0  0  0  0  0  0
   23.3958   -9.5456  -16.0252 C   0  0  0  0  0  0  0  0  0  0  0  0
   22.3830   -8.4985  -15.7029 C   0  0  2  0  0  0  0  0  0  0  0  0
   21.1309   -8.7914  -16.3882 N   0  0  0  0  0  0  0  0  0  0  0  0
   22.8059   -7.1483  -16.0959 C   0  0  0  0  0  0  0  0  0  0  0  0
   22.5194   -6.6933  -17.2253 O   0  0  0  0  0  0  0  0  0  0  0  0
   23.5302   -6.3636  -15.2132 O   0  0  0  0  0  0  0  0  0  0  0  0
  1  2  1  0
  1  5  1  0
  2  3  1  0
  3  4  1  0
  5  4  1  0
  5  6  1  1
  6  7  2  0
  8  6  1  0
  9  8  1  0
  9 10  1  0
 10 17  1  0
 11 10  2  0
 13 12  1  0
 14 13  1  0
 15 14  1  0
 16 15  1  6
 16 18  1  0
 17 16  1  0
 18 19  2  0
 18 20  1  0
M  END
$$$$
