PGM.pdb
     RDKit          3D

 20 20  0  0  1  0  0  0  0  0999 V2000
   27.7629  -19.4391  -15.1853 N   0  0  0  0  0  0  0  0  0  0  0  0
   28.7867  -19.6581  -16.2170 C   0  0  0  0  0  0  0  0  0  0  0  0
   29.2162  -21.0893  -15.9742 C   0  0  0  0  0  0  0  0  0  0  0  0
   28.1283  -21.7012  -15.0906 C   0  0  0  0  0  0  0  0  0  0  0  0
   27.0095  -20.6809  -15.3030 C   0  0  1  0  0  0  0  0  0  0  0  0
   25.9705  -20.7535  -14.2767 C   0  0  0  0  0  0  0  0  0  0  0  0
   25.1765  -21.7286  -14.2754 O   0  0  0  0  0  0  0  0  0  0  0  0
   25.8233  -19.7644  -13.2796 N   0  0  0  0  0  0  0  0  0  0  0  0
   24.8193  -19.9681  -12.2556 C   0  0  0  0  0  0  0  0  0  0  0  0
   25.3086  -20.7451  -11.1192 C   0  0  0  0  0  0  0  0  0  0  0  0
   25.2419  -21.9939  -11.1350 O   0  0  0  0  0  0  0  0  0  0  0  0
   29.0883  -18.5527   -6.4981 C   0  0  0  0  0  0  0  0  0  0  0  0
   27.8572  -19.2793   -5.3596 S   0  0  0  0  0  0  0  0  0  0  0  0
   26.7269  -20.3327   -6.3276 C   0  0  0  0  0  0  0  0  0  0  0  0
   26.7120  -19.8553   -7.7387 C   0  0  0  0  0  0  0  0  0  0  0  0
   25.9002  -20.7048   -8.6581 C   0  0  2  0  0  0  0  0  0  0  0  0
   25.8631  -20.1045   -9.9853 N   0  0  0  0  0  0  0  0  0  0  0  0
   24.5145  -20.8817   -8.2055 C   0  0  0  0  0  0  0  0  0  0  0  0
   23.5754  -20.2849   -8.7769 O   0  0  0  0  0  0  0  0  0  0  0  0
   24.2354  -21.7158   -7.1350 O   0  0  0  0  0  0  0  0  0  0  0  0
  1  2  1  0
  1  5  1  0
  2  3  1  0
  3  4  1  0
  5  4  1  0
  5  6  1  1
  6  7  2  0
  8  6  1  0
  9  8  1  0
  9 10  1  0
 10 17  1  0
 11 10  2  0
 13 12  1  0
 14 13  1  0
 15 14  1  0
 16 15  1  1
 16 18  1  0
 17 16  1  0
 18 19  2  0
 18 20  1  0
M  END
$$$$
