PGM.pdb
     RDKit          3D

 20 20  0  0  1  0  0  0  0  0999 V2000
   23.7642  -20.3341  -13.8910 N   0  0  0  0  0  0  0  0  0  0  0  0
   22.7387  -19.5951  -14.6412 C   0  0  0  0  0  0  0  0  0  0  0  0
   23.4831  -18.3662  -15.1184 C   0  0  0  0  0  0  0  0  0  0  0  0
   24.9675  -18.6918  -14.9469 C   0  0  0  0  0  0  0  0  0  0  0  0
   24.8907  -20.2125  -14.8074 C   0  0  1  0  0  0  0  0  0  0  0  0
   26.0982  -20.7920  -14.2207 C   0  0  0  0  0  0  0  0  0  0  0  0
   27.2110  -20.5701  -14.7626 O   0  0  0  0  0  0  0  0  0  0  0  0
   26.0631  -21.5965  -13.0606 N   0  0  0  0  0  0  0  0  0  0  0  0
   27.1917  -21.5413  -12.1544 C   0  0  0  0  0  0  0  0  0  0  0  0
   26.8040  -21.6374  -10.7490 C   0  0  0  0  0  0  0  0  0  0  0  0
   26.1949  -22.6469  -10.3316 O   0  0  0  0  0  0  0  0  0  0  0  0
   29.5099  -19.3864   -5.1733 C   0  0  0  0  0  0  0  0  0  0  0  0
   27.8999  -20.2476   -5.2511 S   0  0  0  0  0  0  0  0  0  0  0  0
   26.7818  -19.2853   -6.3225 C   0  0  0  0  0  0  0  0  0  0  0  0
   27.2351  -19.4175   -7.7355 C   0  0  0  0  0  0  0  0  0  0  0  0
   26.5969  -20.5456   -8.4745 C   0  0  2  0  0  0  0  0  0  0  0  0
   27.1069  -20.5970   -9.8385 N   0  0  0  0  0  0  0  0  0  0  0  0
   25.1344  -20.4335   -8.5449 C   0  0  0  0  0  0  0  0  0  0  0  0
   24.5893  -19.7467   -9.4370 O   0  0  0  0  0  0  0  0  0  0  0  0
   24.3427  -21.0915   -7.6177 O   0  0  0  0  0  0  0  0  0  0  0  0
  1  2  1  0
  1  5  1  0
  2  3  1  0
  3  4  1  0
  5  4  1  0
  5  6  1  1
  6  7  2  0
  8  6  1  0
  9  8  1  0
  9 10  1  0
 10 17  1  0
 11 10  2  0
 13 12  1  0
 14 13  1  0
 15 14  1  0
 16 15  1  6
 16 18  1  0
 17 16  1  0
 18 19  2  0
 18 20  1  0
M  END
$$$$
