PGM.pdb
     RDKit          3D

 20 20  0  0  1  0  0  0  0  0999 V2000
   25.1738  -19.6626  -13.4591 N   0  0  0  0  0  0  0  0  0  0  0  0
   24.3263  -18.7665  -14.2585 C   0  0  0  0  0  0  0  0  0  0  0  0
   25.3134  -17.7532  -14.7978 C   0  0  0  0  0  0  0  0  0  0  0  0
   26.6951  -18.3768  -14.5957 C   0  0  0  0  0  0  0  0  0  0  0  0
   26.2970  -19.8359  -14.3713 C   0  0  1  0  0  0  0  0  0  0  0  0
   27.3557  -20.6245  -13.7425 C   0  0  0  0  0  0  0  0  0  0  0  0
   28.4881  -20.6757  -14.2868 O   0  0  0  0  0  0  0  0  0  0  0  0
   27.1545  -21.3356  -12.5392 N   0  0  0  0  0  0  0  0  0  0  0  0
   28.3195  -21.7363  -11.7774 C   0  0  0  0  0  0  0  0  0  0  0  0
   28.2130  -21.4162  -10.3558 C   0  0  0  0  0  0  0  0  0  0  0  0
   29.0466  -21.8738   -9.5433 O   0  0  0  0  0  0  0  0  0  0  0  0
   29.2380  -20.2781   -4.7385 C   0  0  0  0  0  0  0  0  0  0  0  0
   28.3133  -18.8221   -5.3424 S   0  0  0  0  0  0  0  0  0  0  0  0
   26.8821  -19.4074   -6.3086 C   0  0  0  0  0  0  0  0  0  0  0  0
   27.2542  -19.4399   -7.7508 C   0  0  0  0  0  0  0  0  0  0  0  0
   26.6994  -20.6082   -8.4945 C   0  0  2  0  0  0  0  0  0  0  0  0
   27.1712  -20.5886   -9.8729 N   0  0  0  0  0  0  0  0  0  0  0  0
   25.2313  -20.6288   -8.5217 C   0  0  0  0  0  0  0  0  0  0  0  0
   24.6074  -20.2933   -9.5526 O   0  0  0  0  0  0  0  0  0  0  0  0
   24.5221  -21.0221   -7.3984 O   0  0  0  0  0  0  0  0  0  0  0  0
  1  2  1  0
  1  5  1  0
  2  3  1  0
  3  4  1  0
  5  4  1  0
  5  6  1  1
  6  7  2  0
  8  6  1  0
  9  8  1  0
  9 10  1  0
 10 17  1  0
 11 10  2  0
 13 12  1  0
 14 13  1  0
 15 14  1  0
 16 15  1  1
 16 18  1  0
 17 16  1  0
 18 19  2  0
 18 20  1  0
M  END
$$$$
