PGM.pdb
     RDKit          3D

 20 20  0  0  1  0  0  0  0  0999 V2000
   26.2666  -23.2578  -15.2964 N   0  0  0  0  0  0  0  0  0  0  0  0
   25.6034  -24.2610  -16.1416 C   0  0  0  0  0  0  0  0  0  0  0  0
   24.4160  -24.6836  -15.3029 C   0  0  0  0  0  0  0  0  0  0  0  0
   24.2682  -23.6072  -14.2267 C   0  0  0  0  0  0  0  0  0  0  0  0
   25.1097  -22.4928  -14.8495 C   0  0  1  0  0  0  0  0  0  0  0  0
   25.5085  -21.4720  -13.8814 C   0  0  0  0  0  0  0  0  0  0  0  0
   24.6526  -20.6464  -13.4726 O   0  0  0  0  0  0  0  0  0  0  0  0
   26.8268  -21.3768  -13.3840 N   0  0  0  0  0  0  0  0  0  0  0  0
   27.0906  -20.4302  -12.3198 C   0  0  0  0  0  0  0  0  0  0  0  0
   26.7977  -20.9641  -10.9918 C   0  0  0  0  0  0  0  0  0  0  0  0
   26.7525  -22.2002  -10.8061 O   0  0  0  0  0  0  0  0  0  0  0  0
   29.5734  -19.1989   -5.5520 C   0  0  0  0  0  0  0  0  0  0  0  0
   27.8246  -18.9391   -5.0894 S   0  0  0  0  0  0  0  0  0  0  0  0
   26.7850  -20.0066   -6.1400 C   0  0  0  0  0  0  0  0  0  0  0  0
   27.0547  -19.6865   -7.5697 C   0  0  0  0  0  0  0  0  0  0  0  0
   26.3337  -20.5664   -8.5351 C   0  0  2  0  0  0  0  0  0  0  0  0
   26.5598  -20.0994   -9.8967 N   0  0  0  0  0  0  0  0  0  0  0  0
   24.8835  -20.6040   -8.3074 C   0  0  0  0  0  0  0  0  0  0  0  0
   24.1007  -20.0069   -9.0789 O   0  0  0  0  0  0  0  0  0  0  0  0
   24.3684  -21.3053   -7.2293 O   0  0  0  0  0  0  0  0  0  0  0  0
  1  2  1  0
  1  5  1  0
  2  3  1  0
  3  4  1  0
  5  4  1  0
  5  6  1  1
  6  7  2  0
  8  6  1  0
  9  8  1  0
  9 10  1  0
 10 17  1  0
 11 10  2  0
 13 12  1  0
 14 13  1  0
 15 14  1  0
 16 15  1  1
 16 18  1  0
 17 16  1  0
 18 19  2  0
 18 20  1  0
M  END
$$$$
