PGM.pdb
     RDKit          3D

 20 20  0  0  1  0  0  0  0  0999 V2000
   26.6032  -17.4215  -13.8191 N   0  0  0  0  0  0  0  0  0  0  0  0
   26.5650  -16.1641  -14.5794 C   0  0  0  0  0  0  0  0  0  0  0  0
   26.7730  -16.6214  -16.0075 C   0  0  0  0  0  0  0  0  0  0  0  0
   26.5129  -18.1285  -15.9990 C   0  0  0  0  0  0  0  0  0  0  0  0
   25.7696  -18.2615  -14.6695 C   0  0  1  0  0  0  0  0  0  0  0  0
   25.7404  -19.6350  -14.1686 C   0  0  0  0  0  0  0  0  0  0  0  0
   24.9331  -20.4556  -14.6747 O   0  0  0  0  0  0  0  0  0  0  0  0
   26.5898  -20.0789  -13.1314 N   0  0  0  0  0  0  0  0  0  0  0  0
   26.6128  -21.4941  -12.8235 C   0  0  0  0  0  0  0  0  0  0  0  0
   26.5352  -21.7706  -11.3910 C   0  0  0  0  0  0  0  0  0  0  0  0
   26.4682  -22.9500  -10.9802 O   0  0  0  0  0  0  0  0  0  0  0  0
   28.1364  -19.4132   -4.1153 C   0  0  0  0  0  0  0  0  0  0  0  0
   28.2902  -19.1499   -5.9171 S   0  0  0  0  0  0  0  0  0  0  0  0
   27.0043  -20.1332   -6.7560 C   0  0  0  0  0  0  0  0  0  0  0  0
   27.2333  -20.0730   -8.2268 C   0  0  0  0  0  0  0  0  0  0  0  0
   26.2894  -20.9106   -9.0227 C   0  0  2  0  0  0  0  0  0  0  0  0
   26.5332  -20.7167  -10.4461 N   0  0  0  0  0  0  0  0  0  0  0  0
   24.8793  -20.5958   -8.7607 C   0  0  0  0  0  0  0  0  0  0  0  0
   24.1969  -19.9735   -9.6044 O   0  0  0  0  0  0  0  0  0  0  0  0
   24.2906  -20.9880   -7.5694 O   0  0  0  0  0  0  0  0  0  0  0  0
  1  2  1  0
  1  5  1  0
  2  3  1  0
  3  4  1  0
  5  4  1  0
  5  6  1  1
  6  7  2  0
  8  6  1  0
  9  8  1  0
  9 10  1  0
 10 17  1  0
 11 10  2  0
 13 12  1  0
 14 13  1  0
 15 14  1  0
 16 15  1  1
 16 18  1  0
 17 16  1  0
 18 19  2  0
 18 20  1  0
M  END
$$$$
