PDT.pdb
     RDKit          3D

 23 23  0  0  1  0  0  0  0  0999 V2000
   18.0929  -11.7818  -15.3786 N   0  0  0  0  0  0  0  0  0  0  0  0
   17.1719  -12.5024  -16.2237 C   0  0  0  0  0  0  0  0  0  0  0  0
   17.5344  -12.0758  -17.6397 C   0  0  0  0  0  0  0  0  0  0  0  0
   19.0637  -12.0655  -17.4944 C   0  0  0  0  0  0  0  0  0  0  0  0
   19.1762  -11.2991  -16.1984 C   0  0  1  0  0  0  0  0  0  0  0  0
   19.0385   -9.8483  -16.3716 C   0  0  0  0  0  0  0  0  0  0  0  0
   19.8399   -9.2349  -17.1159 O   0  0  0  0  0  0  0  0  0  0  0  0
   18.0217   -9.0887  -15.7242 N   0  0  0  0  0  0  0  0  0  0  0  0
   17.8037   -7.6888  -15.8272 C   0  0  1  0  0  0  0  0  0  0  0  0
   16.3751   -7.2732  -15.5864 C   0  0  0  0  0  0  0  0  0  0  0  0
   15.5390   -8.0734  -16.5448 C   0  0  0  0  0  0  0  0  0  0  0  0
   15.7146   -7.9404  -17.7701 O   0  0  0  0  0  0  0  0  0  0  0  0
   18.7430   -6.8511  -15.0157 C   0  0  0  0  0  0  0  0  0  0  0  0
   18.8208   -6.9995  -13.7782 O   0  0  0  0  0  0  0  0  0  0  0  0
   14.5734   -8.9596  -16.1075 O   0  0  0  0  0  0  0  0  0  0  0  0
   22.8944   -4.5561  -14.4761 C   0  0  0  0  0  0  0  0  0  0  0  0
   21.9153   -5.4333  -15.2112 C   0  0  1  0  0  0  0  0  0  0  0  0
   22.0850   -6.7848  -14.8670 O   0  0  0  0  0  0  0  0  0  0  0  0
   20.4768   -5.0713  -14.8312 C   0  0  2  0  0  0  0  0  0  0  0  0
   19.5693   -5.8683  -15.6257 N   0  0  0  0  0  0  0  0  0  0  0  0
   20.2499   -3.6171  -15.0379 C   0  0  0  0  0  0  0  0  0  0  0  0
   20.2982   -2.6839  -14.0417 O   0  0  0  0  0  0  0  0  0  0  0  0
   19.9983   -3.2300  -16.2078 O   0  0  0  0  0  0  0  0  0  0  0  0
  1  5  1  0
  2  1  1  0
  2  3  1  0
  3  4  1  0
  5  4  1  0
  6  8  1  0
  5  6  1  6
  7  6  2  0
  9 13  1  0
  9  8  1  0
  9 10  1  1
 10 11  1  0
 11 15  1  0
 11 12  2  0
 13 20  1  0
 14 13  2  0
 17 16  1  1
 17 18  1  0
 19 17  1  0
 19 20  1  6
 21 22  1  0
 21 19  1  0
 23 21  2  0
M  END
$$$$
