PDT.pdb
     RDKit          3D

 23 23  0  0  1  0  0  0  0  0999 V2000
   18.2203  -12.3250  -15.3592 N   0  0  0  0  0  0  0  0  0  0  0  0
   17.1234  -12.9500  -16.0576 C   0  0  0  0  0  0  0  0  0  0  0  0
   17.1354  -12.3141  -17.4411 C   0  0  0  0  0  0  0  0  0  0  0  0
   18.6550  -12.2707  -17.6630 C   0  0  0  0  0  0  0  0  0  0  0  0
   19.0752  -11.6929  -16.3330 C   0  0  1  0  0  0  0  0  0  0  0  0
   18.8998  -10.2379  -16.2542 C   0  0  0  0  0  0  0  0  0  0  0  0
   19.4319   -9.5025  -17.1194 O   0  0  0  0  0  0  0  0  0  0  0  0
   18.1421   -9.6083  -15.2249 N   0  0  0  0  0  0  0  0  0  0  0  0
   18.0306   -8.2142  -14.9762 C   0  0  1  0  0  0  0  0  0  0  0  0
   16.6953   -7.7985  -14.4141 C   0  0  0  0  0  0  0  0  0  0  0  0
   15.6606   -8.2875  -15.3879 C   0  0  0  0  0  0  0  0  0  0  0  0
   15.7318   -7.9436  -16.5822 O   0  0  0  0  0  0  0  0  0  0  0  0
   19.1495   -7.6348  -14.1669 C   0  0  0  0  0  0  0  0  0  0  0  0
   19.2169   -7.8384  -12.9367 O   0  0  0  0  0  0  0  0  0  0  0  0
   14.6237   -9.1135  -14.9982 O   0  0  0  0  0  0  0  0  0  0  0  0
   22.5615   -8.5207  -14.5615 C   0  0  0  0  0  0  0  0  0  0  0  0
   22.5748   -7.0180  -14.6626 C   0  0  1  0  0  0  0  0  0  0  0  0
   22.5617   -6.5980  -16.0031 O   0  0  0  0  0  0  0  0  0  0  0  0
   21.3213   -6.4233  -14.0145 C   0  0  2  0  0  0  0  0  0  0  0  0
   20.1621   -6.8407  -14.7708 N   0  0  0  0  0  0  0  0  0  0  0  0
   21.4338   -4.9424  -13.9611 C   0  0  0  0  0  0  0  0  0  0  0  0
   20.6745   -4.0879  -14.7087 O   0  0  0  0  0  0  0  0  0  0  0  0
   22.2847   -4.4534  -13.1745 O   0  0  0  0  0  0  0  0  0  0  0  0
  1  5  1  0
  2  1  1  0
  2  3  1  0
  3  4  1  0
  5  4  1  0
  6  8  1  0
  5  6  1  6
  7  6  2  0
  9 13  1  0
  9  8  1  0
  9 10  1  1
 10 11  1  0
 11 15  1  0
 11 12  2  0
 13 20  1  0
 14 13  2  0
 17 16  1  6
 17 18  1  0
 19 17  1  0
 19 20  1  6
 21 22  1  0
 21 19  1  0
 23 21  2  0
M  END
$$$$
