PDT.pdb
     RDKit          3D

 23 23  0  0  1  0  0  0  0  0999 V2000
   26.7131  -21.5049  -15.3787 N   0  0  0  0  0  0  0  0  0  0  0  0
   27.5094  -20.8298  -16.3746 C   0  0  0  0  0  0  0  0  0  0  0  0
   26.9358  -19.4206  -16.4357 C   0  0  0  0  0  0  0  0  0  0  0  0
   26.6964  -19.2024  -14.9340 C   0  0  0  0  0  0  0  0  0  0  0  0
   26.0122  -20.5082  -14.6081 C   0  0  1  0  0  0  0  0  0  0  0  0
   24.5923  -20.5245  -14.9791 C   0  0  0  0  0  0  0  0  0  0  0  0
   24.2517  -20.9577  -16.1054 O   0  0  0  0  0  0  0  0  0  0  0  0
   23.5635  -20.0637  -14.1076 N   0  0  0  0  0  0  0  0  0  0  0  0
   22.1662  -20.0570  -14.3628 C   0  0  1  0  0  0  0  0  0  0  0  0
   21.3174  -20.0548  -13.1173 C   0  0  0  0  0  0  0  0  0  0  0  0
   21.6059  -21.3498  -12.4118 C   0  0  0  0  0  0  0  0  0  0  0  0
   21.7637  -22.3892  -13.0785 O   0  0  0  0  0  0  0  0  0  0  0  0
   21.7122  -18.9941  -15.3150 C   0  0  0  0  0  0  0  0  0  0  0  0
   22.0139  -17.7974  -15.1238 O   0  0  0  0  0  0  0  0  0  0  0  0
   21.7025  -21.4259  -11.0356 O   0  0  0  0  0  0  0  0  0  0  0  0
   20.1856  -17.8625  -19.8418 C   0  0  0  0  0  0  0  0  0  0  0  0
   20.5600  -18.8989  -18.8150 C   0  0  1  0  0  0  0  0  0  0  0  0
   21.8588  -19.3873  -19.0351 O   0  0  0  0  0  0  0  0  0  0  0  0
   20.5633  -18.2892  -17.4104 C   0  0  2  0  0  0  0  0  0  0  0  0
   20.9294  -19.3131  -16.4578 N   0  0  0  0  0  0  0  0  0  0  0  0
   19.2275  -17.7132  -17.1060 C   0  0  0  0  0  0  0  0  0  0  0  0
   18.8714  -16.4209  -17.3682 O   0  0  0  0  0  0  0  0  0  0  0  0
   18.3769  -18.4712  -16.5734 O   0  0  0  0  0  0  0  0  0  0  0  0
  1  5  1  0
  2  1  1  0
  2  3  1  0
  3  4  1  0
  5  4  1  0
  6  8  1  0
  5  6  1  6
  7  6  2  0
  9 13  1  0
  9  8  1  0
  9 10  1  1
 10 11  1  0
 11 15  1  0
 11 12  2  0
 13 20  1  0
 14 13  2  0
 17 16  1  6
 17 18  1  0
 19 17  1  0
 19 20  1  1
 21 22  1  0
 21 19  1  0
 23 21  2  0
M  END
$$$$
