PDT.pdb
     RDKit          3D

 23 23  0  0  1  0  0  0  0  0999 V2000
   19.4943  -14.9266  -15.8405 N   0  0  0  0  0  0  0  0  0  0  0  0
   18.5104  -15.8612  -16.3305 C   0  0  0  0  0  0  0  0  0  0  0  0
   18.2722  -15.4468  -17.7763 C   0  0  0  0  0  0  0  0  0  0  0  0
   19.7222  -15.1222  -18.1663 C   0  0  0  0  0  0  0  0  0  0  0  0
   20.1087  -14.2809  -16.9737 C   0  0  1  0  0  0  0  0  0  0  0  0
   19.6236  -12.8985  -17.0607 C   0  0  0  0  0  0  0  0  0  0  0  0
   19.9379  -12.1932  -18.0487 O   0  0  0  0  0  0  0  0  0  0  0  0
   18.7992  -12.3074  -16.0602 N   0  0  0  0  0  0  0  0  0  0  0  0
   18.3458  -10.9622  -16.0108 C   0  0  1  0  0  0  0  0  0  0  0  0
   16.8630  -10.8249  -15.7779 C   0  0  0  0  0  0  0  0  0  0  0  0
   16.5445   -9.3672  -15.9562 C   0  0  0  0  0  0  0  0  0  0  0  0
   16.9295   -8.7766  -16.9821 O   0  0  0  0  0  0  0  0  0  0  0  0
   19.1129  -10.0807  -15.0742 C   0  0  0  0  0  0  0  0  0  0  0  0
   19.0763  -10.2774  -13.8416 O   0  0  0  0  0  0  0  0  0  0  0  0
   15.8323   -8.6545  -15.0107 O   0  0  0  0  0  0  0  0  0  0  0  0
   22.7654   -9.6264  -14.9387 C   0  0  0  0  0  0  0  0  0  0  0  0
   22.1691   -8.2589  -15.1455 C   0  0  1  0  0  0  0  0  0  0  0  0
   22.1306   -7.9214  -16.5087 O   0  0  0  0  0  0  0  0  0  0  0  0
   20.7195   -8.2233  -14.6537 C   0  0  2  0  0  0  0  0  0  0  0  0
   19.9008   -9.0005  -15.5569 N   0  0  0  0  0  0  0  0  0  0  0  0
   20.2498   -6.8160  -14.5656 C   0  0  0  0  0  0  0  0  0  0  0  0
   20.7303   -5.9014  -13.6721 O   0  0  0  0  0  0  0  0  0  0  0  0
   19.3528   -6.4527  -15.3688 O   0  0  0  0  0  0  0  0  0  0  0  0
  1  5  1  0
  2  1  1  0
  2  3  1  0
  3  4  1  0
  5  4  1  0
  6  8  1  0
  5  6  1  6
  7  6  2  0
  9 13  1  0
  9  8  1  0
  9 10  1  1
 10 11  1  0
 11 15  1  0
 11 12  2  0
 13 20  1  0
 14 13  2  0
 17 16  1  6
 17 18  1  0
 19 17  1  0
 19 20  1  6
 21 22  1  0
 21 19  1  0
 23 21  2  0
M  END
$$$$
