PDT.pdb
     RDKit          3D

 23 23  0  0  1  0  0  0  0  0999 V2000
   30.5196  -22.6054  -12.4287 N   0  0  0  0  0  0  0  0  0  0  0  0
   31.7760  -22.1399  -12.9636 C   0  0  0  0  0  0  0  0  0  0  0  0
   31.8211  -20.6599  -12.6082 C   0  0  0  0  0  0  0  0  0  0  0  0
   31.2299  -20.7434  -11.1927 C   0  0  0  0  0  0  0  0  0  0  0  0
   30.0420  -21.6296  -11.4809 C   0  0  1  0  0  0  0  0  0  0  0  0
   28.9091  -20.9041  -12.0673 C   0  0  0  0  0  0  0  0  0  0  0  0
   28.4266  -19.9169  -11.4630 O   0  0  0  0  0  0  0  0  0  0  0  0
   28.3194  -21.2726  -13.3109 N   0  0  0  0  0  0  0  0  0  0  0  0
   27.1089  -20.7758  -13.8638 C   0  0  1  0  0  0  0  0  0  0  0  0
   27.0298  -20.8907  -15.3645 C   0  0  0  0  0  0  0  0  0  0  0  0
   28.1199  -20.0117  -15.9097 C   0  0  0  0  0  0  0  0  0  0  0  0
   28.0233  -18.7755  -15.7991 O   0  0  0  0  0  0  0  0  0  0  0  0
   25.8659  -21.3140  -13.2252 C   0  0  0  0  0  0  0  0  0  0  0  0
   25.5561  -22.5173  -13.3498 O   0  0  0  0  0  0  0  0  0  0  0  0
   29.2354  -20.5346  -16.5351 O   0  0  0  0  0  0  0  0  0  0  0  0
   25.3462  -21.2974   -9.6893 C   0  0  0  0  0  0  0  0  0  0  0  0
   24.0833  -20.6829  -10.2335 C   0  0  1  0  0  0  0  0  0  0  0  0
   24.1306  -19.2804  -10.1681 O   0  0  0  0  0  0  0  0  0  0  0  0
   23.9055  -21.0376  -11.7124 C   0  0  2  0  0  0  0  0  0  0  0  0
   25.0066  -20.4767  -12.4627 N   0  0  0  0  0  0  0  0  0  0  0  0
   22.5972  -20.5289  -12.2007 C   0  0  0  0  0  0  0  0  0  0  0  0
   21.3860  -20.9629  -11.7425 O   0  0  0  0  0  0  0  0  0  0  0  0
   22.6161  -19.6422  -13.0925 O   0  0  0  0  0  0  0  0  0  0  0  0
  1  5  1  0
  2  1  1  0
  2  3  1  0
  3  4  1  0
  5  4  1  0
  6  8  1  0
  5  6  1  6
  7  6  2  0
  9 13  1  0
  9  8  1  0
  9 10  1  6
 10 11  1  0
 11 15  1  0
 11 12  2  0
 13 20  1  0
 14 13  2  0
 17 16  1  6
 17 18  1  0
 19 17  1  0
 19 20  1  6
 21 22  1  0
 21 19  1  0
 23 21  2  0
M  END
$$$$
