GAE.pdb
     RDKit          3D

 19 18  0  0  1  0  0  0  0  0999 V2000
   18.0651  -12.5881  -15.6233 N   0  0  0  0  0  0  0  0  0  0  0  0
   17.4514  -11.4755  -14.9161 C   0  0  0  0  0  0  0  0  0  0  0  0
   17.9655  -10.1734  -15.4201 C   0  0  0  0  0  0  0  0  0  0  0  0
   18.8602  -10.2277  -16.3081 O   0  0  0  0  0  0  0  0  0  0  0  0
   16.9526   -6.5691  -15.1272 C   0  0  0  0  0  0  0  0  0  0  0  0
   17.8895   -7.7156  -15.5305 C   0  0  2  0  0  0  0  0  0  0  0  0
   17.4684   -8.9455  -14.9213 N   0  0  0  0  0  0  0  0  0  0  0  0
   19.2343   -7.3572  -14.9661 C   0  0  0  0  0  0  0  0  0  0  0  0
   19.4740   -7.7399  -13.7882 O   0  0  0  0  0  0  0  0  0  0  0  0
   20.1854   -6.6349  -15.6980 N   0  0  0  0  0  0  0  0  0  0  0  0
   21.5343   -6.4379  -15.1192 C   0  0  1  0  0  0  0  0  0  0  0  0
   22.5494   -6.6823  -16.1725 C   0  0  0  0  0  0  0  0  0  0  0  0
   23.9481   -6.4192  -15.7581 C   0  0  0  0  0  0  0  0  0  0  0  0
   24.8993   -6.5836  -16.8720 C   0  0  0  0  0  0  0  0  0  0  0  0
   24.7040   -7.4847  -17.7476 O   0  0  0  0  0  0  0  0  0  0  0  0
   21.6134   -5.1756  -14.4147 C   0  0  0  0  0  0  0  0  0  0  0  0
   20.9272   -4.1798  -14.7543 O   0  0  0  0  0  0  0  0  0  0  0  0
   26.0216   -5.7889  -17.0182 O   0  0  0  0  0  0  0  0  0  0  0  0
   22.4612   -5.0218  -13.3266 O   0  0  0  0  0  0  0  0  0  0  0  0
  2  1  1  0
  3  2  1  0
  4  3  2  0
  6  5  1  1
  6  7  1  0
  7  3  1  0
  8 10  1  0
  8  6  1  0
  9  8  2  0
 11 16  1  0
 11 10  1  0
 11 12  1  6
 12 13  1  0
 13 14  1  0
 14 18  1  0
 15 14  2  0
 16 19  1  0
 17 16  2  0
M  END
$$$$
