GAE.pdb
     RDKit          3D

 19 18  0  0  1  0  0  0  0  0999 V2000
   12.5445  -10.6744   -9.5584 N   0  0  0  0  0  0  0  0  0  0  0  0
   13.6269  -10.0924   -8.7809 C   0  0  0  0  0  0  0  0  0  0  0  0
   14.2350   -8.9366   -9.4938 C   0  0  0  0  0  0  0  0  0  0  0  0
   13.9188   -8.7944  -10.7069 O   0  0  0  0  0  0  0  0  0  0  0  0
   16.1240   -5.8429   -8.5621 C   0  0  0  0  0  0  0  0  0  0  0  0
   15.6442   -6.9191   -9.5452 C   0  0  2  0  0  0  0  0  0  0  0  0
   15.1202   -8.0508   -8.8339 N   0  0  0  0  0  0  0  0  0  0  0  0
   16.8714   -7.3670  -10.2859 C   0  0  0  0  0  0  0  0  0  0  0  0
   17.7354   -7.9999   -9.6194 O   0  0  0  0  0  0  0  0  0  0  0  0
   17.0621   -7.1030  -11.6483 N   0  0  0  0  0  0  0  0  0  0  0  0
   18.2431   -7.6806  -12.3302 C   0  0  1  0  0  0  0  0  0  0  0  0
   17.7940   -8.7756  -13.2239 C   0  0  0  0  0  0  0  0  0  0  0  0
   18.8667   -9.3830  -14.0471 C   0  0  0  0  0  0  0  0  0  0  0  0
   18.3518  -10.4283  -14.9498 C   0  0  0  0  0  0  0  0  0  0  0  0
   17.2956  -11.0675  -14.6458 O   0  0  0  0  0  0  0  0  0  0  0  0
   19.0537   -6.6400  -12.9269 C   0  0  0  0  0  0  0  0  0  0  0  0
   20.2863   -6.7853  -13.1202 O   0  0  0  0  0  0  0  0  0  0  0  0
   18.9734  -10.7585  -16.1402 O   0  0  0  0  0  0  0  0  0  0  0  0
   18.4885   -5.4317  -13.3102 O   0  0  0  0  0  0  0  0  0  0  0  0
  2  1  1  0
  3  2  1  0
  4  3  2  0
  6  5  1  1
  6  7  1  0
  7  3  1  0
  8 10  1  0
  8  6  1  0
  9  8  2  0
 11 16  1  0
 11 10  1  0
 11 12  1  6
 12 13  1  0
 13 14  1  0
 14 18  1  0
 15 14  2  0
 16 19  1  0
 17 16  2  0
M  END
$$$$
