GAE.pdb
     RDKit          3D

 19 18  0  0  1  0  0  0  0  0999 V2000
   18.0726  -11.8546  -14.7481 N   0  0  0  0  0  0  0  0  0  0  0  0
   17.5575  -12.2342  -13.4422 C   0  0  0  0  0  0  0  0  0  0  0  0
   16.6246  -11.2017  -12.9154 C   0  0  0  0  0  0  0  0  0  0  0  0
   16.4988  -10.1529  -13.6052 O   0  0  0  0  0  0  0  0  0  0  0  0
   14.0822  -10.9785  -10.1545 C   0  0  0  0  0  0  0  0  0  0  0  0
   14.9674  -10.4149  -11.2743 C   0  0  2  0  0  0  0  0  0  0  0  0
   15.9213  -11.3985  -11.7028 N   0  0  0  0  0  0  0  0  0  0  0  0
   15.7250   -9.2749  -10.6565 C   0  0  0  0  0  0  0  0  0  0  0  0
   16.7197   -9.5775   -9.9422 O   0  0  0  0  0  0  0  0  0  0  0  0
   15.3584   -7.9374  -10.8539 N   0  0  0  0  0  0  0  0  0  0  0  0
   16.1899   -6.8713  -10.2497 C   0  0  1  0  0  0  0  0  0  0  0  0
   16.0966   -5.6540  -11.0917 C   0  0  0  0  0  0  0  0  0  0  0  0
   16.8524   -4.4865  -10.5790 C   0  0  0  0  0  0  0  0  0  0  0  0
   16.6271   -3.2770  -11.3909 C   0  0  0  0  0  0  0  0  0  0  0  0
   16.6456   -3.3502  -12.6601 O   0  0  0  0  0  0  0  0  0  0  0  0
   15.8881   -6.7178   -8.8421 C   0  0  0  0  0  0  0  0  0  0  0  0
   16.7375   -6.2886   -8.0224 O   0  0  0  0  0  0  0  0  0  0  0  0
   16.3908   -2.0352  -10.8299 O   0  0  0  0  0  0  0  0  0  0  0  0
   14.6339   -7.0441   -8.3453 O   0  0  0  0  0  0  0  0  0  0  0  0
  2  1  1  0
  3  2  1  0
  4  3  2  0
  6  5  1  1
  6  7  1  0
  7  3  1  0
  8 10  1  0
  8  6  1  0
  9  8  2  0
 11 16  1  0
 11 10  1  0
 11 12  1  6
 12 13  1  0
 13 14  1  0
 14 18  1  0
 15 14  2  0
 16 19  1  0
 17 16  2  0
M  END
$$$$
