GAE.pdb
     RDKit          3D

 19 18  0  0  1  0  0  0  0  0999 V2000
   19.6732  -12.8218  -17.8354 N   0  0  0  0  0  0  0  0  0  0  0  0
   20.7962  -11.9247  -18.0561 C   0  0  0  0  0  0  0  0  0  0  0  0
   21.1817  -11.2318  -16.7971 C   0  0  0  0  0  0  0  0  0  0  0  0
   20.2435  -10.9408  -16.0053 O   0  0  0  0  0  0  0  0  0  0  0  0
   24.3671  -10.2512  -15.0501 C   0  0  0  0  0  0  0  0  0  0  0  0
   22.8556  -10.2068  -15.3119 C   0  0  2  0  0  0  0  0  0  0  0  0
   22.5336  -10.9214  -16.5147 N   0  0  0  0  0  0  0  0  0  0  0  0
   22.5254   -8.7585  -15.5326 C   0  0  0  0  0  0  0  0  0  0  0  0
   22.5577   -8.3457  -16.7242 O   0  0  0  0  0  0  0  0  0  0  0  0
   22.1960   -7.8963  -14.4788 N   0  0  0  0  0  0  0  0  0  0  0  0
   21.8715   -6.4842  -14.7850 C   0  0  1  0  0  0  0  0  0  0  0  0
   20.5171   -6.4220  -15.3860 C   0  0  0  0  0  0  0  0  0  0  0  0
   19.9943   -5.0508  -15.5953 C   0  0  0  0  0  0  0  0  0  0  0  0
   18.6196   -5.0539  -16.1272 C   0  0  0  0  0  0  0  0  0  0  0  0
   18.4088   -5.3592  -17.3433 O   0  0  0  0  0  0  0  0  0  0  0  0
   22.1168   -5.6382  -13.6361 C   0  0  0  0  0  0  0  0  0  0  0  0
   22.3356   -4.4066  -13.7512 O   0  0  0  0  0  0  0  0  0  0  0  0
   17.5194   -4.7338  -15.3529 O   0  0  0  0  0  0  0  0  0  0  0  0
   22.1184   -6.1667  -12.3527 O   0  0  0  0  0  0  0  0  0  0  0  0
  2  1  1  0
  3  2  1  0
  4  3  2  0
  6  5  1  6
  6  7  1  0
  7  3  1  0
  8 10  1  0
  8  6  1  0
  9  8  2  0
 11 16  1  0
 11 10  1  0
 11 12  1  1
 12 13  1  0
 13 14  1  0
 14 18  1  0
 15 14  2  0
 16 19  1  0
 17 16  2  0
M  END
$$$$
