GAE.pdb
     RDKit          3D

 19 18  0  0  1  0  0  0  0  0999 V2000
   19.5900  -13.3103  -17.1183 N   0  0  0  0  0  0  0  0  0  0  0  0
   19.6860  -12.6331  -15.8351 C   0  0  0  0  0  0  0  0  0  0  0  0
   19.4628  -11.1697  -15.9854 C   0  0  0  0  0  0  0  0  0  0  0  0
   19.9876  -10.6214  -16.9933 O   0  0  0  0  0  0  0  0  0  0  0  0
   17.3849   -8.5266  -14.2955 C   0  0  0  0  0  0  0  0  0  0  0  0
   18.4748   -9.0400  -15.2461 C   0  0  2  0  0  0  0  0  0  0  0  0
   18.6999  -10.4429  -15.0403 N   0  0  0  0  0  0  0  0  0  0  0  0
   19.7279   -8.3091  -14.8576 C   0  0  0  0  0  0  0  0  0  0  0  0
   20.4347   -8.8372  -13.9560 O   0  0  0  0  0  0  0  0  0  0  0  0
   20.1067   -7.1009  -15.4568 N   0  0  0  0  0  0  0  0  0  0  0  0
   21.3884   -6.4756  -15.0574 C   0  0  1  0  0  0  0  0  0  0  0  0
   21.9173   -5.6921  -16.2002 C   0  0  0  0  0  0  0  0  0  0  0  0
   23.1591   -4.9361  -15.9113 C   0  0  0  0  0  0  0  0  0  0  0  0
   23.5499   -4.0588  -17.0294 C   0  0  0  0  0  0  0  0  0  0  0  0
   23.9638   -2.8790  -16.7978 O   0  0  0  0  0  0  0  0  0  0  0  0
   21.2512   -5.7802  -13.7951 C   0  0  0  0  0  0  0  0  0  0  0  0
   22.2139   -5.6504  -12.9988 O   0  0  0  0  0  0  0  0  0  0  0  0
   23.4882   -4.4619  -18.3508 O   0  0  0  0  0  0  0  0  0  0  0  0
   20.0356   -5.2265  -13.4180 O   0  0  0  0  0  0  0  0  0  0  0  0
  2  1  1  0
  3  2  1  0
  4  3  2  0
  6  5  1  1
  6  7  1  0
  7  3  1  0
  8 10  1  0
  8  6  1  0
  9  8  2  0
 11 16  1  0
 11 10  1  0
 11 12  1  6
 12 13  1  0
 13 14  1  0
 14 18  1  0
 15 14  2  0
 16 19  1  0
 17 16  2  0
M  END
$$$$
