GAE.pdb
     RDKit          3D

 19 18  0  0  1  0  0  0  0  0999 V2000
   14.4069  -12.6582  -14.1090 N   0  0  0  0  0  0  0  0  0  0  0  0
   14.8152  -11.5731  -14.9869 C   0  0  0  0  0  0  0  0  0  0  0  0
   16.2909  -11.3867  -14.9550 C   0  0  0  0  0  0  0  0  0  0  0  0
   16.8203  -11.2834  -13.8145 O   0  0  0  0  0  0  0  0  0  0  0  0
   19.1478  -11.5783  -17.3700 C   0  0  0  0  0  0  0  0  0  0  0  0
   18.4675  -11.1196  -16.0731 C   0  0  2  0  0  0  0  0  0  0  0  0
   17.0493  -11.3301  -16.1489 N   0  0  0  0  0  0  0  0  0  0  0  0
   18.7111   -9.6401  -15.9894 C   0  0  0  0  0  0  0  0  0  0  0  0
   17.8129   -8.8909  -16.4620 O   0  0  0  0  0  0  0  0  0  0  0  0
   19.8721   -9.1032  -15.4184 N   0  0  0  0  0  0  0  0  0  0  0  0
   20.0455   -7.6326  -15.3994 C   0  0  1  0  0  0  0  0  0  0  0  0
   20.8977   -7.2642  -14.2428 C   0  0  0  0  0  0  0  0  0  0  0  0
   21.1497   -5.8108  -14.0968 C   0  0  0  0  0  0  0  0  0  0  0  0
   22.0264   -5.5100  -12.9506 C   0  0  0  0  0  0  0  0  0  0  0  0
   22.3805   -6.4401  -12.1593 O   0  0  0  0  0  0  0  0  0  0  0  0
   20.4596   -7.1457  -16.6984 C   0  0  0  0  0  0  0  0  0  0  0  0
   21.1635   -7.8378  -17.4751 O   0  0  0  0  0  0  0  0  0  0  0  0
   22.4956   -4.2367  -12.6842 O   0  0  0  0  0  0  0  0  0  0  0  0
   20.0877   -5.8816  -17.1343 O   0  0  0  0  0  0  0  0  0  0  0  0
  2  1  1  0
  3  2  1  0
  4  3  2  0
  6  5  1  6
  6  7  1  0
  7  3  1  0
  8 10  1  0
  8  6  1  0
  9  8  2  0
 11 16  1  0
 11 10  1  0
 11 12  1  1
 12 13  1  0
 13 14  1  0
 14 18  1  0
 15 14  2  0
 16 19  1  0
 17 16  2  0
M  END
$$$$
