IKE.pdb
     RDKit          3D

 27 26  0  0  1  0  0  0  0  0999 V2000
   14.9157  -18.8362   15.2507 C   0  0  0  0  0  0  0  0  0  0  0  0
   13.4165  -19.0023   15.3298 C   0  0  0  0  0  0  0  0  0  0  0  0
   12.9629  -18.5389   16.6950 C   0  0  2  0  0  0  0  0  0  0  0  0
   13.6648  -19.3728   17.7443 C   0  0  0  0  0  0  0  0  0  0  0  0
   11.4742  -18.7604   16.8837 C   0  0  2  0  0  0  0  0  0  0  0  0
   10.7117  -18.0280   15.8855 N   0  0  0  0  0  0  0  0  0  0  0  0
   10.9860  -18.4132   18.2220 C   0  0  0  0  0  0  0  0  0  0  0  0
   11.1323  -17.2617   18.6709 O   0  0  0  0  0  0  0  0  0  0  0  0
   10.3421  -19.3938   19.0079 N   0  0  0  0  0  0  0  0  0  0  0  0
    9.8225  -19.0776   20.3472 C   0  0  1  0  0  0  0  0  0  0  0  0
    8.7945  -20.1464   20.6661 C   0  0  0  0  0  0  0  0  0  0  0  0
    8.3004  -20.0499   22.0688 C   0  0  0  0  0  0  0  0  0  0  0  0
    7.1949  -21.1092   22.1976 C   0  0  0  0  0  0  0  0  0  0  0  0
    6.6053  -21.0858   23.5913 C   0  0  0  0  0  0  0  0  0  0  0  0
    5.5760  -22.1079   23.6281 N   0  0  0  0  0  0  0  0  0  0  0  0
   10.9526  -19.0300   21.2721 C   0  0  0  0  0  0  0  0  0  0  0  0
   11.8543  -19.8988   21.2238 O   0  0  0  0  0  0  0  0  0  0  0  0
   11.0494  -18.0104   22.2306 N   0  0  0  0  0  0  0  0  0  0  0  0
   12.2089  -17.9522   23.1596 C   0  0  1  0  0  0  0  0  0  0  0  0
   13.1428  -16.9156   22.7022 C   0  0  0  0  0  0  0  0  0  0  0  0
   14.5806  -17.1790   22.9131 C   0  0  0  0  0  0  0  0  0  0  0  0
   15.5373  -16.1301   22.5258 C   0  0  0  0  0  0  0  0  0  0  0  0
   16.3697  -16.2282   21.5841 O   0  0  0  0  0  0  0  0  0  0  0  0
   11.6631  -17.8616   24.4856 C   0  0  0  0  0  0  0  0  0  0  0  0
   10.4971  -17.4735   24.7096 O   0  0  0  0  0  0  0  0  0  0  0  0
   15.5509  -14.9113   23.2322 O   0  0  0  0  0  0  0  0  0  0  0  0
   12.3972  -18.2030   25.6422 O   0  0  0  0  0  0  0  0  0  0  0  0
  1  2  1  0
  3  2  1  0
  3  4  1  1
  5  6  1  6
  5  3  1  0
  7  5  1  0
  8  7  2  0
  9  7  1  0
 10  9  1  0
 10 11  1  1
 11 12  1  0
 12 13  1  0
 13 14  1  0
 15 14  1  0
 16 18  1  0
 16 10  1  0
 17 16  2  0
 19 18  1  0
 20 21  1  0
 19 20  1  6
 21 22  1  0
 22 26  1  0
 22 23  2  0
 24 19  1  0
 24 27  1  0
 25 24  2  0
M  END
$$$$
