IKE.pdb
     RDKit          3D

 27 26  0  0  1  0  0  0  0  0999 V2000
    6.5178  -11.3858   27.2810 C   0  0  0  0  0  0  0  0  0  0  0  0
    5.8368  -12.5978   26.6905 C   0  0  0  0  0  0  0  0  0  0  0  0
    6.8674  -13.3857   25.9151 C   0  0  2  0  0  0  0  0  0  0  0  0
    7.3939  -12.5170   24.7938 C   0  0  0  0  0  0  0  0  0  0  0  0
    6.2493  -14.6100   25.2670 C   0  0  2  0  0  0  0  0  0  0  0  0
    5.6721  -15.4903   26.2700 N   0  0  0  0  0  0  0  0  0  0  0  0
    7.1788  -15.3714   24.4265 C   0  0  0  0  0  0  0  0  0  0  0  0
    7.8066  -16.3397   24.8925 O   0  0  0  0  0  0  0  0  0  0  0  0
    7.3617  -15.0038   23.0755 N   0  0  0  0  0  0  0  0  0  0  0  0
    8.2366  -15.7819   22.1851 C   0  0  1  0  0  0  0  0  0  0  0  0
    7.9427  -15.3016   20.7766 C   0  0  0  0  0  0  0  0  0  0  0  0
    8.8122  -15.9648   19.7641 C   0  0  0  0  0  0  0  0  0  0  0  0
    8.1242  -17.2972   19.4292 C   0  0  0  0  0  0  0  0  0  0  0  0
    8.8969  -18.0315   18.3548 C   0  0  0  0  0  0  0  0  0  0  0  0
    9.5243  -19.1724   18.9953 N   0  0  0  0  0  0  0  0  0  0  0  0
    9.6177  -15.5803   22.6172 C   0  0  0  0  0  0  0  0  0  0  0  0
   10.1267  -14.4352   22.6150 O   0  0  0  0  0  0  0  0  0  0  0  0
   10.3990  -16.6646   23.0433 N   0  0  0  0  0  0  0  0  0  0  0  0
   11.8137  -16.4632   23.4541 C   0  0  1  0  0  0  0  0  0  0  0  0
   12.1676  -17.4596   24.4728 C   0  0  0  0  0  0  0  0  0  0  0  0
   11.0692  -17.9509   25.3292 C   0  0  0  0  0  0  0  0  0  0  0  0
   11.4209  -18.7814   26.4921 C   0  0  0  0  0  0  0  0  0  0  0  0
   10.5967  -19.4444   27.1778 O   0  0  0  0  0  0  0  0  0  0  0  0
   12.5838  -16.4023   22.2426 C   0  0  0  0  0  0  0  0  0  0  0  0
   13.5250  -15.5969   22.0820 O   0  0  0  0  0  0  0  0  0  0  0  0
   12.7675  -18.8710   26.8961 O   0  0  0  0  0  0  0  0  0  0  0  0
   12.3415  -17.2453   21.1364 O   0  0  0  0  0  0  0  0  0  0  0  0
  1  2  1  0
  3  2  1  0
  3  4  1  6
  5  6  1  1
  5  3  1  0
  7  5  1  0
  8  7  2  0
  9  7  1  0
 10  9  1  0
 10 11  1  6
 11 12  1  0
 12 13  1  0
 13 14  1  0
 15 14  1  0
 16 18  1  0
 16 10  1  0
 17 16  2  0
 19 18  1  0
 20 21  1  0
 19 20  1  1
 21 22  1  0
 22 26  1  0
 22 23  2  0
 24 19  1  0
 24 27  1  0
 25 24  2  0
M  END
$$$$
