IKE.pdb
     RDKit          3D

 27 26  0  0  1  0  0  0  0  0999 V2000
    7.0337  -11.8642   26.6998 C   0  0  0  0  0  0  0  0  0  0  0  0
    6.6245  -12.9393   25.7210 C   0  0  0  0  0  0  0  0  0  0  0  0
    6.6436  -14.2663   26.4442 C   0  0  2  0  0  0  0  0  0  0  0  0
    8.0566  -14.5401   26.9106 C   0  0  0  0  0  0  0  0  0  0  0  0
    6.2610  -15.4033   25.5159 C   0  0  2  0  0  0  0  0  0  0  0  0
    6.0034  -16.6207   26.2681 N   0  0  0  0  0  0  0  0  0  0  0  0
    7.2518  -15.6765   24.4701 C   0  0  0  0  0  0  0  0  0  0  0  0
    8.1343  -16.5370   24.6424 O   0  0  0  0  0  0  0  0  0  0  0  0
    7.2029  -14.9582   23.2554 N   0  0  0  0  0  0  0  0  0  0  0  0
    8.1064  -15.2821   22.1408 C   0  0  1  0  0  0  0  0  0  0  0  0
    7.8060  -14.2763   21.0458 C   0  0  0  0  0  0  0  0  0  0  0  0
    8.5570  -14.5695   19.7924 C   0  0  0  0  0  0  0  0  0  0  0  0
    8.0108  -13.5938   18.7386 C   0  0  0  0  0  0  0  0  0  0  0  0
    8.6337  -13.8766   17.3885 C   0  0  0  0  0  0  0  0  0  0  0  0
    7.9109  -13.0763   16.4176 N   0  0  0  0  0  0  0  0  0  0  0  0
    9.4782  -15.2390   22.6422 C   0  0  0  0  0  0  0  0  0  0  0  0
    9.8381  -14.3432   23.4411 O   0  0  0  0  0  0  0  0  0  0  0  0
   10.4172  -16.1999   22.2391 N   0  0  0  0  0  0  0  0  0  0  0  0
   11.8220  -16.1348   22.7218 C   0  0  1  0  0  0  0  0  0  0  0  0
   12.0982  -17.3052   23.5641 C   0  0  0  0  0  0  0  0  0  0  0  0
   11.4172  -17.3551   24.8736 C   0  0  0  0  0  0  0  0  0  0  0  0
   11.6753  -18.5157   25.7407 C   0  0  0  0  0  0  0  0  0  0  0  0
   12.8208  -18.9379   26.0550 O   0  0  0  0  0  0  0  0  0  0  0  0
   12.6394  -15.9022   21.5632 C   0  0  0  0  0  0  0  0  0  0  0  0
   13.8640  -15.6677   21.6383 O   0  0  0  0  0  0  0  0  0  0  0  0
   10.5883  -19.2299   26.2822 O   0  0  0  0  0  0  0  0  0  0  0  0
   12.1278  -15.9194   20.2475 O   0  0  0  0  0  0  0  0  0  0  0  0
  1  2  1  0
  3  2  1  0
  3  4  1  6
  5  6  1  1
  5  3  1  0
  7  5  1  0
  8  7  2  0
  9  7  1  0
 10  9  1  0
 10 11  1  6
 11 12  1  0
 12 13  1  0
 13 14  1  0
 15 14  1  0
 16 18  1  0
 16 10  1  0
 17 16  2  0
 19 18  1  0
 20 21  1  0
 19 20  1  6
 21 22  1  0
 22 26  1  0
 22 23  2  0
 24 19  1  0
 24 27  1  0
 25 24  2  0
M  END
$$$$
