IKE.pdb
     RDKit          3D

 27 26  0  0  1  0  0  0  0  0999 V2000
    6.8355  -11.6491   27.8713 C   0  0  0  0  0  0  0  0  0  0  0  0
    6.0502  -12.7057   27.1307 C   0  0  0  0  0  0  0  0  0  0  0  0
    6.9919  -13.4159   26.1856 C   0  0  2  0  0  0  0  0  0  0  0  0
    7.5051  -12.4143   25.1744 C   0  0  0  0  0  0  0  0  0  0  0  0
    6.2722  -14.4981   25.4034 C   0  0  2  0  0  0  0  0  0  0  0  0
    5.8237  -15.5628   26.2862 N   0  0  0  0  0  0  0  0  0  0  0  0
    7.0664  -15.0713   24.3121 C   0  0  0  0  0  0  0  0  0  0  0  0
    7.7293  -16.1097   24.4885 O   0  0  0  0  0  0  0  0  0  0  0  0
    7.0775  -14.4403   23.0490 N   0  0  0  0  0  0  0  0  0  0  0  0
    7.9128  -14.9484   21.9500 C   0  0  1  0  0  0  0  0  0  0  0  0
    7.5947  -14.0868   20.7427 C   0  0  0  0  0  0  0  0  0  0  0  0
    8.3782  -14.4918   19.5414 C   0  0  0  0  0  0  0  0  0  0  0  0
    7.9295  -13.5517   18.4119 C   0  0  0  0  0  0  0  0  0  0  0  0
    8.8606  -13.6752   17.2252 C   0  0  0  0  0  0  0  0  0  0  0  0
    8.8052  -15.0588   16.7913 N   0  0  0  0  0  0  0  0  0  0  0  0
    9.3083  -14.8960   22.3797 C   0  0  0  0  0  0  0  0  0  0  0  0
    9.7028  -13.9982   23.1599 O   0  0  0  0  0  0  0  0  0  0  0  0
   10.2318  -15.8501   21.9277 N   0  0  0  0  0  0  0  0  0  0  0  0
   11.4475  -16.1639   22.7243 C   0  0  1  0  0  0  0  0  0  0  0  0
   11.0728  -17.0089   23.8650 C   0  0  0  0  0  0  0  0  0  0  0  0
   12.1797  -17.5921   24.6498 C   0  0  0  0  0  0  0  0  0  0  0  0
   11.8364  -18.4999   25.7560 C   0  0  0  0  0  0  0  0  0  0  0  0
   10.7584  -19.1470   25.8470 O   0  0  0  0  0  0  0  0  0  0  0  0
   12.4299  -16.6463   21.7934 C   0  0  0  0  0  0  0  0  0  0  0  0
   13.6582  -16.5443   21.9965 O   0  0  0  0  0  0  0  0  0  0  0  0
   12.7562  -18.6893   26.8061 O   0  0  0  0  0  0  0  0  0  0  0  0
   12.0896  -17.2739   20.5754 O   0  0  0  0  0  0  0  0  0  0  0  0
  1  2  1  0
  3  2  1  0
  3  4  1  6
  5  6  1  1
  5  3  1  0
  7  5  1  0
  8  7  2  0
  9  7  1  0
 10  9  1  0
 10 11  1  6
 11 12  1  0
 12 13  1  0
 13 14  1  0
 15 14  1  0
 16 18  1  0
 16 10  1  0
 17 16  2  0
 19 18  1  0
 20 21  1  0
 19 20  1  1
 21 22  1  0
 22 26  1  0
 22 23  2  0
 24 19  1  0
 24 27  1  0
 25 24  2  0
M  END
$$$$
