IKE.pdb
     RDKit          3D

 27 26  0  0  1  0  0  0  0  0999 V2000
    6.9549  -11.7144   27.8954 C   0  0  0  0  0  0  0  0  0  0  0  0
    6.1590  -12.7064   27.0805 C   0  0  0  0  0  0  0  0  0  0  0  0
    7.1315  -13.5835   26.3261 C   0  0  2  0  0  0  0  0  0  0  0  0
    7.9664  -12.7069   25.4185 C   0  0  0  0  0  0  0  0  0  0  0  0
    6.4028  -14.5696   25.4329 C   0  0  2  0  0  0  0  0  0  0  0  0
    5.5780  -15.4703   26.2219 N   0  0  0  0  0  0  0  0  0  0  0  0
    7.2880  -15.3528   24.5651 C   0  0  0  0  0  0  0  0  0  0  0  0
    7.9023  -16.3390   25.0111 O   0  0  0  0  0  0  0  0  0  0  0  0
    7.4432  -14.9859   23.2104 N   0  0  0  0  0  0  0  0  0  0  0  0
    8.3427  -15.7314   22.3166 C   0  0  1  0  0  0  0  0  0  0  0  0
    8.1498  -15.1409   20.9327 C   0  0  0  0  0  0  0  0  0  0  0  0
    9.1287  -15.6839   19.9489 C   0  0  0  0  0  0  0  0  0  0  0  0
    8.2923  -16.3990   18.8766 C   0  0  0  0  0  0  0  0  0  0  0  0
    9.1970  -17.0400   17.8463 C   0  0  0  0  0  0  0  0  0  0  0  0
    8.3339  -17.6756   16.8682 N   0  0  0  0  0  0  0  0  0  0  0  0
    9.7017  -15.6139   22.8404 C   0  0  0  0  0  0  0  0  0  0  0  0
   10.1386  -14.5096   23.2403 O   0  0  0  0  0  0  0  0  0  0  0  0
   10.5419  -16.7352   22.9060 N   0  0  0  0  0  0  0  0  0  0  0  0
   11.8121  -16.6853   23.6773 C   0  0  1  0  0  0  0  0  0  0  0  0
   11.7854  -17.7190   24.7196 C   0  0  0  0  0  0  0  0  0  0  0  0
   13.0554  -17.9805   25.4266 C   0  0  0  0  0  0  0  0  0  0  0  0
   13.0689  -19.0372   26.4508 C   0  0  0  0  0  0  0  0  0  0  0  0
   13.5393  -20.1948   26.2835 O   0  0  0  0  0  0  0  0  0  0  0  0
   12.8751  -16.6985   22.7107 C   0  0  0  0  0  0  0  0  0  0  0  0
   13.9358  -16.0573   22.8665 O   0  0  0  0  0  0  0  0  0  0  0  0
   12.5303  -18.7721   27.7252 O   0  0  0  0  0  0  0  0  0  0  0  0
   12.8094  -17.4352   21.5081 O   0  0  0  0  0  0  0  0  0  0  0  0
  1  2  1  0
  3  2  1  0
  3  4  1  6
  5  6  1  1
  5  3  1  0
  7  5  1  0
  8  7  2  0
  9  7  1  0
 10  9  1  0
 10 11  1  6
 11 12  1  0
 12 13  1  0
 13 14  1  0
 15 14  1  0
 16 18  1  0
 16 10  1  0
 17 16  2  0
 19 18  1  0
 20 21  1  0
 19 20  1  1
 21 22  1  0
 22 26  1  0
 22 23  2  0
 24 19  1  0
 24 27  1  0
 25 24  2  0
M  END
$$$$
