IKE.pdb
     RDKit          3D

 27 26  0  0  1  0  0  0  0  0999 V2000
    8.0324  -11.7344   20.0103 C   0  0  0  0  0  0  0  0  0  0  0  0
    8.7838  -13.0249   20.2369 C   0  0  0  0  0  0  0  0  0  0  0  0
    7.9767  -14.1516   19.6340 C   0  0  2  0  0  0  0  0  0  0  0  0
    6.6334  -14.2065   20.3280 C   0  0  0  0  0  0  0  0  0  0  0  0
    8.6454  -15.4928   19.8682 C   0  0  2  0  0  0  0  0  0  0  0  0
    7.9501  -16.5495   19.1513 N   0  0  0  0  0  0  0  0  0  0  0  0
    8.7642  -15.8594   21.2829 C   0  0  0  0  0  0  0  0  0  0  0  0
    9.4675  -15.1836   22.0558 O   0  0  0  0  0  0  0  0  0  0  0  0
    8.0724  -16.9885   21.7733 N   0  0  0  0  0  0  0  0  0  0  0  0
    8.2579  -17.4556   23.1557 C   0  0  1  0  0  0  0  0  0  0  0  0
    7.1695  -18.4821   23.4059 C   0  0  0  0  0  0  0  0  0  0  0  0
    7.5649  -19.4795   24.4401 C   0  0  0  0  0  0  0  0  0  0  0  0
    6.4672  -20.5545   24.4270 C   0  0  0  0  0  0  0  0  0  0  0  0
    6.8289  -21.6855   25.3654 C   0  0  0  0  0  0  0  0  0  0  0  0
    5.7374  -22.6401   25.3115 N   0  0  0  0  0  0  0  0  0  0  0  0
    9.6184  -17.9739   23.2803 C   0  0  0  0  0  0  0  0  0  0  0  0
    9.9848  -18.9715   22.6164 O   0  0  0  0  0  0  0  0  0  0  0  0
   10.5395  -17.3637   24.1445 N   0  0  0  0  0  0  0  0  0  0  0  0
   11.9132  -17.9119   24.2962 C   0  0  1  0  0  0  0  0  0  0  0  0
   12.8672  -17.0158   23.6309 C   0  0  0  0  0  0  0  0  0  0  0  0
   14.3010  -17.3097   23.8281 C   0  0  0  0  0  0  0  0  0  0  0  0
   15.2812  -16.4365   23.1629 C   0  0  0  0  0  0  0  0  0  0  0  0
   15.2808  -15.1774   23.2243 O   0  0  0  0  0  0  0  0  0  0  0  0
   12.0847  -18.1977   25.6938 C   0  0  0  0  0  0  0  0  0  0  0  0
   13.0886  -18.7903   26.1424 O   0  0  0  0  0  0  0  0  0  0  0  0
   16.3132  -17.0130   22.3966 O   0  0  0  0  0  0  0  0  0  0  0  0
   11.1354  -17.8334   26.6733 O   0  0  0  0  0  0  0  0  0  0  0  0
  1  2  1  0
  3  2  1  0
  3  4  1  1
  5  6  1  6
  5  3  1  0
  7  5  1  0
  8  7  2  0
  9  7  1  0
 10  9  1  0
 10 11  1  6
 11 12  1  0
 12 13  1  0
 13 14  1  0
 15 14  1  0
 16 18  1  0
 16 10  1  0
 17 16  2  0
 19 18  1  0
 20 21  1  0
 19 20  1  1
 21 22  1  0
 22 26  1  0
 22 23  2  0
 24 19  1  0
 24 27  1  0
 25 24  2  0
M  END
$$$$
