IKE.pdb
     RDKit          3D

 27 26  0  0  1  0  0  0  0  0999 V2000
    6.8309  -12.3044   19.0680 C   0  0  0  0  0  0  0  0  0  0  0  0
    7.6653  -13.5497   18.8823 C   0  0  0  0  0  0  0  0  0  0  0  0
    8.6506  -13.6308   20.0255 C   0  0  2  0  0  0  0  0  0  0  0  0
    9.6302  -12.4847   19.8991 C   0  0  0  0  0  0  0  0  0  0  0  0
    9.4631  -14.9102   19.9606 C   0  0  2  0  0  0  0  0  0  0  0  0
    8.5939  -16.0757   19.9670 N   0  0  0  0  0  0  0  0  0  0  0  0
   10.4581  -15.0378   21.0301 C   0  0  0  0  0  0  0  0  0  0  0  0
   11.4175  -14.2483   21.1005 O   0  0  0  0  0  0  0  0  0  0  0  0
   10.3253  -16.0647   21.9901 N   0  0  0  0  0  0  0  0  0  0  0  0
   11.3684  -16.3051   22.9990 C   0  0  1  0  0  0  0  0  0  0  0  0
   10.8160  -17.3626   23.9359 C   0  0  0  0  0  0  0  0  0  0  0  0
   11.7855  -17.7248   25.0082 C   0  0  0  0  0  0  0  0  0  0  0  0
   11.0835  -18.7889   25.8659 C   0  0  0  0  0  0  0  0  0  0  0  0
   11.9056  -19.0950   27.0993 C   0  0  0  0  0  0  0  0  0  0  0  0
   11.1942  -20.1260   27.8318 N   0  0  0  0  0  0  0  0  0  0  0  0
   12.5922  -16.6941   22.3019 C   0  0  0  0  0  0  0  0  0  0  0  0
   12.5390  -17.3633   21.2438 O   0  0  0  0  0  0  0  0  0  0  0  0
   13.8489  -16.3249   22.8039 N   0  0  0  0  0  0  0  0  0  0  0  0
   15.0591  -16.3976   21.9430 C   0  0  1  0  0  0  0  0  0  0  0  0
   14.8514  -15.5717   20.7469 C   0  0  0  0  0  0  0  0  0  0  0  0
   16.0314  -15.3373   19.8903 C   0  0  0  0  0  0  0  0  0  0  0  0
   15.8618  -14.4863   18.7017 C   0  0  0  0  0  0  0  0  0  0  0  0
   15.2076  -14.8092   17.6736 O   0  0  0  0  0  0  0  0  0  0  0  0
   16.1815  -16.1187   22.7955 C   0  0  0  0  0  0  0  0  0  0  0  0
   16.0577  -15.5990   23.9246 O   0  0  0  0  0  0  0  0  0  0  0  0
   16.4549  -13.2087   18.6753 O   0  0  0  0  0  0  0  0  0  0  0  0
   17.5138  -16.4081   22.4289 O   0  0  0  0  0  0  0  0  0  0  0  0
  1  2  1  0
  3  2  1  0
  3  4  1  6
  5  6  1  1
  5  3  1  0
  7  5  1  0
  8  7  2  0
  9  7  1  0
 10  9  1  0
 10 11  1  1
 11 12  1  0
 12 13  1  0
 13 14  1  0
 15 14  1  0
 16 18  1  0
 16 10  1  0
 17 16  2  0
 19 18  1  0
 20 21  1  0
 19 20  1  6
 21 22  1  0
 22 26  1  0
 22 23  2  0
 24 19  1  0
 24 27  1  0
 25 24  2  0
M  END
$$$$
