IKE.pdb
     RDKit          3D

 27 26  0  0  1  0  0  0  0  0999 V2000
    6.0088  -11.4651   27.5280 C   0  0  0  0  0  0  0  0  0  0  0  0
    5.9562  -12.6826   26.6357 C   0  0  0  0  0  0  0  0  0  0  0  0
    7.3709  -13.1675   26.4173 C   0  0  2  0  0  0  0  0  0  0  0  0
    7.9334  -12.4767   25.1944 C   0  0  0  0  0  0  0  0  0  0  0  0
    7.4032  -14.6571   26.1322 C   0  0  2  0  0  0  0  0  0  0  0  0
    8.6339  -15.2519   26.6278 N   0  0  0  0  0  0  0  0  0  0  0  0
    7.2338  -14.9954   24.7155 C   0  0  0  0  0  0  0  0  0  0  0  0
    6.3967  -15.8462   24.3629 O   0  0  0  0  0  0  0  0  0  0  0  0
    8.0262  -14.3483   23.7423 N   0  0  0  0  0  0  0  0  0  0  0  0
    8.1599  -14.8930   22.3825 C   0  0  1  0  0  0  0  0  0  0  0  0
    7.8226  -13.7568   21.4358 C   0  0  0  0  0  0  0  0  0  0  0  0
    7.4593  -14.2474   20.0763 C   0  0  0  0  0  0  0  0  0  0  0  0
    8.0602  -13.2336   19.0904 C   0  0  0  0  0  0  0  0  0  0  0  0
    7.6307  -13.5588   17.6761 C   0  0  0  0  0  0  0  0  0  0  0  0
    8.2994  -12.6092   16.8062 N   0  0  0  0  0  0  0  0  0  0  0  0
    9.5148  -15.4200   22.2365 C   0  0  0  0  0  0  0  0  0  0  0  0
   10.5104  -14.6835   22.4280 O   0  0  0  0  0  0  0  0  0  0  0  0
    9.7261  -16.7601   21.8803 N   0  0  0  0  0  0  0  0  0  0  0  0
   10.9352  -17.4869   22.3503 C   0  0  1  0  0  0  0  0  0  0  0  0
   10.7432  -17.8903   23.7489 C   0  0  0  0  0  0  0  0  0  0  0  0
   11.8261  -18.6834   24.3647 C   0  0  0  0  0  0  0  0  0  0  0  0
   11.6289  -19.1678   25.7402 C   0  0  0  0  0  0  0  0  0  0  0  0
   10.7702  -18.7164   26.5454 O   0  0  0  0  0  0  0  0  0  0  0  0
   11.2107  -18.4965   21.3659 C   0  0  0  0  0  0  0  0  0  0  0  0
   12.3671  -18.7550   20.9708 O   0  0  0  0  0  0  0  0  0  0  0  0
   12.4361  -20.2145   26.2274 O   0  0  0  0  0  0  0  0  0  0  0  0
   10.2001  -19.2782   20.7652 O   0  0  0  0  0  0  0  0  0  0  0  0
  1  2  1  0
  3  2  1  0
  3  4  1  6
  5  6  1  6
  5  3  1  0
  7  5  1  0
  8  7  2  0
  9  7  1  0
 10  9  1  0
 10 11  1  6
 11 12  1  0
 12 13  1  0
 13 14  1  0
 15 14  1  0
 16 18  1  0
 16 10  1  0
 17 16  2  0
 19 18  1  0
 20 21  1  0
 19 20  1  1
 21 22  1  0
 22 26  1  0
 22 23  2  0
 24 19  1  0
 24 27  1  0
 25 24  2  0
M  END
$$$$
