MWH.pdb
     RDKit          3D

 33 35  0  0  1  0  0  0  0  0999 V2000
    7.5899  -11.3558   19.1374 C   0  0  0  0  0  0  0  0  0  0  0  0
    7.0213  -12.9329   18.5359 S   0  0  0  0  0  0  0  0  0  0  0  0
    6.5609  -14.1304   19.7701 C   0  0  0  0  0  0  0  0  0  0  0  0
    7.3347  -14.0838   21.0574 C   0  0  0  0  0  0  0  0  0  0  0  0
    8.2871  -15.2153   21.1802 C   0  0  2  0  0  0  0  0  0  0  0  0
    7.5173  -16.4467   21.2153 N   0  0  0  0  0  0  0  0  0  0  0  0
    9.1547  -15.1034   22.3924 C   0  0  0  0  0  0  0  0  0  0  0  0
    9.9394  -14.1462   22.5648 O   0  0  0  0  0  0  0  0  0  0  0  0
    9.1183  -16.1081   23.4224 N   0  0  0  0  0  0  0  0  0  0  0  0
    9.8435  -15.9816   24.6732 C   0  0  1  0  0  0  0  0  0  0  0  0
    9.0004  -16.1255   25.8750 C   0  0  0  0  0  0  0  0  0  0  0  0
    7.7060  -15.4531   25.8811 C   0  0  0  0  0  0  0  0  0  0  0  0
    6.4270  -15.8707   25.6648 C   0  0  0  0  0  0  0  0  0  0  0  0
    5.5580  -14.8515   25.7938 N   0  0  0  0  0  0  0  0  0  0  0  0
    6.2668  -13.7517   26.0978 C   0  0  0  0  0  0  0  0  0  0  0  0
    5.8891  -12.4309   26.3400 C   0  0  0  0  0  0  0  0  0  0  0  0
    6.8631  -11.4924   26.6364 C   0  0  0  0  0  0  0  0  0  0  0  0
    8.1978  -11.8129   26.7020 C   0  0  0  0  0  0  0  0  0  0  0  0
    8.5504  -13.1316   26.4578 C   0  0  0  0  0  0  0  0  0  0  0  0
    7.6012  -14.0847   26.1607 C   0  0  0  0  0  0  0  0  0  0  0  0
   11.0100  -16.9053   24.6430 C   0  0  0  0  0  0  0  0  0  0  0  0
   10.8028  -18.1564   24.4582 O   0  0  0  0  0  0  0  0  0  0  0  0
   12.3360  -16.4523   24.8113 N   0  0  0  0  0  0  0  0  0  0  0  0
   13.3965  -17.4554   24.8222 C   0  0  1  0  0  0  0  0  0  0  0  0
   14.6659  -16.9121   24.2510 C   0  0  0  0  0  0  0  0  0  0  0  0
   14.4384  -16.4652   22.8641 C   0  0  0  0  0  0  0  0  0  0  0  0
   13.6588  -17.1983   21.9800 C   0  0  0  0  0  0  0  0  0  0  0  0
   13.6308  -16.5631   20.8062 N   0  0  0  0  0  0  0  0  0  0  0  0
   14.3736  -15.4492   20.9318 C   0  0  0  0  0  0  0  0  0  0  0  0
   14.8663  -15.3891   22.1867 N   0  0  0  0  0  0  0  0  0  0  0  0
   13.6131  -17.8375   26.2332 C   0  0  0  0  0  0  0  0  0  0  0  0
   12.8552  -17.3303   27.1213 O   0  0  0  0  0  0  0  0  0  0  0  0
   14.6065  -18.7242   26.6105 O   0  0  0  0  0  0  0  0  0  0  0  0
  2  1  1  0
  3  2  1  0
  4  3  1  0
  5  4  1  0
  5  6  1  1
  7  8  2  0
  7  5  1  0
  9  7  1  0
 10 11  1  1
 10  9  1  0
 12 11  1  0
 12 20  1  0
 13 14  1  0
 13 12  2  0
 14 15  1  0
 15 20  2  0
 15 16  1  0
 16 17  2  0
 17 18  1  0
 19 18  2  0
 20 19  1  0
 21 10  1  0
 21 22  2  0
 23 21  1  0
 24 23  1  0
 24 25  1  1
 25 26  1  0
 26 27  2  0
 26 30  1  0
 27 28  1  0
 28 29  1  0
 30 29  2  0
 31 24  1  0
 32 31  2  0
 33 31  1  0
M  END
$$$$
