MWH.pdb
     RDKit          3D

 33 35  0  0  1  0  0  0  0  0999 V2000
   11.0593  -22.0376   20.1638 C   0  0  0  0  0  0  0  0  0  0  0  0
   10.5456  -21.5511   18.5292 S   0  0  0  0  0  0  0  0  0  0  0  0
    9.7932  -19.9443   18.3825 C   0  0  0  0  0  0  0  0  0  0  0  0
   10.0611  -18.9839   19.5067 C   0  0  0  0  0  0  0  0  0  0  0  0
    9.3631  -17.6883   19.3154 C   0  0  2  0  0  0  0  0  0  0  0  0
    9.9737  -17.0136   18.1831 N   0  0  0  0  0  0  0  0  0  0  0  0
    9.4179  -16.8239   20.5339 C   0  0  0  0  0  0  0  0  0  0  0  0
   10.3680  -16.0426   20.7550 O   0  0  0  0  0  0  0  0  0  0  0  0
    8.3632  -16.8586   21.5125 N   0  0  0  0  0  0  0  0  0  0  0  0
    8.3939  -16.0739   22.7331 C   0  0  1  0  0  0  0  0  0  0  0  0
    7.0603  -15.7389   23.2670 C   0  0  0  0  0  0  0  0  0  0  0  0
    6.9807  -15.2539   24.6404 C   0  0  0  0  0  0  0  0  0  0  0  0
    6.8146  -15.8655   25.8467 C   0  0  0  0  0  0  0  0  0  0  0  0
    6.8153  -14.9666   26.8479 N   0  0  0  0  0  0  0  0  0  0  0  0
    6.9832  -13.7515   26.3004 C   0  0  0  0  0  0  0  0  0  0  0  0
    7.0602  -12.4752   26.8579 C   0  0  0  0  0  0  0  0  0  0  0  0
    7.2411  -11.3834   26.0256 C   0  0  0  0  0  0  0  0  0  0  0  0
    7.3486  -11.5081   24.6614 C   0  0  0  0  0  0  0  0  0  0  0  0
    7.2693  -12.7861   24.1290 C   0  0  0  0  0  0  0  0  0  0  0  0
    7.0896  -13.8889   24.9347 C   0  0  0  0  0  0  0  0  0  0  0  0
    9.2811  -16.7549   23.7150 C   0  0  0  0  0  0  0  0  0  0  0  0
    9.1287  -18.0111   23.9178 O   0  0  0  0  0  0  0  0  0  0  0  0
   10.2835  -16.0663   24.4310 N   0  0  0  0  0  0  0  0  0  0  0  0
   11.3153  -16.8644   25.0860 C   0  0  1  0  0  0  0  0  0  0  0  0
   12.6562  -16.2136   24.9806 C   0  0  0  0  0  0  0  0  0  0  0  0
   13.6819  -17.0821   25.5877 C   0  0  0  0  0  0  0  0  0  0  0  0
   13.5674  -18.4655   25.5744 C   0  0  0  0  0  0  0  0  0  0  0  0
   14.6286  -18.9886   26.1927 N   0  0  0  0  0  0  0  0  0  0  0  0
   15.4066  -17.9676   26.5936 C   0  0  0  0  0  0  0  0  0  0  0  0
   14.8296  -16.8048   26.2248 N   0  0  0  0  0  0  0  0  0  0  0  0
   10.9322  -16.9794   26.5087 C   0  0  0  0  0  0  0  0  0  0  0  0
   10.0803  -16.1565   26.9750 O   0  0  0  0  0  0  0  0  0  0  0  0
   11.4681  -17.9489   27.3383 O   0  0  0  0  0  0  0  0  0  0  0  0
  2  1  1  0
  3  2  1  0
  4  3  1  0
  5  4  1  0
  5  6  1  6
  7  8  2  0
  7  5  1  0
  9  7  1  0
 10 11  1  1
 10  9  1  0
 12 11  1  0
 12 20  1  0
 13 14  1  0
 13 12  2  0
 14 15  1  0
 15 20  2  0
 15 16  1  0
 16 17  2  0
 17 18  1  0
 19 18  2  0
 20 19  1  0
 21 10  1  0
 21 22  2  0
 23 21  1  0
 24 23  1  0
 24 25  1  1
 25 26  1  0
 26 27  2  0
 26 30  1  0
 27 28  1  0
 28 29  1  0
 30 29  2  0
 31 24  1  0
 32 31  2  0
 33 31  1  0
M  END
$$$$
