MWH.pdb
     RDKit          3D

 33 35  0  0  1  0  0  0  0  0999 V2000
    7.8603  -11.8127   18.7395 C   0  0  0  0  0  0  0  0  0  0  0  0
    7.1193  -13.3688   18.2901 S   0  0  0  0  0  0  0  0  0  0  0  0
    7.7874  -14.8191   19.0773 C   0  0  0  0  0  0  0  0  0  0  0  0
    8.5723  -14.5851   20.3371 C   0  0  0  0  0  0  0  0  0  0  0  0
    9.1375  -15.8423   20.8870 C   0  0  2  0  0  0  0  0  0  0  0  0
    8.0649  -16.8188   20.9655 N   0  0  0  0  0  0  0  0  0  0  0  0
    9.7690  -15.6469   22.2279 C   0  0  0  0  0  0  0  0  0  0  0  0
   10.7122  -14.8476   22.4106 O   0  0  0  0  0  0  0  0  0  0  0  0
    9.3077  -16.3819   23.3761 N   0  0  0  0  0  0  0  0  0  0  0  0
    9.8643  -16.2005   24.7041 C   0  0  1  0  0  0  0  0  0  0  0  0
    8.8645  -16.2485   25.7875 C   0  0  0  0  0  0  0  0  0  0  0  0
    7.6299  -15.4930   25.6064 C   0  0  0  0  0  0  0  0  0  0  0  0
    6.3379  -15.8464   25.3560 C   0  0  0  0  0  0  0  0  0  0  0  0
    5.5465  -14.7609   25.2801 N   0  0  0  0  0  0  0  0  0  0  0  0
    6.3201  -13.6814   25.4819 C   0  0  0  0  0  0  0  0  0  0  0  0
    6.0344  -12.3165   25.5127 C   0  0  0  0  0  0  0  0  0  0  0  0
    7.0594  -11.4159   25.7486 C   0  0  0  0  0  0  0  0  0  0  0  0
    8.3575  -11.8166   25.9554 C   0  0  0  0  0  0  0  0  0  0  0  0
    8.6186  -13.1781   25.9204 C   0  0  0  0  0  0  0  0  0  0  0  0
    7.6171  -14.0948   25.6876 C   0  0  0  0  0  0  0  0  0  0  0  0
   10.9911  -17.1563   24.8830 C   0  0  0  0  0  0  0  0  0  0  0  0
   10.9717  -18.2622   24.2358 O   0  0  0  0  0  0  0  0  0  0  0  0
   12.0794  -16.8881   25.7404 N   0  0  0  0  0  0  0  0  0  0  0  0
   12.2306  -17.7293   26.9238 C   0  0  1  0  0  0  0  0  0  0  0  0
   10.9896  -17.7269   27.7560 C   0  0  0  0  0  0  0  0  0  0  0  0
   10.9516  -16.5129   28.5925 C   0  0  0  0  0  0  0  0  0  0  0  0
   11.9385  -15.5400   28.5115 C   0  0  0  0  0  0  0  0  0  0  0  0
   11.6509  -14.5658   29.3778 N   0  0  0  0  0  0  0  0  0  0  0  0
   10.5078  -14.9033   30.0005 C   0  0  0  0  0  0  0  0  0  0  0  0
   10.0810  -16.0907   29.5219 N   0  0  0  0  0  0  0  0  0  0  0  0
   12.5021  -19.1009   26.4453 C   0  0  0  0  0  0  0  0  0  0  0  0
   13.0069  -19.9381   27.2606 O   0  0  0  0  0  0  0  0  0  0  0  0
   12.2234  -19.4957   25.1485 O   0  0  0  0  0  0  0  0  0  0  0  0
  2  1  1  0
  3  2  1  0
  4  3  1  0
  5  4  1  0
  5  6  1  1
  7  8  2  0
  7  5  1  0
  9  7  1  0
 10 11  1  1
 10  9  1  0
 12 11  1  0
 12 20  1  0
 13 14  1  0
 13 12  2  0
 14 15  1  0
 15 20  2  0
 15 16  1  0
 16 17  2  0
 17 18  1  0
 19 18  2  0
 20 19  1  0
 21 10  1  0
 21 22  2  0
 23 21  1  0
 24 23  1  0
 24 25  1  6
 25 26  1  0
 26 27  2  0
 26 30  1  0
 27 28  1  0
 28 29  1  0
 30 29  2  0
 31 24  1  0
 32 31  2  0
 33 31  1  0
M  END
$$$$
