MWH.pdb
     RDKit          3D

 33 35  0  0  1  0  0  0  0  0999 V2000
   12.5692  -21.3794   20.8463 C   0  0  0  0  0  0  0  0  0  0  0  0
   12.3124  -20.8715   19.1585 S   0  0  0  0  0  0  0  0  0  0  0  0
   11.6089  -19.2538   18.9181 C   0  0  0  0  0  0  0  0  0  0  0  0
   11.3346  -18.4605   20.1644 C   0  0  0  0  0  0  0  0  0  0  0  0
   10.6696  -17.1668   19.8703 C   0  0  2  0  0  0  0  0  0  0  0  0
   11.5349  -16.4103   18.9819 N   0  0  0  0  0  0  0  0  0  0  0  0
   10.3725  -16.3823   21.1077 C   0  0  0  0  0  0  0  0  0  0  0  0
   11.1806  -15.5563   21.5837 O   0  0  0  0  0  0  0  0  0  0  0  0
    9.1263  -16.5505   21.8077 N   0  0  0  0  0  0  0  0  0  0  0  0
    8.8060  -15.8367   23.0302 C   0  0  1  0  0  0  0  0  0  0  0  0
    7.3668  -15.5690   23.2115 C   0  0  0  0  0  0  0  0  0  0  0  0
    6.9221  -15.1040   24.5205 C   0  0  0  0  0  0  0  0  0  0  0  0
    6.2789  -15.7008   25.5631 C   0  0  0  0  0  0  0  0  0  0  0  0
    6.0949  -14.8348   26.5764 N   0  0  0  0  0  0  0  0  0  0  0  0
    6.6202  -13.6565   26.2018 C   0  0  0  0  0  0  0  0  0  0  0  0
    6.7109  -12.4236   26.8477 C   0  0  0  0  0  0  0  0  0  0  0  0
    7.3216  -11.3635   26.1990 C   0  0  0  0  0  0  0  0  0  0  0  0
    7.8459  -11.4787   24.9340 C   0  0  0  0  0  0  0  0  0  0  0  0
    7.7446  -12.7135   24.3111 C   0  0  0  0  0  0  0  0  0  0  0  0
    7.1420  -13.7840   24.9342 C   0  0  0  0  0  0  0  0  0  0  0  0
    9.4342  -16.5488   24.1761 C   0  0  0  0  0  0  0  0  0  0  0  0
    9.4592  -17.8301   24.1684 O   0  0  0  0  0  0  0  0  0  0  0  0
   10.0024  -15.8633   25.2710 N   0  0  0  0  0  0  0  0  0  0  0  0
   10.7038  -16.6573   26.2752 C   0  0  1  0  0  0  0  0  0  0  0  0
   11.3715  -15.7863   27.2893 C   0  0  0  0  0  0  0  0  0  0  0  0
   11.9579  -16.6200   28.3551 C   0  0  0  0  0  0  0  0  0  0  0  0
   12.2924  -17.9500   28.1402 C   0  0  0  0  0  0  0  0  0  0  0  0
   12.7951  -18.4527   29.2701 N   0  0  0  0  0  0  0  0  0  0  0  0
   12.7845  -17.4709   30.1890 C   0  0  0  0  0  0  0  0  0  0  0  0
   12.2740  -16.3531   29.6314 N   0  0  0  0  0  0  0  0  0  0  0  0
    9.6907  -17.5028   26.9402 C   0  0  0  0  0  0  0  0  0  0  0  0
    8.4663  -17.1671   26.8476 O   0  0  0  0  0  0  0  0  0  0  0  0
   10.0338  -18.6390   27.6521 O   0  0  0  0  0  0  0  0  0  0  0  0
  2  1  1  0
  3  2  1  0
  4  3  1  0
  5  4  1  0
  5  6  1  6
  7  8  2  0
  7  5  1  0
  9  7  1  0
 10 11  1  1
 10  9  1  0
 12 11  1  0
 12 20  1  0
 13 14  1  0
 13 12  2  0
 14 15  1  0
 15 20  2  0
 15 16  1  0
 16 17  2  0
 17 18  1  0
 19 18  2  0
 20 19  1  0
 21 10  1  0
 21 22  2  0
 23 21  1  0
 24 23  1  0
 24 25  1  1
 25 26  1  0
 26 27  2  0
 26 30  1  0
 27 28  1  0
 28 29  1  0
 30 29  2  0
 31 24  1  0
 32 31  2  0
 33 31  1  0
M  END
$$$$
