MWH.pdb
     RDKit          3D

 33 35  0  0  1  0  0  0  0  0999 V2000
    7.6947  -11.9491   19.6436 C   0  0  0  0  0  0  0  0  0  0  0  0
    7.1041  -13.4953   18.9856 S   0  0  0  0  0  0  0  0  0  0  0  0
    7.8011  -14.9730   19.6927 C   0  0  0  0  0  0  0  0  0  0  0  0
    8.4607  -14.8165   21.0338 C   0  0  0  0  0  0  0  0  0  0  0  0
    9.0153  -16.0971   21.5385 C   0  0  2  0  0  0  0  0  0  0  0  0
    7.9553  -17.0897   21.5014 N   0  0  0  0  0  0  0  0  0  0  0  0
    9.5716  -15.9741   22.9206 C   0  0  0  0  0  0  0  0  0  0  0  0
   10.4860  -15.1702   23.2023 O   0  0  0  0  0  0  0  0  0  0  0  0
    9.0675  -16.7881   23.9952 N   0  0  0  0  0  0  0  0  0  0  0  0
    9.5744  -16.7044   25.3525 C   0  0  1  0  0  0  0  0  0  0  0  0
    8.5549  -16.3404   26.3544 C   0  0  0  0  0  0  0  0  0  0  0  0
    7.5024  -15.4159   25.9476 C   0  0  0  0  0  0  0  0  0  0  0  0
    6.2524  -15.5809   25.4307 C   0  0  0  0  0  0  0  0  0  0  0  0
    5.6541  -14.3933   25.2257 N   0  0  0  0  0  0  0  0  0  0  0  0
    6.5141  -13.4355   25.6099 C   0  0  0  0  0  0  0  0  0  0  0  0
    6.4231  -12.0437   25.6196 C   0  0  0  0  0  0  0  0  0  0  0  0
    7.4945  -11.2990   26.0832 C   0  0  0  0  0  0  0  0  0  0  0  0
    8.6532  -11.8813   26.5378 C   0  0  0  0  0  0  0  0  0  0  0  0
    8.7217  -13.2661   26.5191 C   0  0  0  0  0  0  0  0  0  0  0  0
    7.6702  -14.0302   26.0629 C   0  0  0  0  0  0  0  0  0  0  0  0
   10.3041  -17.9628   25.6670 C   0  0  0  0  0  0  0  0  0  0  0  0
    9.6605  -19.0709   25.6497 O   0  0  0  0  0  0  0  0  0  0  0  0
   11.6791  -17.9789   25.9842 N   0  0  0  0  0  0  0  0  0  0  0  0
   12.2697  -19.2581   26.3658 C   0  0  1  0  0  0  0  0  0  0  0  0
   13.7613  -19.2141   26.2885 C   0  0  0  0  0  0  0  0  0  0  0  0
   14.1803  -18.8674   24.9176 C   0  0  0  0  0  0  0  0  0  0  0  0
   13.4533  -19.2749   23.8075 C   0  0  0  0  0  0  0  0  0  0  0  0
   14.0625  -18.8247   22.7083 N   0  0  0  0  0  0  0  0  0  0  0  0
   15.1540  -18.1444   23.1011 C   0  0  0  0  0  0  0  0  0  0  0  0
   15.2262  -18.1702   24.4484 N   0  0  0  0  0  0  0  0  0  0  0  0
   11.8547  -19.5256   27.7586 C   0  0  0  0  0  0  0  0  0  0  0  0
   11.0725  -18.6978   28.3272 O   0  0  0  0  0  0  0  0  0  0  0  0
   12.2879  -20.6413   28.4534 O   0  0  0  0  0  0  0  0  0  0  0  0
  2  1  1  0
  3  2  1  0
  4  3  1  0
  5  4  1  0
  5  6  1  1
  7  8  2  0
  7  5  1  0
  9  7  1  0
 10 11  1  1
 10  9  1  0
 12 11  1  0
 12 20  1  0
 13 14  1  0
 13 12  2  0
 14 15  1  0
 15 20  2  0
 15 16  1  0
 16 17  2  0
 17 18  1  0
 19 18  2  0
 20 19  1  0
 21 10  1  0
 21 22  2  0
 23 21  1  0
 24 23  1  0
 24 25  1  1
 25 26  1  0
 26 27  2  0
 26 30  1  0
 27 28  1  0
 28 29  1  0
 30 29  2  0
 31 24  1  0
 32 31  2  0
 33 31  1  0
M  END
$$$$
