MWH.pdb
     RDKit          3D

 33 35  0  0  1  0  0  0  0  0999 V2000
    7.5382  -20.4671   17.8327 C   0  0  0  0  0  0  0  0  0  0  0  0
    8.4242  -19.7027   19.1755 S   0  0  0  0  0  0  0  0  0  0  0  0
    8.6924  -17.9474   19.0479 C   0  0  0  0  0  0  0  0  0  0  0  0
    9.3910  -17.2993   20.2097 C   0  0  0  0  0  0  0  0  0  0  0  0
    8.5001  -16.3759   20.9553 C   0  0  2  0  0  0  0  0  0  0  0  0
    8.1945  -15.2511   20.0885 N   0  0  0  0  0  0  0  0  0  0  0  0
    9.1100  -15.9021   22.2354 C   0  0  0  0  0  0  0  0  0  0  0  0
    9.7984  -14.8611   22.3008 O   0  0  0  0  0  0  0  0  0  0  0  0
    8.9245  -16.6371   23.4588 N   0  0  0  0  0  0  0  0  0  0  0  0
    9.4858  -16.2108   24.7275 C   0  0  1  0  0  0  0  0  0  0  0  0
    8.5093  -16.1633   25.8321 C   0  0  0  0  0  0  0  0  0  0  0  0
    7.3129  -15.3497   25.6464 C   0  0  0  0  0  0  0  0  0  0  0  0
    6.0542  -15.6152   25.1970 C   0  0  0  0  0  0  0  0  0  0  0  0
    5.2897  -14.5081   25.2201 N   0  0  0  0  0  0  0  0  0  0  0  0
    6.0479  -13.5028   25.6883 C   0  0  0  0  0  0  0  0  0  0  0  0
    5.7768  -12.1543   25.9198 C   0  0  0  0  0  0  0  0  0  0  0  0
    6.7786  -11.3390   26.4188 C   0  0  0  0  0  0  0  0  0  0  0  0
    8.0394  -11.8092   26.6973 C   0  0  0  0  0  0  0  0  0  0  0  0
    8.2865  -13.1529   26.4595 C   0  0  0  0  0  0  0  0  0  0  0  0
    7.3075  -13.9854   25.9634 C   0  0  0  0  0  0  0  0  0  0  0  0
   10.6853  -17.0415   25.0208 C   0  0  0  0  0  0  0  0  0  0  0  0
   11.8014  -16.7297   24.4736 O   0  0  0  0  0  0  0  0  0  0  0  0
   10.6371  -18.1604   25.8794 N   0  0  0  0  0  0  0  0  0  0  0  0
   11.9065  -18.7556   26.2857 C   0  0  1  0  0  0  0  0  0  0  0  0
   13.0430  -17.8074   26.0809 C   0  0  0  0  0  0  0  0  0  0  0  0
   13.7751  -18.1637   24.8512 C   0  0  0  0  0  0  0  0  0  0  0  0
   13.3180  -19.1521   23.9904 C   0  0  0  0  0  0  0  0  0  0  0  0
   14.1741  -19.2620   22.9720 N   0  0  0  0  0  0  0  0  0  0  0  0
   15.1573  -18.3667   23.1723 C   0  0  0  0  0  0  0  0  0  0  0  0
   14.9144  -17.6967   24.3182 N   0  0  0  0  0  0  0  0  0  0  0  0
   11.7885  -19.0827   27.7220 C   0  0  0  0  0  0  0  0  0  0  0  0
   10.7034  -18.7942   28.3218 O   0  0  0  0  0  0  0  0  0  0  0  0
   12.8148  -19.6896   28.4246 O   0  0  0  0  0  0  0  0  0  0  0  0
  2  1  1  0
  3  2  1  0
  4  3  1  0
  5  4  1  0
  5  6  1  6
  7  8  2  0
  7  5  1  0
  9  7  1  0
 10 11  1  1
 10  9  1  0
 12 11  1  0
 12 20  1  0
 13 14  1  0
 13 12  2  0
 14 15  1  0
 15 20  2  0
 15 16  1  0
 16 17  2  0
 17 18  1  0
 19 18  2  0
 20 19  1  0
 21 10  1  0
 21 22  2  0
 23 21  1  0
 24 23  1  0
 24 25  1  1
 25 26  1  0
 26 27  2  0
 26 30  1  0
 27 28  1  0
 28 29  1  0
 30 29  2  0
 31 24  1  0
 32 31  2  0
 33 31  1  0
M  END
$$$$
