MWH.pdb
     RDKit          3D

 33 35  0  0  1  0  0  0  0  0999 V2000
    8.0243  -11.4425   19.8414 C   0  0  0  0  0  0  0  0  0  0  0  0
    7.1506  -12.8394   19.1650 S   0  0  0  0  0  0  0  0  0  0  0  0
    7.6980  -14.4475   19.6976 C   0  0  0  0  0  0  0  0  0  0  0  0
    8.6850  -14.4681   20.8304 C   0  0  0  0  0  0  0  0  0  0  0  0
    8.9976  -15.8486   21.2764 C   0  0  2  0  0  0  0  0  0  0  0  0
    7.7413  -16.5484   21.4814 N   0  0  0  0  0  0  0  0  0  0  0  0
    9.8224  -15.8738   22.5230 C   0  0  0  0  0  0  0  0  0  0  0  0
   11.0146  -15.4993   22.5414 O   0  0  0  0  0  0  0  0  0  0  0  0
    9.2667  -16.3364   23.7674 N   0  0  0  0  0  0  0  0  0  0  0  0
   10.0039  -16.3126   25.0174 C   0  0  1  0  0  0  0  0  0  0  0  0
    9.4431  -15.3980   26.0296 C   0  0  0  0  0  0  0  0  0  0  0  0
    8.0256  -15.0671   25.9351 C   0  0  0  0  0  0  0  0  0  0  0  0
    6.9033  -15.7971   25.6810 C   0  0  0  0  0  0  0  0  0  0  0  0
    5.8051  -15.0202   25.7101 N   0  0  0  0  0  0  0  0  0  0  0  0
    6.2034  -13.7671   25.9856 C   0  0  0  0  0  0  0  0  0  0  0  0
    5.5000  -12.5719   26.1345 C   0  0  0  0  0  0  0  0  0  0  0  0
    6.1948  -11.4097   26.4244 C   0  0  0  0  0  0  0  0  0  0  0  0
    7.5607  -11.3869   26.5725 C   0  0  0  0  0  0  0  0  0  0  0  0
    8.2395  -12.5865   26.4203 C   0  0  0  0  0  0  0  0  0  0  0  0
    7.5723  -13.7566   26.1317 C   0  0  0  0  0  0  0  0  0  0  0  0
   10.1720  -17.7111   25.4979 C   0  0  0  0  0  0  0  0  0  0  0  0
    9.7690  -18.6729   24.7530 O   0  0  0  0  0  0  0  0  0  0  0  0
   10.7587  -18.0154   26.7448 N   0  0  0  0  0  0  0  0  0  0  0  0
   11.5820  -19.2178   26.8288 C   0  0  1  0  0  0  0  0  0  0  0  0
   12.8750  -19.0447   26.1000 C   0  0  0  0  0  0  0  0  0  0  0  0
   12.7329  -19.5202   24.7112 C   0  0  0  0  0  0  0  0  0  0  0  0
   11.5212  -19.9865   24.2201 C   0  0  0  0  0  0  0  0  0  0  0  0
   11.6873  -20.3503   22.9464 N   0  0  0  0  0  0  0  0  0  0  0  0
   12.9736  -20.1238   22.6260 C   0  0  0  0  0  0  0  0  0  0  0  0
   13.6116  -19.6176   23.7020 N   0  0  0  0  0  0  0  0  0  0  0  0
   11.8508  -19.4564   28.2622 C   0  0  0  0  0  0  0  0  0  0  0  0
   11.4698  -18.5806   29.1038 O   0  0  0  0  0  0  0  0  0  0  0  0
   12.4973  -20.5953   28.7094 O   0  0  0  0  0  0  0  0  0  0  0  0
  2  1  1  0
  3  2  1  0
  4  3  1  0
  5  4  1  0
  5  6  1  1
  7  8  2  0
  7  5  1  0
  9  7  1  0
 10 11  1  1
 10  9  1  0
 12 11  1  0
 12 20  1  0
 13 14  1  0
 13 12  2  0
 14 15  1  0
 15 20  2  0
 15 16  1  0
 16 17  2  0
 17 18  1  0
 19 18  2  0
 20 19  1  0
 21 10  1  0
 21 22  2  0
 23 21  1  0
 24 23  1  0
 24 25  1  6
 25 26  1  0
 26 27  2  0
 26 30  1  0
 27 28  1  0
 28 29  1  0
 30 29  2  0
 31 24  1  0
 32 31  2  0
 33 31  1  0
M  END
$$$$
