RML.pdb
     RDKit          3D

 28 27  0  0  1  0  0  0  0  0999 V2000
   25.9796  -19.3089  -18.8643 N   0  0  0  0  0  0  0  0  0  0  0  0
   24.8165  -18.5617  -18.5644 C   0  0  0  0  0  0  0  0  0  0  0  0
   23.9998  -18.1412  -19.4604 N   0  0  0  0  0  0  0  0  0  0  0  0
   24.5395  -18.2603  -17.1821 N   0  0  0  0  0  0  0  0  0  0  0  0
   25.4561  -18.6396  -16.1439 C   0  0  0  0  0  0  0  0  0  0  0  0
   25.1541  -20.0964  -15.7874 C   0  0  0  0  0  0  0  0  0  0  0  0
   24.8247  -20.2265  -14.2995 C   0  0  0  0  0  0  0  0  0  0  0  0
   26.1096  -20.6656  -13.6269 C   0  0  2  0  0  0  0  0  0  0  0  0
   26.6538  -21.8496  -14.2620 N   0  0  0  0  0  0  0  0  0  0  0  0
   25.8716  -21.0138  -12.1904 C   0  0  0  0  0  0  0  0  0  0  0  0
   25.6385  -22.2006  -11.8276 O   0  0  0  0  0  0  0  0  0  0  0  0
   23.1578  -17.6071  -19.2072 C   0  0  0  0  0  0  0  0  0  0  0  0
   28.2654  -18.1842   -6.2065 S   0  0  0  0  0  0  0  0  0  0  0  0
   27.3312  -19.7173   -6.4894 C   0  0  0  0  0  0  0  0  0  0  0  0
   25.8319  -19.3668   -7.4358 C   0  0  0  0  0  0  0  0  0  0  0  0
   26.0633  -19.3241   -8.8823 C   0  0  1  0  0  0  0  0  0  0  0  0
   25.5429  -20.4075   -9.7611 N   0  0  0  0  0  0  0  0  0  0  0  0
   25.8975  -20.0263  -11.1749 C   0  0  0  0  0  0  0  0  0  0  0  0
   24.0961  -20.6210   -9.8090 O   0  0  0  0  0  0  0  0  0  0  0  0
   23.3622  -20.0867  -10.7236 C   0  0  0  0  0  0  0  0  0  0  0  0
   19.2407  -23.4729   -7.0512 C   0  0  2  0  0  0  0  0  0  0  0  0
   19.7294  -22.3940   -8.0566 C   0  0  0  0  0  0  0  0  0  0  0  0
   19.0962  -21.0703   -7.6168 C   0  0  0  0  0  0  0  0  0  0  0  0
   21.2036  -22.3004   -7.9387 C   0  0  1  0  0  0  0  0  0  0  0  0
   21.9074  -21.4969   -9.0015 N   0  0  0  0  0  0  0  0  0  0  0  0
   23.3277  -21.4285   -8.8945 C   0  0  0  0  0  0  0  0  0  0  0  0
   21.2726  -20.1709   -9.0122 O   0  0  0  0  0  0  0  0  0  0  0  0
   21.6089  -19.2045   -8.3159 O   0  0  0  0  0  0  0  0  0  0  0  0
  1  2  1  0
  2  3  2  0
  4  2  1  0
  4  5  1  0
  6  5  1  0
  7  6  1  0
  8  7  1  0
  8  9  1  6
 10  8  1  0
 10 11  2  0
 12 13  1  0
 14 13  1  0
 15 14  1  0
 16 17  1  0
 16 15  1  1
 17 10  1  0
 18 16  1  0
 19 18  2  0
 21 20  1  6
 21 22  1  0
 23 21  1  0
 24 23  1  6
 24 25  1  0
 25 18  1  0
 26 24  1  0
 26 28  1  0
 27 26  2  0
M  END
$$$$
