RML.pdb
     RDKit          3D

 28 27  0  0  1  0  0  0  0  0999 V2000
   28.8373  -16.7617  -17.1151 N   0  0  0  0  0  0  0  0  0  0  0  0
   27.8999  -16.1718  -17.9950 C   0  0  0  0  0  0  0  0  0  0  0  0
   28.2337  -15.5679  -19.0770 N   0  0  0  0  0  0  0  0  0  0  0  0
   26.5015  -16.2558  -17.6548 N   0  0  0  0  0  0  0  0  0  0  0  0
   26.0712  -16.9029  -16.4473 C   0  0  0  0  0  0  0  0  0  0  0  0
   25.6896  -18.3375  -16.8172 C   0  0  0  0  0  0  0  0  0  0  0  0
   25.8136  -19.2555  -15.6001 C   0  0  0  0  0  0  0  0  0  0  0  0
   27.2298  -19.7937  -15.6289 C   0  0  2  0  0  0  0  0  0  0  0  0
   27.4848  -20.5289  -16.8520 N   0  0  0  0  0  0  0  0  0  0  0  0
   27.4666  -20.7419  -14.4948 C   0  0  0  0  0  0  0  0  0  0  0  0
   27.1922  -21.9706  -14.5918 O   0  0  0  0  0  0  0  0  0  0  0  0
   27.5307  -15.1079  -19.6706 C   0  0  0  0  0  0  0  0  0  0  0  0
   31.8252  -21.1302   -9.2845 S   0  0  0  0  0  0  0  0  0  0  0  0
   32.2201  -21.6522  -10.9799 C   0  0  0  0  0  0  0  0  0  0  0  0
   30.7019  -22.0338  -11.8832 C   0  0  0  0  0  0  0  0  0  0  0  0
   29.6397  -21.0486  -11.6622 C   0  0  2  0  0  0  0  0  0  0  0  0
   28.2608  -21.3016  -12.1639 N   0  0  0  0  0  0  0  0  0  0  0  0
   28.0094  -20.3017  -13.2624 C   0  0  0  0  0  0  0  0  0  0  0  0
   27.1434  -21.0964  -11.2419 O   0  0  0  0  0  0  0  0  0  0  0  0
   26.3633  -20.0753  -11.3393 C   0  0  0  0  0  0  0  0  0  0  0  0
   26.1787  -20.9270   -5.9264 C   0  0  2  0  0  0  0  0  0  0  0  0
   26.2407  -19.8385   -7.0332 C   0  0  0  0  0  0  0  0  0  0  0  0
   27.0918  -18.6950   -6.4722 C   0  0  0  0  0  0  0  0  0  0  0  0
   26.9195  -20.4287   -8.2108 C   0  0  1  0  0  0  0  0  0  0  0  0
   26.1324  -21.4490   -8.9917 N   0  0  0  0  0  0  0  0  0  0  0  0
   26.7679  -21.9692  -10.1574 C   0  0  0  0  0  0  0  0  0  0  0  0
   24.8263  -20.8386   -9.2795 O   0  0  0  0  0  0  0  0  0  0  0  0
   23.7534  -21.1443   -8.7436 O   0  0  0  0  0  0  0  0  0  0  0  0
  1  2  1  0
  2  3  2  0
  4  2  1  0
  4  5  1  0
  6  5  1  0
  7  6  1  0
  8  7  1  0
  8  9  1  6
 10  8  1  0
 10 11  2  0
 12 13  1  0
 14 13  1  0
 15 14  1  0
 16 17  1  0
 16 15  1  6
 17 10  1  0
 18 16  1  0
 19 18  2  0
 21 20  1  1
 21 22  1  0
 23 21  1  0
 24 23  1  1
 24 25  1  0
 25 18  1  0
 26 24  1  0
 26 28  1  0
 27 26  2  0
M  END
$$$$
