RML.pdb
     RDKit          3D

 28 27  0  0  1  0  0  0  0  0999 V2000
   29.4605  -21.4956  -18.9115 N   0  0  0  0  0  0  0  0  0  0  0  0
   28.3117  -21.4332  -18.0885 C   0  0  0  0  0  0  0  0  0  0  0  0
   27.2646  -22.1482  -18.2864 N   0  0  0  0  0  0  0  0  0  0  0  0
   28.3226  -20.5194  -16.9734 N   0  0  0  0  0  0  0  0  0  0  0  0
   28.3528  -21.0021  -15.6214 C   0  0  0  0  0  0  0  0  0  0  0  0
   26.9340  -21.4575  -15.2746 C   0  0  0  0  0  0  0  0  0  0  0  0
   26.8586  -21.9112  -13.8160 C   0  0  0  0  0  0  0  0  0  0  0  0
   25.9954  -20.8872  -13.1071 C   0  0  2  0  0  0  0  0  0  0  0  0
   26.5889  -19.5664  -13.1750 N   0  0  0  0  0  0  0  0  0  0  0  0
   25.8474  -21.2227  -11.6556 C   0  0  0  0  0  0  0  0  0  0  0  0
   25.5489  -22.3886  -11.2735 O   0  0  0  0  0  0  0  0  0  0  0  0
   26.4690  -22.1221  -17.6348 C   0  0  0  0  0  0  0  0  0  0  0  0
   29.3759  -19.9818   -5.9074 S   0  0  0  0  0  0  0  0  0  0  0  0
   27.9217  -18.9090   -6.1014 C   0  0  0  0  0  0  0  0  0  0  0  0
   26.5861  -19.8127   -6.9174 C   0  0  0  0  0  0  0  0  0  0  0  0
   26.6996  -19.8087   -8.3785 C   0  0  1  0  0  0  0  0  0  0  0  0
   25.7512  -20.5998   -9.2102 N   0  0  0  0  0  0  0  0  0  0  0  0
   26.0359  -20.2461  -10.6467 C   0  0  0  0  0  0  0  0  0  0  0  0
   24.3195  -20.3363   -9.0624 O   0  0  0  0  0  0  0  0  0  0  0  0
   23.7351  -19.3868   -9.7087 C   0  0  0  0  0  0  0  0  0  0  0  0
   19.6750  -20.3704  -10.4446 C   0  0  2  0  0  0  0  0  0  0  0  0
   20.2811  -21.7937  -10.3005 C   0  0  0  0  0  0  0  0  0  0  0  0
   20.1490  -22.4641  -11.6715 C   0  0  0  0  0  0  0  0  0  0  0  0
   21.7154  -21.6423   -9.9601 C   0  0  1  0  0  0  0  0  0  0  0  0
   22.0220  -21.1632   -8.5648 N   0  0  0  0  0  0  0  0  0  0  0  0
   23.4041  -21.0716   -8.2257 C   0  0  0  0  0  0  0  0  0  0  0  0
   21.2674  -22.0315   -7.6493 O   0  0  0  0  0  0  0  0  0  0  0  0
   20.0373  -22.0406   -7.5135 O   0  0  0  0  0  0  0  0  0  0  0  0
  1  2  1  0
  2  3  2  0
  4  2  1  0
  4  5  1  0
  6  5  1  0
  7  6  1  0
  8  7  1  0
  8  9  1  1
 10  8  1  0
 10 11  2  0
 12 13  1  0
 14 13  1  0
 15 14  1  0
 16 17  1  0
 16 15  1  6
 17 10  1  0
 18 16  1  0
 19 18  2  0
 21 20  1  1
 21 22  1  0
 23 21  1  0
 24 23  1  6
 24 25  1  0
 25 18  1  0
 26 24  1  0
 26 28  1  0
 27 26  2  0
M  END
$$$$
