RML.pdb
     RDKit          3D

 28 27  0  0  1  0  0  0  0  0999 V2000
   29.9191  -25.6836  -16.8025 N   0  0  0  0  0  0  0  0  0  0  0  0
   30.0099  -24.9103  -17.9835 C   0  0  0  0  0  0  0  0  0  0  0  0
   30.1260  -25.4239  -19.1537 N   0  0  0  0  0  0  0  0  0  0  0  0
   29.9697  -23.4744  -17.8610 N   0  0  0  0  0  0  0  0  0  0  0  0
   29.4942  -22.8473  -16.6600 C   0  0  0  0  0  0  0  0  0  0  0  0
   28.1014  -23.4139  -16.3777 C   0  0  0  0  0  0  0  0  0  0  0  0
   27.7307  -23.2164  -14.9071 C   0  0  0  0  0  0  0  0  0  0  0  0
   27.1037  -21.8397  -14.8185 C   0  0  2  0  0  0  0  0  0  0  0  0
   28.0711  -20.8518  -14.3831 N   0  0  0  0  0  0  0  0  0  0  0  0
   25.9864  -21.8220  -13.8222 C   0  0  0  0  0  0  0  0  0  0  0  0
   24.9402  -22.5090  -13.9896 O   0  0  0  0  0  0  0  0  0  0  0  0
   30.3407  -24.8413  -19.9739 C   0  0  0  0  0  0  0  0  0  0  0  0
   26.3063  -19.1821   -7.8064 S   0  0  0  0  0  0  0  0  0  0  0  0
   27.1179  -20.7828   -8.0927 C   0  0  0  0  0  0  0  0  0  0  0  0
   26.6088  -21.4620   -9.6883 C   0  0  0  0  0  0  0  0  0  0  0  0
   25.5381  -20.6903  -10.3251 C   0  0  2  0  0  0  0  0  0  0  0  0
   24.9560  -21.1362  -11.6211 N   0  0  0  0  0  0  0  0  0  0  0  0
   26.0541  -21.0332  -12.6474 C   0  0  0  0  0  0  0  0  0  0  0  0
   23.8659  -20.3467  -12.1951 O   0  0  0  0  0  0  0  0  0  0  0  0
   24.0921  -19.3354  -12.9610 C   0  0  0  0  0  0  0  0  0  0  0  0
   21.5988  -19.9204  -16.3625 C   0  0  2  0  0  0  0  0  0  0  0  0
   21.0153  -21.0776  -15.5057 C   0  0  0  0  0  0  0  0  0  0  0  0
   21.0579  -22.3330  -16.3825 C   0  0  0  0  0  0  0  0  0  0  0  0
   21.9015  -21.2632  -14.3326 C   0  0  1  0  0  0  0  0  0  0  0  0
   21.5469  -20.4751  -13.0983 N   0  0  0  0  0  0  0  0  0  0  0  0
   22.4564  -20.5838  -12.0054 C   0  0  0  0  0  0  0  0  0  0  0  0
   20.1744  -20.8586  -12.7372 O   0  0  0  0  0  0  0  0  0  0  0  0
   19.1459  -20.4902  -13.3188 O   0  0  0  0  0  0  0  0  0  0  0  0
  1  2  1  0
  2  3  2  0
  4  2  1  0
  4  5  1  0
  6  5  1  0
  7  6  1  0
  8  7  1  0
  8  9  1  1
 10  8  1  0
 10 11  2  0
 12 13  1  0
 14 13  1  0
 15 14  1  0
 16 17  1  0
 16 15  1  1
 17 10  1  0
 18 16  1  0
 19 18  2  0
 21 20  1  6
 21 22  1  0
 23 21  1  0
 24 23  1  6
 24 25  1  0
 25 18  1  0
 26 24  1  0
 26 28  1  0
 27 26  2  0
M  END
$$$$
