GTY.pdb
     RDKit          3D

 24 24  0  0  1  0  0  0  0  0999 V2000
   17.6208  -13.7283  -15.7666 N   0  0  0  0  0  0  0  0  0  0  0  0
   17.2782  -12.3510  -15.5357 C   0  0  0  0  0  0  0  0  0  0  0  0
   18.4515  -11.4757  -15.8003 C   0  0  0  0  0  0  0  0  0  0  0  0
   19.6322  -11.9373  -15.8495 O   0  0  0  0  0  0  0  0  0  0  0  0
   19.2061   -9.6109  -18.7342 C   0  0  0  0  0  0  0  0  0  0  0  0
   19.0671   -8.5608  -17.6550 C   0  0  1  0  0  0  0  0  0  0  0  0
   17.8238   -7.9652  -17.7996 O   0  0  0  0  0  0  0  0  0  0  0  0
   19.2690   -9.1442  -16.2806 C   0  0  2  0  0  0  0  0  0  0  0  0
   18.2294  -10.0854  -16.0021 N   0  0  0  0  0  0  0  0  0  0  0  0
   19.3315   -8.0514  -15.2756 C   0  0  0  0  0  0  0  0  0  0  0  0
   18.3345   -7.8299  -14.5533 O   0  0  0  0  0  0  0  0  0  0  0  0
   26.1956   -5.7795  -17.3209 O   0  0  0  0  0  0  0  0  0  0  0  0
   25.1778   -5.9094  -16.3879 C   0  0  0  0  0  0  0  0  0  0  0  0
   24.6236   -4.8031  -15.7916 C   0  0  0  0  0  0  0  0  0  0  0  0
   23.6197   -4.9669  -14.8743 C   0  0  0  0  0  0  0  0  0  0  0  0
   23.1275   -6.2003  -14.5107 C   0  0  0  0  0  0  0  0  0  0  0  0
   22.0527   -6.3011  -13.5210 C   0  0  0  0  0  0  0  0  0  0  0  0
   20.6703   -6.2428  -14.1733 C   0  0  2  0  0  0  0  0  0  0  0  0
   20.5189   -7.2822  -15.1550 N   0  0  0  0  0  0  0  0  0  0  0  0
   20.3557   -4.8986  -14.6798 C   0  0  0  0  0  0  0  0  0  0  0  0
   20.0893   -4.7705  -16.0351 O   0  0  0  0  0  0  0  0  0  0  0  0
   23.6836   -7.3097  -15.1089 C   0  0  0  0  0  0  0  0  0  0  0  0
   24.7044   -7.1605  -16.0432 C   0  0  0  0  0  0  0  0  0  0  0  0
   20.3104   -3.8651  -13.9812 O   0  0  0  0  0  0  0  0  0  0  0  0
  1  2  1  0
  3  2  1  0
  3  9  1  0
  4  3  2  0
  6  5  1  6
  7  6  1  0
  8  6  1  0
  8  9  1  1
  8 10  1  0
 10 19  1  0
 11 10  2  0
 13 12  1  0
 14 13  2  0
 15 14  1  0
 16 22  1  0
 16 15  2  0
 17 16  1  0
 18 17  1  6
 19 18  1  0
 20 21  1  0
 20 18  1  0
 22 23  2  0
 23 13  1  0
 24 20  2  0
M  END
$$$$
