GTY.pdb
     RDKit          3D

 24 24  0  0  1  0  0  0  0  0999 V2000
   21.7616  -22.3263  -17.6452 N   0  0  0  0  0  0  0  0  0  0  0  0
   20.5017  -22.8493  -17.1908 C   0  0  0  0  0  0  0  0  0  0  0  0
   20.5154  -23.0177  -15.7129 C   0  0  0  0  0  0  0  0  0  0  0  0
   21.5551  -22.7872  -15.0234 O   0  0  0  0  0  0  0  0  0  0  0  0
   20.4673  -21.2969  -13.5698 C   0  0  0  0  0  0  0  0  0  0  0  0
   19.1664  -21.9665  -13.1877 C   0  0  1  0  0  0  0  0  0  0  0  0
   18.1294  -21.2068  -13.7063 O   0  0  0  0  0  0  0  0  0  0  0  0
   19.1190  -23.3985  -13.6537 C   0  0  2  0  0  0  0  0  0  0  0  0
   19.3234  -23.4493  -15.0678 N   0  0  0  0  0  0  0  0  0  0  0  0
   17.8326  -24.0180  -13.2420 C   0  0  0  0  0  0  0  0  0  0  0  0
   16.8423  -23.9279  -14.0010 O   0  0  0  0  0  0  0  0  0  0  0  0
   18.7085  -24.5450   -5.6053 O   0  0  0  0  0  0  0  0  0  0  0  0
   18.2571  -25.0227   -6.8265 C   0  0  0  0  0  0  0  0  0  0  0  0
   19.1359  -25.2824   -7.8496 C   0  0  0  0  0  0  0  0  0  0  0  0
   18.6566  -25.7538   -9.0430 C   0  0  0  0  0  0  0  0  0  0  0  0
   17.3197  -25.9852   -9.2774 C   0  0  0  0  0  0  0  0  0  0  0  0
   16.8774  -26.4889  -10.5795 C   0  0  0  0  0  0  0  0  0  0  0  0
   16.5533  -25.3519  -11.5501 C   0  0  2  0  0  0  0  0  0  0  0  0
   17.7531  -24.6988  -11.9985 N   0  0  0  0  0  0  0  0  0  0  0  0
   15.5457  -24.4307  -11.0038 C   0  0  0  0  0  0  0  0  0  0  0  0
   15.9922  -23.2177  -10.5004 O   0  0  0  0  0  0  0  0  0  0  0  0
   16.4385  -25.7246   -8.2510 C   0  0  0  0  0  0  0  0  0  0  0  0
   16.9094  -25.2454   -7.0321 C   0  0  0  0  0  0  0  0  0  0  0  0
   14.3192  -24.6590  -10.9596 O   0  0  0  0  0  0  0  0  0  0  0  0
  1  2  1  0
  3  2  1  0
  3  9  1  0
  4  3  2  0
  6  5  1  6
  7  6  1  0
  8  6  1  0
  8  9  1  6
  8 10  1  0
 10 19  1  0
 11 10  2  0
 13 12  1  0
 14 13  2  0
 15 14  1  0
 16 22  1  0
 16 15  2  0
 17 16  1  0
 18 17  1  1
 19 18  1  0
 20 21  1  0
 20 18  1  0
 22 23  2  0
 23 13  1  0
 24 20  2  0
M  END
$$$$
