GTY.pdb
     RDKit          3D

 24 24  0  0  1  0  0  0  0  0999 V2000
   23.4082  -31.2185  -18.8110 N   0  0  0  0  0  0  0  0  0  0  0  0
   23.6593  -32.1035  -17.7059 C   0  0  0  0  0  0  0  0  0  0  0  0
   23.1059  -31.5307  -16.4496 C   0  0  0  0  0  0  0  0  0  0  0  0
   22.3469  -30.5142  -16.4560 O   0  0  0  0  0  0  0  0  0  0  0  0
   20.6660  -31.4160  -15.1050 C   0  0  0  0  0  0  0  0  0  0  0  0
   21.3838  -32.1364  -13.9857 C   0  0  1  0  0  0  0  0  0  0  0  0
   21.1524  -33.4946  -14.1377 O   0  0  0  0  0  0  0  0  0  0  0  0
   22.8527  -31.8025  -13.9602 C   0  0  2  0  0  0  0  0  0  0  0  0
   23.4449  -32.1494  -15.2145 N   0  0  0  0  0  0  0  0  0  0  0  0
   23.5037  -32.4893  -12.8144 C   0  0  0  0  0  0  0  0  0  0  0  0
   24.1579  -33.5350  -13.0223 O   0  0  0  0  0  0  0  0  0  0  0  0
   27.3363  -34.0286   -5.1472 O   0  0  0  0  0  0  0  0  0  0  0  0
   26.7047  -33.4261   -6.2248 C   0  0  0  0  0  0  0  0  0  0  0  0
   27.3573  -33.2625   -7.4223 C   0  0  0  0  0  0  0  0  0  0  0  0
   26.7041  -32.6635   -8.4666 C   0  0  0  0  0  0  0  0  0  0  0  0
   25.4076  -32.2082   -8.3803 C   0  0  0  0  0  0  0  0  0  0  0  0
   24.7713  -31.5754   -9.5377 C   0  0  0  0  0  0  0  0  0  0  0  0
   23.9430  -32.5733  -10.3490 C   0  0  2  0  0  0  0  0  0  0  0  0
   23.3711  -31.9459  -11.5093 N   0  0  0  0  0  0  0  0  0  0  0  0
   22.9619  -33.2828   -9.5145 C   0  0  0  0  0  0  0  0  0  0  0  0
   23.3466  -34.4969   -8.9649 O   0  0  0  0  0  0  0  0  0  0  0  0
   24.7532  -32.3724   -7.1791 C   0  0  0  0  0  0  0  0  0  0  0  0
   25.4028  -32.9793   -6.1082 C   0  0  0  0  0  0  0  0  0  0  0  0
   21.8094  -32.8738   -9.2640 O   0  0  0  0  0  0  0  0  0  0  0  0
  1  2  1  0
  3  2  1  0
  3  9  1  0
  4  3  2  0
  6  5  1  6
  7  6  1  0
  8  6  1  0
  8  9  1  6
  8 10  1  0
 10 19  1  0
 11 10  2  0
 13 12  1  0
 14 13  2  0
 15 14  1  0
 16 22  1  0
 16 15  2  0
 17 16  1  0
 18 17  1  1
 19 18  1  0
 20 21  1  0
 20 18  1  0
 22 23  2  0
 23 13  1  0
 24 20  2  0
M  END
$$$$
