GTY.pdb
     RDKit          3D

 24 24  0  0  1  0  0  0  0  0999 V2000
   29.2752  -22.0959  -17.4472 N   0  0  0  0  0  0  0  0  0  0  0  0
   27.8857  -22.4467  -17.5642 C   0  0  0  0  0  0  0  0  0  0  0  0
   27.0332  -21.3886  -16.9588 C   0  0  0  0  0  0  0  0  0  0  0  0
   27.3837  -20.1694  -16.9538 O   0  0  0  0  0  0  0  0  0  0  0  0
   25.5889  -19.2010  -17.6315 C   0  0  0  0  0  0  0  0  0  0  0  0
   24.4029  -19.9303  -17.0413 C   0  0  1  0  0  0  0  0  0  0  0  0
   23.7729  -20.6169  -18.0675 O   0  0  0  0  0  0  0  0  0  0  0  0
   24.8129  -20.8366  -15.9097 C   0  0  2  0  0  0  0  0  0  0  0  0
   25.7938  -21.7679  -16.3731 N   0  0  0  0  0  0  0  0  0  0  0  0
   23.6136  -21.5076  -15.3443 C   0  0  0  0  0  0  0  0  0  0  0  0
   23.2275  -22.5878  -15.8431 O   0  0  0  0  0  0  0  0  0  0  0  0
   25.9239  -20.3557   -8.9006 O   0  0  0  0  0  0  0  0  0  0  0  0
   25.0167  -20.8936   -9.8011 C   0  0  0  0  0  0  0  0  0  0  0  0
   25.4445  -21.6474  -10.8665 C   0  0  0  0  0  0  0  0  0  0  0  0
   24.5219  -22.1640  -11.7371 C   0  0  0  0  0  0  0  0  0  0  0  0
   23.1662  -21.9657  -11.6006 C   0  0  0  0  0  0  0  0  0  0  0  0
   22.2361  -22.5474  -12.5708 C   0  0  0  0  0  0  0  0  0  0  0  0
   21.7951  -21.5259  -13.6206 C   0  0  2  0  0  0  0  0  0  0  0  0
   22.9315  -20.9110  -14.2511 N   0  0  0  0  0  0  0  0  0  0  0  0
   20.8243  -20.5631  -13.0795 C   0  0  0  0  0  0  0  0  0  0  0  0
   19.6098  -21.0609  -12.6307 O   0  0  0  0  0  0  0  0  0  0  0  0
   22.7373  -21.2096  -10.5318 C   0  0  0  0  0  0  0  0  0  0  0  0
   23.6621  -20.6776   -9.6380 C   0  0  0  0  0  0  0  0  0  0  0  0
   21.0118  -19.3319  -12.9940 O   0  0  0  0  0  0  0  0  0  0  0  0
  1  2  1  0
  3  2  1  0
  3  9  1  0
  4  3  2  0
  6  5  1  6
  7  6  1  0
  8  6  1  0
  8  9  1  6
  8 10  1  0
 10 19  1  0
 11 10  2  0
 13 12  1  0
 14 13  2  0
 15 14  1  0
 16 22  1  0
 16 15  2  0
 17 16  1  0
 18 17  1  1
 19 18  1  0
 20 21  1  0
 20 18  1  0
 22 23  2  0
 23 13  1  0
 24 20  2  0
M  END
$$$$
