GTY.pdb
     RDKit          3D

 24 24  0  0  1  0  0  0  0  0999 V2000
   20.7249  -12.9793  -18.7059 N   0  0  0  0  0  0  0  0  0  0  0  0
   19.9596  -11.8705  -18.2035 C   0  0  0  0  0  0  0  0  0  0  0  0
   20.8416  -10.9258  -17.4671 C   0  0  0  0  0  0  0  0  0  0  0  0
   21.4597  -11.2709  -16.4143 O   0  0  0  0  0  0  0  0  0  0  0  0
   23.1377   -8.4072  -19.4703 C   0  0  0  0  0  0  0  0  0  0  0  0
   22.3379   -7.6710  -18.4190 C   0  0  1  0  0  0  0  0  0  0  0  0
   21.3235   -6.9804  -19.0635 O   0  0  0  0  0  0  0  0  0  0  0  0
   21.8143   -8.6068  -17.3607 C   0  0  2  0  0  0  0  0  0  0  0  0
   20.9873   -9.6025  -17.9680 N   0  0  0  0  0  0  0  0  0  0  0  0
   21.0968   -7.8314  -16.3155 C   0  0  0  0  0  0  0  0  0  0  0  0
   19.8460   -7.8399  -16.3012 O   0  0  0  0  0  0  0  0  0  0  0  0
   18.1673   -4.8637   -8.8636 O   0  0  0  0  0  0  0  0  0  0  0  0
   18.8689   -5.4690   -9.8955 C   0  0  0  0  0  0  0  0  0  0  0  0
   20.1289   -5.9750   -9.6887 C   0  0  0  0  0  0  0  0  0  0  0  0
   20.7940   -6.5668  -10.7296 C   0  0  0  0  0  0  0  0  0  0  0  0
   20.2601   -6.6839  -11.9932 C   0  0  0  0  0  0  0  0  0  0  0  0
   21.0292   -7.3280  -13.0603 C   0  0  0  0  0  0  0  0  0  0  0  0
   21.2230   -6.4014  -14.2618 C   0  0  2  0  0  0  0  0  0  0  0  0
   21.8435   -7.0983  -15.3557 N   0  0  0  0  0  0  0  0  0  0  0  0
   21.9055   -5.1528  -13.8910 C   0  0  0  0  0  0  0  0  0  0  0  0
   21.1247   -4.0166  -13.7378 O   0  0  0  0  0  0  0  0  0  0  0  0
   18.9962   -6.1764  -12.2004 C   0  0  0  0  0  0  0  0  0  0  0  0
   18.3068   -5.5721  -11.1531 C   0  0  0  0  0  0  0  0  0  0  0  0
   23.1345   -5.0396  -13.7039 O   0  0  0  0  0  0  0  0  0  0  0  0
  1  2  1  0
  3  2  1  0
  3  9  1  0
  4  3  2  0
  6  5  1  6
  7  6  1  0
  8  6  1  0
  8  9  1  6
  8 10  1  0
 10 19  1  0
 11 10  2  0
 13 12  1  0
 14 13  2  0
 15 14  1  0
 16 22  1  0
 16 15  2  0
 17 16  1  0
 18 17  1  1
 19 18  1  0
 20 21  1  0
 20 18  1  0
 22 23  2  0
 23 13  1  0
 24 20  2  0
M  END
$$$$
