GTY.pdb
     RDKit          3D

 24 24  0  0  1  0  0  0  0  0999 V2000
   25.8826  -27.1858  -16.7544 N   0  0  0  0  0  0  0  0  0  0  0  0
   24.8236  -26.2195  -16.6438 C   0  0  0  0  0  0  0  0  0  0  0  0
   25.3773  -24.8850  -16.2899 C   0  0  0  0  0  0  0  0  0  0  0  0
   26.5980  -24.7279  -15.9825 O   0  0  0  0  0  0  0  0  0  0  0  0
   24.4227  -20.0188  -16.1384 C   0  0  0  0  0  0  0  0  0  0  0  0
   24.0775  -21.4194  -16.5921 C   0  0  1  0  0  0  0  0  0  0  0  0
   24.2750  -21.4826  -17.9627 O   0  0  0  0  0  0  0  0  0  0  0  0
   24.8747  -22.4586  -15.8476 C   0  0  2  0  0  0  0  0  0  0  0  0
   24.5032  -23.7629  -16.3005 N   0  0  0  0  0  0  0  0  0  0  0  0
   24.6799  -22.2875  -14.3844 C   0  0  0  0  0  0  0  0  0  0  0  0
   23.5638  -22.5484  -13.8835 O   0  0  0  0  0  0  0  0  0  0  0  0
   26.3725  -19.4484   -6.2054 O   0  0  0  0  0  0  0  0  0  0  0  0
   26.5042  -19.8071   -7.5385 C   0  0  0  0  0  0  0  0  0  0  0  0
   26.8353  -21.0921   -7.8928 C   0  0  0  0  0  0  0  0  0  0  0  0
   26.9571  -21.4128   -9.2188 C   0  0  0  0  0  0  0  0  0  0  0  0
   26.7630  -20.5024  -10.2332 C   0  0  0  0  0  0  0  0  0  0  0  0
   26.9114  -20.9149  -11.6306 C   0  0  0  0  0  0  0  0  0  0  0  0
   25.5976  -21.4399  -12.2124 C   0  0  2  0  0  0  0  0  0  0  0  0
   25.7622  -21.8328  -13.5855 N   0  0  0  0  0  0  0  0  0  0  0  0
   24.4844  -20.5046  -11.9928 C   0  0  0  0  0  0  0  0  0  0  0  0
   23.5694  -20.8192  -10.9988 O   0  0  0  0  0  0  0  0  0  0  0  0
   26.4309  -19.2135   -9.8776 C   0  0  0  0  0  0  0  0  0  0  0  0
   26.3030  -18.8714   -8.5346 C   0  0  0  0  0  0  0  0  0  0  0  0
   24.3019  -19.4491  -12.6337 O   0  0  0  0  0  0  0  0  0  0  0  0
  1  2  1  0
  3  2  1  0
  3  9  1  0
  4  3  2  0
  6  5  1  1
  7  6  1  0
  8  6  1  0
  8  9  1  6
  8 10  1  0
 10 19  1  0
 11 10  2  0
 13 12  1  0
 14 13  2  0
 15 14  1  0
 16 22  1  0
 16 15  2  0
 17 16  1  0
 18 17  1  6
 19 18  1  0
 20 21  1  0
 20 18  1  0
 22 23  2  0
 23 13  1  0
 24 20  2  0
M  END
$$$$
