GTY.pdb
     RDKit          3D

 24 24  0  0  1  0  0  0  0  0999 V2000
   31.1564  -26.1175  -18.6090 N   0  0  0  0  0  0  0  0  0  0  0  0
   29.9165  -25.4383  -18.8716 C   0  0  0  0  0  0  0  0  0  0  0  0
   29.8405  -24.1791  -18.0832 C   0  0  0  0  0  0  0  0  0  0  0  0
   30.8550  -23.6978  -17.4929 O   0  0  0  0  0  0  0  0  0  0  0  0
   28.7515  -21.0065  -19.4238 C   0  0  0  0  0  0  0  0  0  0  0  0
   27.8337  -21.2427  -18.2453 C   0  0  1  0  0  0  0  0  0  0  0  0
   26.5896  -21.6004  -18.7410 O   0  0  0  0  0  0  0  0  0  0  0  0
   28.3944  -22.2735  -17.3004 C   0  0  2  0  0  0  0  0  0  0  0  0
   28.5901  -23.5064  -17.9974 N   0  0  0  0  0  0  0  0  0  0  0  0
   27.4953  -22.4201  -16.1264 C   0  0  0  0  0  0  0  0  0  0  0  0
   26.7481  -23.4205  -16.0521 O   0  0  0  0  0  0  0  0  0  0  0  0
   23.7213  -20.6533   -8.3512 O   0  0  0  0  0  0  0  0  0  0  0  0
   24.5551  -20.6296   -9.4591 C   0  0  0  0  0  0  0  0  0  0  0  0
   25.7551  -21.2978   -9.4520 C   0  0  0  0  0  0  0  0  0  0  0  0
   26.5547  -21.2539  -10.5632 C   0  0  0  0  0  0  0  0  0  0  0  0
   26.2161  -20.5648  -11.7061 C   0  0  0  0  0  0  0  0  0  0  0  0
   27.1209  -20.5598  -12.8577 C   0  0  0  0  0  0  0  0  0  0  0  0
   26.6173  -21.4666  -13.9820 C   0  0  2  0  0  0  0  0  0  0  0  0
   27.5023  -21.4242  -15.1143 N   0  0  0  0  0  0  0  0  0  0  0  0
   25.2111  -21.1990  -14.3183 C   0  0  0  0  0  0  0  0  0  0  0  0
   24.9488  -20.1551  -15.1933 O   0  0  0  0  0  0  0  0  0  0  0  0
   25.0124  -19.8946  -11.7129 C   0  0  0  0  0  0  0  0  0  0  0  0
   24.1882  -19.9294  -10.5919 C   0  0  0  0  0  0  0  0  0  0  0  0
   24.2365  -21.8411  -13.8754 O   0  0  0  0  0  0  0  0  0  0  0  0
  1  2  1  0
  3  2  1  0
  3  9  1  0
  4  3  2  0
  6  5  1  6
  7  6  1  0
  8  6  1  0
  8  9  1  6
  8 10  1  0
 10 19  1  0
 11 10  2  0
 13 12  1  0
 14 13  2  0
 15 14  1  0
 16 22  1  0
 16 15  2  0
 17 16  1  0
 18 17  1  1
 19 18  1  0
 20 21  1  0
 20 18  1  0
 22 23  2  0
 23 13  1  0
 24 20  2  0
M  END
$$$$
