ARI.pdb
     RDKit          3D

 25 24  0  0  1  0  0  0  0  0999 V2000
   13.3666  -17.3689   21.0212 C   0  0  0  0  0  0  0  0  0  0  0  0
   12.3308  -17.7750   22.0621 C   0  0  2  0  0  0  0  0  0  0  0  0
   11.5876  -18.8720   21.5189 N   0  0  0  0  0  0  0  0  0  0  0  0
   11.4691  -16.6071   22.3905 C   0  0  0  0  0  0  0  0  0  0  0  0
   11.9888  -15.6188   22.9531 O   0  0  0  0  0  0  0  0  0  0  0  0
    7.5275  -14.7212   16.6708 N   0  0  0  0  0  0  0  0  0  0  0  0
    7.9356  -13.6268   17.4563 C   0  0  0  0  0  0  0  0  0  0  0  0
    8.9269  -12.9077   17.0355 N   0  0  0  0  0  0  0  0  0  0  0  0
    7.3179  -13.2749   18.6793 N   0  0  0  0  0  0  0  0  0  0  0  0
    7.9590  -13.4501   19.9538 C   0  0  0  0  0  0  0  0  0  0  0  0
    8.5157  -14.8337   20.1323 C   0  0  0  0  0  0  0  0  0  0  0  0
    8.0897  -15.4161   21.4652 C   0  0  0  0  0  0  0  0  0  0  0  0
    9.2223  -15.4517   22.4503 C   0  0  2  0  0  0  0  0  0  0  0  0
   10.0849  -16.5485   22.1012 N   0  0  0  0  0  0  0  0  0  0  0  0
    8.7645  -15.5028   23.8500 C   0  0  0  0  0  0  0  0  0  0  0  0
    8.8477  -16.5988   24.4599 O   0  0  0  0  0  0  0  0  0  0  0  0
    9.3169  -12.1166   17.5796 C   0  0  0  0  0  0  0  0  0  0  0  0
    6.6538  -10.8487   26.2892 C   0  0  0  0  0  0  0  0  0  0  0  0
    7.6406  -11.9922   26.1538 C   0  0  2  0  0  0  0  0  0  0  0  0
    6.8435  -13.2729   26.1626 C   0  0  0  0  0  0  0  0  0  0  0  0
    6.2514  -13.4291   27.5480 C   0  0  2  0  0  0  0  0  0  0  0  0
    7.7008  -14.4851   25.9025 N   0  0  0  0  0  0  0  0  0  0  0  0
    8.2384  -14.3830   24.5375 C   0  0  0  0  0  0  0  0  0  0  0  0
    6.8449  -15.6766   26.0305 O   0  0  0  0  0  0  0  0  0  0  0  0
    6.9439  -16.4627   27.1532 O   0  0  0  0  0  0  0  0  0  0  0  0
  2  1  1  6
  3  2  1  0
  4  5  2  0
  4  2  1  0
  6  7  1  0
  7  9  1  0
  7  8  2  0
  9 10  1  0
 10 11  1  0
 11 12  1  0
 13 12  1  6
 13 14  1  0
 14  4  1  0
 15 22  1  0
 15 13  1  0
 16 15  2  0
 18 17  1  0
 19 18  1  0
 19 21  1  0
 19 20  1  6
 21 22  1  1
 21 23  1  0
 23 24  1  0
 25 23  2  0
M  END
$$$$
