ARI.pdb
     RDKit          3D

 25 24  0  0  1  0  0  0  0  0999 V2000
    7.9457  -12.3684   19.5279 C   0  0  0  0  0  0  0  0  0  0  0  0
    7.8972  -13.8696   19.2723 C   0  0  2  0  0  0  0  0  0  0  0  0
    6.7253  -14.1320   18.4924 N   0  0  0  0  0  0  0  0  0  0  0  0
    7.8950  -14.5968   20.5706 C   0  0  0  0  0  0  0  0  0  0  0  0
    6.8354  -14.6358   21.2333 O   0  0  0  0  0  0  0  0  0  0  0  0
   11.0494  -22.6097   24.4177 N   0  0  0  0  0  0  0  0  0  0  0  0
   10.3540  -21.3993   24.2372 C   0  0  0  0  0  0  0  0  0  0  0  0
    9.0746  -21.4518   24.0444 N   0  0  0  0  0  0  0  0  0  0  0  0
   10.9824  -20.1320   24.2558 N   0  0  0  0  0  0  0  0  0  0  0  0
   10.9490  -19.2301   23.1371 C   0  0  0  0  0  0  0  0  0  0  0  0
    9.9865  -18.0954   23.3416 C   0  0  0  0  0  0  0  0  0  0  0  0
    9.9949  -17.1622   22.1473 C   0  0  0  0  0  0  0  0  0  0  0  0
    9.0352  -16.0205   22.3198 C   0  0  2  0  0  0  0  0  0  0  0  0
    9.0304  -15.2522   21.1038 N   0  0  0  0  0  0  0  0  0  0  0  0
    9.3207  -15.2057   23.5139 C   0  0  0  0  0  0  0  0  0  0  0  0
   10.4095  -14.5787   23.5558 O   0  0  0  0  0  0  0  0  0  0  0  0
    8.4672  -20.6128   24.0791 C   0  0  0  0  0  0  0  0  0  0  0  0
    5.7530  -12.0249   25.7186 C   0  0  0  0  0  0  0  0  0  0  0  0
    7.0524  -12.6182   25.2093 C   0  0  2  0  0  0  0  0  0  0  0  0
    7.5486  -13.5768   26.2631 C   0  0  0  0  0  0  0  0  0  0  0  0
    7.9386  -12.7562   27.4751 C   0  0  2  0  0  0  0  0  0  0  0  0
    8.7752  -14.3329   25.8205 N   0  0  0  0  0  0  0  0  0  0  0  0
    8.4327  -15.0954   24.6106 C   0  0  0  0  0  0  0  0  0  0  0  0
    9.1592  -15.2442   26.9116 O   0  0  0  0  0  0  0  0  0  0  0  0
    8.7770  -16.5629   26.8572 O   0  0  0  0  0  0  0  0  0  0  0  0
  2  1  1  1
  3  2  1  0
  4  5  2  0
  4  2  1  0
  6  7  1  0
  7  9  1  0
  7  8  2  0
  9 10  1  0
 10 11  1  0
 11 12  1  0
 13 12  1  6
 13 14  1  0
 14  4  1  0
 15 22  1  0
 15 13  1  0
 16 15  2  0
 18 17  1  0
 19 18  1  0
 19 21  1  0
 19 20  1  1
 21 22  1  6
 21 23  1  0
 23 24  1  0
 25 23  2  0
M  END
$$$$
