ARI.pdb
     RDKit          3D

 25 24  0  0  1  0  0  0  0  0999 V2000
    8.6827  -20.6685   22.3912 C   0  0  0  0  0  0  0  0  0  0  0  0
    8.3139  -19.5920   23.4044 C   0  0  2  0  0  0  0  0  0  0  0  0
    6.8843  -19.5318   23.4616 N   0  0  0  0  0  0  0  0  0  0  0  0
    8.9253  -18.2967   23.0008 C   0  0  0  0  0  0  0  0  0  0  0  0
   10.1696  -18.1819   23.0461 O   0  0  0  0  0  0  0  0  0  0  0  0
    9.6486  -12.3491   18.3119 N   0  0  0  0  0  0  0  0  0  0  0  0
    8.5849  -13.1359   17.8316 C   0  0  0  0  0  0  0  0  0  0  0  0
    8.6414  -13.5608   16.6097 N   0  0  0  0  0  0  0  0  0  0  0  0
    7.4604  -13.4845   18.6160 N   0  0  0  0  0  0  0  0  0  0  0  0
    7.3395  -13.1302   20.0038 C   0  0  0  0  0  0  0  0  0  0  0  0
    8.3382  -13.8445   20.8689 C   0  0  0  0  0  0  0  0  0  0  0  0
    7.8126  -15.2037   21.2855 C   0  0  0  0  0  0  0  0  0  0  0  0
    8.7351  -15.8910   22.2504 C   0  0  2  0  0  0  0  0  0  0  0  0
    8.1756  -17.1782   22.5651 N   0  0  0  0  0  0  0  0  0  0  0  0
    9.0221  -15.0804   23.4470 C   0  0  0  0  0  0  0  0  0  0  0  0
    9.6953  -14.0288   23.3017 O   0  0  0  0  0  0  0  0  0  0  0  0
    7.8643  -14.0774   16.1588 C   0  0  0  0  0  0  0  0  0  0  0  0
    6.6017  -11.7619   27.2088 C   0  0  0  0  0  0  0  0  0  0  0  0
    7.7796  -12.7162   27.2486 C   0  0  2  0  0  0  0  0  0  0  0  0
    7.6144  -13.6772   26.0976 C   0  0  0  0  0  0  0  0  0  0  0  0
    6.4405  -14.5773   26.4232 C   0  0  2  0  0  0  0  0  0  0  0  0
    8.8198  -14.5629   25.9110 N   0  0  0  0  0  0  0  0  0  0  0  0
    8.5786  -15.4269   24.7458 C   0  0  0  0  0  0  0  0  0  0  0  0
    8.9743  -15.3743   27.1301 O   0  0  0  0  0  0  0  0  0  0  0  0
    8.7979  -16.7353   27.0633 O   0  0  0  0  0  0  0  0  0  0  0  0
  2  1  1  6
  3  2  1  0
  4  5  2  0
  4  2  1  0
  6  7  1  0
  7  9  1  0
  7  8  2  0
  9 10  1  0
 10 11  1  0
 11 12  1  0
 13 12  1  6
 13 14  1  0
 14  4  1  0
 15 22  1  0
 15 13  1  0
 16 15  2  0
 18 17  1  0
 19 18  1  0
 19 21  1  0
 19 20  1  6
 21 22  1  1
 21 23  1  0
 23 24  1  0
 25 23  2  0
M  END
$$$$
