ARI.pdb
     RDKit          3D

 25 24  0  0  1  0  0  0  0  0999 V2000
    8.0512  -12.2278   19.3738 C   0  0  0  0  0  0  0  0  0  0  0  0
    8.2311  -13.7094   19.0673 C   0  0  2  0  0  0  0  0  0  0  0  0
    7.3328  -14.0366   18.0012 N   0  0  0  0  0  0  0  0  0  0  0  0
    7.9747  -14.5078   20.2966 C   0  0  0  0  0  0  0  0  0  0  0  0
    6.7914  -14.7685   20.6055 O   0  0  0  0  0  0  0  0  0  0  0  0
   12.0987  -19.8712   22.0719 N   0  0  0  0  0  0  0  0  0  0  0  0
   11.0564  -20.6390   21.5194 C   0  0  0  0  0  0  0  0  0  0  0  0
   11.3637  -21.5644   20.6673 N   0  0  0  0  0  0  0  0  0  0  0  0
    9.6936  -20.4500   21.8483 N   0  0  0  0  0  0  0  0  0  0  0  0
    8.9217  -19.3401   21.3600 C   0  0  0  0  0  0  0  0  0  0  0  0
    8.6884  -18.2944   22.4126 C   0  0  0  0  0  0  0  0  0  0  0  0
    9.5516  -17.0748   22.1585 C   0  0  0  0  0  0  0  0  0  0  0  0
    8.7789  -15.7970   22.3160 C   0  0  2  0  0  0  0  0  0  0  0  0
    8.9993  -14.9932   21.1437 N   0  0  0  0  0  0  0  0  0  0  0  0
    9.0931  -15.0865   23.5681 C   0  0  0  0  0  0  0  0  0  0  0  0
   10.2065  -14.5098   23.6576 O   0  0  0  0  0  0  0  0  0  0  0  0
   10.6505  -22.1316   20.1735 C   0  0  0  0  0  0  0  0  0  0  0  0
    5.9890  -11.5811   25.8069 C   0  0  0  0  0  0  0  0  0  0  0  0
    7.2110  -12.3505   25.3439 C   0  0  2  0  0  0  0  0  0  0  0  0
    7.4449  -13.4583   26.3407 C   0  0  0  0  0  0  0  0  0  0  0  0
    7.8374  -12.8121   27.6532 C   0  0  2  0  0  0  0  0  0  0  0  0
    8.5755  -14.3684   25.9337 N   0  0  0  0  0  0  0  0  0  0  0  0
    8.2062  -15.0222   24.6694 C   0  0  0  0  0  0  0  0  0  0  0  0
    8.7517  -15.3700   26.9987 O   0  0  0  0  0  0  0  0  0  0  0  0
    8.0822  -16.5673   26.9183 O   0  0  0  0  0  0  0  0  0  0  0  0
  2  1  1  1
  3  2  1  0
  4  5  2  0
  4  2  1  0
  6  7  1  0
  7  9  1  0
  7  8  2  0
  9 10  1  0
 10 11  1  0
 11 12  1  0
 13 12  1  6
 13 14  1  0
 14  4  1  0
 15 22  1  0
 15 13  1  0
 16 15  2  0
 18 17  1  0
 19 18  1  0
 19 21  1  0
 19 20  1  6
 21 22  1  6
 21 23  1  0
 23 24  1  0
 25 23  2  0
M  END
$$$$
