ARI.pdb
     RDKit          3D

 25 24  0  0  1  0  0  0  0  0999 V2000
    7.3685  -13.1103   18.6461 C   0  0  0  0  0  0  0  0  0  0  0  0
    8.4175  -13.9221   19.3959 C   0  0  2  0  0  0  0  0  0  0  0  0
    8.7347  -15.0602   18.5868 N   0  0  0  0  0  0  0  0  0  0  0  0
    7.8914  -14.3011   20.7352 C   0  0  0  0  0  0  0  0  0  0  0  0
    7.6040  -13.3926   21.5449 O   0  0  0  0  0  0  0  0  0  0  0  0
    7.4948  -21.2967   24.4052 N   0  0  0  0  0  0  0  0  0  0  0  0
    7.0981  -20.5992   25.5617 C   0  0  0  0  0  0  0  0  0  0  0  0
    7.5748  -20.9849   26.7022 N   0  0  0  0  0  0  0  0  0  0  0  0
    6.2069  -19.5008   25.5392 N   0  0  0  0  0  0  0  0  0  0  0  0
    6.0403  -18.6570   24.3876 C   0  0  0  0  0  0  0  0  0  0  0  0
    7.3292  -18.0237   23.9473 C   0  0  0  0  0  0  0  0  0  0  0  0
    7.2244  -17.5306   22.5180 C   0  0  0  0  0  0  0  0  0  0  0  0
    7.1976  -16.0313   22.4416 C   0  0  2  0  0  0  0  0  0  0  0  0
    7.6954  -15.6400   21.1501 N   0  0  0  0  0  0  0  0  0  0  0  0
    7.9165  -15.3867   23.5547 C   0  0  0  0  0  0  0  0  0  0  0  0
    9.1721  -15.3512   23.5062 O   0  0  0  0  0  0  0  0  0  0  0  0
    7.3431  -20.5132   27.5955 C   0  0  0  0  0  0  0  0  0  0  0  0
    6.7008  -11.5381   25.1359 C   0  0  0  0  0  0  0  0  0  0  0  0
    5.9537  -12.6010   25.9181 C   0  0  1  0  0  0  0  0  0  0  0  0
    6.9858  -13.4361   26.6343 C   0  0  0  0  0  0  0  0  0  0  0  0
    7.7411  -12.5174   27.5722 C   0  0  2  0  0  0  0  0  0  0  0  0
    7.9938  -14.0388   25.6893 N   0  0  0  0  0  0  0  0  0  0  0  0
    7.2648  -14.8084   24.6701 C   0  0  0  0  0  0  0  0  0  0  0  0
    8.8709  -14.9246   26.4733 O   0  0  0  0  0  0  0  0  0  0  0  0
   10.0776  -14.4507   26.9287 O   0  0  0  0  0  0  0  0  0  0  0  0
  2  1  1  6
  3  2  1  0
  4  5  2  0
  4  2  1  0
  6  7  1  0
  7  9  1  0
  7  8  2  0
  9 10  1  0
 10 11  1  0
 11 12  1  0
 13 12  1  1
 13 14  1  0
 14  4  1  0
 15 22  1  0
 15 13  1  0
 16 15  2  0
 18 17  1  0
 19 18  1  0
 19 21  1  0
 19 20  1  1
 21 22  1  6
 21 23  1  0
 23 24  1  0
 25 23  2  0
M  END
$$$$
