ARI.pdb
     RDKit          3D

 25 24  0  0  1  0  0  0  0  0999 V2000
    7.3463  -12.6310   18.7684 C   0  0  0  0  0  0  0  0  0  0  0  0
    8.5604  -13.2888   19.4125 C   0  0  2  0  0  0  0  0  0  0  0  0
    9.1024  -14.2096   18.4592 N   0  0  0  0  0  0  0  0  0  0  0  0
    8.1540  -13.9518   20.6812 C   0  0  0  0  0  0  0  0  0  0  0  0
    7.5688  -13.2714   21.5518 O   0  0  0  0  0  0  0  0  0  0  0  0
    9.4733  -18.3751   17.4006 N   0  0  0  0  0  0  0  0  0  0  0  0
    9.6791  -19.5363   18.1689 C   0  0  0  0  0  0  0  0  0  0  0  0
    9.3908  -20.6811   17.6367 N   0  0  0  0  0  0  0  0  0  0  0  0
   10.1841  -19.5144   19.4901 N   0  0  0  0  0  0  0  0  0  0  0  0
    9.3656  -19.2082   20.6313 C   0  0  0  0  0  0  0  0  0  0  0  0
    9.1176  -17.7345   20.7824 C   0  0  0  0  0  0  0  0  0  0  0  0
    8.2602  -17.4565   22.0009 C   0  0  0  0  0  0  0  0  0  0  0  0
    7.9698  -15.9921   22.1611 C   0  0  2  0  0  0  0  0  0  0  0  0
    8.3927  -15.3181   20.9628 N   0  0  0  0  0  0  0  0  0  0  0  0
    8.5623  -15.4194   23.3827 C   0  0  0  0  0  0  0  0  0  0  0  0
    9.7697  -15.0713   23.3475 O   0  0  0  0  0  0  0  0  0  0  0  0
    9.5117  -21.5796   18.1387 C   0  0  0  0  0  0  0  0  0  0  0  0
    5.7251  -12.0209   26.3278 C   0  0  0  0  0  0  0  0  0  0  0  0
    6.8497  -12.7013   25.5715 C   0  0  2  0  0  0  0  0  0  0  0  0
    7.3898  -13.7928   26.4617 C   0  0  0  0  0  0  0  0  0  0  0  0
    8.0455  -13.1242   27.6522 C   0  0  2  0  0  0  0  0  0  0  0  0
    8.4450  -14.6234   25.7769 N   0  0  0  0  0  0  0  0  0  0  0  0
    7.8413  -15.2433   24.5879 C   0  0  0  0  0  0  0  0  0  0  0  0
    8.8894  -15.6572   26.7268 O   0  0  0  0  0  0  0  0  0  0  0  0
    9.8511  -15.3504   27.6590 O   0  0  0  0  0  0  0  0  0  0  0  0
  2  1  1  6
  3  2  1  0
  4  5  2  0
  4  2  1  0
  6  7  1  0
  7  9  1  0
  7  8  2  0
  9 10  1  0
 10 11  1  0
 11 12  1  0
 13 12  1  6
 13 14  1  0
 14  4  1  0
 15 22  1  0
 15 13  1  0
 16 15  2  0
 18 17  1  0
 19 18  1  0
 19 21  1  0
 19 20  1  1
 21 22  1  6
 21 23  1  0
 23 24  1  0
 25 23  2  0
M  END
$$$$
