ARI.pdb
     RDKit          3D

 25 24  0  0  1  0  0  0  0  0999 V2000
    7.5140  -12.7121   18.4980 C   0  0  0  0  0  0  0  0  0  0  0  0
    8.5319  -13.4857   19.3268 C   0  0  2  0  0  0  0  0  0  0  0  0
    9.0403  -14.5402   18.5020 N   0  0  0  0  0  0  0  0  0  0  0  0
    7.8842  -13.9914   20.5674 C   0  0  0  0  0  0  0  0  0  0  0  0
    7.4618  -13.1627   21.4030 O   0  0  0  0  0  0  0  0  0  0  0  0
    8.3465  -20.4764   20.7824 N   0  0  0  0  0  0  0  0  0  0  0  0
    8.2733  -20.9420   22.1087 C   0  0  0  0  0  0  0  0  0  0  0  0
    8.7111  -22.1337   22.3638 N   0  0  0  0  0  0  0  0  0  0  0  0
    7.7466  -20.1741   23.1737 N   0  0  0  0  0  0  0  0  0  0  0  0
    6.4779  -19.5029   23.0962 C   0  0  0  0  0  0  0  0  0  0  0  0
    6.6035  -18.0151   23.2598 C   0  0  0  0  0  0  0  0  0  0  0  0
    7.1298  -17.3777   21.9894 C   0  0  0  0  0  0  0  0  0  0  0  0
    7.1884  -15.8811   22.0944 C   0  0  2  0  0  0  0  0  0  0  0  0
    7.7168  -15.3660   20.8597 N   0  0  0  0  0  0  0  0  0  0  0  0
    7.9347  -15.4172   23.2773 C   0  0  0  0  0  0  0  0  0  0  0  0
    9.1902  -15.4681   23.2421 O   0  0  0  0  0  0  0  0  0  0  0  0
    8.6362  -22.5703   23.3007 C   0  0  0  0  0  0  0  0  0  0  0  0
    5.5774  -11.6310   26.3973 C   0  0  0  0  0  0  0  0  0  0  0  0
    6.6067  -12.3442   25.5420 C   0  0  2  0  0  0  0  0  0  0  0  0
    7.1709  -13.4719   26.3700 C   0  0  0  0  0  0  0  0  0  0  0  0
    8.0055  -12.8521   27.4716 C   0  0  2  0  0  0  0  0  0  0  0  0
    8.0794  -14.3719   25.5721 N   0  0  0  0  0  0  0  0  0  0  0  0
    7.3091  -14.9195   24.4454 C   0  0  0  0  0  0  0  0  0  0  0  0
    8.5319  -15.4554   26.4609 O   0  0  0  0  0  0  0  0  0  0  0  0
    9.7465  -15.3474   27.0944 O   0  0  0  0  0  0  0  0  0  0  0  0
  2  1  1  6
  3  2  1  0
  4  5  2  0
  4  2  1  0
  6  7  1  0
  7  9  1  0
  7  8  2  0
  9 10  1  0
 10 11  1  0
 11 12  1  0
 13 12  1  6
 13 14  1  0
 14  4  1  0
 15 22  1  0
 15 13  1  0
 16 15  2  0
 18 17  1  0
 19 18  1  0
 19 21  1  0
 19 20  1  1
 21 22  1  6
 21 23  1  0
 23 24  1  0
 25 23  2  0
M  END
$$$$
