ARI.pdb
     RDKit          3D

 25 24  0  0  1  0  0  0  0  0999 V2000
    8.6684  -12.1681   19.3000 C   0  0  0  0  0  0  0  0  0  0  0  0
    8.3666  -13.6126   18.9209 C   0  0  2  0  0  0  0  0  0  0  0  0
    7.2855  -13.5902   17.9820 N   0  0  0  0  0  0  0  0  0  0  0  0
    8.0440  -14.3930   20.1462 C   0  0  0  0  0  0  0  0  0  0  0  0
    6.8953  -14.2988   20.6310 O   0  0  0  0  0  0  0  0  0  0  0  0
    6.0798  -18.9585   24.0668 N   0  0  0  0  0  0  0  0  0  0  0  0
    6.9839  -19.8371   24.6927 C   0  0  0  0  0  0  0  0  0  0  0  0
    6.5034  -20.8518   25.3381 N   0  0  0  0  0  0  0  0  0  0  0  0
    8.3876  -19.6667   24.6517 N   0  0  0  0  0  0  0  0  0  0  0  0
    9.0178  -18.5544   23.9945 C   0  0  0  0  0  0  0  0  0  0  0  0
    8.6300  -18.4466   22.5473 C   0  0  0  0  0  0  0  0  0  0  0  0
    9.3933  -17.3266   21.8690 C   0  0  0  0  0  0  0  0  0  0  0  0
    8.6781  -16.0112   21.9809 C   0  0  2  0  0  0  0  0  0  0  0  0
    8.9681  -15.2421   20.8005 N   0  0  0  0  0  0  0  0  0  0  0  0
    8.9915  -15.2913   23.2278 C   0  0  0  0  0  0  0  0  0  0  0  0
   10.1496  -14.8222   23.3649 O   0  0  0  0  0  0  0  0  0  0  0  0
    7.1014  -21.5230   25.8538 C   0  0  0  0  0  0  0  0  0  0  0  0
    6.3314  -11.6743   27.2253 C   0  0  0  0  0  0  0  0  0  0  0  0
    7.4843  -12.6493   27.0845 C   0  0  2  0  0  0  0  0  0  0  0  0
    7.2437  -13.4463   25.8266 C   0  0  0  0  0  0  0  0  0  0  0  0
    6.0257  -14.3144   26.0658 C   0  0  2  0  0  0  0  0  0  0  0  0
    8.3925  -14.3661   25.5005 N   0  0  0  0  0  0  0  0  0  0  0  0
    8.0561  -15.1036   24.2735 C   0  0  0  0  0  0  0  0  0  0  0  0
    8.5583  -15.2958   26.6304 O   0  0  0  0  0  0  0  0  0  0  0  0
    9.3175  -14.9175   27.7115 O   0  0  0  0  0  0  0  0  0  0  0  0
  2  1  1  1
  3  2  1  0
  4  5  2  0
  4  2  1  0
  6  7  1  0
  7  9  1  0
  7  8  2  0
  9 10  1  0
 10 11  1  0
 11 12  1  0
 13 12  1  6
 13 14  1  0
 14  4  1  0
 15 22  1  0
 15 13  1  0
 16 15  2  0
 18 17  1  0
 19 18  1  0
 19 21  1  0
 19 20  1  6
 21 22  1  1
 21 23  1  0
 23 24  1  0
 25 23  2  0
M  END
$$$$
