CMS.pdb
     RDKit          3D

 21 20  0  0  1  0  0  0  0  0999 V2000
    8.0064  -12.8874   19.0642 N   0  0  0  0  0  0  0  0  0  0  0  0
    7.4000  -13.8395   19.9616 C   0  0  1  0  0  0  0  0  0  0  0  0
    7.4424  -15.1944   19.3248 C   0  0  0  0  0  0  0  0  0  0  0  0
    6.8334  -16.4871   20.4426 S   0  0  0  0  0  0  0  0  0  0  0  0
    8.1336  -13.8817   21.2806 C   0  0  0  0  0  0  0  0  0  0  0  0
    9.3608  -13.6990   21.1989 O   0  0  0  0  0  0  0  0  0  0  0  0
    5.9820  -11.0321   26.4371 C   0  0  0  0  0  0  0  0  0  0  0  0
    6.8047  -12.3604   27.3409 S   0  0  0  0  0  0  0  0  0  0  0  0
    7.7766  -13.3235   26.1578 C   0  0  0  0  0  0  0  0  0  0  0  0
    7.1377  -13.3316   24.7947 C   0  0  0  0  0  0  0  0  0  0  0  0
    7.9578  -14.1370   23.8088 C   0  0  2  0  0  0  0  0  0  0  0  0
    7.4447  -14.1116   22.4771 N   0  0  0  0  0  0  0  0  0  0  0  0
    8.3793  -15.4532   24.3047 C   0  0  0  0  0  0  0  0  0  0  0  0
    7.5557  -16.4307   24.3673 O   0  0  0  0  0  0  0  0  0  0  0  0
   11.5637  -17.1121   23.1953 O   0  0  0  0  0  0  0  0  0  0  0  0
   11.4623  -17.4359   24.5451 C   0  0  0  0  0  0  0  0  0  0  0  0
   10.1024  -17.0730   25.1048 C   0  0  2  0  0  0  0  0  0  0  0  0
    9.6983  -15.7441   24.7438 N   0  0  0  0  0  0  0  0  0  0  0  0
   10.0548  -17.3222   26.5591 C   0  0  0  0  0  0  0  0  0  0  0  0
   10.3483  -18.5264   27.1664 O   0  0  0  0  0  0  0  0  0  0  0  0
    9.7208  -16.3617   27.2998 O   0  0  0  0  0  0  0  0  0  0  0  0
  2  3  1  0
  2  1  1  6
  4  3  1  0
  5  2  1  0
  5 12  1  0
  6  5  2  0
  7  8  1  0
  8  9  1  0
  9 10  1  0
 11 10  1  1
 11 12  1  0
 13 14  2  0
 13 11  1  0
 16 15  1  0
 17 18  1  0
 17 16  1  1
 18 13  1  0
 19 17  1  0
 20 19  1  0
 21 19  2  0
M  END
$$$$
