CMS.pdb
     RDKit          3D

 21 20  0  0  1  0  0  0  0  0999 V2000
    7.8892  -12.8021   19.5787 N   0  0  0  0  0  0  0  0  0  0  0  0
    7.4250  -13.9187   20.3643 C   0  0  1  0  0  0  0  0  0  0  0  0
    7.6954  -15.1832   19.6086 C   0  0  0  0  0  0  0  0  0  0  0  0
    7.1159  -16.6474   20.5096 S   0  0  0  0  0  0  0  0  0  0  0  0
    8.1301  -13.9709   21.6984 C   0  0  0  0  0  0  0  0  0  0  0  0
    9.3164  -13.5993   21.6742 O   0  0  0  0  0  0  0  0  0  0  0  0
    6.7239  -10.3188   26.8940 C   0  0  0  0  0  0  0  0  0  0  0  0
    6.8492  -12.1171   26.9846 S   0  0  0  0  0  0  0  0  0  0  0  0
    6.8436  -12.7641   25.2955 C   0  0  0  0  0  0  0  0  0  0  0  0
    7.0625  -14.2534   25.2735 C   0  0  0  0  0  0  0  0  0  0  0  0
    7.9927  -14.6550   24.1480 C   0  0  2  0  0  0  0  0  0  0  0  0
    7.4607  -14.4103   22.8464 N   0  0  0  0  0  0  0  0  0  0  0  0
    8.6435  -15.9577   24.3363 C   0  0  0  0  0  0  0  0  0  0  0  0
    7.9900  -17.0493   24.1970 O   0  0  0  0  0  0  0  0  0  0  0  0
   12.1389  -16.8804   23.0986 O   0  0  0  0  0  0  0  0  0  0  0  0
   12.0250  -17.4754   24.3516 C   0  0  0  0  0  0  0  0  0  0  0  0
   10.6057  -17.4042   24.8757 C   0  0  2  0  0  0  0  0  0  0  0  0
   10.0132  -16.1119   24.6787 N   0  0  0  0  0  0  0  0  0  0  0  0
   10.5442  -17.8663   26.2763 C   0  0  0  0  0  0  0  0  0  0  0  0
   11.0445  -19.0676   26.7368 O   0  0  0  0  0  0  0  0  0  0  0  0
    9.9932  -17.1052   27.1129 O   0  0  0  0  0  0  0  0  0  0  0  0
  2  3  1  0
  2  1  1  6
  4  3  1  0
  5  2  1  0
  5 12  1  0
  6  5  2  0
  7  8  1  0
  8  9  1  0
  9 10  1  0
 11 10  1  1
 11 12  1  0
 13 14  2  0
 13 11  1  0
 16 15  1  0
 17 18  1  0
 17 16  1  1
 18 13  1  0
 19 17  1  0
 20 19  1  0
 21 19  2  0
M  END
$$$$
