CMS.pdb
     RDKit          3D

 21 20  0  0  1  0  0  0  0  0999 V2000
    6.8905  -16.1605   20.0599 N   0  0  0  0  0  0  0  0  0  0  0  0
    7.8139  -15.0530   20.0478 C   0  0  1  0  0  0  0  0  0  0  0  0
    7.0841  -13.8240   19.6004 C   0  0  0  0  0  0  0  0  0  0  0  0
    8.1938  -12.3972   19.4436 S   0  0  0  0  0  0  0  0  0  0  0  0
    8.3953  -14.8193   21.4215 C   0  0  0  0  0  0  0  0  0  0  0  0
    9.5517  -14.3624   21.4256 O   0  0  0  0  0  0  0  0  0  0  0  0
    6.8090  -11.0458   27.4560 C   0  0  0  0  0  0  0  0  0  0  0  0
    6.1484  -12.5194   26.6497 S   0  0  0  0  0  0  0  0  0  0  0  0
    7.4449  -13.2075   25.5927 C   0  0  0  0  0  0  0  0  0  0  0  0
    6.9563  -14.4106   24.8310 C   0  0  0  0  0  0  0  0  0  0  0  0
    8.0427  -14.9743   23.9393 C   0  0  2  0  0  0  0  0  0  0  0  0
    7.6536  -15.1088   22.5726 N   0  0  0  0  0  0  0  0  0  0  0  0
    8.7638  -16.1178   24.5125 C   0  0  0  0  0  0  0  0  0  0  0  0
    8.2327  -17.2816   24.5519 O   0  0  0  0  0  0  0  0  0  0  0  0
   12.8618  -18.4124   25.2639 O   0  0  0  0  0  0  0  0  0  0  0  0
   12.2044  -17.2362   24.9155 C   0  0  0  0  0  0  0  0  0  0  0  0
   10.7984  -17.1958   25.4775 C   0  0  2  0  0  0  0  0  0  0  0  0
   10.0732  -16.0314   25.0558 N   0  0  0  0  0  0  0  0  0  0  0  0
   10.8186  -17.3711   26.9431 C   0  0  0  0  0  0  0  0  0  0  0  0
   11.2713  -18.4975   27.6001 O   0  0  0  0  0  0  0  0  0  0  0  0
   10.3897  -16.4194   27.6454 O   0  0  0  0  0  0  0  0  0  0  0  0
  2  3  1  0
  2  1  1  1
  4  3  1  0
  5  2  1  0
  5 12  1  0
  6  5  2  0
  7  8  1  0
  8  9  1  0
  9 10  1  0
 11 10  1  1
 11 12  1  0
 13 14  2  0
 13 11  1  0
 16 15  1  0
 17 18  1  0
 17 16  1  1
 18 13  1  0
 19 17  1  0
 20 19  1  0
 21 19  2  0
M  END
$$$$
