CMS.pdb
     RDKit          3D

 21 20  0  0  1  0  0  0  0  0999 V2000
    8.0536  -12.6662   19.2919 N   0  0  0  0  0  0  0  0  0  0  0  0
    7.3652  -13.6594   20.0786 C   0  0  1  0  0  0  0  0  0  0  0  0
    7.2729  -14.9241   19.2817 C   0  0  0  0  0  0  0  0  0  0  0  0
    6.4983  -16.2650   20.2271 S   0  0  0  0  0  0  0  0  0  0  0  0
    8.1009  -13.9318   21.3687 C   0  0  0  0  0  0  0  0  0  0  0  0
    9.3404  -13.8962   21.2777 O   0  0  0  0  0  0  0  0  0  0  0  0
    6.4353  -10.6506   27.3609 C   0  0  0  0  0  0  0  0  0  0  0  0
    6.1375  -12.3672   26.8891 S   0  0  0  0  0  0  0  0  0  0  0  0
    7.1175  -12.7189   25.4100 C   0  0  0  0  0  0  0  0  0  0  0  0
    6.9687  -14.1530   24.9768 C   0  0  0  0  0  0  0  0  0  0  0  0
    7.9213  -14.4872   23.8480 C   0  0  2  0  0  0  0  0  0  0  0  0
    7.4005  -14.1989   22.5508 N   0  0  0  0  0  0  0  0  0  0  0  0
    8.5976  -15.7828   23.9902 C   0  0  0  0  0  0  0  0  0  0  0  0
    8.0185  -16.8716   23.6478 O   0  0  0  0  0  0  0  0  0  0  0  0
   12.5376  -18.4336   23.9104 O   0  0  0  0  0  0  0  0  0  0  0  0
   11.9115  -17.1922   23.8468 C   0  0  0  0  0  0  0  0  0  0  0  0
   10.5698  -17.2079   24.5494 C   0  0  2  0  0  0  0  0  0  0  0  0
    9.9129  -15.9327   24.5044 N   0  0  0  0  0  0  0  0  0  0  0  0
   10.7048  -17.7463   25.9173 C   0  0  0  0  0  0  0  0  0  0  0  0
   11.2474  -18.9751   26.2349 O   0  0  0  0  0  0  0  0  0  0  0  0
   10.2929  -17.0283   26.8647 O   0  0  0  0  0  0  0  0  0  0  0  0
  2  3  1  0
  2  1  1  6
  4  3  1  0
  5  2  1  0
  5 12  1  0
  6  5  2  0
  7  8  1  0
  8  9  1  0
  9 10  1  0
 11 10  1  1
 11 12  1  0
 13 14  2  0
 13 11  1  0
 16 15  1  0
 17 18  1  0
 17 16  1  1
 18 13  1  0
 19 17  1  0
 20 19  1  0
 21 19  2  0
M  END
$$$$
