CMS.pdb
     RDKit          3D

 21 20  0  0  1  0  0  0  0  0999 V2000
    8.3069  -15.4776   18.8322 N   0  0  0  0  0  0  0  0  0  0  0  0
    7.3436  -15.3496   19.8976 C   0  0  1  0  0  0  0  0  0  0  0  0
    6.5373  -16.6096   19.9701 C   0  0  0  0  0  0  0  0  0  0  0  0
    7.5584  -18.0422   20.4138 S   0  0  0  0  0  0  0  0  0  0  0  0
    8.0304  -15.1164   21.2218 C   0  0  0  0  0  0  0  0  0  0  0  0
    9.2303  -15.4414   21.2493 O   0  0  0  0  0  0  0  0  0  0  0  0
    7.1015  -11.9409   28.4391 C   0  0  0  0  0  0  0  0  0  0  0  0
    6.3089  -12.2297   26.8434 S   0  0  0  0  0  0  0  0  0  0  0  0
    7.4095  -13.2677   25.8518 C   0  0  0  0  0  0  0  0  0  0  0  0
    6.8415  -13.5235   24.4813 C   0  0  0  0  0  0  0  0  0  0  0  0
    7.7910  -14.3494   23.6389 C   0  0  2  0  0  0  0  0  0  0  0  0
    7.3312  -14.5745   22.3065 N   0  0  0  0  0  0  0  0  0  0  0  0
    8.3488  -15.5203   24.3272 C   0  0  0  0  0  0  0  0  0  0  0  0
    7.6878  -16.6127   24.4145 O   0  0  0  0  0  0  0  0  0  0  0  0
   12.2059  -18.1359   25.2865 O   0  0  0  0  0  0  0  0  0  0  0  0
   11.6521  -16.9271   24.8753 C   0  0  0  0  0  0  0  0  0  0  0  0
   10.2383  -16.7572   25.3917 C   0  0  2  0  0  0  0  0  0  0  0  0
    9.6316  -15.5388   24.9365 N   0  0  0  0  0  0  0  0  0  0  0  0
   10.1974  -16.9163   26.8587 C   0  0  0  0  0  0  0  0  0  0  0  0
   10.3789  -18.1078   27.5316 O   0  0  0  0  0  0  0  0  0  0  0  0
    9.9803  -15.8854   27.5465 O   0  0  0  0  0  0  0  0  0  0  0  0
  2  3  1  0
  2  1  1  6
  4  3  1  0
  5  2  1  0
  5 12  1  0
  6  5  2  0
  7  8  1  0
  8  9  1  0
  9 10  1  0
 11 10  1  1
 11 12  1  0
 13 14  2  0
 13 11  1  0
 16 15  1  0
 17 18  1  0
 17 16  1  1
 18 13  1  0
 19 17  1  0
 20 19  1  0
 21 19  2  0
M  END
$$$$
