CMS.pdb
     RDKit          3D

 21 20  0  0  1  0  0  0  0  0999 V2000
    9.9097  -15.8990   19.6175 N   0  0  0  0  0  0  0  0  0  0  0  0
    8.7619  -15.8873   20.4904 C   0  0  1  0  0  0  0  0  0  0  0  0
    8.1103  -17.2351   20.4454 C   0  0  0  0  0  0  0  0  0  0  0  0
    7.1106  -17.4539   18.9473 S   0  0  0  0  0  0  0  0  0  0  0  0
    9.1666  -15.5728   21.9106 C   0  0  0  0  0  0  0  0  0  0  0  0
   10.3385  -15.8745   22.1961 O   0  0  0  0  0  0  0  0  0  0  0  0
    7.2090  -11.1358   27.3685 C   0  0  0  0  0  0  0  0  0  0  0  0
    6.2956  -12.6542   27.0244 S   0  0  0  0  0  0  0  0  0  0  0  0
    7.4495  -13.8523   26.3137 C   0  0  0  0  0  0  0  0  0  0  0  0
    7.3145  -13.9282   24.8163 C   0  0  0  0  0  0  0  0  0  0  0  0
    8.3842  -14.8141   24.2128 C   0  0  2  0  0  0  0  0  0  0  0  0
    8.2597  -14.9872   22.8015 N   0  0  0  0  0  0  0  0  0  0  0  0
    8.6663  -16.0325   24.9822 C   0  0  0  0  0  0  0  0  0  0  0  0
    7.7673  -16.9264   25.1575 O   0  0  0  0  0  0  0  0  0  0  0  0
   12.5434  -17.4442   25.7170 O   0  0  0  0  0  0  0  0  0  0  0  0
   11.4163  -18.2581   25.6505 C   0  0  0  0  0  0  0  0  0  0  0  0
   10.1955  -17.5676   26.2224 C   0  0  2  0  0  0  0  0  0  0  0  0
    9.9239  -16.3136   25.5794 N   0  0  0  0  0  0  0  0  0  0  0  0
   10.2990  -17.4593   27.6910 C   0  0  0  0  0  0  0  0  0  0  0  0
   10.5439  -18.5136   28.5477 O   0  0  0  0  0  0  0  0  0  0  0  0
   10.1524  -16.3175   28.1986 O   0  0  0  0  0  0  0  0  0  0  0  0
  2  3  1  0
  2  1  1  6
  4  3  1  0
  5  2  1  0
  5 12  1  0
  6  5  2  0
  7  8  1  0
  8  9  1  0
  9 10  1  0
 11 10  1  1
 11 12  1  0
 13 14  2  0
 13 11  1  0
 16 15  1  0
 17 18  1  0
 17 16  1  6
 18 13  1  0
 19 17  1  0
 20 19  1  0
 21 19  2  0
M  END
$$$$
