CMS.pdb
     RDKit          3D

 21 20  0  0  1  0  0  0  0  0999 V2000
    7.5181  -18.1637   21.1361 N   0  0  0  0  0  0  0  0  0  0  0  0
    7.0464  -17.6203   22.3857 C   0  0  1  0  0  0  0  0  0  0  0  0
    6.7042  -18.7531   23.3037 C   0  0  0  0  0  0  0  0  0  0  0  0
    5.2795  -19.7033   22.7045 S   0  0  0  0  0  0  0  0  0  0  0  0
    8.1012  -16.7532   23.0302 C   0  0  0  0  0  0  0  0  0  0  0  0
    9.2723  -17.0717   22.7596 O   0  0  0  0  0  0  0  0  0  0  0  0
    5.4207  -11.4422   27.4116 C   0  0  0  0  0  0  0  0  0  0  0  0
    6.4108  -11.5467   25.9061 S   0  0  0  0  0  0  0  0  0  0  0  0
    7.1056  -13.2139   25.8081 C   0  0  0  0  0  0  0  0  0  0  0  0
    8.0270  -13.3600   24.6266 C   0  0  0  0  0  0  0  0  0  0  0  0
    8.5921  -14.7623   24.5411 C   0  0  2  0  0  0  0  0  0  0  0  0
    7.7422  -15.6850   23.8602 N   0  0  0  0  0  0  0  0  0  0  0  0
    9.1927  -15.2502   25.7890 C   0  0  0  0  0  0  0  0  0  0  0  0
    8.5027  -15.9114   26.6402 O   0  0  0  0  0  0  0  0  0  0  0  0
   10.8434  -15.0422   29.8073 O   0  0  0  0  0  0  0  0  0  0  0  0
   10.2809  -14.7539   28.5673 C   0  0  0  0  0  0  0  0  0  0  0  0
   11.0613  -15.3949   27.4385 C   0  0  2  0  0  0  0  0  0  0  0  0
   10.5505  -15.0357   26.1464 N   0  0  0  0  0  0  0  0  0  0  0  0
   11.1643  -16.8538   27.6398 C   0  0  0  0  0  0  0  0  0  0  0  0
   10.5495  -17.8072   26.8534 O   0  0  0  0  0  0  0  0  0  0  0  0
   11.8668  -17.2566   28.6026 O   0  0  0  0  0  0  0  0  0  0  0  0
  2  3  1  0
  2  1  1  6
  4  3  1  0
  5  2  1  0
  5 12  1  0
  6  5  2  0
  7  8  1  0
  8  9  1  0
  9 10  1  0
 11 10  1  1
 11 12  1  0
 13 14  2  0
 13 11  1  0
 16 15  1  0
 17 18  1  0
 17 16  1  1
 18 13  1  0
 19 17  1  0
 20 19  1  0
 21 19  2  0
M  END
$$$$
