CMS.pdb
     RDKit          3D

 21 20  0  0  1  0  0  0  0  0999 V2000
    6.0500  -18.7423   21.4561 N   0  0  0  0  0  0  0  0  0  0  0  0
    5.9840  -18.0520   22.7204 C   0  0  1  0  0  0  0  0  0  0  0  0
    6.5449  -18.9440   23.7847 C   0  0  0  0  0  0  0  0  0  0  0  0
    5.7215  -20.5604   23.8166 S   0  0  0  0  0  0  0  0  0  0  0  0
    6.7740  -16.7661   22.6757 C   0  0  0  0  0  0  0  0  0  0  0  0
    6.4747  -16.0045   21.7395 O   0  0  0  0  0  0  0  0  0  0  0  0
    6.9988  -11.1526   27.2950 C   0  0  0  0  0  0  0  0  0  0  0  0
    6.1686  -12.3078   26.1841 S   0  0  0  0  0  0  0  0  0  0  0  0
    7.4157  -13.0213   25.0852 C   0  0  0  0  0  0  0  0  0  0  0  0
    6.9568  -14.3332   24.5067 C   0  0  0  0  0  0  0  0  0  0  0  0
    8.1314  -15.2363   24.1939 C   0  0  2  0  0  0  0  0  0  0  0  0
    7.7570  -16.4949   23.6344 N   0  0  0  0  0  0  0  0  0  0  0  0
    9.1545  -15.2852   25.2460 C   0  0  0  0  0  0  0  0  0  0  0  0
    8.8479  -15.1020   26.4750 O   0  0  0  0  0  0  0  0  0  0  0  0
   10.9145  -18.7534   26.7213 O   0  0  0  0  0  0  0  0  0  0  0  0
   10.2650  -17.6029   26.2836 C   0  0  0  0  0  0  0  0  0  0  0  0
   11.1900  -16.7116   25.4809 C   0  0  2  0  0  0  0  0  0  0  0  0
   10.5304  -15.5328   24.9961 N   0  0  0  0  0  0  0  0  0  0  0  0
   11.8621  -17.4831   24.4167 C   0  0  0  0  0  0  0  0  0  0  0  0
   13.2146  -17.7548   24.3691 O   0  0  0  0  0  0  0  0  0  0  0  0
   11.1452  -17.9258   23.4825 O   0  0  0  0  0  0  0  0  0  0  0  0
  2  3  1  0
  2  1  1  6
  4  3  1  0
  5  2  1  0
  5 12  1  0
  6  5  2  0
  7  8  1  0
  8  9  1  0
  9 10  1  0
 11 10  1  1
 11 12  1  0
 13 14  2  0
 13 11  1  0
 16 15  1  0
 17 18  1  0
 17 16  1  6
 18 13  1  0
 19 17  1  0
 20 19  1  0
 21 19  2  0
M  END
$$$$
