CMS.pdb
     RDKit          3D

 21 20  0  0  1  0  0  0  0  0999 V2000
    9.9721  -16.3427   19.4569 N   0  0  0  0  0  0  0  0  0  0  0  0
    8.8891  -16.6251   20.3661 C   0  0  1  0  0  0  0  0  0  0  0  0
    8.7098  -18.1095   20.4534 C   0  0  0  0  0  0  0  0  0  0  0  0
    8.3658  -18.8463   18.8316 S   0  0  0  0  0  0  0  0  0  0  0  0
    9.1801  -16.0731   21.7410 C   0  0  0  0  0  0  0  0  0  0  0  0
   10.3834  -16.0652   22.0539 O   0  0  0  0  0  0  0  0  0  0  0  0
    7.4714  -11.9181   27.7952 C   0  0  0  0  0  0  0  0  0  0  0  0
    7.4319  -12.2882   26.0290 S   0  0  0  0  0  0  0  0  0  0  0  0
    7.0784  -14.0514   25.8347 C   0  0  0  0  0  0  0  0  0  0  0  0
    6.9723  -14.4370   24.3833 C   0  0  0  0  0  0  0  0  0  0  0  0
    8.2154  -15.1652   23.9165 C   0  0  2  0  0  0  0  0  0  0  0  0
    8.1442  -15.6171   22.5644 N   0  0  0  0  0  0  0  0  0  0  0  0
    8.7506  -16.1310   24.8843 C   0  0  0  0  0  0  0  0  0  0  0  0
    8.1132  -17.2036   25.1691 O   0  0  0  0  0  0  0  0  0  0  0  0
   12.6745  -18.1444   26.7891 O   0  0  0  0  0  0  0  0  0  0  0  0
   12.0887  -17.1300   26.0376 C   0  0  0  0  0  0  0  0  0  0  0  0
   10.6002  -17.0307   26.2996 C   0  0  2  0  0  0  0  0  0  0  0  0
    9.9849  -15.9615   25.5660 N   0  0  0  0  0  0  0  0  0  0  0  0
   10.3295  -16.9741   27.7497 C   0  0  0  0  0  0  0  0  0  0  0  0
   10.5261  -18.0160   28.6334 O   0  0  0  0  0  0  0  0  0  0  0  0
    9.8856  -15.8921   28.2134 O   0  0  0  0  0  0  0  0  0  0  0  0
  2  3  1  0
  2  1  1  6
  4  3  1  0
  5  2  1  0
  5 12  1  0
  6  5  2  0
  7  8  1  0
  8  9  1  0
  9 10  1  0
 11 10  1  1
 11 12  1  0
 13 14  2  0
 13 11  1  0
 16 15  1  0
 17 18  1  0
 17 16  1  1
 18 13  1  0
 19 17  1  0
 20 19  1  0
 21 19  2  0
M  END
$$$$
