CMS.pdb
     RDKit          3D

 21 20  0  0  1  0  0  0  0  0999 V2000
    8.8819  -15.2141   19.7525 N   0  0  0  0  0  0  0  0  0  0  0  0
    8.0008  -15.6707   20.7987 C   0  0  1  0  0  0  0  0  0  0  0  0
    7.7254  -17.1284   20.5928 C   0  0  0  0  0  0  0  0  0  0  0  0
    6.7467  -17.4274   19.0947 S   0  0  0  0  0  0  0  0  0  0  0  0
    8.6245  -15.4650   22.1583 C   0  0  0  0  0  0  0  0  0  0  0  0
    9.8653  -15.5427   22.1781 O   0  0  0  0  0  0  0  0  0  0  0  0
    6.4324  -10.3960   26.4507 C   0  0  0  0  0  0  0  0  0  0  0  0
    6.1227  -12.1723   26.5330 S   0  0  0  0  0  0  0  0  0  0  0  0
    7.3332  -13.0008   25.4745 C   0  0  0  0  0  0  0  0  0  0  0  0
    7.2059  -14.4985   25.5571 C   0  0  0  0  0  0  0  0  0  0  0  0
    8.2105  -15.1854   24.6559 C   0  0  2  0  0  0  0  0  0  0  0  0
    7.8286  -15.2093   23.2809 N   0  0  0  0  0  0  0  0  0  0  0  0
    8.7428  -16.4447   25.1918 C   0  0  0  0  0  0  0  0  0  0  0  0
    8.0577  -17.5247   25.1451 O   0  0  0  0  0  0  0  0  0  0  0  0
   11.9450  -17.9083   24.3194 O   0  0  0  0  0  0  0  0  0  0  0  0
   11.8900  -18.1561   25.6879 C   0  0  0  0  0  0  0  0  0  0  0  0
   10.5268  -17.8266   26.2598 C   0  0  2  0  0  0  0  0  0  0  0  0
   10.0253  -16.5668   25.7895 N   0  0  0  0  0  0  0  0  0  0  0  0
   10.5397  -17.9361   27.7320 C   0  0  0  0  0  0  0  0  0  0  0  0
   10.9248  -19.0569   28.4396 O   0  0  0  0  0  0  0  0  0  0  0  0
   10.1710  -16.9292   28.3900 O   0  0  0  0  0  0  0  0  0  0  0  0
  2  3  1  0
  2  1  1  6
  4  3  1  0
  5  2  1  0
  5 12  1  0
  6  5  2  0
  7  8  1  0
  8  9  1  0
  9 10  1  0
 11 10  1  1
 11 12  1  0
 13 14  2  0
 13 11  1  0
 16 15  1  0
 17 18  1  0
 17 16  1  1
 18 13  1  0
 19 17  1  0
 20 19  1  0
 21 19  2  0
M  END
$$$$
