CMS.pdb
     RDKit          3D

 21 20  0  0  1  0  0  0  0  0999 V2000
    9.1105  -14.9699   19.5662 N   0  0  0  0  0  0  0  0  0  0  0  0
    8.2450  -15.5994   20.5326 C   0  0  1  0  0  0  0  0  0  0  0  0
    8.1438  -17.0582   20.2087 C   0  0  0  0  0  0  0  0  0  0  0  0
    7.1285  -17.3555   18.7348 S   0  0  0  0  0  0  0  0  0  0  0  0
    8.7862  -15.4325   21.9322 C   0  0  0  0  0  0  0  0  0  0  0  0
   10.0260  -15.4723   22.0181 O   0  0  0  0  0  0  0  0  0  0  0  0
    6.5666  -10.5455   26.3799 C   0  0  0  0  0  0  0  0  0  0  0  0
    6.3457  -12.3297   26.5405 S   0  0  0  0  0  0  0  0  0  0  0  0
    7.1994  -13.1257   25.1587 C   0  0  0  0  0  0  0  0  0  0  0  0
    7.1668  -14.6259   25.2794 C   0  0  0  0  0  0  0  0  0  0  0  0
    8.2280  -15.2697   24.4120 C   0  0  2  0  0  0  0  0  0  0  0  0
    7.9222  -15.2498   23.0180 N   0  0  0  0  0  0  0  0  0  0  0  0
    8.7465  -16.5409   24.9329 C   0  0  0  0  0  0  0  0  0  0  0  0
    8.0035  -17.5809   24.9974 O   0  0  0  0  0  0  0  0  0  0  0  0
   12.8065  -17.3537   25.2628 O   0  0  0  0  0  0  0  0  0  0  0  0
   11.8690  -18.3792   25.1820 C   0  0  0  0  0  0  0  0  0  0  0  0
   10.5621  -17.9931   25.8430 C   0  0  2  0  0  0  0  0  0  0  0  0
   10.0775  -16.7184   25.3956 N   0  0  0  0  0  0  0  0  0  0  0  0
   10.6725  -18.0920   27.3118 C   0  0  0  0  0  0  0  0  0  0  0  0
   11.1337  -19.1968   27.9988 O   0  0  0  0  0  0  0  0  0  0  0  0
   10.3185  -17.0913   27.9871 O   0  0  0  0  0  0  0  0  0  0  0  0
  2  3  1  0
  2  1  1  6
  4  3  1  0
  5  2  1  0
  5 12  1  0
  6  5  2  0
  7  8  1  0
  8  9  1  0
  9 10  1  0
 11 10  1  1
 11 12  1  0
 13 14  2  0
 13 11  1  0
 16 15  1  0
 17 18  1  0
 17 16  1  6
 18 13  1  0
 19 17  1  0
 20 19  1  0
 21 19  2  0
M  END
$$$$
