CMS.pdb
     RDKit          3D

 21 20  0  0  1  0  0  0  0  0999 V2000
    8.9922  -15.1926   19.5976 N   0  0  0  0  0  0  0  0  0  0  0  0
    8.0975  -15.6150   20.6466 C   0  0  1  0  0  0  0  0  0  0  0  0
    7.6983  -17.0362   20.3944 C   0  0  0  0  0  0  0  0  0  0  0  0
    6.6366  -17.1917   18.9315 S   0  0  0  0  0  0  0  0  0  0  0  0
    8.7632  -15.5130   21.9980 C   0  0  0  0  0  0  0  0  0  0  0  0
   10.0000  -15.6389   21.9789 O   0  0  0  0  0  0  0  0  0  0  0  0
    5.8031  -11.0215   26.3487 C   0  0  0  0  0  0  0  0  0  0  0  0
    6.9567  -12.3282   26.8172 S   0  0  0  0  0  0  0  0  0  0  0  0
    7.4873  -13.1733   25.3085 C   0  0  0  0  0  0  0  0  0  0  0  0
    7.4718  -14.6690   25.4784 C   0  0  0  0  0  0  0  0  0  0  0  0
    8.4300  -15.3408   24.5174 C   0  0  2  0  0  0  0  0  0  0  0  0
    8.0068  -15.2933   23.1550 N   0  0  0  0  0  0  0  0  0  0  0  0
    8.9434  -16.6361   24.9807 C   0  0  0  0  0  0  0  0  0  0  0  0
    8.2136  -17.6868   24.9465 O   0  0  0  0  0  0  0  0  0  0  0  0
   13.0179  -17.5318   25.3575 O   0  0  0  0  0  0  0  0  0  0  0  0
   12.0272  -18.4868   25.1491 C   0  0  0  0  0  0  0  0  0  0  0  0
   10.7430  -18.1234   25.8653 C   0  0  2  0  0  0  0  0  0  0  0  0
   10.2551  -16.8267   25.4910 N   0  0  0  0  0  0  0  0  0  0  0  0
   10.8956  -18.2901   27.3242 C   0  0  0  0  0  0  0  0  0  0  0  0
   11.3378  -19.4392   27.9482 O   0  0  0  0  0  0  0  0  0  0  0  0
   10.5992  -17.3082   28.0527 O   0  0  0  0  0  0  0  0  0  0  0  0
  2  3  1  0
  2  1  1  6
  4  3  1  0
  5  2  1  0
  5 12  1  0
  6  5  2  0
  7  8  1  0
  8  9  1  0
  9 10  1  0
 11 10  1  1
 11 12  1  0
 13 14  2  0
 13 11  1  0
 16 15  1  0
 17 18  1  0
 17 16  1  6
 18 13  1  0
 19 17  1  0
 20 19  1  0
 21 19  2  0
M  END
$$$$
