CMS.pdb
     RDKit          3D

 21 20  0  0  1  0  0  0  0  0999 V2000
    9.2095  -16.9637   16.0826 N   0  0  0  0  0  0  0  0  0  0  0  0
   10.4183  -16.3814   15.5545 C   0  0  1  0  0  0  0  0  0  0  0  0
   10.0676  -15.5435   14.3637 C   0  0  0  0  0  0  0  0  0  0  0  0
    8.6287  -16.1996   13.4745 S   0  0  0  0  0  0  0  0  0  0  0  0
   11.1006  -15.5205   16.5904 C   0  0  0  0  0  0  0  0  0  0  0  0
   12.1925  -15.0448   16.2335 O   0  0  0  0  0  0  0  0  0  0  0  0
    7.1610  -13.1662   20.6727 C   0  0  0  0  0  0  0  0  0  0  0  0
    7.9979  -11.9503   19.6338 S   0  0  0  0  0  0  0  0  0  0  0  0
    9.3878  -12.7726   18.8190 C   0  0  0  0  0  0  0  0  0  0  0  0
   10.0391  -13.7840   19.7241 C   0  0  0  0  0  0  0  0  0  0  0  0
   11.0534  -14.6205   18.9728 C   0  0  2  0  0  0  0  0  0  0  0  0
   10.5125  -15.3027   17.8417 N   0  0  0  0  0  0  0  0  0  0  0  0
   11.9392  -15.4151   19.8330 C   0  0  0  0  0  0  0  0  0  0  0  0
   11.5971  -16.5803   20.2371 O   0  0  0  0  0  0  0  0  0  0  0  0
   15.6923  -14.0705   21.4481 O   0  0  0  0  0  0  0  0  0  0  0  0
   15.5339  -15.3654   20.9632 C   0  0  0  0  0  0  0  0  0  0  0  0
   14.0896  -15.8154   21.0367 C   0  0  2  0  0  0  0  0  0  0  0  0
   13.2132  -14.9707   20.2764 N   0  0  0  0  0  0  0  0  0  0  0  0
   13.6666  -15.9803   22.4415 C   0  0  0  0  0  0  0  0  0  0  0  0
   14.2514  -16.8404   23.3490 O   0  0  0  0  0  0  0  0  0  0  0  0
   12.6988  -15.2822   22.8398 O   0  0  0  0  0  0  0  0  0  0  0  0
  2  3  1  0
  2  1  1  1
  4  3  1  0
  5  2  1  0
  5 12  1  0
  6  5  2  0
  7  8  1  0
  8  9  1  0
  9 10  1  0
 11 10  1  1
 11 12  1  0
 13 14  2  0
 13 11  1  0
 16 15  1  0
 17 18  1  0
 17 16  1  1
 18 13  1  0
 19 17  1  0
 20 19  1  0
 21 19  2  0
M  END
$$$$
