PNA.pdb
     RDKit          3D

 21 21  0  0  1  0  0  0  0  0999 V2000
    8.7022  -15.0853   19.7874 N   0  0  0  0  0  0  0  0  0  0  0  0
    8.6585  -14.8175   18.3629 C   0  0  0  0  0  0  0  0  0  0  0  0
    7.7615  -13.6284   18.1626 C   0  0  0  0  0  0  0  0  0  0  0  0
    7.2297  -13.3470   19.5291 C   0  0  0  0  0  0  0  0  0  0  0  0
    8.3379  -13.8439   20.4407 C   0  0  1  0  0  0  0  0  0  0  0  0
    7.8223  -14.0510   21.7998 C   0  0  0  0  0  0  0  0  0  0  0  0
    7.2666  -13.1073   22.4124 O   0  0  0  0  0  0  0  0  0  0  0  0
    5.5757  -18.1476   23.1269 N   0  0  0  0  0  0  0  0  0  0  0  0
    6.9820  -17.9531   23.0888 C   0  0  0  0  0  0  0  0  0  0  0  0
    7.6403  -18.5386   22.2103 O   0  0  0  0  0  0  0  0  0  0  0  0
    7.6404  -17.0793   24.0665 C   0  0  0  0  0  0  0  0  0  0  0  0
    7.3989  -15.6045   23.7331 C   0  0  2  0  0  0  0  0  0  0  0  0
    7.9430  -15.2997   22.4291 N   0  0  0  0  0  0  0  0  0  0  0  0
    8.0333  -14.7777   24.7700 C   0  0  0  0  0  0  0  0  0  0  0  0
    9.2684  -14.7786   25.0062 O   0  0  0  0  0  0  0  0  0  0  0  0
    6.7661  -12.0566   27.0178 C   0  0  0  0  0  0  0  0  0  0  0  0
    7.7752  -13.1094   26.6257 C   0  0  2  0  0  0  0  0  0  0  0  0
    7.2240  -13.9209   25.5630 N   0  0  0  0  0  0  0  0  0  0  0  0
    8.1454  -13.9468   27.7919 C   0  0  0  0  0  0  0  0  0  0  0  0
    7.7127  -15.1256   27.9002 O   0  0  0  0  0  0  0  0  0  0  0  0
    8.9679  -13.4813   28.7965 O   0  0  0  0  0  0  0  0  0  0  0  0
  2  1  1  0
  3  4  1  0
  3  2  1  0
  4  5  1  0
  5  1  1  0
  5  6  1  1
  6 13  1  0
  7  6  2  0
  9  8  1  0
 10  9  2  0
 11  9  1  0
 12 11  1  1
 12 13  1  0
 12 14  1  0
 14 15  2  0
 14 18  1  0
 17 16  1  1
 17 19  1  0
 18 17  1  0
 19 21  1  0
 20 19  2  0
M  END
$$$$
