PNA.pdb
     RDKit          3D

 21 21  0  0  1  0  0  0  0  0999 V2000
    7.3119  -15.0047   20.7590 N   0  0  0  0  0  0  0  0  0  0  0  0
    6.6563  -14.4947   19.5704 C   0  0  0  0  0  0  0  0  0  0  0  0
    7.3860  -13.2456   19.1629 C   0  0  0  0  0  0  0  0  0  0  0  0
    8.3838  -13.0417   20.2548 C   0  0  0  0  0  0  0  0  0  0  0  0
    8.6522  -14.4533   20.7462 C   0  0  1  0  0  0  0  0  0  0  0  0
    9.2614  -14.4183   22.0817 C   0  0  0  0  0  0  0  0  0  0  0  0
   10.4328  -13.9927   22.2279 O   0  0  0  0  0  0  0  0  0  0  0  0
    6.4585  -15.6819   24.5953 N   0  0  0  0  0  0  0  0  0  0  0  0
    6.7867  -14.5680   25.4130 C   0  0  0  0  0  0  0  0  0  0  0  0
    5.8796  -14.0207   26.0652 O   0  0  0  0  0  0  0  0  0  0  0  0
    8.1673  -14.0766   25.4840 C   0  0  0  0  0  0  0  0  0  0  0  0
    9.0813  -14.8741   24.5496 C   0  0  2  0  0  0  0  0  0  0  0  0
    8.5465  -14.8577   23.2068 N   0  0  0  0  0  0  0  0  0  0  0  0
    9.1839  -16.2511   25.0542 C   0  0  0  0  0  0  0  0  0  0  0  0
    8.2664  -17.1043   24.9489 O   0  0  0  0  0  0  0  0  0  0  0  0
   12.0296  -18.4016   25.9407 C   0  0  0  0  0  0  0  0  0  0  0  0
   10.5820  -18.0245   26.1469 C   0  0  2  0  0  0  0  0  0  0  0  0
   10.3794  -16.6635   25.7013 N   0  0  0  0  0  0  0  0  0  0  0  0
   10.1936  -18.1777   27.5695 C   0  0  0  0  0  0  0  0  0  0  0  0
    9.8450  -17.1772   28.2522 O   0  0  0  0  0  0  0  0  0  0  0  0
   10.1957  -19.4037   28.2015 O   0  0  0  0  0  0  0  0  0  0  0  0
  2  1  1  0
  3  4  1  0
  3  2  1  0
  4  5  1  0
  5  1  1  0
  5  6  1  1
  6 13  1  0
  7  6  2  0
  9  8  1  0
 10  9  2  0
 11  9  1  0
 12 11  1  1
 12 13  1  0
 12 14  1  0
 14 15  2  0
 14 18  1  0
 17 16  1  1
 17 19  1  0
 18 17  1  0
 19 21  1  0
 20 19  2  0
M  END
$$$$
