PNA.pdb
     RDKit          3D

 21 21  0  0  1  0  0  0  0  0999 V2000
   10.3877  -17.8990   18.4279 N   0  0  0  0  0  0  0  0  0  0  0  0
    9.0034  -17.9562   17.9996 C   0  0  0  0  0  0  0  0  0  0  0  0
    8.1539  -17.6647   19.2047 C   0  0  0  0  0  0  0  0  0  0  0  0
    9.1393  -17.5699   20.3226 C   0  0  0  0  0  0  0  0  0  0  0  0
   10.4028  -17.0900   19.6304 C   0  0  1  0  0  0  0  0  0  0  0  0
   11.5751  -17.3541   20.4741 C   0  0  0  0  0  0  0  0  0  0  0  0
   12.1997  -18.4367   20.3620 O   0  0  0  0  0  0  0  0  0  0  0  0
   16.1927  -15.9064   22.7607 N   0  0  0  0  0  0  0  0  0  0  0  0
   15.0192  -15.3941   23.3752 C   0  0  0  0  0  0  0  0  0  0  0  0
   15.0630  -15.0896   24.5806 O   0  0  0  0  0  0  0  0  0  0  0  0
   13.7838  -15.2293   22.6010 C   0  0  0  0  0  0  0  0  0  0  0  0
   13.1566  -16.5874   22.2745 C   0  0  2  0  0  0  0  0  0  0  0  0
   12.0110  -16.4054   21.4120 N   0  0  0  0  0  0  0  0  0  0  0  0
   12.7648  -17.2394   23.5326 C   0  0  0  0  0  0  0  0  0  0  0  0
   11.9226  -16.7617   24.3348 O   0  0  0  0  0  0  0  0  0  0  0  0
   13.0645  -20.7010   24.7701 C   0  0  0  0  0  0  0  0  0  0  0  0
   12.9558  -19.2225   25.0573 C   0  0  2  0  0  0  0  0  0  0  0  0
   13.3590  -18.4813   23.8826 N   0  0  0  0  0  0  0  0  0  0  0  0
   13.7857  -18.8492   26.2278 C   0  0  0  0  0  0  0  0  0  0  0  0
   14.9289  -18.3426   26.0701 O   0  0  0  0  0  0  0  0  0  0  0  0
   13.3511  -19.0362   27.5235 O   0  0  0  0  0  0  0  0  0  0  0  0
  2  1  1  0
  3  4  1  0
  3  2  1  0
  4  5  1  0
  5  1  1  0
  5  6  1  1
  6 13  1  0
  7  6  2  0
  9  8  1  0
 10  9  2  0
 11  9  1  0
 12 11  1  1
 12 13  1  0
 12 14  1  0
 14 15  2  0
 14 18  1  0
 17 16  1  6
 17 19  1  0
 18 17  1  0
 19 21  1  0
 20 19  2  0
M  END
$$$$
