PNA.pdb
     RDKit          3D

 21 21  0  0  1  0  0  0  0  0999 V2000
    8.4051  -13.0381   18.4784 N   0  0  0  0  0  0  0  0  0  0  0  0
    7.6096  -13.1777   17.2740 C   0  0  0  0  0  0  0  0  0  0  0  0
    6.9813  -14.5425   17.3134 C   0  0  0  0  0  0  0  0  0  0  0  0
    7.5726  -15.1737   18.5305 C   0  0  0  0  0  0  0  0  0  0  0  0
    7.8612  -13.9855   19.4309 C   0  0  1  0  0  0  0  0  0  0  0  0
    8.8284  -14.3596   20.4704 C   0  0  0  0  0  0  0  0  0  0  0  0
   10.0589  -14.2333   20.2595 O   0  0  0  0  0  0  0  0  0  0  0  0
   10.7059  -15.5440   25.1251 N   0  0  0  0  0  0  0  0  0  0  0  0
    9.3029  -15.7447   25.2167 C   0  0  0  0  0  0  0  0  0  0  0  0
    8.8192  -16.0737   26.3147 O   0  0  0  0  0  0  0  0  0  0  0  0
    8.4461  -15.5669   24.0390 C   0  0  0  0  0  0  0  0  0  0  0  0
    9.2703  -15.1391   22.8215 C   0  0  2  0  0  0  0  0  0  0  0  0
    8.3929  -14.8607   21.7070 N   0  0  0  0  0  0  0  0  0  0  0  0
   10.2119  -16.2178   22.4882 C   0  0  0  0  0  0  0  0  0  0  0  0
    9.8581  -17.3853   22.1836 O   0  0  0  0  0  0  0  0  0  0  0  0
   12.8074  -16.7454   20.5748 C   0  0  0  0  0  0  0  0  0  0  0  0
   12.5822  -16.9182   22.0580 C   0  0  2  0  0  0  0  0  0  0  0  0
   11.6066  -15.9484   22.5046 N   0  0  0  0  0  0  0  0  0  0  0  0
   13.8537  -16.7713   22.8062 C   0  0  0  0  0  0  0  0  0  0  0  0
   14.8496  -17.4925   22.5294 O   0  0  0  0  0  0  0  0  0  0  0  0
   14.0028  -15.8524   23.8240 O   0  0  0  0  0  0  0  0  0  0  0  0
  2  1  1  0
  3  4  1  0
  3  2  1  0
  4  5  1  0
  5  1  1  0
  5  6  1  1
  6 13  1  0
  7  6  2  0
  9  8  1  0
 10  9  2  0
 11  9  1  0
 12 11  1  1
 12 13  1  0
 12 14  1  0
 14 15  2  0
 14 18  1  0
 17 16  1  6
 17 19  1  0
 18 17  1  0
 19 21  1  0
 20 19  2  0
M  END
$$$$
