PNA.pdb
     RDKit          3D

 21 21  0  0  1  0  0  0  0  0999 V2000
    8.1895  -14.5420   19.6692 N   0  0  0  0  0  0  0  0  0  0  0  0
    7.4117  -13.3230   19.7777 C   0  0  0  0  0  0  0  0  0  0  0  0
    7.9590  -12.3562   18.7654 C   0  0  0  0  0  0  0  0  0  0  0  0
    9.1421  -13.0666   18.1953 C   0  0  0  0  0  0  0  0  0  0  0  0
    8.7693  -14.5315   18.3409 C   0  0  1  0  0  0  0  0  0  0  0  0
    9.9688  -15.3725   18.2416 C   0  0  0  0  0  0  0  0  0  0  0  0
   10.5199  -15.5535   17.1288 O   0  0  0  0  0  0  0  0  0  0  0  0
   14.8193  -14.7655   19.0005 N   0  0  0  0  0  0  0  0  0  0  0  0
   13.5204  -14.6250   18.4436 C   0  0  0  0  0  0  0  0  0  0  0  0
   13.3906  -14.7027   17.2087 O   0  0  0  0  0  0  0  0  0  0  0  0
   12.3591  -14.3933   19.3099 C   0  0  0  0  0  0  0  0  0  0  0  0
   11.8381  -15.7104   19.8915 C   0  0  2  0  0  0  0  0  0  0  0  0
   10.5126  -15.9822   19.3829 N   0  0  0  0  0  0  0  0  0  0  0  0
   11.8232  -15.6041   21.3577 C   0  0  0  0  0  0  0  0  0  0  0  0
   12.8190  -15.2591   22.0437 O   0  0  0  0  0  0  0  0  0  0  0  0
    9.1609  -15.6535   23.9564 C   0  0  0  0  0  0  0  0  0  0  0  0
   10.5726  -15.9437   23.5058 C   0  0  2  0  0  0  0  0  0  0  0  0
   10.6259  -15.9037   22.0610 N   0  0  0  0  0  0  0  0  0  0  0  0
   11.0300  -17.2589   24.0149 C   0  0  0  0  0  0  0  0  0  0  0  0
   11.1663  -18.2386   23.2338 O   0  0  0  0  0  0  0  0  0  0  0  0
   11.3230  -17.4675   25.3465 O   0  0  0  0  0  0  0  0  0  0  0  0
  2  1  1  0
  3  4  1  0
  3  2  1  0
  4  5  1  0
  5  1  1  0
  5  6  1  1
  6 13  1  0
  7  6  2  0
  9  8  1  0
 10  9  2  0
 11  9  1  0
 12 11  1  6
 12 13  1  0
 12 14  1  0
 14 15  2  0
 14 18  1  0
 17 16  1  6
 17 19  1  0
 18 17  1  0
 19 21  1  0
 20 19  2  0
M  END
$$$$
