PNA.pdb
     RDKit          3D

 21 21  0  0  1  0  0  0  0  0999 V2000
    8.8483  -14.9970   20.1441 N   0  0  0  0  0  0  0  0  0  0  0  0
    8.7277  -14.5431   18.7722 C   0  0  0  0  0  0  0  0  0  0  0  0
    7.8224  -13.3434   18.7801 C   0  0  0  0  0  0  0  0  0  0  0  0
    7.3659  -13.2489   20.1986 C   0  0  0  0  0  0  0  0  0  0  0  0
    8.5214  -13.8554   20.9750 C   0  0  1  0  0  0  0  0  0  0  0  0
    8.0802  -14.2439   22.3205 C   0  0  0  0  0  0  0  0  0  0  0  0
    7.6362  -13.3771   23.1117 O   0  0  0  0  0  0  0  0  0  0  0  0
    6.1955  -18.4100   25.8581 N   0  0  0  0  0  0  0  0  0  0  0  0
    7.5122  -18.0392   25.4762 C   0  0  0  0  0  0  0  0  0  0  0  0
    8.4241  -18.1308   26.3176 O   0  0  0  0  0  0  0  0  0  0  0  0
    7.7866  -17.5586   24.1173 C   0  0  0  0  0  0  0  0  0  0  0  0
    7.8373  -16.0288   24.0771 C   0  0  2  0  0  0  0  0  0  0  0  0
    8.1483  -15.5822   22.7380 N   0  0  0  0  0  0  0  0  0  0  0  0
    8.8555  -15.5665   25.0315 C   0  0  0  0  0  0  0  0  0  0  0  0
   10.0933  -15.6370   24.8219 O   0  0  0  0  0  0  0  0  0  0  0  0
    8.7186  -13.2729   27.9192 C   0  0  0  0  0  0  0  0  0  0  0  0
    9.3795  -14.4271   27.2043 C   0  0  2  0  0  0  0  0  0  0  0  0
    8.4401  -15.0043   26.2681 N   0  0  0  0  0  0  0  0  0  0  0  0
    9.8545  -15.4455   28.1714 C   0  0  0  0  0  0  0  0  0  0  0  0
    9.3527  -16.6016   28.1862 O   0  0  0  0  0  0  0  0  0  0  0  0
   10.8524  -15.1786   29.0854 O   0  0  0  0  0  0  0  0  0  0  0  0
  2  1  1  0
  3  4  1  0
  3  2  1  0
  4  5  1  0
  5  1  1  0
  5  6  1  1
  6 13  1  0
  7  6  2  0
  9  8  1  0
 10  9  2  0
 11  9  1  0
 12 11  1  6
 12 13  1  0
 12 14  1  0
 14 15  2  0
 14 18  1  0
 17 16  1  1
 17 19  1  0
 18 17  1  0
 19 21  1  0
 20 19  2  0
M  END
$$$$
