PNA.pdb
     RDKit          3D

 21 21  0  0  1  0  0  0  0  0999 V2000
    8.8407  -14.9390   20.0226 N   0  0  0  0  0  0  0  0  0  0  0  0
    8.6581  -14.5022   18.6520 C   0  0  0  0  0  0  0  0  0  0  0  0
    7.7498  -13.3052   18.6853 C   0  0  0  0  0  0  0  0  0  0  0  0
    7.3559  -13.1948   20.1213 C   0  0  0  0  0  0  0  0  0  0  0  0
    8.5467  -13.7883   20.8533 C   0  0  1  0  0  0  0  0  0  0  0  0
    8.1665  -14.1617   22.2215 C   0  0  0  0  0  0  0  0  0  0  0  0
    7.8215  -13.2773   23.0421 O   0  0  0  0  0  0  0  0  0  0  0  0
    6.0824  -17.9557   25.8064 N   0  0  0  0  0  0  0  0  0  0  0  0
    7.4258  -17.9507   25.3458 C   0  0  0  0  0  0  0  0  0  0  0  0
    8.3187  -18.3577   26.1106 O   0  0  0  0  0  0  0  0  0  0  0  0
    7.7493  -17.4747   23.9961 C   0  0  0  0  0  0  0  0  0  0  0  0
    7.8708  -15.9486   23.9679 C   0  0  2  0  0  0  0  0  0  0  0  0
    8.1835  -15.5049   22.6282 N   0  0  0  0  0  0  0  0  0  0  0  0
    8.9227  -15.5428   24.9113 C   0  0  0  0  0  0  0  0  0  0  0  0
   10.1466  -15.7701   24.7338 O   0  0  0  0  0  0  0  0  0  0  0  0
    9.0676  -13.0019   27.5533 C   0  0  0  0  0  0  0  0  0  0  0  0
    9.5461  -14.3300   27.0171 C   0  0  2  0  0  0  0  0  0  0  0  0
    8.5588  -14.8530   26.0987 N   0  0  0  0  0  0  0  0  0  0  0  0
    9.7983  -15.2860   28.1219 C   0  0  0  0  0  0  0  0  0  0  0  0
    9.0818  -16.3138   28.2590 O   0  0  0  0  0  0  0  0  0  0  0  0
   10.8135  -15.0974   29.0364 O   0  0  0  0  0  0  0  0  0  0  0  0
  2  1  1  0
  3  4  1  0
  3  2  1  0
  4  5  1  0
  5  1  1  0
  5  6  1  1
  6 13  1  0
  7  6  2  0
  9  8  1  0
 10  9  2  0
 11  9  1  0
 12 11  1  6
 12 13  1  0
 12 14  1  0
 14 15  2  0
 14 18  1  0
 17 16  1  1
 17 19  1  0
 18 17  1  0
 19 21  1  0
 20 19  2  0
M  END
$$$$
