PNA.pdb
     RDKit          3D

 21 21  0  0  1  0  0  0  0  0999 V2000
    8.6757  -14.7966   19.8276 N   0  0  0  0  0  0  0  0  0  0  0  0
    8.5101  -14.2831   18.4816 C   0  0  0  0  0  0  0  0  0  0  0  0
    7.6950  -13.0246   18.5844 C   0  0  0  0  0  0  0  0  0  0  0  0
    7.3278  -12.9531   20.0299 C   0  0  0  0  0  0  0  0  0  0  0  0
    8.4792  -13.6677   20.7151 C   0  0  1  0  0  0  0  0  0  0  0  0
    8.0885  -14.0761   22.0703 C   0  0  0  0  0  0  0  0  0  0  0  0
    7.7440  -13.2123   22.9128 O   0  0  0  0  0  0  0  0  0  0  0  0
    5.9440  -18.6609   25.1884 N   0  0  0  0  0  0  0  0  0  0  0  0
    7.1671  -17.9573   25.0272 C   0  0  0  0  0  0  0  0  0  0  0  0
    7.8939  -17.7912   26.0232 O   0  0  0  0  0  0  0  0  0  0  0  0
    7.5612  -17.4391   23.7123 C   0  0  0  0  0  0  0  0  0  0  0  0
    7.6993  -15.9145   23.7434 C   0  0  2  0  0  0  0  0  0  0  0  0
    8.0947  -15.4300   22.4402 N   0  0  0  0  0  0  0  0  0  0  0  0
    8.6979  -15.5531   24.7600 C   0  0  0  0  0  0  0  0  0  0  0  0
    9.9201  -15.8349   24.6706 O   0  0  0  0  0  0  0  0  0  0  0  0
    8.6738  -12.9499   27.3527 C   0  0  0  0  0  0  0  0  0  0  0  0
    9.2261  -14.2601   26.8440 C   0  0  2  0  0  0  0  0  0  0  0  0
    8.2808  -14.8446   25.9185 N   0  0  0  0  0  0  0  0  0  0  0  0
    9.5076  -15.1865   27.9667 C   0  0  0  0  0  0  0  0  0  0  0  0
   10.2861  -14.8492   28.8988 O   0  0  0  0  0  0  0  0  0  0  0  0
    8.9390  -16.4409   28.0417 O   0  0  0  0  0  0  0  0  0  0  0  0
  2  1  1  0
  3  4  1  0
  3  2  1  0
  4  5  1  0
  5  1  1  0
  5  6  1  1
  6 13  1  0
  7  6  2  0
  9  8  1  0
 10  9  2  0
 11  9  1  0
 12 11  1  6
 12 13  1  0
 12 14  1  0
 14 15  2  0
 14 18  1  0
 17 16  1  1
 17 19  1  0
 18 17  1  0
 19 21  1  0
 20 19  2  0
M  END
$$$$
