PNA.pdb
     RDKit          3D

 21 21  0  0  1  0  0  0  0  0999 V2000
    8.9263  -14.6868   19.5453 N   0  0  0  0  0  0  0  0  0  0  0  0
    8.8898  -14.2033   18.1787 C   0  0  0  0  0  0  0  0  0  0  0  0
    7.9996  -12.9925   18.1603 C   0  0  0  0  0  0  0  0  0  0  0  0
    7.4637  -12.9213   19.5522 C   0  0  0  0  0  0  0  0  0  0  0  0
    8.5656  -13.5583   20.3802 C   0  0  1  0  0  0  0  0  0  0  0  0
    8.0435  -13.9688   21.6898 C   0  0  0  0  0  0  0  0  0  0  0  0
    7.4747  -13.1310   22.4309 O   0  0  0  0  0  0  0  0  0  0  0  0
    8.0789  -18.8265   21.6178 N   0  0  0  0  0  0  0  0  0  0  0  0
    7.3568  -17.9982   22.5175 C   0  0  0  0  0  0  0  0  0  0  0  0
    6.1218  -17.9171   22.3912 O   0  0  0  0  0  0  0  0  0  0  0  0
    8.0564  -17.2559   23.5721 C   0  0  0  0  0  0  0  0  0  0  0  0
    7.7969  -15.7519   23.4476 C   0  0  2  0  0  0  0  0  0  0  0  0
    8.1723  -15.2958   22.1284 N   0  0  0  0  0  0  0  0  0  0  0  0
    8.5732  -15.0533   24.4823 C   0  0  0  0  0  0  0  0  0  0  0  0
    9.8298  -15.0431   24.5260 O   0  0  0  0  0  0  0  0  0  0  0  0
    7.6110  -12.6153   27.1580 C   0  0  0  0  0  0  0  0  0  0  0  0
    8.5830  -13.5683   26.5043 C   0  0  2  0  0  0  0  0  0  0  0  0
    7.8850  -14.3423   25.5016 N   0  0  0  0  0  0  0  0  0  0  0  0
    9.2124  -14.4550   27.5122 C   0  0  0  0  0  0  0  0  0  0  0  0
    8.9196  -15.6798   27.5634 O   0  0  0  0  0  0  0  0  0  0  0  0
   10.1335  -13.9872   28.4262 O   0  0  0  0  0  0  0  0  0  0  0  0
  2  1  1  0
  3  4  1  0
  3  2  1  0
  4  5  1  0
  5  1  1  0
  5  6  1  1
  6 13  1  0
  7  6  2  0
  9  8  1  0
 10  9  2  0
 11  9  1  0
 12 11  1  6
 12 13  1  0
 12 14  1  0
 14 15  2  0
 14 18  1  0
 17 16  1  1
 17 19  1  0
 18 17  1  0
 19 21  1  0
 20 19  2  0
M  END
$$$$
