PNA.pdb
     RDKit          3D

 21 21  0  0  1  0  0  0  0  0999 V2000
    8.7909  -14.8634   19.7054 N   0  0  0  0  0  0  0  0  0  0  0  0
    8.6986  -14.3923   18.3371 C   0  0  0  0  0  0  0  0  0  0  0  0
    7.8660  -13.1411   18.3542 C   0  0  0  0  0  0  0  0  0  0  0  0
    7.4146  -13.0310   19.7732 C   0  0  0  0  0  0  0  0  0  0  0  0
    8.5315  -13.7111   20.5453 C   0  0  1  0  0  0  0  0  0  0  0  0
    8.0667  -14.0835   21.8874 C   0  0  0  0  0  0  0  0  0  0  0  0
    7.6322  -13.2035   22.6693 O   0  0  0  0  0  0  0  0  0  0  0  0
    6.0010  -18.4328   25.1961 N   0  0  0  0  0  0  0  0  0  0  0  0
    7.2930  -17.8737   25.0083 C   0  0  0  0  0  0  0  0  0  0  0  0
    8.0572  -17.7989   25.9872 O   0  0  0  0  0  0  0  0  0  0  0  0
    7.7133  -17.3957   23.6863 C   0  0  0  0  0  0  0  0  0  0  0  0
    7.6709  -15.8666   23.6178 C   0  0  2  0  0  0  0  0  0  0  0  0
    8.1017  -15.4208   22.3120 N   0  0  0  0  0  0  0  0  0  0  0  0
    8.5437  -15.3241   24.6691 C   0  0  0  0  0  0  0  0  0  0  0  0
    9.7997  -15.3632   24.6241 O   0  0  0  0  0  0  0  0  0  0  0  0
    7.9471  -13.0076   27.5085 C   0  0  0  0  0  0  0  0  0  0  0  0
    8.7527  -14.1022   26.8502 C   0  0  2  0  0  0  0  0  0  0  0  0
    7.9562  -14.7162   25.8108 N   0  0  0  0  0  0  0  0  0  0  0  0
    9.1881  -15.1100   27.8466 C   0  0  0  0  0  0  0  0  0  0  0  0
    8.7612  -16.2946   27.7918 O   0  0  0  0  0  0  0  0  0  0  0  0
   10.0673  -14.8021   28.8639 O   0  0  0  0  0  0  0  0  0  0  0  0
  2  1  1  0
  3  4  1  0
  3  2  1  0
  4  5  1  0
  5  1  1  0
  5  6  1  1
  6 13  1  0
  7  6  2  0
  9  8  1  0
 10  9  2  0
 11  9  1  0
 12 11  1  6
 12 13  1  0
 12 14  1  0
 14 15  2  0
 14 18  1  0
 17 16  1  1
 17 19  1  0
 18 17  1  0
 19 21  1  0
 20 19  2  0
M  END
$$$$
