KCI.pdb
     RDKit          3D

 24 23  0  0  1  0  0  0  0  0999 V2000
   22.4275  -13.7782  -17.0547 N   0  0  0  0  0  0  0  0  0  0  0  0
   21.5259  -12.7985  -17.5795 C   0  0  1  0  0  0  0  0  0  0  0  0
   20.1677  -13.3322  -17.9417 C   0  0  0  0  0  0  0  0  0  0  0  0
   20.1883  -14.2701  -19.1271 C   0  0  0  0  0  0  0  0  0  0  0  0
   18.7711  -14.6476  -19.4481 C   0  0  0  0  0  0  0  0  0  0  0  0
   18.4058  -16.0147  -18.9076 C   0  0  0  0  0  0  0  0  0  0  0  0
   17.0582  -16.3037  -19.3813 N   0  0  0  0  0  0  0  0  0  0  0  0
   21.2785  -11.7005  -16.5740 C   0  0  0  0  0  0  0  0  0  0  0  0
   20.5939  -11.9278  -15.5522 O   0  0  0  0  0  0  0  0  0  0  0  0
   21.8068  -10.4102  -16.7623 N   0  0  0  0  0  0  0  0  0  0  0  0
   21.6187   -9.4121  -15.6902 C   0  0  1  0  0  0  0  0  0  0  0  0
   22.9945   -9.0332  -15.1818 C   0  0  0  0  0  0  0  0  0  0  0  0
   23.4553  -10.0835  -13.8175 S   0  0  0  0  0  0  0  0  0  0  0  0
   20.9036   -8.2414  -16.2671 C   0  0  0  0  0  0  0  0  0  0  0  0
   21.2066   -7.9048  -17.4668 O   0  0  0  0  0  0  0  0  0  0  0  0
   15.8716   -7.7174  -17.0746 C   0  0  0  0  0  0  0  0  0  0  0  0
   17.3709   -7.4975  -17.1335 C   0  0  0  0  0  0  0  0  0  0  0  0
   17.8215   -6.4252  -16.1879 C   0  0  2  0  0  0  0  0  0  0  0  0
   17.2775   -5.0784  -16.6698 C   0  0  0  0  0  0  0  0  0  0  0  0
   19.3322   -6.3513  -16.2330 C   0  0  2  0  0  0  0  0  0  0  0  0
   19.9219   -7.4963  -15.5713 N   0  0  0  0  0  0  0  0  0  0  0  0
   19.7727   -5.1322  -15.4960 C   0  0  0  0  0  0  0  0  0  0  0  0
   19.9777   -3.9285  -16.1299 O   0  0  0  0  0  0  0  0  0  0  0  0
   19.9708   -5.1830  -14.2432 O   0  0  0  0  0  0  0  0  0  0  0  0
  2  1  1  1
  3  2  1  0
  4  3  1  0
  5  4  1  0
  5  6  1  0
  6  7  1  0
  8  9  2  0
  8  2  1  0
 10  8  1  0
 11 10  1  0
 12 13  1  0
 11 12  1  6
 14 21  1  0
 14 11  1  0
 15 14  2  0
 17 16  1  0
 18 17  1  0
 18 20  1  0
 18 19  1  6
 20 21  1  1
 20 22  1  0
 22 23  1  0
 24 22  2  0
M  END
$$$$
