KCI.pdb
     RDKit          3D

 24 23  0  0  1  0  0  0  0  0999 V2000
   17.0326  -15.6114  -17.6498 N   0  0  0  0  0  0  0  0  0  0  0  0
   16.2468  -14.4411  -17.4024 C   0  0  1  0  0  0  0  0  0  0  0  0
   15.2309  -14.5934  -16.3044 C   0  0  0  0  0  0  0  0  0  0  0  0
   14.1494  -15.6004  -16.6233 C   0  0  0  0  0  0  0  0  0  0  0  0
   14.3486  -16.7956  -15.7368 C   0  0  0  0  0  0  0  0  0  0  0  0
   13.2726  -17.8428  -15.9363 C   0  0  0  0  0  0  0  0  0  0  0  0
   13.6274  -18.9722  -15.0862 N   0  0  0  0  0  0  0  0  0  0  0  0
   17.1215  -13.2818  -16.9917 C   0  0  0  0  0  0  0  0  0  0  0  0
   18.2698  -13.4905  -16.5420 O   0  0  0  0  0  0  0  0  0  0  0  0
   16.6688  -11.9545  -17.1043 N   0  0  0  0  0  0  0  0  0  0  0  0
   17.6200  -10.8623  -16.8153 C   0  0  1  0  0  0  0  0  0  0  0  0
   17.8903  -10.1437  -18.1212 C   0  0  0  0  0  0  0  0  0  0  0  0
   18.8199   -8.6531  -17.8205 S   0  0  0  0  0  0  0  0  0  0  0  0
   16.9974   -9.9596  -15.8091 C   0  0  0  0  0  0  0  0  0  0  0  0
   15.7461   -9.7124  -15.9411 O   0  0  0  0  0  0  0  0  0  0  0  0
   16.9833  -10.5432  -10.6943 C   0  0  0  0  0  0  0  0  0  0  0  0
   16.6661  -10.0925  -12.1072 C   0  0  0  0  0  0  0  0  0  0  0  0
   17.2590   -8.7514  -12.4182 C   0  0  2  0  0  0  0  0  0  0  0  0
   16.5426   -7.6870  -11.5841 C   0  0  0  0  0  0  0  0  0  0  0  0
   17.0009   -8.4406  -13.8765 C   0  0  2  0  0  0  0  0  0  0  0  0
   17.7040   -9.3733  -14.7322 N   0  0  0  0  0  0  0  0  0  0  0  0
   17.5257   -7.0770  -14.1740 C   0  0  0  0  0  0  0  0  0  0  0  0
   16.7525   -5.9482  -14.0291 O   0  0  0  0  0  0  0  0  0  0  0  0
   18.7209   -6.9286  -14.5749 O   0  0  0  0  0  0  0  0  0  0  0  0
  2  1  1  1
  3  2  1  0
  4  3  1  0
  5  4  1  0
  5  6  1  0
  6  7  1  0
  8  9  2  0
  8  2  1  0
 10  8  1  0
 11 10  1  0
 12 13  1  0
 11 12  1  6
 14 21  1  0
 14 11  1  0
 15 14  2  0
 17 16  1  0
 18 17  1  0
 18 20  1  0
 18 19  1  1
 20 21  1  6
 20 22  1  0
 22 23  1  0
 24 22  2  0
M  END
$$$$
