GWH.pdb
     RDKit          3D

 29 31  0  0  1  0  0  0  0  0999 V2000
   10.6228  -16.2183   17.9569 N   0  0  0  0  0  0  0  0  0  0  0  0
    9.5673  -16.8284   18.7316 C   0  0  0  0  0  0  0  0  0  0  0  0
    9.5710  -16.2486   20.1009 C   0  0  0  0  0  0  0  0  0  0  0  0
   10.6753  -16.0406   20.7069 O   0  0  0  0  0  0  0  0  0  0  0  0
    8.3955  -15.8990   20.8036 N   0  0  0  0  0  0  0  0  0  0  0  0
    8.3919  -15.5427   22.2085 C   0  0  1  0  0  0  0  0  0  0  0  0
    7.0006  -15.1917   22.6899 C   0  0  0  0  0  0  0  0  0  0  0  0
    6.9239  -14.9192   24.1259 C   0  0  0  0  0  0  0  0  0  0  0  0
    6.5964  -15.7783   25.1478 C   0  0  0  0  0  0  0  0  0  0  0  0
    6.6434  -15.1307   26.3249 N   0  0  0  0  0  0  0  0  0  0  0  0
    6.9989  -13.8577   26.0749 C   0  0  0  0  0  0  0  0  0  0  0  0
    7.2012  -12.7480   26.8971 C   0  0  0  0  0  0  0  0  0  0  0  0
    7.5706  -11.5169   26.3987 C   0  0  0  0  0  0  0  0  0  0  0  0
    7.7452  -11.3877   25.0258 C   0  0  0  0  0  0  0  0  0  0  0  0
    7.5564  -12.4491   24.1924 C   0  0  0  0  0  0  0  0  0  0  0  0
    7.1849  -13.6798   24.7117 C   0  0  0  0  0  0  0  0  0  0  0  0
    8.8679  -16.6823   23.0380 C   0  0  0  0  0  0  0  0  0  0  0  0
    8.4481  -17.8328   22.7805 O   0  0  0  0  0  0  0  0  0  0  0  0
    9.7732  -16.4941   24.0979 N   0  0  0  0  0  0  0  0  0  0  0  0
   10.4224  -17.6016   24.8338 C   0  0  1  0  0  0  0  0  0  0  0  0
   11.8924  -17.6224   24.5674 C   0  0  0  0  0  0  0  0  0  0  0  0
   12.5343  -18.7286   25.3070 C   0  0  0  0  0  0  0  0  0  0  0  0
   11.9809  -19.8399   25.8637 C   0  0  0  0  0  0  0  0  0  0  0  0
   12.9511  -20.6447   26.3805 N   0  0  0  0  0  0  0  0  0  0  0  0
   14.1091  -20.0396   26.1465 C   0  0  0  0  0  0  0  0  0  0  0  0
   13.8833  -18.8916   25.5049 N   0  0  0  0  0  0  0  0  0  0  0  0
   10.2613  -17.2619   26.3004 C   0  0  0  0  0  0  0  0  0  0  0  0
   10.6237  -18.2270   27.2639 O   0  0  0  0  0  0  0  0  0  0  0  0
    9.8351  -16.2002   26.7517 O   0  0  0  0  0  0  0  0  0  0  0  0
  1  2  1  0
  2  3  1  0
  3  4  2  0
  5  3  1  0
  5  6  1  0
  6 17  1  0
  6  7  1  1
  8  7  1  0
  9  8  2  0
 10 11  1  0
 10  9  1  0
 11 16  2  0
 12 11  1  0
 12 13  2  0
 13 14  1  0
 14 15  2  0
 16  8  1  0
 16 15  1  0
 17 18  2  0
 19 20  1  0
 19 17  1  0
 20 27  1  0
 20 21  1  6
 22 21  1  0
 23 22  2  0
 24 23  1  0
 25 24  1  0
 25 26  2  0
 26 22  1  0
 27 29  2  0
 27 28  1  0
M  END
$$$$
