GWH.pdb
     RDKit          3D

 29 31  0  0  1  0  0  0  0  0999 V2000
    7.9963  -19.9554   28.5082 N   0  0  0  0  0  0  0  0  0  0  0  0
    7.7471  -18.5736   28.1687 C   0  0  0  0  0  0  0  0  0  0  0  0
    7.7109  -18.4349   26.6887 C   0  0  0  0  0  0  0  0  0  0  0  0
    7.8356  -19.4645   25.9442 O   0  0  0  0  0  0  0  0  0  0  0  0
    7.5421  -17.1986   26.0246 N   0  0  0  0  0  0  0  0  0  0  0  0
    7.3666  -17.0904   24.5900 C   0  0  1  0  0  0  0  0  0  0  0  0
    6.6735  -15.7998   24.2100 C   0  0  0  0  0  0  0  0  0  0  0  0
    7.3786  -14.5973   24.6561 C   0  0  0  0  0  0  0  0  0  0  0  0
    8.5970  -14.1122   24.2440 C   0  0  0  0  0  0  0  0  0  0  0  0
    8.8862  -12.9772   24.9035 N   0  0  0  0  0  0  0  0  0  0  0  0
    7.8648  -12.7216   25.7407 C   0  0  0  0  0  0  0  0  0  0  0  0
    7.6201  -11.6977   26.6574 C   0  0  0  0  0  0  0  0  0  0  0  0
    6.4736  -11.6487   27.4214 C   0  0  0  0  0  0  0  0  0  0  0  0
    5.5342  -12.6611   27.2647 C   0  0  0  0  0  0  0  0  0  0  0  0
    5.7392  -13.6766   26.3797 C   0  0  0  0  0  0  0  0  0  0  0  0
    6.8984  -13.7094   25.6197 C   0  0  0  0  0  0  0  0  0  0  0  0
    8.6846  -17.0994   23.9001 C   0  0  0  0  0  0  0  0  0  0  0  0
    8.7122  -17.0317   22.6508 O   0  0  0  0  0  0  0  0  0  0  0  0
    9.8912  -17.1822   24.6182 N   0  0  0  0  0  0  0  0  0  0  0  0
   11.2284  -17.1908   23.9847 C   0  0  1  0  0  0  0  0  0  0  0  0
   11.5109  -15.8780   23.3298 C   0  0  0  0  0  0  0  0  0  0  0  0
   11.3870  -15.9972   21.8624 C   0  0  0  0  0  0  0  0  0  0  0  0
   11.0014  -17.0596   21.1049 C   0  0  0  0  0  0  0  0  0  0  0  0
   10.9474  -16.7094   19.7895 N   0  0  0  0  0  0  0  0  0  0  0  0
   11.2969  -15.4306   19.7237 C   0  0  0  0  0  0  0  0  0  0  0  0
   11.5639  -14.9842   20.9524 N   0  0  0  0  0  0  0  0  0  0  0  0
   12.2157  -17.3175   25.1255 C   0  0  0  0  0  0  0  0  0  0  0  0
   13.5928  -17.3864   24.8262 O   0  0  0  0  0  0  0  0  0  0  0  0
   11.9327  -17.3676   26.3213 O   0  0  0  0  0  0  0  0  0  0  0  0
  1  2  1  0
  2  3  1  0
  3  4  2  0
  5  3  1  0
  5  6  1  0
  6 17  1  0
  6  7  1  1
  8  7  1  0
  9  8  2  0
 10 11  1  0
 10  9  1  0
 11 16  2  0
 12 11  1  0
 12 13  2  0
 13 14  1  0
 14 15  2  0
 16  8  1  0
 16 15  1  0
 17 18  2  0
 19 20  1  0
 19 17  1  0
 20 27  1  0
 20 21  1  1
 22 21  1  0
 23 22  2  0
 24 23  1  0
 25 24  1  0
 25 26  2  0
 26 22  1  0
 27 29  2  0
 27 28  1  0
M  END
$$$$
