GWH.pdb
     RDKit          3D

 29 31  0  0  1  0  0  0  0  0999 V2000
    6.0141  -15.9325   20.2565 N   0  0  0  0  0  0  0  0  0  0  0  0
    6.6998  -16.9105   21.0689 C   0  0  0  0  0  0  0  0  0  0  0  0
    7.7987  -16.2404   21.8134 C   0  0  0  0  0  0  0  0  0  0  0  0
    8.5018  -15.3383   21.2460 O   0  0  0  0  0  0  0  0  0  0  0  0
    8.1314  -16.5430   23.1535 N   0  0  0  0  0  0  0  0  0  0  0  0
    9.2470  -15.9312   23.8476 C   0  0  1  0  0  0  0  0  0  0  0  0
    9.0128  -15.8813   25.3419 C   0  0  0  0  0  0  0  0  0  0  0  0
    7.7958  -15.1644   25.7254 C   0  0  0  0  0  0  0  0  0  0  0  0
    6.5366  -15.6674   25.9518 C   0  0  0  0  0  0  0  0  0  0  0  0
    5.6975  -14.6715   26.2848 N   0  0  0  0  0  0  0  0  0  0  0  0
    6.4021  -13.5257   26.2763 C   0  0  0  0  0  0  0  0  0  0  0  0
    6.0609  -12.1976   26.5372 C   0  0  0  0  0  0  0  0  0  0  0  0
    6.9778  -11.1709   26.4620 C   0  0  0  0  0  0  0  0  0  0  0  0
    8.2869  -11.4814   26.1128 C   0  0  0  0  0  0  0  0  0  0  0  0
    8.6563  -12.7665   25.8511 C   0  0  0  0  0  0  0  0  0  0  0  0
    7.7204  -13.7863   25.9316 C   0  0  0  0  0  0  0  0  0  0  0  0
   10.4931  -16.7130   23.6253 C   0  0  0  0  0  0  0  0  0  0  0  0
   10.4396  -17.9621   23.6803 O   0  0  0  0  0  0  0  0  0  0  0  0
   11.7209  -16.0813   23.3571 N   0  0  0  0  0  0  0  0  0  0  0  0
   12.9755  -16.8091   23.0641 C   0  0  1  0  0  0  0  0  0  0  0  0
   13.9538  -15.9173   22.3713 C   0  0  0  0  0  0  0  0  0  0  0  0
   13.4491  -15.5384   21.0355 C   0  0  0  0  0  0  0  0  0  0  0  0
   12.6908  -16.2494   20.1577 C   0  0  0  0  0  0  0  0  0  0  0  0
   12.3804  -15.4863   19.0727 N   0  0  0  0  0  0  0  0  0  0  0  0
   12.9417  -14.3000   19.2713 C   0  0  0  0  0  0  0  0  0  0  0  0
   13.5859  -14.3087   20.4398 N   0  0  0  0  0  0  0  0  0  0  0  0
   13.5791  -17.1343   24.4139 C   0  0  0  0  0  0  0  0  0  0  0  0
   12.8895  -16.7366   25.5789 O   0  0  0  0  0  0  0  0  0  0  0  0
   14.6394  -17.7273   24.6052 O   0  0  0  0  0  0  0  0  0  0  0  0
  1  2  1  0
  2  3  1  0
  3  4  2  0
  5  3  1  0
  5  6  1  0
  6 17  1  0
  6  7  1  1
  8  7  1  0
  9  8  2  0
 10 11  1  0
 10  9  1  0
 11 16  2  0
 12 11  1  0
 12 13  2  0
 13 14  1  0
 14 15  2  0
 16  8  1  0
 16 15  1  0
 17 18  2  0
 19 20  1  0
 19 17  1  0
 20 27  1  0
 20 21  1  6
 22 21  1  0
 23 22  2  0
 24 23  1  0
 25 24  1  0
 25 26  2  0
 26 22  1  0
 27 29  2  0
 27 28  1  0
M  END
$$$$
