GWH.pdb
     RDKit          3D

 29 31  0  0  1  0  0  0  0  0999 V2000
    6.9764  -14.7152   19.6407 N   0  0  0  0  0  0  0  0  0  0  0  0
    6.7318  -15.6239   20.7368 C   0  0  0  0  0  0  0  0  0  0  0  0
    7.7580  -15.4033   21.7900 C   0  0  0  0  0  0  0  0  0  0  0  0
    8.7165  -14.5839   21.5909 O   0  0  0  0  0  0  0  0  0  0  0  0
    7.7460  -16.0610   23.0412 N   0  0  0  0  0  0  0  0  0  0  0  0
    8.7771  -15.8726   24.0421 C   0  0  1  0  0  0  0  0  0  0  0  0
    8.2243  -16.0137   25.4439 C   0  0  0  0  0  0  0  0  0  0  0  0
    7.1624  -15.0570   25.7590 C   0  0  0  0  0  0  0  0  0  0  0  0
    5.8093  -15.2769   25.8608 C   0  0  0  0  0  0  0  0  0  0  0  0
    5.1796  -14.1298   26.1685 N   0  0  0  0  0  0  0  0  0  0  0  0
    6.1136  -13.1668   26.2672 C   0  0  0  0  0  0  0  0  0  0  0  0
    6.0464  -11.8031   26.5578 C   0  0  0  0  0  0  0  0  0  0  0  0
    7.1668  -11.0011   26.6019 C   0  0  0  0  0  0  0  0  0  0  0  0
    8.4032  -11.5826   26.3461 C   0  0  0  0  0  0  0  0  0  0  0  0
    8.5072  -12.9104   26.0588 C   0  0  0  0  0  0  0  0  0  0  0  0
    7.3693  -13.7016   26.0188 C   0  0  0  0  0  0  0  0  0  0  0  0
    9.8476  -16.8943   23.8885 C   0  0  0  0  0  0  0  0  0  0  0  0
    9.8233  -17.6482   22.8900 O   0  0  0  0  0  0  0  0  0  0  0  0
   10.8783  -17.0292   24.8360 N   0  0  0  0  0  0  0  0  0  0  0  0
   12.1978  -17.6293   24.5387 C   0  0  1  0  0  0  0  0  0  0  0  0
   13.0087  -16.7200   23.6739 C   0  0  0  0  0  0  0  0  0  0  0  0
   12.6315  -16.8865   22.2552 C   0  0  0  0  0  0  0  0  0  0  0  0
   11.6662  -17.6661   21.6969 C   0  0  0  0  0  0  0  0  0  0  0  0
   11.6030  -17.4529   20.3529 N   0  0  0  0  0  0  0  0  0  0  0  0
   12.5253  -16.5411   20.0705 C   0  0  0  0  0  0  0  0  0  0  0  0
   13.1524  -16.1878   21.1940 N   0  0  0  0  0  0  0  0  0  0  0  0
   12.9172  -17.7040   25.8687 C   0  0  0  0  0  0  0  0  0  0  0  0
   14.2282  -18.2247   25.9024 O   0  0  0  0  0  0  0  0  0  0  0  0
   12.4635  -17.3466   26.9545 O   0  0  0  0  0  0  0  0  0  0  0  0
  1  2  1  0
  2  3  1  0
  3  4  2  0
  5  3  1  0
  5  6  1  0
  6 17  1  0
  6  7  1  1
  8  7  1  0
  9  8  2  0
 10 11  1  0
 10  9  1  0
 11 16  2  0
 12 11  1  0
 12 13  2  0
 13 14  1  0
 14 15  2  0
 16  8  1  0
 16 15  1  0
 17 18  2  0
 19 20  1  0
 19 17  1  0
 20 27  1  0
 20 21  1  6
 22 21  1  0
 23 22  2  0
 24 23  1  0
 25 24  1  0
 25 26  2  0
 26 22  1  0
 27 29  2  0
 27 28  1  0
M  END
$$$$
