GWH.pdb
     RDKit          3D

 29 31  0  0  1  0  0  0  0  0999 V2000
    9.4233  -16.5019   18.3278 N   0  0  0  0  0  0  0  0  0  0  0  0
    8.7209  -17.1035   19.4375 C   0  0  0  0  0  0  0  0  0  0  0  0
    8.9323  -16.2750   20.6540 C   0  0  0  0  0  0  0  0  0  0  0  0
    9.7732  -15.3144   20.6384 O   0  0  0  0  0  0  0  0  0  0  0  0
    8.2427  -16.4839   21.8700 N   0  0  0  0  0  0  0  0  0  0  0  0
    8.3366  -15.5773   22.9969 C   0  0  1  0  0  0  0  0  0  0  0  0
    7.1043  -15.6485   23.8726 C   0  0  0  0  0  0  0  0  0  0  0  0
    7.2390  -14.9310   25.1411 C   0  0  0  0  0  0  0  0  0  0  0  0
    7.6355  -15.4152   26.3651 C   0  0  0  0  0  0  0  0  0  0  0  0
    7.6248  -14.4262   27.2754 N   0  0  0  0  0  0  0  0  0  0  0  0
    7.2243  -13.3036   26.6519 C   0  0  0  0  0  0  0  0  0  0  0  0
    7.0285  -11.9920   27.0877 C   0  0  0  0  0  0  0  0  0  0  0  0
    6.6026  -10.9889   26.2435 C   0  0  0  0  0  0  0  0  0  0  0  0
    6.3627  -11.3067   24.9117 C   0  0  0  0  0  0  0  0  0  0  0  0
    6.5431  -12.5762   24.4507 C   0  0  0  0  0  0  0  0  0  0  0  0
    6.9719  -13.5723   25.3146 C   0  0  0  0  0  0  0  0  0  0  0  0
    9.5027  -15.9261   23.8525 C   0  0  0  0  0  0  0  0  0  0  0  0
    9.7315  -15.2362   24.8712 O   0  0  0  0  0  0  0  0  0  0  0  0
   10.3471  -17.0072   23.5415 N   0  0  0  0  0  0  0  0  0  0  0  0
   11.5445  -17.3714   24.3309 C   0  0  1  0  0  0  0  0  0  0  0  0
   11.6650  -18.8555   24.4533 C   0  0  0  0  0  0  0  0  0  0  0  0
   10.6934  -19.3717   25.4392 C   0  0  0  0  0  0  0  0  0  0  0  0
   10.3092  -18.8525   26.6367 C   0  0  0  0  0  0  0  0  0  0  0  0
    9.3220  -19.6121   27.1882 N   0  0  0  0  0  0  0  0  0  0  0  0
    9.0874  -20.6036   26.3374 C   0  0  0  0  0  0  0  0  0  0  0  0
    9.8965  -20.4792   25.2837 N   0  0  0  0  0  0  0  0  0  0  0  0
   12.7281  -16.9158   23.5041 C   0  0  0  0  0  0  0  0  0  0  0  0
   12.6195  -16.9326   22.0974 O   0  0  0  0  0  0  0  0  0  0  0  0
   13.8059  -16.5205   23.9452 O   0  0  0  0  0  0  0  0  0  0  0  0
  1  2  1  0
  2  3  1  0
  3  4  2  0
  5  3  1  0
  5  6  1  0
  6 17  1  0
  6  7  1  1
  8  7  1  0
  9  8  2  0
 10 11  1  0
 10  9  1  0
 11 16  2  0
 12 11  1  0
 12 13  2  0
 13 14  1  0
 14 15  2  0
 16  8  1  0
 16 15  1  0
 17 18  2  0
 19 20  1  0
 19 17  1  0
 20 27  1  0
 20 21  1  6
 22 21  1  0
 23 22  2  0
 24 23  1  0
 25 24  1  0
 25 26  2  0
 26 22  1  0
 27 29  2  0
 27 28  1  0
M  END
$$$$
