GWH.pdb
     RDKit          3D

 29 31  0  0  1  0  0  0  0  0999 V2000
    6.3751  -14.4926   19.8583 N   0  0  0  0  0  0  0  0  0  0  0  0
    6.5203  -15.5188   20.8646 C   0  0  0  0  0  0  0  0  0  0  0  0
    7.6556  -15.1671   21.7581 C   0  0  0  0  0  0  0  0  0  0  0  0
    8.3331  -14.1056   21.5478 O   0  0  0  0  0  0  0  0  0  0  0  0
    8.0515  -15.9540   22.8635 N   0  0  0  0  0  0  0  0  0  0  0  0
    9.1671  -15.6065   23.7210 C   0  0  1  0  0  0  0  0  0  0  0  0
    8.8176  -15.7738   25.1840 C   0  0  0  0  0  0  0  0  0  0  0  0
    7.5856  -15.0895   25.5789 C   0  0  0  0  0  0  0  0  0  0  0  0
    6.2979  -15.5707   25.5826 C   0  0  0  0  0  0  0  0  0  0  0  0
    5.4537  -14.6196   26.0180 N   0  0  0  0  0  0  0  0  0  0  0  0
    6.1833  -13.5246   26.2971 C   0  0  0  0  0  0  0  0  0  0  0  0
    5.8498  -12.2557   26.7736 C   0  0  0  0  0  0  0  0  0  0  0  0
    6.7944  -11.2741   26.9851 C   0  0  0  0  0  0  0  0  0  0  0  0
    8.1244  -11.5702   26.7103 C   0  0  0  0  0  0  0  0  0  0  0  0
    8.4872  -12.7979   26.2439 C   0  0  0  0  0  0  0  0  0  0  0  0
    7.5232  -13.7729   26.0372 C   0  0  0  0  0  0  0  0  0  0  0  0
   10.3328  -16.4889   23.4454 C   0  0  0  0  0  0  0  0  0  0  0  0
   10.1697  -17.7294   23.4699 O   0  0  0  0  0  0  0  0  0  0  0  0
   11.6050  -15.9609   23.1604 N   0  0  0  0  0  0  0  0  0  0  0  0
   12.8307  -16.7816   23.0440 C   0  0  1  0  0  0  0  0  0  0  0  0
   13.8592  -16.0803   22.2177 C   0  0  0  0  0  0  0  0  0  0  0  0
   13.4853  -16.1180   20.7889 C   0  0  0  0  0  0  0  0  0  0  0  0
   12.6740  -16.9846   20.1241 C   0  0  0  0  0  0  0  0  0  0  0  0
   12.5370  -16.6031   18.8235 N   0  0  0  0  0  0  0  0  0  0  0  0
   13.2594  -15.4996   18.6747 C   0  0  0  0  0  0  0  0  0  0  0  0
   13.8352  -15.1911   19.8381 N   0  0  0  0  0  0  0  0  0  0  0  0
   13.3965  -16.8647   24.4458 C   0  0  0  0  0  0  0  0  0  0  0  0
   14.5779  -17.6067   24.6575 O   0  0  0  0  0  0  0  0  0  0  0  0
   12.9188  -16.3362   25.4483 O   0  0  0  0  0  0  0  0  0  0  0  0
  1  2  1  0
  2  3  1  0
  3  4  2  0
  5  3  1  0
  5  6  1  0
  6 17  1  0
  6  7  1  1
  8  7  1  0
  9  8  2  0
 10 11  1  0
 10  9  1  0
 11 16  2  0
 12 11  1  0
 12 13  2  0
 13 14  1  0
 14 15  2  0
 16  8  1  0
 16 15  1  0
 17 18  2  0
 19 20  1  0
 19 17  1  0
 20 27  1  0
 20 21  1  6
 22 21  1  0
 23 22  2  0
 24 23  1  0
 25 24  1  0
 25 26  2  0
 26 22  1  0
 27 29  2  0
 27 28  1  0
M  END
$$$$
