GWH.pdb
     RDKit          3D

 29 31  0  0  1  0  0  0  0  0999 V2000
   10.3913  -17.7600   19.1598 N   0  0  0  0  0  0  0  0  0  0  0  0
    9.8789  -16.4096   19.1340 C   0  0  0  0  0  0  0  0  0  0  0  0
    9.7326  -15.9178   20.5296 C   0  0  0  0  0  0  0  0  0  0  0  0
   10.6405  -15.1873   21.0513 O   0  0  0  0  0  0  0  0  0  0  0  0
    8.6189  -16.2130   21.3485 N   0  0  0  0  0  0  0  0  0  0  0  0
    8.5081  -15.7648   22.7223 C   0  0  1  0  0  0  0  0  0  0  0  0
    7.0658  -15.5310   23.1167 C   0  0  0  0  0  0  0  0  0  0  0  0
    6.8951  -15.1069   24.5071 C   0  0  0  0  0  0  0  0  0  0  0  0
    6.5625  -15.8669   25.6033 C   0  0  0  0  0  0  0  0  0  0  0  0
    6.5076  -15.0914   26.6999 N   0  0  0  0  0  0  0  0  0  0  0  0
    6.8020  -13.8338   26.3241 C   0  0  0  0  0  0  0  0  0  0  0  0
    6.8946  -12.6294   27.0236 C   0  0  0  0  0  0  0  0  0  0  0  0
    7.2188  -11.4399   26.4067 C   0  0  0  0  0  0  0  0  0  0  0  0
    7.4604  -11.4526   25.0379 C   0  0  0  0  0  0  0  0  0  0  0  0
    7.3792  -12.6094   24.3226 C   0  0  0  0  0  0  0  0  0  0  0  0
    7.0516  -13.7963   24.9600 C   0  0  0  0  0  0  0  0  0  0  0  0
    9.0560  -16.7891   23.6519 C   0  0  0  0  0  0  0  0  0  0  0  0
    8.5829  -17.9472   23.6204 O   0  0  0  0  0  0  0  0  0  0  0  0
   10.0869  -16.4841   24.5590 N   0  0  0  0  0  0  0  0  0  0  0  0
   10.7296  -17.4823   25.4421 C   0  0  1  0  0  0  0  0  0  0  0  0
   12.2055  -17.2584   25.5059 C   0  0  0  0  0  0  0  0  0  0  0  0
   12.8378  -17.6234   24.2215 C   0  0  0  0  0  0  0  0  0  0  0  0
   12.3631  -18.3939   23.2056 C   0  0  0  0  0  0  0  0  0  0  0  0
   13.2430  -18.4023   22.1656 N   0  0  0  0  0  0  0  0  0  0  0  0
   14.2655  -17.6377   22.5289 C   0  0  0  0  0  0  0  0  0  0  0  0
   14.0439  -17.1611   23.7553 N   0  0  0  0  0  0  0  0  0  0  0  0
   10.1964  -17.1973   26.8301 C   0  0  0  0  0  0  0  0  0  0  0  0
   10.6107  -18.0210   27.8982 O   0  0  0  0  0  0  0  0  0  0  0  0
    9.4168  -16.2951   27.1315 O   0  0  0  0  0  0  0  0  0  0  0  0
  1  2  1  0
  2  3  1  0
  3  4  2  0
  5  3  1  0
  5  6  1  0
  6 17  1  0
  6  7  1  1
  8  7  1  0
  9  8  2  0
 10 11  1  0
 10  9  1  0
 11 16  2  0
 12 11  1  0
 12 13  2  0
 13 14  1  0
 14 15  2  0
 16  8  1  0
 16 15  1  0
 17 18  2  0
 19 20  1  0
 19 17  1  0
 20 27  1  0
 20 21  1  1
 22 21  1  0
 23 22  2  0
 24 23  1  0
 25 24  1  0
 25 26  2  0
 26 22  1  0
 27 29  2  0
 27 28  1  0
M  END
$$$$
