TSH.pdb
     RDKit          3D

 24 24  0  0  1  0  0  0  0  0999 V2000
   18.5979  -13.4428  -14.9047 C   0  0  0  0  0  0  0  0  0  0  0  0
   18.0120  -13.9871  -16.1851 C   0  0  1  0  0  0  0  0  0  0  0  0
   17.2563  -15.0949  -15.8845 O   0  0  0  0  0  0  0  0  0  0  0  0
   17.2148  -12.8825  -16.8380 C   0  0  2  0  0  0  0  0  0  0  0  0
   16.3864  -13.3807  -17.9083 N   0  0  0  0  0  0  0  0  0  0  0  0
   18.0592  -11.7468  -17.2547 C   0  0  0  0  0  0  0  0  0  0  0  0
   19.0384  -11.9493  -17.9895 O   0  0  0  0  0  0  0  0  0  0  0  0
   17.4429   -8.0429  -15.4951 O   0  0  0  0  0  0  0  0  0  0  0  0
   17.9168   -8.0008  -16.7999 C   0  0  0  0  0  0  0  0  0  0  0  0
   18.6249   -9.3011  -17.0759 C   0  0  2  0  0  0  0  0  0  0  0  0
   17.7717  -10.4428  -16.8329 N   0  0  0  0  0  0  0  0  0  0  0  0
   19.8686   -9.4797  -16.2841 C   0  0  0  0  0  0  0  0  0  0  0  0
   19.7111  -10.0373  -15.1356 O   0  0  0  0  0  0  0  0  0  0  0  0
   21.1376   -9.0843  -16.7214 N   0  0  0  0  0  0  0  0  0  0  0  0
   22.3117   -9.2703  -15.8400 C   0  0  1  0  0  0  0  0  0  0  0  0
   23.2806  -10.0385  -16.6470 C   0  0  0  0  0  0  0  0  0  0  0  0
   24.6177  -10.2620  -16.1236 C   0  0  0  0  0  0  0  0  0  0  0  0
   25.2490  -10.0862  -14.9381 C   0  0  0  0  0  0  0  0  0  0  0  0
   26.5281  -10.5133  -14.9952 N   0  0  0  0  0  0  0  0  0  0  0  0
   26.6875  -10.9636  -16.2455 C   0  0  0  0  0  0  0  0  0  0  0  0
   25.5749  -10.8284  -16.9367 N   0  0  0  0  0  0  0  0  0  0  0  0
   22.7823   -7.9169  -15.4457 C   0  0  0  0  0  0  0  0  0  0  0  0
   22.6160   -6.8495  -16.0544 O   0  0  0  0  0  0  0  0  0  0  0  0
   23.5022   -7.8155  -14.2443 O   0  0  0  0  0  0  0  0  0  0  0  0
  2  1  1  1
  2  3  1  0
  4  2  1  0
  4  5  1  6
  6 11  1  0
  6  4  1  0
  7  6  2  0
  8  9  1  0
 10  9  1  1
 10 11  1  0
 10 12  1  0
 12 14  1  0
 13 12  2  0
 14 15  1  0
 15 16  1  6
 15 22  1  0
 17 21  1  0
 17 16  1  0
 18 17  2  0
 19 18  1  0
 19 20  1  0
 20 21  2  0
 22 24  1  0
 23 22  2  0
M  END
$$$$
