TSH.pdb
     RDKit          3D

 24 24  0  0  1  0  0  0  0  0999 V2000
   37.1799   -9.3622   -7.8886 C   0  0  0  0  0  0  0  0  0  0  0  0
   38.0453   -9.7739   -6.7221 C   0  0  1  0  0  0  0  0  0  0  0  0
   37.7321  -11.0674   -6.3796 O   0  0  0  0  0  0  0  0  0  0  0  0
   39.4892   -9.5997   -7.1304 C   0  0  2  0  0  0  0  0  0  0  0  0
   40.3866  -10.2753   -6.2259 N   0  0  0  0  0  0  0  0  0  0  0  0
   39.8509   -8.1845   -7.3379 C   0  0  0  0  0  0  0  0  0  0  0  0
   40.2432   -7.5057   -6.3762 O   0  0  0  0  0  0  0  0  0  0  0  0
   40.3837   -4.5859  -10.5419 O   0  0  0  0  0  0  0  0  0  0  0  0
   40.0495   -5.9225  -10.3659 C   0  0  0  0  0  0  0  0  0  0  0  0
   40.0888   -6.2174   -8.8894 C   0  0  2  0  0  0  0  0  0  0  0  0
   39.7579   -7.5959   -8.6051 N   0  0  0  0  0  0  0  0  0  0  0  0
   39.1863   -5.3530   -8.0870 C   0  0  0  0  0  0  0  0  0  0  0  0
   37.9414   -5.6750   -8.1269 O   0  0  0  0  0  0  0  0  0  0  0  0
   39.6203   -4.2597   -7.3293 N   0  0  0  0  0  0  0  0  0  0  0  0
   38.6431   -3.4720   -6.5453 C   0  0  1  0  0  0  0  0  0  0  0  0
   38.7338   -4.0046   -5.1711 C   0  0  0  0  0  0  0  0  0  0  0  0
   38.0434   -3.3114   -4.0967 C   0  0  0  0  0  0  0  0  0  0  0  0
   37.1811   -2.2717   -3.9950 C   0  0  0  0  0  0  0  0  0  0  0  0
   36.8100   -2.0654   -2.7138 N   0  0  0  0  0  0  0  0  0  0  0  0
   37.4587   -3.0012   -2.0102 C   0  0  0  0  0  0  0  0  0  0  0  0
   38.1958   -3.7533   -2.8007 N   0  0  0  0  0  0  0  0  0  0  0  0
   39.0291   -2.0426   -6.6733 C   0  0  0  0  0  0  0  0  0  0  0  0
   38.3481   -1.0455   -6.3913 O   0  0  0  0  0  0  0  0  0  0  0  0
   40.3136   -1.7698   -7.1707 O   0  0  0  0  0  0  0  0  0  0  0  0
  2  1  1  6
  2  3  1  0
  4  2  1  0
  4  5  1  1
  6 11  1  0
  6  4  1  0
  7  6  2  0
  8  9  1  0
 10  9  1  6
 10 11  1  0
 10 12  1  0
 12 14  1  0
 13 12  2  0
 14 15  1  0
 15 16  1  1
 15 22  1  0
 17 21  1  0
 17 16  1  0
 18 17  2  0
 19 18  1  0
 19 20  1  0
 20 21  2  0
 22 24  1  0
 23 22  2  0
M  END
$$$$
