TSH.pdb
     RDKit          3D

 24 24  0  0  1  0  0  0  0  0999 V2000
   26.7040  -25.4056  -16.9843 C   0  0  0  0  0  0  0  0  0  0  0  0
   28.0859  -25.8619  -16.5831 C   0  0  1  0  0  0  0  0  0  0  0  0
   28.3329  -27.0793  -17.1710 O   0  0  0  0  0  0  0  0  0  0  0  0
   29.0676  -24.7911  -16.9976 C   0  0  2  0  0  0  0  0  0  0  0  0
   30.4281  -25.1700  -16.7054 N   0  0  0  0  0  0  0  0  0  0  0  0
   28.7184  -23.4642  -16.4555 C   0  0  0  0  0  0  0  0  0  0  0  0
   29.2503  -23.0729  -15.4049 O   0  0  0  0  0  0  0  0  0  0  0  0
   27.5028  -20.4209  -18.8453 O   0  0  0  0  0  0  0  0  0  0  0  0
   28.0401  -20.2501  -17.5760 C   0  0  0  0  0  0  0  0  0  0  0  0
   27.4469  -21.3039  -16.6782 C   0  0  2  0  0  0  0  0  0  0  0  0
   27.7951  -22.6393  -17.1096 N   0  0  0  0  0  0  0  0  0  0  0  0
   25.9678  -21.2270  -16.5691 C   0  0  0  0  0  0  0  0  0  0  0  0
   25.3179  -21.8877  -17.4613 O   0  0  0  0  0  0  0  0  0  0  0  0
   25.2933  -20.5004  -15.5817 N   0  0  0  0  0  0  0  0  0  0  0  0
   23.8263  -20.3251  -15.6687 C   0  0  1  0  0  0  0  0  0  0  0  0
   23.4332  -19.7273  -14.3771 C   0  0  0  0  0  0  0  0  0  0  0  0
   22.0489  -19.3366  -14.1704 C   0  0  0  0  0  0  0  0  0  0  0  0
   20.8829  -19.4612  -14.8484 C   0  0  0  0  0  0  0  0  0  0  0  0
   19.8529  -18.9322  -14.1548 N   0  0  0  0  0  0  0  0  0  0  0  0
   20.3979  -18.4720  -13.0223 C   0  0  0  0  0  0  0  0  0  0  0  0
   21.6952  -18.6969  -13.0026 N   0  0  0  0  0  0  0  0  0  0  0  0
   23.5574  -19.4621  -16.8483 C   0  0  0  0  0  0  0  0  0  0  0  0
   24.2717  -18.5564  -17.3034 O   0  0  0  0  0  0  0  0  0  0  0  0
   22.3570  -19.6843  -17.5422 O   0  0  0  0  0  0  0  0  0  0  0  0
  2  1  1  6
  2  3  1  0
  4  2  1  0
  4  5  1  1
  6 11  1  0
  6  4  1  0
  7  6  2  0
  8  9  1  0
 10  9  1  6
 10 11  1  0
 10 12  1  0
 12 14  1  0
 13 12  2  0
 14 15  1  0
 15 16  1  1
 15 22  1  0
 17 21  1  0
 17 16  1  0
 18 17  2  0
 19 18  1  0
 19 20  1  0
 20 21  2  0
 22 24  1  0
 23 22  2  0
M  END
$$$$
