TSH.pdb
     RDKit          3D

 24 24  0  0  1  0  0  0  0  0999 V2000
   17.0444  -12.7279  -17.2017 C   0  0  0  0  0  0  0  0  0  0  0  0
   17.3516  -13.6345  -16.0343 C   0  0  1  0  0  0  0  0  0  0  0  0
   16.4615  -14.6816  -16.0471 O   0  0  0  0  0  0  0  0  0  0  0  0
   18.7912  -14.0760  -16.1549 C   0  0  2  0  0  0  0  0  0  0  0  0
   19.0981  -15.1548  -15.2483 N   0  0  0  0  0  0  0  0  0  0  0  0
   19.7387  -12.9510  -16.0407 C   0  0  0  0  0  0  0  0  0  0  0  0
   19.7144  -12.2304  -15.0308 O   0  0  0  0  0  0  0  0  0  0  0  0
   22.0622  -11.8660  -19.3004 O   0  0  0  0  0  0  0  0  0  0  0  0
   22.6973  -11.7722  -18.0688 C   0  0  0  0  0  0  0  0  0  0  0  0
   21.6352  -11.6125  -17.0129 C   0  0  2  0  0  0  0  0  0  0  0  0
   20.6655  -12.6842  -17.0560 N   0  0  0  0  0  0  0  0  0  0  0  0
   20.9011  -10.3244  -17.0990 C   0  0  0  0  0  0  0  0  0  0  0  0
   19.9041  -10.3158  -17.9120 O   0  0  0  0  0  0  0  0  0  0  0  0
   21.2380   -9.1818  -16.3652 N   0  0  0  0  0  0  0  0  0  0  0  0
   20.4311   -7.9495  -16.5085 C   0  0  1  0  0  0  0  0  0  0  0  0
   19.0969   -8.3000  -15.9818 C   0  0  0  0  0  0  0  0  0  0  0  0
   18.1403   -7.2390  -15.7155 C   0  0  0  0  0  0  0  0  0  0  0  0
   18.0958   -5.8950  -15.8780 C   0  0  0  0  0  0  0  0  0  0  0  0
   16.9069   -5.3921  -15.4836 N   0  0  0  0  0  0  0  0  0  0  0  0
   16.2026   -6.4522  -15.0693 C   0  0  0  0  0  0  0  0  0  0  0  0
   16.9056   -7.5586  -15.1945 N   0  0  0  0  0  0  0  0  0  0  0  0
   21.1266   -6.8794  -15.7473 C   0  0  0  0  0  0  0  0  0  0  0  0
   22.1709   -6.9763  -15.0856 O   0  0  0  0  0  0  0  0  0  0  0  0
   20.5473   -5.6005  -15.7684 O   0  0  0  0  0  0  0  0  0  0  0  0
  2  1  1  6
  2  3  1  0
  4  2  1  0
  4  5  1  1
  6 11  1  0
  6  4  1  0
  7  6  2  0
  8  9  1  0
 10  9  1  6
 10 11  1  0
 10 12  1  0
 12 14  1  0
 13 12  2  0
 14 15  1  0
 15 16  1  1
 15 22  1  0
 17 21  1  0
 17 16  1  0
 18 17  2  0
 19 18  1  0
 19 20  1  0
 20 21  2  0
 22 24  1  0
 23 22  2  0
M  END
$$$$
