TSH.pdb
     RDKit          3D

 24 24  0  0  1  0  0  0  0  0999 V2000
   22.8179  -12.9339  -18.6313 C   0  0  0  0  0  0  0  0  0  0  0  0
   22.6728  -11.4427  -18.4460 C   0  0  1  0  0  0  0  0  0  0  0  0
   23.5056  -10.8079  -19.3361 O   0  0  0  0  0  0  0  0  0  0  0  0
   21.2167  -11.0898  -18.6383 C   0  0  2  0  0  0  0  0  0  0  0  0
   21.0168   -9.6635  -18.7135 N   0  0  0  0  0  0  0  0  0  0  0  0
   20.3426  -11.7341  -17.6396 C   0  0  0  0  0  0  0  0  0  0  0  0
   20.3577  -12.9690  -17.5189 O   0  0  0  0  0  0  0  0  0  0  0  0
   17.9662   -9.3377  -15.2786 O   0  0  0  0  0  0  0  0  0  0  0  0
   18.4789  -10.4693  -14.6577 C   0  0  0  0  0  0  0  0  0  0  0  0
   18.7296  -11.5057  -15.7214 C   0  0  2  0  0  0  0  0  0  0  0  0
   19.4956  -10.9720  -16.8254 N   0  0  0  0  0  0  0  0  0  0  0  0
   17.4870  -12.1052  -16.2711 C   0  0  0  0  0  0  0  0  0  0  0  0
   17.0981  -11.6218  -17.3980 O   0  0  0  0  0  0  0  0  0  0  0  0
   16.7643  -13.1233  -15.6396 N   0  0  0  0  0  0  0  0  0  0  0  0
   15.4288  -13.5048  -16.1506 C   0  0  1  0  0  0  0  0  0  0  0  0
   15.5814  -14.8946  -16.6255 C   0  0  0  0  0  0  0  0  0  0  0  0
   16.1603  -15.1348  -17.9365 C   0  0  0  0  0  0  0  0  0  0  0  0
   16.6568  -14.3767  -18.9433 C   0  0  0  0  0  0  0  0  0  0  0  0
   17.1178  -15.1438  -19.9538 N   0  0  0  0  0  0  0  0  0  0  0  0
   16.9006  -16.4040  -19.5590 C   0  0  0  0  0  0  0  0  0  0  0  0
   16.3357  -16.4308  -18.3698 N   0  0  0  0  0  0  0  0  0  0  0  0
   14.4681  -13.3448  -15.0281 C   0  0  0  0  0  0  0  0  0  0  0  0
   14.7203  -13.0449  -13.8516 O   0  0  0  0  0  0  0  0  0  0  0  0
   13.1096  -13.5540  -15.3151 O   0  0  0  0  0  0  0  0  0  0  0  0
  2  1  1  6
  2  3  1  0
  4  2  1  0
  4  5  1  1
  6 11  1  0
  6  4  1  0
  7  6  2  0
  8  9  1  0
 10  9  1  1
 10 11  1  0
 10 12  1  0
 12 14  1  0
 13 12  2  0
 14 15  1  0
 15 16  1  1
 15 22  1  0
 17 21  1  0
 17 16  1  0
 18 17  2  0
 19 18  1  0
 19 20  1  0
 20 21  2  0
 22 24  1  0
 23 22  2  0
M  END
$$$$
