TSH.pdb
     RDKit          3D

 24 24  0  0  1  0  0  0  0  0999 V2000
   33.8053   -4.1880  -17.3457 C   0  0  0  0  0  0  0  0  0  0  0  0
   34.2787   -4.5776  -15.9662 C   0  0  1  0  0  0  0  0  0  0  0  0
   33.4939   -3.9377  -15.0370 O   0  0  0  0  0  0  0  0  0  0  0  0
   34.2167   -6.0833  -15.8614 C   0  0  2  0  0  0  0  0  0  0  0  0
   32.8722   -6.5768  -16.0305 N   0  0  0  0  0  0  0  0  0  0  0  0
   34.8580   -6.5911  -14.6336 C   0  0  0  0  0  0  0  0  0  0  0  0
   34.1746   -6.7633  -13.6124 O   0  0  0  0  0  0  0  0  0  0  0  0
   38.2274   -9.3138  -12.7910 O   0  0  0  0  0  0  0  0  0  0  0  0
   37.5785   -8.7982  -13.9055 C   0  0  0  0  0  0  0  0  0  0  0  0
   36.9017   -7.5172  -13.4938 C   0  0  2  0  0  0  0  0  0  0  0  0
   36.2275   -6.8817  -14.6039 N   0  0  0  0  0  0  0  0  0  0  0  0
   37.8262   -6.5251  -12.8884 C   0  0  0  0  0  0  0  0  0  0  0  0
   38.4666   -5.7901  -13.7278 O   0  0  0  0  0  0  0  0  0  0  0  0
   38.0136   -6.3701  -11.5105 N   0  0  0  0  0  0  0  0  0  0  0  0
   39.0085   -5.3969  -11.0071 C   0  0  1  0  0  0  0  0  0  0  0  0
   38.3347   -4.6994   -9.8936 C   0  0  0  0  0  0  0  0  0  0  0  0
   39.0701   -3.7011   -9.1359 C   0  0  0  0  0  0  0  0  0  0  0  0
   40.2668   -3.0752   -9.2408 C   0  0  0  0  0  0  0  0  0  0  0  0
   40.4386   -2.1754   -8.2495 N   0  0  0  0  0  0  0  0  0  0  0  0
   39.3204   -2.2486   -7.5175 C   0  0  0  0  0  0  0  0  0  0  0  0
   38.4921   -3.1420   -8.0171 N   0  0  0  0  0  0  0  0  0  0  0  0
   40.2124   -6.1697  -10.6046 C   0  0  0  0  0  0  0  0  0  0  0  0
   40.2698   -7.3607  -10.2643 O   0  0  0  0  0  0  0  0  0  0  0  0
   41.4392   -5.4866  -10.6037 O   0  0  0  0  0  0  0  0  0  0  0  0
  2  1  1  6
  2  3  1  0
  4  2  1  0
  4  5  1  1
  6 11  1  0
  6  4  1  0
  7  6  2  0
  8  9  1  0
 10  9  1  6
 10 11  1  0
 10 12  1  0
 12 14  1  0
 13 12  2  0
 14 15  1  0
 15 16  1  1
 15 22  1  0
 17 21  1  0
 17 16  1  0
 18 17  2  0
 19 18  1  0
 19 20  1  0
 20 21  2  0
 22 24  1  0
 23 22  2  0
M  END
$$$$
