TSH.pdb
     RDKit          3D

 24 24  0  0  1  0  0  0  0  0999 V2000
   19.1350   -4.4110  -14.3178 C   0  0  0  0  0  0  0  0  0  0  0  0
   18.7010   -4.3626  -15.7629 C   0  0  1  0  0  0  0  0  0  0  0  0
   18.4427   -5.6445  -16.1856 O   0  0  0  0  0  0  0  0  0  0  0  0
   17.4995   -3.4517  -15.8572 C   0  0  2  0  0  0  0  0  0  0  0  0
   16.9105   -3.4770  -17.1734 N   0  0  0  0  0  0  0  0  0  0  0  0
   17.7907   -2.0825  -15.3913 C   0  0  0  0  0  0  0  0  0  0  0  0
   18.5259   -1.3485  -16.0698 O   0  0  0  0  0  0  0  0  0  0  0  0
   16.6881    1.4190  -12.2498 O   0  0  0  0  0  0  0  0  0  0  0  0
   16.4165    0.1227  -12.6680 C   0  0  0  0  0  0  0  0  0  0  0  0
   17.4566   -0.2606  -13.6877 C   0  0  2  0  0  0  0  0  0  0  0  0
   17.2492   -1.5990  -14.1938 N   0  0  0  0  0  0  0  0  0  0  0  0
   18.8488   -0.1723  -13.1780 C   0  0  0  0  0  0  0  0  0  0  0  0
   19.2529   -1.1945  -12.5097 O   0  0  0  0  0  0  0  0  0  0  0  0
   19.6907    0.9251  -13.3893 N   0  0  0  0  0  0  0  0  0  0  0  0
   21.0341    0.9532  -12.7690 C   0  0  1  0  0  0  0  0  0  0  0  0
   21.9780    0.7534  -13.8868 C   0  0  0  0  0  0  0  0  0  0  0  0
   23.3967    0.9742  -13.6628 C   0  0  0  0  0  0  0  0  0  0  0  0
   24.2062    1.1394  -12.5894 C   0  0  0  0  0  0  0  0  0  0  0  0
   25.4962    1.2731  -12.9635 N   0  0  0  0  0  0  0  0  0  0  0  0
   25.4803    1.1872  -14.2990 C   0  0  0  0  0  0  0  0  0  0  0  0
   24.2528    1.0102  -14.7417 N   0  0  0  0  0  0  0  0  0  0  0  0
   21.1713    2.2629  -12.0803 C   0  0  0  0  0  0  0  0  0  0  0  0
   22.1492    2.6874  -11.4469 O   0  0  0  0  0  0  0  0  0  0  0  0
   20.0735    3.1362  -12.1435 O   0  0  0  0  0  0  0  0  0  0  0  0
  2  1  1  1
  2  3  1  0
  4  2  1  0
  4  5  1  6
  6 11  1  0
  6  4  1  0
  7  6  2  0
  8  9  1  0
 10  9  1  1
 10 11  1  0
 10 12  1  0
 12 14  1  0
 13 12  2  0
 14 15  1  0
 15 16  1  6
 15 22  1  0
 17 21  1  0
 17 16  1  0
 18 17  2  0
 19 18  1  0
 19 20  1  0
 20 21  2  0
 22 24  1  0
 23 22  2  0
M  END
$$$$
