TSH.pdb
     RDKit          3D

 24 24  0  0  1  0  0  0  0  0999 V2000
   16.7627  -10.6959   -9.9811 C   0  0  0  0  0  0  0  0  0  0  0  0
   15.3392  -10.9751  -10.3988 C   0  0  1  0  0  0  0  0  0  0  0  0
   15.0384  -12.2787  -10.0843 O   0  0  0  0  0  0  0  0  0  0  0  0
   14.4460   -9.9744   -9.7042 C   0  0  2  0  0  0  0  0  0  0  0  0
   13.0550  -10.3436   -9.7963 N   0  0  0  0  0  0  0  0  0  0  0  0
   14.6968   -8.5898  -10.1477 C   0  0  0  0  0  0  0  0  0  0  0  0
   14.4320   -8.2637  -11.3153 O   0  0  0  0  0  0  0  0  0  0  0  0
   16.2392   -5.8850   -7.4387 O   0  0  0  0  0  0  0  0  0  0  0  0
   15.5503   -5.3340   -8.5114 C   0  0  0  0  0  0  0  0  0  0  0  0
   15.6319   -6.3049   -9.6599 C   0  0  2  0  0  0  0  0  0  0  0  0
   15.2297   -7.6378   -9.2699 N   0  0  0  0  0  0  0  0  0  0  0  0
   16.9837   -6.3922  -10.2688 C   0  0  0  0  0  0  0  0  0  0  0  0
   17.8775   -6.9601   -9.5384 O   0  0  0  0  0  0  0  0  0  0  0  0
   17.3010   -5.9049  -11.5414 N   0  0  0  0  0  0  0  0  0  0  0  0
   18.6542   -6.1255  -12.0986 C   0  0  1  0  0  0  0  0  0  0  0  0
   18.7252   -7.5744  -12.3739 C   0  0  0  0  0  0  0  0  0  0  0  0
   19.7735   -8.0784  -13.2451 C   0  0  0  0  0  0  0  0  0  0  0  0
   20.8633   -7.5669  -13.8659 C   0  0  0  0  0  0  0  0  0  0  0  0
   21.5347   -8.5212  -14.5443 N   0  0  0  0  0  0  0  0  0  0  0  0
   20.8421   -9.6472  -14.3351 C   0  0  0  0  0  0  0  0  0  0  0  0
   19.7952   -9.4171  -13.5703 N   0  0  0  0  0  0  0  0  0  0  0  0
   18.7761   -5.2675  -13.3059 C   0  0  0  0  0  0  0  0  0  0  0  0
   19.8090   -4.9746  -13.9264 O   0  0  0  0  0  0  0  0  0  0  0  0
   17.5918   -4.7143  -13.8188 O   0  0  0  0  0  0  0  0  0  0  0  0
  2  1  1  1
  2  3  1  0
  4  2  1  0
  4  5  1  6
  6 11  1  0
  6  4  1  0
  7  6  2  0
  8  9  1  0
 10  9  1  1
 10 11  1  0
 10 12  1  0
 12 14  1  0
 13 12  2  0
 14 15  1  0
 15 16  1  6
 15 22  1  0
 17 21  1  0
 17 16  1  0
 18 17  2  0
 19 18  1  0
 19 20  1  0
 20 21  2  0
 22 24  1  0
 23 22  2  0
M  END
$$$$
