TSH.pdb
     RDKit          3D

 24 24  0  0  1  0  0  0  0  0999 V2000
   21.5568  -11.5890  -16.8338 C   0  0  0  0  0  0  0  0  0  0  0  0
   20.2777  -12.1475  -17.4094 C   0  0  1  0  0  0  0  0  0  0  0  0
   20.4160  -13.5082  -17.5445 O   0  0  0  0  0  0  0  0  0  0  0  0
   19.1441  -11.7530  -16.4923 C   0  0  2  0  0  0  0  0  0  0  0  0
   17.9439  -12.5024  -16.7715 N   0  0  0  0  0  0  0  0  0  0  0  0
   18.9129  -10.2960  -16.4743 C   0  0  0  0  0  0  0  0  0  0  0  0
   18.3513   -9.7535  -17.4387 O   0  0  0  0  0  0  0  0  0  0  0  0
   17.8899   -8.5236  -13.2934 O   0  0  0  0  0  0  0  0  0  0  0  0
   17.8273   -7.8009  -14.4778 C   0  0  0  0  0  0  0  0  0  0  0  0
   19.0773   -8.0953  -15.2646 C   0  0  2  0  0  0  0  0  0  0  0  0
   19.3181   -9.5160  -15.3842 N   0  0  0  0  0  0  0  0  0  0  0  0
   20.2980   -7.4683  -14.6967 C   0  0  0  0  0  0  0  0  0  0  0  0
   20.8394   -8.1091  -13.7214 O   0  0  0  0  0  0  0  0  0  0  0  0
   20.8499   -6.2696  -15.1617 N   0  0  0  0  0  0  0  0  0  0  0  0
   22.0017   -5.6658  -14.4552 C   0  0  1  0  0  0  0  0  0  0  0  0
   23.0161   -5.4328  -15.5025 C   0  0  0  0  0  0  0  0  0  0  0  0
   23.6639   -6.5742  -16.1265 C   0  0  0  0  0  0  0  0  0  0  0  0
   23.6114   -7.9218  -16.0002 C   0  0  0  0  0  0  0  0  0  0  0  0
   24.4248   -8.5301  -16.8891 N   0  0  0  0  0  0  0  0  0  0  0  0
   24.9907   -7.5329  -17.5797 C   0  0  0  0  0  0  0  0  0  0  0  0
   24.5601   -6.3645  -17.1516 N   0  0  0  0  0  0  0  0  0  0  0  0
   21.5106   -4.4286  -13.7943 C   0  0  0  0  0  0  0  0  0  0  0  0
   20.4140   -3.8708  -13.9491 O   0  0  0  0  0  0  0  0  0  0  0  0
   22.3774   -3.8035  -12.8836 O   0  0  0  0  0  0  0  0  0  0  0  0
  2  1  1  1
  2  3  1  0
  4  2  1  0
  4  5  1  6
  6 11  1  0
  6  4  1  0
  7  6  2  0
  8  9  1  0
 10  9  1  1
 10 11  1  0
 10 12  1  0
 12 14  1  0
 13 12  2  0
 14 15  1  0
 15 16  1  6
 15 22  1  0
 17 21  1  0
 17 16  1  0
 18 17  2  0
 19 18  1  0
 19 20  1  0
 20 21  2  0
 22 24  1  0
 23 22  2  0
M  END
$$$$
