TSH.pdb
     RDKit          3D

 24 24  0  0  1  0  0  0  0  0999 V2000
   17.9944  -10.9680  -19.3734 C   0  0  0  0  0  0  0  0  0  0  0  0
   17.0234  -11.7115  -18.4883 C   0  0  1  0  0  0  0  0  0  0  0  0
   16.5427  -12.7970  -19.1807 O   0  0  0  0  0  0  0  0  0  0  0  0
   17.7482  -12.0897  -17.2180 C   0  0  2  0  0  0  0  0  0  0  0  0
   17.0169  -13.0722  -16.4565 N   0  0  0  0  0  0  0  0  0  0  0  0
   18.1275  -10.9135  -16.4123 C   0  0  0  0  0  0  0  0  0  0  0  0
   17.2421  -10.2145  -15.8954 O   0  0  0  0  0  0  0  0  0  0  0  0
   22.1227   -9.7831  -16.1932 O   0  0  0  0  0  0  0  0  0  0  0  0
   21.3645   -9.5558  -15.0519 C   0  0  0  0  0  0  0  0  0  0  0  0
   19.9247   -9.4228  -15.4734 C   0  0  2  0  0  0  0  0  0  0  0  0
   19.4727  -10.5741  -16.2223 N   0  0  0  0  0  0  0  0  0  0  0  0
   19.6535   -8.2100  -16.2864 C   0  0  0  0  0  0  0  0  0  0  0  0
   19.8456   -8.3446  -17.5513 O   0  0  0  0  0  0  0  0  0  0  0  0
   19.2187   -6.9919  -15.7526 N   0  0  0  0  0  0  0  0  0  0  0  0
   19.0194   -5.8266  -16.6428 C   0  0  1  0  0  0  0  0  0  0  0  0
   17.7803   -5.1831  -16.1625 C   0  0  0  0  0  0  0  0  0  0  0  0
   17.4023   -3.8867  -16.6993 C   0  0  0  0  0  0  0  0  0  0  0  0
   17.8964   -2.6262  -16.6583 C   0  0  0  0  0  0  0  0  0  0  0  0
   17.1431   -1.7797  -17.3916 N   0  0  0  0  0  0  0  0  0  0  0  0
   16.1624   -2.5376  -17.8968 C   0  0  0  0  0  0  0  0  0  0  0  0
   16.2891   -3.7884  -17.5052 N   0  0  0  0  0  0  0  0  0  0  0  0
   20.2329   -4.9761  -16.5295 C   0  0  0  0  0  0  0  0  0  0  0  0
   21.1079   -5.0171  -15.6518 O   0  0  0  0  0  0  0  0  0  0  0  0
   20.4283   -4.0057  -17.5254 O   0  0  0  0  0  0  0  0  0  0  0  0
  2  1  1  6
  2  3  1  0
  4  2  1  0
  4  5  1  1
  6 11  1  0
  6  4  1  0
  7  6  2  0
  8  9  1  0
 10  9  1  6
 10 11  1  0
 10 12  1  0
 12 14  1  0
 13 12  2  0
 14 15  1  0
 15 16  1  1
 15 22  1  0
 17 21  1  0
 17 16  1  0
 18 17  2  0
 19 18  1  0
 19 20  1  0
 20 21  2  0
 22 24  1  0
 23 22  2  0
M  END
$$$$
