PHW.pdb
     RDKit          3D

 32 35  0  0  1  0  0  0  0  0999 V2000
    9.3134  -15.0224   19.7619 N   0  0  0  0  0  0  0  0  0  0  0  0
    8.8159  -14.2103   18.6444 C   0  0  0  0  0  0  0  0  0  0  0  0
    7.4062  -13.8161   19.0049 C   0  0  0  0  0  0  0  0  0  0  0  0
    7.1911  -14.4305   20.3940 C   0  0  0  0  0  0  0  0  0  0  0  0
    8.6181  -14.4823   20.8937 C   0  0  1  0  0  0  0  0  0  0  0  0
    8.7172  -15.3429   22.0926 C   0  0  0  0  0  0  0  0  0  0  0  0
    7.9418  -15.2480   23.0745 O   0  0  0  0  0  0  0  0  0  0  0  0
    9.7209  -16.3617   22.2191 N   0  0  0  0  0  0  0  0  0  0  0  0
   10.9976  -16.1632   22.7935 C   0  0  1  0  0  0  0  0  0  0  0  0
   11.8504  -15.0833   22.2867 C   0  0  0  0  0  0  0  0  0  0  0  0
   12.3776  -15.1956   20.9324 C   0  0  0  0  0  0  0  0  0  0  0  0
   12.3273  -16.1623   19.9677 C   0  0  0  0  0  0  0  0  0  0  0  0
   12.9731  -15.7445   18.8717 N   0  0  0  0  0  0  0  0  0  0  0  0
   13.4380  -14.5235   19.1161 C   0  0  0  0  0  0  0  0  0  0  0  0
   13.0869  -14.1736   20.3601 N   0  0  0  0  0  0  0  0  0  0  0  0
   10.8224  -16.1068   24.2875 C   0  0  0  0  0  0  0  0  0  0  0  0
   11.7371  -15.6633   25.0355 O   0  0  0  0  0  0  0  0  0  0  0  0
    9.6431  -16.5388   24.9425 N   0  0  0  0  0  0  0  0  0  0  0  0
    9.5164  -16.6379   26.3881 C   0  0  1  0  0  0  0  0  0  0  0  0
    8.0973  -16.5784   26.8412 C   0  0  0  0  0  0  0  0  0  0  0  0
    7.3371  -15.4378   26.2822 C   0  0  0  0  0  0  0  0  0  0  0  0
    6.4025  -15.4798   25.2661 C   0  0  0  0  0  0  0  0  0  0  0  0
    5.9517  -14.2290   25.0677 N   0  0  0  0  0  0  0  0  0  0  0  0
    6.5362  -13.3566   25.8970 C   0  0  0  0  0  0  0  0  0  0  0  0
    6.3954  -11.9945   26.0549 C   0  0  0  0  0  0  0  0  0  0  0  0
    7.1567  -11.3660   27.0160 C   0  0  0  0  0  0  0  0  0  0  0  0
    8.0298  -12.0853   27.7914 C   0  0  0  0  0  0  0  0  0  0  0  0
    8.1561  -13.4634   27.6143 C   0  0  0  0  0  0  0  0  0  0  0  0
    7.4123  -14.1066   26.6685 C   0  0  0  0  0  0  0  0  0  0  0  0
   10.1020  -17.9177   26.8869 C   0  0  0  0  0  0  0  0  0  0  0  0
   10.5634  -18.7409   26.0628 O   0  0  0  0  0  0  0  0  0  0  0  0
   10.1506  -18.2213   28.2342 O   0  0  0  0  0  0  0  0  0  0  0  0
  1  2  1  0
  3  2  1  0
  4  3  1  0
  5  4  1  0
  5  1  1  0
  6  7  2  0
  5  6  1  1
  8  6  1  0
  9  8  1  0
 10 11  1  0
  9 10  1  6
 11 15  1  0
 12 11  2  0
 12 13  1  0
 13 14  1  0
 15 14  2  0
 16 18  1  0
 16  9  1  0
 17 16  2  0
 19 18  1  0
 19 30  1  0
 19 20  1  6
 21 22  2  0
 21 20  1  0
 23 22  1  0
 24 29  2  0
 24 23  1  0
 25 24  1  0
 26 27  1  0
 26 25  2  0
 27 28  2  0
 28 29  1  0
 29 21  1  0
 30 32  1  0
 31 30  2  0
M  END
$$$$
