PHW.pdb
     RDKit          3D

 32 35  0  0  1  0  0  0  0  0999 V2000
    9.2489  -14.3626   18.9611 N   0  0  0  0  0  0  0  0  0  0  0  0
    8.9637  -13.3409   17.9459 C   0  0  0  0  0  0  0  0  0  0  0  0
    7.5611  -12.8588   18.2159 C   0  0  0  0  0  0  0  0  0  0  0  0
    7.1264  -13.6521   19.4549 C   0  0  0  0  0  0  0  0  0  0  0  0
    8.4724  -13.9311   20.0866 C   0  0  1  0  0  0  0  0  0  0  0  0
    8.3496  -14.9707   21.1317 C   0  0  0  0  0  0  0  0  0  0  0  0
    7.5217  -14.9070   22.0725 O   0  0  0  0  0  0  0  0  0  0  0  0
    9.1798  -16.1420   21.1435 N   0  0  0  0  0  0  0  0  0  0  0  0
    9.0868  -17.1816   22.0974 C   0  0  1  0  0  0  0  0  0  0  0  0
    9.4221  -18.5520   21.6975 C   0  0  0  0  0  0  0  0  0  0  0  0
    8.7759  -19.1052   20.5139 C   0  0  0  0  0  0  0  0  0  0  0  0
    7.5356  -18.9718   19.9556 C   0  0  0  0  0  0  0  0  0  0  0  0
    7.4624  -19.6972   18.8325 N   0  0  0  0  0  0  0  0  0  0  0  0
    8.6368  -20.2951   18.6592 C   0  0  0  0  0  0  0  0  0  0  0  0
    9.4460  -19.9483   19.6682 N   0  0  0  0  0  0  0  0  0  0  0  0
    9.8339  -16.7407   23.3276 C   0  0  0  0  0  0  0  0  0  0  0  0
   10.8133  -15.9487   23.2475 O   0  0  0  0  0  0  0  0  0  0  0  0
    9.4956  -17.1758   24.6325 N   0  0  0  0  0  0  0  0  0  0  0  0
   10.0930  -16.6314   25.8418 C   0  0  1  0  0  0  0  0  0  0  0  0
    9.8627  -15.1650   25.9808 C   0  0  0  0  0  0  0  0  0  0  0  0
    8.4398  -14.7698   25.8811 C   0  0  0  0  0  0  0  0  0  0  0  0
    7.3652  -15.5938   25.6092 C   0  0  0  0  0  0  0  0  0  0  0  0
    6.2537  -14.8376   25.6113 N   0  0  0  0  0  0  0  0  0  0  0  0
    6.5309  -13.5543   25.8698 C   0  0  0  0  0  0  0  0  0  0  0  0
    5.7291  -12.4375   25.9699 C   0  0  0  0  0  0  0  0  0  0  0  0
    6.3258  -11.2279   26.2513 C   0  0  0  0  0  0  0  0  0  0  0  0
    7.6837  -11.1464   26.4260 C   0  0  0  0  0  0  0  0  0  0  0  0
    8.4759  -12.2899   26.3201 C   0  0  0  0  0  0  0  0  0  0  0  0
    7.9065  -13.4983   26.0421 C   0  0  0  0  0  0  0  0  0  0  0  0
    9.5369  -17.2984   27.0565 C   0  0  0  0  0  0  0  0  0  0  0  0
    8.5639  -18.0781   26.9343 O   0  0  0  0  0  0  0  0  0  0  0  0
   10.0658  -17.0809   28.3146 O   0  0  0  0  0  0  0  0  0  0  0  0
  1  2  1  0
  3  2  1  0
  4  3  1  0
  5  4  1  0
  5  1  1  0
  6  7  2  0
  5  6  1  1
  8  6  1  0
  9  8  1  0
 10 11  1  0
  9 10  1  6
 11 15  1  0
 12 11  2  0
 12 13  1  0
 13 14  1  0
 15 14  2  0
 16 18  1  0
 16  9  1  0
 17 16  2  0
 19 18  1  0
 19 30  1  0
 19 20  1  1
 21 22  2  0
 21 20  1  0
 23 22  1  0
 24 29  2  0
 24 23  1  0
 25 24  1  0
 26 27  1  0
 26 25  2  0
 27 28  2  0
 28 29  1  0
 29 21  1  0
 30 32  1  0
 31 30  2  0
M  END
$$$$
