PHW.pdb
     RDKit          3D

 32 35  0  0  1  0  0  0  0  0999 V2000
    9.3395  -14.4744   18.4172 N   0  0  0  0  0  0  0  0  0  0  0  0
    9.1405  -13.4045   17.4315 C   0  0  0  0  0  0  0  0  0  0  0  0
    7.9781  -12.5838   17.9295 C   0  0  0  0  0  0  0  0  0  0  0  0
    7.5912  -13.2517   19.2552 C   0  0  0  0  0  0  0  0  0  0  0  0
    8.9155  -13.8699   19.6463 C   0  0  1  0  0  0  0  0  0  0  0  0
    8.7276  -14.8535   20.7349 C   0  0  0  0  0  0  0  0  0  0  0  0
    8.2221  -14.5629   21.8460 O   0  0  0  0  0  0  0  0  0  0  0  0
    9.1152  -16.2289   20.5953 N   0  0  0  0  0  0  0  0  0  0  0  0
    8.9841  -17.2062   21.6087 C   0  0  1  0  0  0  0  0  0  0  0  0
    9.1812  -18.6192   21.2702 C   0  0  0  0  0  0  0  0  0  0  0  0
    8.3696  -19.1955   20.2054 C   0  0  0  0  0  0  0  0  0  0  0  0
    7.1282  -19.7650   20.1559 C   0  0  0  0  0  0  0  0  0  0  0  0
    6.8409  -20.1196   18.8971 N   0  0  0  0  0  0  0  0  0  0  0  0
    7.8782  -19.7867   18.1356 C   0  0  0  0  0  0  0  0  0  0  0  0
    8.8147  -19.2251   18.9107 N   0  0  0  0  0  0  0  0  0  0  0  0
    9.8282  -16.7696   22.7761 C   0  0  0  0  0  0  0  0  0  0  0  0
   10.9974  -16.3258   22.6062 O   0  0  0  0  0  0  0  0  0  0  0  0
    9.3771  -16.8260   24.1177 N   0  0  0  0  0  0  0  0  0  0  0  0
   10.1734  -16.3872   25.2530 C   0  0  1  0  0  0  0  0  0  0  0  0
    9.8647  -14.9860   25.6580 C   0  0  0  0  0  0  0  0  0  0  0  0
    8.4228  -14.7275   25.8703 C   0  0  0  0  0  0  0  0  0  0  0  0
    7.3854  -15.6262   25.7149 C   0  0  0  0  0  0  0  0  0  0  0  0
    6.2390  -14.9883   26.0081 N   0  0  0  0  0  0  0  0  0  0  0  0
    6.4575  -13.7133   26.3502 C   0  0  0  0  0  0  0  0  0  0  0  0
    5.6039  -12.6964   26.7210 C   0  0  0  0  0  0  0  0  0  0  0  0
    6.1452  -11.4646   27.0176 C   0  0  0  0  0  0  0  0  0  0  0  0
    7.4999  -11.2643   26.9433 C   0  0  0  0  0  0  0  0  0  0  0  0
    8.3452  -12.3080   26.5657 C   0  0  0  0  0  0  0  0  0  0  0  0
    7.8311  -13.5362   26.2674 C   0  0  0  0  0  0  0  0  0  0  0  0
    9.9416  -17.2668   26.4372 C   0  0  0  0  0  0  0  0  0  0  0  0
    9.0319  -18.1270   26.3908 O   0  0  0  0  0  0  0  0  0  0  0  0
   10.7032  -17.1599   27.5853 O   0  0  0  0  0  0  0  0  0  0  0  0
  1  2  1  0
  3  2  1  0
  4  3  1  0
  5  4  1  0
  5  1  1  0
  6  7  2  0
  5  6  1  1
  8  6  1  0
  9  8  1  0
 10 11  1  0
  9 10  1  6
 11 15  1  0
 12 11  2  0
 12 13  1  0
 13 14  1  0
 15 14  2  0
 16 18  1  0
 16  9  1  0
 17 16  2  0
 19 18  1  0
 19 30  1  0
 19 20  1  1
 21 22  2  0
 21 20  1  0
 23 22  1  0
 24 29  2  0
 24 23  1  0
 25 24  1  0
 26 27  1  0
 26 25  2  0
 27 28  2  0
 28 29  1  0
 29 21  1  0
 30 32  1  0
 31 30  2  0
M  END
$$$$
