PHW.pdb
     RDKit          3D

 32 35  0  0  1  0  0  0  0  0999 V2000
    9.2401  -14.2884   18.9135 N   0  0  0  0  0  0  0  0  0  0  0  0
    8.8507  -13.2594   17.9413 C   0  0  0  0  0  0  0  0  0  0  0  0
    7.5722  -12.6520   18.4600 C   0  0  0  0  0  0  0  0  0  0  0  0
    7.3201  -13.3871   19.7826 C   0  0  0  0  0  0  0  0  0  0  0  0
    8.7346  -13.7751   20.1532 C   0  0  1  0  0  0  0  0  0  0  0  0
    8.7294  -14.7856   21.2334 C   0  0  0  0  0  0  0  0  0  0  0  0
    8.1062  -14.6372   22.3124 O   0  0  0  0  0  0  0  0  0  0  0  0
    9.4462  -16.0246   21.1221 N   0  0  0  0  0  0  0  0  0  0  0  0
    9.4113  -17.0608   22.0835 C   0  0  1  0  0  0  0  0  0  0  0  0
    9.8359  -18.4102   21.6973 C   0  0  0  0  0  0  0  0  0  0  0  0
    9.2216  -19.0197   20.5244 C   0  0  0  0  0  0  0  0  0  0  0  0
    7.9773  -18.9616   19.9620 C   0  0  0  0  0  0  0  0  0  0  0  0
    7.9441  -19.7123   18.8537 N   0  0  0  0  0  0  0  0  0  0  0  0
    9.1481  -20.2523   18.6939 C   0  0  0  0  0  0  0  0  0  0  0  0
    9.9362  -19.8440   19.6967 N   0  0  0  0  0  0  0  0  0  0  0  0
   10.1187  -16.5644   23.3160 C   0  0  0  0  0  0  0  0  0  0  0  0
   11.2466  -16.0033   23.2396 O   0  0  0  0  0  0  0  0  0  0  0  0
    9.5778  -16.6904   24.6191 N   0  0  0  0  0  0  0  0  0  0  0  0
   10.3324  -16.4197   25.8327 C   0  0  1  0  0  0  0  0  0  0  0  0
    9.9005  -15.1601   26.5032 C   0  0  0  0  0  0  0  0  0  0  0  0
    8.4599  -14.8598   26.3434 C   0  0  0  0  0  0  0  0  0  0  0  0
    7.4400  -15.7670   26.1326 C   0  0  0  0  0  0  0  0  0  0  0  0
    6.2877  -15.0801   26.0453 N   0  0  0  0  0  0  0  0  0  0  0  0
    6.4859  -13.7643   26.1865 C   0  0  0  0  0  0  0  0  0  0  0  0
    5.6201  -12.6919   26.1679 C   0  0  0  0  0  0  0  0  0  0  0  0
    6.1410  -11.4286   26.3441 C   0  0  0  0  0  0  0  0  0  0  0  0
    7.4879  -11.2520   26.5326 C   0  0  0  0  0  0  0  0  0  0  0  0
    8.3459  -12.3520   26.5478 C   0  0  0  0  0  0  0  0  0  0  0  0
    7.8520  -13.6122   26.3753 C   0  0  0  0  0  0  0  0  0  0  0  0
   10.1801  -17.5351   26.8138 C   0  0  0  0  0  0  0  0  0  0  0  0
    9.3183  -18.4199   26.6043 O   0  0  0  0  0  0  0  0  0  0  0  0
   10.9642  -17.6204   27.9485 O   0  0  0  0  0  0  0  0  0  0  0  0
  1  2  1  0
  3  2  1  0
  4  3  1  0
  5  4  1  0
  5  1  1  0
  6  7  2  0
  5  6  1  1
  8  6  1  0
  9  8  1  0
 10 11  1  0
  9 10  1  6
 11 15  1  0
 12 11  2  0
 12 13  1  0
 13 14  1  0
 15 14  2  0
 16 18  1  0
 16  9  1  0
 17 16  2  0
 19 18  1  0
 19 30  1  0
 19 20  1  1
 21 22  2  0
 21 20  1  0
 23 22  1  0
 24 29  2  0
 24 23  1  0
 25 24  1  0
 26 27  1  0
 26 25  2  0
 27 28  2  0
 28 29  1  0
 29 21  1  0
 30 32  1  0
 31 30  2  0
M  END
$$$$
