PHW.pdb
     RDKit          3D

 32 35  0  0  1  0  0  0  0  0999 V2000
    7.5415  -20.2638   22.6938 N   0  0  0  0  0  0  0  0  0  0  0  0
    7.0039  -21.6301   22.6785 C   0  0  0  0  0  0  0  0  0  0  0  0
    7.0361  -22.0794   21.2398 C   0  0  0  0  0  0  0  0  0  0  0  0
    7.6559  -20.8918   20.4923 C   0  0  0  0  0  0  0  0  0  0  0  0
    8.4714  -20.2660   21.6023 C   0  0  1  0  0  0  0  0  0  0  0  0
    8.9109  -18.9063   21.2200 C   0  0  0  0  0  0  0  0  0  0  0  0
    9.9394  -18.6816   20.5371 O   0  0  0  0  0  0  0  0  0  0  0  0
    8.1820  -17.7319   21.6082 N   0  0  0  0  0  0  0  0  0  0  0  0
    8.5412  -16.4111   21.2537 C   0  0  1  0  0  0  0  0  0  0  0  0
    7.5255  -15.5225   20.6803 C   0  0  0  0  0  0  0  0  0  0  0  0
    7.9472  -14.2179   20.1855 C   0  0  0  0  0  0  0  0  0  0  0  0
    7.9575  -12.9569   20.7126 C   0  0  0  0  0  0  0  0  0  0  0  0
    8.4792  -12.0986   19.8272 N   0  0  0  0  0  0  0  0  0  0  0  0
    8.8053  -12.7879   18.7385 C   0  0  0  0  0  0  0  0  0  0  0  0
    8.4905  -14.0743   18.9367 N   0  0  0  0  0  0  0  0  0  0  0  0
    9.2447  -15.7967   22.4342 C   0  0  0  0  0  0  0  0  0  0  0  0
    9.7077  -14.6239   22.3801 O   0  0  0  0  0  0  0  0  0  0  0  0
    9.4315  -16.4791   23.6614 N   0  0  0  0  0  0  0  0  0  0  0  0
   10.1059  -15.8966   24.8110 C   0  0  1  0  0  0  0  0  0  0  0  0
    9.3252  -16.0566   26.0710 C   0  0  0  0  0  0  0  0  0  0  0  0
    7.9522  -15.5084   25.9990 C   0  0  0  0  0  0  0  0  0  0  0  0
    6.8010  -16.1916   25.6586 C   0  0  0  0  0  0  0  0  0  0  0  0
    5.7742  -15.3260   25.7179 N   0  0  0  0  0  0  0  0  0  0  0  0
    6.1800  -14.1033   26.0794 C   0  0  0  0  0  0  0  0  0  0  0  0
    5.4974  -12.9204   26.2664 C   0  0  0  0  0  0  0  0  0  0  0  0
    6.2131  -11.8060   26.6458 C   0  0  0  0  0  0  0  0  0  0  0  0
    7.5700  -11.8808   26.8306 C   0  0  0  0  0  0  0  0  0  0  0  0
    8.2405  -13.0887   26.6358 C   0  0  0  0  0  0  0  0  0  0  0  0
    7.5519  -14.2050   26.2599 C   0  0  0  0  0  0  0  0  0  0  0  0
   11.4434  -16.5270   25.0189 C   0  0  0  0  0  0  0  0  0  0  0  0
   11.7485  -17.5458   24.3565 O   0  0  0  0  0  0  0  0  0  0  0  0
   12.3570  -16.0182   25.9222 O   0  0  0  0  0  0  0  0  0  0  0  0
  1  2  1  0
  3  2  1  0
  4  3  1  0
  5  4  1  0
  5  1  1  0
  6  7  2  0
  5  6  1  6
  8  6  1  0
  9  8  1  0
 10 11  1  0
  9 10  1  1
 11 15  1  0
 12 11  2  0
 12 13  1  0
 13 14  1  0
 15 14  2  0
 16 18  1  0
 16  9  1  0
 17 16  2  0
 19 18  1  0
 19 30  1  0
 19 20  1  1
 21 22  2  0
 21 20  1  0
 23 22  1  0
 24 29  2  0
 24 23  1  0
 25 24  1  0
 26 27  1  0
 26 25  2  0
 27 28  2  0
 28 29  1  0
 29 21  1  0
 30 32  1  0
 31 30  2  0
M  END
$$$$
