PHW.pdb
     RDKit          3D

 32 35  0  0  1  0  0  0  0  0999 V2000
    6.5936  -18.5464   21.3915 N   0  0  0  0  0  0  0  0  0  0  0  0
    5.5269  -19.3519   20.7842 C   0  0  0  0  0  0  0  0  0  0  0  0
    5.6439  -19.1517   19.2946 C   0  0  0  0  0  0  0  0  0  0  0  0
    6.8560  -18.2248   19.1372 C   0  0  0  0  0  0  0  0  0  0  0  0
    7.6247  -18.5645   20.3952 C   0  0  1  0  0  0  0  0  0  0  0  0
    8.6817  -17.5602   20.6446 C   0  0  0  0  0  0  0  0  0  0  0  0
    9.7486  -17.5052   19.9865 O   0  0  0  0  0  0  0  0  0  0  0  0
    8.5597  -16.5636   21.6709 N   0  0  0  0  0  0  0  0  0  0  0  0
    9.4654  -15.4949   21.8630 C   0  0  1  0  0  0  0  0  0  0  0  0
    9.1005  -14.1543   21.3943 C   0  0  0  0  0  0  0  0  0  0  0  0
    8.4767  -14.0256   20.0832 C   0  0  0  0  0  0  0  0  0  0  0  0
    7.3204  -13.4550   19.6302 C   0  0  0  0  0  0  0  0  0  0  0  0
    7.2303  -13.6031   18.3025 N   0  0  0  0  0  0  0  0  0  0  0  0
    8.3112  -14.2599   17.8939 C   0  0  0  0  0  0  0  0  0  0  0  0
    9.0786  -14.5246   18.9589 N   0  0  0  0  0  0  0  0  0  0  0  0
    9.8848  -15.5060   23.3086 C   0  0  0  0  0  0  0  0  0  0  0  0
   10.6994  -14.6533   23.7584 O   0  0  0  0  0  0  0  0  0  0  0  0
    9.4038  -16.4549   24.2439 N   0  0  0  0  0  0  0  0  0  0  0  0
    9.8265  -16.4987   25.6349 C   0  0  1  0  0  0  0  0  0  0  0  0
    8.6741  -16.5054   26.5808 C   0  0  0  0  0  0  0  0  0  0  0  0
    7.5562  -15.6268   26.1694 C   0  0  0  0  0  0  0  0  0  0  0  0
    6.3997  -16.0040   25.5151 C   0  0  0  0  0  0  0  0  0  0  0  0
    5.6506  -14.9029   25.3323 N   0  0  0  0  0  0  0  0  0  0  0  0
    6.2464  -13.8128   25.8296 C   0  0  0  0  0  0  0  0  0  0  0  0
    5.8652  -12.4888   25.8712 C   0  0  0  0  0  0  0  0  0  0  0  0
    6.7168  -11.5821   26.4635 C   0  0  0  0  0  0  0  0  0  0  0  0
    7.9114  -11.9952   26.9957 C   0  0  0  0  0  0  0  0  0  0  0  0
    8.2769  -13.3406   26.9424 C   0  0  0  0  0  0  0  0  0  0  0  0
    7.4492  -14.2560   26.3606 C   0  0  0  0  0  0  0  0  0  0  0  0
   10.6456  -17.7179   25.9039 C   0  0  0  0  0  0  0  0  0  0  0  0
   10.7470  -18.5945   25.0146 O   0  0  0  0  0  0  0  0  0  0  0  0
   11.2970  -17.9079   27.1078 O   0  0  0  0  0  0  0  0  0  0  0  0
  1  2  1  0
  3  2  1  0
  4  3  1  0
  5  4  1  0
  5  1  1  0
  6  7  2  0
  5  6  1  1
  8  6  1  0
  9  8  1  0
 10 11  1  0
  9 10  1  1
 11 15  1  0
 12 11  2  0
 12 13  1  0
 13 14  1  0
 15 14  2  0
 16 18  1  0
 16  9  1  0
 17 16  2  0
 19 18  1  0
 19 30  1  0
 19 20  1  1
 21 22  2  0
 21 20  1  0
 23 22  1  0
 24 29  2  0
 24 23  1  0
 25 24  1  0
 26 27  1  0
 26 25  2  0
 27 28  2  0
 28 29  1  0
 29 21  1  0
 30 32  1  0
 31 30  2  0
M  END
$$$$
