PHW.pdb
     RDKit          3D

 32 35  0  0  1  0  0  0  0  0999 V2000
    9.3394  -14.1020   19.0655 N   0  0  0  0  0  0  0  0  0  0  0  0
    8.8308  -13.0780   18.1443 C   0  0  0  0  0  0  0  0  0  0  0  0
    7.3718  -12.8980   18.4785 C   0  0  0  0  0  0  0  0  0  0  0  0
    7.1380  -13.8549   19.6545 C   0  0  0  0  0  0  0  0  0  0  0  0
    8.5330  -13.9180   20.2367 C   0  0  1  0  0  0  0  0  0  0  0  0
    8.6457  -15.0404   21.1935 C   0  0  0  0  0  0  0  0  0  0  0  0
    7.8861  -15.1814   22.1823 O   0  0  0  0  0  0  0  0  0  0  0  0
    9.6452  -16.0619   21.0563 N   0  0  0  0  0  0  0  0  0  0  0  0
    9.8039  -17.1529   21.9416 C   0  0  1  0  0  0  0  0  0  0  0  0
   10.5144  -18.3504   21.4817 C   0  0  0  0  0  0  0  0  0  0  0  0
   10.0634  -18.9938   20.2540 C   0  0  0  0  0  0  0  0  0  0  0  0
    8.8879  -19.5648   19.8541 C   0  0  0  0  0  0  0  0  0  0  0  0
    9.0000  -19.9998   18.5927 N   0  0  0  0  0  0  0  0  0  0  0  0
   10.2296  -19.7171   18.1745 C   0  0  0  0  0  0  0  0  0  0  0  0
   10.8892  -19.1071   19.1675 N   0  0  0  0  0  0  0  0  0  0  0  0
   10.3568  -16.6153   23.2344 C   0  0  0  0  0  0  0  0  0  0  0  0
   11.2895  -15.7651   23.2418 O   0  0  0  0  0  0  0  0  0  0  0  0
    9.8778  -17.0187   24.5049 N   0  0  0  0  0  0  0  0  0  0  0  0
   10.2943  -16.4017   25.7545 C   0  0  1  0  0  0  0  0  0  0  0  0
    9.9298  -14.9578   25.8263 C   0  0  0  0  0  0  0  0  0  0  0  0
    8.4722  -14.7047   25.7779 C   0  0  0  0  0  0  0  0  0  0  0  0
    7.4853  -15.5969   25.4066 C   0  0  0  0  0  0  0  0  0  0  0  0
    6.3015  -14.9674   25.5039 N   0  0  0  0  0  0  0  0  0  0  0  0
    6.4474  -13.7039   25.9198 C   0  0  0  0  0  0  0  0  0  0  0  0
    5.5354  -12.6983   26.1588 C   0  0  0  0  0  0  0  0  0  0  0  0
    6.0071  -11.4770   26.5879 C   0  0  0  0  0  0  0  0  0  0  0  0
    7.3514  -11.2759   26.7700 C   0  0  0  0  0  0  0  0  0  0  0  0
    8.2567  -12.3081   26.5220 C   0  0  0  0  0  0  0  0  0  0  0  0
    7.8120  -13.5258   26.0963 C   0  0  0  0  0  0  0  0  0  0  0  0
    9.6679  -17.0897   26.9223 C   0  0  0  0  0  0  0  0  0  0  0  0
    9.9923  -16.7435   28.0818 O   0  0  0  0  0  0  0  0  0  0  0  0
    8.7381  -18.0993   26.7613 O   0  0  0  0  0  0  0  0  0  0  0  0
  1  2  1  0
  3  2  1  0
  4  3  1  0
  5  4  1  0
  5  1  1  0
  6  7  2  0
  5  6  1  1
  8  6  1  0
  9  8  1  0
 10 11  1  0
  9 10  1  6
 11 15  1  0
 12 11  2  0
 12 13  1  0
 13 14  1  0
 15 14  2  0
 16 18  1  0
 16  9  1  0
 17 16  2  0
 19 18  1  0
 19 30  1  0
 19 20  1  6
 21 22  2  0
 21 20  1  0
 23 22  1  0
 24 29  2  0
 24 23  1  0
 25 24  1  0
 26 27  1  0
 26 25  2  0
 27 28  2  0
 28 29  1  0
 29 21  1  0
 30 32  1  0
 31 30  2  0
M  END
$$$$
