PHW.pdb
     RDKit          3D

 32 35  0  0  1  0  0  0  0  0999 V2000
    9.1247  -14.6474   18.2885 N   0  0  0  0  0  0  0  0  0  0  0  0
    8.9426  -13.5759   17.3013 C   0  0  0  0  0  0  0  0  0  0  0  0
    7.8849  -12.6605   17.8634 C   0  0  0  0  0  0  0  0  0  0  0  0
    7.5391  -13.2812   19.2230 C   0  0  0  0  0  0  0  0  0  0  0  0
    8.8348  -13.9979   19.5335 C   0  0  1  0  0  0  0  0  0  0  0  0
    8.6459  -14.9517   20.6482 C   0  0  0  0  0  0  0  0  0  0  0  0
    8.2720  -14.6055   21.7949 O   0  0  0  0  0  0  0  0  0  0  0  0
    8.8798  -16.3599   20.4949 N   0  0  0  0  0  0  0  0  0  0  0  0
    8.7799  -17.3081   21.5390 C   0  0  1  0  0  0  0  0  0  0  0  0
    8.9728  -18.7297   21.2357 C   0  0  0  0  0  0  0  0  0  0  0  0
    8.8631  -19.6909   22.3260 C   0  0  0  0  0  0  0  0  0  0  0  0
    8.5675  -19.5924   23.6567 C   0  0  0  0  0  0  0  0  0  0  0  0
    8.5813  -20.8087   24.2164 N   0  0  0  0  0  0  0  0  0  0  0  0
    8.8806  -21.6886   23.2663 C   0  0  0  0  0  0  0  0  0  0  0  0
    9.0549  -21.0300   22.1134 N   0  0  0  0  0  0  0  0  0  0  0  0
    9.6541  -16.8359   22.6699 C   0  0  0  0  0  0  0  0  0  0  0  0
   10.8172  -16.3954   22.4555 O   0  0  0  0  0  0  0  0  0  0  0  0
    9.2395  -16.8535   24.0243 N   0  0  0  0  0  0  0  0  0  0  0  0
   10.0818  -16.4223   25.1288 C   0  0  1  0  0  0  0  0  0  0  0  0
    9.7893  -15.0243   25.5564 C   0  0  0  0  0  0  0  0  0  0  0  0
    8.3553  -14.7646   25.8157 C   0  0  0  0  0  0  0  0  0  0  0  0
    7.3309  -15.6909   25.8236 C   0  0  0  0  0  0  0  0  0  0  0  0
    6.1880  -15.0405   26.1026 N   0  0  0  0  0  0  0  0  0  0  0  0
    6.3967  -13.7308   26.2808 C   0  0  0  0  0  0  0  0  0  0  0  0
    5.5421  -12.6904   26.5763 C   0  0  0  0  0  0  0  0  0  0  0  0
    6.0715  -11.4241   26.6967 C   0  0  0  0  0  0  0  0  0  0  0  0
    7.4158  -11.2134   26.5253 C   0  0  0  0  0  0  0  0  0  0  0  0
    8.2624  -12.2813   26.2266 C   0  0  0  0  0  0  0  0  0  0  0  0
    7.7599  -13.5438   26.1026 C   0  0  0  0  0  0  0  0  0  0  0  0
    9.8994  -17.3106   26.3151 C   0  0  0  0  0  0  0  0  0  0  0  0
    8.9433  -18.1201   26.3314 O   0  0  0  0  0  0  0  0  0  0  0  0
   10.7567  -17.2663   27.3981 O   0  0  0  0  0  0  0  0  0  0  0  0
  1  2  1  0
  3  2  1  0
  4  3  1  0
  5  4  1  0
  5  1  1  0
  6  7  2  0
  5  6  1  1
  8  6  1  0
  9  8  1  0
 10 11  1  0
  9 10  1  6
 11 15  1  0
 12 11  2  0
 12 13  1  0
 13 14  1  0
 15 14  2  0
 16 18  1  0
 16  9  1  0
 17 16  2  0
 19 18  1  0
 19 30  1  0
 19 20  1  1
 21 22  2  0
 21 20  1  0
 23 22  1  0
 24 29  2  0
 24 23  1  0
 25 24  1  0
 26 27  1  0
 26 25  2  0
 27 28  2  0
 28 29  1  0
 29 21  1  0
 30 32  1  0
 31 30  2  0
M  END
$$$$
