PHW.pdb
     RDKit          3D

 32 35  0  0  1  0  0  0  0  0999 V2000
    9.1321  -14.0967   18.9463 N   0  0  0  0  0  0  0  0  0  0  0  0
    8.7523  -13.0414   17.9986 C   0  0  0  0  0  0  0  0  0  0  0  0
    7.3945  -12.5526   18.4344 C   0  0  0  0  0  0  0  0  0  0  0  0
    7.0863  -13.3785   19.6898 C   0  0  0  0  0  0  0  0  0  0  0  0
    8.4891  -13.6913   20.1621 C   0  0  1  0  0  0  0  0  0  0  0  0
    8.4663  -14.7609   21.1836 C   0  0  0  0  0  0  0  0  0  0  0  0
    7.8342  -14.6684   22.2636 O   0  0  0  0  0  0  0  0  0  0  0  0
    9.1748  -15.9973   21.0091 N   0  0  0  0  0  0  0  0  0  0  0  0
    9.1392  -17.0779   21.9203 C   0  0  1  0  0  0  0  0  0  0  0  0
    9.6425  -18.3884   21.4966 C   0  0  0  0  0  0  0  0  0  0  0  0
    9.4482  -19.5254   22.3878 C   0  0  0  0  0  0  0  0  0  0  0  0
    8.8720  -19.6850   23.6167 C   0  0  0  0  0  0  0  0  0  0  0  0
    8.9439  -20.9692   23.9889 N   0  0  0  0  0  0  0  0  0  0  0  0
    9.5572  -21.6386   23.0182 C   0  0  0  0  0  0  0  0  0  0  0  0
    9.8704  -20.7805   22.0390 N   0  0  0  0  0  0  0  0  0  0  0  0
    9.7621  -16.6098   23.2083 C   0  0  0  0  0  0  0  0  0  0  0  0
   10.7792  -15.8626   23.2076 O   0  0  0  0  0  0  0  0  0  0  0  0
    9.2596  -16.9688   24.4831 N   0  0  0  0  0  0  0  0  0  0  0  0
    9.9325  -16.6486   25.7322 C   0  0  1  0  0  0  0  0  0  0  0  0
    8.9750  -16.3412   26.8328 C   0  0  0  0  0  0  0  0  0  0  0  0
    7.8272  -15.5062   26.4127 C   0  0  0  0  0  0  0  0  0  0  0  0
    6.6904  -15.9280   25.7513 C   0  0  0  0  0  0  0  0  0  0  0  0
    5.9011  -14.8564   25.5619 N   0  0  0  0  0  0  0  0  0  0  0  0
    6.4517  -13.7438   26.0617 C   0  0  0  0  0  0  0  0  0  0  0  0
    6.0202  -12.4352   26.0989 C   0  0  0  0  0  0  0  0  0  0  0  0
    6.8327  -11.4961   26.6956 C   0  0  0  0  0  0  0  0  0  0  0  0
    8.0385  -11.8629   27.2363 C   0  0  0  0  0  0  0  0  0  0  0  0
    8.4553  -13.1934   27.1874 C   0  0  0  0  0  0  0  0  0  0  0  0
    7.6669  -14.1403   26.6013 C   0  0  0  0  0  0  0  0  0  0  0  0
   10.7931  -17.7841   26.1791 C   0  0  0  0  0  0  0  0  0  0  0  0
   11.5072  -17.6451   27.1991 O   0  0  0  0  0  0  0  0  0  0  0  0
   10.8247  -18.9868   25.4992 O   0  0  0  0  0  0  0  0  0  0  0  0
  1  2  1  0
  3  2  1  0
  4  3  1  0
  5  4  1  0
  5  1  1  0
  6  7  2  0
  5  6  1  1
  8  6  1  0
  9  8  1  0
 10 11  1  0
  9 10  1  6
 11 15  1  0
 12 11  2  0
 12 13  1  0
 13 14  1  0
 15 14  2  0
 16 18  1  0
 16  9  1  0
 17 16  2  0
 19 18  1  0
 19 30  1  0
 19 20  1  1
 21 22  2  0
 21 20  1  0
 23 22  1  0
 24 29  2  0
 24 23  1  0
 25 24  1  0
 26 27  1  0
 26 25  2  0
 27 28  2  0
 28 29  1  0
 29 21  1  0
 30 32  1  0
 31 30  2  0
M  END
$$$$
