PHW.pdb
     RDKit          3D

 32 35  0  0  1  0  0  0  0  0999 V2000
    9.2137  -14.2379   18.7303 N   0  0  0  0  0  0  0  0  0  0  0  0
    8.9570  -13.1878   17.7367 C   0  0  0  0  0  0  0  0  0  0  0  0
    7.6306  -12.5738   18.1059 C   0  0  0  0  0  0  0  0  0  0  0  0
    7.2107  -13.3281   19.3740 C   0  0  0  0  0  0  0  0  0  0  0  0
    8.5651  -13.7396   19.9080 C   0  0  1  0  0  0  0  0  0  0  0  0
    8.4171  -14.7682   20.9607 C   0  0  0  0  0  0  0  0  0  0  0  0
    7.7036  -14.6118   21.9810 O   0  0  0  0  0  0  0  0  0  0  0  0
    9.0881  -16.0354   20.8883 N   0  0  0  0  0  0  0  0  0  0  0  0
    8.9390  -17.0771   21.8327 C   0  0  1  0  0  0  0  0  0  0  0  0
    9.1821  -18.4617   21.4154 C   0  0  0  0  0  0  0  0  0  0  0  0
    8.5446  -18.9385   20.1944 C   0  0  0  0  0  0  0  0  0  0  0  0
    7.2911  -18.8162   19.6639 C   0  0  0  0  0  0  0  0  0  0  0  0
    7.2351  -19.4420   18.4814 N   0  0  0  0  0  0  0  0  0  0  0  0
    8.4335  -19.9647   18.2426 C   0  0  0  0  0  0  0  0  0  0  0  0
    9.2409  -19.6700   19.2695 N   0  0  0  0  0  0  0  0  0  0  0  0
    9.7253  -16.6979   23.0590 C   0  0  0  0  0  0  0  0  0  0  0  0
   10.7243  -15.9305   22.9822 O   0  0  0  0  0  0  0  0  0  0  0  0
    9.4043  -17.1670   24.3565 N   0  0  0  0  0  0  0  0  0  0  0  0
   10.0630  -16.7000   25.5663 C   0  0  1  0  0  0  0  0  0  0  0  0
    9.7903  -15.2608   25.8443 C   0  0  0  0  0  0  0  0  0  0  0  0
    8.3505  -14.9319   25.9430 C   0  0  0  0  0  0  0  0  0  0  0  0
    7.2860  -15.7675   25.6662 C   0  0  0  0  0  0  0  0  0  0  0  0
    6.1525  -15.0786   25.8848 N   0  0  0  0  0  0  0  0  0  0  0  0
    6.4053  -13.8293   26.2922 C   0  0  0  0  0  0  0  0  0  0  0  0
    5.5758  -12.7807   26.6273 C   0  0  0  0  0  0  0  0  0  0  0  0
    6.1514  -11.5905   27.0151 C   0  0  0  0  0  0  0  0  0  0  0  0
    7.5159  -11.4614   27.0637 C   0  0  0  0  0  0  0  0  0  0  0  0
    8.3364  -12.5362   26.7201 C   0  0  0  0  0  0  0  0  0  0  0  0
    7.7881  -13.7242   26.3330 C   0  0  0  0  0  0  0  0  0  0  0  0
    9.6156  -17.4874   26.7534 C   0  0  0  0  0  0  0  0  0  0  0  0
    8.6231  -18.2444   26.6461 O   0  0  0  0  0  0  0  0  0  0  0  0
   10.2661  -17.4060   27.9700 O   0  0  0  0  0  0  0  0  0  0  0  0
  1  2  1  0
  3  2  1  0
  4  3  1  0
  5  4  1  0
  5  1  1  0
  6  7  2  0
  5  6  1  1
  8  6  1  0
  9  8  1  0
 10 11  1  0
  9 10  1  6
 11 15  1  0
 12 11  2  0
 12 13  1  0
 13 14  1  0
 15 14  2  0
 16 18  1  0
 16  9  1  0
 17 16  2  0
 19 18  1  0
 19 30  1  0
 19 20  1  1
 21 22  2  0
 21 20  1  0
 23 22  1  0
 24 29  2  0
 24 23  1  0
 25 24  1  0
 26 27  1  0
 26 25  2  0
 27 28  2  0
 28 29  1  0
 29 21  1  0
 30 32  1  0
 31 30  2  0
M  END
$$$$
