TIF.pdb
     RDKit          3D

 27 27  0  0  1  0  0  0  0  0999 V2000
   11.7536  -19.8390   20.9154 C   0  0  0  0  0  0  0  0  0  0  0  0
   12.5272  -18.8661   20.0794 C   0  0  1  0  0  0  0  0  0  0  0  0
   12.8841  -19.5318   18.8907 O   0  0  0  0  0  0  0  0  0  0  0  0
   11.7250  -17.6603   19.6725 C   0  0  2  0  0  0  0  0  0  0  0  0
   12.5430  -16.8812   18.7656 N   0  0  0  0  0  0  0  0  0  0  0  0
   11.3031  -16.8197   20.7833 C   0  0  0  0  0  0  0  0  0  0  0  0
   12.0913  -16.1669   21.5161 O   0  0  0  0  0  0  0  0  0  0  0  0
    6.6640  -13.7433   20.5649 C   0  0  0  0  0  0  0  0  0  0  0  0
    8.0061  -14.3086   20.8618 C   0  0  0  0  0  0  0  0  0  0  0  0
    8.0922  -15.2783   21.9792 C   0  0  2  0  0  0  0  0  0  0  0  0
    7.6193  -14.7053   23.3020 C   0  0  0  0  0  0  0  0  0  0  0  0
    9.4248  -15.9255   22.2133 C   0  0  2  0  0  0  0  0  0  0  0  0
    9.9188  -16.6993   21.0965 N   0  0  0  0  0  0  0  0  0  0  0  0
    9.4584  -16.7352   23.4779 C   0  0  0  0  0  0  0  0  0  0  0  0
    8.9044  -17.8714   23.5294 O   0  0  0  0  0  0  0  0  0  0  0  0
   10.1022  -16.2659   24.6459 N   0  0  0  0  0  0  0  0  0  0  0  0
   10.4524  -17.1326   25.7784 C   0  0  1  0  0  0  0  0  0  0  0  0
   11.4786  -16.5078   26.6456 C   0  0  0  0  0  0  0  0  0  0  0  0
   10.9300  -15.3955   27.4220 C   0  0  0  0  0  0  0  0  0  0  0  0
   10.4131  -14.2728   26.8263 C   0  0  0  0  0  0  0  0  0  0  0  0
    9.8910  -13.2200   27.5870 C   0  0  0  0  0  0  0  0  0  0  0  0
    9.8962  -13.3122   28.9525 C   0  0  0  0  0  0  0  0  0  0  0  0
   10.4066  -14.4222   29.5711 C   0  0  0  0  0  0  0  0  0  0  0  0
   10.9222  -15.4607   28.7972 C   0  0  0  0  0  0  0  0  0  0  0  0
    9.2544  -17.5284   26.5312 C   0  0  0  0  0  0  0  0  0  0  0  0
    8.0260  -16.9981   26.1843 O   0  0  0  0  0  0  0  0  0  0  0  0
    9.3212  -18.3329   27.4756 O   0  0  0  0  0  0  0  0  0  0  0  0
  2  3  1  0
  2  1  1  1
  4  5  1  6
  4  2  1  0
  6  4  1  0
  7  6  2  0
  9  8  1  0
 10  9  1  0
 10 11  1  1
 12 10  1  0
 12 13  1  6
 13  6  1  0
 14 12  1  0
 15 14  2  0
 16 14  1  0
 17 16  1  0
 17 18  1  1
 18 19  1  0
 19 20  2  0
 20 21  1  0
 22 21  2  0
 23 22  1  0
 24 19  1  0
 24 23  2  0
 25 17  1  0
 25 26  1  0
 27 25  2  0
M  END
$$$$
