TIF.pdb
     RDKit          3D

 27 27  0  0  1  0  0  0  0  0999 V2000
    2.9537  -18.9654   21.9718 C   0  0  0  0  0  0  0  0  0  0  0  0
    4.2591  -18.2734   22.2187 C   0  0  1  0  0  0  0  0  0  0  0  0
    5.1400  -19.2294   22.7605 O   0  0  0  0  0  0  0  0  0  0  0  0
    4.9060  -17.7557   20.9631 C   0  0  2  0  0  0  0  0  0  0  0  0
    5.0439  -18.8746   20.0533 N   0  0  0  0  0  0  0  0  0  0  0  0
    6.2088  -17.1407   21.1710 C   0  0  0  0  0  0  0  0  0  0  0  0
    7.2974  -17.7725   21.1732 O   0  0  0  0  0  0  0  0  0  0  0  0
    7.2290  -12.1988   19.1062 C   0  0  0  0  0  0  0  0  0  0  0  0
    7.3892  -13.5752   19.6437 C   0  0  0  0  0  0  0  0  0  0  0  0
    7.6808  -13.6992   21.0914 C   0  0  2  0  0  0  0  0  0  0  0  0
    9.0461  -13.1580   21.4718 C   0  0  0  0  0  0  0  0  0  0  0  0
    7.5480  -15.0660   21.6945 C   0  0  2  0  0  0  0  0  0  0  0  0
    6.3041  -15.7365   21.3897 N   0  0  0  0  0  0  0  0  0  0  0  0
    7.8064  -15.0709   23.1741 C   0  0  0  0  0  0  0  0  0  0  0  0
    7.1853  -14.2770   23.9384 O   0  0  0  0  0  0  0  0  0  0  0  0
    8.7420  -15.9517   23.7639 N   0  0  0  0  0  0  0  0  0  0  0  0
    9.1185  -15.8981   25.1822 C   0  0  1  0  0  0  0  0  0  0  0  0
    7.9286  -15.7854   26.0579 C   0  0  0  0  0  0  0  0  0  0  0  0
    7.6235  -14.3920   26.3836 C   0  0  0  0  0  0  0  0  0  0  0  0
    8.5976  -13.4946   26.7418 C   0  0  0  0  0  0  0  0  0  0  0  0
    8.2853  -12.1649   27.0479 C   0  0  0  0  0  0  0  0  0  0  0  0
    6.9820  -11.7512   26.9889 C   0  0  0  0  0  0  0  0  0  0  0  0
    5.9913  -12.6276   26.6341 C   0  0  0  0  0  0  0  0  0  0  0  0
    6.3213  -13.9479   26.3327 C   0  0  0  0  0  0  0  0  0  0  0  0
    9.9707  -17.0382   25.5462 C   0  0  0  0  0  0  0  0  0  0  0  0
   10.5638  -17.0741   26.7942 O   0  0  0  0  0  0  0  0  0  0  0  0
   10.1703  -17.9746   24.7543 O   0  0  0  0  0  0  0  0  0  0  0  0
  2  3  1  0
  2  1  1  6
  4  5  1  6
  4  2  1  0
  6  4  1  0
  7  6  2  0
  9  8  1  0
 10  9  1  0
 10 11  1  6
 12 10  1  0
 12 13  1  1
 13  6  1  0
 14 12  1  0
 15 14  2  0
 16 14  1  0
 17 16  1  0
 17 18  1  1
 18 19  1  0
 19 20  2  0
 20 21  1  0
 22 21  2  0
 23 22  1  0
 24 19  1  0
 24 23  2  0
 25 17  1  0
 25 26  1  0
 27 25  2  0
M  END
$$$$
