TLI.pdb
     RDKit          3D

 24 23  0  0  1  0  0  0  0  0999 V2000
   26.3879  -18.9019  -16.0472 C   0  0  0  0  0  0  0  0  0  0  0  0
   27.0870  -20.0957  -16.6949 C   0  0  1  0  0  0  0  0  0  0  0  0
   28.0771  -19.5896  -17.5356 O   0  0  0  0  0  0  0  0  0  0  0  0
   27.8095  -20.8960  -15.6116 C   0  0  2  0  0  0  0  0  0  0  0  0
   28.5904  -21.9317  -16.2148 N   0  0  0  0  0  0  0  0  0  0  0  0
   26.9026  -21.3670  -14.5649 C   0  0  0  0  0  0  0  0  0  0  0  0
   26.1621  -22.3616  -14.7466 O   0  0  0  0  0  0  0  0  0  0  0  0
   24.0362  -20.7454   -9.6855 C   0  0  0  0  0  0  0  0  0  0  0  0
   25.4645  -21.0980   -9.7861 C   0  0  2  0  0  0  0  0  0  0  0  0
   26.1694  -20.5687   -8.5047 C   0  0  0  0  0  0  0  0  0  0  0  0
   26.2424  -20.7061  -10.9812 C   0  0  0  0  0  0  0  0  0  0  0  0
   25.7809  -21.0504  -12.3271 C   0  0  2  0  0  0  0  0  0  0  0  0
   26.8369  -20.7115  -13.3174 N   0  0  0  0  0  0  0  0  0  0  0  0
   24.5273  -20.4358  -12.7801 C   0  0  0  0  0  0  0  0  0  0  0  0
   24.3169  -19.2264  -13.0130 O   0  0  0  0  0  0  0  0  0  0  0  0
   22.6424  -20.9736  -17.3696 C   0  0  0  0  0  0  0  0  0  0  0  0
   22.9038  -20.6293  -15.9494 C   0  0  0  0  0  0  0  0  0  0  0  0
   21.8365  -20.9639  -14.9672 C   0  0  2  0  0  0  0  0  0  0  0  0
   20.5121  -20.2736  -15.3339 C   0  0  0  0  0  0  0  0  0  0  0  0
   22.1278  -20.6843  -13.5381 C   0  0  2  0  0  0  0  0  0  0  0  0
   23.3392  -21.2521  -13.0104 N   0  0  0  0  0  0  0  0  0  0  0  0
   21.0114  -21.1214  -12.6413 C   0  0  0  0  0  0  0  0  0  0  0  0
   20.2059  -20.1998  -11.9909 O   0  0  0  0  0  0  0  0  0  0  0  0
   20.7731  -22.3387  -12.4529 O   0  0  0  0  0  0  0  0  0  0  0  0
  2  1  1  1
  2  4  1  0
  3  2  1  0
  4  6  1  0
  4  5  1  6
  6  7  2  0
  9  8  1  6
  9 10  1  0
 11  9  1  0
 12 11  1  1
 13 12  1  0
 13  6  1  0
 14 15  2  0
 14 12  1  0
 17 16  1  0
 17 18  1  0
 18 20  1  0
 18 19  1  6
 20 21  1  1
 20 22  1  0
 21 14  1  0
 22 23  1  0
 24 22  2  0
M  END
$$$$
