TLI.pdb
     RDKit          3D

 24 23  0  0  1  0  0  0  0  0999 V2000
   19.6544  -15.8316  -19.8503 C   0  0  0  0  0  0  0  0  0  0  0  0
   20.1908  -14.7624  -18.9002 C   0  0  1  0  0  0  0  0  0  0  0  0
   19.0921  -14.1756  -18.2743 O   0  0  0  0  0  0  0  0  0  0  0  0
   21.0034  -15.4403  -17.7974 C   0  0  2  0  0  0  0  0  0  0  0  0
   20.2278  -16.4800  -17.1943 N   0  0  0  0  0  0  0  0  0  0  0  0
   21.5596  -14.4820  -16.8422 C   0  0  0  0  0  0  0  0  0  0  0  0
   20.9738  -14.2249  -15.7646 O   0  0  0  0  0  0  0  0  0  0  0  0
   25.6151  -14.2585  -14.3683 C   0  0  0  0  0  0  0  0  0  0  0  0
   25.6003  -13.9029  -15.7993 C   0  0  2  0  0  0  0  0  0  0  0  0
   27.0761  -13.7040  -16.2483 C   0  0  0  0  0  0  0  0  0  0  0  0
   24.7778  -12.7687  -16.2728 C   0  0  0  0  0  0  0  0  0  0  0  0
   23.3179  -12.8019  -16.1702 C   0  0  2  0  0  0  0  0  0  0  0  0
   22.7756  -13.8187  -17.1096 N   0  0  0  0  0  0  0  0  0  0  0  0
   22.6035  -11.5425  -16.4110 C   0  0  0  0  0  0  0  0  0  0  0  0
   22.3991  -10.9852  -17.5105 O   0  0  0  0  0  0  0  0  0  0  0  0
   17.6788  -10.4681  -15.9456 C   0  0  0  0  0  0  0  0  0  0  0  0
   19.1205  -10.3108  -16.2629 C   0  0  0  0  0  0  0  0  0  0  0  0
   19.9270   -9.4707  -15.3356 C   0  0  2  0  0  0  0  0  0  0  0  0
   19.4748   -8.0018  -15.3863 C   0  0  0  0  0  0  0  0  0  0  0  0
   21.4018   -9.5105  -15.5047 C   0  0  2  0  0  0  0  0  0  0  0  0
   22.0338  -10.7861  -15.3000 N   0  0  0  0  0  0  0  0  0  0  0  0
   22.0961   -8.5286  -14.6129 C   0  0  0  0  0  0  0  0  0  0  0  0
   22.8579   -8.9480  -13.5336 O   0  0  0  0  0  0  0  0  0  0  0  0
   22.0074   -7.2942  -14.8186 O   0  0  0  0  0  0  0  0  0  0  0  0
  2  1  1  6
  2  4  1  0
  3  2  1  0
  4  6  1  0
  4  5  1  1
  6  7  2  0
  9  8  1  1
  9 10  1  0
 11  9  1  0
 12 11  1  6
 13 12  1  0
 13  6  1  0
 14 15  2  0
 14 12  1  0
 17 16  1  0
 17 18  1  0
 18 20  1  0
 18 19  1  6
 20 21  1  1
 20 22  1  0
 21 14  1  0
 22 23  1  0
 24 22  2  0
M  END
$$$$
