TLI.pdb
     RDKit          3D

 24 23  0  0  1  0  0  0  0  0999 V2000
   18.9493  -13.3434  -15.7563 C   0  0  0  0  0  0  0  0  0  0  0  0
   19.2552  -13.8685  -17.1578 C   0  0  1  0  0  0  0  0  0  0  0  0
   18.8804  -15.2108  -17.1881 O   0  0  0  0  0  0  0  0  0  0  0  0
   18.3591  -13.1482  -18.1648 C   0  0  2  0  0  0  0  0  0  0  0  0
   18.5485  -13.7072  -19.4678 N   0  0  0  0  0  0  0  0  0  0  0  0
   18.5139  -11.6944  -18.1123 C   0  0  0  0  0  0  0  0  0  0  0  0
   19.4250  -11.1152  -18.7485 O   0  0  0  0  0  0  0  0  0  0  0  0
   15.1669   -6.6056  -17.1477 C   0  0  0  0  0  0  0  0  0  0  0  0
   16.4802   -7.2758  -17.1294 C   0  0  2  0  0  0  0  0  0  0  0  0
   17.3756   -6.5817  -18.1950 C   0  0  0  0  0  0  0  0  0  0  0  0
   16.5655   -8.7439  -17.2862 C   0  0  0  0  0  0  0  0  0  0  0  0
   17.8516   -9.4377  -17.1989 C   0  0  2  0  0  0  0  0  0  0  0  0
   17.6379  -10.9022  -17.3409 N   0  0  0  0  0  0  0  0  0  0  0  0
   18.6481   -9.2161  -15.9862 C   0  0  0  0  0  0  0  0  0  0  0  0
   18.4488   -9.6964  -14.8501 O   0  0  0  0  0  0  0  0  0  0  0  0
   23.5765  -10.9638  -13.9567 C   0  0  0  0  0  0  0  0  0  0  0  0
   22.7514   -9.7297  -13.9687 C   0  0  0  0  0  0  0  0  0  0  0  0
   21.7395   -9.6059  -15.0535 C   0  0  2  0  0  0  0  0  0  0  0  0
   22.4073   -9.6402  -16.4383 C   0  0  0  0  0  0  0  0  0  0  0  0
   20.8384   -8.4268  -14.9995 C   0  0  2  0  0  0  0  0  0  0  0  0
   19.8239   -8.3514  -16.0160 N   0  0  0  0  0  0  0  0  0  0  0  0
   21.5979   -7.1372  -15.0410 C   0  0  0  0  0  0  0  0  0  0  0  0
   22.3086   -6.6831  -13.9411 O   0  0  0  0  0  0  0  0  0  0  0  0
   21.6121   -6.4289  -16.0765 O   0  0  0  0  0  0  0  0  0  0  0  0
  2  1  1  1
  2  4  1  0
  3  2  1  0
  4  6  1  0
  4  5  1  6
  6  7  2  0
  9  8  1  6
  9 10  1  0
 11  9  1  0
 12 11  1  1
 13 12  1  0
 13  6  1  0
 14 15  2  0
 14 12  1  0
 17 16  1  0
 17 18  1  0
 18 20  1  0
 18 19  1  6
 20 21  1  6
 20 22  1  0
 21 14  1  0
 22 23  1  0
 24 22  2  0
M  END
$$$$
