TLI.pdb
     RDKit          3D

 24 23  0  0  1  0  0  0  0  0999 V2000
   26.4249  -25.8988  -18.5971 C   0  0  0  0  0  0  0  0  0  0  0  0
   26.1444  -24.8448  -17.5275 C   0  0  1  0  0  0  0  0  0  0  0  0
   25.6227  -25.5089  -16.4185 O   0  0  0  0  0  0  0  0  0  0  0  0
   27.4689  -24.2292  -17.0773 C   0  0  2  0  0  0  0  0  0  0  0  0
   28.3575  -25.2606  -16.6384 N   0  0  0  0  0  0  0  0  0  0  0  0
   27.2836  -23.1502  -16.1069 C   0  0  0  0  0  0  0  0  0  0  0  0
   27.7478  -23.2344  -14.9459 O   0  0  0  0  0  0  0  0  0  0  0  0
   28.7847  -18.6645  -16.1260 C   0  0  0  0  0  0  0  0  0  0  0  0
   27.5918  -18.9739  -16.9357 C   0  0  2  0  0  0  0  0  0  0  0  0
   27.1811  -17.6724  -17.6818 C   0  0  0  0  0  0  0  0  0  0  0  0
   26.4022  -19.5814  -16.3010 C   0  0  0  0  0  0  0  0  0  0  0  0
   26.5102  -20.8195  -15.5276 C   0  0  2  0  0  0  0  0  0  0  0  0
   26.5743  -21.9810  -16.4534 N   0  0  0  0  0  0  0  0  0  0  0  0
   25.4529  -21.0868  -14.5452 C   0  0  0  0  0  0  0  0  0  0  0  0
   24.4432  -21.8074  -14.6953 O   0  0  0  0  0  0  0  0  0  0  0  0
   26.5456  -20.4298   -9.0339 C   0  0  0  0  0  0  0  0  0  0  0  0
   25.9168  -21.0718  -10.2156 C   0  0  0  0  0  0  0  0  0  0  0  0
   24.7747  -20.3536  -10.8449 C   0  0  2  0  0  0  0  0  0  0  0  0
   23.4944  -20.5112  -10.0078 C   0  0  0  0  0  0  0  0  0  0  0  0
   24.4569  -20.7018  -12.2531 C   0  0  2  0  0  0  0  0  0  0  0  0
   25.5028  -20.4852  -13.2161 N   0  0  0  0  0  0  0  0  0  0  0  0
   23.2450  -19.9773  -12.7509 C   0  0  0  0  0  0  0  0  0  0  0  0
   23.3560  -18.8213  -13.5076 O   0  0  0  0  0  0  0  0  0  0  0  0
   22.0907  -20.3980  -12.4961 O   0  0  0  0  0  0  0  0  0  0  0  0
  2  1  1  6
  2  4  1  0
  3  2  1  0
  4  6  1  0
  4  5  1  1
  6  7  2  0
  9  8  1  1
  9 10  1  0
 11  9  1  0
 12 11  1  6
 13 12  1  0
 13  6  1  0
 14 15  2  0
 14 12  1  0
 17 16  1  0
 17 18  1  0
 18 20  1  0
 18 19  1  1
 20 21  1  6
 20 22  1  0
 21 14  1  0
 22 23  1  0
 24 22  2  0
M  END
$$$$
