TLI.pdb
     RDKit          3D

 24 23  0  0  1  0  0  0  0  0999 V2000
   16.8203   -7.1689  -17.4150 C   0  0  0  0  0  0  0  0  0  0  0  0
   15.8263   -8.1696  -16.8285 C   0  0  1  0  0  0  0  0  0  0  0  0
   14.8664   -8.4219  -17.8074 O   0  0  0  0  0  0  0  0  0  0  0  0
   16.5449   -9.4951  -16.5783 C   0  0  2  0  0  0  0  0  0  0  0  0
   15.6027  -10.4836  -16.1525 N   0  0  0  0  0  0  0  0  0  0  0  0
   17.6967   -9.3481  -15.6884 C   0  0  0  0  0  0  0  0  0  0  0  0
   17.5513   -9.2663  -14.4464 O   0  0  0  0  0  0  0  0  0  0  0  0
   23.0608   -9.2181  -14.0330 C   0  0  0  0  0  0  0  0  0  0  0  0
   22.2332  -10.3402  -14.5130 C   0  0  2  0  0  0  0  0  0  0  0  0
   23.1971  -11.4482  -15.0250 C   0  0  0  0  0  0  0  0  0  0  0  0
   21.1704  -10.1025  -15.5135 C   0  0  0  0  0  0  0  0  0  0  0  0
   20.1744   -9.0474  -15.3189 C   0  0  2  0  0  0  0  0  0  0  0  0
   19.0077   -9.2942  -16.2067 N   0  0  0  0  0  0  0  0  0  0  0  0
   20.6169   -7.6645  -15.5336 C   0  0  0  0  0  0  0  0  0  0  0  0
   21.0194   -7.1545  -16.6008 O   0  0  0  0  0  0  0  0  0  0  0  0
   17.6754   -3.5118  -15.3031 C   0  0  0  0  0  0  0  0  0  0  0  0
   18.8305   -4.4221  -15.5058 C   0  0  0  0  0  0  0  0  0  0  0  0
   19.9514   -4.3157  -14.5321 C   0  0  2  0  0  0  0  0  0  0  0  0
   20.6045   -2.9247  -14.5914 C   0  0  0  0  0  0  0  0  0  0  0  0
   21.0237   -5.3386  -14.6287 C   0  0  2  0  0  0  0  0  0  0  0  0
   20.6216   -6.7055  -14.4330 N   0  0  0  0  0  0  0  0  0  0  0  0
   22.1442   -5.0697  -13.6729 C   0  0  0  0  0  0  0  0  0  0  0  0
   22.1854   -5.6677  -12.4232 O   0  0  0  0  0  0  0  0  0  0  0  0
   23.0807   -4.2924  -13.9778 O   0  0  0  0  0  0  0  0  0  0  0  0
  2  1  1  6
  2  4  1  0
  3  2  1  0
  4  6  1  0
  4  5  1  1
  6  7  2  0
  9  8  1  6
  9 10  1  0
 11  9  1  0
 12 11  1  6
 13 12  1  0
 13  6  1  0
 14 15  2  0
 14 12  1  0
 17 16  1  0
 17 18  1  0
 18 20  1  0
 18 19  1  6
 20 21  1  1
 20 22  1  0
 21 14  1  0
 22 23  1  0
 24 22  2  0
M  END
$$$$
