TLI.pdb
     RDKit          3D

 24 23  0  0  1  0  0  0  0  0999 V2000
   26.7233  -18.7387  -16.2495 C   0  0  0  0  0  0  0  0  0  0  0  0
   27.3112  -19.9722  -16.9326 C   0  0  1  0  0  0  0  0  0  0  0  0
   28.3370  -19.5333  -17.7682 O   0  0  0  0  0  0  0  0  0  0  0  0
   27.9668  -20.8603  -15.8756 C   0  0  2  0  0  0  0  0  0  0  0  0
   28.6425  -21.9497  -16.5103 N   0  0  0  0  0  0  0  0  0  0  0  0
   27.0303  -21.2694  -14.8288 C   0  0  0  0  0  0  0  0  0  0  0  0
   26.2580  -22.2426  -14.9927 O   0  0  0  0  0  0  0  0  0  0  0  0
   25.8230  -19.7976   -8.8515 C   0  0  0  0  0  0  0  0  0  0  0  0
   25.4672  -20.4942  -10.1015 C   0  0  2  0  0  0  0  0  0  0  0  0
   25.1903  -21.9829   -9.7460 C   0  0  0  0  0  0  0  0  0  0  0  0
   26.3663  -20.4202  -11.2732 C   0  0  0  0  0  0  0  0  0  0  0  0
   25.9334  -20.8994  -12.5869 C   0  0  2  0  0  0  0  0  0  0  0  0
   26.9710  -20.5762  -13.6016 N   0  0  0  0  0  0  0  0  0  0  0  0
   24.6463  -20.4022  -13.0875 C   0  0  0  0  0  0  0  0  0  0  0  0
   24.3664  -19.2334  -13.4295 O   0  0  0  0  0  0  0  0  0  0  0  0
   22.5599  -21.5585  -17.5541 C   0  0  0  0  0  0  0  0  0  0  0  0
   22.8797  -21.0327  -16.2030 C   0  0  0  0  0  0  0  0  0  0  0  0
   21.8925  -21.3050  -15.1227 C   0  0  2  0  0  0  0  0  0  0  0  0
   20.5104  -20.7335  -15.4806 C   0  0  0  0  0  0  0  0  0  0  0  0
   22.2481  -20.8437  -13.7566 C   0  0  2  0  0  0  0  0  0  0  0  0
   23.5073  -21.3031  -13.2352 N   0  0  0  0  0  0  0  0  0  0  0  0
   21.1990  -21.2043  -12.7512 C   0  0  0  0  0  0  0  0  0  0  0  0
   20.2886  -20.2661  -12.2908 O   0  0  0  0  0  0  0  0  0  0  0  0
   21.1145  -22.3703  -12.2956 O   0  0  0  0  0  0  0  0  0  0  0  0
  2  1  1  1
  2  4  1  0
  3  2  1  0
  4  6  1  0
  4  5  1  6
  6  7  2  0
  9  8  1  1
  9 10  1  0
 11  9  1  0
 12 11  1  1
 13 12  1  0
 13  6  1  0
 14 15  2  0
 14 12  1  0
 17 16  1  0
 17 18  1  0
 18 20  1  0
 18 19  1  6
 20 21  1  1
 20 22  1  0
 21 14  1  0
 22 23  1  0
 24 22  2  0
M  END
$$$$
