TLI.pdb
     RDKit          3D

 24 23  0  0  1  0  0  0  0  0999 V2000
   21.3885   -9.9250  -22.0733 C   0  0  0  0  0  0  0  0  0  0  0  0
   21.2464   -9.4097  -20.6422 C   0  0  1  0  0  0  0  0  0  0  0  0
   20.0425   -8.7105  -20.5715 O   0  0  0  0  0  0  0  0  0  0  0  0
   21.1080  -10.6022  -19.6963 C   0  0  2  0  0  0  0  0  0  0  0  0
   19.9901  -11.4039  -20.0886 N   0  0  0  0  0  0  0  0  0  0  0  0
   21.0888  -10.2016  -18.2895 C   0  0  0  0  0  0  0  0  0  0  0  0
   20.0142   -9.9215  -17.7087 O   0  0  0  0  0  0  0  0  0  0  0  0
   21.9504  -12.5887  -14.5121 C   0  0  0  0  0  0  0  0  0  0  0  0
   23.0952  -12.0337  -15.2576 C   0  0  2  0  0  0  0  0  0  0  0  0
   24.3897  -12.6534  -14.6583 C   0  0  0  0  0  0  0  0  0  0  0  0
   23.2565  -10.5693  -15.3858 C   0  0  0  0  0  0  0  0  0  0  0  0
   22.2677   -9.7620  -16.1025 C   0  0  2  0  0  0  0  0  0  0  0  0
   22.2846  -10.1194  -17.5455 N   0  0  0  0  0  0  0  0  0  0  0  0
   22.3966   -8.3035  -16.0000 C   0  0  0  0  0  0  0  0  0  0  0  0
   23.1361   -7.5584  -16.6777 O   0  0  0  0  0  0  0  0  0  0  0  0
   18.7557   -4.9674  -17.1955 C   0  0  0  0  0  0  0  0  0  0  0  0
   20.0519   -5.5717  -16.7975 C   0  0  0  0  0  0  0  0  0  0  0  0
   20.4849   -5.3702  -15.3875 C   0  0  2  0  0  0  0  0  0  0  0  0
   20.7068   -3.8787  -15.0856 C   0  0  0  0  0  0  0  0  0  0  0  0
   21.6863   -6.1201  -14.9406 C   0  0  2  0  0  0  0  0  0  0  0  0
   21.6115   -7.5539  -15.0239 N   0  0  0  0  0  0  0  0  0  0  0  0
   22.0682   -5.7816  -13.5331 C   0  0  0  0  0  0  0  0  0  0  0  0
   22.8257   -4.6580  -13.2418 O   0  0  0  0  0  0  0  0  0  0  0  0
   21.7118   -6.5084  -12.5745 O   0  0  0  0  0  0  0  0  0  0  0  0
  2  1  1  6
  2  4  1  0
  3  2  1  0
  4  6  1  0
  4  5  1  6
  6  7  2  0
  9  8  1  1
  9 10  1  0
 11  9  1  0
 12 11  1  1
 13 12  1  0
 13  6  1  0
 14 15  2  0
 14 12  1  0
 17 16  1  0
 17 18  1  0
 18 20  1  0
 18 19  1  6
 20 21  1  1
 20 22  1  0
 21 14  1  0
 22 23  1  0
 24 22  2  0
M  END
$$$$
