TLI.pdb
     RDKit          3D

 24 23  0  0  1  0  0  0  0  0999 V2000
   27.4732  -19.0056  -14.0364 C   0  0  0  0  0  0  0  0  0  0  0  0
   28.3461  -20.2539  -14.1519 C   0  0  1  0  0  0  0  0  0  0  0  0
   29.5167  -19.8812  -14.8105 O   0  0  0  0  0  0  0  0  0  0  0  0
   28.7634  -20.6997  -12.7508 C   0  0  2  0  0  0  0  0  0  0  0  0
   29.7787  -21.7029  -12.8445 N   0  0  0  0  0  0  0  0  0  0  0  0
   27.6208  -21.0844  -11.9222 C   0  0  0  0  0  0  0  0  0  0  0  0
   27.0185  -22.1673  -12.1094 O   0  0  0  0  0  0  0  0  0  0  0  0
   26.2594  -21.5797   -7.1221 C   0  0  0  0  0  0  0  0  0  0  0  0
   26.6315  -20.3115   -7.7760 C   0  0  2  0  0  0  0  0  0  0  0  0
   26.7115  -19.2200   -6.6708 C   0  0  0  0  0  0  0  0  0  0  0  0
   25.8404  -19.8068   -8.9190 C   0  0  0  0  0  0  0  0  0  0  0  0
   25.8626  -20.4925  -10.2122 C   0  0  2  0  0  0  0  0  0  0  0  0
   27.1644  -20.2433  -10.8857 N   0  0  0  0  0  0  0  0  0  0  0  0
   24.7948  -20.1589  -11.1625 C   0  0  0  0  0  0  0  0  0  0  0  0
   24.7145  -19.1439  -11.8868 O   0  0  0  0  0  0  0  0  0  0  0  0
   24.1238  -22.6398  -15.4564 C   0  0  0  0  0  0  0  0  0  0  0  0
   24.0351  -21.7242  -14.2911 C   0  0  0  0  0  0  0  0  0  0  0  0
   22.7342  -21.6763  -13.5691 C   0  0  2  0  0  0  0  0  0  0  0  0
   21.5915  -21.2726  -14.5157 C   0  0  0  0  0  0  0  0  0  0  0  0
   22.6675  -20.8126  -12.3629 C   0  0  2  0  0  0  0  0  0  0  0  0
   23.6575  -21.0550  -11.3484 N   0  0  0  0  0  0  0  0  0  0  0  0
   21.3291  -20.8823  -11.6955 C   0  0  0  0  0  0  0  0  0  0  0  0
   20.3527  -19.9284  -11.9358 O   0  0  0  0  0  0  0  0  0  0  0  0
   21.0530  -21.8099  -10.8970 O   0  0  0  0  0  0  0  0  0  0  0  0
  2  1  1  1
  2  4  1  0
  3  2  1  0
  4  6  1  0
  4  5  1  6
  6  7  2  0
  9  8  1  1
  9 10  1  0
 11  9  1  0
 12 11  1  1
 13 12  1  0
 13  6  1  0
 14 15  2  0
 14 12  1  0
 17 16  1  0
 17 18  1  0
 18 20  1  0
 18 19  1  6
 20 21  1  1
 20 22  1  0
 21 14  1  0
 22 23  1  0
 24 22  2  0
M  END
$$$$
