VNK.pdb
     RDKit          3D

 25 24  0  0  1  0  0  0  0  0999 V2000
    8.6822  -12.9328   20.5487 C   0  0  0  0  0  0  0  0  0  0  0  0
    7.8461  -13.6262   19.5105 C   0  0  1  0  0  0  0  0  0  0  0  0
    8.3046  -13.2515   18.1350 C   0  0  0  0  0  0  0  0  0  0  0  0
    7.9098  -15.1163   19.7646 C   0  0  2  0  0  0  0  0  0  0  0  0
    7.3189  -15.3473   21.0695 N   0  0  0  0  0  0  0  0  0  0  0  0
    9.3052  -15.6027   19.7751 C   0  0  0  0  0  0  0  0  0  0  0  0
    9.7305  -16.3008   18.8389 O   0  0  0  0  0  0  0  0  0  0  0  0
   12.7253  -13.5462   18.5540 N   0  0  0  0  0  0  0  0  0  0  0  0
   12.9749  -14.7215   19.3283 C   0  0  0  0  0  0  0  0  0  0  0  0
   13.5375  -15.6686   18.7280 O   0  0  0  0  0  0  0  0  0  0  0  0
   12.5876  -14.7929   20.7391 C   0  0  0  0  0  0  0  0  0  0  0  0
   11.5063  -15.7951   20.9798 C   0  0  2  0  0  0  0  0  0  0  0  0
   10.1760  -15.2786   20.8542 N   0  0  0  0  0  0  0  0  0  0  0  0
   11.6734  -16.2915   22.3917 C   0  0  0  0  0  0  0  0  0  0  0  0
   11.4217  -15.5413   23.3844 O   0  0  0  0  0  0  0  0  0  0  0  0
   12.1158  -17.6084   22.6785 N   0  0  0  0  0  0  0  0  0  0  0  0
   12.1965  -18.0982   24.0665 C   0  0  1  0  0  0  0  0  0  0  0  0
   11.5119  -19.4321   24.0760 C   0  0  0  0  0  0  0  0  0  0  0  0
   11.5291  -20.1376   25.3910 C   0  0  0  0  0  0  0  0  0  0  0  0
   10.7202  -21.4082   25.2813 C   0  0  0  0  0  0  0  0  0  0  0  0
   10.6612  -21.9996   26.6776 C   0  0  0  0  0  0  0  0  0  0  0  0
    9.6901  -23.0764   26.6964 N   0  0  0  0  0  0  0  0  0  0  0  0
   13.6406  -18.3022   24.3475 C   0  0  0  0  0  0  0  0  0  0  0  0
   14.1765  -18.2495   25.6440 O   0  0  0  0  0  0  0  0  0  0  0  0
   14.4871  -18.5379   23.4350 O   0  0  0  0  0  0  0  0  0  0  0  0
  2  1  1  1
  2  4  1  0
  2  3  1  0
  4  5  1  1
  4  6  1  0
  6  7  2  0
  9  8  1  0
 10  9  2  0
 12 11  1  1
 11  9  1  0
 13  6  1  0
 13 12  1  0
 14 12  1  0
 14 15  2  0
 16 14  1  0
 17 23  1  0
 17 16  1  0
 17 18  1  6
 19 18  1  0
 20 19  1  0
 21 20  1  0
 21 22  1  0
 23 24  1  0
 25 23  2  0
M  END
$$$$
