VNK.pdb
     RDKit          3D

 25 24  0  0  1  0  0  0  0  0999 V2000
    5.7470  -11.2168   26.8757 C   0  0  0  0  0  0  0  0  0  0  0  0
    5.9221  -12.2753   25.8237 C   0  0  1  0  0  0  0  0  0  0  0  0
    5.6504  -11.7102   24.4638 C   0  0  0  0  0  0  0  0  0  0  0  0
    7.3158  -12.8497   25.9527 C   0  0  2  0  0  0  0  0  0  0  0  0
    8.2428  -11.7902   25.6015 N   0  0  0  0  0  0  0  0  0  0  0  0
    7.5168  -13.9894   25.0337 C   0  0  0  0  0  0  0  0  0  0  0  0
    6.9829  -15.0860   25.2723 O   0  0  0  0  0  0  0  0  0  0  0  0
    7.5926  -12.9057   20.1903 N   0  0  0  0  0  0  0  0  0  0  0  0
    7.7191  -14.1720   20.8409 C   0  0  0  0  0  0  0  0  0  0  0  0
    6.7376  -14.9464   20.7366 O   0  0  0  0  0  0  0  0  0  0  0  0
    8.9334  -14.5232   21.5808 C   0  0  0  0  0  0  0  0  0  0  0  0
    8.6418  -14.9298   22.9884 C   0  0  2  0  0  0  0  0  0  0  0  0
    8.3218  -13.8452   23.8680 N   0  0  0  0  0  0  0  0  0  0  0  0
    9.8824  -15.5988   23.5187 C   0  0  0  0  0  0  0  0  0  0  0  0
   10.9331  -14.9305   23.7655 O   0  0  0  0  0  0  0  0  0  0  0  0
    9.9369  -16.9945   23.7658 N   0  0  0  0  0  0  0  0  0  0  0  0
   11.1460  -17.6201   24.3314 C   0  0  1  0  0  0  0  0  0  0  0  0
   10.6622  -18.6436   25.3145 C   0  0  0  0  0  0  0  0  0  0  0  0
   11.7278  -19.5182   25.8863 C   0  0  0  0  0  0  0  0  0  0  0  0
   11.0864  -20.5826   26.7444 C   0  0  0  0  0  0  0  0  0  0  0  0
   12.2163  -21.4544   27.2603 C   0  0  0  0  0  0  0  0  0  0  0  0
   11.6575  -22.5521   28.0257 N   0  0  0  0  0  0  0  0  0  0  0  0
   11.8126  -18.3206   23.2040 C   0  0  0  0  0  0  0  0  0  0  0  0
   13.1876  -18.6032   23.1925 O   0  0  0  0  0  0  0  0  0  0  0  0
   11.1842  -18.7107   22.1755 O   0  0  0  0  0  0  0  0  0  0  0  0
  2  1  1  1
  2  4  1  0
  2  3  1  0
  4  5  1  6
  4  6  1  0
  6  7  2  0
  9  8  1  0
 10  9  2  0
 12 11  1  6
 11  9  1  0
 13  6  1  0
 13 12  1  0
 14 12  1  0
 14 15  2  0
 16 14  1  0
 17 23  1  0
 17 16  1  0
 17 18  1  1
 19 18  1  0
 20 19  1  0
 21 20  1  0
 21 22  1  0
 23 24  1  0
 25 23  2  0
M  END
$$$$
