VNK.pdb
     RDKit          3D

 25 24  0  0  1  0  0  0  0  0999 V2000
    7.2782  -13.8286   19.9818 C   0  0  0  0  0  0  0  0  0  0  0  0
    8.2366  -13.1007   19.0822 C   0  0  1  0  0  0  0  0  0  0  0  0
    9.1128  -12.1872   19.8824 C   0  0  0  0  0  0  0  0  0  0  0  0
    9.0222  -14.1255   18.2938 C   0  0  2  0  0  0  0  0  0  0  0  0
    8.0596  -14.9045   17.5377 N   0  0  0  0  0  0  0  0  0  0  0  0
    9.7780  -15.0290   19.1861 C   0  0  0  0  0  0  0  0  0  0  0  0
    9.2555  -16.0774   19.6017 O   0  0  0  0  0  0  0  0  0  0  0  0
   14.5777  -13.9793   18.7268 N   0  0  0  0  0  0  0  0  0  0  0  0
   14.0616  -15.1623   19.3411 C   0  0  0  0  0  0  0  0  0  0  0  0
   14.2863  -16.2397   18.7389 O   0  0  0  0  0  0  0  0  0  0  0  0
   13.3166  -15.0960   20.6005 C   0  0  0  0  0  0  0  0  0  0  0  0
   11.8980  -15.5368   20.4436 C   0  0  2  0  0  0  0  0  0  0  0  0
   11.1091  -14.7106   19.5790 N   0  0  0  0  0  0  0  0  0  0  0  0
   11.2713  -15.4967   21.8124 C   0  0  0  0  0  0  0  0  0  0  0  0
   11.1027  -14.3973   22.4243 O   0  0  0  0  0  0  0  0  0  0  0  0
   10.8431  -16.6738   22.4782 N   0  0  0  0  0  0  0  0  0  0  0  0
   10.1961  -16.6067   23.8010 C   0  0  1  0  0  0  0  0  0  0  0  0
    8.9989  -17.5061   23.7231 C   0  0  0  0  0  0  0  0  0  0  0  0
    7.9610  -17.0863   22.7362 C   0  0  0  0  0  0  0  0  0  0  0  0
    6.9374  -18.1879   22.5962 C   0  0  0  0  0  0  0  0  0  0  0  0
    5.9097  -17.6921   21.5958 C   0  0  0  0  0  0  0  0  0  0  0  0
    4.9279  -18.7346   21.3676 N   0  0  0  0  0  0  0  0  0  0  0  0
   11.1665  -17.1880   24.7636 C   0  0  0  0  0  0  0  0  0  0  0  0
   11.0367  -17.0421   26.1538 O   0  0  0  0  0  0  0  0  0  0  0  0
   12.1779  -17.8554   24.3944 O   0  0  0  0  0  0  0  0  0  0  0  0
  2  1  1  1
  2  4  1  0
  2  3  1  0
  4  5  1  1
  4  6  1  0
  6  7  2  0
  9  8  1  0
 10  9  2  0
 12 11  1  1
 11  9  1  0
 13  6  1  0
 13 12  1  0
 14 12  1  0
 14 15  2  0
 16 14  1  0
 17 23  1  0
 17 16  1  0
 17 18  1  6
 19 18  1  0
 20 19  1  0
 21 20  1  0
 21 22  1  0
 23 24  1  0
 25 23  2  0
M  END
$$$$
