VNK.pdb
     RDKit          3D

 25 24  0  0  1  0  0  0  0  0999 V2000
    8.5197  -12.6496   18.3361 C   0  0  0  0  0  0  0  0  0  0  0  0
    8.6926  -13.4687   19.5838 C   0  0  1  0  0  0  0  0  0  0  0  0
    7.6022  -13.1641   20.5640 C   0  0  0  0  0  0  0  0  0  0  0  0
    8.7387  -14.9294   19.1925 C   0  0  2  0  0  0  0  0  0  0  0  0
    7.4672  -15.2384   18.5655 N   0  0  0  0  0  0  0  0  0  0  0  0
    8.9166  -15.7991   20.3740 C   0  0  0  0  0  0  0  0  0  0  0  0
    7.9253  -16.2308   20.9869 O   0  0  0  0  0  0  0  0  0  0  0  0
   12.7362  -18.9719   19.9917 N   0  0  0  0  0  0  0  0  0  0  0  0
   11.7774  -18.8503   21.0448 C   0  0  0  0  0  0  0  0  0  0  0  0
   10.9472  -19.7853   21.1458 O   0  0  0  0  0  0  0  0  0  0  0  0
   11.7833  -17.6921   21.9416 C   0  0  0  0  0  0  0  0  0  0  0  0
   10.4679  -16.9845   21.9620 C   0  0  2  0  0  0  0  0  0  0  0  0
   10.2213  -16.1517   20.8227 N   0  0  0  0  0  0  0  0  0  0  0  0
   10.4615  -16.1035   23.1833 C   0  0  0  0  0  0  0  0  0  0  0  0
   11.3167  -15.1764   23.3273 O   0  0  0  0  0  0  0  0  0  0  0  0
    9.5092  -16.2650   24.2221 N   0  0  0  0  0  0  0  0  0  0  0  0
    9.4549  -15.3256   25.3568 C   0  0  1  0  0  0  0  0  0  0  0  0
    8.1151  -14.6570   25.2778 C   0  0  0  0  0  0  0  0  0  0  0  0
    7.8998  -13.5626   26.2695 C   0  0  0  0  0  0  0  0  0  0  0  0
    6.5192  -12.9826   26.0740 C   0  0  0  0  0  0  0  0  0  0  0  0
    6.3484  -11.9165   27.1404 C   0  0  0  0  0  0  0  0  0  0  0  0
    5.0129  -11.3594   27.0450 N   0  0  0  0  0  0  0  0  0  0  0  0
    9.4987  -16.1604   26.5845 C   0  0  0  0  0  0  0  0  0  0  0  0
    9.8891  -15.6529   27.8340 O   0  0  0  0  0  0  0  0  0  0  0  0
    9.1865  -17.3881   26.5869 O   0  0  0  0  0  0  0  0  0  0  0  0
  2  1  1  6
  2  4  1  0
  2  3  1  0
  4  5  1  1
  4  6  1  0
  6  7  2  0
  9  8  1  0
 10  9  2  0
 12 11  1  6
 11  9  1  0
 13  6  1  0
 13 12  1  0
 14 12  1  0
 14 15  2  0
 16 14  1  0
 17 23  1  0
 17 16  1  0
 17 18  1  6
 19 18  1  0
 20 19  1  0
 21 20  1  0
 21 22  1  0
 23 24  1  0
 25 23  2  0
M  END
$$$$
