VNK.pdb
     RDKit          3D

 25 24  0  0  1  0  0  0  0  0999 V2000
    9.0196  -12.3459   17.9370 C   0  0  0  0  0  0  0  0  0  0  0  0
    8.9014  -13.2544   19.1279 C   0  0  1  0  0  0  0  0  0  0  0  0
    7.6415  -12.9640   19.8834 C   0  0  0  0  0  0  0  0  0  0  0  0
    8.9792  -14.6861   18.6450 C   0  0  2  0  0  0  0  0  0  0  0  0
    7.8370  -14.9009   17.7764 N   0  0  0  0  0  0  0  0  0  0  0  0
    8.9133  -15.6399   19.7718 C   0  0  0  0  0  0  0  0  0  0  0  0
    7.8397  -16.1981   20.0557 O   0  0  0  0  0  0  0  0  0  0  0  0
   10.6063  -19.9632   22.7695 N   0  0  0  0  0  0  0  0  0  0  0  0
   11.2321  -18.6789   22.8154 C   0  0  0  0  0  0  0  0  0  0  0  0
   11.7641  -18.3631   23.9067 O   0  0  0  0  0  0  0  0  0  0  0  0
   11.2392  -17.7999   21.6438 C   0  0  0  0  0  0  0  0  0  0  0  0
   10.0860  -16.8503   21.6407 C   0  0  2  0  0  0  0  0  0  0  0  0
   10.0747  -15.9299   20.5429 N   0  0  0  0  0  0  0  0  0  0  0  0
   10.1748  -16.0468   22.9112 C   0  0  0  0  0  0  0  0  0  0  0  0
   11.1162  -15.2157   23.0967 O   0  0  0  0  0  0  0  0  0  0  0  0
    9.2204  -16.1781   23.9523 N   0  0  0  0  0  0  0  0  0  0  0  0
    9.2433  -15.2821   25.1226 C   0  0  1  0  0  0  0  0  0  0  0  0
    7.9238  -14.5700   25.1256 C   0  0  0  0  0  0  0  0  0  0  0  0
    7.7380  -13.5966   26.2415 C   0  0  0  0  0  0  0  0  0  0  0  0
    6.3480  -13.0114   26.1611 C   0  0  0  0  0  0  0  0  0  0  0  0
    6.2250  -12.0404   27.3208 C   0  0  0  0  0  0  0  0  0  0  0  0
    4.9556  -11.3457   27.2256 N   0  0  0  0  0  0  0  0  0  0  0  0
    9.3107  -16.1647   26.3153 C   0  0  0  0  0  0  0  0  0  0  0  0
    9.7613  -15.7163   27.5670 O   0  0  0  0  0  0  0  0  0  0  0  0
    8.9657  -17.3832   26.2833 O   0  0  0  0  0  0  0  0  0  0  0  0
  2  1  1  6
  2  4  1  0
  2  3  1  0
  4  5  1  6
  4  6  1  0
  6  7  2  0
  9  8  1  0
 10  9  2  0
 12 11  1  6
 11  9  1  0
 13  6  1  0
 13 12  1  0
 14 12  1  0
 14 15  2  0
 16 14  1  0
 17 23  1  0
 17 16  1  0
 17 18  1  1
 19 18  1  0
 20 19  1  0
 21 20  1  0
 21 22  1  0
 23 24  1  0
 25 23  2  0
M  END
$$$$
