VNK.pdb
     RDKit          3D

 25 24  0  0  1  0  0  0  0  0999 V2000
    8.0278  -12.1529   18.3338 C   0  0  0  0  0  0  0  0  0  0  0  0
    8.0131  -13.4986   19.0021 C   0  0  1  0  0  0  0  0  0  0  0  0
    8.1907  -14.5869   17.9889 C   0  0  0  0  0  0  0  0  0  0  0  0
    9.0836  -13.5117   20.0711 C   0  0  2  0  0  0  0  0  0  0  0  0
   10.3624  -13.4493   19.3882 N   0  0  0  0  0  0  0  0  0  0  0  0
    9.0275  -14.7500   20.8756 C   0  0  0  0  0  0  0  0  0  0  0  0
    7.9764  -15.0706   21.4563 O   0  0  0  0  0  0  0  0  0  0  0  0
    9.9115  -19.3876   22.4470 N   0  0  0  0  0  0  0  0  0  0  0  0
   11.2118  -18.9487   22.0476 C   0  0  0  0  0  0  0  0  0  0  0  0
   12.0957  -19.8360   21.9754 O   0  0  0  0  0  0  0  0  0  0  0  0
   11.4735  -17.5396   21.7451 C   0  0  0  0  0  0  0  0  0  0  0  0
   10.2557  -16.6897   21.9064 C   0  0  2  0  0  0  0  0  0  0  0  0
   10.1729  -15.5876   20.9948 N   0  0  0  0  0  0  0  0  0  0  0  0
   10.2941  -16.1271   23.3027 C   0  0  0  0  0  0  0  0  0  0  0  0
   11.1873  -15.2945   23.6497 O   0  0  0  0  0  0  0  0  0  0  0  0
    9.3435  -16.4964   24.2887 N   0  0  0  0  0  0  0  0  0  0  0  0
    9.4351  -15.9778   25.6655 C   0  0  1  0  0  0  0  0  0  0  0  0
    8.1037  -15.3560   25.9639 C   0  0  0  0  0  0  0  0  0  0  0  0
    8.1570  -13.9192   26.3639 C   0  0  0  0  0  0  0  0  0  0  0  0
    6.7783  -13.4728   26.7892 C   0  0  0  0  0  0  0  0  0  0  0  0
    6.8940  -12.0002   27.1369 C   0  0  0  0  0  0  0  0  0  0  0  0
    5.6068  -11.5193   27.6005 N   0  0  0  0  0  0  0  0  0  0  0  0
    9.6134  -17.1642   26.5411 C   0  0  0  0  0  0  0  0  0  0  0  0
   10.5041  -17.1799   27.6262 O   0  0  0  0  0  0  0  0  0  0  0  0
    8.9730  -18.2433   26.3674 O   0  0  0  0  0  0  0  0  0  0  0  0
  2  1  1  6
  2  4  1  0
  2  3  1  0
  4  5  1  6
  4  6  1  0
  6  7  2  0
  9  8  1  0
 10  9  2  0
 12 11  1  6
 11  9  1  0
 13  6  1  0
 13 12  1  0
 14 12  1  0
 14 15  2  0
 16 14  1  0
 17 23  1  0
 17 16  1  0
 17 18  1  1
 19 18  1  0
 20 19  1  0
 21 20  1  0
 21 22  1  0
 23 24  1  0
 25 23  2  0
M  END
$$$$
