VNK.pdb
     RDKit          3D

 25 24  0  0  1  0  0  0  0  0999 V2000
    9.6662  -18.9842   15.3546 C   0  0  0  0  0  0  0  0  0  0  0  0
   10.0533  -17.7564   16.1296 C   0  0  1  0  0  0  0  0  0  0  0  0
    9.2510  -16.5768   15.6743 C   0  0  0  0  0  0  0  0  0  0  0  0
    9.8813  -18.0493   17.6039 C   0  0  2  0  0  0  0  0  0  0  0  0
    8.5315  -18.5520   17.7793 N   0  0  0  0  0  0  0  0  0  0  0  0
   10.0502  -16.8288   18.4197 C   0  0  0  0  0  0  0  0  0  0  0  0
   11.1279  -16.2100   18.4024 O   0  0  0  0  0  0  0  0  0  0  0  0
    7.4753  -12.1827   19.1569 N   0  0  0  0  0  0  0  0  0  0  0  0
    7.5728  -13.6062   19.0723 C   0  0  0  0  0  0  0  0  0  0  0  0
    7.4027  -14.1042   17.9334 O   0  0  0  0  0  0  0  0  0  0  0  0
    7.8557  -14.4158   20.2597 C   0  0  0  0  0  0  0  0  0  0  0  0
    9.1036  -15.2234   20.1108 C   0  0  2  0  0  0  0  0  0  0  0  0
    8.9841  -16.3489   19.2326 N   0  0  0  0  0  0  0  0  0  0  0  0
    9.4552  -15.7453   21.4789 C   0  0  0  0  0  0  0  0  0  0  0  0
    8.5514  -16.0469   22.3178 O   0  0  0  0  0  0  0  0  0  0  0  0
   10.8002  -15.9237   21.8930 N   0  0  0  0  0  0  0  0  0  0  0  0
   11.1244  -16.6611   23.1275 C   0  0  1  0  0  0  0  0  0  0  0  0
   11.2769  -18.0973   22.7248 C   0  0  0  0  0  0  0  0  0  0  0  0
   10.6818  -19.0826   23.6747 C   0  0  0  0  0  0  0  0  0  0  0  0
   10.9480  -20.4804   23.1687 C   0  0  0  0  0  0  0  0  0  0  0  0
   10.2457  -21.4235   24.1280 C   0  0  0  0  0  0  0  0  0  0  0  0
   10.5335  -22.7920   23.7443 N   0  0  0  0  0  0  0  0  0  0  0  0
   12.4446  -16.1501   23.5773 C   0  0  0  0  0  0  0  0  0  0  0  0
   12.9090  -16.3019   24.8934 O   0  0  0  0  0  0  0  0  0  0  0  0
   13.2413  -15.5419   22.8025 O   0  0  0  0  0  0  0  0  0  0  0  0
  2  1  1  6
  2  4  1  0
  2  3  1  0
  4  5  1  6
  4  6  1  0
  6  7  2  0
  9  8  1  0
 10  9  2  0
 12 11  1  1
 11  9  1  0
 13  6  1  0
 13 12  1  0
 14 12  1  0
 14 15  2  0
 16 14  1  0
 17 23  1  0
 17 16  1  0
 17 18  1  6
 19 18  1  0
 20 19  1  0
 21 20  1  0
 21 22  1  0
 23 24  1  0
 25 23  2  0
M  END
$$$$
