VNK.pdb
     RDKit          3D

 25 24  0  0  1  0  0  0  0  0999 V2000
    8.1014  -16.0418   18.7177 C   0  0  0  0  0  0  0  0  0  0  0  0
    8.3964  -14.6311   18.2929 C   0  0  1  0  0  0  0  0  0  0  0  0
    7.8520  -14.3738   16.9218 C   0  0  0  0  0  0  0  0  0  0  0  0
    7.8305  -13.6913   19.3348 C   0  0  2  0  0  0  0  0  0  0  0  0
    8.2623  -12.3535   18.9751 N   0  0  0  0  0  0  0  0  0  0  0  0
    8.3376  -14.0140   20.6848 C   0  0  0  0  0  0  0  0  0  0  0  0
    9.4964  -13.7017   21.0080 O   0  0  0  0  0  0  0  0  0  0  0  0
    8.7263  -15.7936   25.4977 N   0  0  0  0  0  0  0  0  0  0  0  0
    7.3266  -15.7846   25.2080 C   0  0  0  0  0  0  0  0  0  0  0  0
    6.5684  -16.1508   26.1380 O   0  0  0  0  0  0  0  0  0  0  0  0
    6.8297  -15.3682   23.8946 C   0  0  0  0  0  0  0  0  0  0  0  0
    7.9374  -15.0404   22.9475 C   0  0  2  0  0  0  0  0  0  0  0  0
    7.5077  -14.6844   21.6280 N   0  0  0  0  0  0  0  0  0  0  0  0
    8.7965  -16.2718   22.8327 C   0  0  0  0  0  0  0  0  0  0  0  0
    8.3220  -17.3633   22.3910 O   0  0  0  0  0  0  0  0  0  0  0  0
   10.1642  -16.2723   23.2088 N   0  0  0  0  0  0  0  0  0  0  0  0
   10.9922  -17.4834   23.0646 C   0  0  1  0  0  0  0  0  0  0  0  0
   12.2035  -17.0673   22.2850 C   0  0  0  0  0  0  0  0  0  0  0  0
   13.2406  -18.1281   22.1221 C   0  0  0  0  0  0  0  0  0  0  0  0
   14.4342  -17.5466   21.4025 C   0  0  0  0  0  0  0  0  0  0  0  0
   15.3903  -18.6996   21.1590 C   0  0  0  0  0  0  0  0  0  0  0  0
   16.6017  -18.1903   20.5458 N   0  0  0  0  0  0  0  0  0  0  0  0
   11.4156  -17.8582   24.4381 C   0  0  0  0  0  0  0  0  0  0  0  0
   11.9450  -19.1201   24.7514 O   0  0  0  0  0  0  0  0  0  0  0  0
   11.3273  -17.0634   25.4205 O   0  0  0  0  0  0  0  0  0  0  0  0
  2  1  1  1
  2  4  1  0
  2  3  1  0
  4  5  1  6
  4  6  1  0
  6  7  2  0
  9  8  1  0
 10  9  2  0
 12 11  1  1
 11  9  1  0
 13  6  1  0
 13 12  1  0
 14 12  1  0
 14 15  2  0
 16 14  1  0
 17 23  1  0
 17 16  1  0
 17 18  1  6
 19 18  1  0
 20 19  1  0
 21 20  1  0
 21 22  1  0
 23 24  1  0
 25 23  2  0
M  END
$$$$
