MYA.pdb
     RDKit          3D

 26 26  0  0  1  0  0  0  0  0999 V2000
    8.0189  -11.5265   19.2148 C   0  0  0  0  0  0  0  0  0  0  0  0
    6.7789  -12.8237   19.1503 S   0  0  0  0  0  0  0  0  0  0  0  0
    7.3407  -14.3535   19.9301 C   0  0  0  0  0  0  0  0  0  0  0  0
    8.8497  -14.4314   20.0142 C   0  0  0  0  0  0  0  0  0  0  0  0
    9.1937  -15.7876   20.5876 C   0  0  2  0  0  0  0  0  0  0  0  0
    7.9468  -16.4802   20.8222 N   0  0  0  0  0  0  0  0  0  0  0  0
    9.9274  -15.6885   21.8634 C   0  0  0  0  0  0  0  0  0  0  0  0
   11.1693  -15.5957   21.9704 O   0  0  0  0  0  0  0  0  0  0  0  0
   10.8579  -15.0591   30.6016 O   0  0  0  0  0  0  0  0  0  0  0  0
   10.3293  -15.0926   29.3179 C   0  0  0  0  0  0  0  0  0  0  0  0
    9.7448  -16.2478   28.8550 C   0  0  0  0  0  0  0  0  0  0  0  0
    9.2145  -16.2757   27.5626 C   0  0  0  0  0  0  0  0  0  0  0  0
    9.2737  -15.1650   26.7596 C   0  0  0  0  0  0  0  0  0  0  0  0
    8.7145  -15.2084   25.4084 C   0  0  0  0  0  0  0  0  0  0  0  0
    9.7281  -15.6785   24.3615 C   0  0  2  0  0  0  0  0  0  0  0  0
    9.1283  -15.7023   23.0613 N   0  0  0  0  0  0  0  0  0  0  0  0
   10.0987  -17.0565   24.7469 C   0  0  0  0  0  0  0  0  0  0  0  0
    9.2365  -17.9564   24.8030 O   0  0  0  0  0  0  0  0  0  0  0  0
    9.8615  -14.0133   27.2335 C   0  0  0  0  0  0  0  0  0  0  0  0
   10.3991  -13.9611   28.5232 C   0  0  0  0  0  0  0  0  0  0  0  0
   13.0037  -19.1570   24.5982 C   0  0  0  0  0  0  0  0  0  0  0  0
   11.7809  -18.7343   25.3907 C   0  0  2  0  0  0  0  0  0  0  0  0
   11.4405  -17.3707   25.0574 N   0  0  0  0  0  0  0  0  0  0  0  0
   12.0202  -18.8702   26.8480 C   0  0  0  0  0  0  0  0  0  0  0  0
   12.0160  -17.8698   27.6051 O   0  0  0  0  0  0  0  0  0  0  0  0
   12.2558  -20.1138   27.4131 O   0  0  0  0  0  0  0  0  0  0  0  0
  2  1  1  0
  3  2  1  0
  4  5  1  0
  4  3  1  0
  5  6  1  1
  5  7  1  0
  7  8  2  0
  9 10  1  0
 10 20  2  0
 10 11  1  0
 11 12  2  0
 12 13  1  0
 13 14  1  0
 15 14  1  1
 15 17  1  0
 16  7  1  0
 16 15  1  0
 17 18  2  0
 19 13  2  0
 20 19  1  0
 22 21  1  6
 22 24  1  0
 23 22  1  0
 23 17  1  0
 24 26  1  0
 25 24  2  0
M  END
$$$$
