MYA.pdb
     RDKit          3D

 26 26  0  0  1  0  0  0  0  0999 V2000
    8.3120  -11.6278   19.4292 C   0  0  0  0  0  0  0  0  0  0  0  0
    7.5043  -13.0346   18.6590 S   0  0  0  0  0  0  0  0  0  0  0  0
    7.9243  -14.5964   19.4642 C   0  0  0  0  0  0  0  0  0  0  0  0
    8.5128  -14.3884   20.8428 C   0  0  0  0  0  0  0  0  0  0  0  0
    8.8637  -15.7547   21.3874 C   0  0  2  0  0  0  0  0  0  0  0  0
    7.6421  -16.5269   21.4211 N   0  0  0  0  0  0  0  0  0  0  0  0
    9.4204  -15.6897   22.7518 C   0  0  0  0  0  0  0  0  0  0  0  0
   10.4899  -15.1226   23.0630 O   0  0  0  0  0  0  0  0  0  0  0  0
    6.2428  -10.7590   26.5854 O   0  0  0  0  0  0  0  0  0  0  0  0
    6.6415  -12.0833   26.4598 C   0  0  0  0  0  0  0  0  0  0  0  0
    5.8135  -12.9844   25.8330 C   0  0  0  0  0  0  0  0  0  0  0  0
    6.2200  -14.3155   25.7094 C   0  0  0  0  0  0  0  0  0  0  0  0
    7.4314  -14.7246   26.2063 C   0  0  0  0  0  0  0  0  0  0  0  0
    7.8440  -16.1215   26.0700 C   0  0  0  0  0  0  0  0  0  0  0  0
    9.0611  -16.2944   25.1571 C   0  0  2  0  0  0  0  0  0  0  0  0
    8.6539  -16.3370   23.7848 N   0  0  0  0  0  0  0  0  0  0  0  0
    9.6600  -17.5953   25.5230 C   0  0  0  0  0  0  0  0  0  0  0  0
    9.0123  -18.6538   25.3951 O   0  0  0  0  0  0  0  0  0  0  0  0
    8.2527  -13.8136   26.8324 C   0  0  0  0  0  0  0  0  0  0  0  0
    7.8679  -12.4762   26.9681 C   0  0  0  0  0  0  0  0  0  0  0  0
   13.0304  -18.9338   25.9963 C   0  0  0  0  0  0  0  0  0  0  0  0
   11.5522  -18.9422   26.3383 C   0  0  2  0  0  0  0  0  0  0  0  0
   10.9795  -17.6540   26.0242 N   0  0  0  0  0  0  0  0  0  0  0  0
   11.3405  -19.2717   27.7686 C   0  0  0  0  0  0  0  0  0  0  0  0
   11.7088  -20.3723   28.2452 O   0  0  0  0  0  0  0  0  0  0  0  0
   10.7266  -18.3660   28.6198 O   0  0  0  0  0  0  0  0  0  0  0  0
  2  1  1  0
  3  2  1  0
  4  5  1  0
  4  3  1  0
  5  6  1  1
  5  7  1  0
  7  8  2  0
  9 10  1  0
 10 20  2  0
 10 11  1  0
 11 12  2  0
 12 13  1  0
 13 14  1  0
 15 14  1  1
 15 17  1  0
 16  7  1  0
 16 15  1  0
 17 18  2  0
 19 13  2  0
 20 19  1  0
 22 21  1  1
 22 24  1  0
 23 22  1  0
 23 17  1  0
 24 26  1  0
 25 24  2  0
M  END
$$$$
