MYA.pdb
     RDKit          3D

 26 26  0  0  1  0  0  0  0  0999 V2000
    7.3964  -11.4294   19.4488 C   0  0  0  0  0  0  0  0  0  0  0  0
    7.0757  -12.8195   18.3582 S   0  0  0  0  0  0  0  0  0  0  0  0
    7.5356  -14.4001   19.1027 C   0  0  0  0  0  0  0  0  0  0  0  0
    8.4453  -14.2249   20.2993 C   0  0  0  0  0  0  0  0  0  0  0  0
    8.6957  -15.6015   20.8729 C   0  0  2  0  0  0  0  0  0  0  0  0
    7.4067  -16.1675   21.2013 N   0  0  0  0  0  0  0  0  0  0  0  0
    9.5195  -15.5593   22.0958 C   0  0  0  0  0  0  0  0  0  0  0  0
   10.7581  -15.3928   22.1198 O   0  0  0  0  0  0  0  0  0  0  0  0
   11.0982  -15.2110   30.7456 O   0  0  0  0  0  0  0  0  0  0  0  0
   10.4775  -15.2205   29.5034 C   0  0  0  0  0  0  0  0  0  0  0  0
    9.8360  -16.3585   29.0745 C   0  0  0  0  0  0  0  0  0  0  0  0
    9.2130  -16.3622   27.8238 C   0  0  0  0  0  0  0  0  0  0  0  0
    9.2381  -15.2451   27.0280 C   0  0  0  0  0  0  0  0  0  0  0  0
    8.5817  -15.2632   25.7207 C   0  0  0  0  0  0  0  0  0  0  0  0
    9.5116  -15.7270   24.5961 C   0  0  2  0  0  0  0  0  0  0  0  0
    8.8188  -15.7253   23.3427 N   0  0  0  0  0  0  0  0  0  0  0  0
    9.8943  -17.1143   24.9336 C   0  0  0  0  0  0  0  0  0  0  0  0
    9.0346  -18.0164   24.9925 O   0  0  0  0  0  0  0  0  0  0  0  0
    9.8836  -14.1108   27.4677 C   0  0  0  0  0  0  0  0  0  0  0  0
   10.5142  -14.0828   28.7154 C   0  0  0  0  0  0  0  0  0  0  0  0
   12.6687  -19.2756   24.5381 C   0  0  0  0  0  0  0  0  0  0  0  0
   11.5934  -18.8034   25.4988 C   0  0  2  0  0  0  0  0  0  0  0  0
   11.2451  -17.4350   25.1945 N   0  0  0  0  0  0  0  0  0  0  0  0
   12.0480  -18.9248   26.9052 C   0  0  0  0  0  0  0  0  0  0  0  0
   12.1285  -17.9206   27.6530 O   0  0  0  0  0  0  0  0  0  0  0  0
   12.3973  -20.1587   27.4316 O   0  0  0  0  0  0  0  0  0  0  0  0
  2  1  1  0
  3  2  1  0
  4  5  1  0
  4  3  1  0
  5  6  1  1
  5  7  1  0
  7  8  2  0
  9 10  1  0
 10 20  2  0
 10 11  1  0
 11 12  2  0
 12 13  1  0
 13 14  1  0
 15 14  1  1
 15 17  1  0
 16  7  1  0
 16 15  1  0
 17 18  2  0
 19 13  2  0
 20 19  1  0
 22 21  1  6
 22 24  1  0
 23 22  1  0
 23 17  1  0
 24 26  1  0
 25 24  2  0
M  END
$$$$
