MYA.pdb
     RDKit          3D

 26 26  0  0  1  0  0  0  0  0999 V2000
    7.2892  -11.0942   26.7209 C   0  0  0  0  0  0  0  0  0  0  0  0
    6.2285  -12.3697   27.4083 S   0  0  0  0  0  0  0  0  0  0  0  0
    5.8433  -13.6656   26.2098 C   0  0  0  0  0  0  0  0  0  0  0  0
    7.0801  -14.4101   25.7559 C   0  0  0  0  0  0  0  0  0  0  0  0
    6.6438  -15.3876   24.6878 C   0  0  2  0  0  0  0  0  0  0  0  0
    5.8557  -16.4087   25.3405 N   0  0  0  0  0  0  0  0  0  0  0  0
    7.7874  -16.0309   24.0140 C   0  0  0  0  0  0  0  0  0  0  0  0
    8.0597  -17.2495   24.0710 O   0  0  0  0  0  0  0  0  0  0  0  0
    6.2939  -13.6850   17.3685 O   0  0  0  0  0  0  0  0  0  0  0  0
    7.2374  -13.9164   18.3607 C   0  0  0  0  0  0  0  0  0  0  0  0
    7.9441  -15.0959   18.3630 C   0  0  0  0  0  0  0  0  0  0  0  0
    8.8923  -15.3231   19.3637 C   0  0  0  0  0  0  0  0  0  0  0  0
    9.1200  -14.3829   20.3363 C   0  0  0  0  0  0  0  0  0  0  0  0
   10.1157  -14.6343   21.3782 C   0  0  0  0  0  0  0  0  0  0  0  0
    9.6640  -15.6931   22.3878 C   0  0  2  0  0  0  0  0  0  0  0  0
    8.6390  -15.1668   23.2383 N   0  0  0  0  0  0  0  0  0  0  0  0
   10.8548  -16.0069   23.2054 C   0  0  0  0  0  0  0  0  0  0  0  0
   11.3714  -15.1396   23.9384 O   0  0  0  0  0  0  0  0  0  0  0  0
    8.4063  -13.2051   20.3244 C   0  0  0  0  0  0  0  0  0  0  0  0
    7.4523  -12.9549   19.3333 C   0  0  0  0  0  0  0  0  0  0  0  0
   12.8797  -19.0601   23.9554 C   0  0  0  0  0  0  0  0  0  0  0  0
   12.6087  -17.5673   23.9460 C   0  0  2  0  0  0  0  0  0  0  0  0
   11.4236  -17.2994   23.1650 N   0  0  0  0  0  0  0  0  0  0  0  0
   13.7697  -16.8207   23.4038 C   0  0  0  0  0  0  0  0  0  0  0  0
   14.7638  -16.5519   24.1204 O   0  0  0  0  0  0  0  0  0  0  0  0
   13.7853  -16.3988   22.0835 O   0  0  0  0  0  0  0  0  0  0  0  0
  2  1  1  0
  3  2  1  0
  4  5  1  0
  4  3  1  0
  5  6  1  1
  5  7  1  0
  7  8  2  0
  9 10  1  0
 10 20  2  0
 10 11  1  0
 11 12  2  0
 12 13  1  0
 13 14  1  0
 15 14  1  6
 15 17  1  0
 16  7  1  0
 16 15  1  0
 17 18  2  0
 19 13  2  0
 20 19  1  0
 22 21  1  6
 22 24  1  0
 23 22  1  0
 23 17  1  0
 24 26  1  0
 25 24  2  0
M  END
$$$$
