MYA.pdb
     RDKit          3D

 26 26  0  0  1  0  0  0  0  0999 V2000
    7.5120  -11.8948   27.0043 C   0  0  0  0  0  0  0  0  0  0  0  0
    6.4481  -13.3155   26.7321 S   0  0  0  0  0  0  0  0  0  0  0  0
    7.3697  -14.8690   26.6913 C   0  0  0  0  0  0  0  0  0  0  0  0
    6.4746  -16.0573   26.4144 C   0  0  0  0  0  0  0  0  0  0  0  0
    6.1749  -16.0526   24.9323 C   0  0  2  0  0  0  0  0  0  0  0  0
    5.1517  -17.0471   24.7010 N   0  0  0  0  0  0  0  0  0  0  0  0
    7.3576  -16.3922   24.1188 C   0  0  0  0  0  0  0  0  0  0  0  0
    7.7922  -17.5496   23.9347 O   0  0  0  0  0  0  0  0  0  0  0  0
    6.8174  -13.8456   16.9326 O   0  0  0  0  0  0  0  0  0  0  0  0
    7.4784  -13.9384   18.1503 C   0  0  0  0  0  0  0  0  0  0  0  0
    7.4049  -12.8954   19.0432 C   0  0  0  0  0  0  0  0  0  0  0  0
    8.0719  -12.9945   20.2670 C   0  0  0  0  0  0  0  0  0  0  0  0
    8.7939  -14.1182   20.5797 C   0  0  0  0  0  0  0  0  0  0  0  0
    9.4874  -14.2082   21.8646 C   0  0  0  0  0  0  0  0  0  0  0  0
    9.1602  -15.4952   22.6268 C   0  0  2  0  0  0  0  0  0  0  0  0
    8.0454  -15.2879   23.5014 N   0  0  0  0  0  0  0  0  0  0  0  0
   10.3581  -15.8017   23.4368 C   0  0  0  0  0  0  0  0  0  0  0  0
   10.6317  -15.1278   24.4504 O   0  0  0  0  0  0  0  0  0  0  0  0
    8.8607  -15.1568   19.6778 C   0  0  0  0  0  0  0  0  0  0  0  0
    8.2018  -15.0810   18.4469 C   0  0  0  0  0  0  0  0  0  0  0  0
   12.6626  -18.6231   23.8765 C   0  0  0  0  0  0  0  0  0  0  0  0
   12.3837  -17.1318   23.8692 C   0  0  2  0  0  0  0  0  0  0  0  0
   11.2105  -16.8667   23.0695 N   0  0  0  0  0  0  0  0  0  0  0  0
   13.5496  -16.3765   23.3499 C   0  0  0  0  0  0  0  0  0  0  0  0
   13.5445  -15.8818   22.1970 O   0  0  0  0  0  0  0  0  0  0  0  0
   14.6810  -16.1974   24.1306 O   0  0  0  0  0  0  0  0  0  0  0  0
  2  1  1  0
  3  2  1  0
  4  5  1  0
  4  3  1  0
  5  6  1  1
  5  7  1  0
  7  8  2  0
  9 10  1  0
 10 20  2  0
 10 11  1  0
 11 12  2  0
 12 13  1  0
 13 14  1  0
 15 14  1  1
 15 17  1  0
 16  7  1  0
 16 15  1  0
 17 18  2  0
 19 13  2  0
 20 19  1  0
 22 21  1  6
 22 24  1  0
 23 22  1  0
 23 17  1  0
 24 26  1  0
 25 24  2  0
M  END
$$$$
