MYA.pdb
     RDKit          3D

 26 26  0  0  1  0  0  0  0  0999 V2000
    8.2664  -11.5405   19.5436 C   0  0  0  0  0  0  0  0  0  0  0  0
    7.3023  -12.9541   18.9991 S   0  0  0  0  0  0  0  0  0  0  0  0
    7.9718  -14.5193   19.6043 C   0  0  0  0  0  0  0  0  0  0  0  0
    8.2994  -14.4679   21.0808 C   0  0  0  0  0  0  0  0  0  0  0  0
    8.8957  -15.8073   21.4509 C   0  0  2  0  0  0  0  0  0  0  0  0
    7.8162  -16.7687   21.4529 N   0  0  0  0  0  0  0  0  0  0  0  0
    9.5204  -15.7943   22.7872 C   0  0  0  0  0  0  0  0  0  0  0  0
   10.6123  -15.2517   23.0623 O   0  0  0  0  0  0  0  0  0  0  0  0
    6.1996  -10.8400   26.2385 O   0  0  0  0  0  0  0  0  0  0  0  0
    6.6364  -12.1577   26.2047 C   0  0  0  0  0  0  0  0  0  0  0  0
    7.8185  -12.4965   26.8199 C   0  0  0  0  0  0  0  0  0  0  0  0
    8.2529  -13.8240   26.7828 C   0  0  0  0  0  0  0  0  0  0  0  0
    7.5119  -14.7834   26.1406 C   0  0  0  0  0  0  0  0  0  0  0  0
    7.9790  -16.1694   26.1095 C   0  0  0  0  0  0  0  0  0  0  0  0
    9.2001  -16.3641   25.2064 C   0  0  2  0  0  0  0  0  0  0  0  0
    8.7966  -16.4647   23.8360 N   0  0  0  0  0  0  0  0  0  0  0  0
    9.8125  -17.6430   25.6238 C   0  0  0  0  0  0  0  0  0  0  0  0
    9.2419  -18.7282   25.3937 O   0  0  0  0  0  0  0  0  0  0  0  0
    6.3296  -14.4328   25.5277 C   0  0  0  0  0  0  0  0  0  0  0  0
    5.8741  -13.1110   25.5514 C   0  0  0  0  0  0  0  0  0  0  0  0
   13.1378  -18.8431   26.5966 C   0  0  0  0  0  0  0  0  0  0  0  0
   11.6257  -18.9133   26.6999 C   0  0  2  0  0  0  0  0  0  0  0  0
   11.0574  -17.6497   26.2916 N   0  0  0  0  0  0  0  0  0  0  0  0
   11.2035  -19.2526   28.0805 C   0  0  0  0  0  0  0  0  0  0  0  0
   10.4751  -18.4792   28.7477 O   0  0  0  0  0  0  0  0  0  0  0  0
   11.6058  -20.4403   28.6714 O   0  0  0  0  0  0  0  0  0  0  0  0
  2  1  1  0
  3  2  1  0
  4  5  1  0
  4  3  1  0
  5  6  1  1
  5  7  1  0
  7  8  2  0
  9 10  1  0
 10 20  2  0
 10 11  1  0
 11 12  2  0
 12 13  1  0
 13 14  1  0
 15 14  1  1
 15 17  1  0
 16  7  1  0
 16 15  1  0
 17 18  2  0
 19 13  2  0
 20 19  1  0
 22 21  1  1
 22 24  1  0
 23 22  1  0
 23 17  1  0
 24 26  1  0
 25 24  2  0
M  END
$$$$
