MYA.pdb
     RDKit          3D

 26 26  0  0  1  0  0  0  0  0999 V2000
    8.5015  -12.4530   18.8910 C   0  0  0  0  0  0  0  0  0  0  0  0
    7.4781  -13.9278   18.9359 S   0  0  0  0  0  0  0  0  0  0  0  0
    8.1871  -15.2880   17.9812 C   0  0  0  0  0  0  0  0  0  0  0  0
    9.5666  -15.6717   18.4709 C   0  0  0  0  0  0  0  0  0  0  0  0
    9.3782  -16.6427   19.6147 C   0  0  2  0  0  0  0  0  0  0  0  0
    8.0279  -17.1507   19.5248 N   0  0  0  0  0  0  0  0  0  0  0  0
    9.5560  -16.0014   20.9311 C   0  0  0  0  0  0  0  0  0  0  0  0
   10.5969  -15.4237   21.3119 O   0  0  0  0  0  0  0  0  0  0  0  0
    7.2075  -12.0246   28.3196 O   0  0  0  0  0  0  0  0  0  0  0  0
    7.1813  -12.7940   27.1639 C   0  0  0  0  0  0  0  0  0  0  0  0
    6.9887  -14.1522   27.2575 C   0  0  0  0  0  0  0  0  0  0  0  0
    6.9631  -14.9213   26.0912 C   0  0  0  0  0  0  0  0  0  0  0  0
    7.1280  -14.3328   24.8631 C   0  0  0  0  0  0  0  0  0  0  0  0
    7.0991  -15.1504   23.6503 C   0  0  0  0  0  0  0  0  0  0  0  0
    8.4983  -15.5225   23.1519 C   0  0  2  0  0  0  0  0  0  0  0  0
    8.4296  -16.0600   21.8263 N   0  0  0  0  0  0  0  0  0  0  0  0
    8.9905  -16.5696   24.0718 C   0  0  0  0  0  0  0  0  0  0  0  0
    8.4605  -17.6987   24.0944 O   0  0  0  0  0  0  0  0  0  0  0  0
    7.3203  -12.9717   24.7812 C   0  0  0  0  0  0  0  0  0  0  0  0
    7.3497  -12.1810   25.9341 C   0  0  0  0  0  0  0  0  0  0  0  0
   12.1223  -17.3902   25.6154 C   0  0  0  0  0  0  0  0  0  0  0  0
   10.6103  -17.3761   25.7407 C   0  0  2  0  0  0  0  0  0  0  0  0
   10.0722  -16.3012   24.9399 N   0  0  0  0  0  0  0  0  0  0  0  0
   10.1967  -17.2280   27.1571 C   0  0  0  0  0  0  0  0  0  0  0  0
   10.0427  -18.2279   27.8990 O   0  0  0  0  0  0  0  0  0  0  0  0
    9.9686  -15.9729   27.6998 O   0  0  0  0  0  0  0  0  0  0  0  0
  2  1  1  0
  3  2  1  0
  4  5  1  0
  4  3  1  0
  5  6  1  1
  5  7  1  0
  7  8  2  0
  9 10  1  0
 10 20  2  0
 10 11  1  0
 11 12  2  0
 12 13  1  0
 13 14  1  0
 15 14  1  1
 15 17  1  0
 16  7  1  0
 16 15  1  0
 17 18  2  0
 19 13  2  0
 20 19  1  0
 22 21  1  1
 22 24  1  0
 23 22  1  0
 23 17  1  0
 24 26  1  0
 25 24  2  0
M  END
$$$$
