YWQ.pdb
     RDKit          3D

 36 38  0  0  1  0  0  0  0  0999 V2000
   25.9850  -27.0893  -15.2539 O   0  0  0  0  0  0  0  0  0  0  0  0
   25.3710  -25.8383  -15.0724 C   0  0  0  0  0  0  0  0  0  0  0  0
   24.1559  -25.7549  -14.4243 C   0  0  0  0  0  0  0  0  0  0  0  0
   23.5828  -24.5213  -14.2625 C   0  0  0  0  0  0  0  0  0  0  0  0
   24.1850  -23.3690  -14.7274 C   0  0  0  0  0  0  0  0  0  0  0  0
   23.5688  -22.0200  -14.5537 C   0  0  0  0  0  0  0  0  0  0  0  0
   24.4347  -21.2778  -13.5486 C   0  0  2  0  0  0  0  0  0  0  0  0
   23.9454  -21.4861  -12.2035 N   0  0  0  0  0  0  0  0  0  0  0  0
   24.3974  -19.8302  -13.8434 C   0  0  0  0  0  0  0  0  0  0  0  0
   23.4547  -19.1382  -13.4011 O   0  0  0  0  0  0  0  0  0  0  0  0
   25.3981  -23.4775  -15.3714 C   0  0  0  0  0  0  0  0  0  0  0  0
   25.9986  -24.7221  -15.5468 C   0  0  0  0  0  0  0  0  0  0  0  0
   25.4253  -19.2585  -14.6180 N   0  0  0  0  0  0  0  0  0  0  0  0
   25.4347  -17.8283  -14.8542 C   0  0  1  0  0  0  0  0  0  0  0  0
   26.8328  -17.4419  -15.1584 C   0  0  0  0  0  0  0  0  0  0  0  0
   27.0061  -16.0842  -15.6622 C   0  0  0  0  0  0  0  0  0  0  0  0
   26.7144  -14.8907  -14.9902 C   0  0  0  0  0  0  0  0  0  0  0  0
   26.9913  -13.8939  -15.8311 N   0  0  0  0  0  0  0  0  0  0  0  0
   27.4441  -14.3929  -17.0007 C   0  0  0  0  0  0  0  0  0  0  0  0
   27.8772  -13.7994  -18.1795 C   0  0  0  0  0  0  0  0  0  0  0  0
   28.3164  -14.5589  -19.2431 C   0  0  0  0  0  0  0  0  0  0  0  0
   28.3404  -15.9278  -19.1725 C   0  0  0  0  0  0  0  0  0  0  0  0
   27.9131  -16.5257  -18.0106 C   0  0  0  0  0  0  0  0  0  0  0  0
   27.4670  -15.7610  -16.9314 C   0  0  0  0  0  0  0  0  0  0  0  0
   24.3806  -17.3951  -15.7599 C   0  0  0  0  0  0  0  0  0  0  0  0
   24.0523  -18.1139  -16.7287 O   0  0  0  0  0  0  0  0  0  0  0  0
   19.3396  -13.3707  -15.6120 N   0  0  0  0  0  0  0  0  0  0  0  0
   19.0609  -14.7373  -15.8441 C   0  0  0  0  0  0  0  0  0  0  0  0
   17.8566  -15.0790  -16.0144 O   0  0  0  0  0  0  0  0  0  0  0  0
   20.1743  -15.7052  -15.8856 C   0  0  0  0  0  0  0  0  0  0  0  0
   21.5268  -15.1287  -15.6714 C   0  0  0  0  0  0  0  0  0  0  0  0
   22.6142  -15.7051  -16.4962 C   0  0  2  0  0  0  0  0  0  0  0  0
   23.6996  -16.1663  -15.5830 N   0  0  0  0  0  0  0  0  0  0  0  0
   23.2066  -14.9164  -17.5558 C   0  0  0  0  0  0  0  0  0  0  0  0
   23.7462  -13.7986  -17.3949 O   0  0  0  0  0  0  0  0  0  0  0  0
   23.2006  -15.3939  -18.8691 O   0  0  0  0  0  0  0  0  0  0  0  0
  2  1  1  0
  3  2  2  0
  4  3  1  0
  5  4  2  0
  5 11  1  0
  6  5  1  0
  7  8  1  1
  7  6  1  0
  9 13  1  0
  9  7  1  0
 10  9  2  0
 11 12  2  0
 12  2  1  0
 14 15  1  6
 14 25  1  0
 14 13  1  0
 16 17  2  0
 16 15  1  0
 18 17  1  0
 19 24  2  0
 19 18  1  0
 20 19  1  0
 21 22  1  0
 21 20  2  0
 22 23  2  0
 23 24  1  0
 24 16  1  0
 25 33  1  0
 26 25  2  0
 27 28  1  0
 28 29  2  0
 30 31  1  0
 30 28  1  0
 32 33  1  0
 32 34  1  0
 32 31  1  1
 34 35  2  0
 34 36  1  0
M  END
$$$$
