YWQ.pdb
     RDKit          3D

 36 38  0  0  1  0  0  0  0  0999 V2000
   26.1927  -14.9833  -22.1412 O   0  0  0  0  0  0  0  0  0  0  0  0
   25.4512  -15.8576  -21.3284 C   0  0  0  0  0  0  0  0  0  0  0  0
   24.7356  -15.3626  -20.2578 C   0  0  0  0  0  0  0  0  0  0  0  0
   24.0225  -16.2398  -19.4843 C   0  0  0  0  0  0  0  0  0  0  0  0
   24.0016  -17.5953  -19.7465 C   0  0  0  0  0  0  0  0  0  0  0  0
   23.2256  -18.5586  -18.9102 C   0  0  0  0  0  0  0  0  0  0  0  0
   23.9837  -18.6983  -17.6000 C   0  0  2  0  0  0  0  0  0  0  0  0
   25.2063  -19.4459  -17.7966 N   0  0  0  0  0  0  0  0  0  0  0  0
   23.1435  -19.4203  -16.6217 C   0  0  0  0  0  0  0  0  0  0  0  0
   23.1476  -20.6706  -16.6142 O   0  0  0  0  0  0  0  0  0  0  0  0
   24.7241  -18.0661  -20.8211 C   0  0  0  0  0  0  0  0  0  0  0  0
   25.4563  -17.1915  -21.6207 C   0  0  0  0  0  0  0  0  0  0  0  0
   22.3540  -18.6848  -15.7168 N   0  0  0  0  0  0  0  0  0  0  0  0
   21.6102  -19.3796  -14.6846 C   0  0  1  0  0  0  0  0  0  0  0  0
   21.6481  -18.5323  -13.4692 C   0  0  0  0  0  0  0  0  0  0  0  0
   20.9549  -19.0801  -12.3088 C   0  0  0  0  0  0  0  0  0  0  0  0
   21.4411  -20.0364  -11.4087 C   0  0  0  0  0  0  0  0  0  0  0  0
   20.4687  -20.2695  -10.5269 N   0  0  0  0  0  0  0  0  0  0  0  0
   19.3918  -19.5105  -10.8203 C   0  0  0  0  0  0  0  0  0  0  0  0
   18.1465  -19.3620  -10.2233 C   0  0  0  0  0  0  0  0  0  0  0  0
   17.2121  -18.4824  -10.7274 C   0  0  0  0  0  0  0  0  0  0  0  0
   17.4816  -17.7233  -11.8368 C   0  0  0  0  0  0  0  0  0  0  0  0
   18.7110  -17.8630  -12.4362 C   0  0  0  0  0  0  0  0  0  0  0  0
   19.6599  -18.7527  -11.9298 C   0  0  0  0  0  0  0  0  0  0  0  0
   20.3220  -19.8741  -15.1480 C   0  0  0  0  0  0  0  0  0  0  0  0
   19.6444  -19.1990  -15.9531 O   0  0  0  0  0  0  0  0  0  0  0  0
   19.1026  -25.2945  -17.3446 N   0  0  0  0  0  0  0  0  0  0  0  0
   17.7851  -24.7860  -17.2743 C   0  0  0  0  0  0  0  0  0  0  0  0
   16.8745  -25.4032  -17.8955 O   0  0  0  0  0  0  0  0  0  0  0  0
   17.5211  -23.5696  -16.4813 C   0  0  0  0  0  0  0  0  0  0  0  0
   18.7224  -22.9136  -15.9034 C   0  0  0  0  0  0  0  0  0  0  0  0
   18.4815  -21.6433  -15.1800 C   0  0  2  0  0  0  0  0  0  0  0  0
   19.7956  -21.1146  -14.7129 N   0  0  0  0  0  0  0  0  0  0  0  0
   17.5516  -21.6141  -14.0708 C   0  0  0  0  0  0  0  0  0  0  0  0
   17.8632  -21.8129  -12.8751 O   0  0  0  0  0  0  0  0  0  0  0  0
   16.1988  -21.3494  -14.3000 O   0  0  0  0  0  0  0  0  0  0  0  0
  2  1  1  0
  3  2  2  0
  4  3  1  0
  5  4  2  0
  5 11  1  0
  6  5  1  0
  7  8  1  6
  7  6  1  0
  9 13  1  0
  9  7  1  0
 10  9  2  0
 11 12  2  0
 12  2  1  0
 14 15  1  1
 14 25  1  0
 14 13  1  0
 16 17  2  0
 16 15  1  0
 18 17  1  0
 19 24  2  0
 19 18  1  0
 20 19  1  0
 21 22  1  0
 21 20  2  0
 22 23  2  0
 23 24  1  0
 24 16  1  0
 25 33  1  0
 26 25  2  0
 27 28  1  0
 28 29  2  0
 30 31  1  0
 30 28  1  0
 32 33  1  0
 32 34  1  0
 32 31  1  1
 34 35  2  0
 34 36  1  0
M  END
$$$$
