YWQ.pdb
     RDKit          3D

 36 38  0  0  1  0  0  0  0  0999 V2000
   28.8803  -14.5898  -18.5144 O   0  0  0  0  0  0  0  0  0  0  0  0
   28.2441  -15.4607  -17.6136 C   0  0  0  0  0  0  0  0  0  0  0  0
   28.4143  -15.2914  -16.2551 C   0  0  0  0  0  0  0  0  0  0  0  0
   27.7808  -16.1562  -15.4024 C   0  0  0  0  0  0  0  0  0  0  0  0
   26.9830  -17.1843  -15.8638 C   0  0  0  0  0  0  0  0  0  0  0  0
   26.2870  -18.1305  -14.9418 C   0  0  0  0  0  0  0  0  0  0  0  0
   27.3594  -19.0485  -14.3779 C   0  0  2  0  0  0  0  0  0  0  0  0
   27.8582  -19.9385  -15.4033 N   0  0  0  0  0  0  0  0  0  0  0  0
   26.7839  -19.8633  -13.2875 C   0  0  0  0  0  0  0  0  0  0  0  0
   26.1676  -20.9146  -13.5671 O   0  0  0  0  0  0  0  0  0  0  0  0
   26.8281  -17.3335  -17.2247 C   0  0  0  0  0  0  0  0  0  0  0  0
   27.4632  -16.4652  -18.1096 C   0  0  0  0  0  0  0  0  0  0  0  0
   26.9411  -19.4387  -11.9540 N   0  0  0  0  0  0  0  0  0  0  0  0
   26.3457  -20.2099  -10.8807 C   0  0  1  0  0  0  0  0  0  0  0  0
   27.0211  -19.8090   -9.6238 C   0  0  0  0  0  0  0  0  0  0  0  0
   26.4709  -20.3978   -8.4083 C   0  0  0  0  0  0  0  0  0  0  0  0
   25.4344  -21.3351   -8.3185 C   0  0  0  0  0  0  0  0  0  0  0  0
   25.2337  -21.5694   -7.0215 N   0  0  0  0  0  0  0  0  0  0  0  0
   26.0894  -20.8303   -6.2842 C   0  0  0  0  0  0  0  0  0  0  0  0
   26.3049  -20.7136   -4.9170 C   0  0  0  0  0  0  0  0  0  0  0  0
   27.2802  -19.8779   -4.4156 C   0  0  0  0  0  0  0  0  0  0  0  0
   28.0715  -19.1331   -5.2513 C   0  0  0  0  0  0  0  0  0  0  0  0
   27.8662  -19.2404   -6.6066 C   0  0  0  0  0  0  0  0  0  0  0  0
   26.8796  -20.0845   -7.1188 C   0  0  0  0  0  0  0  0  0  0  0  0
   24.8906  -20.2082  -10.9195 C   0  0  0  0  0  0  0  0  0  0  0  0
   24.2667  -19.1267  -10.9840 O   0  0  0  0  0  0  0  0  0  0  0  0
   22.8670  -24.9710  -13.0922 N   0  0  0  0  0  0  0  0  0  0  0  0
   21.9162  -24.0404  -13.5712 C   0  0  0  0  0  0  0  0  0  0  0  0
   21.4296  -24.2252  -14.7222 O   0  0  0  0  0  0  0  0  0  0  0  0
   21.5248  -22.9024  -12.7169 C   0  0  0  0  0  0  0  0  0  0  0  0
   22.2475  -22.8001  -11.4227 C   0  0  0  0  0  0  0  0  0  0  0  0
   22.6535  -21.4352  -11.0141 C   0  0  2  0  0  0  0  0  0  0  0  0
   24.1393  -21.4080  -10.8855 N   0  0  0  0  0  0  0  0  0  0  0  0
   22.0766  -20.8396   -9.8274 C   0  0  0  0  0  0  0  0  0  0  0  0
   22.3176  -21.2091   -8.6562 O   0  0  0  0  0  0  0  0  0  0  0  0
   21.1812  -19.7733   -9.9457 O   0  0  0  0  0  0  0  0  0  0  0  0
  2  1  1  0
  3  2  2  0
  4  3  1  0
  5  4  2  0
  5 11  1  0
  6  5  1  0
  7  8  1  6
  7  6  1  0
  9 13  1  0
  9  7  1  0
 10  9  2  0
 11 12  2  0
 12  2  1  0
 14 15  1  1
 14 25  1  0
 14 13  1  0
 16 17  2  0
 16 15  1  0
 18 17  1  0
 19 24  2  0
 19 18  1  0
 20 19  1  0
 21 22  1  0
 21 20  2  0
 22 23  2  0
 23 24  1  0
 24 16  1  0
 25 33  1  0
 26 25  2  0
 27 28  1  0
 28 29  2  0
 30 31  1  0
 30 28  1  0
 32 33  1  0
 32 34  1  0
 32 31  1  1
 34 35  2  0
 34 36  1  0
M  END
$$$$
