LQE.pdb
     RDKit          3D

 27 26  0  0  1  0  0  0  0  0999 V2000
    7.0036  -12.0618   19.8920 C   0  0  0  0  0  0  0  0  0  0  0  0
    7.3934  -13.5135   19.8911 C   0  0  1  0  0  0  0  0  0  0  0  0
    8.0065  -13.8562   18.5560 C   0  0  0  0  0  0  0  0  0  0  0  0
    8.2986  -13.8791   21.0348 C   0  0  0  0  0  0  0  0  0  0  0  0
    8.5654  -15.3400   21.1415 C   0  0  2  0  0  0  0  0  0  0  0  0
    7.3921  -16.1134   20.7891 N   0  0  0  0  0  0  0  0  0  0  0  0
    8.9979  -15.6572   22.5236 C   0  0  0  0  0  0  0  0  0  0  0  0
    9.9700  -15.0002   23.0122 O   0  0  0  0  0  0  0  0  0  0  0  0
    6.3806  -20.0309   26.3579 N   0  0  0  0  0  0  0  0  0  0  0  0
    7.4012  -19.4564   27.1460 C   0  0  0  0  0  0  0  0  0  0  0  0
    7.5344  -19.8402   28.3294 O   0  0  0  0  0  0  0  0  0  0  0  0
    8.3287  -18.3982   26.5997 C   0  0  0  0  0  0  0  0  0  0  0  0
    7.9095  -17.9679   25.2441 C   0  0  0  0  0  0  0  0  0  0  0  0
    8.8363  -17.0236   24.5616 C   0  0  2  0  0  0  0  0  0  0  0  0
    8.3247  -16.6675   23.2457 N   0  0  0  0  0  0  0  0  0  0  0  0
   10.2042  -17.5827   24.4587 C   0  0  0  0  0  0  0  0  0  0  0  0
   10.3974  -18.4759   23.5998 O   0  0  0  0  0  0  0  0  0  0  0  0
   11.2686  -17.1352   25.2939 N   0  0  0  0  0  0  0  0  0  0  0  0
   12.5680  -17.7508   25.1392 C   0  0  1  0  0  0  0  0  0  0  0  0
   13.4967  -16.9425   24.3179 C   0  0  0  0  0  0  0  0  0  0  0  0
   14.9011  -17.3542   24.1831 C   0  0  0  0  0  0  0  0  0  0  0  0
   15.8175  -16.5745   23.3809 C   0  0  0  0  0  0  0  0  0  0  0  0
   16.9571  -16.9327   23.0671 O   0  0  0  0  0  0  0  0  0  0  0  0
   13.0703  -18.2134   26.4238 C   0  0  0  0  0  0  0  0  0  0  0  0
   12.4562  -17.8567   27.4827 O   0  0  0  0  0  0  0  0  0  0  0  0
   15.4540  -15.2966   22.8816 O   0  0  0  0  0  0  0  0  0  0  0  0
   14.1812  -19.0215   26.5719 O   0  0  0  0  0  0  0  0  0  0  0  0
  2  4  1  0
  2  1  1  6
  3  2  1  0
  5  4  1  0
  5  6  1  1
  7  5  1  0
  8  7  2  0
 10  9  1  0
 10 12  1  0
 11 10  2  0
 14 13  1  6
 13 12  1  0
 14 15  1  0
 15  7  1  0
 16 18  1  0
 16 14  1  0
 17 16  2  0
 19 24  1  0
 19 18  1  0
 19 20  1  1
 21 20  1  0
 22 26  1  0
 22 21  1  0
 23 22  2  0
 24 27  1  0
 25 24  2  0
M  END
$$$$
