LQE.pdb
     RDKit          3D

 27 26  0  0  1  0  0  0  0  0999 V2000
    7.0966  -11.2800   26.1881 C   0  0  0  0  0  0  0  0  0  0  0  0
    6.4867  -12.5151   26.7894 C   0  0  1  0  0  0  0  0  0  0  0  0
    5.2247  -12.1325   27.5220 C   0  0  0  0  0  0  0  0  0  0  0  0
    6.2414  -13.6008   25.7782 C   0  0  0  0  0  0  0  0  0  0  0  0
    7.4029  -14.5127   25.5878 C   0  0  2  0  0  0  0  0  0  0  0  0
    8.6483  -13.8495   25.9162 N   0  0  0  0  0  0  0  0  0  0  0  0
    7.4247  -14.9881   24.1838 C   0  0  0  0  0  0  0  0  0  0  0  0
    6.4975  -15.7689   23.8017 O   0  0  0  0  0  0  0  0  0  0  0  0
    8.1536  -12.1905   18.9559 N   0  0  0  0  0  0  0  0  0  0  0  0
    8.2445  -13.5408   18.5542 C   0  0  0  0  0  0  0  0  0  0  0  0
    8.1629  -13.8118   17.3355 O   0  0  0  0  0  0  0  0  0  0  0  0
    8.4363  -14.6571   19.5520 C   0  0  0  0  0  0  0  0  0  0  0  0
    8.4111  -14.1420   20.9422 C   0  0  0  0  0  0  0  0  0  0  0  0
    8.5507  -15.1745   22.0056 C   0  0  2  0  0  0  0  0  0  0  0  0
    8.4627  -14.5640   23.3247 N   0  0  0  0  0  0  0  0  0  0  0  0
    9.8138  -15.9352   21.8630 C   0  0  0  0  0  0  0  0  0  0  0  0
   10.8664  -15.3821   22.2617 O   0  0  0  0  0  0  0  0  0  0  0  0
    9.8490  -17.2429   21.2980 N   0  0  0  0  0  0  0  0  0  0  0  0
   11.1257  -17.9151   21.2019 C   0  0  1  0  0  0  0  0  0  0  0  0
   11.2512  -19.0546   22.1380 C   0  0  0  0  0  0  0  0  0  0  0  0
   11.1855  -18.8210   23.5874 C   0  0  0  0  0  0  0  0  0  0  0  0
   11.3599  -19.9181   24.5133 C   0  0  0  0  0  0  0  0  0  0  0  0
   12.4497  -20.4084   24.8253 O   0  0  0  0  0  0  0  0  0  0  0  0
   11.4622  -18.1763   19.8108 C   0  0  0  0  0  0  0  0  0  0  0  0
   10.5381  -18.1007   18.9357 O   0  0  0  0  0  0  0  0  0  0  0  0
   10.2472  -20.5277   25.1495 O   0  0  0  0  0  0  0  0  0  0  0  0
   12.7307  -18.5049   19.3727 O   0  0  0  0  0  0  0  0  0  0  0  0
  2  4  1  0
  2  1  1  6
  3  2  1  0
  5  4  1  0
  5  6  1  6
  7  5  1  0
  8  7  2  0
 10  9  1  0
 10 12  1  0
 11 10  2  0
 14 13  1  6
 13 12  1  0
 14 15  1  0
 15  7  1  0
 16 18  1  0
 16 14  1  0
 17 16  2  0
 19 24  1  0
 19 18  1  0
 19 20  1  1
 21 20  1  0
 22 26  1  0
 22 21  1  0
 23 22  2  0
 24 27  1  0
 25 24  2  0
M  END
$$$$
