LQE.pdb
     RDKit          3D

 27 26  0  0  1  0  0  0  0  0999 V2000
    8.0424  -12.1858   20.2418 C   0  0  0  0  0  0  0  0  0  0  0  0
    8.2055  -13.5122   20.9298 C   0  0  1  0  0  0  0  0  0  0  0  0
    6.8540  -13.9918   21.3980 C   0  0  0  0  0  0  0  0  0  0  0  0
    8.8988  -14.5361   20.0741 C   0  0  0  0  0  0  0  0  0  0  0  0
    9.1537  -15.8253   20.7741 C   0  0  2  0  0  0  0  0  0  0  0  0
    7.9188  -16.4169   21.2474 N   0  0  0  0  0  0  0  0  0  0  0  0
   10.0818  -15.5905   21.9060 C   0  0  0  0  0  0  0  0  0  0  0  0
   11.1701  -14.9780   21.6705 O   0  0  0  0  0  0  0  0  0  0  0  0
    8.1989  -14.3701   27.6248 N   0  0  0  0  0  0  0  0  0  0  0  0
    9.6029  -14.3417   27.7698 C   0  0  0  0  0  0  0  0  0  0  0  0
   10.0872  -13.9357   28.8496 O   0  0  0  0  0  0  0  0  0  0  0  0
   10.5268  -14.7859   26.6619 C   0  0  0  0  0  0  0  0  0  0  0  0
    9.7608  -15.2282   25.4718 C   0  0  0  0  0  0  0  0  0  0  0  0
   10.5848  -15.6663   24.3119 C   0  0  2  0  0  0  0  0  0  0  0  0
    9.7321  -16.0494   23.1955 N   0  0  0  0  0  0  0  0  0  0  0  0
   11.4965  -16.7744   24.6797 C   0  0  0  0  0  0  0  0  0  0  0  0
   12.3379  -16.5513   25.5826 O   0  0  0  0  0  0  0  0  0  0  0  0
   11.4336  -18.0481   24.0435 N   0  0  0  0  0  0  0  0  0  0  0  0
   11.2808  -19.2228   24.8728 C   0  0  1  0  0  0  0  0  0  0  0  0
   10.8291  -18.9065   26.2462 C   0  0  0  0  0  0  0  0  0  0  0  0
   10.6415  -19.9893   27.2219 C   0  0  0  0  0  0  0  0  0  0  0  0
   11.3748  -19.9852   28.4684 C   0  0  0  0  0  0  0  0  0  0  0  0
   11.0562  -19.3358   29.4694 O   0  0  0  0  0  0  0  0  0  0  0  0
   10.5378  -20.2544   24.1653 C   0  0  0  0  0  0  0  0  0  0  0  0
    9.5531  -19.9040   23.4351 O   0  0  0  0  0  0  0  0  0  0  0  0
   12.5548  -20.7573   28.6302 O   0  0  0  0  0  0  0  0  0  0  0  0
   10.8327  -21.6024   24.2350 O   0  0  0  0  0  0  0  0  0  0  0  0
  2  4  1  0
  2  1  1  6
  3  2  1  0
  5  4  1  0
  5  6  1  1
  7  5  1  0
  8  7  2  0
 10  9  1  0
 10 12  1  0
 11 10  2  0
 14 13  1  1
 13 12  1  0
 14 15  1  0
 15  7  1  0
 16 18  1  0
 16 14  1  0
 17 16  2  0
 19 24  1  0
 19 18  1  0
 19 20  1  1
 21 20  1  0
 22 26  1  0
 22 21  1  0
 23 22  2  0
 24 27  1  0
 25 24  2  0
M  END
$$$$
