LQE.pdb
     RDKit          3D

 27 26  0  0  1  0  0  0  0  0999 V2000
    7.2076  -12.4706   21.1905 C   0  0  0  0  0  0  0  0  0  0  0  0
    7.6068  -13.2509   19.9694 C   0  0  1  0  0  0  0  0  0  0  0  0
    7.6297  -12.3233   18.7800 C   0  0  0  0  0  0  0  0  0  0  0  0
    8.9117  -13.9790   20.1385 C   0  0  0  0  0  0  0  0  0  0  0  0
    9.2658  -14.8460   18.9810 C   0  0  2  0  0  0  0  0  0  0  0  0
    8.2487  -15.8514   18.7496 N   0  0  0  0  0  0  0  0  0  0  0  0
   10.5782  -15.4871   19.2354 C   0  0  0  0  0  0  0  0  0  0  0  0
   10.5881  -16.6984   19.6197 O   0  0  0  0  0  0  0  0  0  0  0  0
   16.4623  -15.9497   15.9505 N   0  0  0  0  0  0  0  0  0  0  0  0
   15.0859  -15.6361   15.9614 C   0  0  0  0  0  0  0  0  0  0  0  0
   14.6212  -14.9388   15.0322 O   0  0  0  0  0  0  0  0  0  0  0  0
   14.1683  -16.1180   17.0587 C   0  0  0  0  0  0  0  0  0  0  0  0
   13.9585  -15.0650   18.0813 C   0  0  0  0  0  0  0  0  0  0  0  0
   13.0361  -15.4310   19.1912 C   0  0  2  0  0  0  0  0  0  0  0  0
   11.7624  -14.7408   19.0452 N   0  0  0  0  0  0  0  0  0  0  0  0
   13.6378  -15.1471   20.5148 C   0  0  0  0  0  0  0  0  0  0  0  0
   13.6738  -13.9494   20.8852 O   0  0  0  0  0  0  0  0  0  0  0  0
   14.1591  -16.1808   21.3457 N   0  0  0  0  0  0  0  0  0  0  0  0
   14.7200  -15.8143   22.6271 C   0  0  1  0  0  0  0  0  0  0  0  0
   14.2933  -16.7123   23.7234 C   0  0  0  0  0  0  0  0  0  0  0  0
   12.8653  -16.9991   23.9198 C   0  0  0  0  0  0  0  0  0  0  0  0
   12.4386  -17.9060   24.9623 C   0  0  0  0  0  0  0  0  0  0  0  0
   11.9768  -17.5560   26.0530 O   0  0  0  0  0  0  0  0  0  0  0  0
   16.1489  -15.5676   22.5076 C   0  0  0  0  0  0  0  0  0  0  0  0
   16.7440  -15.9363   21.4420 O   0  0  0  0  0  0  0  0  0  0  0  0
   12.5254  -19.3127   24.7946 O   0  0  0  0  0  0  0  0  0  0  0  0
   16.9100  -14.9543   23.4841 O   0  0  0  0  0  0  0  0  0  0  0  0
  2  4  1  0
  2  1  1  1
  3  2  1  0
  5  4  1  0
  5  6  1  1
  7  5  1  0
  8  7  2  0
 10  9  1  0
 10 12  1  0
 11 10  2  0
 14 13  1  6
 13 12  1  0
 14 15  1  0
 15  7  1  0
 16 18  1  0
 16 14  1  0
 17 16  2  0
 19 24  1  0
 19 18  1  0
 19 20  1  1
 21 20  1  0
 22 26  1  0
 22 21  1  0
 23 22  2  0
 24 27  1  0
 25 24  2  0
M  END
$$$$
