LQE.pdb
     RDKit          3D

 27 26  0  0  1  0  0  0  0  0999 V2000
    7.6939  -12.0857   27.6485 C   0  0  0  0  0  0  0  0  0  0  0  0
    6.7353  -13.0179   26.9620 C   0  0  1  0  0  0  0  0  0  0  0  0
    5.6789  -12.2039   26.2571 C   0  0  0  0  0  0  0  0  0  0  0  0
    7.4181  -13.9797   26.0292 C   0  0  0  0  0  0  0  0  0  0  0  0
    6.4744  -14.7762   25.1974 C   0  0  2  0  0  0  0  0  0  0  0  0
    6.0231  -15.9577   25.9039 N   0  0  0  0  0  0  0  0  0  0  0  0
    7.1425  -15.1554   23.9295 C   0  0  0  0  0  0  0  0  0  0  0  0
    7.4216  -16.3813   23.7434 O   0  0  0  0  0  0  0  0  0  0  0  0
    7.5376  -13.0479   17.5453 N   0  0  0  0  0  0  0  0  0  0  0  0
    8.0660  -14.0339   18.4064 C   0  0  0  0  0  0  0  0  0  0  0  0
    7.7718  -15.2323   18.1995 O   0  0  0  0  0  0  0  0  0  0  0  0
    8.9704  -13.6801   19.5619 C   0  0  0  0  0  0  0  0  0  0  0  0
    8.1875  -13.4243   20.7949 C   0  0  0  0  0  0  0  0  0  0  0  0
    8.1374  -14.5546   21.7625 C   0  0  2  0  0  0  0  0  0  0  0  0
    7.4448  -14.1548   22.9793 N   0  0  0  0  0  0  0  0  0  0  0  0
    9.4929  -15.0646   22.0740 C   0  0  0  0  0  0  0  0  0  0  0  0
   10.1597  -14.4388   22.9324 O   0  0  0  0  0  0  0  0  0  0  0  0
   10.0324  -16.2178   21.4337 N   0  0  0  0  0  0  0  0  0  0  0  0
   11.3090  -16.7218   21.8892 C   0  0  1  0  0  0  0  0  0  0  0  0
   11.5019  -18.1591   21.5939 C   0  0  0  0  0  0  0  0  0  0  0  0
   12.7611  -18.8195   21.9659 C   0  0  0  0  0  0  0  0  0  0  0  0
   12.9956  -20.2008   21.6078 C   0  0  0  0  0  0  0  0  0  0  0  0
   14.0488  -20.6343   21.1300 O   0  0  0  0  0  0  0  0  0  0  0  0
   12.3837  -15.8260   21.4901 C   0  0  0  0  0  0  0  0  0  0  0  0
   12.3764  -15.3553   20.3053 O   0  0  0  0  0  0  0  0  0  0  0  0
   11.9922  -21.1882   21.7889 O   0  0  0  0  0  0  0  0  0  0  0  0
   13.4221  -15.4495   22.3201 O   0  0  0  0  0  0  0  0  0  0  0  0
  2  4  1  0
  2  1  1  6
  3  2  1  0
  5  4  1  0
  5  6  1  1
  7  5  1  0
  8  7  2  0
 10  9  1  0
 10 12  1  0
 11 10  2  0
 14 13  1  6
 13 12  1  0
 14 15  1  0
 15  7  1  0
 16 18  1  0
 16 14  1  0
 17 16  2  0
 19 24  1  0
 19 18  1  0
 19 20  1  6
 21 20  1  0
 22 26  1  0
 22 21  1  0
 23 22  2  0
 24 27  1  0
 25 24  2  0
M  END
$$$$
