LQE.pdb
     RDKit          3D

 27 26  0  0  1  0  0  0  0  0999 V2000
    6.6677  -13.6311   18.0527 C   0  0  0  0  0  0  0  0  0  0  0  0
    7.8395  -13.2017   18.8904 C   0  0  1  0  0  0  0  0  0  0  0  0
    7.3553  -12.2623   19.9669 C   0  0  0  0  0  0  0  0  0  0  0  0
    8.6091  -14.3606   19.4614 C   0  0  0  0  0  0  0  0  0  0  0  0
    9.7181  -13.9524   20.3672 C   0  0  2  0  0  0  0  0  0  0  0  0
   10.0770  -12.5639   20.1624 N   0  0  0  0  0  0  0  0  0  0  0  0
   10.8894  -14.8297   20.1301 C   0  0  0  0  0  0  0  0  0  0  0  0
   10.6965  -16.0848   20.0788 O   0  0  0  0  0  0  0  0  0  0  0  0
   16.1439  -13.2647   17.1526 N   0  0  0  0  0  0  0  0  0  0  0  0
   16.3803  -14.6029   17.5352 C   0  0  0  0  0  0  0  0  0  0  0  0
   17.3942  -15.1850   17.0895 O   0  0  0  0  0  0  0  0  0  0  0  0
   15.4465  -15.3428   18.4619 C   0  0  0  0  0  0  0  0  0  0  0  0
   14.3225  -14.4766   18.8919 C   0  0  0  0  0  0  0  0  0  0  0  0
   13.2980  -15.1403   19.7442 C   0  0  2  0  0  0  0  0  0  0  0  0
   12.1679  -14.2505   19.9706 N   0  0  0  0  0  0  0  0  0  0  0  0
   13.8730  -15.5958   21.0312 C   0  0  0  0  0  0  0  0  0  0  0  0
   13.7990  -14.8087   22.0048 O   0  0  0  0  0  0  0  0  0  0  0  0
   14.4886  -16.8730   21.1743 N   0  0  0  0  0  0  0  0  0  0  0  0
   14.5306  -17.4713   22.4901 C   0  0  1  0  0  0  0  0  0  0  0  0
   13.1882  -17.6499   23.0873 C   0  0  0  0  0  0  0  0  0  0  0  0
   13.0503  -18.3139   24.3911 C   0  0  0  0  0  0  0  0  0  0  0  0
   11.7400  -18.5576   24.9523 C   0  0  0  0  0  0  0  0  0  0  0  0
   10.6794  -18.1583   24.4612 O   0  0  0  0  0  0  0  0  0  0  0  0
   15.4043  -18.6346   22.4948 C   0  0  0  0  0  0  0  0  0  0  0  0
   15.5365  -19.3017   21.4164 O   0  0  0  0  0  0  0  0  0  0  0  0
   11.5797  -19.3006   26.1509 O   0  0  0  0  0  0  0  0  0  0  0  0
   16.1061  -19.0677   23.6033 O   0  0  0  0  0  0  0  0  0  0  0  0
  2  4  1  0
  2  1  1  1
  3  2  1  0
  5  4  1  0
  5  6  1  6
  7  5  1  0
  8  7  2  0
 10  9  1  0
 10 12  1  0
 11 10  2  0
 14 13  1  1
 13 12  1  0
 14 15  1  0
 15  7  1  0
 16 18  1  0
 16 14  1  0
 17 16  2  0
 19 24  1  0
 19 18  1  0
 19 20  1  6
 21 20  1  0
 22 26  1  0
 22 21  1  0
 23 22  2  0
 24 27  1  0
 25 24  2  0
M  END
$$$$
