LQE.pdb
     RDKit          3D

 27 26  0  0  1  0  0  0  0  0999 V2000
    7.2047  -15.3569   17.7344 C   0  0  0  0  0  0  0  0  0  0  0  0
    8.2565  -14.4963   18.3764 C   0  0  1  0  0  0  0  0  0  0  0  0
    7.9591  -13.0489   18.0727 C   0  0  0  0  0  0  0  0  0  0  0  0
    8.3956  -14.7427   19.8533 C   0  0  0  0  0  0  0  0  0  0  0  0
    9.2762  -13.7594   20.5423 C   0  0  2  0  0  0  0  0  0  0  0  0
   10.6099  -13.7650   19.9765 N   0  0  0  0  0  0  0  0  0  0  0  0
    9.3267  -14.0797   21.9889 C   0  0  0  0  0  0  0  0  0  0  0  0
   10.3183  -14.7479   22.4197 O   0  0  0  0  0  0  0  0  0  0  0  0
    5.6323  -11.4131   26.4073 N   0  0  0  0  0  0  0  0  0  0  0  0
    6.4354  -12.3049   27.1507 C   0  0  0  0  0  0  0  0  0  0  0  0
    6.2834  -12.3584   28.3915 O   0  0  0  0  0  0  0  0  0  0  0  0
    7.4652  -13.1887   26.4898 C   0  0  0  0  0  0  0  0  0  0  0  0
    7.3842  -13.0916   25.0124 C   0  0  0  0  0  0  0  0  0  0  0  0
    8.4338  -13.8398   24.2674 C   0  0  2  0  0  0  0  0  0  0  0  0
    8.2840  -13.6380   22.8332 N   0  0  0  0  0  0  0  0  0  0  0  0
    8.4118  -15.2835   24.5990 C   0  0  0  0  0  0  0  0  0  0  0  0
    7.7658  -16.0393   23.8347 O   0  0  0  0  0  0  0  0  0  0  0  0
    9.0916  -15.8084   25.7362 N   0  0  0  0  0  0  0  0  0  0  0  0
    9.7151  -17.1083   25.6237 C   0  0  1  0  0  0  0  0  0  0  0  0
   10.7611  -17.1595   24.5780 C   0  0  0  0  0  0  0  0  0  0  0  0
   11.6127  -18.3507   24.4532 C   0  0  0  0  0  0  0  0  0  0  0  0
   12.6101  -18.4301   23.4090 C   0  0  0  0  0  0  0  0  0  0  0  0
   13.0043  -17.4705   22.7388 O   0  0  0  0  0  0  0  0  0  0  0  0
   10.0836  -17.6135   26.9373 C   0  0  0  0  0  0  0  0  0  0  0  0
   10.1502  -16.7916   27.9097 O   0  0  0  0  0  0  0  0  0  0  0  0
   13.2258  -19.6638   23.0722 O   0  0  0  0  0  0  0  0  0  0  0  0
   10.3695  -18.9392   27.2015 O   0  0  0  0  0  0  0  0  0  0  0  0
  2  4  1  0
  2  1  1  1
  3  2  1  0
  5  4  1  0
  5  6  1  6
  7  5  1  0
  8  7  2  0
 10  9  1  0
 10 12  1  0
 11 10  2  0
 14 13  1  1
 13 12  1  0
 14 15  1  0
 15  7  1  0
 16 18  1  0
 16 14  1  0
 17 16  2  0
 19 24  1  0
 19 18  1  0
 19 20  1  6
 21 20  1  0
 22 26  1  0
 22 21  1  0
 23 22  2  0
 24 27  1  0
 25 24  2  0
M  END
$$$$
