IER.pdb
     RDKit          3D

 29 28  0  0  1  0  0  0  0  0999 V2000
    7.0979  -11.6322   18.6448 C   0  0  0  0  0  0  0  0  0  0  0  0
    7.8197  -12.6467   17.8271 C   0  0  0  0  0  0  0  0  0  0  0  0
    8.8443  -13.4560   18.5447 C   0  0  2  0  0  0  0  0  0  0  0  0
    9.8618  -12.6081   19.2745 C   0  0  0  0  0  0  0  0  0  0  0  0
    9.5350  -14.4947   17.6957 C   0  0  2  0  0  0  0  0  0  0  0  0
    8.6050  -15.2701   16.9722 N   0  0  0  0  0  0  0  0  0  0  0  0
   10.4339  -15.2666   18.5780 C   0  0  0  0  0  0  0  0  0  0  0  0
    9.9105  -16.0671   19.3927 O   0  0  0  0  0  0  0  0  0  0  0  0
   11.8240  -15.1388   18.5382 N   0  0  0  0  0  0  0  0  0  0  0  0
   12.7496  -15.9241   19.3324 C   0  0  1  0  0  0  0  0  0  0  0  0
   14.1178  -15.6530   18.7239 C   0  0  0  0  0  0  0  0  0  0  0  0
   14.5977  -14.2567   18.9029 C   0  0  0  0  0  0  0  0  0  0  0  0
   16.0017  -14.2124   18.3687 C   0  0  0  0  0  0  0  0  0  0  0  0
   17.0093  -14.0822   19.1087 O   0  0  0  0  0  0  0  0  0  0  0  0
   12.6531  -15.4400   20.7178 C   0  0  0  0  0  0  0  0  0  0  0  0
   12.2727  -14.2730   20.9265 O   0  0  0  0  0  0  0  0  0  0  0  0
   16.2322  -14.3176   16.9971 O   0  0  0  0  0  0  0  0  0  0  0  0
    7.2593  -16.9134   25.5836 N   0  0  0  0  0  0  0  0  0  0  0  0
    7.0172  -15.6009   25.0989 C   0  0  0  0  0  0  0  0  0  0  0  0
    6.4259  -14.7585   25.8680 N   0  0  0  0  0  0  0  0  0  0  0  0
    7.4120  -15.2086   23.7934 N   0  0  0  0  0  0  0  0  0  0  0  0
    8.3646  -16.0090   23.0759 C   0  0  0  0  0  0  0  0  0  0  0  0
    9.8029  -15.6327   23.4792 C   0  0  0  0  0  0  0  0  0  0  0  0
   10.7295  -16.4952   22.7005 C   0  0  0  0  0  0  0  0  0  0  0  0
   12.1601  -16.2093   23.0026 C   0  0  2  0  0  0  0  0  0  0  0  0
   12.9832  -16.2743   21.7909 N   0  0  0  0  0  0  0  0  0  0  0  0
   12.7965  -17.1028   23.9737 C   0  0  0  0  0  0  0  0  0  0  0  0
   13.2740  -18.1933   23.6272 O   0  0  0  0  0  0  0  0  0  0  0  0
   12.9130  -16.8005   25.3460 O   0  0  0  0  0  0  0  0  0  0  0  0
  2  1  1  0
  3  2  1  0
  3  4  1  6
  5  3  1  0
  5  6  1  1
  7  8  2  0
  7  5  1  0
  9  7  1  0
 10  9  1  0
 11 12  1  0
 10 11  1  6
 12 13  1  0
 13 14  2  0
 15 16  2  0
 15 10  1  0
 17 13  1  0
 18 19  1  0
 19 20  2  0
 21 19  1  0
 21 22  1  0
 22 23  1  0
 23 24  1  0
 25 24  1  6
 25 27  1  0
 25 26  1  0
 26 15  1  0
 27 29  1  0
 28 27  2  0
M  END
$$$$
