IER.pdb
     RDKit          3D

 29 28  0  0  1  0  0  0  0  0999 V2000
    7.3379  -11.7113   19.3593 C   0  0  0  0  0  0  0  0  0  0  0  0
    7.5955  -12.9991   18.6565 C   0  0  0  0  0  0  0  0  0  0  0  0
    8.2272  -14.0740   19.4721 C   0  0  2  0  0  0  0  0  0  0  0  0
    9.5106  -13.6323   20.1390 C   0  0  0  0  0  0  0  0  0  0  0  0
    8.4335  -15.3791   18.7435 C   0  0  2  0  0  0  0  0  0  0  0  0
    7.2248  -15.8627   18.2007 N   0  0  0  0  0  0  0  0  0  0  0  0
    9.1120  -16.3063   19.6721 C   0  0  0  0  0  0  0  0  0  0  0  0
    8.3948  -17.0061   20.4302 O   0  0  0  0  0  0  0  0  0  0  0  0
   10.5016  -16.4295   19.7355 N   0  0  0  0  0  0  0  0  0  0  0  0
   11.2083  -17.4346   20.5064 C   0  0  1  0  0  0  0  0  0  0  0  0
   12.4167  -17.8031   19.6580 C   0  0  0  0  0  0  0  0  0  0  0  0
   13.3187  -18.8050   20.2861 C   0  0  0  0  0  0  0  0  0  0  0  0
   14.4431  -19.0390   19.3168 C   0  0  0  0  0  0  0  0  0  0  0  0
   14.4712  -20.0172   18.5280 O   0  0  0  0  0  0  0  0  0  0  0  0
   11.5952  -16.8122   21.7815 C   0  0  0  0  0  0  0  0  0  0  0  0
   11.9340  -15.6142   21.7925 O   0  0  0  0  0  0  0  0  0  0  0  0
   15.5179  -18.1516   19.2642 O   0  0  0  0  0  0  0  0  0  0  0  0
    9.1027  -13.9825   27.9488 N   0  0  0  0  0  0  0  0  0  0  0  0
    9.8858  -14.7549   28.8468 C   0  0  0  0  0  0  0  0  0  0  0  0
   10.5297  -14.1510   29.7803 N   0  0  0  0  0  0  0  0  0  0  0  0
    9.9690  -16.1669   28.7312 N   0  0  0  0  0  0  0  0  0  0  0  0
    9.7964  -16.7790   27.4434 C   0  0  0  0  0  0  0  0  0  0  0  0
   10.9467  -16.3862   26.4970 C   0  0  0  0  0  0  0  0  0  0  0  0
   10.7137  -17.0682   25.1973 C   0  0  0  0  0  0  0  0  0  0  0  0
   11.8256  -16.8440   24.2312 C   0  0  2  0  0  0  0  0  0  0  0  0
   11.5849  -17.5509   22.9694 N   0  0  0  0  0  0  0  0  0  0  0  0
   13.1552  -17.2618   24.6830 C   0  0  0  0  0  0  0  0  0  0  0  0
   13.9804  -16.4368   25.1022 O   0  0  0  0  0  0  0  0  0  0  0  0
   13.5909  -18.6028   24.6767 O   0  0  0  0  0  0  0  0  0  0  0  0
  2  1  1  0
  3  2  1  0
  3  4  1  6
  5  3  1  0
  5  6  1  1
  7  8  2  0
  7  5  1  0
  9  7  1  0
 10  9  1  0
 11 12  1  0
 10 11  1  6
 12 13  1  0
 13 14  2  0
 15 16  2  0
 15 10  1  0
 17 13  1  0
 18 19  1  0
 19 20  2  0
 21 19  1  0
 21 22  1  0
 22 23  1  0
 23 24  1  0
 25 24  1  1
 25 27  1  0
 25 26  1  0
 26 15  1  0
 27 29  1  0
 28 27  2  0
M  END
$$$$
