IER.pdb
     RDKit          3D

 29 28  0  0  1  0  0  0  0  0999 V2000
    7.3883  -11.4924   19.4303 C   0  0  0  0  0  0  0  0  0  0  0  0
    7.9140  -12.4977   18.4650 C   0  0  0  0  0  0  0  0  0  0  0  0
    8.7877  -13.5597   19.0380 C   0  0  2  0  0  0  0  0  0  0  0  0
    9.9409  -13.0049   19.8437 C   0  0  0  0  0  0  0  0  0  0  0  0
    9.2834  -14.5755   18.0383 C   0  0  2  0  0  0  0  0  0  0  0  0
    8.2240  -15.1014   17.2697 N   0  0  0  0  0  0  0  0  0  0  0  0
   10.0727  -15.5815   18.7780 C   0  0  0  0  0  0  0  0  0  0  0  0
    9.4472  -16.4373   19.4527 O   0  0  0  0  0  0  0  0  0  0  0  0
   11.4686  -15.6132   18.7538 N   0  0  0  0  0  0  0  0  0  0  0  0
   12.2882  -16.5345   19.5178 C   0  0  1  0  0  0  0  0  0  0  0  0
   13.6273  -16.5615   18.7954 C   0  0  0  0  0  0  0  0  0  0  0  0
   13.6164  -17.3293   17.5218 C   0  0  0  0  0  0  0  0  0  0  0  0
   14.5109  -16.5906   16.5664 C   0  0  0  0  0  0  0  0  0  0  0  0
   14.2062  -16.3895   15.3637 O   0  0  0  0  0  0  0  0  0  0  0  0
   12.4031  -15.9885   20.8785 C   0  0  0  0  0  0  0  0  0  0  0  0
   12.6807  -14.7838   21.0263 O   0  0  0  0  0  0  0  0  0  0  0  0
   15.7397  -16.0934   17.0004 O   0  0  0  0  0  0  0  0  0  0  0  0
    6.0442  -18.1003   25.0005 N   0  0  0  0  0  0  0  0  0  0  0  0
    7.0072  -19.1245   25.2006 C   0  0  0  0  0  0  0  0  0  0  0  0
    6.6277  -20.2342   25.7252 N   0  0  0  0  0  0  0  0  0  0  0  0
    8.3669  -18.9445   24.8360 N   0  0  0  0  0  0  0  0  0  0  0  0
    8.8731  -17.6146   24.6410 C   0  0  0  0  0  0  0  0  0  0  0  0
   10.3228  -17.6563   24.1215 C   0  0  0  0  0  0  0  0  0  0  0  0
   10.7553  -16.2550   23.8802 C   0  0  0  0  0  0  0  0  0  0  0  0
   12.1325  -16.1750   23.3172 C   0  0  2  0  0  0  0  0  0  0  0  0
   12.2047  -16.8064   21.9959 N   0  0  0  0  0  0  0  0  0  0  0  0
   13.1863  -16.7975   24.1224 C   0  0  0  0  0  0  0  0  0  0  0  0
   12.9966  -17.8735   24.7086 O   0  0  0  0  0  0  0  0  0  0  0  0
   14.4686  -16.2355   24.2903 O   0  0  0  0  0  0  0  0  0  0  0  0
  2  1  1  0
  3  2  1  0
  3  4  1  6
  5  3  1  0
  5  6  1  1
  7  8  2  0
  7  5  1  0
  9  7  1  0
 10  9  1  0
 11 12  1  0
 10 11  1  6
 12 13  1  0
 13 14  2  0
 15 16  2  0
 15 10  1  0
 17 13  1  0
 18 19  1  0
 19 20  2  0
 21 19  1  0
 21 22  1  0
 22 23  1  0
 23 24  1  0
 25 24  1  1
 25 27  1  0
 25 26  1  0
 26 15  1  0
 27 29  1  0
 28 27  2  0
M  END
$$$$
