IER.pdb
     RDKit          3D

 29 28  0  0  1  0  0  0  0  0999 V2000
    7.4221  -12.3288   18.1569 C   0  0  0  0  0  0  0  0  0  0  0  0
    6.7627  -13.2356   19.1376 C   0  0  0  0  0  0  0  0  0  0  0  0
    7.6407  -14.2545   19.7786 C   0  0  2  0  0  0  0  0  0  0  0  0
    8.5900  -13.6607   20.7950 C   0  0  0  0  0  0  0  0  0  0  0  0
    8.3888  -15.1395   18.8123 C   0  0  2  0  0  0  0  0  0  0  0  0
    7.5193  -15.7166   17.8633 N   0  0  0  0  0  0  0  0  0  0  0  0
    9.1707  -16.1081   19.6077 C   0  0  0  0  0  0  0  0  0  0  0  0
    8.5434  -17.0176   20.2060 O   0  0  0  0  0  0  0  0  0  0  0  0
   10.5617  -16.0482   19.7160 N   0  0  0  0  0  0  0  0  0  0  0  0
   11.3736  -16.9856   20.4686 C   0  0  1  0  0  0  0  0  0  0  0  0
   12.6058  -17.2189   19.6066 C   0  0  0  0  0  0  0  0  0  0  0  0
   13.6220  -18.1107   20.2261 C   0  0  0  0  0  0  0  0  0  0  0  0
   13.1101  -19.5157   20.0763 C   0  0  0  0  0  0  0  0  0  0  0  0
   12.5726  -20.1500   21.0189 O   0  0  0  0  0  0  0  0  0  0  0  0
   11.7062  -16.3425   21.7487 C   0  0  0  0  0  0  0  0  0  0  0  0
   12.0128  -15.1359   21.7588 O   0  0  0  0  0  0  0  0  0  0  0  0
   13.2206  -20.1740   18.8515 O   0  0  0  0  0  0  0  0  0  0  0  0
   11.1816  -13.5226   28.7766 N   0  0  0  0  0  0  0  0  0  0  0  0
   10.7079  -14.7864   29.2178 C   0  0  0  0  0  0  0  0  0  0  0  0
   11.0963  -15.2261   30.3608 N   0  0  0  0  0  0  0  0  0  0  0  0
    9.8233  -15.5637   28.4258 N   0  0  0  0  0  0  0  0  0  0  0  0
   10.3525  -16.6239   27.6141 C   0  0  0  0  0  0  0  0  0  0  0  0
   11.3241  -16.0652   26.5573 C   0  0  0  0  0  0  0  0  0  0  0  0
   11.0091  -16.7238   25.2628 C   0  0  0  0  0  0  0  0  0  0  0  0
   11.9844  -16.3698   24.1936 C   0  0  2  0  0  0  0  0  0  0  0  0
   11.6806  -17.0714   22.9425 N   0  0  0  0  0  0  0  0  0  0  0  0
   13.3889  -16.6614   24.4914 C   0  0  0  0  0  0  0  0  0  0  0  0
   13.8734  -17.7815   24.2725 O   0  0  0  0  0  0  0  0  0  0  0  0
   14.2792  -15.7139   25.0374 O   0  0  0  0  0  0  0  0  0  0  0  0
  2  1  1  0
  3  2  1  0
  3  4  1  6
  5  3  1  0
  5  6  1  6
  7  8  2  0
  7  5  1  0
  9  7  1  0
 10  9  1  0
 11 12  1  0
 10 11  1  6
 12 13  1  0
 13 14  2  0
 15 16  2  0
 15 10  1  0
 17 13  1  0
 18 19  1  0
 19 20  2  0
 21 19  1  0
 21 22  1  0
 22 23  1  0
 23 24  1  0
 25 24  1  1
 25 27  1  0
 25 26  1  0
 26 15  1  0
 27 29  1  0
 28 27  2  0
M  END
$$$$
