IER.pdb
     RDKit          3D

 29 28  0  0  1  0  0  0  0  0999 V2000
    7.5082  -12.5510   21.7202 C   0  0  0  0  0  0  0  0  0  0  0  0
    7.7472  -13.6794   20.7777 C   0  0  0  0  0  0  0  0  0  0  0  0
    8.7723  -13.4440   19.7225 C   0  0  2  0  0  0  0  0  0  0  0  0
    8.5799  -12.1327   18.9942 C   0  0  0  0  0  0  0  0  0  0  0  0
    8.9343  -14.5755   18.7375 C   0  0  2  0  0  0  0  0  0  0  0  0
    7.7511  -14.7898   18.0000 N   0  0  0  0  0  0  0  0  0  0  0  0
    9.4212  -15.7525   19.4858 C   0  0  0  0  0  0  0  0  0  0  0  0
    8.5680  -16.5706   19.9118 O   0  0  0  0  0  0  0  0  0  0  0  0
   10.7763  -15.9832   19.7322 N   0  0  0  0  0  0  0  0  0  0  0  0
   11.2984  -17.0908   20.5099 C   0  0  1  0  0  0  0  0  0  0  0  0
   12.6806  -17.3594   19.9327 C   0  0  0  0  0  0  0  0  0  0  0  0
   12.6663  -17.9295   18.5592 C   0  0  0  0  0  0  0  0  0  0  0  0
   14.1006  -18.0401   18.1242 C   0  0  0  0  0  0  0  0  0  0  0  0
   14.8375  -19.0071   18.4432 O   0  0  0  0  0  0  0  0  0  0  0  0
   11.3591  -16.6479   21.9110 C   0  0  0  0  0  0  0  0  0  0  0  0
   11.9826  -15.6072   22.1908 O   0  0  0  0  0  0  0  0  0  0  0  0
   14.6703  -17.0438   17.3316 O   0  0  0  0  0  0  0  0  0  0  0  0
    6.7863  -13.4227   27.3707 N   0  0  0  0  0  0  0  0  0  0  0  0
    6.6973  -13.0127   26.0142 C   0  0  0  0  0  0  0  0  0  0  0  0
    6.3212  -11.8116   25.7561 N   0  0  0  0  0  0  0  0  0  0  0  0
    7.0123  -13.8978   24.9505 N   0  0  0  0  0  0  0  0  0  0  0  0
    7.5955  -15.1762   25.2479 C   0  0  0  0  0  0  0  0  0  0  0  0
    8.9634  -15.3233   24.5549 C   0  0  0  0  0  0  0  0  0  0  0  0
    9.5048  -16.6621   24.9062 C   0  0  0  0  0  0  0  0  0  0  0  0
   10.8448  -16.9086   24.3032 C   0  0  2  0  0  0  0  0  0  0  0  0
   10.7272  -17.3818   22.9205 N   0  0  0  0  0  0  0  0  0  0  0  0
   11.6844  -17.8883   24.9972 C   0  0  0  0  0  0  0  0  0  0  0  0
   11.8838  -19.0158   24.5215 O   0  0  0  0  0  0  0  0  0  0  0  0
   12.3167  -17.6324   26.2313 O   0  0  0  0  0  0  0  0  0  0  0  0
  2  1  1  0
  3  2  1  0
  3  4  1  6
  5  3  1  0
  5  6  1  1
  7  8  2  0
  7  5  1  0
  9  7  1  0
 10  9  1  0
 11 12  1  0
 10 11  1  6
 12 13  1  0
 13 14  2  0
 15 16  2  0
 15 10  1  0
 17 13  1  0
 18 19  1  0
 19 20  2  0
 21 19  1  0
 21 22  1  0
 22 23  1  0
 23 24  1  0
 25 24  1  1
 25 27  1  0
 25 26  1  0
 26 15  1  0
 27 29  1  0
 28 27  2  0
M  END
$$$$
