IER.pdb
     RDKit          3D

 29 28  0  0  1  0  0  0  0  0999 V2000
    7.1556  -11.9331   18.5844 C   0  0  0  0  0  0  0  0  0  0  0  0
    7.2993  -13.2923   19.1766 C   0  0  0  0  0  0  0  0  0  0  0  0
    8.0479  -13.3694   20.4625 C   0  0  2  0  0  0  0  0  0  0  0  0
    9.4089  -12.7138   20.3937 C   0  0  0  0  0  0  0  0  0  0  0  0
    8.1597  -14.7570   21.0445 C   0  0  2  0  0  0  0  0  0  0  0  0
    6.9079  -15.4065   21.0719 N   0  0  0  0  0  0  0  0  0  0  0  0
    8.8262  -14.6379   22.3575 C   0  0  0  0  0  0  0  0  0  0  0  0
    9.9855  -14.1542   22.3849 O   0  0  0  0  0  0  0  0  0  0  0  0
    8.2213  -15.0386   23.5507 N   0  0  0  0  0  0  0  0  0  0  0  0
    8.8212  -14.9113   24.8653 C   0  0  1  0  0  0  0  0  0  0  0  0
    7.7348  -14.2959   25.7353 C   0  0  0  0  0  0  0  0  0  0  0  0
    7.5330  -12.8387   25.5171 C   0  0  0  0  0  0  0  0  0  0  0  0
    6.4664  -12.4028   26.4819 C   0  0  0  0  0  0  0  0  0  0  0  0
    5.8421  -13.2080   27.2180 O   0  0  0  0  0  0  0  0  0  0  0  0
    9.1867  -16.2648   25.3094 C   0  0  0  0  0  0  0  0  0  0  0  0
    8.3676  -17.1914   25.1655 O   0  0  0  0  0  0  0  0  0  0  0  0
    6.1299  -11.0535   26.5905 O   0  0  0  0  0  0  0  0  0  0  0  0
   15.6730  -17.9153   22.5174 N   0  0  0  0  0  0  0  0  0  0  0  0
   14.9950  -17.0116   23.3777 C   0  0  0  0  0  0  0  0  0  0  0  0
   15.5560  -15.8910   23.6610 N   0  0  0  0  0  0  0  0  0  0  0  0
   13.7227  -17.3223   23.9243 N   0  0  0  0  0  0  0  0  0  0  0  0
   12.9668  -18.4119   23.3728 C   0  0  0  0  0  0  0  0  0  0  0  0
   11.6299  -18.5782   24.1198 C   0  0  0  0  0  0  0  0  0  0  0  0
   11.9054  -18.4376   25.5734 C   0  0  0  0  0  0  0  0  0  0  0  0
   10.7426  -17.8811   26.3204 C   0  0  2  0  0  0  0  0  0  0  0  0
   10.4362  -16.5144   25.8867 N   0  0  0  0  0  0  0  0  0  0  0  0
   10.8916  -17.8207   27.7766 C   0  0  0  0  0  0  0  0  0  0  0  0
   10.8685  -16.7383   28.3809 O   0  0  0  0  0  0  0  0  0  0  0  0
   11.0689  -18.9614   28.5863 O   0  0  0  0  0  0  0  0  0  0  0  0
  2  1  1  0
  3  2  1  0
  3  4  1  6
  5  3  1  0
  5  6  1  1
  7  8  2  0
  7  5  1  0
  9  7  1  0
 10  9  1  0
 11 12  1  0
 10 11  1  1
 12 13  1  0
 13 14  2  0
 15 16  2  0
 15 10  1  0
 17 13  1  0
 18 19  1  0
 19 20  2  0
 21 19  1  0
 21 22  1  0
 22 23  1  0
 23 24  1  0
 25 24  1  6
 25 27  1  0
 25 26  1  0
 26 15  1  0
 27 29  1  0
 28 27  2  0
M  END
$$$$
