IER.pdb
     RDKit          3D

 29 28  0  0  1  0  0  0  0  0999 V2000
    9.5794  -12.7681   17.0061 C   0  0  0  0  0  0  0  0  0  0  0  0
    8.4216  -13.1859   17.8449 C   0  0  0  0  0  0  0  0  0  0  0  0
    8.7320  -14.1030   18.9774 C   0  0  2  0  0  0  0  0  0  0  0  0
    9.5885  -15.2797   18.5668 C   0  0  0  0  0  0  0  0  0  0  0  0
    7.5280  -14.5732   19.7558 C   0  0  2  0  0  0  0  0  0  0  0  0
    6.7722  -13.4861   20.2421 N   0  0  0  0  0  0  0  0  0  0  0  0
    8.0052  -15.5108   20.7929 C   0  0  0  0  0  0  0  0  0  0  0  0
    8.4443  -15.0251   21.8652 O   0  0  0  0  0  0  0  0  0  0  0  0
    7.9856  -16.8970   20.6246 N   0  0  0  0  0  0  0  0  0  0  0  0
    8.3550  -17.8592   21.6454 C   0  0  1  0  0  0  0  0  0  0  0  0
    8.0090  -19.2163   21.0501 C   0  0  0  0  0  0  0  0  0  0  0  0
    8.4828  -20.3730   21.8558 C   0  0  0  0  0  0  0  0  0  0  0  0
    8.0927  -21.6122   21.1003 C   0  0  0  0  0  0  0  0  0  0  0  0
    7.8811  -21.6175   19.8614 O   0  0  0  0  0  0  0  0  0  0  0  0
    9.7987  -17.7094   21.8820 C   0  0  0  0  0  0  0  0  0  0  0  0
   10.5691  -17.6451   20.9060 O   0  0  0  0  0  0  0  0  0  0  0  0
    7.9506  -22.8261   21.7726 O   0  0  0  0  0  0  0  0  0  0  0  0
   13.2092  -14.2482   18.0303 N   0  0  0  0  0  0  0  0  0  0  0  0
   14.4088  -14.5342   18.7342 C   0  0  0  0  0  0  0  0  0  0  0  0
   15.5283  -14.1731   18.2175 N   0  0  0  0  0  0  0  0  0  0  0  0
   14.3921  -15.2056   19.9845 N   0  0  0  0  0  0  0  0  0  0  0  0
   13.2106  -15.1473   20.7989 C   0  0  0  0  0  0  0  0  0  0  0  0
   13.3697  -16.0312   22.0504 C   0  0  0  0  0  0  0  0  0  0  0  0
   12.0777  -16.0095   22.7846 C   0  0  0  0  0  0  0  0  0  0  0  0
   11.7300  -17.3387   23.3611 C   0  0  2  0  0  0  0  0  0  0  0  0
   10.3061  -17.6397   23.1838 N   0  0  0  0  0  0  0  0  0  0  0  0
   12.0045  -17.5038   24.7908 C   0  0  0  0  0  0  0  0  0  0  0  0
   11.0842  -17.5620   25.6196 O   0  0  0  0  0  0  0  0  0  0  0  0
   13.3057  -17.6068   25.3242 O   0  0  0  0  0  0  0  0  0  0  0  0
  2  1  1  0
  3  2  1  0
  3  4  1  6
  5  3  1  0
  5  6  1  1
  7  8  2  0
  7  5  1  0
  9  7  1  0
 10  9  1  0
 11 12  1  0
 10 11  1  6
 12 13  1  0
 13 14  2  0
 15 16  2  0
 15 10  1  0
 17 13  1  0
 18 19  1  0
 19 20  2  0
 21 19  1  0
 21 22  1  0
 22 23  1  0
 23 24  1  0
 25 24  1  1
 25 27  1  0
 25 26  1  0
 26 15  1  0
 27 29  1  0
 28 27  2  0
M  END
$$$$
