IPN.pdb
     RDKit          3D

 24 24  0  0  1  0  0  0  0  0999 V2000
   25.7995  -16.3653  -14.9689 C   0  0  0  0  0  0  0  0  0  0  0  0
   26.0080  -17.7880  -15.3938 C   0  0  0  0  0  0  0  0  0  0  0  0
   27.4174  -18.0615  -15.8541 C   0  0  2  0  0  0  0  0  0  0  0  0
   27.6679  -17.2665  -17.1197 C   0  0  0  0  0  0  0  0  0  0  0  0
   27.7100  -19.5326  -16.0597 C   0  0  2  0  0  0  0  0  0  0  0  0
   27.0508  -19.9343  -17.2571 N   0  0  0  0  0  0  0  0  0  0  0  0
   27.4800  -20.3618  -14.8809 C   0  0  0  0  0  0  0  0  0  0  0  0
   26.4968  -21.1753  -14.9648 O   0  0  0  0  0  0  0  0  0  0  0  0
   28.2327  -20.3506  -13.6690 N   0  0  0  0  0  0  0  0  0  0  0  0
   29.3765  -19.6017  -13.2490 C   0  0  0  0  0  0  0  0  0  0  0  0
   30.2471  -20.6389  -12.5592 C   0  0  0  0  0  0  0  0  0  0  0  0
   29.2107  -21.4803  -11.8404 C   0  0  0  0  0  0  0  0  0  0  0  0
   27.9019  -21.2126  -12.5379 C   0  0  1  0  0  0  0  0  0  0  0  0
   26.9900  -20.5654  -11.5667 C   0  0  0  0  0  0  0  0  0  0  0  0
   27.0531  -19.3183  -11.4923 O   0  0  0  0  0  0  0  0  0  0  0  0
   22.2918  -21.0170   -8.4896 N   0  0  0  0  0  0  0  0  0  0  0  0
   22.4610  -20.7171   -9.8740 C   0  0  0  0  0  0  0  0  0  0  0  0
   21.6076  -19.9641  -10.4073 O   0  0  0  0  0  0  0  0  0  0  0  0
   23.6177  -21.3017  -10.5980 C   0  0  0  0  0  0  0  0  0  0  0  0
   24.9143  -20.7677  -10.0934 C   0  0  2  0  0  0  0  0  0  0  0  0
   26.0868  -21.2634  -10.7512 N   0  0  0  0  0  0  0  0  0  0  0  0
   24.9930  -20.8295   -8.6165 C   0  0  0  0  0  0  0  0  0  0  0  0
   25.6888  -21.7699   -8.1112 O   0  0  0  0  0  0  0  0  0  0  0  0
   24.3706  -19.9537   -7.7717 O   0  0  0  0  0  0  0  0  0  0  0  0
  1  2  1  0
  2  3  1  0
  3  4  1  6
  3  5  1  0
  5  7  1  0
  5  6  1  6
  7  8  2  0
  7  9  1  0
  9 13  1  0
  9 10  1  0
 10 11  1  0
 12 11  1  0
 13 12  1  0
 13 14  1  1
 15 14  2  0
 16 17  1  0
 17 19  1  0
 17 18  2  0
 20 19  1  6
 20 22  1  0
 20 21  1  0
 21 14  1  0
 22 24  1  0
 23 22  2  0
M  END
$$$$
