IPN.pdb
     RDKit          3D

 24 24  0  0  1  0  0  0  0  0999 V2000
   20.1616  -16.7136  -20.2153 C   0  0  0  0  0  0  0  0  0  0  0  0
   21.1346  -16.8383  -19.0815 C   0  0  0  0  0  0  0  0  0  0  0  0
   21.0528  -15.6885  -18.1098 C   0  0  2  0  0  0  0  0  0  0  0  0
   21.4986  -14.4285  -18.8242 C   0  0  0  0  0  0  0  0  0  0  0  0
   21.8471  -15.9134  -16.8407 C   0  0  2  0  0  0  0  0  0  0  0  0
   21.4125  -17.1488  -16.2800 N   0  0  0  0  0  0  0  0  0  0  0  0
   21.8787  -14.7655  -15.9400 C   0  0  0  0  0  0  0  0  0  0  0  0
   20.8245  -14.5887  -15.2381 O   0  0  0  0  0  0  0  0  0  0  0  0
   22.9524  -13.8410  -15.7723 N   0  0  0  0  0  0  0  0  0  0  0  0
   24.2448  -13.7413  -16.3768 C   0  0  0  0  0  0  0  0  0  0  0  0
   25.1600  -13.4157  -15.2082 C   0  0  0  0  0  0  0  0  0  0  0  0
   24.2960  -12.4714  -14.3955 C   0  0  0  0  0  0  0  0  0  0  0  0
   22.8775  -12.7202  -14.8395 C   0  0  1  0  0  0  0  0  0  0  0  0
   22.3708  -11.4789  -15.4689 C   0  0  0  0  0  0  0  0  0  0  0  0
   22.5715  -11.3579  -16.6976 O   0  0  0  0  0  0  0  0  0  0  0  0
   17.9791   -7.4502  -15.5984 N   0  0  0  0  0  0  0  0  0  0  0  0
   19.1480   -8.0526  -16.1515 C   0  0  0  0  0  0  0  0  0  0  0  0
   19.6921   -7.4671  -17.1216 O   0  0  0  0  0  0  0  0  0  0  0  0
   19.6504   -9.3183  -15.5604 C   0  0  0  0  0  0  0  0  0  0  0  0
   21.1156   -9.2622  -15.2942 C   0  0  2  0  0  0  0  0  0  0  0  0
   21.6975  -10.4636  -14.7734 N   0  0  0  0  0  0  0  0  0  0  0  0
   21.4868   -8.0469  -14.5348 C   0  0  0  0  0  0  0  0  0  0  0  0
   21.5945   -8.1629  -13.2705 O   0  0  0  0  0  0  0  0  0  0  0  0
   21.7148   -6.8226  -15.0982 O   0  0  0  0  0  0  0  0  0  0  0  0
  1  2  1  0
  2  3  1  0
  3  4  1  6
  3  5  1  0
  5  7  1  0
  5  6  1  1
  7  8  2  0
  7  9  1  0
  9 13  1  0
  9 10  1  0
 10 11  1  0
 12 11  1  0
 13 12  1  0
 13 14  1  6
 15 14  2  0
 16 17  1  0
 17 19  1  0
 17 18  2  0
 20 19  1  1
 20 22  1  0
 20 21  1  0
 21 14  1  0
 22 24  1  0
 23 22  2  0
M  END
$$$$
