IPN.pdb
     RDKit          3D

 24 24  0  0  1  0  0  0  0  0999 V2000
   34.9807  -33.2517  -13.9592 C   0  0  0  0  0  0  0  0  0  0  0  0
   35.7686  -34.3997  -13.4033 C   0  0  0  0  0  0  0  0  0  0  0  0
   35.2107  -34.9179  -12.1020 C   0  0  2  0  0  0  0  0  0  0  0  0
   35.3810  -33.8416  -11.0487 C   0  0  0  0  0  0  0  0  0  0  0  0
   35.8297  -36.2264  -11.6586 C   0  0  2  0  0  0  0  0  0  0  0  0
   35.7342  -37.1344  -12.7523 N   0  0  0  0  0  0  0  0  0  0  0  0
   35.3516  -36.7106  -10.3675 C   0  0  0  0  0  0  0  0  0  0  0  0
   34.2691  -37.3906  -10.4023 O   0  0  0  0  0  0  0  0  0  0  0  0
   35.9650  -36.5011   -9.0965 N   0  0  0  0  0  0  0  0  0  0  0  0
   37.1846  -35.8644   -8.7056 C   0  0  0  0  0  0  0  0  0  0  0  0
   37.7609  -36.8088   -7.6639 C   0  0  0  0  0  0  0  0  0  0  0  0
   36.5125  -37.2489   -6.9246 C   0  0  0  0  0  0  0  0  0  0  0  0
   35.3590  -36.9664   -7.8523 C   0  0  1  0  0  0  0  0  0  0  0  0
   34.4975  -35.9451   -7.2131 C   0  0  0  0  0  0  0  0  0  0  0  0
   34.5542  -34.7917   -7.6937 O   0  0  0  0  0  0  0  0  0  0  0  0
   29.3629  -33.8348   -6.9239 N   0  0  0  0  0  0  0  0  0  0  0  0
   30.5459  -34.0612   -6.1593 C   0  0  0  0  0  0  0  0  0  0  0  0
   30.6231  -33.4961   -5.0393 O   0  0  0  0  0  0  0  0  0  0  0  0
   31.6046  -34.9382   -6.7194 C   0  0  0  0  0  0  0  0  0  0  0  0
   32.5357  -35.4264   -5.6632 C   0  0  2  0  0  0  0  0  0  0  0  0
   33.6474  -36.2024   -6.1272 N   0  0  0  0  0  0  0  0  0  0  0  0
   31.8055  -36.0520   -4.5377 C   0  0  0  0  0  0  0  0  0  0  0  0
   31.3021  -37.2047   -4.7417 O   0  0  0  0  0  0  0  0  0  0  0  0
   31.6367  -35.4757   -3.3098 O   0  0  0  0  0  0  0  0  0  0  0  0
  1  2  1  0
  2  3  1  0
  3  4  1  1
  3  5  1  0
  5  7  1  0
  5  6  1  6
  7  8  2  0
  7  9  1  0
  9 13  1  0
  9 10  1  0
 10 11  1  0
 12 11  1  0
 13 12  1  0
 13 14  1  1
 15 14  2  0
 16 17  1  0
 17 19  1  0
 17 18  2  0
 20 19  1  6
 20 22  1  0
 20 21  1  0
 21 14  1  0
 22 24  1  0
 23 22  2  0
M  END
$$$$
