IPN.pdb
     RDKit          3D

 24 24  0  0  1  0  0  0  0  0999 V2000
   21.4289  -20.8968   -9.5017 C   0  0  0  0  0  0  0  0  0  0  0  0
   22.9012  -21.1726   -9.5678 C   0  0  0  0  0  0  0  0  0  0  0  0
   23.5769  -20.4751  -10.7209 C   0  0  2  0  0  0  0  0  0  0  0  0
   22.8343  -20.8299  -11.9935 C   0  0  0  0  0  0  0  0  0  0  0  0
   25.0527  -20.7924  -10.8368 C   0  0  2  0  0  0  0  0  0  0  0  0
   25.6423  -20.5456   -9.5635 N   0  0  0  0  0  0  0  0  0  0  0  0
   25.7104  -20.1815  -11.9876 C   0  0  0  0  0  0  0  0  0  0  0  0
   26.0541  -18.9587  -11.8389 O   0  0  0  0  0  0  0  0  0  0  0  0
   25.9998  -20.8066  -13.2370 N   0  0  0  0  0  0  0  0  0  0  0  0
   25.7397  -22.1184  -13.7441 C   0  0  0  0  0  0  0  0  0  0  0  0
   27.0375  -22.4948  -14.4395 C   0  0  0  0  0  0  0  0  0  0  0  0
   27.4407  -21.1766  -15.0709 C   0  0  0  0  0  0  0  0  0  0  0  0
   26.6923  -20.1083  -14.3161 C   0  0  1  0  0  0  0  0  0  0  0  0
   25.7656  -19.4443  -15.2617 C   0  0  0  0  0  0  0  0  0  0  0  0
   24.6631  -20.0062  -15.4448 O   0  0  0  0  0  0  0  0  0  0  0  0
   23.8697  -14.0511  -17.0342 N   0  0  0  0  0  0  0  0  0  0  0  0
   24.5733  -15.1823  -17.5447 C   0  0  0  0  0  0  0  0  0  0  0  0
   24.4064  -15.4631  -18.7584 O   0  0  0  0  0  0  0  0  0  0  0  0
   25.4506  -15.9540  -16.6289 C   0  0  0  0  0  0  0  0  0  0  0  0
   25.1695  -17.4161  -16.6937 C   0  0  2  0  0  0  0  0  0  0  0  0
   26.0570  -18.2519  -15.9407 N   0  0  0  0  0  0  0  0  0  0  0  0
   24.9662  -17.8722  -18.0873 C   0  0  0  0  0  0  0  0  0  0  0  0
   26.0009  -18.2368  -18.7354 O   0  0  0  0  0  0  0  0  0  0  0  0
   23.7532  -17.9223  -18.7153 O   0  0  0  0  0  0  0  0  0  0  0  0
  1  2  1  0
  2  3  1  0
  3  4  1  6
  3  5  1  0
  5  7  1  0
  5  6  1  1
  7  8  2  0
  7  9  1  0
  9 13  1  0
  9 10  1  0
 10 11  1  0
 12 11  1  0
 13 12  1  0
 13 14  1  6
 15 14  2  0
 16 17  1  0
 17 19  1  0
 17 18  2  0
 20 19  1  6
 20 22  1  0
 20 21  1  0
 21 14  1  0
 22 24  1  0
 23 22  2  0
M  END
$$$$
