IPN.pdb
     RDKit          3D

 24 24  0  0  1  0  0  0  0  0999 V2000
   14.8547  -11.3182  -17.4488 C   0  0  0  0  0  0  0  0  0  0  0  0
   16.2982  -11.7162  -17.5235 C   0  0  0  0  0  0  0  0  0  0  0  0
   17.1773  -10.9087  -16.6025 C   0  0  2  0  0  0  0  0  0  0  0  0
   17.2344   -9.4869  -17.1239 C   0  0  0  0  0  0  0  0  0  0  0  0
   18.5649  -11.4892  -16.4304 C   0  0  2  0  0  0  0  0  0  0  0  0
   18.4112  -12.8462  -16.0246 N   0  0  0  0  0  0  0  0  0  0  0  0
   19.4646  -10.6679  -15.6267 C   0  0  0  0  0  0  0  0  0  0  0  0
   19.3171  -10.7690  -14.3604 O   0  0  0  0  0  0  0  0  0  0  0  0
   20.4722   -9.7811  -16.1103 N   0  0  0  0  0  0  0  0  0  0  0  0
   20.9198   -9.4544  -17.4288 C   0  0  0  0  0  0  0  0  0  0  0  0
   22.4335   -9.4330  -17.2956 C   0  0  0  0  0  0  0  0  0  0  0  0
   22.6124   -8.7995  -15.9298 C   0  0  0  0  0  0  0  0  0  0  0  0
   21.2979   -8.9765  -15.2144 C   0  0  1  0  0  0  0  0  0  0  0  0
   20.7312   -7.6320  -14.9594 C   0  0  0  0  0  0  0  0  0  0  0  0
   19.6526   -7.3663  -15.5345 O   0  0  0  0  0  0  0  0  0  0  0  0
   19.4293   -5.5842   -9.8585 N   0  0  0  0  0  0  0  0  0  0  0  0
   19.1604   -5.5485  -11.2591 C   0  0  0  0  0  0  0  0  0  0  0  0
   18.3377   -4.6892  -11.6646 O   0  0  0  0  0  0  0  0  0  0  0  0
   19.8562   -6.5132  -12.1474 C   0  0  0  0  0  0  0  0  0  0  0  0
   20.7054   -5.8221  -13.1584 C   0  0  2  0  0  0  0  0  0  0  0  0
   21.3288   -6.6719  -14.1293 N   0  0  0  0  0  0  0  0  0  0  0  0
   21.6383   -4.8632  -12.5248 C   0  0  0  0  0  0  0  0  0  0  0  0
   21.3103   -3.6322  -12.5489 O   0  0  0  0  0  0  0  0  0  0  0  0
   22.8167   -5.2115  -11.9261 O   0  0  0  0  0  0  0  0  0  0  0  0
  1  2  1  0
  2  3  1  0
  3  4  1  6
  3  5  1  0
  5  7  1  0
  5  6  1  1
  7  8  2  0
  7  9  1  0
  9 13  1  0
  9 10  1  0
 10 11  1  0
 12 11  1  0
 13 12  1  0
 13 14  1  6
 15 14  2  0
 16 17  1  0
 17 19  1  0
 17 18  2  0
 20 19  1  1
 20 22  1  0
 20 21  1  0
 21 14  1  0
 22 24  1  0
 23 22  2  0
M  END
$$$$
