IPN.pdb
     RDKit          3D

 24 24  0  0  1  0  0  0  0  0999 V2000
   19.0241  -18.0570    0.0204 C   0  0  0  0  0  0  0  0  0  0  0  0
   18.4528  -19.2821    0.6690 C   0  0  0  0  0  0  0  0  0  0  0  0
   18.4263  -19.1904    2.1737 C   0  0  2  0  0  0  0  0  0  0  0  0
   19.8421  -18.9575    2.6616 C   0  0  0  0  0  0  0  0  0  0  0  0
   17.8047  -20.3989    2.8409 C   0  0  2  0  0  0  0  0  0  0  0  0
   16.4880  -20.5443    2.3164 N   0  0  0  0  0  0  0  0  0  0  0  0
   17.9311  -20.4142    4.2948 C   0  0  0  0  0  0  0  0  0  0  0  0
   16.8922  -20.0415    4.9406 O   0  0  0  0  0  0  0  0  0  0  0  0
   19.0805  -20.7978    5.0479 N   0  0  0  0  0  0  0  0  0  0  0  0
   20.3637  -21.2996    4.6642 C   0  0  0  0  0  0  0  0  0  0  0  0
   20.6238  -22.4135    5.6646 C   0  0  0  0  0  0  0  0  0  0  0  0
   20.0577  -21.8193    6.9395 C   0  0  0  0  0  0  0  0  0  0  0  0
   19.1174  -20.7245    6.5057 C   0  0  1  0  0  0  0  0  0  0  0  0
   19.6529  -19.4371    7.0052 C   0  0  0  0  0  0  0  0  0  0  0  0
   20.5377  -18.8955    6.3062 O   0  0  0  0  0  0  0  0  0  0  0  0
   17.1861  -17.9092    9.9308 N   0  0  0  0  0  0  0  0  0  0  0  0
   17.3345  -16.6900    9.2049 C   0  0  0  0  0  0  0  0  0  0  0  0
   16.3668  -15.8881    9.2248 O   0  0  0  0  0  0  0  0  0  0  0  0
   18.6037  -16.4389    8.4770 C   0  0  0  0  0  0  0  0  0  0  0  0
   19.5954  -17.5286    8.7006 C   0  0  2  0  0  0  0  0  0  0  0  0
   19.2280  -18.8156    8.1890 N   0  0  0  0  0  0  0  0  0  0  0  0
   20.0642  -17.5612   10.1044 C   0  0  0  0  0  0  0  0  0  0  0  0
   19.8732  -18.6398   10.7551 O   0  0  0  0  0  0  0  0  0  0  0  0
   20.6784  -16.5178   10.7388 O   0  0  0  0  0  0  0  0  0  0  0  0
  1  2  1  0
  2  3  1  0
  3  4  1  1
  3  5  1  0
  5  7  1  0
  5  6  1  1
  7  8  2  0
  7  9  1  0
  9 13  1  0
  9 10  1  0
 10 11  1  0
 12 11  1  0
 13 12  1  0
 13 14  1  6
 15 14  2  0
 16 17  1  0
 17 19  1  0
 17 18  2  0
 20 19  1  1
 20 22  1  0
 20 21  1  0
 21 14  1  0
 22 24  1  0
 23 22  2  0
M  END
$$$$
