IPN.pdb
     RDKit          3D

 24 24  0  0  1  0  0  0  0  0999 V2000
   17.2971  -14.7097  -14.5487 C   0  0  0  0  0  0  0  0  0  0  0  0
   17.8550  -14.3838  -15.9016 C   0  0  0  0  0  0  0  0  0  0  0  0
   18.5901  -13.0678  -15.9310 C   0  0  2  0  0  0  0  0  0  0  0  0
   17.5881  -11.9571  -15.6882 C   0  0  0  0  0  0  0  0  0  0  0  0
   19.3676  -12.8395  -17.2098 C   0  0  2  0  0  0  0  0  0  0  0  0
   20.1791  -13.9905  -17.4256 N   0  0  0  0  0  0  0  0  0  0  0  0
   20.0405  -11.5464  -17.2814 C   0  0  0  0  0  0  0  0  0  0  0  0
   21.1858  -11.4909  -16.7151 O   0  0  0  0  0  0  0  0  0  0  0  0
   19.5513  -10.3630  -17.9104 N   0  0  0  0  0  0  0  0  0  0  0  0
   18.3363  -10.0701  -18.6057 C   0  0  0  0  0  0  0  0  0  0  0  0
   18.8001   -9.2683  -19.8104 C   0  0  0  0  0  0  0  0  0  0  0  0
   19.9057   -8.4228  -19.2092 C   0  0  0  0  0  0  0  0  0  0  0  0
   20.3189   -9.1213  -17.9393 C   0  0  1  0  0  0  0  0  0  0  0  0
   20.0083   -8.2245  -16.8022 C   0  0  0  0  0  0  0  0  0  0  0  0
   19.4288   -8.7479  -15.8250 O   0  0  0  0  0  0  0  0  0  0  0  0
   21.2046   -4.5583  -13.4154 N   0  0  0  0  0  0  0  0  0  0  0  0
   21.9164   -5.7897  -13.5253 C   0  0  0  0  0  0  0  0  0  0  0  0
   22.7265   -6.0693  -12.6058 O   0  0  0  0  0  0  0  0  0  0  0  0
   21.6656   -6.6603  -14.7013 C   0  0  0  0  0  0  0  0  0  0  0  0
   20.6810   -6.0524  -15.6405 C   0  0  2  0  0  0  0  0  0  0  0  0
   20.3234   -6.8579  -16.7704 N   0  0  0  0  0  0  0  0  0  0  0  0
   21.0508   -4.6639  -15.9964 C   0  0  0  0  0  0  0  0  0  0  0  0
   20.2853   -3.7345  -15.5793 O   0  0  0  0  0  0  0  0  0  0  0  0
   22.1464   -4.3214  -16.7383 O   0  0  0  0  0  0  0  0  0  0  0  0
  1  2  1  0
  2  3  1  0
  3  4  1  6
  3  5  1  0
  5  7  1  0
  5  6  1  1
  7  8  2  0
  7  9  1  0
  9 13  1  0
  9 10  1  0
 10 11  1  0
 12 11  1  0
 13 12  1  0
 13 14  1  1
 15 14  2  0
 16 17  1  0
 17 19  1  0
 17 18  2  0
 20 19  1  6
 20 22  1  0
 20 21  1  0
 21 14  1  0
 22 24  1  0
 23 22  2  0
M  END
$$$$
