IPN.pdb
     RDKit          3D

 24 24  0  0  1  0  0  0  0  0999 V2000
   17.5842  -32.7640    5.1441 C   0  0  0  0  0  0  0  0  0  0  0  0
   18.4550  -31.6889    4.5664 C   0  0  0  0  0  0  0  0  0  0  0  0
   19.8915  -32.1192    4.4098 C   0  0  2  0  0  0  0  0  0  0  0  0
   20.4783  -32.3315    5.7908 C   0  0  0  0  0  0  0  0  0  0  0  0
   20.7262  -31.1511    3.5986 C   0  0  2  0  0  0  0  0  0  0  0  0
   20.0948  -31.0043    2.3299 N   0  0  0  0  0  0  0  0  0  0  0  0
   22.1537  -31.4546    3.5835 C   0  0  0  0  0  0  0  0  0  0  0  0
   22.5154  -32.3543    2.7498 O   0  0  0  0  0  0  0  0  0  0  0  0
   23.1628  -30.8549    4.3945 N   0  0  0  0  0  0  0  0  0  0  0  0
   23.1097  -29.8778    5.4376 C   0  0  0  0  0  0  0  0  0  0  0  0
   24.2814  -28.9614    5.1265 C   0  0  0  0  0  0  0  0  0  0  0  0
   25.3289  -29.9515    4.6560 C   0  0  0  0  0  0  0  0  0  0  0  0
   24.5762  -31.1952    4.2589 C   0  0  1  0  0  0  0  0  0  0  0  0
   24.9949  -32.2914    5.1627 C   0  0  0  0  0  0  0  0  0  0  0  0
   24.1208  -32.7335    5.9407 O   0  0  0  0  0  0  0  0  0  0  0  0
   24.9878  -35.6917    6.8892 N   0  0  0  0  0  0  0  0  0  0  0  0
   24.9162  -35.9405    5.4863 C   0  0  0  0  0  0  0  0  0  0  0  0
   24.0773  -36.7912    5.0957 O   0  0  0  0  0  0  0  0  0  0  0  0
   25.8221  -35.1930    4.5784 C   0  0  0  0  0  0  0  0  0  0  0  0
   26.6666  -34.2149    5.3207 C   0  0  2  0  0  0  0  0  0  0  0  0
   26.2857  -32.8401    5.1869 N   0  0  0  0  0  0  0  0  0  0  0  0
   28.1094  -34.4546    5.0920 C   0  0  0  0  0  0  0  0  0  0  0  0
   28.6267  -33.9322    4.0513 O   0  0  0  0  0  0  0  0  0  0  0  0
   28.9103  -35.1953    5.9156 O   0  0  0  0  0  0  0  0  0  0  0  0
  1  2  1  0
  2  3  1  0
  3  4  1  1
  3  5  1  0
  5  7  1  0
  5  6  1  6
  7  8  2  0
  7  9  1  0
  9 13  1  0
  9 10  1  0
 10 11  1  0
 12 11  1  0
 13 12  1  0
 13 14  1  1
 15 14  2  0
 16 17  1  0
 17 19  1  0
 17 18  2  0
 20 19  1  6
 20 22  1  0
 20 21  1  0
 21 14  1  0
 22 24  1  0
 23 22  2  0
M  END
$$$$
