EAL.pdb
     RDKit          3D

 23 22  0  0  1  0  0  0  0  0999 V2000
   18.5664  -14.7173  -18.7811 N   0  0  0  0  0  0  0  0  0  0  0  0
   17.8012  -13.5414  -18.5852 C   0  0  1  0  0  0  0  0  0  0  0  0
   16.7963  -13.6381  -17.4647 C   0  0  0  0  0  0  0  0  0  0  0  0
   17.4018  -14.2960  -16.2447 C   0  0  0  0  0  0  0  0  0  0  0  0
   16.3448  -14.3928  -15.2097 C   0  0  0  0  0  0  0  0  0  0  0  0
   15.8467  -15.5155  -14.9794 O   0  0  0  0  0  0  0  0  0  0  0  0
   18.5816  -12.3041  -18.4383 C   0  0  0  0  0  0  0  0  0  0  0  0
   19.7434  -12.3966  -17.9580 O   0  0  0  0  0  0  0  0  0  0  0  0
   15.9260  -13.2786  -14.5242 O   0  0  0  0  0  0  0  0  0  0  0  0
   18.2373   -8.6020  -19.2609 C   0  0  0  0  0  0  0  0  0  0  0  0
   18.8829   -9.8021  -18.6526 C   0  0  2  0  0  0  0  0  0  0  0  0
   18.1311  -11.0149  -18.7936 N   0  0  0  0  0  0  0  0  0  0  0  0
   19.3122   -9.5716  -17.2331 C   0  0  0  0  0  0  0  0  0  0  0  0
   18.9903  -10.4013  -16.3440 O   0  0  0  0  0  0  0  0  0  0  0  0
   23.2395  -11.0499  -14.2550 C   0  0  0  0  0  0  0  0  0  0  0  0
   22.3981   -9.8210  -14.2349 C   0  0  2  0  0  0  0  0  0  0  0  0
   21.7072   -9.6875  -12.9185 C   0  0  0  0  0  0  0  0  0  0  0  0
   21.5382   -9.5875  -15.3947 C   0  0  0  0  0  0  0  0  0  0  0  0
   20.7893   -8.3385  -15.5684 C   0  0  2  0  0  0  0  0  0  0  0  0
   20.0708   -8.4480  -16.8549 N   0  0  0  0  0  0  0  0  0  0  0  0
   21.4652   -7.0645  -15.4398 C   0  0  0  0  0  0  0  0  0  0  0  0
   22.0479   -6.5067  -16.6091 O   0  0  0  0  0  0  0  0  0  0  0  0
   21.6178   -6.3591  -14.4219 O   0  0  0  0  0  0  0  0  0  0  0  0
  2  1  1  1
  2  3  1  0
  3  4  1  0
  4  5  1  0
  5  9  1  0
  6  5  2  0
  7 12  1  0
  7  2  1  0
  8  7  2  0
 11 10  1  1
 11 12  1  0
 11 13  1  0
 13 20  1  0
 14 13  2  0
 16 15  1  6
 17 16  1  0
 19 18  1  6
 18 16  1  0
 20 19  1  0
 21 19  1  0
 21 22  1  0
 23 21  2  0
M  END
$$$$
