EAL.pdb
     RDKit          3D

 23 22  0  0  1  0  0  0  0  0999 V2000
   17.2939  -13.3365  -15.7839 N   0  0  0  0  0  0  0  0  0  0  0  0
   16.7576  -12.1044  -16.2322 C   0  0  1  0  0  0  0  0  0  0  0  0
   15.8378  -11.4347  -15.2422 C   0  0  0  0  0  0  0  0  0  0  0  0
   14.6894  -12.3434  -14.8640 C   0  0  0  0  0  0  0  0  0  0  0  0
   13.8442  -11.6221  -13.8826 C   0  0  0  0  0  0  0  0  0  0  0  0
   13.7973  -10.3752  -13.9493 O   0  0  0  0  0  0  0  0  0  0  0  0
   17.7465  -11.1312  -16.7185 C   0  0  0  0  0  0  0  0  0  0  0  0
   18.9646  -11.3759  -16.5050 O   0  0  0  0  0  0  0  0  0  0  0  0
   13.1332  -12.3070  -12.9275 O   0  0  0  0  0  0  0  0  0  0  0  0
   17.8730   -8.2709  -19.1632 C   0  0  0  0  0  0  0  0  0  0  0  0
   18.3950   -9.0516  -18.0034 C   0  0  2  0  0  0  0  0  0  0  0  0
   17.4391   -9.9391  -17.4081 N   0  0  0  0  0  0  0  0  0  0  0  0
   19.0687   -8.1859  -16.9791 C   0  0  0  0  0  0  0  0  0  0  0  0
   19.9716   -7.3867  -17.3377 O   0  0  0  0  0  0  0  0  0  0  0  0
   21.2966   -6.7150  -12.3280 C   0  0  0  0  0  0  0  0  0  0  0  0
   21.7391   -7.0278  -13.7154 C   0  0  2  0  0  0  0  0  0  0  0  0
   22.3686   -5.8279  -14.3415 C   0  0  0  0  0  0  0  0  0  0  0  0
   20.7830   -7.7257  -14.5744 C   0  0  0  0  0  0  0  0  0  0  0  0
   19.3545   -7.3929  -14.5785 C   0  0  2  0  0  0  0  0  0  0  0  0
   18.7237   -8.2356  -15.6154 N   0  0  0  0  0  0  0  0  0  0  0  0
   18.9326   -6.0117  -14.6819 C   0  0  0  0  0  0  0  0  0  0  0  0
   18.4302   -5.3866  -13.5093 O   0  0  0  0  0  0  0  0  0  0  0  0
   18.9445   -5.2627  -15.6797 O   0  0  0  0  0  0  0  0  0  0  0  0
  2  1  1  1
  2  3  1  0
  3  4  1  0
  4  5  1  0
  5  9  1  0
  6  5  2  0
  7 12  1  0
  7  2  1  0
  8  7  2  0
 11 10  1  6
 11 12  1  0
 11 13  1  0
 13 20  1  0
 14 13  2  0
 16 15  1  1
 17 16  1  0
 19 18  1  6
 18 16  1  0
 20 19  1  0
 21 19  1  0
 21 22  1  0
 23 21  2  0
M  END
$$$$
