EAL.pdb
     RDKit          3D

 23 22  0  0  1  0  0  0  0  0999 V2000
   17.2222  -10.9123  -17.8048 N   0  0  0  0  0  0  0  0  0  0  0  0
   16.6867  -10.0747  -16.7957 C   0  0  1  0  0  0  0  0  0  0  0  0
   16.3831  -10.7851  -15.5004 C   0  0  0  0  0  0  0  0  0  0  0  0
   15.3900  -11.9060  -15.7131 C   0  0  0  0  0  0  0  0  0  0  0  0
   15.0560  -12.4744  -14.3853 C   0  0  0  0  0  0  0  0  0  0  0  0
   15.0713  -11.7105  -13.3965 O   0  0  0  0  0  0  0  0  0  0  0  0
   17.4614   -8.8567  -16.5168 C   0  0  0  0  0  0  0  0  0  0  0  0
   18.7167   -8.9257  -16.6089 O   0  0  0  0  0  0  0  0  0  0  0  0
   14.7387  -13.8038  -14.2478 O   0  0  0  0  0  0  0  0  0  0  0  0
   16.8313   -5.2003  -15.6659 C   0  0  0  0  0  0  0  0  0  0  0  0
   17.6569   -6.4344  -15.8162 C   0  0  2  0  0  0  0  0  0  0  0  0
   16.9088   -7.6105  -16.1520 N   0  0  0  0  0  0  0  0  0  0  0  0
   18.5695   -6.6663  -14.6476 C   0  0  0  0  0  0  0  0  0  0  0  0
   18.2652   -7.5278  -13.7828 O   0  0  0  0  0  0  0  0  0  0  0  0
   23.0598   -9.4485  -13.9414 C   0  0  0  0  0  0  0  0  0  0  0  0
   22.3565   -8.3622  -13.2038 C   0  0  2  0  0  0  0  0  0  0  0  0
   22.0031   -8.8157  -11.8264 C   0  0  0  0  0  0  0  0  0  0  0  0
   21.2755   -7.6745  -13.9093 C   0  0  0  0  0  0  0  0  0  0  0  0
   20.8291   -6.3307  -13.5271 C   0  0  2  0  0  0  0  0  0  0  0  0
   19.7679   -5.9470  -14.4809 N   0  0  0  0  0  0  0  0  0  0  0  0
   21.7973   -5.2690  -13.3484 C   0  0  0  0  0  0  0  0  0  0  0  0
   22.2471   -4.5852  -14.5095 O   0  0  0  0  0  0  0  0  0  0  0  0
   22.3134   -4.8504  -12.2923 O   0  0  0  0  0  0  0  0  0  0  0  0
  2  1  1  6
  2  3  1  0
  3  4  1  0
  4  5  1  0
  5  9  1  0
  6  5  2  0
  7 12  1  0
  7  2  1  0
  8  7  2  0
 11 10  1  1
 11 12  1  0
 11 13  1  0
 13 20  1  0
 14 13  2  0
 16 15  1  6
 17 16  1  0
 19 18  1  6
 18 16  1  0
 20 19  1  0
 21 19  1  0
 21 22  1  0
 23 21  2  0
M  END
$$$$
