EAL.pdb
     RDKit          3D

 23 22  0  0  1  0  0  0  0  0999 V2000
   27.8274  -22.6692  -15.9487 N   0  0  0  0  0  0  0  0  0  0  0  0
   26.9242  -21.6247  -15.6327 C   0  0  1  0  0  0  0  0  0  0  0  0
   26.2836  -20.9775  -16.8349 C   0  0  0  0  0  0  0  0  0  0  0  0
   27.3249  -20.3562  -17.7391 C   0  0  0  0  0  0  0  0  0  0  0  0
   27.8575  -19.1521  -17.0576 C   0  0  0  0  0  0  0  0  0  0  0  0
   27.0632  -18.4493  -16.3968 O   0  0  0  0  0  0  0  0  0  0  0  0
   25.8861  -21.9705  -14.6508 C   0  0  0  0  0  0  0  0  0  0  0  0
   25.1010  -22.9149  -14.9350 O   0  0  0  0  0  0  0  0  0  0  0  0
   29.1871  -18.8201  -17.1510 O   0  0  0  0  0  0  0  0  0  0  0  0
   24.7675  -20.9232  -11.1682 C   0  0  0  0  0  0  0  0  0  0  0  0
   24.6046  -21.5551  -12.5103 C   0  0  2  0  0  0  0  0  0  0  0  0
   25.6974  -21.3259  -13.4098 N   0  0  0  0  0  0  0  0  0  0  0  0
   23.2820  -21.2359  -13.1438 C   0  0  0  0  0  0  0  0  0  0  0  0
   23.1454  -20.1665  -13.7920 O   0  0  0  0  0  0  0  0  0  0  0  0
   19.0586  -24.0135  -16.2156 C   0  0  0  0  0  0  0  0  0  0  0  0
   19.5091  -22.7259  -15.6175 C   0  0  2  0  0  0  0  0  0  0  0  0
   19.5858  -21.6663  -16.6660 C   0  0  0  0  0  0  0  0  0  0  0  0
   20.6675  -22.7786  -14.7262 C   0  0  0  0  0  0  0  0  0  0  0  0
   20.8539  -21.8155  -13.6358 C   0  0  2  0  0  0  0  0  0  0  0  0
   22.1752  -22.0991  -13.0383 N   0  0  0  0  0  0  0  0  0  0  0  0
   19.8308  -21.6607  -12.6230 C   0  0  0  0  0  0  0  0  0  0  0  0
   19.7927  -22.6171  -11.5733 O   0  0  0  0  0  0  0  0  0  0  0  0
   18.9478  -20.7839  -12.5305 O   0  0  0  0  0  0  0  0  0  0  0  0
  2  1  1  6
  2  3  1  0
  3  4  1  0
  4  5  1  0
  5  9  1  0
  6  5  2  0
  7 12  1  0
  7  2  1  0
  8  7  2  0
 11 10  1  1
 11 12  1  0
 11 13  1  0
 13 20  1  0
 14 13  2  0
 16 15  1  6
 17 16  1  0
 19 18  1  6
 18 16  1  0
 20 19  1  0
 21 19  1  0
 21 22  1  0
 23 21  2  0
M  END
$$$$
