EAL.pdb
     RDKit          3D

 23 22  0  0  1  0  0  0  0  0999 V2000
   17.0296  -13.6636  -18.4758 N   0  0  0  0  0  0  0  0  0  0  0  0
   18.3795  -13.6050  -18.0502 C   0  0  1  0  0  0  0  0  0  0  0  0
   19.2764  -14.6293  -18.6989 C   0  0  0  0  0  0  0  0  0  0  0  0
   18.6053  -15.9837  -18.7556 C   0  0  0  0  0  0  0  0  0  0  0  0
   19.5318  -16.9212  -19.4341 C   0  0  0  0  0  0  0  0  0  0  0  0
   19.5728  -16.9087  -20.6830 O   0  0  0  0  0  0  0  0  0  0  0  0
   19.0066  -12.2782  -18.1386 C   0  0  0  0  0  0  0  0  0  0  0  0
   20.2292  -12.1864  -17.8457 O   0  0  0  0  0  0  0  0  0  0  0  0
   20.3224  -17.7788  -18.7086 O   0  0  0  0  0  0  0  0  0  0  0  0
   18.0809   -8.7358  -19.1769 C   0  0  0  0  0  0  0  0  0  0  0  0
   18.9167   -9.7785  -18.5126 C   0  0  2  0  0  0  0  0  0  0  0  0
   18.3455  -11.0936  -18.5269 N   0  0  0  0  0  0  0  0  0  0  0  0
   19.3592   -9.3755  -17.1363 C   0  0  0  0  0  0  0  0  0  0  0  0
   18.9183   -9.9964  -16.1350 O   0  0  0  0  0  0  0  0  0  0  0  0
   23.2637  -10.5369  -13.8264 C   0  0  0  0  0  0  0  0  0  0  0  0
   22.3431   -9.3749  -13.9707 C   0  0  2  0  0  0  0  0  0  0  0  0
   21.5134   -9.2152  -12.7402 C   0  0  0  0  0  0  0  0  0  0  0  0
   21.5927   -9.2754  -15.2222 C   0  0  0  0  0  0  0  0  0  0  0  0
   20.9090   -8.0411  -15.6227 C   0  0  2  0  0  0  0  0  0  0  0  0
   20.2602   -8.3157  -16.9215 N   0  0  0  0  0  0  0  0  0  0  0  0
   21.6306   -6.7859  -15.6398 C   0  0  0  0  0  0  0  0  0  0  0  0
   22.3353   -6.4471  -16.8258 O   0  0  0  0  0  0  0  0  0  0  0  0
   21.7298   -5.9282  -14.7390 O   0  0  0  0  0  0  0  0  0  0  0  0
  2  1  1  6
  2  3  1  0
  3  4  1  0
  4  5  1  0
  5  9  1  0
  6  5  2  0
  7 12  1  0
  7  2  1  0
  8  7  2  0
 11 10  1  1
 11 12  1  0
 11 13  1  0
 13 20  1  0
 14 13  2  0
 16 15  1  1
 17 16  1  0
 19 18  1  6
 18 16  1  0
 20 19  1  0
 21 19  1  0
 21 22  1  0
 23 21  2  0
M  END
$$$$
