MGQ.pdb
     RDKit          3D

 22 21  0  0  1  0  0  0  0  0999 V2000
   30.0567  -20.4685   -6.2189 C   0  0  0  0  0  0  0  0  0  0  0  0
   28.7379  -19.3005   -5.8358 S   0  0  0  0  0  0  0  0  0  0  0  0
   27.1091  -20.0590   -6.0154 C   0  0  0  0  0  0  0  0  0  0  0  0
   27.0047  -20.8308   -7.3280 C   0  0  0  0  0  0  0  0  0  0  0  0
   25.9782  -20.1582   -8.1912 C   0  0  2  0  0  0  0  0  0  0  0  0
   24.7014  -20.1640   -7.4953 N   0  0  0  0  0  0  0  0  0  0  0  0
   25.8427  -20.8616   -9.4772 C   0  0  0  0  0  0  0  0  0  0  0  0
   25.3138  -22.0109   -9.5148 O   0  0  0  0  0  0  0  0  0  0  0  0
   26.2859  -20.3040  -10.7102 N   0  0  0  0  0  0  0  0  0  0  0  0
   26.0686  -21.0342  -11.9373 C   0  0  0  0  0  0  0  0  0  0  0  0
   24.7751  -20.6585  -12.5495 C   0  0  0  0  0  0  0  0  0  0  0  0
   23.9709  -19.9716  -11.8555 O   0  0  0  0  0  0  0  0  0  0  0  0
   22.6577  -17.7658  -16.0127 N   0  0  0  0  0  0  0  0  0  0  0  0
   23.9007  -18.2799  -16.4706 C   0  0  0  0  0  0  0  0  0  0  0  0
   24.7504  -17.4614  -16.8866 O   0  0  0  0  0  0  0  0  0  0  0  0
   24.2037  -19.7143  -16.4678 C   0  0  0  0  0  0  0  0  0  0  0  0
   23.1654  -20.5992  -15.8815 C   0  0  0  0  0  0  0  0  0  0  0  0
   23.1175  -20.6595  -14.3877 C   0  0  2  0  0  0  0  0  0  0  0  0
   24.4215  -21.0416  -13.8686 N   0  0  0  0  0  0  0  0  0  0  0  0
   22.0617  -21.5752  -13.8654 C   0  0  0  0  0  0  0  0  0  0  0  0
   20.8648  -21.2068  -13.8074 O   0  0  0  0  0  0  0  0  0  0  0  0
   22.3549  -22.8653  -13.4240 O   0  0  0  0  0  0  0  0  0  0  0  0
  2  1  1  0
  3  2  1  0
  3  4  1  0
  4  5  1  0
  5  7  1  0
  5  6  1  1
  7  8  2  0
  9 10  1  0
  9  7  1  0
 10 11  1  0
 11 12  2  0
 11 19  1  0
 14 13  1  0
 14 15  2  0
 16 17  1  0
 16 14  1  0
 18 20  1  0
 18 17  1  6
 19 18  1  0
 20 22  1  0
 21 20  2  0
M  END
$$$$
