MGQ.pdb
     RDKit          3D

 22 21  0  0  1  0  0  0  0  0999 V2000
   17.1957  -26.7814   -1.9272 C   0  0  0  0  0  0  0  0  0  0  0  0
   18.2707  -26.1941   -3.2500 S   0  0  0  0  0  0  0  0  0  0  0  0
   17.3209  -25.6949   -4.7023 C   0  0  0  0  0  0  0  0  0  0  0  0
   18.2407  -25.2096   -5.8195 C   0  0  0  0  0  0  0  0  0  0  0  0
   17.4171  -25.0146   -7.0584 C   0  0  2  0  0  0  0  0  0  0  0  0
   16.8418  -26.2923   -7.4470 N   0  0  0  0  0  0  0  0  0  0  0  0
   18.2486  -24.4935   -8.1556 C   0  0  0  0  0  0  0  0  0  0  0  0
   18.7999  -23.3594   -8.0453 O   0  0  0  0  0  0  0  0  0  0  0  0
   18.4707  -25.2149   -9.3629 N   0  0  0  0  0  0  0  0  0  0  0  0
   19.3416  -24.6580  -10.3717 C   0  0  0  0  0  0  0  0  0  0  0  0
   18.6158  -23.6769  -11.2082 C   0  0  0  0  0  0  0  0  0  0  0  0
   17.4244  -23.3960  -10.8890 O   0  0  0  0  0  0  0  0  0  0  0  0
   21.4286  -18.4510  -13.6248 N   0  0  0  0  0  0  0  0  0  0  0  0
   21.5202  -19.8604  -13.7806 C   0  0  0  0  0  0  0  0  0  0  0  0
   22.4062  -20.3045  -14.5438 O   0  0  0  0  0  0  0  0  0  0  0  0
   20.6206  -20.7854  -13.0844 C   0  0  0  0  0  0  0  0  0  0  0  0
   19.3722  -21.1461  -13.8031 C   0  0  0  0  0  0  0  0  0  0  0  0
   18.4433  -22.0736  -13.0861 C   0  0  2  0  0  0  0  0  0  0  0  0
   19.2106  -23.0559  -12.3361 N   0  0  0  0  0  0  0  0  0  0  0  0
   17.4711  -22.7541  -13.9903 C   0  0  0  0  0  0  0  0  0  0  0  0
   17.6780  -23.9240  -14.3903 O   0  0  0  0  0  0  0  0  0  0  0  0
   16.3035  -22.1276  -14.4255 O   0  0  0  0  0  0  0  0  0  0  0  0
  2  1  1  0
  3  2  1  0
  3  4  1  0
  4  5  1  0
  5  7  1  0
  5  6  1  6
  7  8  2  0
  9 10  1  0
  9  7  1  0
 10 11  1  0
 11 12  2  0
 11 19  1  0
 14 13  1  0
 14 15  2  0
 16 17  1  0
 16 14  1  0
 18 20  1  0
 18 17  1  6
 19 18  1  0
 20 22  1  0
 21 20  2  0
M  END
$$$$
