MGQ.pdb
     RDKit          3D

 22 21  0  0  1  0  0  0  0  0999 V2000
   28.5437  -17.7874  -16.3449 C   0  0  0  0  0  0  0  0  0  0  0  0
   27.5845  -17.6966  -14.8211 S   0  0  0  0  0  0  0  0  0  0  0  0
   26.0215  -16.8282  -15.0735 C   0  0  0  0  0  0  0  0  0  0  0  0
   26.2538  -15.3392  -15.3157 C   0  0  0  0  0  0  0  0  0  0  0  0
   24.9254  -14.6887  -15.5677 C   0  0  2  0  0  0  0  0  0  0  0  0
   24.4314  -15.1155  -16.8670 N   0  0  0  0  0  0  0  0  0  0  0  0
   25.0551  -13.2225  -15.5461 C   0  0  0  0  0  0  0  0  0  0  0  0
   26.1642  -12.6919  -15.2452 O   0  0  0  0  0  0  0  0  0  0  0  0
   23.9732  -12.3493  -15.8531 N   0  0  0  0  0  0  0  0  0  0  0  0
   24.1402  -10.9251  -15.6793 C   0  0  0  0  0  0  0  0  0  0  0  0
   22.8980  -10.2039  -16.0341 C   0  0  0  0  0  0  0  0  0  0  0  0
   22.0720  -10.7889  -16.7929 O   0  0  0  0  0  0  0  0  0  0  0  0
   18.0520  -10.6113  -14.0896 N   0  0  0  0  0  0  0  0  0  0  0  0
   17.7800   -9.4565  -14.8716 C   0  0  0  0  0  0  0  0  0  0  0  0
   16.5827   -9.1309  -15.0304 O   0  0  0  0  0  0  0  0  0  0  0  0
   18.8453   -8.6564  -15.4835 C   0  0  0  0  0  0  0  0  0  0  0  0
   20.2314   -9.1458  -15.2732 C   0  0  0  0  0  0  0  0  0  0  0  0
   21.3230   -8.3031  -15.8524 C   0  0  2  0  0  0  0  0  0  0  0  0
   22.6159   -8.8994  -15.5542 N   0  0  0  0  0  0  0  0  0  0  0  0
   21.2857   -6.8853  -15.3894 C   0  0  0  0  0  0  0  0  0  0  0  0
   22.1635   -6.4411  -14.6124 O   0  0  0  0  0  0  0  0  0  0  0  0
   20.2857   -6.0017  -15.7949 O   0  0  0  0  0  0  0  0  0  0  0  0
  2  1  1  0
  3  2  1  0
  3  4  1  0
  4  5  1  0
  5  7  1  0
  5  6  1  6
  7  8  2  0
  9 10  1  0
  9  7  1  0
 10 11  1  0
 11 12  2  0
 11 19  1  0
 14 13  1  0
 14 15  2  0
 16 17  1  0
 16 14  1  0
 18 20  1  0
 18 17  1  1
 19 18  1  0
 20 22  1  0
 21 20  2  0
M  END
$$$$
