MGQ.pdb
     RDKit          3D

 22 21  0  0  1  0  0  0  0  0999 V2000
   24.3315  -12.0118  -16.5856 C   0  0  0  0  0  0  0  0  0  0  0  0
   23.7626  -10.9512  -15.2433 S   0  0  0  0  0  0  0  0  0  0  0  0
   22.9411   -9.4711  -15.8720 C   0  0  0  0  0  0  0  0  0  0  0  0
   22.5437   -8.5377  -14.7317 C   0  0  0  0  0  0  0  0  0  0  0  0
   21.4208   -9.1761  -13.9681 C   0  0  2  0  0  0  0  0  0  0  0  0
   20.2618   -9.2856  -14.8394 N   0  0  0  0  0  0  0  0  0  0  0  0
   21.0752   -8.3699  -12.7859 C   0  0  0  0  0  0  0  0  0  0  0  0
   21.9431   -8.1631  -11.8880 O   0  0  0  0  0  0  0  0  0  0  0  0
   19.7857   -7.7973  -12.5947 N   0  0  0  0  0  0  0  0  0  0  0  0
   19.5266   -7.0139  -11.4091 C   0  0  0  0  0  0  0  0  0  0  0  0
   18.1354   -6.5100  -11.4068 C   0  0  0  0  0  0  0  0  0  0  0  0
   17.5991   -6.2522  -12.5231 O   0  0  0  0  0  0  0  0  0  0  0  0
   14.2828   -9.9547   -8.6865 N   0  0  0  0  0  0  0  0  0  0  0  0
   14.0959   -8.5553   -8.5259 C   0  0  0  0  0  0  0  0  0  0  0  0
   12.9736   -8.1593   -8.1407 O   0  0  0  0  0  0  0  0  0  0  0  0
   15.1628   -7.5867   -8.7957 C   0  0  0  0  0  0  0  0  0  0  0  0
   15.0493   -6.8286  -10.0674 C   0  0  0  0  0  0  0  0  0  0  0  0
   16.0635   -5.7510  -10.2853 C   0  0  2  0  0  0  0  0  0  0  0  0
   17.4030   -6.3130  -10.2083 N   0  0  0  0  0  0  0  0  0  0  0  0
   15.9249   -4.6069   -9.3379 C   0  0  0  0  0  0  0  0  0  0  0  0
   14.8774   -3.9186   -9.3125 O   0  0  0  0  0  0  0  0  0  0  0  0
   16.9410   -4.2561   -8.4492 O   0  0  0  0  0  0  0  0  0  0  0  0
  2  1  1  0
  3  2  1  0
  3  4  1  0
  4  5  1  0
  5  7  1  0
  5  6  1  6
  7  8  2  0
  9 10  1  0
  9  7  1  0
 10 11  1  0
 11 12  2  0
 11 19  1  0
 14 13  1  0
 14 15  2  0
 16 17  1  0
 16 14  1  0
 18 20  1  0
 18 17  1  1
 19 18  1  0
 20 22  1  0
 21 20  2  0
M  END
$$$$
