MGQ.pdb
     RDKit          3D

 22 21  0  0  1  0  0  0  0  0999 V2000
   28.6262  -18.2461   -5.2299 C   0  0  0  0  0  0  0  0  0  0  0  0
   27.8140  -19.8520   -5.1237 S   0  0  0  0  0  0  0  0  0  0  0  0
   28.0912  -20.8339   -6.6136 C   0  0  0  0  0  0  0  0  0  0  0  0
   27.3462  -20.2424   -7.8072 C   0  0  0  0  0  0  0  0  0  0  0  0
   27.5122  -21.1702   -8.9747 C   0  0  2  0  0  0  0  0  0  0  0  0
   28.9173  -21.2117   -9.3467 N   0  0  0  0  0  0  0  0  0  0  0  0
   26.7115  -20.7084  -10.1203 C   0  0  0  0  0  0  0  0  0  0  0  0
   27.1726  -19.8195  -10.8945 O   0  0  0  0  0  0  0  0  0  0  0  0
   25.4152  -21.2210  -10.4102 N   0  0  0  0  0  0  0  0  0  0  0  0
   24.9733  -21.2965  -11.7834 C   0  0  0  0  0  0  0  0  0  0  0  0
   23.5821  -20.8103  -11.9145 C   0  0  0  0  0  0  0  0  0  0  0  0
   22.9129  -20.6430  -10.8541 O   0  0  0  0  0  0  0  0  0  0  0  0
   20.5899  -16.3990  -13.1821 N   0  0  0  0  0  0  0  0  0  0  0  0
   20.2552  -17.4918  -14.0264 C   0  0  0  0  0  0  0  0  0  0  0  0
   19.0456  -17.7898  -14.1393 O   0  0  0  0  0  0  0  0  0  0  0  0
   21.2711  -18.2613  -14.7512 C   0  0  0  0  0  0  0  0  0  0  0  0
   21.2087  -19.7363  -14.5921 C   0  0  0  0  0  0  0  0  0  0  0  0
   21.5630  -20.2691  -13.2401 C   0  0  2  0  0  0  0  0  0  0  0  0
   22.9921  -20.5325  -13.1740 N   0  0  0  0  0  0  0  0  0  0  0  0
   20.7919  -21.4896  -12.8636 C   0  0  0  0  0  0  0  0  0  0  0  0
   21.2132  -22.6318  -13.1626 O   0  0  0  0  0  0  0  0  0  0  0  0
   19.5835  -21.4157  -12.1712 O   0  0  0  0  0  0  0  0  0  0  0  0
  2  1  1  0
  3  2  1  0
  3  4  1  0
  4  5  1  0
  5  7  1  0
  5  6  1  6
  7  8  2  0
  9 10  1  0
  9  7  1  0
 10 11  1  0
 11 12  2  0
 11 19  1  0
 14 13  1  0
 14 15  2  0
 16 17  1  0
 16 14  1  0
 18 20  1  0
 18 17  1  6
 19 18  1  0
 20 22  1  0
 21 20  2  0
M  END
$$$$
