MGQ.pdb
     RDKit          3D

 22 21  0  0  1  0  0  0  0  0999 V2000
   32.3130  -22.5119  -10.5481 C   0  0  0  0  0  0  0  0  0  0  0  0
   31.3660  -21.8613   -9.1588 S   0  0  0  0  0  0  0  0  0  0  0  0
   29.6618  -21.4975   -9.6320 C   0  0  0  0  0  0  0  0  0  0  0  0
   29.6007  -20.8634  -11.0190 C   0  0  0  0  0  0  0  0  0  0  0  0
   28.1604  -20.6302  -11.3689 C   0  0  2  0  0  0  0  0  0  0  0  0
   27.4908  -21.9155  -11.4872 N   0  0  0  0  0  0  0  0  0  0  0  0
   28.0491  -19.8967  -12.6403 C   0  0  0  0  0  0  0  0  0  0  0  0
   28.2795  -18.6525  -12.6728 O   0  0  0  0  0  0  0  0  0  0  0  0
   27.6874  -20.5280  -13.8642 N   0  0  0  0  0  0  0  0  0  0  0  0
   26.9793  -19.7711  -14.8702 C   0  0  0  0  0  0  0  0  0  0  0  0
   25.5949  -20.2700  -15.0246 C   0  0  0  0  0  0  0  0  0  0  0  0
   25.4316  -21.3971  -15.5751 O   0  0  0  0  0  0  0  0  0  0  0  0
   21.7540  -20.4626  -10.4270 N   0  0  0  0  0  0  0  0  0  0  0  0
   23.0656  -20.8863  -10.7721 C   0  0  0  0  0  0  0  0  0  0  0  0
   23.7855  -21.3498   -9.8601 O   0  0  0  0  0  0  0  0  0  0  0  0
   23.5836  -20.7944  -12.1405 C   0  0  0  0  0  0  0  0  0  0  0  0
   22.6534  -20.2353  -13.1540 C   0  0  0  0  0  0  0  0  0  0  0  0
   23.1659  -20.1766  -14.5580 C   0  0  2  0  0  0  0  0  0  0  0  0
   24.4691  -19.5309  -14.5795 N   0  0  0  0  0  0  0  0  0  0  0  0
   22.2326  -19.4946  -15.5011 C   0  0  0  0  0  0  0  0  0  0  0  0
   22.4570  -18.3246  -15.8914 O   0  0  0  0  0  0  0  0  0  0  0  0
   21.0835  -20.1197  -15.9849 O   0  0  0  0  0  0  0  0  0  0  0  0
  2  1  1  0
  3  2  1  0
  3  4  1  0
  4  5  1  0
  5  7  1  0
  5  6  1  6
  7  8  2  0
  9 10  1  0
  9  7  1  0
 10 11  1  0
 11 12  2  0
 11 19  1  0
 14 13  1  0
 14 15  2  0
 16 17  1  0
 16 14  1  0
 18 20  1  0
 18 17  1  1
 19 18  1  0
 20 22  1  0
 21 20  2  0
M  END
$$$$
