VSK.pdb
     RDKit          3D

 23 22  0  0  1  0  0  0  0  0999 V2000
   17.0235   -9.9296  -17.3623 C   0  0  0  0  0  0  0  0  0  0  0  0
   18.0396  -10.7058  -18.1741 C   0  0  2  0  0  0  0  0  0  0  0  0
   17.3030  -11.4939  -19.2279 C   0  0  0  0  0  0  0  0  0  0  0  0
   18.8126  -11.5767  -17.2208 C   0  0  2  0  0  0  0  0  0  0  0  0
   17.8752  -12.4860  -16.6006 N   0  0  0  0  0  0  0  0  0  0  0  0
   19.5885  -10.8038  -16.2337 C   0  0  0  0  0  0  0  0  0  0  0  0
   19.0028  -10.4473  -15.1817 O   0  0  0  0  0  0  0  0  0  0  0  0
   23.8706   -9.7074  -14.2769 O   0  0  0  0  0  0  0  0  0  0  0  0
   23.1400  -10.3253  -15.2822 C   0  0  0  0  0  0  0  0  0  0  0  0
   21.7323   -9.7769  -15.3742 C   0  0  2  0  0  0  0  0  0  0  0  0
   20.9516  -10.4399  -16.3999 N   0  0  0  0  0  0  0  0  0  0  0  0
   21.7499   -8.3226  -15.6740 C   0  0  0  0  0  0  0  0  0  0  0  0
   21.7945   -7.8928  -16.8581 O   0  0  0  0  0  0  0  0  0  0  0  0
   21.7174   -7.3381  -14.6427 N   0  0  0  0  0  0  0  0  0  0  0  0
   21.7175   -5.9201  -14.9151 C   0  0  1  0  0  0  0  0  0  0  0  0
   20.3415   -5.4169  -15.1972 C   0  0  0  0  0  0  0  0  0  0  0  0
   20.1746   -3.9677  -15.4206 C   0  0  0  0  0  0  0  0  0  0  0  0
   18.7589   -3.5634  -15.6137 C   0  0  0  0  0  0  0  0  0  0  0  0
   18.6663   -2.0519  -15.9383 C   0  0  0  0  0  0  0  0  0  0  0  0
   17.2424   -1.7712  -16.0254 N   0  0  0  0  0  0  0  0  0  0  0  0
   22.4201   -5.1827  -13.8644 C   0  0  0  0  0  0  0  0  0  0  0  0
   22.8698   -3.8676  -14.0665 O   0  0  0  0  0  0  0  0  0  0  0  0
   22.6465   -5.6920  -12.7414 O   0  0  0  0  0  0  0  0  0  0  0  0
  2  1  1  1
  2  4  1  0
  2  3  1  0
  4  6  1  0
  4  5  1  1
  6  7  2  0
  9  8  1  0
 10  9  1  6
 10 12  1  0
 11 10  1  0
 11  6  1  0
 12 13  2  0
 12 14  1  0
 14 15  1  0
 15 21  1  0
 15 16  1  1
 17 16  1  0
 18 17  1  0
 19 18  1  0
 20 19  1  0
 21 23  2  0
 21 22  1  0
M  END
$$$$
