VSK.pdb
     RDKit          3D

 23 22  0  0  1  0  0  0  0  0999 V2000
   16.4913  -12.8320  -17.1355 C   0  0  0  0  0  0  0  0  0  0  0  0
   16.6423  -11.5672  -16.3159 C   0  0  2  0  0  0  0  0  0  0  0  0
   16.3766  -10.3854  -17.2141 C   0  0  0  0  0  0  0  0  0  0  0  0
   18.0310  -11.5652  -15.7359 C   0  0  2  0  0  0  0  0  0  0  0  0
   18.1708  -12.7582  -14.9312 N   0  0  0  0  0  0  0  0  0  0  0  0
   18.3396  -10.3356  -14.9832 C   0  0  0  0  0  0  0  0  0  0  0  0
   17.6636  -10.0982  -13.9519 O   0  0  0  0  0  0  0  0  0  0  0  0
   21.3506   -6.6405  -13.9721 O   0  0  0  0  0  0  0  0  0  0  0  0
   21.0932   -7.8104  -14.6731 C   0  0  0  0  0  0  0  0  0  0  0  0
   19.6306   -8.1948  -14.6101 C   0  0  2  0  0  0  0  0  0  0  0  0
   19.3502   -9.4079  -15.3522 N   0  0  0  0  0  0  0  0  0  0  0  0
   18.7749   -7.1106  -15.1556 C   0  0  0  0  0  0  0  0  0  0  0  0
   18.5555   -7.0011  -16.3920 O   0  0  0  0  0  0  0  0  0  0  0  0
   18.1578   -6.1390  -14.3135 N   0  0  0  0  0  0  0  0  0  0  0  0
   17.3392   -5.0662  -14.8271 C   0  0  1  0  0  0  0  0  0  0  0  0
   15.9760   -5.0794  -14.2206 C   0  0  0  0  0  0  0  0  0  0  0  0
   15.0172   -4.0509  -14.6684 C   0  0  0  0  0  0  0  0  0  0  0  0
   13.6819   -4.1769  -14.0310 C   0  0  0  0  0  0  0  0  0  0  0  0
   12.7089   -3.1129  -14.5964 C   0  0  0  0  0  0  0  0  0  0  0  0
   11.4316   -3.3943  -13.9611 N   0  0  0  0  0  0  0  0  0  0  0  0
   18.0291   -3.7802  -14.7190 C   0  0  0  0  0  0  0  0  0  0  0  0
   17.6377   -2.6711  -15.4867 O   0  0  0  0  0  0  0  0  0  0  0  0
   18.9941   -3.6144  -13.9360 O   0  0  0  0  0  0  0  0  0  0  0  0
  2  1  1  6
  2  4  1  0
  2  3  1  0
  4  6  1  0
  4  5  1  1
  6  7  2  0
  9  8  1  0
 10  9  1  6
 10 12  1  0
 11 10  1  0
 11  6  1  0
 12 13  2  0
 12 14  1  0
 14 15  1  0
 15 21  1  0
 15 16  1  1
 17 16  1  0
 18 17  1  0
 19 18  1  0
 20 19  1  0
 21 23  2  0
 21 22  1  0
M  END
$$$$
