VSK.pdb
     RDKit          3D

 23 22  0  0  1  0  0  0  0  0999 V2000
   24.8073  -17.9961  -18.5045 C   0  0  0  0  0  0  0  0  0  0  0  0
   24.4960  -19.1336  -19.4549 C   0  0  2  0  0  0  0  0  0  0  0  0
   24.4745  -18.5858  -20.8597 C   0  0  0  0  0  0  0  0  0  0  0  0
   23.1789  -19.7284  -19.0350 C   0  0  2  0  0  0  0  0  0  0  0  0
   22.1601  -18.7229  -19.2381 N   0  0  0  0  0  0  0  0  0  0  0  0
   23.1944  -20.2473  -17.6550 C   0  0  0  0  0  0  0  0  0  0  0  0
   24.0337  -21.1390  -17.3769 O   0  0  0  0  0  0  0  0  0  0  0  0
   20.8770  -18.5674  -14.6340 O   0  0  0  0  0  0  0  0  0  0  0  0
   21.8915  -19.4257  -14.2337 C   0  0  0  0  0  0  0  0  0  0  0  0
   22.2486  -20.4201  -15.3173 C   0  0  2  0  0  0  0  0  0  0  0  0
   22.3219  -19.8018  -16.6263 N   0  0  0  0  0  0  0  0  0  0  0  0
   21.2491  -21.5167  -15.3791 C   0  0  0  0  0  0  0  0  0  0  0  0
   20.2078  -21.4224  -16.0831 O   0  0  0  0  0  0  0  0  0  0  0  0
   21.4128  -22.7303  -14.6481 N   0  0  0  0  0  0  0  0  0  0  0  0
   20.4325  -23.7903  -14.6631 C   0  0  1  0  0  0  0  0  0  0  0  0
   21.0011  -25.0690  -14.1455 C   0  0  0  0  0  0  0  0  0  0  0  0
   20.1527  -26.2744  -14.2169 C   0  0  0  0  0  0  0  0  0  0  0  0
   20.8775  -27.5229  -13.8694 C   0  0  0  0  0  0  0  0  0  0  0  0
   19.9979  -28.7617  -14.1698 C   0  0  0  0  0  0  0  0  0  0  0  0
   20.8799  -29.9035  -13.9895 N   0  0  0  0  0  0  0  0  0  0  0  0
   19.1969  -23.3734  -13.9992 C   0  0  0  0  0  0  0  0  0  0  0  0
   19.2011  -22.4022  -12.9847 O   0  0  0  0  0  0  0  0  0  0  0  0
   18.0851  -23.8623  -14.3101 O   0  0  0  0  0  0  0  0  0  0  0  0
  2  1  1  1
  2  4  1  0
  2  3  1  0
  4  6  1  0
  4  5  1  1
  6  7  2  0
  9  8  1  0
 10  9  1  1
 10 12  1  0
 11 10  1  0
 11  6  1  0
 12 13  2  0
 12 14  1  0
 14 15  1  0
 15 21  1  0
 15 16  1  1
 17 16  1  0
 18 17  1  0
 19 18  1  0
 20 19  1  0
 21 23  2  0
 21 22  1  0
M  END
$$$$
