VSK.pdb
     RDKit          3D

 23 22  0  0  1  0  0  0  0  0999 V2000
   16.5289  -11.3684  -16.8062 C   0  0  0  0  0  0  0  0  0  0  0  0
   17.7562  -11.5513  -17.6749 C   0  0  2  0  0  0  0  0  0  0  0  0
   17.8169  -12.9930  -18.1128 C   0  0  0  0  0  0  0  0  0  0  0  0
   18.9527  -11.1314  -16.8644 C   0  0  2  0  0  0  0  0  0  0  0  0
   19.1186  -12.0938  -15.7984 N   0  0  0  0  0  0  0  0  0  0  0  0
   18.8549   -9.7471  -16.3667 C   0  0  0  0  0  0  0  0  0  0  0  0
   18.9825   -8.8172  -17.2010 O   0  0  0  0  0  0  0  0  0  0  0  0
   18.6259   -8.7809  -12.2538 O   0  0  0  0  0  0  0  0  0  0  0  0
   17.9412   -7.9588  -13.1378 C   0  0  0  0  0  0  0  0  0  0  0  0
   18.5122   -8.0368  -14.5373 C   0  0  2  0  0  0  0  0  0  0  0  0
   18.6262   -9.4032  -15.0075 N   0  0  0  0  0  0  0  0  0  0  0  0
   19.8591   -7.4141  -14.5943 C   0  0  0  0  0  0  0  0  0  0  0  0
   20.9067   -8.0865  -14.3958 O   0  0  0  0  0  0  0  0  0  0  0  0
   20.0392   -6.0276  -14.8757 N   0  0  0  0  0  0  0  0  0  0  0  0
   21.3410   -5.4284  -15.0526 C   0  0  1  0  0  0  0  0  0  0  0  0
   21.3091   -4.3424  -16.0753 C   0  0  0  0  0  0  0  0  0  0  0  0
   22.5593   -3.5985  -16.3234 C   0  0  0  0  0  0  0  0  0  0  0  0
   22.4131   -2.5305  -17.3448 C   0  0  0  0  0  0  0  0  0  0  0  0
   23.7725   -1.8330  -17.5979 C   0  0  0  0  0  0  0  0  0  0  0  0
   23.4918   -0.8082  -18.5904 N   0  0  0  0  0  0  0  0  0  0  0  0
   21.9125   -5.0232  -13.7679 C   0  0  0  0  0  0  0  0  0  0  0  0
   21.1329   -4.9759  -12.6007 O   0  0  0  0  0  0  0  0  0  0  0  0
   23.1200   -4.7054  -13.6553 O   0  0  0  0  0  0  0  0  0  0  0  0
  2  1  1  1
  2  4  1  0
  2  3  1  0
  4  6  1  0
  4  5  1  1
  6  7  2  0
  9  8  1  0
 10  9  1  1
 10 12  1  0
 11 10  1  0
 11  6  1  0
 12 13  2  0
 12 14  1  0
 14 15  1  0
 15 21  1  0
 15 16  1  6
 17 16  1  0
 18 17  1  0
 19 18  1  0
 20 19  1  0
 21 23  2  0
 21 22  1  0
M  END
$$$$
