VSK.pdb
     RDKit          3D

 23 22  0  0  1  0  0  0  0  0999 V2000
   27.8535  -11.3797  -15.7225 C   0  0  0  0  0  0  0  0  0  0  0  0
   26.7042  -10.6081  -16.3374 C   0  0  2  0  0  0  0  0  0  0  0  0
   26.8359   -9.1606  -15.9358 C   0  0  0  0  0  0  0  0  0  0  0  0
   25.4252  -11.2384  -15.8559 C   0  0  2  0  0  0  0  0  0  0  0  0
   25.4746  -12.6428  -16.1955 N   0  0  0  0  0  0  0  0  0  0  0  0
   24.2202  -10.5712  -16.3817 C   0  0  0  0  0  0  0  0  0  0  0  0
   23.8836  -10.8231  -17.5650 O   0  0  0  0  0  0  0  0  0  0  0  0
   20.7646  -10.8375  -15.2699 O   0  0  0  0  0  0  0  0  0  0  0  0
   20.9964   -9.4691  -15.2666 C   0  0  0  0  0  0  0  0  0  0  0  0
   22.1828   -9.0965  -16.1294 C   0  0  2  0  0  0  0  0  0  0  0  0
   23.4208   -9.6653  -15.6344 N   0  0  0  0  0  0  0  0  0  0  0  0
   22.3455   -7.6220  -16.1965 C   0  0  0  0  0  0  0  0  0  0  0  0
   22.8791   -6.9728  -15.2569 O   0  0  0  0  0  0  0  0  0  0  0  0
   21.9087   -6.8641  -17.3229 N   0  0  0  0  0  0  0  0  0  0  0  0
   22.1131   -5.4389  -17.4332 C   0  0  1  0  0  0  0  0  0  0  0  0
   21.9507   -4.9700  -18.8403 C   0  0  0  0  0  0  0  0  0  0  0  0
   22.2300   -3.5493  -19.1253 C   0  0  0  0  0  0  0  0  0  0  0  0
   22.0594   -3.1940  -20.5570 C   0  0  0  0  0  0  0  0  0  0  0  0
   22.4608   -1.7181  -20.8006 C   0  0  0  0  0  0  0  0  0  0  0  0
   22.2685   -1.5052  -22.2260 N   0  0  0  0  0  0  0  0  0  0  0  0
   21.2926   -4.7134  -16.4628 C   0  0  0  0  0  0  0  0  0  0  0  0
   21.7590   -3.5471  -15.8345 O   0  0  0  0  0  0  0  0  0  0  0  0
   20.1404   -5.1000  -16.1549 O   0  0  0  0  0  0  0  0  0  0  0  0
  2  1  1  1
  2  4  1  0
  2  3  1  0
  4  6  1  0
  4  5  1  6
  6  7  2  0
  9  8  1  0
 10  9  1  1
 10 12  1  0
 11 10  1  0
 11  6  1  0
 12 13  2  0
 12 14  1  0
 14 15  1  0
 15 21  1  0
 15 16  1  6
 17 16  1  0
 18 17  1  0
 19 18  1  0
 20 19  1  0
 21 23  2  0
 21 22  1  0
M  END
$$$$
