VSK.pdb
     RDKit          3D

 23 22  0  0  1  0  0  0  0  0999 V2000
   20.0929  -11.1769  -17.7780 C   0  0  0  0  0  0  0  0  0  0  0  0
   21.2359  -10.2664  -18.1765 C   0  0  2  0  0  0  0  0  0  0  0  0
   22.0489  -10.9627  -19.2388 C   0  0  0  0  0  0  0  0  0  0  0  0
   22.0285   -9.9624  -16.9338 C   0  0  2  0  0  0  0  0  0  0  0  0
   22.5651  -11.2111  -16.4407 N   0  0  0  0  0  0  0  0  0  0  0  0
   21.2465   -9.2405  -15.9135 C   0  0  0  0  0  0  0  0  0  0  0  0
   20.4505   -9.9085  -15.2084 O   0  0  0  0  0  0  0  0  0  0  0  0
   22.2325   -5.4701  -14.4482 O   0  0  0  0  0  0  0  0  0  0  0  0
   21.3500   -6.2968  -13.7670 C   0  0  0  0  0  0  0  0  0  0  0  0
   20.5206   -7.1375  -14.7136 C   0  0  2  0  0  0  0  0  0  0  0  0
   21.3385   -7.8421  -15.6810 N   0  0  0  0  0  0  0  0  0  0  0  0
   19.5488   -6.2950  -15.4559 C   0  0  0  0  0  0  0  0  0  0  0  0
   19.8200   -5.8174  -16.5905 O   0  0  0  0  0  0  0  0  0  0  0  0
   18.2617   -5.9821  -14.9272 N   0  0  0  0  0  0  0  0  0  0  0  0
   17.3388   -5.0923  -15.5917 C   0  0  1  0  0  0  0  0  0  0  0  0
   15.9243   -5.4042  -15.2338 C   0  0  0  0  0  0  0  0  0  0  0  0
   14.8678   -4.5491  -15.8089 C   0  0  0  0  0  0  0  0  0  0  0  0
   13.4973   -4.9723  -15.4248 C   0  0  0  0  0  0  0  0  0  0  0  0
   12.4392   -4.0929  -16.1360 C   0  0  0  0  0  0  0  0  0  0  0  0
   11.1569   -4.5870  -15.6610 N   0  0  0  0  0  0  0  0  0  0  0  0
   17.7139   -3.6934  -15.3824 C   0  0  0  0  0  0  0  0  0  0  0  0
   17.7014   -2.7652  -16.4362 O   0  0  0  0  0  0  0  0  0  0  0  0
   18.0582   -3.2656  -14.2553 O   0  0  0  0  0  0  0  0  0  0  0  0
  2  1  1  1
  2  4  1  0
  2  3  1  0
  4  6  1  0
  4  5  1  1
  6  7  2  0
  9  8  1  0
 10  9  1  1
 10 12  1  0
 11 10  1  0
 11  6  1  0
 12 13  2  0
 12 14  1  0
 14 15  1  0
 15 21  1  0
 15 16  1  1
 17 16  1  0
 18 17  1  0
 19 18  1  0
 20 19  1  0
 21 23  2  0
 21 22  1  0
M  END
$$$$
