VSK.pdb
     RDKit          3D

 23 22  0  0  1  0  0  0  0  0999 V2000
   22.2511  -16.0608  -21.0162 C   0  0  0  0  0  0  0  0  0  0  0  0
   23.3102  -17.0546  -20.5863 C   0  0  2  0  0  0  0  0  0  0  0  0
   22.6252  -18.3426  -20.2043 C   0  0  0  0  0  0  0  0  0  0  0  0
   24.0777  -16.4364  -19.4489 C   0  0  2  0  0  0  0  0  0  0  0  0
   24.6383  -15.1916  -19.9248 N   0  0  0  0  0  0  0  0  0  0  0  0
   25.0991  -17.3380  -18.8853 C   0  0  0  0  0  0  0  0  0  0  0  0
   25.9036  -17.8790  -19.6835 O   0  0  0  0  0  0  0  0  0  0  0  0
   27.8623  -18.7939  -15.2075 O   0  0  0  0  0  0  0  0  0  0  0  0
   26.9574  -17.9071  -15.7740 C   0  0  0  0  0  0  0  0  0  0  0  0
   26.2421  -18.5140  -16.9618 C   0  0  2  0  0  0  0  0  0  0  0  0
   25.2276  -17.6302  -17.5010 N   0  0  0  0  0  0  0  0  0  0  0  0
   25.5890  -19.7943  -16.5881 C   0  0  0  0  0  0  0  0  0  0  0  0
   24.4468  -19.8225  -16.0557 O   0  0  0  0  0  0  0  0  0  0  0  0
   26.2164  -21.0556  -16.8106 N   0  0  0  0  0  0  0  0  0  0  0  0
   25.6714  -22.2980  -16.3160 C   0  0  1  0  0  0  0  0  0  0  0  0
   26.5086  -23.4637  -16.7238 C   0  0  0  0  0  0  0  0  0  0  0  0
   25.9860  -24.8145  -16.4409 C   0  0  0  0  0  0  0  0  0  0  0  0
   26.8790  -25.9005  -16.9187 C   0  0  0  0  0  0  0  0  0  0  0  0
   26.2147  -27.2828  -16.7029 C   0  0  0  0  0  0  0  0  0  0  0  0
   27.0897  -28.2308  -17.3734 N   0  0  0  0  0  0  0  0  0  0  0  0
   25.4114  -22.2226  -14.8779 C   0  0  0  0  0  0  0  0  0  0  0  0
   26.1675  -21.3880  -14.0387 O   0  0  0  0  0  0  0  0  0  0  0  0
   24.5028  -22.8960  -14.3368 O   0  0  0  0  0  0  0  0  0  0  0  0
  2  1  1  1
  2  4  1  0
  2  3  1  0
  4  6  1  0
  4  5  1  6
  6  7  2  0
  9  8  1  0
 10  9  1  1
 10 12  1  0
 11 10  1  0
 11  6  1  0
 12 13  2  0
 12 14  1  0
 14 15  1  0
 15 21  1  0
 15 16  1  1
 17 16  1  0
 18 17  1  0
 19 18  1  0
 20 19  1  0
 21 23  2  0
 21 22  1  0
M  END
$$$$
