YWP.pdb
     RDKit          3D

 34 37  0  0  1  0  0  0  0  0999 V2000
   13.0820  -22.7535   18.4124 O   0  0  0  0  0  0  0  0  0  0  0  0
   13.0364  -21.6141   19.1817 C   0  0  0  0  0  0  0  0  0  0  0  0
   13.4402  -20.3806   18.7022 C   0  0  0  0  0  0  0  0  0  0  0  0
   13.3676  -19.2880   19.5231 C   0  0  0  0  0  0  0  0  0  0  0  0
   12.9060  -19.3397   20.8309 C   0  0  0  0  0  0  0  0  0  0  0  0
   12.8437  -18.1310   21.6935 C   0  0  0  0  0  0  0  0  0  0  0  0
   11.7592  -17.2133   21.1360 C   0  0  2  0  0  0  0  0  0  0  0  0
   12.4191  -16.4601   20.0702 N   0  0  0  0  0  0  0  0  0  0  0  0
   11.2408  -16.3040   22.1866 C   0  0  0  0  0  0  0  0  0  0  0  0
   11.9567  -15.3506   22.5739 O   0  0  0  0  0  0  0  0  0  0  0  0
   12.5091  -20.5838   21.2849 C   0  0  0  0  0  0  0  0  0  0  0  0
   12.5677  -21.7075   20.4868 C   0  0  0  0  0  0  0  0  0  0  0  0
    9.9704  -16.4747   22.7653 N   0  0  0  0  0  0  0  0  0  0  0  0
    9.5997  -15.6062   23.9182 C   0  0  1  0  0  0  0  0  0  0  0  0
    8.0989  -15.5198   23.7833 C   0  0  0  0  0  0  0  0  0  0  0  0
    7.3401  -15.0296   24.9045 C   0  0  0  0  0  0  0  0  0  0  0  0
    6.6365  -15.6777   25.9039 C   0  0  0  0  0  0  0  0  0  0  0  0
    6.0692  -14.7729   26.7210 N   0  0  0  0  0  0  0  0  0  0  0  0
    6.3782  -13.5370   26.2899 C   0  0  0  0  0  0  0  0  0  0  0  0
    6.0475  -12.2867   26.7721 C   0  0  0  0  0  0  0  0  0  0  0  0
    6.5072  -11.1453   26.1251 C   0  0  0  0  0  0  0  0  0  0  0  0
    7.2895  -11.2587   25.0075 C   0  0  0  0  0  0  0  0  0  0  0  0
    7.6014  -12.5212   24.5517 C   0  0  0  0  0  0  0  0  0  0  0  0
    7.1537  -13.6698   25.1816 C   0  0  0  0  0  0  0  0  0  0  0  0
   10.0757  -16.2535   25.1395 C   0  0  0  0  0  0  0  0  0  0  0  0
   10.5454  -17.4463   25.0074 O   0  0  0  0  0  0  0  0  0  0  0  0
   10.0697  -15.6944   26.4226 N   0  0  0  0  0  0  0  0  0  0  0  0
    9.4230  -14.5086   26.9063 C   0  0  0  0  0  0  0  0  0  0  0  0
   10.3747  -13.9477   27.9658 C   0  0  0  0  0  0  0  0  0  0  0  0
   11.4767  -14.9800   28.0674 C   0  0  0  0  0  0  0  0  0  0  0  0
   10.7660  -16.2362   27.5731 C   0  0  1  0  0  0  0  0  0  0  0  0
    9.8547  -16.6670   28.6430 C   0  0  0  0  0  0  0  0  0  0  0  0
    8.4782  -16.5502   28.6080 O   0  0  0  0  0  0  0  0  0  0  0  0
   10.3637  -17.1824   29.6722 O   0  0  0  0  0  0  0  0  0  0  0  0
  2  1  1  0
  3  2  2  0
  4  3  1  0
  5  4  2  0
  5 11  1  0
  6  7  1  0
  6  5  1  0
  7  9  1  0
  7  8  1  6
  9 10  2  0
 11 12  2  0
 12  2  1  0
 13  9  1  0
 13 14  1  0
 14 25  1  0
 14 15  1  1
 16 15  1  0
 17 16  2  0
 18 17  1  0
 19 18  1  0
 19 24  2  0
 20 21  2  0
 20 19  1  0
 21 22  1  0
 22 23  2  0
 24 23  1  0
 24 16  1  0
 25 27  1  0
 26 25  2  0
 27 28  1  0
 27 31  1  0
 28 29  1  0
 29 30  1  0
 31 30  1  0
 31 32  1  1
 32 34  2  0
 32 33  1  0
M  END
$$$$
