YWP.pdb
     RDKit          3D

 34 37  0  0  1  0  0  0  0  0999 V2000
    8.2929  -19.0943   16.6290 O   0  0  0  0  0  0  0  0  0  0  0  0
    9.1086  -18.7448   17.6800 C   0  0  0  0  0  0  0  0  0  0  0  0
    8.7952  -17.7150   18.5495 C   0  0  0  0  0  0  0  0  0  0  0  0
    9.6533  -17.4212   19.5744 C   0  0  0  0  0  0  0  0  0  0  0  0
   10.8405  -18.1034   19.8012 C   0  0  0  0  0  0  0  0  0  0  0  0
   11.7486  -17.7538   20.9245 C   0  0  0  0  0  0  0  0  0  0  0  0
   11.9327  -16.2388   20.9236 C   0  0  2  0  0  0  0  0  0  0  0  0
   13.3806  -16.0388   20.8761 N   0  0  0  0  0  0  0  0  0  0  0  0
   11.3525  -15.6322   22.1462 C   0  0  0  0  0  0  0  0  0  0  0  0
   12.1228  -15.1842   23.0279 O   0  0  0  0  0  0  0  0  0  0  0  0
   11.1295  -19.1271   18.9181 C   0  0  0  0  0  0  0  0  0  0  0  0
   10.2891  -19.4523   17.8735 C   0  0  0  0  0  0  0  0  0  0  0  0
    9.9641  -15.5420   22.3515 N   0  0  0  0  0  0  0  0  0  0  0  0
    9.4787  -14.9598   23.6346 C   0  0  1  0  0  0  0  0  0  0  0  0
    8.0107  -14.7490   23.3545 C   0  0  0  0  0  0  0  0  0  0  0  0
    7.1339  -14.4912   24.4671 C   0  0  0  0  0  0  0  0  0  0  0  0
    6.2947  -15.3132   25.1977 C   0  0  0  0  0  0  0  0  0  0  0  0
    5.6569  -14.5929   26.1371 N   0  0  0  0  0  0  0  0  0  0  0  0
    6.0514  -13.3100   26.0499 C   0  0  0  0  0  0  0  0  0  0  0  0
    5.6993  -12.1897   26.7752 C   0  0  0  0  0  0  0  0  0  0  0  0
    6.2670  -10.9569   26.4743 C   0  0  0  0  0  0  0  0  0  0  0  0
    7.1773  -10.8510   25.4574 C   0  0  0  0  0  0  0  0  0  0  0  0
    7.5073  -11.9883   24.7526 C   0  0  0  0  0  0  0  0  0  0  0  0
    6.9533  -13.2249   25.0367 C   0  0  0  0  0  0  0  0  0  0  0  0
    9.7750  -15.9143   24.7015 C   0  0  0  0  0  0  0  0  0  0  0  0
   10.1720  -17.0822   24.3284 O   0  0  0  0  0  0  0  0  0  0  0  0
    9.6707  -15.6702   26.0757 N   0  0  0  0  0  0  0  0  0  0  0  0
    8.9087  -14.6784   26.7786 C   0  0  0  0  0  0  0  0  0  0  0  0
    9.7669  -14.3122   27.9920 C   0  0  0  0  0  0  0  0  0  0  0  0
   10.9458  -15.2584   27.9197 C   0  0  0  0  0  0  0  0  0  0  0  0
   10.3625  -16.4130   27.1109 C   0  0  1  0  0  0  0  0  0  0  0  0
    9.4476  -17.1444   27.9991 C   0  0  0  0  0  0  0  0  0  0  0  0
    9.8356  -17.9062   29.0848 O   0  0  0  0  0  0  0  0  0  0  0  0
    8.2150  -17.0739   27.7552 O   0  0  0  0  0  0  0  0  0  0  0  0
  2  1  1  0
  3  2  2  0
  4  3  1  0
  5  4  2  0
  5 11  1  0
  6  7  1  0
  6  5  1  0
  7  9  1  0
  7  8  1  1
  9 10  2  0
 11 12  2  0
 12  2  1  0
 13  9  1  0
 13 14  1  0
 14 25  1  0
 14 15  1  6
 16 15  1  0
 17 16  2  0
 18 17  1  0
 19 18  1  0
 19 24  2  0
 20 21  2  0
 20 19  1  0
 21 22  1  0
 22 23  2  0
 24 23  1  0
 24 16  1  0
 25 27  1  0
 26 25  2  0
 27 28  1  0
 27 31  1  0
 28 29  1  0
 29 30  1  0
 31 30  1  0
 31 32  1  1
 32 34  2  0
 32 33  1  0
M  END
$$$$
