YWP.pdb
     RDKit          3D

 34 37  0  0  1  0  0  0  0  0999 V2000
   14.7758  -20.4461   16.7793 O   0  0  0  0  0  0  0  0  0  0  0  0
   14.3639  -19.5634   17.7506 C   0  0  0  0  0  0  0  0  0  0  0  0
   13.7332  -19.9797   18.9097 C   0  0  0  0  0  0  0  0  0  0  0  0
   13.3499  -19.0462   19.8342 C   0  0  0  0  0  0  0  0  0  0  0  0
   13.5576  -17.6826   19.6800 C   0  0  0  0  0  0  0  0  0  0  0  0
   13.1251  -16.6981   20.7059 C   0  0  0  0  0  0  0  0  0  0  0  0
   11.5993  -16.6979   20.7406 C   0  0  2  0  0  0  0  0  0  0  0  0
   11.1972  -16.0806   19.4773 N   0  0  0  0  0  0  0  0  0  0  0  0
   11.0942  -15.9189   21.8971 C   0  0  0  0  0  0  0  0  0  0  0  0
   11.3432  -14.6919   21.9599 O   0  0  0  0  0  0  0  0  0  0  0  0
   14.1893  -17.2939   18.5133 C   0  0  0  0  0  0  0  0  0  0  0  0
   14.5901  -18.2056   17.5587 C   0  0  0  0  0  0  0  0  0  0  0  0
   10.3436  -16.5106   22.9287 N   0  0  0  0  0  0  0  0  0  0  0  0
    9.8679  -15.6404   24.0412 C   0  0  1  0  0  0  0  0  0  0  0  0
    8.3907  -15.5305   23.7514 C   0  0  0  0  0  0  0  0  0  0  0  0
    7.5209  -15.0746   24.8043 C   0  0  0  0  0  0  0  0  0  0  0  0
    6.7625  -15.7534   25.7412 C   0  0  0  0  0  0  0  0  0  0  0  0
    6.0920  -14.8747   26.5070 N   0  0  0  0  0  0  0  0  0  0  0  0
    6.3858  -13.6260   26.1026 C   0  0  0  0  0  0  0  0  0  0  0  0
    5.9652  -12.3915   26.5545 C   0  0  0  0  0  0  0  0  0  0  0  0
    6.4310  -11.2307   25.9478 C   0  0  0  0  0  0  0  0  0  0  0  0
    7.3086  -11.3091   24.9001 C   0  0  0  0  0  0  0  0  0  0  0  0
    7.7089  -12.5567   24.4731 C   0  0  0  0  0  0  0  0  0  0  0  0
    7.2568  -13.7242   25.0638 C   0  0  0  0  0  0  0  0  0  0  0  0
   10.2045  -16.2991   25.3021 C   0  0  0  0  0  0  0  0  0  0  0  0
   10.7256  -17.4742   25.2108 O   0  0  0  0  0  0  0  0  0  0  0  0
   10.0164  -15.7679   26.5833 N   0  0  0  0  0  0  0  0  0  0  0  0
    9.1828  -14.6835   27.0162 C   0  0  0  0  0  0  0  0  0  0  0  0
    9.9598  -14.0237   28.1581 C   0  0  0  0  0  0  0  0  0  0  0  0
   11.1732  -14.9077   28.3489 C   0  0  0  0  0  0  0  0  0  0  0  0
   10.6759  -16.2359   27.7867 C   0  0  1  0  0  0  0  0  0  0  0  0
    9.7398  -16.7987   28.7704 C   0  0  0  0  0  0  0  0  0  0  0  0
    8.4306  -17.1541   28.5071 O   0  0  0  0  0  0  0  0  0  0  0  0
   10.1593  -16.9716   29.9443 O   0  0  0  0  0  0  0  0  0  0  0  0
  2  1  1  0
  3  2  2  0
  4  3  1  0
  5  4  2  0
  5 11  1  0
  6  7  1  0
  6  5  1  0
  7  9  1  0
  7  8  1  6
  9 10  2  0
 11 12  2  0
 12  2  1  0
 13  9  1  0
 13 14  1  0
 14 25  1  0
 14 15  1  6
 16 15  1  0
 17 16  2  0
 18 17  1  0
 19 18  1  0
 19 24  2  0
 20 21  2  0
 20 19  1  0
 21 22  1  0
 22 23  2  0
 24 23  1  0
 24 16  1  0
 25 27  1  0
 26 25  2  0
 27 28  1  0
 27 31  1  0
 28 29  1  0
 29 30  1  0
 31 30  1  0
 31 32  1  1
 32 34  2  0
 32 33  1  0
M  END
$$$$
