YWP.pdb
     RDKit          3D

 34 37  0  0  1  0  0  0  0  0999 V2000
   12.7406  -22.2870   17.8294 O   0  0  0  0  0  0  0  0  0  0  0  0
   12.6105  -21.2740   18.7509 C   0  0  0  0  0  0  0  0  0  0  0  0
   11.9778  -21.4572   19.9678 C   0  0  0  0  0  0  0  0  0  0  0  0
   11.8843  -20.4047   20.8375 C   0  0  0  0  0  0  0  0  0  0  0  0
   12.3934  -19.1413   20.5715 C   0  0  0  0  0  0  0  0  0  0  0  0
   12.2707  -18.0214   21.5408 C   0  0  0  0  0  0  0  0  0  0  0  0
   10.8399  -17.4952   21.4696 C   0  0  2  0  0  0  0  0  0  0  0  0
   10.7624  -16.7969   20.1870 N   0  0  0  0  0  0  0  0  0  0  0  0
   10.5566  -16.5721   22.5951 C   0  0  0  0  0  0  0  0  0  0  0  0
   11.1447  -15.4658   22.6379 O   0  0  0  0  0  0  0  0  0  0  0  0
   13.0203  -18.9855   19.3491 C   0  0  0  0  0  0  0  0  0  0  0  0
   13.1338  -20.0229   18.4468 C   0  0  0  0  0  0  0  0  0  0  0  0
    9.6485  -16.8956   23.6192 N   0  0  0  0  0  0  0  0  0  0  0  0
    9.5707  -15.9924   24.8021 C   0  0  1  0  0  0  0  0  0  0  0  0
    8.0826  -15.9021   25.0375 C   0  0  0  0  0  0  0  0  0  0  0  0
    7.3757  -14.7651   24.5076 C   0  0  0  0  0  0  0  0  0  0  0  0
    6.8636  -14.4932   23.2516 C   0  0  0  0  0  0  0  0  0  0  0  0
    6.3015  -13.2716   23.2441 N   0  0  0  0  0  0  0  0  0  0  0  0
    6.4268  -12.7230   24.4657 C   0  0  0  0  0  0  0  0  0  0  0  0
    6.0234  -11.5033   24.9704 C   0  0  0  0  0  0  0  0  0  0  0  0
    6.2828  -11.1767   26.2966 C   0  0  0  0  0  0  0  0  0  0  0  0
    6.9393  -12.0646   27.1057 C   0  0  0  0  0  0  0  0  0  0  0  0
    7.3287  -13.2736   26.5711 C   0  0  0  0  0  0  0  0  0  0  0  0
    7.0798  -13.6176   25.2535 C   0  0  0  0  0  0  0  0  0  0  0  0
   10.3335  -16.6068   25.8873 C   0  0  0  0  0  0  0  0  0  0  0  0
   11.0271  -17.6482   25.5789 O   0  0  0  0  0  0  0  0  0  0  0  0
   10.3784  -16.1639   27.2143 N   0  0  0  0  0  0  0  0  0  0  0  0
    9.6303  -15.1261   27.8635 C   0  0  0  0  0  0  0  0  0  0  0  0
   10.5979  -14.5275   28.8875 C   0  0  0  0  0  0  0  0  0  0  0  0
   11.8317  -15.3990   28.7948 C   0  0  0  0  0  0  0  0  0  0  0  0
   11.2493  -16.6968   28.2436 C   0  0  1  0  0  0  0  0  0  0  0  0
   10.5119  -17.3402   29.3405 C   0  0  0  0  0  0  0  0  0  0  0  0
    9.1353  -17.3845   29.4527 O   0  0  0  0  0  0  0  0  0  0  0  0
   11.1827  -17.8946   30.2498 O   0  0  0  0  0  0  0  0  0  0  0  0
  2  1  1  0
  3  2  2  0
  4  3  1  0
  5  4  2  0
  5 11  1  0
  6  7  1  0
  6  5  1  0
  7  9  1  0
  7  8  1  6
  9 10  2  0
 11 12  2  0
 12  2  1  0
 13  9  1  0
 13 14  1  0
 14 25  1  0
 14 15  1  1
 16 15  1  0
 17 16  2  0
 18 17  1  0
 19 18  1  0
 19 24  2  0
 20 21  2  0
 20 19  1  0
 21 22  1  0
 22 23  2  0
 24 23  1  0
 24 16  1  0
 25 27  1  0
 26 25  2  0
 27 28  1  0
 27 31  1  0
 28 29  1  0
 29 30  1  0
 31 30  1  0
 31 32  1  1
 32 34  2  0
 32 33  1  0
M  END
$$$$
