YWP.pdb
     RDKit          3D

 34 37  0  0  1  0  0  0  0  0999 V2000
    8.0306  -14.3654   15.5363 O   0  0  0  0  0  0  0  0  0  0  0  0
    8.2365  -14.2774   16.8935 C   0  0  0  0  0  0  0  0  0  0  0  0
    9.4511  -14.5873   17.4795 C   0  0  0  0  0  0  0  0  0  0  0  0
    9.5857  -14.4772   18.8369 C   0  0  0  0  0  0  0  0  0  0  0  0
    8.5618  -14.0667   19.6792 C   0  0  0  0  0  0  0  0  0  0  0  0
    8.7452  -13.9612   21.1502 C   0  0  0  0  0  0  0  0  0  0  0  0
    9.5785  -15.1562   21.6050 C   0  0  2  0  0  0  0  0  0  0  0  0
    8.7679  -16.3261   21.2688 N   0  0  0  0  0  0  0  0  0  0  0  0
    9.8439  -15.0950   23.0628 C   0  0  0  0  0  0  0  0  0  0  0  0
   10.5519  -14.1641   23.5140 O   0  0  0  0  0  0  0  0  0  0  0  0
    7.3592  -13.7635   19.0682 C   0  0  0  0  0  0  0  0  0  0  0  0
    7.1859  -13.8624   17.7032 C   0  0  0  0  0  0  0  0  0  0  0  0
    9.3276  -16.0478   23.9591 N   0  0  0  0  0  0  0  0  0  0  0  0
    9.2707  -15.6949   25.4059 C   0  0  1  0  0  0  0  0  0  0  0  0
    7.9176  -16.2267   25.8113 C   0  0  0  0  0  0  0  0  0  0  0  0
    6.8129  -15.3054   25.8730 C   0  0  0  0  0  0  0  0  0  0  0  0
    5.4466  -15.4846   25.7505 C   0  0  0  0  0  0  0  0  0  0  0  0
    4.8205  -14.2998   25.8619 N   0  0  0  0  0  0  0  0  0  0  0  0
    5.7374  -13.3351   26.0559 C   0  0  0  0  0  0  0  0  0  0  0  0
    5.6131  -11.9712   26.2274 C   0  0  0  0  0  0  0  0  0  0  0  0
    6.7447  -11.1854   26.4133 C   0  0  0  0  0  0  0  0  0  0  0  0
    7.9858  -11.7627   26.4267 C   0  0  0  0  0  0  0  0  0  0  0  0
    8.0756  -13.1268   26.2526 C   0  0  0  0  0  0  0  0  0  0  0  0
    6.9610  -13.9265   26.0662 C   0  0  0  0  0  0  0  0  0  0  0  0
   10.4094  -16.3289   26.0680 C   0  0  0  0  0  0  0  0  0  0  0  0
   11.2808  -16.8841   25.2978 O   0  0  0  0  0  0  0  0  0  0  0  0
   10.6342  -16.3797   27.4486 N   0  0  0  0  0  0  0  0  0  0  0  0
    9.8710  -15.8187   28.5261 C   0  0  0  0  0  0  0  0  0  0  0  0
   10.9099  -15.4257   29.5791 C   0  0  0  0  0  0  0  0  0  0  0  0
   12.2234  -15.9265   29.0185 C   0  0  0  0  0  0  0  0  0  0  0  0
   11.7542  -17.0414   28.0887 C   0  0  1  0  0  0  0  0  0  0  0  0
   11.3436  -18.1688   28.9380 C   0  0  0  0  0  0  0  0  0  0  0  0
   11.1217  -19.4580   28.4929 O   0  0  0  0  0  0  0  0  0  0  0  0
   11.1805  -17.9466   30.1660 O   0  0  0  0  0  0  0  0  0  0  0  0
  2  1  1  0
  3  2  2  0
  4  3  1  0
  5  4  2  0
  5 11  1  0
  6  7  1  0
  6  5  1  0
  7  9  1  0
  7  8  1  1
  9 10  2  0
 11 12  2  0
 12  2  1  0
 13  9  1  0
 13 14  1  0
 14 25  1  0
 14 15  1  1
 16 15  1  0
 17 16  2  0
 18 17  1  0
 19 18  1  0
 19 24  2  0
 20 21  2  0
 20 19  1  0
 21 22  1  0
 22 23  2  0
 24 23  1  0
 24 16  1  0
 25 27  1  0
 26 25  2  0
 27 28  1  0
 27 31  1  0
 28 29  1  0
 29 30  1  0
 31 30  1  0
 31 32  1  1
 32 34  2  0
 32 33  1  0
M  END
$$$$
