YWP.pdb
     RDKit          3D

 34 37  0  0  1  0  0  0  0  0999 V2000
   10.0154  -15.4768   13.7723 O   0  0  0  0  0  0  0  0  0  0  0  0
    9.7047  -15.0661   15.0478 C   0  0  0  0  0  0  0  0  0  0  0  0
    8.4230  -14.6949   15.4143 C   0  0  0  0  0  0  0  0  0  0  0  0
    8.1850  -14.2965   16.7017 C   0  0  0  0  0  0  0  0  0  0  0  0
    9.1661  -14.2400   17.6818 C   0  0  0  0  0  0  0  0  0  0  0  0
    8.8696  -13.7997   19.0700 C   0  0  0  0  0  0  0  0  0  0  0  0
    9.1147  -14.9851   19.9995 C   0  0  2  0  0  0  0  0  0  0  0  0
    8.1225  -15.9830   19.6014 N   0  0  0  0  0  0  0  0  0  0  0  0
    8.9347  -14.5937   21.4185 C   0  0  0  0  0  0  0  0  0  0  0  0
    8.1174  -13.6861   21.7007 O   0  0  0  0  0  0  0  0  0  0  0  0
   10.4373  -14.6159   17.2892 C   0  0  0  0  0  0  0  0  0  0  0  0
   10.7154  -15.0231   16.0008 C   0  0  0  0  0  0  0  0  0  0  0  0
    9.6512  -15.2071   22.4617 N   0  0  0  0  0  0  0  0  0  0  0  0
    9.2657  -14.8851   23.8648 C   0  0  1  0  0  0  0  0  0  0  0  0
    7.7929  -15.2153   23.8750 C   0  0  0  0  0  0  0  0  0  0  0  0
    7.0222  -14.8608   25.0384 C   0  0  0  0  0  0  0  0  0  0  0  0
    6.3404  -15.6248   25.9685 C   0  0  0  0  0  0  0  0  0  0  0  0
    5.7481  -14.8223   26.8703 N   0  0  0  0  0  0  0  0  0  0  0  0
    6.0192  -13.5412   26.5632 C   0  0  0  0  0  0  0  0  0  0  0  0
    5.6524  -12.3550   27.1660 C   0  0  0  0  0  0  0  0  0  0  0  0
    6.0765  -11.1422   26.6350 C   0  0  0  0  0  0  0  0  0  0  0  0
    6.8594  -11.1215   25.5123 C   0  0  0  0  0  0  0  0  0  0  0  0
    7.2079  -12.3231   24.9346 C   0  0  0  0  0  0  0  0  0  0  0  0
    6.7960  -13.5410   25.4480 C   0  0  0  0  0  0  0  0  0  0  0  0
   10.0895  -15.7006   24.7554 C   0  0  0  0  0  0  0  0  0  0  0  0
   10.7960  -16.6216   24.1954 O   0  0  0  0  0  0  0  0  0  0  0  0
   10.1796  -15.5656   26.1456 N   0  0  0  0  0  0  0  0  0  0  0  0
    9.3525  -14.8237   27.0533 C   0  0  0  0  0  0  0  0  0  0  0  0
   10.3088  -14.3330   28.1430 C   0  0  0  0  0  0  0  0  0  0  0  0
   11.6375  -14.9672   27.7924 C   0  0  0  0  0  0  0  0  0  0  0  0
   11.1931  -16.1800   26.9806 C   0  0  1  0  0  0  0  0  0  0  0  0
   10.6384  -17.1561   27.9296 C   0  0  0  0  0  0  0  0  0  0  0  0
    9.3753  -17.7109   27.8499 O   0  0  0  0  0  0  0  0  0  0  0  0
   11.3671  -17.5167   28.8902 O   0  0  0  0  0  0  0  0  0  0  0  0
  2  1  1  0
  3  2  2  0
  4  3  1  0
  5  4  2  0
  5 11  1  0
  6  7  1  0
  6  5  1  0
  7  9  1  0
  7  8  1  6
  9 10  2  0
 11 12  2  0
 12  2  1  0
 13  9  1  0
 13 14  1  0
 14 25  1  0
 14 15  1  6
 16 15  1  0
 17 16  2  0
 18 17  1  0
 19 18  1  0
 19 24  2  0
 20 21  2  0
 20 19  1  0
 21 22  1  0
 22 23  2  0
 24 23  1  0
 24 16  1  0
 25 27  1  0
 26 25  2  0
 27 28  1  0
 27 31  1  0
 28 29  1  0
 29 30  1  0
 31 30  1  0
 31 32  1  1
 32 34  2  0
 32 33  1  0
M  END
$$$$
