YWP.pdb
     RDKit          3D

 34 37  0  0  1  0  0  0  0  0999 V2000
    9.1244  -13.0240   16.1814 O   0  0  0  0  0  0  0  0  0  0  0  0
    8.7223  -13.5299   17.3957 C   0  0  0  0  0  0  0  0  0  0  0  0
    7.4710  -13.2722   17.9273 C   0  0  0  0  0  0  0  0  0  0  0  0
    7.1372  -13.8085   19.1413 C   0  0  0  0  0  0  0  0  0  0  0  0
    7.9903  -14.6097   19.8874 C   0  0  0  0  0  0  0  0  0  0  0  0
    7.5928  -15.1728   21.2040 C   0  0  0  0  0  0  0  0  0  0  0  0
    8.7535  -16.0180   21.7214 C   0  0  2  0  0  0  0  0  0  0  0  0
    8.2206  -17.3779   21.7964 N   0  0  0  0  0  0  0  0  0  0  0  0
    9.1998  -15.5480   23.0553 C   0  0  0  0  0  0  0  0  0  0  0  0
    9.7640  -14.4327   23.1503 O   0  0  0  0  0  0  0  0  0  0  0  0
    9.2338  -14.8512   19.3337 C   0  0  0  0  0  0  0  0  0  0  0  0
    9.6059  -14.3280   18.1126 C   0  0  0  0  0  0  0  0  0  0  0  0
    9.0116  -16.3125   24.2207 N   0  0  0  0  0  0  0  0  0  0  0  0
    9.3060  -15.6755   25.5355 C   0  0  1  0  0  0  0  0  0  0  0  0
    8.0055  -15.8615   26.2787 C   0  0  0  0  0  0  0  0  0  0  0  0
    6.8798  -15.0485   25.8979 C   0  0  0  0  0  0  0  0  0  0  0  0
    5.6077  -15.3708   25.4601 C   0  0  0  0  0  0  0  0  0  0  0  0
    4.9156  -14.2464   25.2054 N   0  0  0  0  0  0  0  0  0  0  0  0
    5.6966  -13.1821   25.4632 C   0  0  0  0  0  0  0  0  0  0  0  0
    5.4620  -11.8256   25.3645 C   0  0  0  0  0  0  0  0  0  0  0  0
    6.4607  -10.9186   25.7001 C   0  0  0  0  0  0  0  0  0  0  0  0
    7.6800  -11.3690   26.1294 C   0  0  0  0  0  0  0  0  0  0  0  0
    7.8821  -12.7293   26.2167 C   0  0  0  0  0  0  0  0  0  0  0  0
    6.9006  -13.6485   25.8875 C   0  0  0  0  0  0  0  0  0  0  0  0
   10.4570  -16.3619   26.1195 C   0  0  0  0  0  0  0  0  0  0  0  0
   11.2236  -16.9917   25.2970 O   0  0  0  0  0  0  0  0  0  0  0  0
   10.7962  -16.3894   27.4771 N   0  0  0  0  0  0  0  0  0  0  0  0
   10.1181  -15.8211   28.6064 C   0  0  0  0  0  0  0  0  0  0  0  0
   11.2359  -15.4003   29.5637 C   0  0  0  0  0  0  0  0  0  0  0  0
   12.5045  -15.8944   28.9027 C   0  0  0  0  0  0  0  0  0  0  0  0
   11.9739  -17.0285   28.0310 C   0  0  1  0  0  0  0  0  0  0  0  0
   11.6496  -18.1476   28.9272 C   0  0  0  0  0  0  0  0  0  0  0  0
   12.5774  -18.9224   29.5969 O   0  0  0  0  0  0  0  0  0  0  0  0
   10.4343  -18.4246   29.1006 O   0  0  0  0  0  0  0  0  0  0  0  0
  2  1  1  0
  3  2  2  0
  4  3  1  0
  5  4  2  0
  5 11  1  0
  6  7  1  0
  6  5  1  0
  7  9  1  0
  7  8  1  1
  9 10  2  0
 11 12  2  0
 12  2  1  0
 13  9  1  0
 13 14  1  0
 14 25  1  0
 14 15  1  1
 16 15  1  0
 17 16  2  0
 18 17  1  0
 19 18  1  0
 19 24  2  0
 20 21  2  0
 20 19  1  0
 21 22  1  0
 22 23  2  0
 24 23  1  0
 24 16  1  0
 25 27  1  0
 26 25  2  0
 27 28  1  0
 27 31  1  0
 28 29  1  0
 29 30  1  0
 31 30  1  0
 31 32  1  1
 32 34  2  0
 32 33  1  0
M  END
$$$$
