YWP.pdb
     RDKit          3D

 34 37  0  0  1  0  0  0  0  0999 V2000
    8.6948  -14.9056   15.1221 O   0  0  0  0  0  0  0  0  0  0  0  0
    8.7389  -14.6317   16.4694 C   0  0  0  0  0  0  0  0  0  0  0  0
    9.8085  -15.0020   17.2653 C   0  0  0  0  0  0  0  0  0  0  0  0
    9.7861  -14.6970   18.5992 C   0  0  0  0  0  0  0  0  0  0  0  0
    8.7387  -14.0272   19.2161 C   0  0  0  0  0  0  0  0  0  0  0  0
    8.7492  -13.7151   20.6692 C   0  0  0  0  0  0  0  0  0  0  0  0
    9.0073  -15.0154   21.4254 C   0  0  2  0  0  0  0  0  0  0  0  0
    7.8857  -15.8835   21.0688 N   0  0  0  0  0  0  0  0  0  0  0  0
    9.0517  -14.7792   22.8888 C   0  0  0  0  0  0  0  0  0  0  0  0
    8.9208  -13.6097   23.3209 O   0  0  0  0  0  0  0  0  0  0  0  0
    7.6831  -13.6689   18.3984 C   0  0  0  0  0  0  0  0  0  0  0  0
    7.6702  -13.9591   17.0498 C   0  0  0  0  0  0  0  0  0  0  0  0
    9.2364  -15.8245   23.8113 N   0  0  0  0  0  0  0  0  0  0  0  0
    9.2437  -15.4888   25.2633 C   0  0  1  0  0  0  0  0  0  0  0  0
    7.9040  -16.0136   25.7191 C   0  0  0  0  0  0  0  0  0  0  0  0
    6.7750  -15.1205   25.6882 C   0  0  0  0  0  0  0  0  0  0  0  0
    5.4275  -15.3351   25.4605 C   0  0  0  0  0  0  0  0  0  0  0  0
    4.7650  -14.1662   25.5148 N   0  0  0  0  0  0  0  0  0  0  0  0
    5.6393  -13.1774   25.7735 C   0  0  0  0  0  0  0  0  0  0  0  0
    5.4678  -11.8164   25.9258 C   0  0  0  0  0  0  0  0  0  0  0  0
    6.5613  -11.0011   26.1944 C   0  0  0  0  0  0  0  0  0  0  0  0
    7.8117  -11.5465   26.3085 C   0  0  0  0  0  0  0  0  0  0  0  0
    7.9490  -12.9086   26.1510 C   0  0  0  0  0  0  0  0  0  0  0  0
    6.8729  -13.7374   25.8833 C   0  0  0  0  0  0  0  0  0  0  0  0
   10.4033  -16.1409   25.8693 C   0  0  0  0  0  0  0  0  0  0  0  0
   11.2378  -16.6918   25.0564 O   0  0  0  0  0  0  0  0  0  0  0  0
   10.6839  -16.2131   27.2386 N   0  0  0  0  0  0  0  0  0  0  0  0
    9.9122  -15.7620   28.3608 C   0  0  0  0  0  0  0  0  0  0  0  0
   10.9483  -15.3042   29.3902 C   0  0  0  0  0  0  0  0  0  0  0  0
   12.2812  -15.6589   28.7673 C   0  0  0  0  0  0  0  0  0  0  0  0
   11.8849  -16.7840   27.8162 C   0  0  1  0  0  0  0  0  0  0  0  0
   11.6155  -17.9716   28.6395 C   0  0  0  0  0  0  0  0  0  0  0  0
   10.3850  -18.5877   28.7649 O   0  0  0  0  0  0  0  0  0  0  0  0
   12.5773  -18.4685   29.2812 O   0  0  0  0  0  0  0  0  0  0  0  0
  2  1  1  0
  3  2  2  0
  4  3  1  0
  5  4  2  0
  5 11  1  0
  6  7  1  0
  6  5  1  0
  7  9  1  0
  7  8  1  1
  9 10  2  0
 11 12  2  0
 12  2  1  0
 13  9  1  0
 13 14  1  0
 14 25  1  0
 14 15  1  1
 16 15  1  0
 17 16  2  0
 18 17  1  0
 19 18  1  0
 19 24  2  0
 20 21  2  0
 20 19  1  0
 21 22  1  0
 22 23  2  0
 24 23  1  0
 24 16  1  0
 25 27  1  0
 26 25  2  0
 27 28  1  0
 27 31  1  0
 28 29  1  0
 29 30  1  0
 31 30  1  0
 31 32  1  1
 32 34  2  0
 32 33  1  0
M  END
$$$$
