YWP.pdb
     RDKit          3D

 34 37  0  0  1  0  0  0  0  0999 V2000
   12.9213  -23.2691   27.2213 O   0  0  0  0  0  0  0  0  0  0  0  0
   12.1515  -22.4964   26.3831 C   0  0  0  0  0  0  0  0  0  0  0  0
   11.3531  -21.4673   26.8502 C   0  0  0  0  0  0  0  0  0  0  0  0
   10.6129  -20.7385   25.9593 C   0  0  0  0  0  0  0  0  0  0  0  0
   10.6120  -20.9706   24.5909 C   0  0  0  0  0  0  0  0  0  0  0  0
    9.7924  -20.1587   23.6540 C   0  0  0  0  0  0  0  0  0  0  0  0
    8.3541  -20.1646   24.1643 C   0  0  2  0  0  0  0  0  0  0  0  0
    7.8395  -21.4881   23.8148 N   0  0  0  0  0  0  0  0  0  0  0  0
    7.5559  -19.0959   23.5161 C   0  0  0  0  0  0  0  0  0  0  0  0
    7.0534  -19.3109   22.3879 O   0  0  0  0  0  0  0  0  0  0  0  0
   11.4178  -22.0042   24.1510 C   0  0  0  0  0  0  0  0  0  0  0  0
   12.1780  -22.7605   25.0188 C   0  0  0  0  0  0  0  0  0  0  0  0
    7.3426  -17.8462   24.1247 N   0  0  0  0  0  0  0  0  0  0  0  0
    6.8705  -16.7192   23.2715 C   0  0  1  0  0  0  0  0  0  0  0  0
    6.3692  -15.7310   24.2963 C   0  0  0  0  0  0  0  0  0  0  0  0
    7.3302  -15.1014   25.1642 C   0  0  0  0  0  0  0  0  0  0  0  0
    8.5873  -15.4883   25.5930 C   0  0  0  0  0  0  0  0  0  0  0  0
    9.0897  -14.5597   26.4259 N   0  0  0  0  0  0  0  0  0  0  0  0
    8.1970  -13.5630   26.5621 C   0  0  0  0  0  0  0  0  0  0  0  0
    8.2311  -12.3934   27.2942 C   0  0  0  0  0  0  0  0  0  0  0  0
    7.1529  -11.5165   27.2591 C   0  0  0  0  0  0  0  0  0  0  0  0
    6.0540  -11.8112   26.4977 C   0  0  0  0  0  0  0  0  0  0  0  0
    6.0514  -12.9867   25.7787 C   0  0  0  0  0  0  0  0  0  0  0  0
    7.1149  -13.8728   25.8004 C   0  0  0  0  0  0  0  0  0  0  0  0
    8.0022  -16.2589   22.4688 C   0  0  0  0  0  0  0  0  0  0  0  0
    8.9891  -17.0791   22.3504 O   0  0  0  0  0  0  0  0  0  0  0  0
    8.1025  -15.0217   21.8220 N   0  0  0  0  0  0  0  0  0  0  0  0
    7.4601  -13.7737   22.1188 C   0  0  0  0  0  0  0  0  0  0  0  0
    7.2249  -13.1200   20.7549 C   0  0  0  0  0  0  0  0  0  0  0  0
    7.8888  -14.0561   19.7684 C   0  0  0  0  0  0  0  0  0  0  0  0
    8.9173  -14.7540   20.6530 C   0  0  1  0  0  0  0  0  0  0  0  0
    9.9918  -13.7853   20.9139 C   0  0  0  0  0  0  0  0  0  0  0  0
   11.0363  -13.5078   20.0528 O   0  0  0  0  0  0  0  0  0  0  0  0
    9.9615  -13.1583   22.0047 O   0  0  0  0  0  0  0  0  0  0  0  0
  2  1  1  0
  3  2  2  0
  4  3  1  0
  5  4  2  0
  5 11  1  0
  6  7  1  0
  6  5  1  0
  7  9  1  0
  7  8  1  6
  9 10  2  0
 11 12  2  0
 12  2  1  0
 13  9  1  0
 13 14  1  0
 14 25  1  0
 14 15  1  1
 16 15  1  0
 17 16  2  0
 18 17  1  0
 19 18  1  0
 19 24  2  0
 20 21  2  0
 20 19  1  0
 21 22  1  0
 22 23  2  0
 24 23  1  0
 24 16  1  0
 25 27  1  0
 26 25  2  0
 27 28  1  0
 27 31  1  0
 28 29  1  0
 29 30  1  0
 31 30  1  0
 31 32  1  1
 32 34  2  0
 32 33  1  0
M  END
$$$$
