YWP.pdb
     RDKit          3D

 34 37  0  0  1  0  0  0  0  0999 V2000
   11.7824  -20.0929   22.0446 O   0  0  0  0  0  0  0  0  0  0  0  0
   10.4937  -20.5170   22.2718 C   0  0  0  0  0  0  0  0  0  0  0  0
    9.5025  -20.4203   21.3111 C   0  0  0  0  0  0  0  0  0  0  0  0
    8.2412  -20.8623   21.6055 C   0  0  0  0  0  0  0  0  0  0  0  0
    7.8864  -21.4119   22.8295 C   0  0  0  0  0  0  0  0  0  0  0  0
    6.5045  -21.8794   23.1132 C   0  0  0  0  0  0  0  0  0  0  0  0
    5.9338  -21.0053   24.2265 C   0  0  2  0  0  0  0  0  0  0  0  0
    4.6198  -21.5788   24.5149 N   0  0  0  0  0  0  0  0  0  0  0  0
    5.8125  -19.5946   23.7853 C   0  0  0  0  0  0  0  0  0  0  0  0
    5.1040  -19.3282   22.7860 O   0  0  0  0  0  0  0  0  0  0  0  0
    8.8952  -21.4966   23.7711 C   0  0  0  0  0  0  0  0  0  0  0  0
   10.1782  -21.0617   23.5109 C   0  0  0  0  0  0  0  0  0  0  0  0
    6.4667  -18.5425   24.4508 N   0  0  0  0  0  0  0  0  0  0  0  0
    6.3565  -17.1710   23.8781 C   0  0  1  0  0  0  0  0  0  0  0  0
    6.1185  -16.3295   25.1083 C   0  0  0  0  0  0  0  0  0  0  0  0
    7.2392  -15.6357   25.6876 C   0  0  0  0  0  0  0  0  0  0  0  0
    8.5620  -15.9976   25.8695 C   0  0  0  0  0  0  0  0  0  0  0  0
    9.2251  -15.0036   26.4862 N   0  0  0  0  0  0  0  0  0  0  0  0
    8.3754  -13.9874   26.7196 C   0  0  0  0  0  0  0  0  0  0  0  0
    8.5577  -12.7567   27.3171 C   0  0  0  0  0  0  0  0  0  0  0  0
    7.4908  -11.8732   27.4347 C   0  0  0  0  0  0  0  0  0  0  0  0
    6.2559  -12.2221   26.9579 C   0  0  0  0  0  0  0  0  0  0  0  0
    6.1072  -13.4580   26.3669 C   0  0  0  0  0  0  0  0  0  0  0  0
    7.1569  -14.3517   26.2401 C   0  0  0  0  0  0  0  0  0  0  0  0
    7.5973  -16.8827   23.1609 C   0  0  0  0  0  0  0  0  0  0  0  0
    8.4161  -17.8677   23.0182 O   0  0  0  0  0  0  0  0  0  0  0  0
    7.9654  -15.6461   22.6184 N   0  0  0  0  0  0  0  0  0  0  0  0
    7.4443  -14.3352   22.8798 C   0  0  0  0  0  0  0  0  0  0  0  0
    7.5365  -13.6024   21.5391 C   0  0  0  0  0  0  0  0  0  0  0  0
    8.2390  -14.5803   20.6223 C   0  0  0  0  0  0  0  0  0  0  0  0
    8.9997  -15.4454   21.6225 C   0  0  1  0  0  0  0  0  0  0  0  0
   10.1257  -14.6424   22.1204 C   0  0  0  0  0  0  0  0  0  0  0  0
   10.2385  -14.1441   23.4043 O   0  0  0  0  0  0  0  0  0  0  0  0
   11.0613  -14.3868   21.3184 O   0  0  0  0  0  0  0  0  0  0  0  0
  2  1  1  0
  3  2  2  0
  4  3  1  0
  5  4  2  0
  5 11  1  0
  6  7  1  0
  6  5  1  0
  7  9  1  0
  7  8  1  6
  9 10  2  0
 11 12  2  0
 12  2  1  0
 13  9  1  0
 13 14  1  0
 14 25  1  0
 14 15  1  1
 16 15  1  0
 17 16  2  0
 18 17  1  0
 19 18  1  0
 19 24  2  0
 20 21  2  0
 20 19  1  0
 21 22  1  0
 22 23  2  0
 24 23  1  0
 24 16  1  0
 25 27  1  0
 26 25  2  0
 27 28  1  0
 27 31  1  0
 28 29  1  0
 29 30  1  0
 31 30  1  0
 31 32  1  1
 32 34  2  0
 32 33  1  0
M  END
$$$$
