YWP.pdb
     RDKit          3D

 34 37  0  0  1  0  0  0  0  0999 V2000
    8.4504  -22.5564   28.8983 O   0  0  0  0  0  0  0  0  0  0  0  0
    8.0307  -22.0977   27.6713 C   0  0  0  0  0  0  0  0  0  0  0  0
    8.6822  -21.0781   26.9998 C   0  0  0  0  0  0  0  0  0  0  0  0
    8.2096  -20.6714   25.7816 C   0  0  0  0  0  0  0  0  0  0  0  0
    7.0972  -21.2271   25.1651 C   0  0  0  0  0  0  0  0  0  0  0  0
    6.6123  -20.7571   23.8412 C   0  0  0  0  0  0  0  0  0  0  0  0
    5.3894  -19.8749   24.0768 C   0  0  2  0  0  0  0  0  0  0  0  0
    4.3187  -20.5079   23.3076 N   0  0  0  0  0  0  0  0  0  0  0  0
    5.6345  -18.4902   23.6061 C   0  0  0  0  0  0  0  0  0  0  0  0
    5.4499  -18.2167   22.3967 O   0  0  0  0  0  0  0  0  0  0  0  0
    6.4652  -22.2434   25.8573 C   0  0  0  0  0  0  0  0  0  0  0  0
    6.9123  -22.6802   27.0871 C   0  0  0  0  0  0  0  0  0  0  0  0
    6.0682  -17.4702   24.4718 N   0  0  0  0  0  0  0  0  0  0  0  0
    6.3343  -16.1224   23.8940 C   0  0  1  0  0  0  0  0  0  0  0  0
    6.4105  -15.2557   25.1273 C   0  0  0  0  0  0  0  0  0  0  0  0
    7.4664  -15.5068   26.0735 C   0  0  0  0  0  0  0  0  0  0  0  0
    7.9481  -16.6738   26.6390 C   0  0  0  0  0  0  0  0  0  0  0  0
    8.9441  -16.3869   27.4957 N   0  0  0  0  0  0  0  0  0  0  0  0
    9.1377  -15.0561   27.5144 C   0  0  0  0  0  0  0  0  0  0  0  0
   10.0261  -14.2671   28.2166 C   0  0  0  0  0  0  0  0  0  0  0  0
   10.0173  -12.8871   28.0487 C   0  0  0  0  0  0  0  0  0  0  0  0
    9.1268  -12.3070   27.1859 C   0  0  0  0  0  0  0  0  0  0  0  0
    8.2531  -13.1226   26.5001 C   0  0  0  0  0  0  0  0  0  0  0  0
    8.2461  -14.4985   26.6532 C   0  0  0  0  0  0  0  0  0  0  0  0
    7.5694  -16.2030   23.1161 C   0  0  0  0  0  0  0  0  0  0  0  0
    8.1420  -17.3567   23.0724 O   0  0  0  0  0  0  0  0  0  0  0  0
    8.1729  -15.1496   22.4197 N   0  0  0  0  0  0  0  0  0  0  0  0
    8.0094  -13.7325   22.5728 C   0  0  0  0  0  0  0  0  0  0  0  0
    8.1514  -13.1666   21.1577 C   0  0  0  0  0  0  0  0  0  0  0  0
    8.5099  -14.3653   20.3062 C   0  0  0  0  0  0  0  0  0  0  0  0
    9.1287  -15.3011   21.3401 C   0  0  1  0  0  0  0  0  0  0  0  0
   10.4560  -14.7631   21.6710 C   0  0  0  0  0  0  0  0  0  0  0  0
   11.5789  -14.8745   20.8734 O   0  0  0  0  0  0  0  0  0  0  0  0
   10.5837  -14.1531   22.7645 O   0  0  0  0  0  0  0  0  0  0  0  0
  2  1  1  0
  3  2  2  0
  4  3  1  0
  5  4  2  0
  5 11  1  0
  6  7  1  0
  6  5  1  0
  7  9  1  0
  7  8  1  6
  9 10  2  0
 11 12  2  0
 12  2  1  0
 13  9  1  0
 13 14  1  0
 14 25  1  0
 14 15  1  1
 16 15  1  0
 17 16  2  0
 18 17  1  0
 19 18  1  0
 19 24  2  0
 20 21  2  0
 20 19  1  0
 21 22  1  0
 22 23  2  0
 24 23  1  0
 24 16  1  0
 25 27  1  0
 26 25  2  0
 27 28  1  0
 27 31  1  0
 28 29  1  0
 29 30  1  0
 31 30  1  0
 31 32  1  1
 32 34  2  0
 32 33  1  0
M  END
$$$$
