HSN.pdb
     RDKit          3D

 25 25  0  0  1  0  0  0  0  0999 V2000
   17.4832  -11.9144  -17.6596 N   0  0  0  0  0  0  0  0  0  0  0  0
   17.5967  -11.4356  -16.3071 C   0  0  1  0  0  0  0  0  0  0  0  0
   18.8582  -12.0266  -15.7226 C   0  0  0  0  0  0  0  0  0  0  0  0
   18.7639  -13.5068  -15.6322 C   0  0  0  0  0  0  0  0  0  0  0  0
   17.9608  -14.2846  -14.8459 C   0  0  0  0  0  0  0  0  0  0  0  0
   18.2454  -15.5745  -15.1271 N   0  0  0  0  0  0  0  0  0  0  0  0
   19.2061  -15.6296  -16.0692 C   0  0  0  0  0  0  0  0  0  0  0  0
   19.5187  -14.3599  -16.3739 N   0  0  0  0  0  0  0  0  0  0  0  0
   17.6530   -9.9424  -16.2947 C   0  0  0  0  0  0  0  0  0  0  0  0
   18.4371   -9.3114  -17.0679 O   0  0  0  0  0  0  0  0  0  0  0  0
   15.6017   -7.5839  -13.4622 O   0  0  0  0  0  0  0  0  0  0  0  0
   15.6690   -7.0910  -14.7589 C   0  0  0  0  0  0  0  0  0  0  0  0
   16.8848   -7.7153  -15.4081 C   0  0  2  0  0  0  0  0  0  0  0  0
   16.8527   -9.1416  -15.4374 N   0  0  0  0  0  0  0  0  0  0  0  0
   18.1518   -7.1722  -14.8544 C   0  0  0  0  0  0  0  0  0  0  0  0
   18.8249   -7.8910  -14.0609 O   0  0  0  0  0  0  0  0  0  0  0  0
   22.7530   -5.2964  -13.6870 N   0  0  0  0  0  0  0  0  0  0  0  0
   22.3859   -5.7623  -14.9717 C   0  0  0  0  0  0  0  0  0  0  0  0
   23.2537   -5.7269  -15.8958 O   0  0  0  0  0  0  0  0  0  0  0  0
   21.0296   -6.2781  -15.2267 C   0  0  0  0  0  0  0  0  0  0  0  0
   19.9453   -5.3927  -14.6568 C   0  0  2  0  0  0  0  0  0  0  0  0
   18.6535   -5.8958  -15.1618 N   0  0  0  0  0  0  0  0  0  0  0  0
   20.1044   -3.9750  -15.0428 C   0  0  0  0  0  0  0  0  0  0  0  0
   19.6006   -3.5506  -16.0946 O   0  0  0  0  0  0  0  0  0  0  0  0
   20.8140   -3.0883  -14.2489 O   0  0  0  0  0  0  0  0  0  0  0  0
  2  3  1  0
  2  1  1  6
  4  3  1  0
  5  4  2  0
  6  5  1  0
  6  7  1  0
  7  8  2  0
  8  4  1  0
  9  2  1  0
 10  9  2  0
 11 12  1  0
 13 12  1  1
 13 14  1  0
 14  9  1  0
 15 13  1  0
 15 22  1  0
 16 15  2  0
 17 18  1  0
 18 19  2  0
 21 20  1  6
 20 18  1  0
 21 22  1  0
 21 23  1  0
 23 25  1  0
 24 23  2  0
M  END
$$$$
