HSN.pdb
     RDKit          3D

 25 25  0  0  1  0  0  0  0  0999 V2000
   18.4324  -12.7353  -16.8802 N   0  0  0  0  0  0  0  0  0  0  0  0
   19.3089  -11.7533  -17.4623 C   0  0  1  0  0  0  0  0  0  0  0  0
   18.4892  -10.9332  -18.4308 C   0  0  0  0  0  0  0  0  0  0  0  0
   17.9878  -11.7708  -19.5510 C   0  0  0  0  0  0  0  0  0  0  0  0
   16.7196  -12.2059  -19.8168 C   0  0  0  0  0  0  0  0  0  0  0  0
   16.7719  -12.9381  -20.9504 N   0  0  0  0  0  0  0  0  0  0  0  0
   18.0389  -12.9757  -21.4053 C   0  0  0  0  0  0  0  0  0  0  0  0
   18.7779  -12.2588  -20.5436 N   0  0  0  0  0  0  0  0  0  0  0  0
   19.8920  -10.8881  -16.3926 C   0  0  0  0  0  0  0  0  0  0  0  0
   19.1524  -10.3436  -15.5166 O   0  0  0  0  0  0  0  0  0  0  0  0
   24.0238   -9.9014  -16.1553 O   0  0  0  0  0  0  0  0  0  0  0  0
   23.3102  -10.1076  -14.9818 C   0  0  0  0  0  0  0  0  0  0  0  0
   21.8624   -9.7849  -15.2807 C   0  0  2  0  0  0  0  0  0  0  0  0
   21.2820  -10.6192  -16.2824 N   0  0  0  0  0  0  0  0  0  0  0  0
   21.6569   -8.3364  -15.5379 C   0  0  0  0  0  0  0  0  0  0  0  0
   21.6914   -7.9209  -16.7319 O   0  0  0  0  0  0  0  0  0  0  0  0
   20.6597   -3.2402  -15.0646 N   0  0  0  0  0  0  0  0  0  0  0  0
   19.5943   -4.1344  -14.8048 C   0  0  0  0  0  0  0  0  0  0  0  0
   18.4218   -3.6614  -14.7049 O   0  0  0  0  0  0  0  0  0  0  0  0
   19.8424   -5.5791  -14.6572 C   0  0  0  0  0  0  0  0  0  0  0  0
   21.3040   -5.9424  -14.7852 C   0  0  2  0  0  0  0  0  0  0  0  0
   21.4236   -7.3898  -14.5255 N   0  0  0  0  0  0  0  0  0  0  0  0
   22.1616   -5.2013  -13.8368 C   0  0  0  0  0  0  0  0  0  0  0  0
   22.3083   -5.6082  -12.6736 O   0  0  0  0  0  0  0  0  0  0  0  0
   22.8193   -4.0421  -14.2160 O   0  0  0  0  0  0  0  0  0  0  0  0
  2  3  1  0
  2  1  1  1
  4  3  1  0
  5  4  2  0
  6  5  1  0
  6  7  1  0
  7  8  2  0
  8  4  1  0
  9  2  1  0
 10  9  2  0
 11 12  1  0
 13 12  1  6
 13 14  1  0
 14  9  1  0
 15 13  1  0
 15 22  1  0
 16 15  2  0
 17 18  1  0
 18 19  2  0
 21 20  1  1
 20 18  1  0
 21 22  1  0
 21 23  1  0
 23 25  1  0
 24 23  2  0
M  END
$$$$
