HSN.pdb
     RDKit          3D

 25 25  0  0  1  0  0  0  0  0999 V2000
   19.2337  -12.7274  -17.3321 N   0  0  0  0  0  0  0  0  0  0  0  0
   18.3870  -11.6271  -16.9526 C   0  0  1  0  0  0  0  0  0  0  0  0
   18.0380  -11.8074  -15.4939 C   0  0  0  0  0  0  0  0  0  0  0  0
   17.1608  -12.9903  -15.2955 C   0  0  0  0  0  0  0  0  0  0  0  0
   17.4775  -14.2522  -14.8766 C   0  0  0  0  0  0  0  0  0  0  0  0
   16.3343  -14.9712  -14.8566 N   0  0  0  0  0  0  0  0  0  0  0  0
   15.3067  -14.1957  -15.2518 C   0  0  0  0  0  0  0  0  0  0  0  0
   15.8200  -12.9841  -15.5188 N   0  0  0  0  0  0  0  0  0  0  0  0
   19.0992  -10.3322  -17.1735 C   0  0  0  0  0  0  0  0  0  0  0  0
   20.3141  -10.1883  -16.8355 O   0  0  0  0  0  0  0  0  0  0  0  0
   17.2251   -6.6738  -18.2565 O   0  0  0  0  0  0  0  0  0  0  0  0
   18.3779   -7.0363  -18.9410 C   0  0  0  0  0  0  0  0  0  0  0  0
   19.1552   -7.9687  -18.0378 C   0  0  2  0  0  0  0  0  0  0  0  0
   18.4826   -9.1969  -17.7630 N   0  0  0  0  0  0  0  0  0  0  0  0
   19.6381   -7.2819  -16.8123 C   0  0  0  0  0  0  0  0  0  0  0  0
   19.2682   -7.7200  -15.6851 O   0  0  0  0  0  0  0  0  0  0  0  0
   22.0398   -4.4729  -13.2471 N   0  0  0  0  0  0  0  0  0  0  0  0
   22.2363   -5.8450  -13.5320 C   0  0  0  0  0  0  0  0  0  0  0  0
   22.9099   -6.5398  -12.7124 O   0  0  0  0  0  0  0  0  0  0  0  0
   21.6690   -6.4502  -14.7496 C   0  0  0  0  0  0  0  0  0  0  0  0
   20.9185   -5.4571  -15.6069 C   0  0  2  0  0  0  0  0  0  0  0  0
   20.4898   -6.1640  -16.8289 N   0  0  0  0  0  0  0  0  0  0  0  0
   21.7420   -4.2879  -15.9798 C   0  0  0  0  0  0  0  0  0  0  0  0
   22.4275   -4.3073  -17.0142 O   0  0  0  0  0  0  0  0  0  0  0  0
   21.7718   -3.1481  -15.1923 O   0  0  0  0  0  0  0  0  0  0  0  0
  2  3  1  0
  2  1  1  1
  4  3  1  0
  5  4  2  0
  6  5  1  0
  6  7  1  0
  7  8  2  0
  8  4  1  0
  9  2  1  0
 10  9  2  0
 11 12  1  0
 13 12  1  1
 13 14  1  0
 14  9  1  0
 15 13  1  0
 15 22  1  0
 16 15  2  0
 17 18  1  0
 18 19  2  0
 21 20  1  1
 20 18  1  0
 21 22  1  0
 21 23  1  0
 23 25  1  0
 24 23  2  0
M  END
$$$$
