HSN.pdb
     RDKit          3D

 25 25  0  0  1  0  0  0  0  0999 V2000
   27.0507  -34.0813  -15.2285 N   0  0  0  0  0  0  0  0  0  0  0  0
   28.2972  -33.3632  -15.1856 C   0  0  1  0  0  0  0  0  0  0  0  0
   29.3969  -34.3464  -15.5117 C   0  0  0  0  0  0  0  0  0  0  0  0
   29.5187  -35.3834  -14.4544 C   0  0  0  0  0  0  0  0  0  0  0  0
   30.1543  -35.3280  -13.2456 C   0  0  0  0  0  0  0  0  0  0  0  0
   29.9819  -36.5239  -12.6422 N   0  0  0  0  0  0  0  0  0  0  0  0
   29.2550  -37.3305  -13.4387 C   0  0  0  0  0  0  0  0  0  0  0  0
   28.9748  -36.6257  -14.5465 N   0  0  0  0  0  0  0  0  0  0  0  0
   28.2766  -32.2409  -16.1720 C   0  0  0  0  0  0  0  0  0  0  0  0
   27.1953  -31.8815  -16.7309 O   0  0  0  0  0  0  0  0  0  0  0  0
   28.7886  -27.9637  -16.9099 O   0  0  0  0  0  0  0  0  0  0  0  0
   28.6524  -29.1944  -16.2810 C   0  0  0  0  0  0  0  0  0  0  0  0
   29.4184  -30.2028  -17.1092 C   0  0  2  0  0  0  0  0  0  0  0  0
   29.4377  -31.5138  -16.5461 N   0  0  0  0  0  0  0  0  0  0  0  0
   30.7692  -29.7076  -17.4792 C   0  0  0  0  0  0  0  0  0  0  0  0
   31.7196  -29.8667  -16.6600 O   0  0  0  0  0  0  0  0  0  0  0  0
   34.8445  -27.3047  -19.5099 N   0  0  0  0  0  0  0  0  0  0  0  0
   34.1605  -27.0208  -18.3042 C   0  0  0  0  0  0  0  0  0  0  0  0
   34.6349  -26.1280  -17.5385 O   0  0  0  0  0  0  0  0  0  0  0  0
   32.9263  -27.7434  -17.9502 C   0  0  0  0  0  0  0  0  0  0  0  0
   32.4137  -28.6188  -19.0706 C   0  0  2  0  0  0  0  0  0  0  0  0
   31.0588  -29.0670  -18.6962 N   0  0  0  0  0  0  0  0  0  0  0  0
   33.2713  -29.7980  -19.3118 C   0  0  0  0  0  0  0  0  0  0  0  0
   34.4436  -29.6540  -19.6928 O   0  0  0  0  0  0  0  0  0  0  0  0
   32.7950  -31.0853  -19.1214 O   0  0  0  0  0  0  0  0  0  0  0  0
  2  3  1  0
  2  1  1  6
  4  3  1  0
  5  4  2  0
  6  5  1  0
  6  7  1  0
  7  8  2  0
  8  4  1  0
  9  2  1  0
 10  9  2  0
 11 12  1  0
 13 12  1  1
 13 14  1  0
 14  9  1  0
 15 13  1  0
 15 22  1  0
 16 15  2  0
 17 18  1  0
 18 19  2  0
 21 20  1  1
 20 18  1  0
 21 22  1  0
 21 23  1  0
 23 25  1  0
 24 23  2  0
M  END
$$$$
