HSN.pdb
     RDKit          3D

 25 25  0  0  1  0  0  0  0  0999 V2000
   17.5564  -13.5856  -18.2355 N   0  0  0  0  0  0  0  0  0  0  0  0
   18.2132  -12.8488  -17.1881 C   0  0  1  0  0  0  0  0  0  0  0  0
   19.4967  -13.5753  -16.8606 C   0  0  0  0  0  0  0  0  0  0  0  0
   19.2215  -14.9367  -16.3325 C   0  0  0  0  0  0  0  0  0  0  0  0
   19.2691  -16.1462  -16.9675 C   0  0  0  0  0  0  0  0  0  0  0  0
   18.9359  -17.0920  -16.0628 N   0  0  0  0  0  0  0  0  0  0  0  0
   18.6799  -16.5104  -14.8755 C   0  0  0  0  0  0  0  0  0  0  0  0
   18.8568  -15.1907  -15.0479 N   0  0  0  0  0  0  0  0  0  0  0  0
   18.4926  -11.4524  -17.6409 C   0  0  0  0  0  0  0  0  0  0  0  0
   18.3870  -11.1282  -18.8634 O   0  0  0  0  0  0  0  0  0  0  0  0
   16.7802   -8.3853  -16.5923 O   0  0  0  0  0  0  0  0  0  0  0  0
   17.6620   -8.4771  -17.6614 C   0  0  0  0  0  0  0  0  0  0  0  0
   18.9599   -9.0347  -17.1190 C   0  0  2  0  0  0  0  0  0  0  0  0
   18.8872  -10.4132  -16.7572 N   0  0  0  0  0  0  0  0  0  0  0  0
   19.5271   -8.1795  -16.0450 C   0  0  0  0  0  0  0  0  0  0  0  0
   19.0878   -8.3135  -14.8666 O   0  0  0  0  0  0  0  0  0  0  0  0
   22.1878   -4.3826  -13.5517 N   0  0  0  0  0  0  0  0  0  0  0  0
   22.7767   -4.5896  -14.8216 C   0  0  0  0  0  0  0  0  0  0  0  0
   23.8346   -3.9508  -15.1063 O   0  0  0  0  0  0  0  0  0  0  0  0
   22.1758   -5.5266  -15.7868 C   0  0  0  0  0  0  0  0  0  0  0  0
   21.0335   -6.3245  -15.2011 C   0  0  2  0  0  0  0  0  0  0  0  0
   20.5325   -7.2212  -16.2601 N   0  0  0  0  0  0  0  0  0  0  0  0
   19.9286   -5.4699  -14.7185 C   0  0  0  0  0  0  0  0  0  0  0  0
   19.0493   -5.0790  -15.5022 O   0  0  0  0  0  0  0  0  0  0  0  0
   19.8444   -5.0843  -13.3902 O   0  0  0  0  0  0  0  0  0  0  0  0
  2  3  1  0
  2  1  1  6
  4  3  1  0
  5  4  2  0
  6  5  1  0
  6  7  1  0
  7  8  2  0
  8  4  1  0
  9  2  1  0
 10  9  2  0
 11 12  1  0
 13 12  1  1
 13 14  1  0
 14  9  1  0
 15 13  1  0
 15 22  1  0
 16 15  2  0
 17 18  1  0
 18 19  2  0
 21 20  1  6
 20 18  1  0
 21 22  1  0
 21 23  1  0
 23 25  1  0
 24 23  2  0
M  END
$$$$
