HSN.pdb
     RDKit          3D

 25 25  0  0  1  0  0  0  0  0999 V2000
   27.3308  -21.2793  -17.2255 N   0  0  0  0  0  0  0  0  0  0  0  0
   27.3804  -20.5082  -16.0113 C   0  0  1  0  0  0  0  0  0  0  0  0
   27.1016  -19.0693  -16.3777 C   0  0  0  0  0  0  0  0  0  0  0  0
   28.2550  -18.4663  -17.0946 C   0  0  0  0  0  0  0  0  0  0  0  0
   28.6763  -18.6498  -18.3819 C   0  0  0  0  0  0  0  0  0  0  0  0
   29.7713  -17.8803  -18.5633 N   0  0  0  0  0  0  0  0  0  0  0  0
   30.0507  -17.2175  -17.4248 C   0  0  0  0  0  0  0  0  0  0  0  0
   29.1181  -17.5810  -16.5298 N   0  0  0  0  0  0  0  0  0  0  0  0
   26.3655  -21.0163  -15.0393 C   0  0  0  0  0  0  0  0  0  0  0  0
   25.2696  -21.5159  -15.4397 O   0  0  0  0  0  0  0  0  0  0  0  0
   24.9036  -21.5062  -10.4446 O   0  0  0  0  0  0  0  0  0  0  0  0
   25.9792  -21.1351  -11.2409 C   0  0  0  0  0  0  0  0  0  0  0  0
   25.5142  -21.2129  -12.6787 C   0  0  2  0  0  0  0  0  0  0  0  0
   26.5497  -20.9772  -13.6318 N   0  0  0  0  0  0  0  0  0  0  0  0
   24.3033  -20.3863  -12.9173 C   0  0  0  0  0  0  0  0  0  0  0  0
   24.4498  -19.1619  -13.1985 O   0  0  0  0  0  0  0  0  0  0  0  0
   20.3567  -17.6436  -14.4641 N   0  0  0  0  0  0  0  0  0  0  0  0
   20.7680  -18.8536  -15.0715 C   0  0  0  0  0  0  0  0  0  0  0  0
   20.0907  -19.2984  -16.0470 O   0  0  0  0  0  0  0  0  0  0  0  0
   21.9557  -19.5758  -14.5832 C   0  0  0  0  0  0  0  0  0  0  0  0
   21.8005  -20.0749  -13.1650 C   0  0  2  0  0  0  0  0  0  0  0  0
   22.9916  -20.8864  -12.8496 N   0  0  0  0  0  0  0  0  0  0  0  0
   20.5849  -20.8943  -12.9780 C   0  0  0  0  0  0  0  0  0  0  0  0
   19.4982  -20.3547  -12.7170 O   0  0  0  0  0  0  0  0  0  0  0  0
   20.6240  -22.2752  -13.0873 O   0  0  0  0  0  0  0  0  0  0  0  0
  2  3  1  0
  2  1  1  6
  4  3  1  0
  5  4  2  0
  6  5  1  0
  6  7  1  0
  7  8  2  0
  8  4  1  0
  9  2  1  0
 10  9  2  0
 11 12  1  0
 13 12  1  1
 13 14  1  0
 14  9  1  0
 15 13  1  0
 15 22  1  0
 16 15  2  0
 17 18  1  0
 18 19  2  0
 21 20  1  6
 20 18  1  0
 21 22  1  0
 21 23  1  0
 23 25  1  0
 24 23  2  0
M  END
$$$$
