HSN.pdb
     RDKit          3D

 25 25  0  0  1  0  0  0  0  0999 V2000
   20.6196  -11.0016  -18.2173 N   0  0  0  0  0  0  0  0  0  0  0  0
   22.0148  -10.6934  -18.3897 C   0  0  1  0  0  0  0  0  0  0  0  0
   22.3148  -10.7675  -19.8686 C   0  0  0  0  0  0  0  0  0  0  0  0
   22.1827  -12.1590  -20.3726 C   0  0  0  0  0  0  0  0  0  0  0  0
   23.0364  -13.2189  -20.2453 C   0  0  0  0  0  0  0  0  0  0  0  0
   22.4717  -14.2717  -20.8752 N   0  0  0  0  0  0  0  0  0  0  0  0
   21.2856  -13.9030  -21.3956 C   0  0  0  0  0  0  0  0  0  0  0  0
   21.1150  -12.6082  -21.0839 N   0  0  0  0  0  0  0  0  0  0  0  0
   22.3087   -9.3296  -17.8546 C   0  0  0  0  0  0  0  0  0  0  0  0
   21.3722   -8.5554  -17.4879 O   0  0  0  0  0  0  0  0  0  0  0  0
   26.0068   -7.3646  -18.2355 O   0  0  0  0  0  0  0  0  0  0  0  0
   25.4175   -7.2960  -16.9798 C   0  0  0  0  0  0  0  0  0  0  0  0
   23.9357   -7.5343  -17.1718 C   0  0  2  0  0  0  0  0  0  0  0  0
   23.6252   -8.8141  -17.7214 N   0  0  0  0  0  0  0  0  0  0  0  0
   23.2814   -6.4147  -17.8965 C   0  0  0  0  0  0  0  0  0  0  0  0
   23.4162   -6.3430  -19.1520 O   0  0  0  0  0  0  0  0  0  0  0  0
   20.8443   -2.6007  -19.9328 N   0  0  0  0  0  0  0  0  0  0  0  0
   20.0832   -3.7200  -19.5203 C   0  0  0  0  0  0  0  0  0  0  0  0
   18.9561   -3.9166  -20.0674 O   0  0  0  0  0  0  0  0  0  0  0  0
   20.5905   -4.6348  -18.4829 C   0  0  0  0  0  0  0  0  0  0  0  0
   21.9632   -4.2519  -17.9791 C   0  0  2  0  0  0  0  0  0  0  0  0
   22.5137   -5.4203  -17.2662 N   0  0  0  0  0  0  0  0  0  0  0  0
   21.9326   -3.0899  -17.0665 C   0  0  0  0  0  0  0  0  0  0  0  0
   21.7488   -1.9464  -17.5123 O   0  0  0  0  0  0  0  0  0  0  0  0
   22.1071   -3.2430  -15.7004 O   0  0  0  0  0  0  0  0  0  0  0  0
  2  3  1  0
  2  1  1  6
  4  3  1  0
  5  4  2  0
  6  5  1  0
  6  7  1  0
  7  8  2  0
  8  4  1  0
  9  2  1  0
 10  9  2  0
 11 12  1  0
 13 12  1  6
 13 14  1  0
 14  9  1  0
 15 13  1  0
 15 22  1  0
 16 15  2  0
 17 18  1  0
 18 19  2  0
 21 20  1  1
 20 18  1  0
 21 22  1  0
 21 23  1  0
 23 25  1  0
 24 23  2  0
M  END
$$$$
