HSN.pdb
     RDKit          3D

 25 25  0  0  1  0  0  0  0  0999 V2000
   25.3943  -12.3884  -18.7002 N   0  0  0  0  0  0  0  0  0  0  0  0
   25.0747  -11.8594  -17.4005 C   0  0  1  0  0  0  0  0  0  0  0  0
   26.3640  -11.3735  -16.7806 C   0  0  0  0  0  0  0  0  0  0  0  0
   27.2895  -12.5050  -16.5140 C   0  0  0  0  0  0  0  0  0  0  0  0
   27.1274  -13.8411  -16.7527 C   0  0  0  0  0  0  0  0  0  0  0  0
   28.2499  -14.4660  -16.3362 N   0  0  0  0  0  0  0  0  0  0  0  0
   29.1141  -13.5593  -15.8417 C   0  0  0  0  0  0  0  0  0  0  0  0
   28.5196  -12.3607  -15.9538 N   0  0  0  0  0  0  0  0  0  0  0  0
   24.0916  -10.7414  -17.5294 C   0  0  0  0  0  0  0  0  0  0  0  0
   24.2302   -9.8486  -18.4208 O   0  0  0  0  0  0  0  0  0  0  0  0
   20.4006  -10.6629  -15.5041 O   0  0  0  0  0  0  0  0  0  0  0  0
   20.5631  -10.0326  -16.7310 C   0  0  0  0  0  0  0  0  0  0  0  0
   21.9968   -9.5534  -16.7968 C   0  0  2  0  0  0  0  0  0  0  0  0
   22.9593  -10.6010  -16.6840 N   0  0  0  0  0  0  0  0  0  0  0  0
   22.2502   -8.4263  -15.8631 C   0  0  0  0  0  0  0  0  0  0  0  0
   22.7195   -8.6814  -14.7166 O   0  0  0  0  0  0  0  0  0  0  0  0
   22.6059   -3.6153  -13.7841 N   0  0  0  0  0  0  0  0  0  0  0  0
   22.5312   -3.5061  -15.1929 C   0  0  0  0  0  0  0  0  0  0  0  0
   22.6225   -2.3532  -15.7133 O   0  0  0  0  0  0  0  0  0  0  0  0
   22.3547   -4.7036  -16.0329 C   0  0  0  0  0  0  0  0  0  0  0  0
   22.2111   -5.9737  -15.2262 C   0  0  2  0  0  0  0  0  0  0  0  0
   21.9984   -7.0801  -16.1788 N   0  0  0  0  0  0  0  0  0  0  0  0
   21.0813   -5.9212  -14.2750 C   0  0  0  0  0  0  0  0  0  0  0  0
   19.9196   -6.1082  -14.6695 O   0  0  0  0  0  0  0  0  0  0  0  0
   21.2854   -5.6637  -12.9288 O   0  0  0  0  0  0  0  0  0  0  0  0
  2  3  1  0
  2  1  1  6
  4  3  1  0
  5  4  2  0
  6  5  1  0
  6  7  1  0
  7  8  2  0
  8  4  1  0
  9  2  1  0
 10  9  2  0
 11 12  1  0
 13 12  1  1
 13 14  1  0
 14  9  1  0
 15 13  1  0
 15 22  1  0
 16 15  2  0
 17 18  1  0
 18 19  2  0
 21 20  1  6
 20 18  1  0
 21 22  1  0
 21 23  1  0
 23 25  1  0
 24 23  2  0
M  END
$$$$
