ACT.pdb
     RDKit          3D

 19 18  0  0  1  0  0  0  0  0999 V2000
    7.4180  -19.2486   18.4178 C   0  0  0  0  0  0  0  0  0  0  0  0
    7.7380  -17.8286   18.0246 C   0  0  2  0  0  0  0  0  0  0  0  0
    8.5932  -17.7921   16.8727 N   0  0  0  0  0  0  0  0  0  0  0  0
    8.3111  -17.0453   19.1373 C   0  0  0  0  0  0  0  0  0  0  0  0
    9.5563  -17.0760   19.3004 O   0  0  0  0  0  0  0  0  0  0  0  0
    7.5466  -16.2708   20.0206 N   0  0  0  0  0  0  0  0  0  0  0  0
    8.0361  -15.5227   21.1321 C   0  0  1  0  0  0  0  0  0  0  0  0
    7.0250  -14.5851   21.7326 C   0  0  0  0  0  0  0  0  0  0  0  0
    7.7665  -13.7733   23.1757 S   0  0  0  0  0  0  0  0  0  0  0  0
    8.6055  -16.4171   22.1914 C   0  0  0  0  0  0  0  0  0  0  0  0
    7.9383  -17.3394   22.6805 O   0  0  0  0  0  0  0  0  0  0  0  0
   12.7256  -16.0427   23.5300 C   0  0  0  0  0  0  0  0  0  0  0  0
   12.0354  -17.3702   23.3141 C   0  0  1  0  0  0  0  0  0  0  0  0
   12.5073  -18.2510   24.2977 O   0  0  0  0  0  0  0  0  0  0  0  0
   10.5664  -17.1749   23.5638 C   0  0  2  0  0  0  0  0  0  0  0  0
    9.9416  -16.2426   22.6807 N   0  0  0  0  0  0  0  0  0  0  0  0
   10.4038  -16.7027   24.9676 C   0  0  0  0  0  0  0  0  0  0  0  0
    9.9814  -15.5421   25.2117 O   0  0  0  0  0  0  0  0  0  0  0  0
   10.7052  -17.5062   26.0641 O   0  0  0  0  0  0  0  0  0  0  0  0
  2  1  1  1
  2  3  1  0
  4  5  2  0
  4  2  1  0
  6  4  1  0
  7  6  1  0
  7  8  1  1
  9  8  1  0
 10 11  2  0
 10  7  1  0
 13 12  1  1
 13 14  1  0
 15 13  1  0
 15 16  1  6
 16 10  1  0
 17 15  1  0
 18 17  2  0
 19 17  1  0
M  END
$$$$
