ACT.pdb
     RDKit          3D

 19 18  0  0  1  0  0  0  0  0999 V2000
    7.6183  -17.1314   17.6484 C   0  0  0  0  0  0  0  0  0  0  0  0
    7.9303  -17.7273   18.9978 C   0  0  2  0  0  0  0  0  0  0  0  0
    6.7284  -17.9888   19.7372 N   0  0  0  0  0  0  0  0  0  0  0  0
    8.8679  -16.8996   19.7825 C   0  0  0  0  0  0  0  0  0  0  0  0
   10.0190  -16.7094   19.3165 O   0  0  0  0  0  0  0  0  0  0  0  0
    8.5479  -16.3148   21.0154 N   0  0  0  0  0  0  0  0  0  0  0  0
    9.4182  -15.5367   21.8350 C   0  0  1  0  0  0  0  0  0  0  0  0
    8.7058  -14.5663   22.7365 C   0  0  0  0  0  0  0  0  0  0  0  0
    7.5863  -15.4925   23.8228 S   0  0  0  0  0  0  0  0  0  0  0  0
   10.3434  -16.4028   22.6351 C   0  0  0  0  0  0  0  0  0  0  0  0
    9.9071  -17.2773   23.3967 O   0  0  0  0  0  0  0  0  0  0  0  0
   12.8303  -18.6558   21.2595 C   0  0  0  0  0  0  0  0  0  0  0  0
   13.6341  -17.8270   22.2352 C   0  0  1  0  0  0  0  0  0  0  0  0
   14.2606  -16.8095   21.5017 O   0  0  0  0  0  0  0  0  0  0  0  0
   12.6731  -17.1627   23.1807 C   0  0  2  0  0  0  0  0  0  0  0  0
   11.7669  -16.2553   22.5523 N   0  0  0  0  0  0  0  0  0  0  0  0
   13.4743  -16.4267   24.1988 C   0  0  0  0  0  0  0  0  0  0  0  0
   14.1526  -17.0494   25.0575 O   0  0  0  0  0  0  0  0  0  0  0  0
   13.5143  -15.0359   24.2531 O   0  0  0  0  0  0  0  0  0  0  0  0
  2  1  1  6
  2  3  1  0
  4  5  2  0
  4  2  1  0
  6  4  1  0
  7  6  1  0
  7  8  1  1
  9  8  1  0
 10 11  2  0
 10  7  1  0
 13 12  1  6
 13 14  1  0
 15 13  1  0
 15 16  1  6
 16 10  1  0
 17 15  1  0
 18 17  2  0
 19 17  1  0
M  END
$$$$
