ACT.pdb
     RDKit          3D

 19 18  0  0  1  0  0  0  0  0999 V2000
    5.4209  -20.9457   22.6950 C   0  0  0  0  0  0  0  0  0  0  0  0
    4.7335  -19.6067   22.7850 C   0  0  2  0  0  0  0  0  0  0  0  0
    3.8440  -19.4074   21.6765 N   0  0  0  0  0  0  0  0  0  0  0  0
    5.6857  -18.4854   22.9110 C   0  0  0  0  0  0  0  0  0  0  0  0
    6.1335  -17.9704   21.8563 O   0  0  0  0  0  0  0  0  0  0  0  0
    6.1180  -17.9635   24.1378 N   0  0  0  0  0  0  0  0  0  0  0  0
    7.0306  -16.8833   24.3242 C   0  0  1  0  0  0  0  0  0  0  0  0
    6.8168  -16.1134   25.5984 C   0  0  0  0  0  0  0  0  0  0  0  0
    8.0218  -14.7592   25.6716 S   0  0  0  0  0  0  0  0  0  0  0  0
    8.4546  -17.3412   24.2291 C   0  0  0  0  0  0  0  0  0  0  0  0
    8.8800  -18.2677   24.9331 O   0  0  0  0  0  0  0  0  0  0  0  0
   10.3607  -17.5803   20.7763 C   0  0  0  0  0  0  0  0  0  0  0  0
   11.2912  -16.9513   21.7881 C   0  0  1  0  0  0  0  0  0  0  0  0
   11.2691  -15.5663   21.5712 O   0  0  0  0  0  0  0  0  0  0  0  0
   10.7197  -17.1935   23.1568 C   0  0  2  0  0  0  0  0  0  0  0  0
    9.3800  -16.7276   23.3224 N   0  0  0  0  0  0  0  0  0  0  0  0
   11.6009  -16.5086   24.1439 C   0  0  0  0  0  0  0  0  0  0  0  0
   11.1585  -15.5741   24.8623 O   0  0  0  0  0  0  0  0  0  0  0  0
   12.9367  -16.8597   24.3206 O   0  0  0  0  0  0  0  0  0  0  0  0
  2  1  1  6
  2  3  1  0
  4  5  2  0
  4  2  1  0
  6  4  1  0
  7  6  1  0
  7  8  1  1
  9  8  1  0
 10 11  2  0
 10  7  1  0
 13 12  1  6
 13 14  1  0
 15 13  1  0
 15 16  1  6
 16 10  1  0
 17 15  1  0
 18 17  2  0
 19 17  1  0
M  END
$$$$
