ACT.pdb
     RDKit          3D

 19 18  0  0  1  0  0  0  0  0999 V2000
    6.2624  -15.3289   20.5174 C   0  0  0  0  0  0  0  0  0  0  0  0
    6.9485  -14.0179   20.8072 C   0  0  2  0  0  0  0  0  0  0  0  0
    7.6656  -13.5452   19.6574 N   0  0  0  0  0  0  0  0  0  0  0  0
    7.8276  -14.0853   21.9915 C   0  0  0  0  0  0  0  0  0  0  0  0
    9.0446  -14.3380   21.8093 O   0  0  0  0  0  0  0  0  0  0  0  0
    7.3828  -13.8837   23.3053 N   0  0  0  0  0  0  0  0  0  0  0  0
    8.1727  -13.9720   24.4897 C   0  0  1  0  0  0  0  0  0  0  0  0
    7.5491  -13.3183   25.6922 C   0  0  0  0  0  0  0  0  0  0  0  0
    5.9054  -14.0375   25.9610 S   0  0  0  0  0  0  0  0  0  0  0  0
    8.5393  -15.3909   24.8040 C   0  0  0  0  0  0  0  0  0  0  0  0
    7.7133  -16.3077   24.6933 O   0  0  0  0  0  0  0  0  0  0  0  0
   11.8168  -18.9345   25.1587 C   0  0  0  0  0  0  0  0  0  0  0  0
   11.5879  -17.4613   24.9088 C   0  0  1  0  0  0  0  0  0  0  0  0
   11.4983  -17.2822   23.5211 O   0  0  0  0  0  0  0  0  0  0  0  0
   10.2508  -17.0950   25.4890 C   0  0  2  0  0  0  0  0  0  0  0  0
    9.8569  -15.7444   25.2444 N   0  0  0  0  0  0  0  0  0  0  0  0
   10.3157  -17.3266   26.9594 C   0  0  0  0  0  0  0  0  0  0  0  0
   10.5213  -16.3712   27.7532 O   0  0  0  0  0  0  0  0  0  0  0  0
   10.1552  -18.5896   27.5232 O   0  0  0  0  0  0  0  0  0  0  0  0
  2  1  1  6
  2  3  1  0
  4  5  2  0
  4  2  1  0
  6  4  1  0
  7  6  1  0
  7  8  1  1
  9  8  1  0
 10 11  2  0
 10  7  1  0
 13 12  1  6
 13 14  1  0
 15 13  1  0
 15 16  1  1
 16 10  1  0
 17 15  1  0
 18 17  2  0
 19 17  1  0
M  END
$$$$
