ACT.pdb
     RDKit          3D

 19 18  0  0  1  0  0  0  0  0999 V2000
    6.6235  -17.9381   19.0659 C   0  0  0  0  0  0  0  0  0  0  0  0
    7.2374  -16.5631   18.9863 C   0  0  2  0  0  0  0  0  0  0  0  0
    8.1359  -16.4626   17.8718 N   0  0  0  0  0  0  0  0  0  0  0  0
    7.9016  -16.1628   20.2427 C   0  0  0  0  0  0  0  0  0  0  0  0
    9.0744  -16.5655   20.4443 O   0  0  0  0  0  0  0  0  0  0  0  0
    7.2997  -15.3606   21.2217 N   0  0  0  0  0  0  0  0  0  0  0  0
    7.8885  -14.9391   22.4506 C   0  0  1  0  0  0  0  0  0  0  0  0
    7.0244  -14.0083   23.2565 C   0  0  0  0  0  0  0  0  0  0  0  0
    7.8712  -13.6285   24.8153 S   0  0  0  0  0  0  0  0  0  0  0  0
    8.3125  -16.1071   23.2886 C   0  0  0  0  0  0  0  0  0  0  0  0
    7.5029  -16.9802   23.6308 O   0  0  0  0  0  0  0  0  0  0  0  0
   10.0937  -18.9750   22.7551 C   0  0  0  0  0  0  0  0  0  0  0  0
   10.9272  -18.3719   23.8626 C   0  0  1  0  0  0  0  0  0  0  0  0
   11.9964  -17.6948   23.2592 O   0  0  0  0  0  0  0  0  0  0  0  0
   10.0895  -17.3396   24.5636 C   0  0  2  0  0  0  0  0  0  0  0  0
    9.6685  -16.2614   23.7273 N   0  0  0  0  0  0  0  0  0  0  0  0
   10.8924  -16.7960   25.6949 C   0  0  0  0  0  0  0  0  0  0  0  0
   11.2080  -17.5271   26.6702 O   0  0  0  0  0  0  0  0  0  0  0  0
   11.3284  -15.4741   25.7324 O   0  0  0  0  0  0  0  0  0  0  0  0
  2  1  1  1
  2  3  1  0
  4  5  2  0
  4  2  1  0
  6  4  1  0
  7  6  1  0
  7  8  1  1
  9  8  1  0
 10 11  2  0
 10  7  1  0
 13 12  1  6
 13 14  1  0
 15 13  1  0
 15 16  1  6
 16 10  1  0
 17 15  1  0
 18 17  2  0
 19 17  1  0
M  END
$$$$
