ACT.pdb
     RDKit          3D

 19 18  0  0  1  0  0  0  0  0999 V2000
    6.6680  -14.4102   20.1246 C   0  0  0  0  0  0  0  0  0  0  0  0
    7.2941  -13.2031   20.7759 C   0  0  2  0  0  0  0  0  0  0  0  0
    8.2957  -12.6207   19.9290 N   0  0  0  0  0  0  0  0  0  0  0  0
    7.8373  -13.4975   22.1169 C   0  0  0  0  0  0  0  0  0  0  0  0
    9.0483  -13.8202   22.2051 O   0  0  0  0  0  0  0  0  0  0  0  0
    7.0807  -13.4378   23.2952 N   0  0  0  0  0  0  0  0  0  0  0  0
    7.5577  -13.6639   24.6203 C   0  0  1  0  0  0  0  0  0  0  0  0
    6.6944  -13.0599   25.6936 C   0  0  0  0  0  0  0  0  0  0  0  0
    7.7646  -12.4062   27.0046 S   0  0  0  0  0  0  0  0  0  0  0  0
    7.7715  -15.1229   24.8883 C   0  0  0  0  0  0  0  0  0  0  0  0
    6.8269  -15.9243   24.8730 O   0  0  0  0  0  0  0  0  0  0  0  0
    9.7045  -17.5214   23.0313 C   0  0  0  0  0  0  0  0  0  0  0  0
   10.2825  -17.6576   24.4215 C   0  0  1  0  0  0  0  0  0  0  0  0
   11.4534  -16.8874   24.4641 O   0  0  0  0  0  0  0  0  0  0  0  0
    9.3123  -17.0406   25.3893 C   0  0  2  0  0  0  0  0  0  0  0  0
    9.0742  -15.6493   25.1726 N   0  0  0  0  0  0  0  0  0  0  0  0
    9.8561  -17.2354   26.7628 C   0  0  0  0  0  0  0  0  0  0  0  0
   10.1362  -16.2469   27.4905 O   0  0  0  0  0  0  0  0  0  0  0  0
   10.0793  -18.4986   27.3043 O   0  0  0  0  0  0  0  0  0  0  0  0
  2  1  1  6
  2  3  1  0
  4  5  2  0
  4  2  1  0
  6  4  1  0
  7  6  1  0
  7  8  1  1
  9  8  1  0
 10 11  2  0
 10  7  1  0
 13 12  1  6
 13 14  1  0
 15 13  1  0
 15 16  1  6
 16 10  1  0
 17 15  1  0
 18 17  2  0
 19 17  1  0
M  END
$$$$
