ACT.pdb
     RDKit          3D

 19 18  0  0  1  0  0  0  0  0999 V2000
    7.6986  -12.6192   19.1541 C   0  0  0  0  0  0  0  0  0  0  0  0
    7.8028  -14.0810   19.5086 C   0  0  2  0  0  0  0  0  0  0  0  0
    6.5177  -14.7178   19.4567 N   0  0  0  0  0  0  0  0  0  0  0  0
    8.4549  -14.3050   20.8142 C   0  0  0  0  0  0  0  0  0  0  0  0
    9.7098  -14.2684   20.8608 O   0  0  0  0  0  0  0  0  0  0  0  0
    7.7554  -14.5556   22.0025 N   0  0  0  0  0  0  0  0  0  0  0  0
    8.3268  -14.7893   23.2884 C   0  0  1  0  0  0  0  0  0  0  0  0
    7.3732  -14.5726   24.4312 C   0  0  0  0  0  0  0  0  0  0  0  0
    7.0260  -12.7977   24.5733 S   0  0  0  0  0  0  0  0  0  0  0  0
    8.9420  -16.1529   23.3793 C   0  0  0  0  0  0  0  0  0  0  0  0
    8.2479  -17.1769   23.3110 O   0  0  0  0  0  0  0  0  0  0  0  0
   12.5169  -19.2164   22.5413 C   0  0  0  0  0  0  0  0  0  0  0  0
   11.9731  -17.8100   22.4347 C   0  0  1  0  0  0  0  0  0  0  0  0
   11.2665  -17.7259   21.2266 O   0  0  0  0  0  0  0  0  0  0  0  0
   10.9779  -17.6126   23.5434 C   0  0  2  0  0  0  0  0  0  0  0  0
   10.3547  -16.3277   23.5485 N   0  0  0  0  0  0  0  0  0  0  0  0
   11.6922  -17.8145   24.8353 C   0  0  0  0  0  0  0  0  0  0  0  0
   12.3723  -16.8867   25.3469 O   0  0  0  0  0  0  0  0  0  0  0  0
   11.6460  -19.0189   25.5327 O   0  0  0  0  0  0  0  0  0  0  0  0
  2  1  1  1
  2  3  1  0
  4  5  2  0
  4  2  1  0
  6  4  1  0
  7  6  1  0
  7  8  1  1
  9  8  1  0
 10 11  2  0
 10  7  1  0
 13 12  1  1
 13 14  1  0
 15 13  1  0
 15 16  1  1
 16 10  1  0
 17 15  1  0
 18 17  2  0
 19 17  1  0
M  END
$$$$
