ACT.pdb
     RDKit          3D

 19 18  0  0  1  0  0  0  0  0999 V2000
    6.6955  -19.1142   20.6661 C   0  0  0  0  0  0  0  0  0  0  0  0
    5.8524  -18.4716   21.7383 C   0  0  2  0  0  0  0  0  0  0  0  0
    5.3838  -17.1806   21.3222 N   0  0  0  0  0  0  0  0  0  0  0  0
    6.5487  -18.3911   23.0379 C   0  0  0  0  0  0  0  0  0  0  0  0
    7.4062  -17.4861   23.1926 O   0  0  0  0  0  0  0  0  0  0  0  0
    6.3082  -19.2650   24.1069 N   0  0  0  0  0  0  0  0  0  0  0  0
    6.9236  -19.2195   25.3928 C   0  0  1  0  0  0  0  0  0  0  0  0
    6.0655  -19.7626   26.5023 C   0  0  0  0  0  0  0  0  0  0  0  0
    6.9069  -19.4773   28.0841 S   0  0  0  0  0  0  0  0  0  0  0  0
    8.2585  -19.9009   25.3903 C   0  0  0  0  0  0  0  0  0  0  0  0
    8.4851  -20.8677   24.6493 O   0  0  0  0  0  0  0  0  0  0  0  0
   12.9681  -20.0390   25.5951 C   0  0  0  0  0  0  0  0  0  0  0  0
   11.6408  -19.3371   25.4200 C   0  0  1  0  0  0  0  0  0  0  0  0
   11.2712  -19.4724   24.0743 O   0  0  0  0  0  0  0  0  0  0  0  0
   10.6159  -20.0734   26.2361 C   0  0  2  0  0  0  0  0  0  0  0  0
    9.3247  -19.4633   26.2427 N   0  0  0  0  0  0  0  0  0  0  0  0
   11.1241  -20.1570   27.6342 C   0  0  0  0  0  0  0  0  0  0  0  0
   12.1569  -20.8242   27.9051 O   0  0  0  0  0  0  0  0  0  0  0  0
   10.4946  -19.5129   28.6962 O   0  0  0  0  0  0  0  0  0  0  0  0
  2  1  1  6
  2  3  1  0
  4  5  2  0
  4  2  1  0
  6  4  1  0
  7  6  1  0
  7  8  1  1
  9  8  1  0
 10 11  2  0
 10  7  1  0
 13 12  1  6
 13 14  1  0
 15 13  1  0
 15 16  1  1
 16 10  1  0
 17 15  1  0
 18 17  2  0
 19 17  1  0
M  END
$$$$
