ACT.pdb
     RDKit          3D

 19 18  0  0  1  0  0  0  0  0999 V2000
    7.9499  -12.8736   19.9782 C   0  0  0  0  0  0  0  0  0  0  0  0
    7.6533  -14.0896   20.8189 C   0  0  2  0  0  0  0  0  0  0  0  0
    6.2606  -14.4309   20.7599 N   0  0  0  0  0  0  0  0  0  0  0  0
    8.1053  -13.9393   22.2165 C   0  0  0  0  0  0  0  0  0  0  0  0
    9.3407  -13.9650   22.4429 O   0  0  0  0  0  0  0  0  0  0  0  0
    7.2364  -13.7699   23.3031 N   0  0  0  0  0  0  0  0  0  0  0  0
    7.6108  -13.6187   24.6712 C   0  0  1  0  0  0  0  0  0  0  0  0
    6.6684  -12.7642   25.4735 C   0  0  0  0  0  0  0  0  0  0  0  0
    7.2374  -12.7261   27.1957 S   0  0  0  0  0  0  0  0  0  0  0  0
    7.8031  -14.9459   25.3405 C   0  0  0  0  0  0  0  0  0  0  0  0
    6.8579  -15.7327   25.4909 O   0  0  0  0  0  0  0  0  0  0  0  0
   11.3536  -16.8533   24.9191 C   0  0  0  0  0  0  0  0  0  0  0  0
   10.0654  -17.5499   25.2936 C   0  0  1  0  0  0  0  0  0  0  0  0
   10.4099  -18.7388   25.9522 O   0  0  0  0  0  0  0  0  0  0  0  0
    9.3438  -16.6861   26.2894 C   0  0  2  0  0  0  0  0  0  0  0  0
    9.0848  -15.3580   25.8329 N   0  0  0  0  0  0  0  0  0  0  0  0
   10.1760  -16.6250   27.5238 C   0  0  0  0  0  0  0  0  0  0  0  0
   10.6386  -15.5286   27.9348 O   0  0  0  0  0  0  0  0  0  0  0  0
   10.4804  -17.7574   28.2747 O   0  0  0  0  0  0  0  0  0  0  0  0
  2  1  1  6
  2  3  1  0
  4  5  2  0
  4  2  1  0
  6  4  1  0
  7  6  1  0
  7  8  1  1
  9  8  1  0
 10 11  2  0
 10  7  1  0
 13 12  1  1
 13 14  1  0
 15 13  1  0
 15 16  1  6
 16 10  1  0
 17 15  1  0
 18 17  2  0
 19 17  1  0
M  END
$$$$
