KQC.pdb
     RDKit          3D

 25 24  0  0  1  0  0  0  0  0999 V2000
    8.4621  -17.7419   20.7393 N   0  0  0  0  0  0  0  0  0  0  0  0
    7.3371  -16.8453   20.8352 C   0  0  1  0  0  0  0  0  0  0  0  0
    6.0709  -17.3578   20.2169 C   0  0  0  0  0  0  0  0  0  0  0  0
    6.2708  -18.3352   19.1142 C   0  0  0  0  0  0  0  0  0  0  0  0
    6.5178  -19.7496   19.5087 C   0  0  0  0  0  0  0  0  0  0  0  0
    6.5515  -20.6610   18.2678 C   0  0  0  0  0  0  0  0  0  0  0  0
    6.8157  -21.9944   18.7638 N   0  0  0  0  0  0  0  0  0  0  0  0
    7.1351  -16.5323   22.2882 C   0  0  0  0  0  0  0  0  0  0  0  0
    6.1460  -15.8459   22.6146 O   0  0  0  0  0  0  0  0  0  0  0  0
   10.6223  -19.1259   26.7107 N   0  0  0  0  0  0  0  0  0  0  0  0
    9.9449  -18.1733   27.5192 C   0  0  0  0  0  0  0  0  0  0  0  0
   10.2302  -18.0839   28.7444 O   0  0  0  0  0  0  0  0  0  0  0  0
    8.8941  -17.2782   26.9130 C   0  0  0  0  0  0  0  0  0  0  0  0
    8.8227  -17.5271   25.4358 C   0  0  0  0  0  0  0  0  0  0  0  0
    7.8439  -16.6459   24.7033 C   0  0  2  0  0  0  0  0  0  0  0  0
    8.0169  -16.9841   23.2810 N   0  0  0  0  0  0  0  0  0  0  0  0
    8.0835  -15.2122   24.8467 C   0  0  0  0  0  0  0  0  0  0  0  0
    8.9992  -14.6601   24.1876 O   0  0  0  0  0  0  0  0  0  0  0  0
    7.3243  -14.3927   25.7062 N   0  0  0  0  0  0  0  0  0  0  0  0
    7.6234  -12.9690   25.8693 C   0  0  1  0  0  0  0  0  0  0  0  0
    6.3283  -12.2105   25.7324 C   0  0  0  0  0  0  0  0  0  0  0  0
    5.2286  -12.5551   27.1174 S   0  0  0  0  0  0  0  0  0  0  0  0
    8.2296  -12.7661   27.2104 C   0  0  0  0  0  0  0  0  0  0  0  0
    8.7594  -11.5451   27.5929 O   0  0  0  0  0  0  0  0  0  0  0  0
    8.2802  -13.6984   28.0400 O   0  0  0  0  0  0  0  0  0  0  0  0
  2  1  1  1
  3  2  1  0
  4  3  1  0
  5  4  1  0
  6  7  1  0
  6  5  1  0
  8  9  2  0
  8  2  1  0
 10 11  1  0
 11 12  2  0
 13 11  1  0
 13 14  1  0
 15 14  1  1
 15 16  1  0
 16  8  1  0
 17 15  1  0
 18 17  2  0
 19 17  1  0
 20 19  1  0
 21 22  1  0
 20 21  1  1
 23 20  1  0
 23 24  1  0
 25 23  2  0
M  END
$$$$
