KQC.pdb
     RDKit          3D

 25 24  0  0  1  0  0  0  0  0999 V2000
    7.1595  -17.3063   19.8931 N   0  0  0  0  0  0  0  0  0  0  0  0
    7.9485  -16.3428   20.6197 C   0  0  1  0  0  0  0  0  0  0  0  0
    8.0852  -15.0089   19.9488 C   0  0  0  0  0  0  0  0  0  0  0  0
    7.9215  -15.0383   18.4712 C   0  0  0  0  0  0  0  0  0  0  0  0
    8.0845  -13.7444   17.7527 C   0  0  0  0  0  0  0  0  0  0  0  0
    7.9820  -13.9524   16.2303 C   0  0  0  0  0  0  0  0  0  0  0  0
    8.1282  -12.6389   15.6412 N   0  0  0  0  0  0  0  0  0  0  0  0
    7.3369  -16.1972   21.9816 C   0  0  0  0  0  0  0  0  0  0  0  0
    6.1382  -15.8612   22.0601 O   0  0  0  0  0  0  0  0  0  0  0  0
    8.0967  -20.2829   26.0328 N   0  0  0  0  0  0  0  0  0  0  0  0
    7.5781  -19.3319   26.9530 C   0  0  0  0  0  0  0  0  0  0  0  0
    7.3575  -19.6780   28.1454 O   0  0  0  0  0  0  0  0  0  0  0  0
    7.2953  -17.9210   26.5030 C   0  0  0  0  0  0  0  0  0  0  0  0
    7.6832  -17.7729   25.0619 C   0  0  0  0  0  0  0  0  0  0  0  0
    7.4414  -16.3995   24.4908 C   0  0  2  0  0  0  0  0  0  0  0  0
    8.0659  -16.4254   23.1580 N   0  0  0  0  0  0  0  0  0  0  0  0
    8.0536  -15.3067   25.2422 C   0  0  0  0  0  0  0  0  0  0  0  0
    9.2793  -15.0649   25.1115 O   0  0  0  0  0  0  0  0  0  0  0  0
    7.3262  -14.4873   26.1288 N   0  0  0  0  0  0  0  0  0  0  0  0
    7.9698  -13.4031   26.8728 C   0  0  1  0  0  0  0  0  0  0  0  0
    6.8817  -12.5600   27.4864 C   0  0  0  0  0  0  0  0  0  0  0  0
    5.7742  -11.9139   26.2204 S   0  0  0  0  0  0  0  0  0  0  0  0
    8.8429  -14.0014   27.9153 C   0  0  0  0  0  0  0  0  0  0  0  0
    9.6146  -13.2176   28.7567 O   0  0  0  0  0  0  0  0  0  0  0  0
    8.9079  -15.2397   28.0655 O   0  0  0  0  0  0  0  0  0  0  0  0
  2  1  1  6
  3  2  1  0
  4  3  1  0
  5  4  1  0
  6  7  1  0
  6  5  1  0
  8  9  2  0
  8  2  1  0
 10 11  1  0
 11 12  2  0
 13 11  1  0
 13 14  1  0
 15 14  1  1
 15 16  1  0
 16  8  1  0
 17 15  1  0
 18 17  2  0
 19 17  1  0
 20 19  1  0
 21 22  1  0
 20 21  1  1
 23 20  1  0
 23 24  1  0
 25 23  2  0
M  END
$$$$
