KQC.pdb
     RDKit          3D

 25 24  0  0  1  0  0  0  0  0999 V2000
    5.9891  -16.3768   20.6249 N   0  0  0  0  0  0  0  0  0  0  0  0
    7.1593  -15.6551   21.0591 C   0  0  1  0  0  0  0  0  0  0  0  0
    7.1109  -14.1762   20.8171 C   0  0  0  0  0  0  0  0  0  0  0  0
    7.2023  -13.7784   19.3873 C   0  0  0  0  0  0  0  0  0  0  0  0
    8.5704  -13.5986   18.8277 C   0  0  0  0  0  0  0  0  0  0  0  0
    8.5004  -13.0737   17.3816 C   0  0  0  0  0  0  0  0  0  0  0  0
    9.8724  -12.9507   16.9389 N   0  0  0  0  0  0  0  0  0  0  0  0
    7.3559  -15.9533   22.5159 C   0  0  0  0  0  0  0  0  0  0  0  0
    6.3462  -16.1411   23.2239 O   0  0  0  0  0  0  0  0  0  0  0  0
   12.1603  -18.9863   24.4750 N   0  0  0  0  0  0  0  0  0  0  0  0
   11.6416  -18.6660   25.7588 C   0  0  0  0  0  0  0  0  0  0  0  0
   12.1867  -19.1510   26.7874 O   0  0  0  0  0  0  0  0  0  0  0  0
   10.4486  -17.7529   25.8859 C   0  0  0  0  0  0  0  0  0  0  0  0
   10.0105  -17.3163   24.5196 C   0  0  0  0  0  0  0  0  0  0  0  0
    8.8289  -16.3811   24.5148 C   0  0  2  0  0  0  0  0  0  0  0  0
    8.6290  -16.0266   23.1000 N   0  0  0  0  0  0  0  0  0  0  0  0
    9.0278  -15.1381   25.2557 C   0  0  0  0  0  0  0  0  0  0  0  0
    9.8810  -14.3037   24.8638 O   0  0  0  0  0  0  0  0  0  0  0  0
    8.2965  -14.8149   26.4165 N   0  0  0  0  0  0  0  0  0  0  0  0
    8.5886  -13.6104   27.1954 C   0  0  1  0  0  0  0  0  0  0  0  0
    7.2730  -12.9858   27.5835 C   0  0  0  0  0  0  0  0  0  0  0  0
    6.2347  -12.7153   26.1359 S   0  0  0  0  0  0  0  0  0  0  0  0
    9.3746  -14.0036   28.3932 C   0  0  0  0  0  0  0  0  0  0  0  0
    9.8684  -13.0628   29.2814 O   0  0  0  0  0  0  0  0  0  0  0  0
    9.6158  -15.2046   28.6372 O   0  0  0  0  0  0  0  0  0  0  0  0
  2  1  1  1
  3  2  1  0
  4  3  1  0
  5  4  1  0
  6  7  1  0
  6  5  1  0
  8  9  2  0
  8  2  1  0
 10 11  1  0
 11 12  2  0
 13 11  1  0
 13 14  1  0
 15 14  1  6
 15 16  1  0
 16  8  1  0
 17 15  1  0
 18 17  2  0
 19 17  1  0
 20 19  1  0
 21 22  1  0
 20 21  1  1
 23 20  1  0
 23 24  1  0
 25 23  2  0
M  END
$$$$
