KQC.pdb
     RDKit          3D

 25 24  0  0  1  0  0  0  0  0999 V2000
    6.1257  -20.0557   20.4500 N   0  0  0  0  0  0  0  0  0  0  0  0
    5.5800  -19.0198   21.2914 C   0  0  1  0  0  0  0  0  0  0  0  0
    4.7455  -19.5140   22.4349 C   0  0  0  0  0  0  0  0  0  0  0  0
    4.0849  -20.8252   22.1992 C   0  0  0  0  0  0  0  0  0  0  0  0
    2.6339  -20.9124   22.5215 C   0  0  0  0  0  0  0  0  0  0  0  0
    2.1098  -22.3405   22.2822 C   0  0  0  0  0  0  0  0  0  0  0  0
    0.7013  -22.3050   22.6117 N   0  0  0  0  0  0  0  0  0  0  0  0
    6.7286  -18.1913   21.7855 C   0  0  0  0  0  0  0  0  0  0  0  0
    7.6939  -18.7744   22.3186 O   0  0  0  0  0  0  0  0  0  0  0  0
    7.3613  -12.0558   20.6581 N   0  0  0  0  0  0  0  0  0  0  0  0
    7.6036  -13.0661   19.6882 C   0  0  0  0  0  0  0  0  0  0  0  0
    7.6167  -12.7617   18.4644 O   0  0  0  0  0  0  0  0  0  0  0  0
    7.8426  -14.4897   20.1231 C   0  0  0  0  0  0  0  0  0  0  0  0
    7.6253  -14.5994   21.6030 C   0  0  0  0  0  0  0  0  0  0  0  0
    7.8667  -15.9759   22.1667 C   0  0  2  0  0  0  0  0  0  0  0  0
    6.7492  -16.7938   21.6671 N   0  0  0  0  0  0  0  0  0  0  0  0
    7.8502  -16.0527   23.6252 C   0  0  0  0  0  0  0  0  0  0  0  0
    6.8327  -15.6816   24.2616 O   0  0  0  0  0  0  0  0  0  0  0  0
    8.9412  -16.5323   24.3777 N   0  0  0  0  0  0  0  0  0  0  0  0
    8.8771  -16.6417   25.8361 C   0  0  1  0  0  0  0  0  0  0  0  0
    7.7746  -17.6121   26.1744 C   0  0  0  0  0  0  0  0  0  0  0  0
    7.8483  -18.0939   27.9091 S   0  0  0  0  0  0  0  0  0  0  0  0
   10.1925  -17.1242   26.3301 C   0  0  0  0  0  0  0  0  0  0  0  0
   10.4840  -17.1872   27.6825 O   0  0  0  0  0  0  0  0  0  0  0  0
   11.0824  -17.4905   25.5340 O   0  0  0  0  0  0  0  0  0  0  0  0
  2  1  1  1
  3  2  1  0
  4  3  1  0
  5  4  1  0
  6  7  1  0
  6  5  1  0
  8  9  2  0
  8  2  1  0
 10 11  1  0
 11 12  2  0
 13 11  1  0
 13 14  1  0
 15 14  1  1
 15 16  1  0
 16  8  1  0
 17 15  1  0
 18 17  2  0
 19 17  1  0
 20 19  1  0
 21 22  1  0
 20 21  1  6
 23 20  1  0
 23 24  1  0
 25 23  2  0
M  END
$$$$
