KQC.pdb
     RDKit          3D

 25 24  0  0  1  0  0  0  0  0999 V2000
    7.6837  -23.4240   20.2344 N   0  0  0  0  0  0  0  0  0  0  0  0
    9.1159  -23.2694   20.2939 C   0  0  1  0  0  0  0  0  0  0  0  0
    9.7236  -22.5847   19.1064 C   0  0  0  0  0  0  0  0  0  0  0  0
    8.9733  -21.3942   18.6260 C   0  0  0  0  0  0  0  0  0  0  0  0
    9.5321  -20.6816   17.4441 C   0  0  0  0  0  0  0  0  0  0  0  0
    8.6722  -19.4528   17.0948 C   0  0  0  0  0  0  0  0  0  0  0  0
    9.3423  -18.8027   15.9893 N   0  0  0  0  0  0  0  0  0  0  0  0
    9.4356  -22.5308   21.5597 C   0  0  0  0  0  0  0  0  0  0  0  0
    8.9817  -22.9725   22.6343 O   0  0  0  0  0  0  0  0  0  0  0  0
   13.8543  -22.0620   25.0246 N   0  0  0  0  0  0  0  0  0  0  0  0
   14.1692  -21.9186   23.6461 C   0  0  0  0  0  0  0  0  0  0  0  0
   15.3772  -21.8735   23.2866 O   0  0  0  0  0  0  0  0  0  0  0  0
   13.0648  -21.8215   22.6245 C   0  0  0  0  0  0  0  0  0  0  0  0
   11.7390  -21.8226   23.3257 C   0  0  0  0  0  0  0  0  0  0  0  0
   10.7635  -20.7948   22.8130 C   0  0  2  0  0  0  0  0  0  0  0  0
   10.2221  -21.3694   21.5705 N   0  0  0  0  0  0  0  0  0  0  0  0
   11.3548  -19.5017   22.4783 C   0  0  0  0  0  0  0  0  0  0  0  0
   11.9592  -19.3517   21.3874 O   0  0  0  0  0  0  0  0  0  0  0  0
   11.2830  -18.3841   23.3341 N   0  0  0  0  0  0  0  0  0  0  0  0
   11.8269  -17.0828   22.9420 C   0  0  1  0  0  0  0  0  0  0  0  0
   11.1570  -16.0322   23.7899 C   0  0  0  0  0  0  0  0  0  0  0  0
    9.3669  -16.0883   23.5927 S   0  0  0  0  0  0  0  0  0  0  0  0
   13.2958  -17.1006   23.1636 C   0  0  0  0  0  0  0  0  0  0  0  0
   14.1045  -16.0475   22.7702 O   0  0  0  0  0  0  0  0  0  0  0  0
   13.8502  -18.0740   23.7160 O   0  0  0  0  0  0  0  0  0  0  0  0
  2  1  1  6
  3  2  1  0
  4  3  1  0
  5  4  1  0
  6  7  1  0
  6  5  1  0
  8  9  2  0
  8  2  1  0
 10 11  1  0
 11 12  2  0
 13 11  1  0
 13 14  1  0
 15 14  1  6
 15 16  1  0
 16  8  1  0
 17 15  1  0
 18 17  2  0
 19 17  1  0
 20 19  1  0
 21 22  1  0
 20 21  1  1
 23 20  1  0
 23 24  1  0
 25 23  2  0
M  END
$$$$
