KQC.pdb
     RDKit          3D

 25 24  0  0  1  0  0  0  0  0999 V2000
    9.4623  -15.0758   19.6838 N   0  0  0  0  0  0  0  0  0  0  0  0
    8.5706  -14.1659   20.3589 C   0  0  1  0  0  0  0  0  0  0  0  0
    7.3188  -13.8360   19.6023 C   0  0  0  0  0  0  0  0  0  0  0  0
    7.5423  -13.3577   18.2122 C   0  0  0  0  0  0  0  0  0  0  0  0
    7.8359  -14.3951   17.1853 C   0  0  0  0  0  0  0  0  0  0  0  0
    7.9890  -13.7532   15.7939 C   0  0  0  0  0  0  0  0  0  0  0  0
    8.0815  -14.8537   14.8590 N   0  0  0  0  0  0  0  0  0  0  0  0
    8.2465  -14.7641   21.6957 C   0  0  0  0  0  0  0  0  0  0  0  0
    7.0763  -14.6726   22.1179 O   0  0  0  0  0  0  0  0  0  0  0  0
   11.4869  -19.3230   24.1329 N   0  0  0  0  0  0  0  0  0  0  0  0
   10.7719  -18.9736   25.3105 C   0  0  0  0  0  0  0  0  0  0  0  0
   10.9562  -19.6354   26.3681 O   0  0  0  0  0  0  0  0  0  0  0  0
    9.8014  -17.8201   25.2914 C   0  0  0  0  0  0  0  0  0  0  0  0
    9.8538  -17.1500   23.9507 C   0  0  0  0  0  0  0  0  0  0  0  0
    8.8994  -15.9942   23.7954 C   0  0  2  0  0  0  0  0  0  0  0  0
    9.2109  -15.4170   22.4775 N   0  0  0  0  0  0  0  0  0  0  0  0
    9.0544  -14.9336   24.7877 C   0  0  0  0  0  0  0  0  0  0  0  0
   10.1289  -14.2863   24.8516 O   0  0  0  0  0  0  0  0  0  0  0  0
    8.0385  -14.5876   25.7015 N   0  0  0  0  0  0  0  0  0  0  0  0
    8.2378  -13.5457   26.7103 C   0  0  1  0  0  0  0  0  0  0  0  0
    6.8897  -12.9505   27.0262 C   0  0  0  0  0  0  0  0  0  0  0  0
    6.1220  -12.2683   25.5458 S   0  0  0  0  0  0  0  0  0  0  0  0
    8.8502  -14.1662   27.9131 C   0  0  0  0  0  0  0  0  0  0  0  0
    9.2684  -13.4055   28.9922 O   0  0  0  0  0  0  0  0  0  0  0  0
    9.0077  -15.4030   27.9881 O   0  0  0  0  0  0  0  0  0  0  0  0
  2  1  1  6
  3  2  1  0
  4  3  1  0
  5  4  1  0
  6  7  1  0
  6  5  1  0
  8  9  2  0
  8  2  1  0
 10 11  1  0
 11 12  2  0
 13 11  1  0
 13 14  1  0
 15 14  1  1
 15 16  1  0
 16  8  1  0
 17 15  1  0
 18 17  2  0
 19 17  1  0
 20 19  1  0
 21 22  1  0
 20 21  1  1
 23 20  1  0
 23 24  1  0
 25 23  2  0
M  END
$$$$
