KQC.pdb
     RDKit          3D

 25 24  0  0  1  0  0  0  0  0999 V2000
    4.9370  -17.3455   20.7671 N   0  0  0  0  0  0  0  0  0  0  0  0
    6.2979  -17.5463   21.1990 C   0  0  1  0  0  0  0  0  0  0  0  0
    7.3206  -16.7538   20.4413 C   0  0  0  0  0  0  0  0  0  0  0  0
    7.0884  -15.2851   20.4368 C   0  0  0  0  0  0  0  0  0  0  0  0
    8.0787  -14.4520   19.7004 C   0  0  0  0  0  0  0  0  0  0  0  0
    7.7184  -12.9586   19.8082 C   0  0  0  0  0  0  0  0  0  0  0  0
    8.7166  -12.2543   19.0328 N   0  0  0  0  0  0  0  0  0  0  0  0
    6.3548  -17.2317   22.6645 C   0  0  0  0  0  0  0  0  0  0  0  0
    5.5317  -16.4173   23.1283 O   0  0  0  0  0  0  0  0  0  0  0  0
    8.8543  -20.3814   27.6056 N   0  0  0  0  0  0  0  0  0  0  0  0
    7.4953  -20.6093   27.2575 C   0  0  0  0  0  0  0  0  0  0  0  0
    6.8137  -21.4349   27.9240 O   0  0  0  0  0  0  0  0  0  0  0  0
    6.8769  -19.8678   26.0996 C   0  0  0  0  0  0  0  0  0  0  0  0
    7.8718  -18.8902   25.5485 C   0  0  0  0  0  0  0  0  0  0  0  0
    7.2613  -17.6350   24.9805 C   0  0  2  0  0  0  0  0  0  0  0  0
    7.2971  -17.8206   23.5206 N   0  0  0  0  0  0  0  0  0  0  0  0
    7.9901  -16.4065   25.2856 C   0  0  0  0  0  0  0  0  0  0  0  0
    8.6139  -15.8046   24.3765 O   0  0  0  0  0  0  0  0  0  0  0  0
    8.0335  -15.8444   26.5775 N   0  0  0  0  0  0  0  0  0  0  0  0
    8.5679  -14.5017   26.8113 C   0  0  1  0  0  0  0  0  0  0  0  0
    7.4128  -13.5348   26.7654 C   0  0  0  0  0  0  0  0  0  0  0  0
    7.9664  -11.8515   27.0923 S   0  0  0  0  0  0  0  0  0  0  0  0
    9.2344  -14.4852   28.1389 C   0  0  0  0  0  0  0  0  0  0  0  0
   10.1073  -13.4735   28.5030 O   0  0  0  0  0  0  0  0  0  0  0  0
    9.0259  -15.3907   28.9736 O   0  0  0  0  0  0  0  0  0  0  0  0
  2  1  1  6
  3  2  1  0
  4  3  1  0
  5  4  1  0
  6  7  1  0
  6  5  1  0
  8  9  2  0
  8  2  1  0
 10 11  1  0
 11 12  2  0
 13 11  1  0
 13 14  1  0
 15 14  1  1
 15 16  1  0
 16  8  1  0
 17 15  1  0
 18 17  2  0
 19 17  1  0
 20 19  1  0
 21 22  1  0
 20 21  1  1
 23 20  1  0
 23 24  1  0
 25 23  2  0
M  END
$$$$
