KQC.pdb
     RDKit          3D

 25 24  0  0  1  0  0  0  0  0999 V2000
    8.1714  -19.3206   19.0304 N   0  0  0  0  0  0  0  0  0  0  0  0
    9.5657  -19.0028   18.8464 C   0  0  1  0  0  0  0  0  0  0  0  0
   10.0921  -19.2614   17.4665 C   0  0  0  0  0  0  0  0  0  0  0  0
    9.3049  -20.2452   16.6768 C   0  0  0  0  0  0  0  0  0  0  0  0
    9.8261  -21.6393   16.6318 C   0  0  0  0  0  0  0  0  0  0  0  0
    9.0337  -22.4822   15.6154 C   0  0  0  0  0  0  0  0  0  0  0  0
    9.5621  -23.8253   15.7185 N   0  0  0  0  0  0  0  0  0  0  0  0
    9.7528  -17.5649   19.2303 C   0  0  0  0  0  0  0  0  0  0  0  0
   10.8849  -17.0585   19.0971 O   0  0  0  0  0  0  0  0  0  0  0  0
    8.0789  -12.2297   17.9415 N   0  0  0  0  0  0  0  0  0  0  0  0
    8.4869  -12.4788   19.2799 C   0  0  0  0  0  0  0  0  0  0  0  0
    9.6098  -12.0617   19.6745 O   0  0  0  0  0  0  0  0  0  0  0  0
    7.5815  -13.2362   20.2178 C   0  0  0  0  0  0  0  0  0  0  0  0
    7.6028  -14.6924   19.8596 C   0  0  0  0  0  0  0  0  0  0  0  0
    8.8990  -15.3921   20.1779 C   0  0  2  0  0  0  0  0  0  0  0  0
    8.7027  -16.7806   19.7297 N   0  0  0  0  0  0  0  0  0  0  0  0
    9.2413  -15.4325   21.5973 C   0  0  0  0  0  0  0  0  0  0  0  0
    8.5092  -14.8510   22.4362 O   0  0  0  0  0  0  0  0  0  0  0  0
   10.3775  -16.1052   22.0906 N   0  0  0  0  0  0  0  0  0  0  0  0
   10.6788  -16.1516   23.5224 C   0  0  1  0  0  0  0  0  0  0  0  0
    9.5788  -16.9305   24.1968 C   0  0  0  0  0  0  0  0  0  0  0  0
    9.9857  -17.2622   25.9205 S   0  0  0  0  0  0  0  0  0  0  0  0
   11.9978  -16.8105   23.7046 C   0  0  0  0  0  0  0  0  0  0  0  0
   12.6655  -17.4078   22.6485 O   0  0  0  0  0  0  0  0  0  0  0  0
   12.5488  -16.8459   24.8249 O   0  0  0  0  0  0  0  0  0  0  0  0
  2  1  1  6
  3  2  1  0
  4  3  1  0
  5  4  1  0
  6  7  1  0
  6  5  1  0
  8  9  2  0
  8  2  1  0
 10 11  1  0
 11 12  2  0
 13 11  1  0
 13 14  1  0
 15 14  1  1
 15 16  1  0
 16  8  1  0
 17 15  1  0
 18 17  2  0
 19 17  1  0
 20 19  1  0
 21 22  1  0
 20 21  1  1
 23 20  1  0
 23 24  1  0
 25 23  2  0
M  END
$$$$
