KQC.pdb
     RDKit          3D

 25 24  0  0  1  0  0  0  0  0999 V2000
    8.5646  -19.5815   19.7002 N   0  0  0  0  0  0  0  0  0  0  0  0
    7.9323  -18.2882   19.6200 C   0  0  1  0  0  0  0  0  0  0  0  0
    6.8469  -18.1824   18.5910 C   0  0  0  0  0  0  0  0  0  0  0  0
    7.2310  -18.6538   17.2340 C   0  0  0  0  0  0  0  0  0  0  0  0
    6.2047  -18.5221   16.1632 C   0  0  0  0  0  0  0  0  0  0  0  0
    6.7514  -19.0423   14.8208 C   0  0  0  0  0  0  0  0  0  0  0  0
    5.6570  -18.9351   13.8802 N   0  0  0  0  0  0  0  0  0  0  0  0
    7.4087  -17.9590   20.9865 C   0  0  0  0  0  0  0  0  0  0  0  0
    6.7916  -16.8862   21.1421 O   0  0  0  0  0  0  0  0  0  0  0  0
    6.4340  -22.3682   25.1013 N   0  0  0  0  0  0  0  0  0  0  0  0
    6.1547  -21.2669   25.9553 C   0  0  0  0  0  0  0  0  0  0  0  0
    5.7808  -21.4796   27.1407 O   0  0  0  0  0  0  0  0  0  0  0  0
    6.3056  -19.8566   25.4440 C   0  0  0  0  0  0  0  0  0  0  0  0
    6.7559  -19.8930   24.0139 C   0  0  0  0  0  0  0  0  0  0  0  0
    7.0033  -18.5368   23.4052 C   0  0  2  0  0  0  0  0  0  0  0  0
    7.5906  -18.8134   22.0839 N   0  0  0  0  0  0  0  0  0  0  0  0
    7.9475  -17.6984   24.1393 C   0  0  0  0  0  0  0  0  0  0  0  0
    9.1833  -17.8705   23.9949 O   0  0  0  0  0  0  0  0  0  0  0  0
    7.5379  -16.6804   25.0241 N   0  0  0  0  0  0  0  0  0  0  0  0
    8.5086  -15.8682   25.7596 C   0  0  1  0  0  0  0  0  0  0  0  0
    7.8398  -14.5651   26.1146 C   0  0  0  0  0  0  0  0  0  0  0  0
    8.9752  -13.4743   26.9908 S   0  0  0  0  0  0  0  0  0  0  0  0
    8.9199  -16.6140   26.9768 C   0  0  0  0  0  0  0  0  0  0  0  0
   10.1867  -16.4794   27.5201 O   0  0  0  0  0  0  0  0  0  0  0  0
    8.1292  -17.3914   27.5516 O   0  0  0  0  0  0  0  0  0  0  0  0
  2  1  1  1
  3  2  1  0
  4  3  1  0
  5  4  1  0
  6  7  1  0
  6  5  1  0
  8  9  2  0
  8  2  1  0
 10 11  1  0
 11 12  2  0
 13 11  1  0
 13 14  1  0
 15 14  1  1
 15 16  1  0
 16  8  1  0
 17 15  1  0
 18 17  2  0
 19 17  1  0
 20 19  1  0
 21 22  1  0
 20 21  1  1
 23 20  1  0
 23 24  1  0
 25 23  2  0
M  END
$$$$
