YAC.pdb
     RDKit          3D

 24 24  0  0  1  0  0  0  0  0999 V2000
    7.1139  -12.1119   26.9377 O   0  0  0  0  0  0  0  0  0  0  0  0
    7.0447  -13.0779   25.9361 C   0  0  0  0  0  0  0  0  0  0  0  0
    6.8200  -14.4154   26.2177 C   0  0  0  0  0  0  0  0  0  0  0  0
    6.7630  -15.3196   25.1789 C   0  0  0  0  0  0  0  0  0  0  0  0
    6.9184  -14.9670   23.8589 C   0  0  0  0  0  0  0  0  0  0  0  0
    6.8526  -15.9649   22.7481 C   0  0  0  0  0  0  0  0  0  0  0  0
    8.2331  -16.0878   22.1607 C   0  0  2  0  0  0  0  0  0  0  0  0
    8.2123  -16.8569   20.9313 N   0  0  0  0  0  0  0  0  0  0  0  0
    9.2216  -16.6389   23.0894 C   0  0  0  0  0  0  0  0  0  0  0  0
    9.0965  -17.8293   23.5057 O   0  0  0  0  0  0  0  0  0  0  0  0
    7.1416  -13.6352   23.5861 C   0  0  0  0  0  0  0  0  0  0  0  0
    7.2018  -12.7156   24.6130 C   0  0  0  0  0  0  0  0  0  0  0  0
   12.7988  -16.1753   23.5339 C   0  0  0  0  0  0  0  0  0  0  0  0
   11.4878  -16.5323   24.1937 C   0  0  2  0  0  0  0  0  0  0  0  0
   10.3569  -15.9138   23.5808 N   0  0  0  0  0  0  0  0  0  0  0  0
   11.5414  -16.2800   25.6702 C   0  0  0  0  0  0  0  0  0  0  0  0
   12.4364  -16.8052   26.3821 O   0  0  0  0  0  0  0  0  0  0  0  0
   10.5963  -15.4476   26.3221 N   0  0  0  0  0  0  0  0  0  0  0  0
   10.5608  -15.2379   27.7455 C   0  0  1  0  0  0  0  0  0  0  0  0
    9.4553  -14.2942   28.1622 C   0  0  0  0  0  0  0  0  0  0  0  0
    9.3090  -13.0451   26.8389 S   0  0  0  0  0  0  0  0  0  0  0  0
   10.3679  -16.5331   28.4411 C   0  0  0  0  0  0  0  0  0  0  0  0
    9.9882  -17.6816   27.7618 O   0  0  0  0  0  0  0  0  0  0  0  0
   10.5531  -16.5942   29.6812 O   0  0  0  0  0  0  0  0  0  0  0  0
  1  2  1  0
  2 12  2  0
  3  4  2  0
  3  2  1  0
  4  5  1  0
  5  6  1  0
  5 11  2  0
  6  7  1  0
  7  9  1  0
  7  8  1  6
  9 10  2  0
  9 15  1  0
 12 11  1  0
 14 16  1  0
 14 13  1  6
 15 14  1  0
 16 17  2  0
 18 16  1  0
 18 19  1  0
 19 20  1  6
 20 21  1  0
 22 23  1  0
 22 19  1  0
 24 22  2  0
M  END
$$$$
