YAC.pdb
     RDKit          3D

 24 24  0  0  1  0  0  0  0  0999 V2000
    8.0657  -13.3604   15.9547 O   0  0  0  0  0  0  0  0  0  0  0  0
    8.0728  -13.6884   17.3087 C   0  0  0  0  0  0  0  0  0  0  0  0
    8.8138  -14.7480   17.8055 C   0  0  0  0  0  0  0  0  0  0  0  0
    8.7760  -15.0183   19.1566 C   0  0  0  0  0  0  0  0  0  0  0  0
    8.0346  -14.2869   20.0545 C   0  0  0  0  0  0  0  0  0  0  0  0
    8.0087  -14.5981   21.5162 C   0  0  0  0  0  0  0  0  0  0  0  0
    7.7211  -16.0680   21.6664 C   0  0  2  0  0  0  0  0  0  0  0  0
    6.3116  -16.3483   21.4709 N   0  0  0  0  0  0  0  0  0  0  0  0
    8.1808  -16.6314   22.9371 C   0  0  0  0  0  0  0  0  0  0  0  0
    7.4253  -16.5862   23.9536 O   0  0  0  0  0  0  0  0  0  0  0  0
    7.3001  -13.2346   19.5536 C   0  0  0  0  0  0  0  0  0  0  0  0
    7.3256  -12.9490   18.2039 C   0  0  0  0  0  0  0  0  0  0  0  0
   11.1241  -18.6158   24.3108 C   0  0  0  0  0  0  0  0  0  0  0  0
    9.9644  -17.6524   24.4010 C   0  0  2  0  0  0  0  0  0  0  0  0
    9.4601  -17.2503   23.1277 N   0  0  0  0  0  0  0  0  0  0  0  0
   10.3035  -16.4809   25.2723 C   0  0  0  0  0  0  0  0  0  0  0  0
   10.8164  -15.4408   24.7836 O   0  0  0  0  0  0  0  0  0  0  0  0
   10.0640  -16.4935   26.6699 N   0  0  0  0  0  0  0  0  0  0  0  0
   10.4880  -15.4491   27.5649 C   0  0  1  0  0  0  0  0  0  0  0  0
    9.5109  -14.2960   27.6101 C   0  0  0  0  0  0  0  0  0  0  0  0
   10.2150  -13.0597   28.7540 S   0  0  0  0  0  0  0  0  0  0  0  0
   10.6458  -15.9929   28.9353 C   0  0  0  0  0  0  0  0  0  0  0  0
   11.4644  -15.3855   29.8763 O   0  0  0  0  0  0  0  0  0  0  0  0
   10.0209  -17.0336   29.2553 O   0  0  0  0  0  0  0  0  0  0  0  0
  1  2  1  0
  2 12  2  0
  3  4  2  0
  3  2  1  0
  4  5  1  0
  5  6  1  0
  5 11  2  0
  6  7  1  0
  7  9  1  0
  7  8  1  1
  9 10  2  0
  9 15  1  0
 12 11  1  0
 14 16  1  0
 14 13  1  6
 15 14  1  0
 16 17  2  0
 18 16  1  0
 18 19  1  0
 19 20  1  1
 20 21  1  0
 22 23  1  0
 22 19  1  0
 24 22  2  0
M  END
$$$$
