YAC.pdb
     RDKit          3D

 24 24  0  0  1  0  0  0  0  0999 V2000
   10.3381  -14.2692   30.4722 O   0  0  0  0  0  0  0  0  0  0  0  0
   10.1319  -14.8491   29.2223 C   0  0  0  0  0  0  0  0  0  0  0  0
   10.9254  -15.8816   28.7501 C   0  0  0  0  0  0  0  0  0  0  0  0
   10.6669  -16.4105   27.5037 C   0  0  0  0  0  0  0  0  0  0  0  0
    9.6521  -15.9669   26.6887 C   0  0  0  0  0  0  0  0  0  0  0  0
    9.3897  -16.5557   25.3402 C   0  0  0  0  0  0  0  0  0  0  0  0
    8.4243  -17.6967   25.5187 C   0  0  2  0  0  0  0  0  0  0  0  0
    9.0315  -18.7851   26.2604 N   0  0  0  0  0  0  0  0  0  0  0  0
    7.8572  -18.1907   24.2625 C   0  0  0  0  0  0  0  0  0  0  0  0
    8.5501  -18.9426   23.5140 O   0  0  0  0  0  0  0  0  0  0  0  0
    8.8669  -14.9399   27.1647 C   0  0  0  0  0  0  0  0  0  0  0  0
    9.1107  -14.3979   28.4099 C   0  0  0  0  0  0  0  0  0  0  0  0
    4.6127  -17.9648   22.2734 C   0  0  0  0  0  0  0  0  0  0  0  0
    6.1105  -18.0535   22.4469 C   0  0  2  0  0  0  0  0  0  0  0  0
    6.5367  -17.8802   23.7980 N   0  0  0  0  0  0  0  0  0  0  0  0
    6.8178  -17.1259   21.5056 C   0  0  0  0  0  0  0  0  0  0  0  0
    6.6343  -17.2047   20.2631 O   0  0  0  0  0  0  0  0  0  0  0  0
    7.7148  -16.1302   21.9691 N   0  0  0  0  0  0  0  0  0  0  0  0
    8.3665  -15.1765   21.1103 C   0  0  1  0  0  0  0  0  0  0  0  0
    8.6412  -13.8642   21.8093 C   0  0  0  0  0  0  0  0  0  0  0  0
    7.0907  -13.3828   22.6440 S   0  0  0  0  0  0  0  0  0  0  0  0
    9.6510  -15.7335   20.6221 C   0  0  0  0  0  0  0  0  0  0  0  0
   10.4498  -15.0509   19.7162 O   0  0  0  0  0  0  0  0  0  0  0  0
   10.0286  -16.8555   21.0397 O   0  0  0  0  0  0  0  0  0  0  0  0
  1  2  1  0
  2 12  2  0
  3  4  2  0
  3  2  1  0
  4  5  1  0
  5  6  1  0
  5 11  2  0
  6  7  1  0
  7  9  1  0
  7  8  1  6
  9 10  2  0
  9 15  1  0
 12 11  1  0
 14 16  1  0
 14 13  1  1
 15 14  1  0
 16 17  2  0
 18 16  1  0
 18 19  1  0
 19 20  1  1
 20 21  1  0
 22 23  1  0
 22 19  1  0
 24 22  2  0
M  END
$$$$
