YAC.pdb
     RDKit          3D

 24 24  0  0  1  0  0  0  0  0999 V2000
    8.5210  -13.2797   16.0339 O   0  0  0  0  0  0  0  0  0  0  0  0
    8.0436  -13.5204   17.3205 C   0  0  0  0  0  0  0  0  0  0  0  0
    7.2562  -14.6200   17.6196 C   0  0  0  0  0  0  0  0  0  0  0  0
    6.8170  -14.7989   18.9139 C   0  0  0  0  0  0  0  0  0  0  0  0
    7.1190  -13.9368   19.9417 C   0  0  0  0  0  0  0  0  0  0  0  0
    6.6317  -14.1506   21.3385 C   0  0  0  0  0  0  0  0  0  0  0  0
    7.7477  -14.7912   22.1196 C   0  0  2  0  0  0  0  0  0  0  0  0
    8.2621  -15.9612   21.4341 N   0  0  0  0  0  0  0  0  0  0  0  0
    7.3849  -15.1270   23.4977 C   0  0  0  0  0  0  0  0  0  0  0  0
    6.8972  -14.2344   24.2536 O   0  0  0  0  0  0  0  0  0  0  0  0
    7.9024  -12.8453   19.6371 C   0  0  0  0  0  0  0  0  0  0  0  0
    8.3513  -12.6499   18.3471 C   0  0  0  0  0  0  0  0  0  0  0  0
    7.0411  -18.2264   25.6744 C   0  0  0  0  0  0  0  0  0  0  0  0
    7.1920  -16.7445   25.4246 C   0  0  2  0  0  0  0  0  0  0  0  0
    7.5434  -16.4286   24.0778 N   0  0  0  0  0  0  0  0  0  0  0  0
    8.1294  -16.1237   26.4159 C   0  0  0  0  0  0  0  0  0  0  0  0
    7.6926  -15.5794   27.4632 O   0  0  0  0  0  0  0  0  0  0  0  0
    9.5337  -16.1226   26.2189 N   0  0  0  0  0  0  0  0  0  0  0  0
   10.4667  -15.4803   27.1069 C   0  0  1  0  0  0  0  0  0  0  0  0
    9.8100  -14.9904   28.3777 C   0  0  0  0  0  0  0  0  0  0  0  0
    9.0996  -13.3518   27.9999 S   0  0  0  0  0  0  0  0  0  0  0  0
   11.5523  -16.4244   27.4659 C   0  0  0  0  0  0  0  0  0  0  0  0
   12.6429  -16.0330   28.2287 O   0  0  0  0  0  0  0  0  0  0  0  0
   11.4842  -17.6134   27.0688 O   0  0  0  0  0  0  0  0  0  0  0  0
  1  2  1  0
  2 12  2  0
  3  4  2  0
  3  2  1  0
  4  5  1  0
  5  6  1  0
  5 11  2  0
  6  7  1  0
  7  9  1  0
  7  8  1  6
  9 10  2  0
  9 15  1  0
 12 11  1  0
 14 16  1  0
 14 13  1  6
 15 14  1  0
 16 17  2  0
 18 16  1  0
 18 19  1  0
 19 20  1  1
 20 21  1  0
 22 23  1  0
 22 19  1  0
 24 22  2  0
M  END
$$$$
