YAC.pdb
     RDKit          3D

 24 24  0  0  1  0  0  0  0  0999 V2000
   10.2918  -14.3646   30.7997 O   0  0  0  0  0  0  0  0  0  0  0  0
   10.0247  -14.5577   29.4460 C   0  0  0  0  0  0  0  0  0  0  0  0
    9.4960  -13.5551   28.6499 C   0  0  0  0  0  0  0  0  0  0  0  0
    9.2556  -13.8129   27.3173 C   0  0  0  0  0  0  0  0  0  0  0  0
    9.5136  -15.0254   26.7223 C   0  0  0  0  0  0  0  0  0  0  0  0
    9.2450  -15.2827   25.2746 C   0  0  0  0  0  0  0  0  0  0  0  0
    7.7616  -15.4799   25.1121 C   0  0  2  0  0  0  0  0  0  0  0  0
    7.2990  -16.6237   25.8744 N   0  0  0  0  0  0  0  0  0  0  0  0
    7.3313  -15.5900   23.7170 C   0  0  0  0  0  0  0  0  0  0  0  0
    6.7294  -16.6345   23.3264 O   0  0  0  0  0  0  0  0  0  0  0  0
   10.0394  -16.0179   27.5200 C   0  0  0  0  0  0  0  0  0  0  0  0
   10.2866  -15.7782   28.8561 C   0  0  0  0  0  0  0  0  0  0  0  0
    7.0694  -13.4476   20.5965 C   0  0  0  0  0  0  0  0  0  0  0  0
    7.2562  -14.7496   21.3391 C   0  0  2  0  0  0  0  0  0  0  0  0
    7.5443  -14.5757   22.7262 N   0  0  0  0  0  0  0  0  0  0  0  0
    8.2664  -15.6201   20.6548 C   0  0  0  0  0  0  0  0  0  0  0  0
    8.1751  -15.8693   19.4246 O   0  0  0  0  0  0  0  0  0  0  0  0
    9.3570  -16.1944   21.3559 N   0  0  0  0  0  0  0  0  0  0  0  0
   10.3396  -17.0512   20.7461 C   0  0  1  0  0  0  0  0  0  0  0  0
   11.7351  -16.7906   21.2667 C   0  0  0  0  0  0  0  0  0  0  0  0
   12.0990  -15.0341   20.9277 S   0  0  0  0  0  0  0  0  0  0  0  0
    9.9956  -18.4714   20.9978 C   0  0  0  0  0  0  0  0  0  0  0  0
   10.8067  -19.5108   20.5659 O   0  0  0  0  0  0  0  0  0  0  0  0
    8.9397  -18.7433   21.6200 O   0  0  0  0  0  0  0  0  0  0  0  0
  1  2  1  0
  2 12  2  0
  3  4  2  0
  3  2  1  0
  4  5  1  0
  5  6  1  0
  5 11  2  0
  6  7  1  0
  7  9  1  0
  7  8  1  1
  9 10  2  0
  9 15  1  0
 12 11  1  0
 14 16  1  0
 14 13  1  6
 15 14  1  0
 16 17  2  0
 18 16  1  0
 18 19  1  0
 19 20  1  1
 20 21  1  0
 22 23  1  0
 22 19  1  0
 24 22  2  0
M  END
$$$$
