YAC.pdb
     RDKit          3D

 24 24  0  0  1  0  0  0  0  0999 V2000
   18.8165  -18.0267   13.2988 O   0  0  0  0  0  0  0  0  0  0  0  0
   17.7994  -17.4476   14.0547 C   0  0  0  0  0  0  0  0  0  0  0  0
   17.3717  -16.1478   13.8400 C   0  0  0  0  0  0  0  0  0  0  0  0
   16.3601  -15.6360   14.6240 C   0  0  0  0  0  0  0  0  0  0  0  0
   15.7408  -16.3506   15.6223 C   0  0  0  0  0  0  0  0  0  0  0  0
   14.6452  -15.7752   16.4606 C   0  0  0  0  0  0  0  0  0  0  0  0
   13.3352  -16.2475   15.8890 C   0  0  2  0  0  0  0  0  0  0  0  0
   13.1197  -15.7094   14.5596 N   0  0  0  0  0  0  0  0  0  0  0  0
   12.1823  -15.9644   16.7459 C   0  0  0  0  0  0  0  0  0  0  0  0
   11.5971  -14.8436   16.6606 O   0  0  0  0  0  0  0  0  0  0  0  0
   16.1711  -17.6427   15.8303 C   0  0  0  0  0  0  0  0  0  0  0  0
   17.1826  -18.1720   15.0552 C   0  0  0  0  0  0  0  0  0  0  0  0
    9.4313  -17.6332   18.4591 C   0  0  0  0  0  0  0  0  0  0  0  0
   10.5269  -16.5967   18.5421 C   0  0  2  0  0  0  0  0  0  0  0  0
   11.6463  -16.8857   17.7049 N   0  0  0  0  0  0  0  0  0  0  0  0
   10.9307  -16.3522   19.9646 C   0  0  0  0  0  0  0  0  0  0  0  0
   10.0699  -16.0823   20.8420 O   0  0  0  0  0  0  0  0  0  0  0  0
   12.2854  -16.4136   20.3792 N   0  0  0  0  0  0  0  0  0  0  0  0
   12.7193  -16.1952   21.7341 C   0  0  1  0  0  0  0  0  0  0  0  0
   11.9571  -17.0427   22.7276 C   0  0  0  0  0  0  0  0  0  0  0  0
   12.6671  -16.6856   24.3711 S   0  0  0  0  0  0  0  0  0  0  0  0
   14.1646  -16.5032   21.8562 C   0  0  0  0  0  0  0  0  0  0  0  0
   14.8980  -16.1497   22.9796 O   0  0  0  0  0  0  0  0  0  0  0  0
   14.7434  -17.1014   20.9165 O   0  0  0  0  0  0  0  0  0  0  0  0
  1  2  1  0
  2 12  2  0
  3  4  2  0
  3  2  1  0
  4  5  1  0
  5  6  1  0
  5 11  2  0
  6  7  1  0
  7  9  1  0
  7  8  1  6
  9 10  2  0
  9 15  1  0
 12 11  1  0
 14 16  1  0
 14 13  1  1
 15 14  1  0
 16 17  2  0
 18 16  1  0
 18 19  1  0
 19 20  1  1
 20 21  1  0
 22 23  1  0
 22 19  1  0
 24 22  2  0
M  END
$$$$
