RER.pdb
     RDKit          3D

 32 31  0  0  1  0  0  0  0  0999 V2000
    7.3472  -12.9234   16.3949 N   0  0  0  0  0  0  0  0  0  0  0  0
    8.5337  -13.3544   17.0685 C   0  0  0  0  0  0  0  0  0  0  0  0
    9.4712  -13.9589   16.4476 N   0  0  0  0  0  0  0  0  0  0  0  0
    8.6718  -13.0970   18.4429 N   0  0  0  0  0  0  0  0  0  0  0  0
    7.5704  -12.8227   19.3135 C   0  0  0  0  0  0  0  0  0  0  0  0
    6.6754  -14.0031   19.4482 C   0  0  0  0  0  0  0  0  0  0  0  0
    7.1985  -15.1674   20.2118 C   0  0  0  0  0  0  0  0  0  0  0  0
    8.6348  -15.4291   19.7273 C   0  0  2  0  0  0  0  0  0  0  0  0
    8.6812  -15.7563   18.3229 N   0  0  0  0  0  0  0  0  0  0  0  0
    9.3388  -16.4110   20.5851 C   0  0  0  0  0  0  0  0  0  0  0  0
    9.1557  -16.3413   21.8282 O   0  0  0  0  0  0  0  0  0  0  0  0
   10.2763  -14.3508   16.9407 N   0  0  0  0  0  0  0  0  0  0  0  0
   10.1992  -17.4092   20.0560 C   0  0  2  0  0  0  0  0  0  0  0  0
   10.8959  -18.3508   20.8742 C   0  0  0  0  0  0  0  0  0  0  0  0
   12.0620  -19.0341   20.2580 C   0  0  0  0  0  0  0  0  0  0  0  0
   12.7587  -20.0094   21.1692 C   0  0  0  0  0  0  0  0  0  0  0  0
   13.9094  -20.5968   20.4443 O   0  0  0  0  0  0  0  0  0  0  0  0
   14.1037  -20.2492   19.2539 C   0  0  0  0  0  0  0  0  0  0  0  0
   11.4399  -17.5881   22.0607 O   0  0  0  0  0  0  0  0  0  0  0  0
   11.9228  -16.4355   21.9361 O   0  0  0  0  0  0  0  0  0  0  0  0
   14.7450  -21.5006   21.0491 N   0  0  0  0  0  0  0  0  0  0  0  0
   10.5077  -16.1302   29.6725 C   0  0  0  0  0  0  0  0  0  0  0  0
   10.1377  -14.8000   29.2805 N   0  0  0  0  0  0  0  0  0  0  0  0
   10.1589  -13.8181   30.0997 N   0  0  0  0  0  0  0  0  0  0  0  0
    9.7385  -14.5621   27.9440 C   0  0  0  0  0  0  0  0  0  0  0  0
    9.4169  -15.6550   27.0408 C   0  0  0  0  0  0  0  0  0  0  0  0
   10.7477  -16.1434   26.4951 C   0  0  0  0  0  0  0  0  0  0  0  0
   10.5617  -16.8253   25.1770 C   0  0  1  0  0  0  0  0  0  0  0  0
   11.8280  -17.3419   24.5495 N   0  0  0  0  0  0  0  0  0  0  0  0
   11.4355  -18.1294   23.3649 C   0  0  0  0  0  0  0  0  0  0  0  0
   12.5688  -18.1925   25.5059 O   0  0  0  0  0  0  0  0  0  0  0  0
   12.5890  -19.5716   25.4005 O   0  0  0  0  0  0  0  0  0  0  0  0
  1  2  1  0
  2  3  2  0
  4  2  1  0
  4  5  1  0
  6  5  1  0
  7  8  1  0
  7  6  1  0
  8  9  1  6
 10  8  1  0
 11 10  2  0
 12 10  1  0
 13 18  1  0
 13 12  1  0
 13 14  1  6
 15 16  1  0
 15 14  1  0
 16 20  1  0
 17 16  2  0
 18 19  2  0
 21 22  1  0
 22 24  1  0
 22 23  2  0
 24 25  1  0
 26 25  1  0
 27 26  1  0
 28 27  1  6
 29 18  1  0
 29 28  1  0
 30 28  1  0
 30 31  1  0
 32 30  2  0
M  END
$$$$
