RER.pdb
     RDKit          3D

 32 31  0  0  1  0  0  0  0  0999 V2000
    6.3776  -13.4510   18.1255 N   0  0  0  0  0  0  0  0  0  0  0  0
    7.5931  -12.7472   18.3984 C   0  0  0  0  0  0  0  0  0  0  0  0
    7.6244  -11.7567   19.2032 N   0  0  0  0  0  0  0  0  0  0  0  0
    8.7799  -13.1638   17.7720 N   0  0  0  0  0  0  0  0  0  0  0  0
    8.8742  -14.3256   16.9430 C   0  0  0  0  0  0  0  0  0  0  0  0
    8.0448  -15.4412   17.4722 C   0  0  0  0  0  0  0  0  0  0  0  0
    8.2428  -15.8167   18.8977 C   0  0  0  0  0  0  0  0  0  0  0  0
    9.3851  -16.8457   18.9493 C   0  0  2  0  0  0  0  0  0  0  0  0
    9.3848  -17.7131   17.7963 N   0  0  0  0  0  0  0  0  0  0  0  0
    9.4142  -17.5773   20.2375 C   0  0  0  0  0  0  0  0  0  0  0  0
    9.3456  -16.9020   21.2971 O   0  0  0  0  0  0  0  0  0  0  0  0
    8.4905  -11.2495   19.3971 N   0  0  0  0  0  0  0  0  0  0  0  0
    9.5167  -18.9918   20.3106 C   0  0  1  0  0  0  0  0  0  0  0  0
    9.5629  -19.7067   21.5468 C   0  0  0  0  0  0  0  0  0  0  0  0
    9.5784  -21.1895   21.4586 C   0  0  0  0  0  0  0  0  0  0  0  0
    8.4959  -21.7674   20.5861 C   0  0  0  0  0  0  0  0  0  0  0  0
    8.6638  -23.2384   20.5340 O   0  0  0  0  0  0  0  0  0  0  0  0
    9.2633  -23.8034   21.4811 C   0  0  0  0  0  0  0  0  0  0  0  0
   10.8515  -19.3175   22.2348 O   0  0  0  0  0  0  0  0  0  0  0  0
   11.8213  -18.8420   21.5940 O   0  0  0  0  0  0  0  0  0  0  0  0
    8.1826  -23.9725   19.4802 N   0  0  0  0  0  0  0  0  0  0  0  0
   10.2289  -15.1872   28.7415 C   0  0  0  0  0  0  0  0  0  0  0  0
    9.7922  -14.1236   27.8824 N   0  0  0  0  0  0  0  0  0  0  0  0
    9.2668  -13.0511   28.3400 N   0  0  0  0  0  0  0  0  0  0  0  0
    9.9491  -14.2606   26.4829 C   0  0  0  0  0  0  0  0  0  0  0  0
    9.5254  -15.4634   25.7846 C   0  0  0  0  0  0  0  0  0  0  0  0
   10.7719  -16.0077   25.1084 C   0  0  0  0  0  0  0  0  0  0  0  0
   10.4585  -17.2543   24.3439 C   0  0  2  0  0  0  0  0  0  0  0  0
   11.4708  -18.3576   24.4933 N   0  0  0  0  0  0  0  0  0  0  0  0
   11.0326  -19.4689   23.6271 C   0  0  0  0  0  0  0  0  0  0  0  0
   11.5434  -18.8050   25.9009 O   0  0  0  0  0  0  0  0  0  0  0  0
   12.5166  -18.3445   26.7694 O   0  0  0  0  0  0  0  0  0  0  0  0
  1  2  1  0
  2  3  2  0
  4  2  1  0
  4  5  1  0
  6  5  1  0
  7  8  1  0
  7  6  1  0
  8  9  1  6
 10  8  1  0
 11 10  2  0
 12 10  1  0
 13 18  1  0
 13 12  1  0
 13 14  1  1
 15 16  1  0
 15 14  1  0
 16 20  1  0
 17 16  2  0
 18 19  2  0
 21 22  1  0
 22 24  1  0
 22 23  2  0
 24 25  1  0
 26 25  1  0
 27 26  1  0
 28 27  1  6
 29 18  1  0
 29 28  1  0
 30 28  1  0
 30 31  1  0
 32 30  2  0
M  END
$$$$
