RER.pdb
     RDKit          3D

 32 31  0  0  1  0  0  0  0  0999 V2000
    7.8790  -11.6660   19.4721 N   0  0  0  0  0  0  0  0  0  0  0  0
    8.2162  -13.0485   19.3234 C   0  0  0  0  0  0  0  0  0  0  0  0
    9.3309  -13.5118   19.7389 N   0  0  0  0  0  0  0  0  0  0  0  0
    7.2936  -13.9159   18.7145 N   0  0  0  0  0  0  0  0  0  0  0  0
    7.2857  -15.3325   18.9129 C   0  0  0  0  0  0  0  0  0  0  0  0
    7.3318  -15.6803   20.3584 C   0  0  0  0  0  0  0  0  0  0  0  0
    6.4029  -16.7416   20.8307 C   0  0  0  0  0  0  0  0  0  0  0  0
    7.0801  -18.0977   20.5681 C   0  0  2  0  0  0  0  0  0  0  0  0
    6.1208  -19.1699   20.4601 N   0  0  0  0  0  0  0  0  0  0  0  0
    8.1649  -18.3726   21.5392 C   0  0  0  0  0  0  0  0  0  0  0  0
    7.8376  -18.6311   22.7265 O   0  0  0  0  0  0  0  0  0  0  0  0
    9.5619  -14.5047   19.6620 N   0  0  0  0  0  0  0  0  0  0  0  0
    9.5379  -18.3523   21.1769 C   0  0  2  0  0  0  0  0  0  0  0  0
   10.5963  -18.4991   22.1254 C   0  0  0  0  0  0  0  0  0  0  0  0
   11.9548  -18.7408   21.5755 C   0  0  0  0  0  0  0  0  0  0  0  0
   12.1735  -20.1393   21.0626 C   0  0  0  0  0  0  0  0  0  0  0  0
   12.6695  -20.0611   19.6688 O   0  0  0  0  0  0  0  0  0  0  0  0
   12.5943  -21.0884   18.9514 C   0  0  0  0  0  0  0  0  0  0  0  0
   10.6838  -17.2007   22.8947 O   0  0  0  0  0  0  0  0  0  0  0  0
   10.3682  -16.1037   22.3711 O   0  0  0  0  0  0  0  0  0  0  0  0
   13.2019  -18.9011   19.1671 N   0  0  0  0  0  0  0  0  0  0  0  0
    7.6030  -11.7506   25.7186 C   0  0  0  0  0  0  0  0  0  0  0  0
    6.6513  -12.4859   26.5019 N   0  0  0  0  0  0  0  0  0  0  0  0
    5.4421  -12.0953   26.6468 N   0  0  0  0  0  0  0  0  0  0  0  0
    7.0592  -13.6845   27.1337 C   0  0  0  0  0  0  0  0  0  0  0  0
    7.4070  -14.8686   26.3652 C   0  0  0  0  0  0  0  0  0  0  0  0
    8.8443  -14.6624   25.9190 C   0  0  0  0  0  0  0  0  0  0  0  0
    9.3324  -15.8433   25.1418 C   0  0  2  0  0  0  0  0  0  0  0  0
   10.8273  -16.0140   25.1256 N   0  0  0  0  0  0  0  0  0  0  0  0
   11.1246  -17.1527   24.2355 C   0  0  0  0  0  0  0  0  0  0  0  0
   11.3310  -16.2863   26.4891 O   0  0  0  0  0  0  0  0  0  0  0  0
   11.8997  -15.2990   27.2735 O   0  0  0  0  0  0  0  0  0  0  0  0
  1  2  1  0
  2  3  2  0
  4  2  1  0
  4  5  1  0
  6  5  1  0
  7  8  1  0
  7  6  1  0
  8  9  1  1
 10  8  1  0
 11 10  2  0
 12 10  1  0
 13 18  1  0
 13 12  1  0
 13 14  1  6
 15 16  1  0
 15 14  1  0
 16 20  1  0
 17 16  2  0
 18 19  2  0
 21 22  1  0
 22 24  1  0
 22 23  2  0
 24 25  1  0
 26 25  1  0
 27 26  1  0
 28 27  1  6
 29 18  1  0
 29 28  1  0
 30 28  1  0
 30 31  1  0
 32 30  2  0
M  END
$$$$
