RER.pdb
     RDKit          3D

 32 31  0  0  1  0  0  0  0  0999 V2000
    8.9932  -14.6541   13.6574 N   0  0  0  0  0  0  0  0  0  0  0  0
    7.6177  -14.7418   14.0415 C   0  0  0  0  0  0  0  0  0  0  0  0
    6.7242  -15.1612   13.2318 N   0  0  0  0  0  0  0  0  0  0  0  0
    7.2459  -14.3662   15.3434 N   0  0  0  0  0  0  0  0  0  0  0  0
    8.1486  -13.7890   16.2912 C   0  0  0  0  0  0  0  0  0  0  0  0
    7.4946  -13.5840   17.6114 C   0  0  0  0  0  0  0  0  0  0  0  0
    8.3379  -13.0394   18.7090 C   0  0  0  0  0  0  0  0  0  0  0  0
    9.5882  -13.9294   18.8149 C   0  0  2  0  0  0  0  0  0  0  0  0
    9.8320  -14.6673   17.5993 N   0  0  0  0  0  0  0  0  0  0  0  0
    9.5607  -14.7817   20.0266 C   0  0  0  0  0  0  0  0  0  0  0  0
    9.3326  -14.2235   21.1312 O   0  0  0  0  0  0  0  0  0  0  0  0
    5.7579  -15.3119   13.5295 N   0  0  0  0  0  0  0  0  0  0  0  0
    9.7813  -16.1838   19.9797 C   0  0  1  0  0  0  0  0  0  0  0  0
    9.8603  -16.9997   21.1499 C   0  0  0  0  0  0  0  0  0  0  0  0
    9.2309  -18.3427   21.0692 C   0  0  0  0  0  0  0  0  0  0  0  0
    7.7706  -18.3193   20.7035 C   0  0  0  0  0  0  0  0  0  0  0  0
    7.2984  -19.7148   20.5474 O   0  0  0  0  0  0  0  0  0  0  0  0
    8.1557  -20.6235   20.4255 C   0  0  0  0  0  0  0  0  0  0  0  0
   11.3275  -17.2434   21.4208 O   0  0  0  0  0  0  0  0  0  0  0  0
   12.0350  -17.9282   20.6414 O   0  0  0  0  0  0  0  0  0  0  0  0
    5.9604  -20.0157   20.5324 N   0  0  0  0  0  0  0  0  0  0  0  0
   17.4679  -12.9658   19.4545 C   0  0  0  0  0  0  0  0  0  0  0  0
   16.3394  -13.4300   18.6989 N   0  0  0  0  0  0  0  0  0  0  0  0
   16.2473  -13.2543   17.4354 N   0  0  0  0  0  0  0  0  0  0  0  0
   15.2935  -14.1073   19.3693 C   0  0  0  0  0  0  0  0  0  0  0  0
   15.3768  -14.4210   20.7866 C   0  0  0  0  0  0  0  0  0  0  0  0
   14.1418  -15.2485   21.0985 C   0  0  0  0  0  0  0  0  0  0  0  0
   14.1208  -15.6465   22.5400 C   0  0  2  0  0  0  0  0  0  0  0  0
   13.4101  -16.9414   22.8268 N   0  0  0  0  0  0  0  0  0  0  0  0
   11.9762  -16.7180   22.5597 C   0  0  0  0  0  0  0  0  0  0  0  0
   13.6112  -17.3398   24.2367 O   0  0  0  0  0  0  0  0  0  0  0  0
   14.7957  -17.8994   24.6808 O   0  0  0  0  0  0  0  0  0  0  0  0
  1  2  1  0
  2  3  2  0
  4  2  1  0
  4  5  1  0
  6  5  1  0
  7  8  1  0
  7  6  1  0
  8  9  1  6
 10  8  1  0
 11 10  2  0
 12 10  1  0
 13 18  1  0
 13 12  1  0
 13 14  1  1
 15 16  1  0
 15 14  1  0
 16 20  1  0
 17 16  2  0
 18 19  2  0
 21 22  1  0
 22 24  1  0
 22 23  2  0
 24 25  1  0
 26 25  1  0
 27 26  1  0
 28 27  1  6
 29 18  1  0
 29 28  1  0
 30 28  1  0
 30 31  1  0
 32 30  2  0
M  END
$$$$
