RER.pdb
     RDKit          3D

 32 31  0  0  1  0  0  0  0  0999 V2000
    9.2863  -14.1007   12.8923 N   0  0  0  0  0  0  0  0  0  0  0  0
    8.4630  -14.2858   14.0478 C   0  0  0  0  0  0  0  0  0  0  0  0
    8.3720  -15.4196   14.6276 N   0  0  0  0  0  0  0  0  0  0  0  0
    7.7467  -13.1907   14.5597 N   0  0  0  0  0  0  0  0  0  0  0  0
    6.6776  -13.3123   15.5023 C   0  0  0  0  0  0  0  0  0  0  0  0
    7.1592  -13.1332   16.8983 C   0  0  0  0  0  0  0  0  0  0  0  0
    7.8349  -14.2942   17.5370 C   0  0  0  0  0  0  0  0  0  0  0  0
    8.3011  -13.8459   18.9327 C   0  0  2  0  0  0  0  0  0  0  0  0
    9.1641  -12.6913   18.8702 N   0  0  0  0  0  0  0  0  0  0  0  0
    8.8732  -14.9681   19.7129 C   0  0  0  0  0  0  0  0  0  0  0  0
    8.1478  -15.9782   19.9057 O   0  0  0  0  0  0  0  0  0  0  0  0
    7.7991  -15.5504   15.4640 N   0  0  0  0  0  0  0  0  0  0  0  0
   10.1911  -14.9379   20.2409 C   0  0  1  0  0  0  0  0  0  0  0  0
   10.7743  -16.0368   20.9437 C   0  0  0  0  0  0  0  0  0  0  0  0
   12.2538  -16.0333   21.0755 C   0  0  0  0  0  0  0  0  0  0  0  0
   12.7565  -16.5300   22.4050 C   0  0  0  0  0  0  0  0  0  0  0  0
   14.2370  -16.4756   22.4026 O   0  0  0  0  0  0  0  0  0  0  0  0
   14.8468  -16.8087   23.4480 C   0  0  0  0  0  0  0  0  0  0  0  0
   10.2309  -15.9983   22.3538 O   0  0  0  0  0  0  0  0  0  0  0  0
   10.4776  -15.0404   23.1276 O   0  0  0  0  0  0  0  0  0  0  0  0
   14.9323  -16.0700   21.2922 N   0  0  0  0  0  0  0  0  0  0  0  0
    8.1210  -22.0208   28.1183 C   0  0  0  0  0  0  0  0  0  0  0  0
    7.0719  -21.0640   28.3278 N   0  0  0  0  0  0  0  0  0  0  0  0
    6.1244  -21.2646   29.1631 N   0  0  0  0  0  0  0  0  0  0  0  0
    7.0841  -19.8565   27.5904 C   0  0  0  0  0  0  0  0  0  0  0  0
    7.6653  -19.7843   26.2597 C   0  0  0  0  0  0  0  0  0  0  0  0
    7.4126  -18.3667   25.7762 C   0  0  0  0  0  0  0  0  0  0  0  0
    7.9651  -18.1696   24.4004 C   0  0  1  0  0  0  0  0  0  0  0  0
    8.9584  -17.0465   24.2741 N   0  0  0  0  0  0  0  0  0  0  0  0
    9.4227  -17.0331   22.8736 C   0  0  0  0  0  0  0  0  0  0  0  0
   10.1003  -17.2613   25.1889 O   0  0  0  0  0  0  0  0  0  0  0  0
   10.1618  -16.6721   26.4389 O   0  0  0  0  0  0  0  0  0  0  0  0
  1  2  1  0
  2  3  2  0
  4  2  1  0
  4  5  1  0
  6  5  1  0
  7  8  1  0
  7  6  1  0
  8  9  1  6
 10  8  1  0
 11 10  2  0
 12 10  1  0
 13 18  1  0
 13 12  1  0
 13 14  1  1
 15 16  1  0
 15 14  1  0
 16 20  1  0
 17 16  2  0
 18 19  2  0
 21 22  1  0
 22 24  1  0
 22 23  2  0
 24 25  1  0
 26 25  1  0
 27 26  1  0
 28 27  1  6
 29 18  1  0
 29 28  1  0
 30 28  1  0
 30 31  1  0
 32 30  2  0
M  END
$$$$
