RER.pdb
     RDKit          3D

 32 31  0  0  1  0  0  0  0  0999 V2000
    7.9510  -13.2619   16.3822 N   0  0  0  0  0  0  0  0  0  0  0  0
    8.3192  -13.1062   17.7561 C   0  0  0  0  0  0  0  0  0  0  0  0
    8.0926  -12.0208   18.3887 N   0  0  0  0  0  0  0  0  0  0  0  0
    8.9355  -14.1775   18.4245 N   0  0  0  0  0  0  0  0  0  0  0  0
    8.3004  -14.9418   19.4535 C   0  0  0  0  0  0  0  0  0  0  0  0
    7.8771  -16.2784   18.9566 C   0  0  0  0  0  0  0  0  0  0  0  0
    7.8402  -17.3892   19.9452 C   0  0  0  0  0  0  0  0  0  0  0  0
    9.2482  -17.5132   20.5524 C   0  0  2  0  0  0  0  0  0  0  0  0
   10.0632  -18.4665   19.8392 N   0  0  0  0  0  0  0  0  0  0  0  0
    9.2022  -17.7533   22.0138 C   0  0  0  0  0  0  0  0  0  0  0  0
    8.5245  -16.9601   22.7174 O   0  0  0  0  0  0  0  0  0  0  0  0
    8.3243  -11.9181   19.3791 N   0  0  0  0  0  0  0  0  0  0  0  0
    9.8888  -18.8314   22.6328 C   0  0  2  0  0  0  0  0  0  0  0  0
    9.6997  -19.1916   24.0024 C   0  0  0  0  0  0  0  0  0  0  0  0
   10.2666  -20.4955   24.4326 C   0  0  0  0  0  0  0  0  0  0  0  0
    9.6828  -21.6874   23.7216 C   0  0  0  0  0  0  0  0  0  0  0  0
   10.4002  -22.9042   24.1683 O   0  0  0  0  0  0  0  0  0  0  0  0
   11.6227  -22.8099   24.4369 C   0  0  0  0  0  0  0  0  0  0  0  0
   10.3954  -18.1401   24.8363 O   0  0  0  0  0  0  0  0  0  0  0  0
   11.4992  -17.6509   24.4906 O   0  0  0  0  0  0  0  0  0  0  0  0
    9.7542  -24.1083   24.2853 N   0  0  0  0  0  0  0  0  0  0  0  0
    6.3172  -13.6609   24.9476 C   0  0  0  0  0  0  0  0  0  0  0  0
    6.8698  -12.7073   25.8669 N   0  0  0  0  0  0  0  0  0  0  0  0
    6.2304  -11.6602   26.2279 N   0  0  0  0  0  0  0  0  0  0  0  0
    8.1630  -12.9307   26.3959 C   0  0  0  0  0  0  0  0  0  0  0  0
    8.3578  -13.3611   27.7709 C   0  0  0  0  0  0  0  0  0  0  0  0
    9.5524  -14.2990   27.7434 C   0  0  0  0  0  0  0  0  0  0  0  0
    9.2011  -15.5847   27.0649 C   0  0  2  0  0  0  0  0  0  0  0  0
   10.3757  -16.4648   26.7334 N   0  0  0  0  0  0  0  0  0  0  0  0
    9.8446  -17.6559   26.0431 C   0  0  0  0  0  0  0  0  0  0  0  0
   11.0868  -16.8638   27.9671 O   0  0  0  0  0  0  0  0  0  0  0  0
   10.7764  -18.0252   28.6515 O   0  0  0  0  0  0  0  0  0  0  0  0
  1  2  1  0
  2  3  2  0
  4  2  1  0
  4  5  1  0
  6  5  1  0
  7  8  1  0
  7  6  1  0
  8  9  1  6
 10  8  1  0
 11 10  2  0
 12 10  1  0
 13 18  1  0
 13 12  1  0
 13 14  1  6
 15 16  1  0
 15 14  1  0
 16 20  1  0
 17 16  2  0
 18 19  2  0
 21 22  1  0
 22 24  1  0
 22 23  2  0
 24 25  1  0
 26 25  1  0
 27 26  1  0
 28 27  1  6
 29 18  1  0
 29 28  1  0
 30 28  1  0
 30 31  1  0
 32 30  2  0
M  END
$$$$
