RER.pdb
     RDKit          3D

 32 31  0  0  1  0  0  0  0  0999 V2000
    8.8377  -14.8938   15.0283 N   0  0  0  0  0  0  0  0  0  0  0  0
    7.8428  -13.8654   15.0246 C   0  0  0  0  0  0  0  0  0  0  0  0
    7.2924  -13.4734   13.9415 N   0  0  0  0  0  0  0  0  0  0  0  0
    7.4578  -13.2819   16.2435 N   0  0  0  0  0  0  0  0  0  0  0  0
    8.0862  -13.5715   17.4955 C   0  0  0  0  0  0  0  0  0  0  0  0
    7.8103  -14.9658   17.9339 C   0  0  0  0  0  0  0  0  0  0  0  0
    7.8665  -15.2414   19.3945 C   0  0  0  0  0  0  0  0  0  0  0  0
    9.3321  -15.0894   19.8365 C   0  0  2  0  0  0  0  0  0  0  0  0
   10.2480  -15.2249   18.7299 N   0  0  0  0  0  0  0  0  0  0  0  0
    9.6590  -15.9685   20.9836 C   0  0  0  0  0  0  0  0  0  0  0  0
    8.8105  -16.0666   21.9077 O   0  0  0  0  0  0  0  0  0  0  0  0
    7.5943  -13.8218   13.0291 N   0  0  0  0  0  0  0  0  0  0  0  0
   10.8795  -16.6893   21.0702 C   0  0  1  0  0  0  0  0  0  0  0  0
   11.1645  -17.6155   22.1201 C   0  0  0  0  0  0  0  0  0  0  0  0
   12.5576  -18.1250   22.1989 C   0  0  0  0  0  0  0  0  0  0  0  0
   12.7763  -19.1619   23.2684 C   0  0  0  0  0  0  0  0  0  0  0  0
   14.1633  -19.6709   23.1589 O   0  0  0  0  0  0  0  0  0  0  0  0
   14.3696  -20.8894   23.3788 C   0  0  0  0  0  0  0  0  0  0  0  0
   10.9101  -16.8964   23.4253 O   0  0  0  0  0  0  0  0  0  0  0  0
   11.3472  -15.7377   23.6336 O   0  0  0  0  0  0  0  0  0  0  0  0
   15.2025  -18.8389   22.8292 N   0  0  0  0  0  0  0  0  0  0  0  0
    5.0067  -12.2627   26.4727 C   0  0  0  0  0  0  0  0  0  0  0  0
    6.3409  -11.7573   26.3163 N   0  0  0  0  0  0  0  0  0  0  0  0
    6.5819  -10.5128   26.1460 N   0  0  0  0  0  0  0  0  0  0  0  0
    7.4285  -12.6615   26.3544 C   0  0  0  0  0  0  0  0  0  0  0  0
    7.2842  -14.0426   25.9233 C   0  0  0  0  0  0  0  0  0  0  0  0
    8.6560  -14.6724   26.0928 C   0  0  0  0  0  0  0  0  0  0  0  0
    8.6309  -16.1130   25.6919 C   0  0  2  0  0  0  0  0  0  0  0  0
    9.9606  -16.8130   25.7699 N   0  0  0  0  0  0  0  0  0  0  0  0
   10.1727  -17.4874   24.4746 C   0  0  0  0  0  0  0  0  0  0  0  0
    9.9592  -17.8040   26.8676 O   0  0  0  0  0  0  0  0  0  0  0  0
    9.9964  -19.1659   26.6286 O   0  0  0  0  0  0  0  0  0  0  0  0
  1  2  1  0
  2  3  2  0
  4  2  1  0
  4  5  1  0
  6  5  1  0
  7  8  1  0
  7  6  1  0
  8  9  1  6
 10  8  1  0
 11 10  2  0
 12 10  1  0
 13 18  1  0
 13 12  1  0
 13 14  1  1
 15 16  1  0
 15 14  1  0
 16 20  1  0
 17 16  2  0
 18 19  2  0
 21 22  1  0
 22 24  1  0
 22 23  2  0
 24 25  1  0
 26 25  1  0
 27 26  1  0
 28 27  1  6
 29 18  1  0
 29 28  1  0
 30 28  1  0
 30 31  1  0
 32 30  2  0
M  END
$$$$
