ISN.pdb
     RDKit          3D

 23 22  0  0  1  0  0  0  0  0999 V2000
   26.7930  -15.3747  -15.0392 C   0  0  0  0  0  0  0  0  0  0  0  0
   25.3583  -15.5795  -15.5431 C   0  0  0  0  0  0  0  0  0  0  0  0
   24.8644  -14.2094  -15.9331 C   0  0  2  0  0  0  0  0  0  0  0  0
   25.0598  -13.2246  -14.8432 C   0  0  0  0  0  0  0  0  0  0  0  0
   23.4838  -14.2415  -16.5407 C   0  0  2  0  0  0  0  0  0  0  0  0
   23.5236  -15.2210  -17.6462 N   0  0  0  0  0  0  0  0  0  0  0  0
   23.0023  -12.9762  -17.0825 C   0  0  0  0  0  0  0  0  0  0  0  0
   23.6096  -12.4445  -18.0494 O   0  0  0  0  0  0  0  0  0  0  0  0
   19.7316   -9.9113  -18.3600 O   0  0  0  0  0  0  0  0  0  0  0  0
   20.1786  -11.1276  -17.8503 C   0  0  0  0  0  0  0  0  0  0  0  0
   21.5275  -10.9283  -17.1431 C   0  0  2  0  0  0  0  0  0  0  0  0
   21.8719  -12.2481  -16.6172 N   0  0  0  0  0  0  0  0  0  0  0  0
   21.3817   -9.9451  -16.0387 C   0  0  0  0  0  0  0  0  0  0  0  0
   20.9629  -10.3373  -14.9204 O   0  0  0  0  0  0  0  0  0  0  0  0
   22.5087   -4.2379  -14.4779 N   0  0  0  0  0  0  0  0  0  0  0  0
   22.4847   -5.6159  -14.0514 C   0  0  0  0  0  0  0  0  0  0  0  0
   22.3252   -5.8223  -12.8210 O   0  0  0  0  0  0  0  0  0  0  0  0
   22.6427   -6.7017  -15.0326 C   0  0  0  0  0  0  0  0  0  0  0  0
   21.4522   -7.5950  -15.1073 C   0  0  2  0  0  0  0  0  0  0  0  0
   21.6957   -8.5718  -16.1870 N   0  0  0  0  0  0  0  0  0  0  0  0
   20.1690   -6.9380  -15.3959 C   0  0  0  0  0  0  0  0  0  0  0  0
   19.4397   -6.5276  -14.4202 O   0  0  0  0  0  0  0  0  0  0  0  0
   19.6791   -6.7232  -16.6622 O   0  0  0  0  0  0  0  0  0  0  0  0
  2  1  1  0
  3  2  1  0
  3  4  1  1
  5  6  1  6
  5  3  1  0
  7  5  1  0
  8  7  2  0
  9 10  1  0
 11 10  1  1
 11 13  1  0
 11 12  1  0
 12  7  1  0
 13 20  1  0
 14 13  2  0
 16 15  1  0
 16 17  2  0
 18 16  1  0
 19 18  1  6
 19 21  1  0
 20 19  1  0
 21 22  2  0
 21 23  1  0
M  END
$$$$
