ISN.pdb
     RDKit          3D

 23 22  0  0  1  0  0  0  0  0999 V2000
   23.6227  -13.6903  -19.1156 C   0  0  0  0  0  0  0  0  0  0  0  0
   23.9301  -12.9164  -17.8269 C   0  0  0  0  0  0  0  0  0  0  0  0
   22.9199  -11.7985  -17.7727 C   0  0  2  0  0  0  0  0  0  0  0  0
   22.8226  -11.0832  -19.0669 C   0  0  0  0  0  0  0  0  0  0  0  0
   23.0890  -10.9219  -16.5564 C   0  0  2  0  0  0  0  0  0  0  0  0
   23.1379  -11.8193  -15.3836 N   0  0  0  0  0  0  0  0  0  0  0  0
   22.0295   -9.9464  -16.3284 C   0  0  0  0  0  0  0  0  0  0  0  0
   21.9082   -8.9680  -17.1122 O   0  0  0  0  0  0  0  0  0  0  0  0
   18.2863  -10.5608  -14.7151 O   0  0  0  0  0  0  0  0  0  0  0  0
   19.0475   -9.5633  -14.1114 C   0  0  0  0  0  0  0  0  0  0  0  0
   20.0307   -8.9725  -15.1329 C   0  0  2  0  0  0  0  0  0  0  0  0
   21.0773   -9.9837  -15.2718 N   0  0  0  0  0  0  0  0  0  0  0  0
   20.5963   -7.6994  -14.6161 C   0  0  0  0  0  0  0  0  0  0  0  0
   21.7352   -7.7060  -14.0845 O   0  0  0  0  0  0  0  0  0  0  0  0
   21.8976   -2.7626  -14.0957 N   0  0  0  0  0  0  0  0  0  0  0  0
   22.4909   -3.7874  -14.9197 C   0  0  0  0  0  0  0  0  0  0  0  0
   23.5772   -3.4983  -15.4839 O   0  0  0  0  0  0  0  0  0  0  0  0
   21.8317   -5.0948  -15.0717 C   0  0  0  0  0  0  0  0  0  0  0  0
   20.5468   -5.1881  -14.3225 C   0  0  2  0  0  0  0  0  0  0  0  0
   19.9062   -6.4649  -14.6948 N   0  0  0  0  0  0  0  0  0  0  0  0
   19.5702   -4.1197  -14.5798 C   0  0  0  0  0  0  0  0  0  0  0  0
   19.2815   -3.2924  -13.6394 O   0  0  0  0  0  0  0  0  0  0  0  0
   18.9276   -3.9339  -15.7807 O   0  0  0  0  0  0  0  0  0  0  0  0
  2  1  1  0
  3  2  1  0
  3  4  1  6
  5  6  1  1
  5  3  1  0
  7  5  1  0
  8  7  2  0
  9 10  1  0
 11 10  1  1
 11 13  1  0
 11 12  1  0
 12  7  1  0
 13 20  1  0
 14 13  2  0
 16 15  1  0
 16 17  2  0
 18 16  1  0
 19 18  1  6
 19 21  1  0
 20 19  1  0
 21 22  2  0
 21 23  1  0
M  END
$$$$
