ISN.pdb
     RDKit          3D

 23 22  0  0  1  0  0  0  0  0999 V2000
   29.9172  -21.9378  -10.1888 C   0  0  0  0  0  0  0  0  0  0  0  0
   28.8617  -20.8764   -9.8518 C   0  0  0  0  0  0  0  0  0  0  0  0
   28.0020  -20.7517  -11.0841 C   0  0  2  0  0  0  0  0  0  0  0  0
   28.8198  -20.6324  -12.3142 C   0  0  0  0  0  0  0  0  0  0  0  0
   26.9091  -19.7234  -10.9276 C   0  0  2  0  0  0  0  0  0  0  0  0
   25.9936  -20.2253   -9.8822 N   0  0  0  0  0  0  0  0  0  0  0  0
   26.1179  -19.4554  -12.1228 C   0  0  0  0  0  0  0  0  0  0  0  0
   24.9281  -19.8644  -12.1835 O   0  0  0  0  0  0  0  0  0  0  0  0
   26.9461  -16.5149  -14.9964 O   0  0  0  0  0  0  0  0  0  0  0  0
   26.5757  -17.7804  -15.4438 C   0  0  0  0  0  0  0  0  0  0  0  0
   25.6758  -18.4563  -14.3985 C   0  0  2  0  0  0  0  0  0  0  0  0
   26.5641  -18.7506  -13.2755 N   0  0  0  0  0  0  0  0  0  0  0  0
   25.1019  -19.7084  -14.9558 C   0  0  0  0  0  0  0  0  0  0  0  0
   25.8511  -20.7031  -15.1262 O   0  0  0  0  0  0  0  0  0  0  0  0
   21.1132  -20.9044  -12.7118 N   0  0  0  0  0  0  0  0  0  0  0  0
   22.0520  -21.5023  -13.6297 C   0  0  0  0  0  0  0  0  0  0  0  0
   22.9978  -22.1574  -13.1215 O   0  0  0  0  0  0  0  0  0  0  0  0
   21.8829  -21.3341  -15.0823 C   0  0  0  0  0  0  0  0  0  0  0  0
   23.1723  -21.1110  -15.7953 C   0  0  2  0  0  0  0  0  0  0  0  0
   23.7358  -19.8367  -15.3079 N   0  0  0  0  0  0  0  0  0  0  0  0
   23.0925  -21.0196  -17.2605 C   0  0  0  0  0  0  0  0  0  0  0  0
   22.9480  -19.8671  -17.8112 O   0  0  0  0  0  0  0  0  0  0  0  0
   23.1639  -22.1006  -18.1067 O   0  0  0  0  0  0  0  0  0  0  0  0
  2  1  1  0
  3  2  1  0
  3  4  1  6
  5  6  1  1
  5  3  1  0
  7  5  1  0
  8  7  2  0
  9 10  1  0
 11 10  1  6
 11 13  1  0
 11 12  1  0
 12  7  1  0
 13 20  1  0
 14 13  2  0
 16 15  1  0
 16 17  2  0
 18 16  1  0
 19 18  1  1
 19 21  1  0
 20 19  1  0
 21 22  2  0
 21 23  1  0
M  END
$$$$
