ISN.pdb
     RDKit          3D

 23 22  0  0  1  0  0  0  0  0999 V2000
   28.5221  -19.9219   -9.3297 C   0  0  0  0  0  0  0  0  0  0  0  0
   27.7638  -21.0099  -10.1014 C   0  0  0  0  0  0  0  0  0  0  0  0
   26.3092  -20.6193  -10.0320 C   0  0  2  0  0  0  0  0  0  0  0  0
   25.8634  -20.4083   -8.6345 C   0  0  0  0  0  0  0  0  0  0  0  0
   25.4275  -21.5140  -10.8677 C   0  0  2  0  0  0  0  0  0  0  0  0
   26.0943  -21.6728  -12.1766 N   0  0  0  0  0  0  0  0  0  0  0  0
   24.0771  -21.0209  -11.1115 C   0  0  0  0  0  0  0  0  0  0  0  0
   23.2991  -20.8363  -10.1383 O   0  0  0  0  0  0  0  0  0  0  0  0
   20.9174  -18.8216  -14.0358 O   0  0  0  0  0  0  0  0  0  0  0  0
   22.1782  -19.3681  -13.8106 C   0  0  0  0  0  0  0  0  0  0  0  0
   22.1510  -20.2252  -12.5363 C   0  0  2  0  0  0  0  0  0  0  0  0
   23.5211  -20.7118  -12.3843 N   0  0  0  0  0  0  0  0  0  0  0  0
   21.2071  -21.3600  -12.7074 C   0  0  0  0  0  0  0  0  0  0  0  0
   21.4907  -22.2757  -13.5203 O   0  0  0  0  0  0  0  0  0  0  0  0
   19.3211  -23.8590   -8.7199 N   0  0  0  0  0  0  0  0  0  0  0  0
   19.2493  -23.9120  -10.1598 C   0  0  0  0  0  0  0  0  0  0  0  0
   19.9019  -24.8278  -10.7233 O   0  0  0  0  0  0  0  0  0  0  0  0
   18.4442  -22.9281  -10.9017 C   0  0  0  0  0  0  0  0  0  0  0  0
   19.0386  -22.5661  -12.2195 C   0  0  2  0  0  0  0  0  0  0  0  0
   19.9897  -21.4607  -11.9902 N   0  0  0  0  0  0  0  0  0  0  0  0
   18.0935  -22.1198  -13.2534 C   0  0  0  0  0  0  0  0  0  0  0  0
   17.7497  -22.9360  -14.1851 O   0  0  0  0  0  0  0  0  0  0  0  0
   17.5351  -20.8645  -13.2991 O   0  0  0  0  0  0  0  0  0  0  0  0
  2  1  1  0
  3  2  1  0
  3  4  1  1
  5  6  1  6
  5  3  1  0
  7  5  1  0
  8  7  2  0
  9 10  1  0
 11 10  1  6
 11 13  1  0
 11 12  1  0
 12  7  1  0
 13 20  1  0
 14 13  2  0
 16 15  1  0
 16 17  2  0
 18 16  1  0
 19 18  1  1
 19 21  1  0
 20 19  1  0
 21 22  2  0
 21 23  1  0
M  END
$$$$
