ISN.pdb
     RDKit          3D

 23 22  0  0  1  0  0  0  0  0999 V2000
   18.5364  -15.2130  -15.3945 C   0  0  0  0  0  0  0  0  0  0  0  0
   17.6648  -14.5943  -16.4952 C   0  0  0  0  0  0  0  0  0  0  0  0
   18.3595  -13.3172  -16.8948 C   0  0  2  0  0  0  0  0  0  0  0  0
   19.7130  -13.5759  -17.4400 C   0  0  0  0  0  0  0  0  0  0  0  0
   18.2811  -12.2551  -15.8261 C   0  0  2  0  0  0  0  0  0  0  0  0
   16.8968  -12.2666  -15.3097 N   0  0  0  0  0  0  0  0  0  0  0  0
   18.5838  -10.8968  -16.2618 C   0  0  0  0  0  0  0  0  0  0  0  0
   19.7800  -10.5669  -16.4779 O   0  0  0  0  0  0  0  0  0  0  0  0
   15.7613   -8.0124  -16.3422 O   0  0  0  0  0  0  0  0  0  0  0  0
   16.7107   -7.8515  -17.3479 C   0  0  0  0  0  0  0  0  0  0  0  0
   18.0255   -8.5278  -16.9319 C   0  0  2  0  0  0  0  0  0  0  0  0
   17.6326   -9.8613  -16.4795 N   0  0  0  0  0  0  0  0  0  0  0  0
   18.6617   -7.7650  -15.8269 C   0  0  0  0  0  0  0  0  0  0  0  0
   18.3341   -8.0175  -14.6400 O   0  0  0  0  0  0  0  0  0  0  0  0
   21.6690   -4.3927  -13.1544 N   0  0  0  0  0  0  0  0  0  0  0  0
   22.3607   -4.8892  -14.3190 C   0  0  0  0  0  0  0  0  0  0  0  0
   23.5903   -4.6354  -14.3950 O   0  0  0  0  0  0  0  0  0  0  0  0
   21.6341   -5.6503  -15.3483 C   0  0  0  0  0  0  0  0  0  0  0  0
   20.2476   -6.0082  -14.9356 C   0  0  2  0  0  0  0  0  0  0  0  0
   19.6308   -6.7560  -16.0490 N   0  0  0  0  0  0  0  0  0  0  0  0
   19.3564   -4.8820  -14.6212 C   0  0  0  0  0  0  0  0  0  0  0  0
   18.7097   -4.3079  -15.5722 O   0  0  0  0  0  0  0  0  0  0  0  0
   19.1570   -4.3853  -13.3550 O   0  0  0  0  0  0  0  0  0  0  0  0
  2  1  1  0
  3  2  1  0
  3  4  1  1
  5  6  1  6
  5  3  1  0
  7  5  1  0
  8  7  2  0
  9 10  1  0
 11 10  1  1
 11 13  1  0
 11 12  1  0
 12  7  1  0
 13 20  1  0
 14 13  2  0
 16 15  1  0
 16 17  2  0
 18 16  1  0
 19 18  1  6
 19 21  1  0
 20 19  1  0
 21 22  2  0
 21 23  1  0
M  END
$$$$
