ISN.pdb
     RDKit          3D

 23 22  0  0  1  0  0  0  0  0999 V2000
   24.9536  -13.6436  -17.4941 C   0  0  0  0  0  0  0  0  0  0  0  0
   26.2879  -14.2959  -17.1092 C   0  0  0  0  0  0  0  0  0  0  0  0
   25.9285  -15.4811  -16.2493 C   0  0  2  0  0  0  0  0  0  0  0  0
   26.4077  -15.3147  -14.8570 C   0  0  0  0  0  0  0  0  0  0  0  0
   26.2718  -16.7971  -16.9023 C   0  0  2  0  0  0  0  0  0  0  0  0
   25.4565  -16.8928  -18.1308 N   0  0  0  0  0  0  0  0  0  0  0  0
   26.0122  -17.9870  -16.1004 C   0  0  0  0  0  0  0  0  0  0  0  0
   24.8230  -18.3252  -15.8595 O   0  0  0  0  0  0  0  0  0  0  0  0
   28.9763  -20.5399  -14.7223 O   0  0  0  0  0  0  0  0  0  0  0  0
   27.7023  -21.0419  -14.9749 C   0  0  0  0  0  0  0  0  0  0  0  0
   26.6511  -19.9649  -14.6676 C   0  0  2  0  0  0  0  0  0  0  0  0
   26.9996  -18.8437  -15.5386 N   0  0  0  0  0  0  0  0  0  0  0  0
   26.7356  -19.5655  -13.2390 C   0  0  0  0  0  0  0  0  0  0  0  0
   26.8671  -18.3496  -12.9493 O   0  0  0  0  0  0  0  0  0  0  0  0
   23.2441  -20.1803   -9.6619 N   0  0  0  0  0  0  0  0  0  0  0  0
   23.1111  -20.4902  -11.0645 C   0  0  0  0  0  0  0  0  0  0  0  0
   21.9523  -20.7552  -11.4758 O   0  0  0  0  0  0  0  0  0  0  0  0
   24.2925  -20.4883  -11.9426 C   0  0  0  0  0  0  0  0  0  0  0  0
   25.5774  -20.4857  -11.1878 C   0  0  2  0  0  0  0  0  0  0  0  0
   26.6742  -20.4996  -12.1758 N   0  0  0  0  0  0  0  0  0  0  0  0
   25.7952  -21.6212  -10.2797 C   0  0  0  0  0  0  0  0  0  0  0  0
   25.4437  -22.8002  -10.6523 O   0  0  0  0  0  0  0  0  0  0  0  0
   26.3615  -21.5143   -9.0317 O   0  0  0  0  0  0  0  0  0  0  0  0
  2  1  1  0
  3  2  1  0
  3  4  1  1
  5  6  1  6
  5  3  1  0
  7  5  1  0
  8  7  2  0
  9 10  1  0
 11 10  1  1
 11 13  1  0
 11 12  1  0
 12  7  1  0
 13 20  1  0
 14 13  2  0
 16 15  1  0
 16 17  2  0
 18 16  1  0
 19 18  1  6
 19 21  1  0
 20 19  1  0
 21 22  2  0
 21 23  1  0
M  END
$$$$
