ISN.pdb
     RDKit          3D

 23 22  0  0  1  0  0  0  0  0999 V2000
    9.6937   -9.7944   -8.2232 C   0  0  0  0  0  0  0  0  0  0  0  0
   10.4044  -10.7385   -9.2019 C   0  0  0  0  0  0  0  0  0  0  0  0
   11.8020  -10.1929   -9.3515 C   0  0  2  0  0  0  0  0  0  0  0  0
   11.8008   -8.7218   -9.5302 C   0  0  0  0  0  0  0  0  0  0  0  0
   12.6239  -10.9687  -10.3508 C   0  0  2  0  0  0  0  0  0  0  0  0
   12.7560  -12.3428   -9.8241 N   0  0  0  0  0  0  0  0  0  0  0  0
   13.9657  -10.4551  -10.5998 C   0  0  0  0  0  0  0  0  0  0  0  0
   14.8010  -10.4201   -9.6577 O   0  0  0  0  0  0  0  0  0  0  0  0
   16.6504  -11.2104  -13.4011 O   0  0  0  0  0  0  0  0  0  0  0  0
   16.2344   -9.8816  -13.4150 C   0  0  0  0  0  0  0  0  0  0  0  0
   15.8131   -9.4561  -12.0005 C   0  0  2  0  0  0  0  0  0  0  0  0
   14.4534   -9.9703  -11.8454 N   0  0  0  0  0  0  0  0  0  0  0  0
   15.8296   -7.9745  -11.8897 C   0  0  0  0  0  0  0  0  0  0  0  0
   14.9034   -7.3100  -12.4191 O   0  0  0  0  0  0  0  0  0  0  0  0
   17.0509   -3.0874  -10.4697 N   0  0  0  0  0  0  0  0  0  0  0  0
   17.1391   -4.0287   -9.3800 C   0  0  0  0  0  0  0  0  0  0  0  0
   17.3248   -3.5472   -8.2329 O   0  0  0  0  0  0  0  0  0  0  0  0
   17.0146   -5.4735   -9.6324 C   0  0  0  0  0  0  0  0  0  0  0  0
   16.8246   -5.7971  -11.0746 C   0  0  2  0  0  0  0  0  0  0  0  0
   16.8502   -7.2670  -11.2082 N   0  0  0  0  0  0  0  0  0  0  0  0
   17.8360   -5.2586  -11.9959 C   0  0  0  0  0  0  0  0  0  0  0  0
   18.9027   -5.9383  -12.2249 O   0  0  0  0  0  0  0  0  0  0  0  0
   17.7231   -4.0536  -12.6477 O   0  0  0  0  0  0  0  0  0  0  0  0
  2  1  1  0
  3  2  1  0
  3  4  1  6
  5  6  1  1
  5  3  1  0
  7  5  1  0
  8  7  2  0
  9 10  1  0
 11 10  1  6
 11 13  1  0
 11 12  1  0
 12  7  1  0
 13 20  1  0
 14 13  2  0
 16 15  1  0
 16 17  2  0
 18 16  1  0
 19 18  1  1
 19 21  1  0
 20 19  1  0
 21 22  2  0
 21 23  1  0
M  END
$$$$
