ISN.pdb
     RDKit          3D

 23 22  0  0  1  0  0  0  0  0999 V2000
   19.0764  -15.5233  -19.8563 C   0  0  0  0  0  0  0  0  0  0  0  0
   20.4020  -15.8009  -19.1353 C   0  0  0  0  0  0  0  0  0  0  0  0
   20.5416  -14.7086  -18.1054 C   0  0  2  0  0  0  0  0  0  0  0  0
   20.2961  -13.3688  -18.6893 C   0  0  0  0  0  0  0  0  0  0  0  0
   21.8022  -14.8402  -17.2871 C   0  0  2  0  0  0  0  0  0  0  0  0
   21.7518  -16.1626  -16.6300 N   0  0  0  0  0  0  0  0  0  0  0  0
   21.9901  -13.8330  -16.2495 C   0  0  0  0  0  0  0  0  0  0  0  0
   21.1132  -13.6917  -15.3564 O   0  0  0  0  0  0  0  0  0  0  0  0
   25.1801  -11.2466  -16.2354 O   0  0  0  0  0  0  0  0  0  0  0  0
   24.6508  -11.5632  -14.9870 C   0  0  0  0  0  0  0  0  0  0  0  0
   23.1581  -11.8969  -15.1269 C   0  0  2  0  0  0  0  0  0  0  0  0
   23.1051  -12.9570  -16.1322 N   0  0  0  0  0  0  0  0  0  0  0  0
   22.4107  -10.6985  -15.5882 C   0  0  0  0  0  0  0  0  0  0  0  0
   22.3399  -10.4568  -16.8195 O   0  0  0  0  0  0  0  0  0  0  0  0
   17.4521   -7.7427  -15.4101 N   0  0  0  0  0  0  0  0  0  0  0  0
   18.8145   -7.8492  -15.8725 C   0  0  0  0  0  0  0  0  0  0  0  0
   19.2273   -6.9309  -16.6263 O   0  0  0  0  0  0  0  0  0  0  0  0
   19.6521   -8.9889  -15.4644 C   0  0  0  0  0  0  0  0  0  0  0  0
   21.0613   -8.5999  -15.1751 C   0  0  2  0  0  0  0  0  0  0  0  0
   21.7665   -9.8054  -14.6970 N   0  0  0  0  0  0  0  0  0  0  0  0
   21.2468   -7.5549  -14.1577 C   0  0  0  0  0  0  0  0  0  0  0  0
   20.7872   -6.3748  -14.3780 O   0  0  0  0  0  0  0  0  0  0  0  0
   21.8897   -7.7502  -12.9585 O   0  0  0  0  0  0  0  0  0  0  0  0
  2  1  1  0
  3  2  1  0
  3  4  1  6
  5  6  1  1
  5  3  1  0
  7  5  1  0
  8  7  2  0
  9 10  1  0
 11 10  1  6
 11 13  1  0
 11 12  1  0
 12  7  1  0
 13 20  1  0
 14 13  2  0
 16 15  1  0
 16 17  2  0
 18 16  1  0
 19 18  1  1
 19 21  1  0
 20 19  1  0
 21 22  2  0
 21 23  1  0
M  END
$$$$
