QFF.pdb
     RDKit          3D

 32 33  0  0  1  0  0  0  0  0999 V2000
   13.8070  -19.7037   20.0884 N   0  0  0  0  0  0  0  0  0  0  0  0
   13.0743  -19.0567   19.0555 C   0  0  0  0  0  0  0  0  0  0  0  0
   13.5362  -19.2722   17.8827 O   0  0  0  0  0  0  0  0  0  0  0  0
   11.8863  -18.2094   19.2799 C   0  0  0  0  0  0  0  0  0  0  0  0
   10.5997  -18.9383   19.3080 C   0  0  0  0  0  0  0  0  0  0  0  0
    9.3536  -18.1340   19.4485 C   0  0  2  0  0  0  0  0  0  0  0  0
    9.0892  -17.3353   18.2750 N   0  0  0  0  0  0  0  0  0  0  0  0
    9.3456  -17.2525   20.6300 C   0  0  0  0  0  0  0  0  0  0  0  0
   10.3502  -16.5432   20.8908 O   0  0  0  0  0  0  0  0  0  0  0  0
    8.2788  -17.1177   21.5331 N   0  0  0  0  0  0  0  0  0  0  0  0
    8.2149  -16.1691   22.6096 C   0  0  1  0  0  0  0  0  0  0  0  0
    6.9173  -15.5066   22.8101 C   0  0  0  0  0  0  0  0  0  0  0  0
    6.9250  -14.5422   23.9163 C   0  0  0  0  0  0  0  0  0  0  0  0
    6.3928  -14.9182   25.1528 C   0  0  0  0  0  0  0  0  0  0  0  0
    6.3853  -14.0946   26.2463 C   0  0  0  0  0  0  0  0  0  0  0  0
    6.9169  -12.8197   26.1750 C   0  0  0  0  0  0  0  0  0  0  0  0
    7.4508  -12.4130   24.9729 C   0  0  0  0  0  0  0  0  0  0  0  0
    7.4502  -13.2669   23.8699 C   0  0  0  0  0  0  0  0  0  0  0  0
    8.6807  -16.8437   23.8324 C   0  0  0  0  0  0  0  0  0  0  0  0
    8.2918  -18.0112   24.0684 O   0  0  0  0  0  0  0  0  0  0  0  0
    9.5578  -16.2377   24.7673 N   0  0  0  0  0  0  0  0  0  0  0  0
   10.3164  -17.1175   25.6494 C   0  0  1  0  0  0  0  0  0  0  0  0
   11.5262  -16.3807   26.1833 C   0  0  0  0  0  0  0  0  0  0  0  0
   11.1015  -15.3716   27.1686 C   0  0  0  0  0  0  0  0  0  0  0  0
   11.0530  -15.6595   28.5297 C   0  0  0  0  0  0  0  0  0  0  0  0
   10.6937  -14.7378   29.4897 C   0  0  0  0  0  0  0  0  0  0  0  0
   10.3621  -13.4642   29.0955 C   0  0  0  0  0  0  0  0  0  0  0  0
   10.3967  -13.1342   27.7331 C   0  0  0  0  0  0  0  0  0  0  0  0
   10.7605  -14.0763   26.8024 C   0  0  0  0  0  0  0  0  0  0  0  0
    9.4585  -17.5294   26.7536 C   0  0  0  0  0  0  0  0  0  0  0  0
    9.8090  -18.4438   27.7292 O   0  0  0  0  0  0  0  0  0  0  0  0
    8.2888  -17.0275   26.8519 O   0  0  0  0  0  0  0  0  0  0  0  0
  2  1  1  0
  3  2  2  0
  4  2  1  0
  5  4  1  0
  6  5  1  0
  6  7  1  6
  8  6  1  0
  8  9  2  0
 10  8  1  0
 11 10  1  0
 11 12  1  1
 12 13  1  0
 13 14  2  0
 13 18  1  0
 14 15  1  0
 15 16  2  0
 17 16  1  0
 18 17  2  0
 19 11  1  0
 20 19  2  0
 21 19  1  0
 22 21  1  0
 22 23  1  1
 23 24  1  0
 24 29  1  0
 25 24  2  0
 25 26  1  0
 26 27  2  0
 27 28  1  0
 29 28  2  0
 30 31  1  0
 30 22  1  0
 32 30  2  0
M  END
$$$$
