QFF.pdb
     RDKit          3D

 32 33  0  0  1  0  0  0  0  0999 V2000
    9.5989  -15.6447   16.2842 N   0  0  0  0  0  0  0  0  0  0  0  0
   10.5700  -16.6830   16.2497 C   0  0  0  0  0  0  0  0  0  0  0  0
   10.6451  -17.2817   15.1222 O   0  0  0  0  0  0  0  0  0  0  0  0
   11.4291  -17.0604   17.3893 C   0  0  0  0  0  0  0  0  0  0  0  0
   11.1714  -16.3094   18.6371 C   0  0  0  0  0  0  0  0  0  0  0  0
   11.4505  -16.9988   19.9279 C   0  0  2  0  0  0  0  0  0  0  0  0
   10.9915  -18.3678   19.9212 N   0  0  0  0  0  0  0  0  0  0  0  0
   10.8781  -16.3156   21.1021 C   0  0  0  0  0  0  0  0  0  0  0  0
   11.1898  -15.1230   21.3482 O   0  0  0  0  0  0  0  0  0  0  0  0
    9.9766  -16.8890   22.0133 N   0  0  0  0  0  0  0  0  0  0  0  0
    9.3560  -16.2037   23.1125 C   0  0  1  0  0  0  0  0  0  0  0  0
    7.8891  -16.1085   23.0686 C   0  0  0  0  0  0  0  0  0  0  0  0
    7.4040  -15.0704   22.1516 C   0  0  0  0  0  0  0  0  0  0  0  0
    7.5724  -13.7256   22.4933 C   0  0  0  0  0  0  0  0  0  0  0  0
    7.1779  -12.6929   21.6858 C   0  0  0  0  0  0  0  0  0  0  0  0
    6.5784  -12.9398   20.4640 C   0  0  0  0  0  0  0  0  0  0  0  0
    6.3953  -14.2528   20.0924 C   0  0  0  0  0  0  0  0  0  0  0  0
    6.8048  -15.2917   20.9283 C   0  0  0  0  0  0  0  0  0  0  0  0
    9.8274  -16.8312   24.3581 C   0  0  0  0  0  0  0  0  0  0  0  0
   10.6913  -17.7364   24.2937 O   0  0  0  0  0  0  0  0  0  0  0  0
    9.3531  -16.4605   25.6419 N   0  0  0  0  0  0  0  0  0  0  0  0
    9.8605  -17.2044   26.7894 C   0  0  1  0  0  0  0  0  0  0  0  0
    9.5317  -16.4573   28.0643 C   0  0  0  0  0  0  0  0  0  0  0  0
    9.7078  -15.0101   27.8544 C   0  0  0  0  0  0  0  0  0  0  0  0
    8.6612  -14.2069   27.4103 C   0  0  0  0  0  0  0  0  0  0  0  0
    8.7710  -12.8445   27.2315 C   0  0  0  0  0  0  0  0  0  0  0  0
    9.9721  -12.2346   27.5010 C   0  0  0  0  0  0  0  0  0  0  0  0
   11.0521  -13.0088   27.9490 C   0  0  0  0  0  0  0  0  0  0  0  0
   10.9085  -14.3641   28.1178 C   0  0  0  0  0  0  0  0  0  0  0  0
    9.2352  -18.5209   26.8099 C   0  0  0  0  0  0  0  0  0  0  0  0
    8.2517  -18.9433   25.9351 O   0  0  0  0  0  0  0  0  0  0  0  0
    9.6001  -19.3683   27.6923 O   0  0  0  0  0  0  0  0  0  0  0  0
  2  1  1  0
  3  2  2  0
  4  2  1  0
  5  4  1  0
  6  5  1  0
  6  7  1  6
  8  6  1  0
  8  9  2  0
 10  8  1  0
 11 10  1  0
 11 12  1  6
 12 13  1  0
 13 14  2  0
 13 18  1  0
 14 15  1  0
 15 16  2  0
 17 16  1  0
 18 17  2  0
 19 11  1  0
 20 19  2  0
 21 19  1  0
 22 21  1  0
 22 23  1  1
 23 24  1  0
 24 29  1  0
 25 24  2  0
 25 26  1  0
 26 27  2  0
 27 28  1  0
 29 28  2  0
 30 31  1  0
 30 22  1  0
 32 30  2  0
M  END
$$$$
