QFF.pdb
     RDKit          3D

 32 33  0  0  1  0  0  0  0  0999 V2000
   14.8714  -17.1792   18.7317 N   0  0  0  0  0  0  0  0  0  0  0  0
   13.6916  -17.8716   18.3428 C   0  0  0  0  0  0  0  0  0  0  0  0
   13.8768  -19.1151   18.1088 O   0  0  0  0  0  0  0  0  0  0  0  0
   12.3611  -17.2454   18.2124 C   0  0  0  0  0  0  0  0  0  0  0  0
   11.8399  -16.6300   19.4522 C   0  0  0  0  0  0  0  0  0  0  0  0
   10.8727  -17.4222   20.2622 C   0  0  2  0  0  0  0  0  0  0  0  0
    9.6421  -17.6687   19.5481 N   0  0  0  0  0  0  0  0  0  0  0  0
   10.5479  -16.8115   21.5641 C   0  0  0  0  0  0  0  0  0  0  0  0
   11.2753  -15.8971   22.0274 O   0  0  0  0  0  0  0  0  0  0  0  0
    9.4561  -17.1633   22.3741 N   0  0  0  0  0  0  0  0  0  0  0  0
    9.0630  -16.4884   23.5794 C   0  0  1  0  0  0  0  0  0  0  0  0
    7.6367  -16.1478   23.6928 C   0  0  0  0  0  0  0  0  0  0  0  0
    7.3813  -15.0207   24.5973 C   0  0  0  0  0  0  0  0  0  0  0  0
    6.6729  -15.2433   25.7814 C   0  0  0  0  0  0  0  0  0  0  0  0
    6.4151  -14.2580   26.6962 C   0  0  0  0  0  0  0  0  0  0  0  0
    6.8546  -12.9637   26.4842 C   0  0  0  0  0  0  0  0  0  0  0  0
    7.5564  -12.7053   25.3282 C   0  0  0  0  0  0  0  0  0  0  0  0
    7.8101  -13.7227   24.4083 C   0  0  0  0  0  0  0  0  0  0  0  0
    9.5258  -17.2967   24.7195 C   0  0  0  0  0  0  0  0  0  0  0  0
    9.8912  -18.4782   24.5185 O   0  0  0  0  0  0  0  0  0  0  0  0
    9.5836  -16.8040   26.0478 N   0  0  0  0  0  0  0  0  0  0  0  0
   10.1609  -17.6745   27.0659 C   0  0  1  0  0  0  0  0  0  0  0  0
   10.3770  -16.8893   28.3419 C   0  0  0  0  0  0  0  0  0  0  0  0
   10.2199  -15.4494   28.0747 C   0  0  0  0  0  0  0  0  0  0  0  0
    9.2070  -14.7050   28.6729 C   0  0  0  0  0  0  0  0  0  0  0  0
    9.0421  -13.3504   28.4780 C   0  0  0  0  0  0  0  0  0  0  0  0
    9.9162  -12.6879   27.6507 C   0  0  0  0  0  0  0  0  0  0  0  0
   10.9496  -13.4020   27.0275 C   0  0  0  0  0  0  0  0  0  0  0  0
   11.0864  -14.7512   27.2443 C   0  0  0  0  0  0  0  0  0  0  0  0
    9.2446  -18.7810   27.3127 C   0  0  0  0  0  0  0  0  0  0  0  0
    8.0027  -18.9263   26.7232 O   0  0  0  0  0  0  0  0  0  0  0  0
    9.5854  -19.6987   28.1321 O   0  0  0  0  0  0  0  0  0  0  0  0
  2  1  1  0
  3  2  2  0
  4  2  1  0
  5  4  1  0
  6  5  1  0
  6  7  1  6
  8  6  1  0
  8  9  2  0
 10  8  1  0
 11 10  1  0
 11 12  1  6
 12 13  1  0
 13 14  2  0
 13 18  1  0
 14 15  1  0
 15 16  2  0
 17 16  1  0
 18 17  2  0
 19 11  1  0
 20 19  2  0
 21 19  1  0
 22 21  1  0
 22 23  1  1
 23 24  1  0
 24 29  1  0
 25 24  2  0
 25 26  1  0
 26 27  2  0
 27 28  1  0
 29 28  2  0
 30 31  1  0
 30 22  1  0
 32 30  2  0
M  END
$$$$
