QFF.pdb
     RDKit          3D

 32 33  0  0  1  0  0  0  0  0999 V2000
    9.7332  -22.2411   23.7661 N   0  0  0  0  0  0  0  0  0  0  0  0
    9.9796  -22.7065   22.4451 C   0  0  0  0  0  0  0  0  0  0  0  0
   10.8665  -23.6254   22.3790 O   0  0  0  0  0  0  0  0  0  0  0  0
    9.2933  -22.1998   21.2402 C   0  0  0  0  0  0  0  0  0  0  0  0
    8.3208  -21.1138   21.4896 C   0  0  0  0  0  0  0  0  0  0  0  0
    8.0470  -20.1632   20.3756 C   0  0  2  0  0  0  0  0  0  0  0  0
    8.7263  -20.5436   19.1596 N   0  0  0  0  0  0  0  0  0  0  0  0
    8.3912  -18.7647   20.6900 C   0  0  0  0  0  0  0  0  0  0  0  0
    9.5780  -18.3683   20.5704 O   0  0  0  0  0  0  0  0  0  0  0  0
    7.4843  -17.7858   21.1272 N   0  0  0  0  0  0  0  0  0  0  0  0
    7.8105  -16.4154   21.4071 C   0  0  1  0  0  0  0  0  0  0  0  0
    6.7944  -15.4204   21.0323 C   0  0  0  0  0  0  0  0  0  0  0  0
    7.3069  -14.0453   21.0235 C   0  0  0  0  0  0  0  0  0  0  0  0
    7.1590  -13.2548   22.1667 C   0  0  0  0  0  0  0  0  0  0  0  0
    7.6322  -11.9734   22.2573 C   0  0  0  0  0  0  0  0  0  0  0  0
    8.2946  -11.3874   21.1938 C   0  0  0  0  0  0  0  0  0  0  0  0
    8.4599  -12.1351   20.0497 C   0  0  0  0  0  0  0  0  0  0  0  0
    7.9714  -13.4397   19.9765 C   0  0  0  0  0  0  0  0  0  0  0  0
    8.1715  -16.3203   22.8312 C   0  0  0  0  0  0  0  0  0  0  0  0
    7.5507  -17.0211   23.6639 O   0  0  0  0  0  0  0  0  0  0  0  0
    9.1974  -15.4706   23.3170 N   0  0  0  0  0  0  0  0  0  0  0  0
    9.6048  -15.6317   24.7083 C   0  0  1  0  0  0  0  0  0  0  0  0
    8.4055  -16.0197   25.5466 C   0  0  0  0  0  0  0  0  0  0  0  0
    7.7803  -14.8122   26.1127 C   0  0  0  0  0  0  0  0  0  0  0  0
    8.5267  -13.6721   26.3975 C   0  0  0  0  0  0  0  0  0  0  0  0
    7.9792  -12.5096   26.8965 C   0  0  0  0  0  0  0  0  0  0  0  0
    6.6265  -12.4607   27.1312 C   0  0  0  0  0  0  0  0  0  0  0  0
    5.8393  -13.5888   26.8590 C   0  0  0  0  0  0  0  0  0  0  0  0
    6.4165  -14.7310   26.3608 C   0  0  0  0  0  0  0  0  0  0  0  0
   10.6210  -16.6740   24.7828 C   0  0  0  0  0  0  0  0  0  0  0  0
   10.4635  -17.9670   24.3201 O   0  0  0  0  0  0  0  0  0  0  0  0
   11.7506  -16.4034   25.3123 O   0  0  0  0  0  0  0  0  0  0  0  0
  2  1  1  0
  3  2  2  0
  4  2  1  0
  5  4  1  0
  6  5  1  0
  6  7  1  6
  8  6  1  0
  8  9  2  0
 10  8  1  0
 11 10  1  0
 11 12  1  1
 12 13  1  0
 13 14  2  0
 13 18  1  0
 14 15  1  0
 15 16  2  0
 17 16  1  0
 18 17  2  0
 19 11  1  0
 20 19  2  0
 21 19  1  0
 22 21  1  0
 22 23  1  1
 23 24  1  0
 24 29  1  0
 25 24  2  0
 25 26  1  0
 26 27  2  0
 27 28  1  0
 29 28  2  0
 30 31  1  0
 30 22  1  0
 32 30  2  0
M  END
$$$$
