QFF.pdb
     RDKit          3D

 32 33  0  0  1  0  0  0  0  0999 V2000
   12.8261  -19.7220   17.1926 N   0  0  0  0  0  0  0  0  0  0  0  0
   11.5090  -19.2028   17.0580 C   0  0  0  0  0  0  0  0  0  0  0  0
   10.6474  -20.0717   16.6866 O   0  0  0  0  0  0  0  0  0  0  0  0
   11.1354  -17.7980   17.3159 C   0  0  0  0  0  0  0  0  0  0  0  0
   11.3107  -17.3555   18.7161 C   0  0  0  0  0  0  0  0  0  0  0  0
   10.3830  -17.9156   19.7384 C   0  0  2  0  0  0  0  0  0  0  0  0
    9.0990  -18.2592   19.1743 N   0  0  0  0  0  0  0  0  0  0  0  0
   10.1671  -17.0273   20.8949 C   0  0  0  0  0  0  0  0  0  0  0  0
   11.1138  -16.3259   21.3329 O   0  0  0  0  0  0  0  0  0  0  0  0
    8.9541  -16.8776   21.5862 N   0  0  0  0  0  0  0  0  0  0  0  0
    8.7481  -16.0373   22.7326 C   0  0  1  0  0  0  0  0  0  0  0  0
    7.4041  -15.4575   22.8750 C   0  0  0  0  0  0  0  0  0  0  0  0
    7.2942  -14.5212   23.9998 C   0  0  0  0  0  0  0  0  0  0  0  0
    6.7424  -14.9646   25.2050 C   0  0  0  0  0  0  0  0  0  0  0  0
    6.6285  -14.1695   26.3136 C   0  0  0  0  0  0  0  0  0  0  0  0
    7.0647  -12.8571   26.2904 C   0  0  0  0  0  0  0  0  0  0  0  0
    7.6145  -12.3838   25.1202 C   0  0  0  0  0  0  0  0  0  0  0  0
    7.7229  -13.2095   24.0011 C   0  0  0  0  0  0  0  0  0  0  0  0
    9.1453  -16.8005   23.9274 C   0  0  0  0  0  0  0  0  0  0  0  0
    8.7971  -18.0000   24.0260 O   0  0  0  0  0  0  0  0  0  0  0  0
    9.9114  -16.2457   24.9837 N   0  0  0  0  0  0  0  0  0  0  0  0
   10.6515  -17.1684   25.8372 C   0  0  1  0  0  0  0  0  0  0  0  0
   11.7639  -16.4242   26.5445 C   0  0  0  0  0  0  0  0  0  0  0  0
   11.1959  -15.3462   27.3720 C   0  0  0  0  0  0  0  0  0  0  0  0
   10.6378  -14.2068   26.7992 C   0  0  0  0  0  0  0  0  0  0  0  0
   10.0659  -13.1890   27.5323 C   0  0  0  0  0  0  0  0  0  0  0  0
   10.0403  -13.2915   28.9020 C   0  0  0  0  0  0  0  0  0  0  0  0
   10.5936  -14.4230   29.5183 C   0  0  0  0  0  0  0  0  0  0  0  0
   11.1546  -15.4198   28.7580 C   0  0  0  0  0  0  0  0  0  0  0  0
    9.7355  -17.7403   26.8164 C   0  0  0  0  0  0  0  0  0  0  0  0
    8.3797  -17.4780   26.8790 O   0  0  0  0  0  0  0  0  0  0  0  0
   10.1906  -18.5449   27.6968 O   0  0  0  0  0  0  0  0  0  0  0  0
  2  1  1  0
  3  2  2  0
  4  2  1  0
  5  4  1  0
  6  5  1  0
  6  7  1  6
  8  6  1  0
  8  9  2  0
 10  8  1  0
 11 10  1  0
 11 12  1  1
 12 13  1  0
 13 14  2  0
 13 18  1  0
 14 15  1  0
 15 16  2  0
 17 16  1  0
 18 17  2  0
 19 11  1  0
 20 19  2  0
 21 19  1  0
 22 21  1  0
 22 23  1  1
 23 24  1  0
 24 29  1  0
 25 24  2  0
 25 26  1  0
 26 27  2  0
 27 28  1  0
 29 28  2  0
 30 31  1  0
 30 22  1  0
 32 30  2  0
M  END
$$$$
