QFF.pdb
     RDKit          3D

 32 33  0  0  1  0  0  0  0  0999 V2000
    4.8743  -21.3845   20.9515 N   0  0  0  0  0  0  0  0  0  0  0  0
    5.5690  -21.1100   22.1617 C   0  0  0  0  0  0  0  0  0  0  0  0
    4.8445  -20.5558   23.0580 O   0  0  0  0  0  0  0  0  0  0  0  0
    6.9924  -21.4232   22.3964 C   0  0  0  0  0  0  0  0  0  0  0  0
    7.8717  -20.2434   22.5461 C   0  0  0  0  0  0  0  0  0  0  0  0
    7.7429  -19.1542   21.5378 C   0  0  2  0  0  0  0  0  0  0  0  0
    7.9990  -19.6244   20.1968 N   0  0  0  0  0  0  0  0  0  0  0  0
    8.6110  -17.9928   21.8038 C   0  0  0  0  0  0  0  0  0  0  0  0
    9.8090  -18.0044   21.4234 O   0  0  0  0  0  0  0  0  0  0  0  0
    8.2150  -16.8206   22.4677 N   0  0  0  0  0  0  0  0  0  0  0  0
    9.0583  -15.6881   22.7306 C   0  0  1  0  0  0  0  0  0  0  0  0
    8.3921  -14.3771   22.7475 C   0  0  0  0  0  0  0  0  0  0  0  0
    7.7919  -14.0500   24.0462 C   0  0  0  0  0  0  0  0  0  0  0  0
    7.8817  -12.7414   24.5289 C   0  0  0  0  0  0  0  0  0  0  0  0
    7.3261  -12.3409   25.7143 C   0  0  0  0  0  0  0  0  0  0  0  0
    6.6337  -13.2365   26.5090 C   0  0  0  0  0  0  0  0  0  0  0  0
    6.5238  -14.5357   26.0667 C   0  0  0  0  0  0  0  0  0  0  0  0
    7.0959  -14.9247   24.8554 C   0  0  0  0  0  0  0  0  0  0  0  0
    9.7856  -15.9496   23.9837 C   0  0  0  0  0  0  0  0  0  0  0  0
   10.4358  -15.0194   24.5146 O   0  0  0  0  0  0  0  0  0  0  0  0
    9.7882  -17.2111   24.6310 N   0  0  0  0  0  0  0  0  0  0  0  0
   10.2906  -17.2663   25.9993 C   0  0  1  0  0  0  0  0  0  0  0  0
    9.1920  -16.8645   26.9600 C   0  0  0  0  0  0  0  0  0  0  0  0
    9.5305  -15.5802   27.5967 C   0  0  0  0  0  0  0  0  0  0  0  0
    8.8044  -14.4227   27.3303 C   0  0  0  0  0  0  0  0  0  0  0  0
    9.0644  -13.2076   27.9271 C   0  0  0  0  0  0  0  0  0  0  0  0
   10.0929  -13.1202   28.8337 C   0  0  0  0  0  0  0  0  0  0  0  0
   10.8497  -14.2632   29.1285 C   0  0  0  0  0  0  0  0  0  0  0  0
   10.5633  -15.4591   28.5169 C   0  0  0  0  0  0  0  0  0  0  0  0
   10.7272  -18.6274   26.2851 C   0  0  0  0  0  0  0  0  0  0  0  0
   11.4288  -19.0130   27.4120 O   0  0  0  0  0  0  0  0  0  0  0  0
   10.4587  -19.5542   25.4492 O   0  0  0  0  0  0  0  0  0  0  0  0
  2  1  1  0
  3  2  2  0
  4  2  1  0
  5  4  1  0
  6  5  1  0
  6  7  1  6
  8  6  1  0
  8  9  2  0
 10  8  1  0
 11 10  1  0
 11 12  1  1
 12 13  1  0
 13 14  2  0
 13 18  1  0
 14 15  1  0
 15 16  2  0
 17 16  1  0
 18 17  2  0
 19 11  1  0
 20 19  2  0
 21 19  1  0
 22 21  1  0
 22 23  1  1
 23 24  1  0
 24 29  1  0
 25 24  2  0
 25 26  1  0
 26 27  2  0
 27 28  1  0
 29 28  2  0
 30 31  1  0
 30 22  1  0
 32 30  2  0
M  END
$$$$
