CCN.pdb
     RDKit          3D

 21 20  0  0  1  0  0  0  0  0999 V2000
    8.3547  -12.4964   20.0299 N   0  0  0  0  0  0  0  0  0  0  0  0
    7.4970  -13.3202   20.8779 C   0  0  1  0  0  0  0  0  0  0  0  0
    7.5067  -14.7633   20.4198 C   0  0  0  0  0  0  0  0  0  0  0  0
    6.2361  -15.0379   19.1484 S   0  0  0  0  0  0  0  0  0  0  0  0
    7.9633  -13.2978   22.2882 C   0  0  0  0  0  0  0  0  0  0  0  0
    9.1661  -13.0219   22.5309 O   0  0  0  0  0  0  0  0  0  0  0  0
    7.1229  -13.5728   23.3994 N   0  0  0  0  0  0  0  0  0  0  0  0
    7.4780  -13.2948   24.7594 C   0  0  1  0  0  0  0  0  0  0  0  0
    6.4390  -12.4839   25.4978 C   0  0  0  0  0  0  0  0  0  0  0  0
    6.9367  -12.3040   27.2316 S   0  0  0  0  0  0  0  0  0  0  0  0
    7.8055  -14.5527   25.4566 C   0  0  0  0  0  0  0  0  0  0  0  0
    8.1592  -14.5302   26.6846 O   0  0  0  0  0  0  0  0  0  0  0  0
   12.3727  -16.3967   24.2230 N   0  0  0  0  0  0  0  0  0  0  0  0
   11.1481  -16.9145   23.7385 C   0  0  0  0  0  0  0  0  0  0  0  0
   11.1141  -18.0711   23.2712 O   0  0  0  0  0  0  0  0  0  0  0  0
    9.9443  -16.0547   23.8063 C   0  0  0  0  0  0  0  0  0  0  0  0
    8.9239  -16.6511   24.7511 C   0  0  2  0  0  0  0  0  0  0  0  0
    7.7521  -15.8249   24.8342 N   0  0  0  0  0  0  0  0  0  0  0  0
    9.5148  -16.9259   26.0856 C   0  0  0  0  0  0  0  0  0  0  0  0
    9.4519  -16.1359   27.0528 O   0  0  0  0  0  0  0  0  0  0  0  0
   10.1747  -18.1296   26.2677 O   0  0  0  0  0  0  0  0  0  0  0  0
  2  1  1  6
  3  4  1  0
  3  2  1  0
  5  2  1  0
  5  6  2  0
  7  5  1  0
  8  7  1  0
  8 11  1  0
  8  9  1  1
 10  9  1  0
 11 18  1  0
 12 11  2  0
 13 14  1  0
 14 15  2  0
 16 14  1  0
 17 16  1  6
 17 19  1  0
 18 17  1  0
 19 20  2  0
 19 21  1  0
M  END
$$$$
