CCN.pdb
     RDKit          3D

 21 20  0  0  1  0  0  0  0  0999 V2000
    7.9268  -13.2365   19.8978 N   0  0  0  0  0  0  0  0  0  0  0  0
    7.2043  -14.0323   20.8868 C   0  0  1  0  0  0  0  0  0  0  0  0
    7.0098  -15.4534   20.4020 C   0  0  0  0  0  0  0  0  0  0  0  0
    6.0899  -16.4270   21.6317 S   0  0  0  0  0  0  0  0  0  0  0  0
    7.9537  -14.0976   22.1678 C   0  0  0  0  0  0  0  0  0  0  0  0
    9.1924  -14.3136   22.1420 O   0  0  0  0  0  0  0  0  0  0  0  0
    7.3501  -13.9289   23.4421 N   0  0  0  0  0  0  0  0  0  0  0  0
    8.0699  -13.9698   24.6802 C   0  0  1  0  0  0  0  0  0  0  0  0
    7.3633  -13.2576   25.8098 C   0  0  0  0  0  0  0  0  0  0  0  0
    5.7107  -13.9695   26.0295 S   0  0  0  0  0  0  0  0  0  0  0  0
    8.4005  -15.3667   25.0192 C   0  0  0  0  0  0  0  0  0  0  0  0
    7.4984  -16.2702   24.9598 O   0  0  0  0  0  0  0  0  0  0  0  0
   12.0943  -16.6850   23.0591 N   0  0  0  0  0  0  0  0  0  0  0  0
   11.1287  -17.5088   23.6849 C   0  0  0  0  0  0  0  0  0  0  0  0
   10.2539  -18.0641   22.9895 O   0  0  0  0  0  0  0  0  0  0  0  0
   11.1958  -17.6804   25.1544 C   0  0  0  0  0  0  0  0  0  0  0  0
    9.9375  -17.1478   25.8046 C   0  0  2  0  0  0  0  0  0  0  0  0
    9.6940  -15.7860   25.4192 N   0  0  0  0  0  0  0  0  0  0  0  0
    9.9747  -17.3177   27.2794 C   0  0  0  0  0  0  0  0  0  0  0  0
   10.2066  -18.4054   27.8510 O   0  0  0  0  0  0  0  0  0  0  0  0
    9.7381  -16.2038   28.0672 O   0  0  0  0  0  0  0  0  0  0  0  0
  2  1  1  6
  3  4  1  0
  3  2  1  0
  5  2  1  0
  5  6  2  0
  7  5  1  0
  8  7  1  0
  8 11  1  0
  8  9  1  1
 10  9  1  0
 11 18  1  0
 12 11  2  0
 13 14  1  0
 14 15  2  0
 16 14  1  0
 17 16  1  6
 17 19  1  0
 18 17  1  0
 19 20  2  0
 19 21  1  0
M  END
$$$$
