CCN.pdb
     RDKit          3D

 21 20  0  0  1  0  0  0  0  0999 V2000
    7.8126  -12.5550   19.7903 N   0  0  0  0  0  0  0  0  0  0  0  0
    7.4115  -13.7137   20.5840 C   0  0  1  0  0  0  0  0  0  0  0  0
    7.7353  -15.0042   19.8614 C   0  0  0  0  0  0  0  0  0  0  0  0
    6.7558  -15.1445   18.3359 S   0  0  0  0  0  0  0  0  0  0  0  0
    8.1270  -13.7408   21.8857 C   0  0  0  0  0  0  0  0  0  0  0  0
    9.3736  -13.5755   21.9025 O   0  0  0  0  0  0  0  0  0  0  0  0
    7.4818  -13.9450   23.1341 N   0  0  0  0  0  0  0  0  0  0  0  0
    8.1634  -13.9582   24.3943 C   0  0  1  0  0  0  0  0  0  0  0  0
    7.3285  -13.4241   25.5345 C   0  0  0  0  0  0  0  0  0  0  0  0
    5.8616  -14.4679   25.7465 S   0  0  0  0  0  0  0  0  0  0  0  0
    8.6823  -15.3117   24.6668 C   0  0  0  0  0  0  0  0  0  0  0  0
    8.0627  -16.3364   24.2198 O   0  0  0  0  0  0  0  0  0  0  0  0
   11.7485  -17.4865   22.6131 N   0  0  0  0  0  0  0  0  0  0  0  0
   11.6914  -18.0233   23.9211 C   0  0  0  0  0  0  0  0  0  0  0  0
   11.6194  -19.2598   24.0733 O   0  0  0  0  0  0  0  0  0  0  0  0
   11.7196  -17.0870   25.0682 C   0  0  0  0  0  0  0  0  0  0  0  0
   10.3268  -16.8996   25.6291 C   0  0  2  0  0  0  0  0  0  0  0  0
    9.8602  -15.5583   25.4154 N   0  0  0  0  0  0  0  0  0  0  0  0
   10.2585  -17.2986   27.0579 C   0  0  0  0  0  0  0  0  0  0  0  0
   10.0268  -16.5031   27.9944 O   0  0  0  0  0  0  0  0  0  0  0  0
   10.4641  -18.6320   27.3699 O   0  0  0  0  0  0  0  0  0  0  0  0
  2  1  1  6
  3  4  1  0
  3  2  1  0
  5  2  1  0
  5  6  2  0
  7  5  1  0
  8  7  1  0
  8 11  1  0
  8  9  1  1
 10  9  1  0
 11 18  1  0
 12 11  2  0
 13 14  1  0
 14 15  2  0
 16 14  1  0
 17 16  1  1
 17 19  1  0
 18 17  1  0
 19 20  2  0
 19 21  1  0
M  END
$$$$
