CCN.pdb
     RDKit          3D

 21 20  0  0  1  0  0  0  0  0999 V2000
    7.9431  -12.9538   19.1061 N   0  0  0  0  0  0  0  0  0  0  0  0
    7.3473  -13.9475   19.9953 C   0  0  1  0  0  0  0  0  0  0  0  0
    7.3998  -15.3288   19.3775 C   0  0  0  0  0  0  0  0  0  0  0  0
    6.6510  -16.5552   20.4917 S   0  0  0  0  0  0  0  0  0  0  0  0
    8.0764  -14.0102   21.2882 C   0  0  0  0  0  0  0  0  0  0  0  0
    9.3264  -13.8716   21.2932 O   0  0  0  0  0  0  0  0  0  0  0  0
    7.4409  -14.2201   22.5406 N   0  0  0  0  0  0  0  0  0  0  0  0
    8.1449  -14.3791   23.7784 C   0  0  1  0  0  0  0  0  0  0  0  0
    7.2627  -14.2258   24.9952 C   0  0  0  0  0  0  0  0  0  0  0  0
    6.6694  -12.5159   25.0966 S   0  0  0  0  0  0  0  0  0  0  0  0
    8.8765  -15.6598   23.7753 C   0  0  0  0  0  0  0  0  0  0  0  0
    8.3158  -16.7159   23.3239 O   0  0  0  0  0  0  0  0  0  0  0  0
   13.3600  -18.9487   22.9786 N   0  0  0  0  0  0  0  0  0  0  0  0
   13.0129  -18.2491   24.1587 C   0  0  0  0  0  0  0  0  0  0  0  0
   13.2791  -18.7517   25.2695 O   0  0  0  0  0  0  0  0  0  0  0  0
   12.3411  -16.9359   24.0269 C   0  0  0  0  0  0  0  0  0  0  0  0
   10.8520  -17.0813   24.2532 C   0  0  2  0  0  0  0  0  0  0  0  0
   10.2026  -15.8004   24.2555 N   0  0  0  0  0  0  0  0  0  0  0  0
   10.5634  -17.8612   25.4836 C   0  0  0  0  0  0  0  0  0  0  0  0
   10.6685  -19.1047   25.5624 O   0  0  0  0  0  0  0  0  0  0  0  0
   10.1535  -17.1680   26.6101 O   0  0  0  0  0  0  0  0  0  0  0  0
  2  1  1  6
  3  4  1  0
  3  2  1  0
  5  2  1  0
  5  6  2  0
  7  5  1  0
  8  7  1  0
  8 11  1  0
  8  9  1  1
 10  9  1  0
 11 18  1  0
 12 11  2  0
 13 14  1  0
 14 15  2  0
 16 14  1  0
 17 16  1  1
 17 19  1  0
 18 17  1  0
 19 20  2  0
 19 21  1  0
M  END
$$$$
