CCN.pdb
     RDKit          3D

 21 20  0  0  1  0  0  0  0  0999 V2000
    7.7837  -15.2401   20.7403 N   0  0  0  0  0  0  0  0  0  0  0  0
    7.1242  -15.4189   22.0312 C   0  0  1  0  0  0  0  0  0  0  0  0
    6.9202  -16.8877   22.3370 C   0  0  0  0  0  0  0  0  0  0  0  0
    6.1272  -17.0977   23.9597 S   0  0  0  0  0  0  0  0  0  0  0  0
    7.9418  -14.8448   23.1307 C   0  0  0  0  0  0  0  0  0  0  0  0
    9.1920  -14.9770   23.0971 O   0  0  0  0  0  0  0  0  0  0  0  0
    7.3921  -14.1438   24.2366 N   0  0  0  0  0  0  0  0  0  0  0  0
    8.1635  -13.6698   25.3471 C   0  0  1  0  0  0  0  0  0  0  0  0
    7.4675  -12.5932   26.1462 C   0  0  0  0  0  0  0  0  0  0  0  0
    5.7840  -13.1339   26.5459 S   0  0  0  0  0  0  0  0  0  0  0  0
    8.5810  -14.8084   26.1867 C   0  0  0  0  0  0  0  0  0  0  0  0
    7.8689  -15.8690   26.2266 O   0  0  0  0  0  0  0  0  0  0  0  0
   11.1262  -18.3017   28.6692 N   0  0  0  0  0  0  0  0  0  0  0  0
   11.8277  -17.8579   27.5232 C   0  0  0  0  0  0  0  0  0  0  0  0
   12.7738  -18.5413   27.0813 O   0  0  0  0  0  0  0  0  0  0  0  0
   11.4068  -16.5880   26.8880 C   0  0  0  0  0  0  0  0  0  0  0  0
   10.2168  -16.0037   27.6175 C   0  0  2  0  0  0  0  0  0  0  0  0
    9.7574  -14.8031   26.9773 N   0  0  0  0  0  0  0  0  0  0  0  0
   10.5112  -15.7964   29.0583 C   0  0  0  0  0  0  0  0  0  0  0  0
   10.4373  -14.6885   29.6333 O   0  0  0  0  0  0  0  0  0  0  0  0
   10.8902  -16.8971   29.8082 O   0  0  0  0  0  0  0  0  0  0  0  0
  2  1  1  6
  3  4  1  0
  3  2  1  0
  5  2  1  0
  5  6  2  0
  7  5  1  0
  8  7  1  0
  8 11  1  0
  8  9  1  1
 10  9  1  0
 11 18  1  0
 12 11  2  0
 13 14  1  0
 14 15  2  0
 16 14  1  0
 17 16  1  6
 17 19  1  0
 18 17  1  0
 19 20  2  0
 19 21  1  0
M  END
$$$$
