ITV.pdb
     RDKit          3D

 23 22  0  0  1  0  0  0  0  0999 V2000
    7.9789  -12.1536   17.5826 C   0  0  0  0  0  0  0  0  0  0  0  0
    8.6367  -13.4960   17.8743 C   0  0  0  0  0  0  0  0  0  0  0  0
    8.0021  -14.0401   19.1265 C   0  0  2  0  0  0  0  0  0  0  0  0
    8.2455  -13.1121   20.2991 C   0  0  0  0  0  0  0  0  0  0  0  0
    8.5176  -15.3966   19.5085 C   0  0  2  0  0  0  0  0  0  0  0  0
    8.1552  -16.3299   18.4402 N   0  0  0  0  0  0  0  0  0  0  0  0
    7.9673  -15.9066   20.7724 C   0  0  0  0  0  0  0  0  0  0  0  0
    7.0219  -16.7438   20.8066 O   0  0  0  0  0  0  0  0  0  0  0  0
    7.5365  -18.1957   22.0863 C   0  0  0  0  0  0  0  0  0  0  0  0
    8.3037  -17.5378   23.2164 C   0  0  1  0  0  0  0  0  0  0  0  0
    9.6505  -17.7985   23.1014 O   0  0  0  0  0  0  0  0  0  0  0  0
    7.9764  -16.0621   23.2911 C   0  0  2  0  0  0  0  0  0  0  0  0
    8.4743  -15.4810   22.0352 N   0  0  0  0  0  0  0  0  0  0  0  0
    8.6567  -15.4033   24.4437 C   0  0  0  0  0  0  0  0  0  0  0  0
    9.8465  -15.0722   24.3723 O   0  0  0  0  0  0  0  0  0  0  0  0
    7.5562  -12.2350   27.9033 C   0  0  0  0  0  0  0  0  0  0  0  0
    7.0781  -13.2935   26.9253 C   0  0  1  0  0  0  0  0  0  0  0  0
    6.5324  -12.6553   25.6809 C   0  0  0  0  0  0  0  0  0  0  0  0
    8.2953  -14.1524   26.5911 C   0  0  2  0  0  0  0  0  0  0  0  0
    7.9120  -15.1616   25.6290 N   0  0  0  0  0  0  0  0  0  0  0  0
    8.8340  -14.8049   27.7934 C   0  0  0  0  0  0  0  0  0  0  0  0
    9.7855  -14.1965   28.6111 O   0  0  0  0  0  0  0  0  0  0  0  0
    8.4318  -15.9508   28.1066 O   0  0  0  0  0  0  0  0  0  0  0  0
  2  3  1  0
  2  1  1  0
  3  4  1  1
  5  7  1  0
  5  3  1  0
  5  6  1  6
  7  8  2  0
 10 12  1  0
 10  9  1  6
 11 10  1  0
 12 13  1  6
 13  7  1  0
 14 20  1  0
 14 12  1  0
 15 14  2  0
 17 16  1  1
 17 18  1  0
 19 20  1  6
 19 17  1  0
 21 22  1  0
 21 19  1  0
 23 21  2  0
M  END
$$$$
