ITV.pdb
     RDKit          3D

 23 22  0  0  1  0  0  0  0  0999 V2000
    8.0343  -12.1730   17.9326 C   0  0  0  0  0  0  0  0  0  0  0  0
    8.3767  -13.6426   18.1396 C   0  0  0  0  0  0  0  0  0  0  0  0
    7.7973  -14.0520   19.4675 C   0  0  2  0  0  0  0  0  0  0  0  0
    8.3271  -13.1702   20.5799 C   0  0  0  0  0  0  0  0  0  0  0  0
    8.1047  -15.4746   19.8327 C   0  0  2  0  0  0  0  0  0  0  0  0
    7.4290  -16.3408   18.8648 N   0  0  0  0  0  0  0  0  0  0  0  0
    7.6561  -15.8519   21.1806 C   0  0  0  0  0  0  0  0  0  0  0  0
    6.4373  -16.0343   21.4588 O   0  0  0  0  0  0  0  0  0  0  0  0
    8.2147  -18.7416   23.1009 C   0  0  0  0  0  0  0  0  0  0  0  0
    8.7299  -17.6367   24.0023 C   0  0  1  0  0  0  0  0  0  0  0  0
   10.1064  -17.6223   24.0097 O   0  0  0  0  0  0  0  0  0  0  0  0
    8.1120  -16.3090   23.6201 C   0  0  2  0  0  0  0  0  0  0  0  0
    8.5782  -16.0332   22.2528 N   0  0  0  0  0  0  0  0  0  0  0  0
    8.5596  -15.2109   24.5251 C   0  0  0  0  0  0  0  0  0  0  0  0
    9.5518  -14.5261   24.2481 O   0  0  0  0  0  0  0  0  0  0  0  0
    7.2207  -12.1089   28.0278 C   0  0  0  0  0  0  0  0  0  0  0  0
    6.8287  -13.2281   27.0793 C   0  0  1  0  0  0  0  0  0  0  0  0
    6.0536  -12.6857   25.9137 C   0  0  0  0  0  0  0  0  0  0  0  0
    8.1319  -13.8631   26.6006 C   0  0  2  0  0  0  0  0  0  0  0  0
    7.8238  -14.9641   25.7151 N   0  0  0  0  0  0  0  0  0  0  0  0
    8.9318  -14.3563   27.7312 C   0  0  0  0  0  0  0  0  0  0  0  0
    9.0975  -15.7158   27.9928 O   0  0  0  0  0  0  0  0  0  0  0  0
    9.4912  -13.5350   28.4965 O   0  0  0  0  0  0  0  0  0  0  0  0
  2  3  1  0
  2  1  1  0
  3  4  1  1
  5  7  1  0
  5  3  1  0
  5  6  1  6
  7  8  2  0
 10 12  1  0
 10  9  1  6
 11 10  1  0
 12 13  1  6
 13  7  1  0
 14 20  1  0
 14 12  1  0
 15 14  2  0
 17 16  1  1
 17 18  1  0
 19 20  1  6
 19 17  1  0
 21 22  1  0
 21 19  1  0
 23 21  2  0
M  END
$$$$
