ITV.pdb
     RDKit          3D

 23 22  0  0  1  0  0  0  0  0999 V2000
    6.0333  -10.6960   26.9867 C   0  0  0  0  0  0  0  0  0  0  0  0
    5.4725  -11.8289   26.1371 C   0  0  0  0  0  0  0  0  0  0  0  0
    6.5700  -12.8461   25.9708 C   0  0  2  0  0  0  0  0  0  0  0  0
    7.7761  -12.2293   25.2924 C   0  0  0  0  0  0  0  0  0  0  0  0
    6.1535  -14.0369   25.1582 C   0  0  2  0  0  0  0  0  0  0  0  0
    4.9271  -14.5752   25.7497 N   0  0  0  0  0  0  0  0  0  0  0  0
    7.1568  -15.1103   25.1205 C   0  0  0  0  0  0  0  0  0  0  0  0
    7.3145  -15.9193   26.0780 O   0  0  0  0  0  0  0  0  0  0  0  0
   10.6351  -17.4668   22.4415 C   0  0  0  0  0  0  0  0  0  0  0  0
    9.5354  -16.4303   22.5636 C   0  0  1  0  0  0  0  0  0  0  0  0
    8.5247  -16.6909   21.6660 O   0  0  0  0  0  0  0  0  0  0  0  0
    9.0610  -16.3267   23.9971 C   0  0  2  0  0  0  0  0  0  0  0  0
    8.0109  -15.2971   23.9943 N   0  0  0  0  0  0  0  0  0  0  0  0
   10.1609  -15.9075   24.9137 C   0  0  0  0  0  0  0  0  0  0  0  0
   10.9881  -15.0570   24.5634 O   0  0  0  0  0  0  0  0  0  0  0  0
   11.9583  -15.0876   29.1810 C   0  0  0  0  0  0  0  0  0  0  0  0
   10.8469  -15.2053   28.1531 C   0  0  1  0  0  0  0  0  0  0  0  0
   10.5869  -13.8781   27.5016 C   0  0  0  0  0  0  0  0  0  0  0  0
   11.3237  -16.2205   27.1174 C   0  0  2  0  0  0  0  0  0  0  0  0
   10.2421  -16.5040   26.2004 N   0  0  0  0  0  0  0  0  0  0  0  0
   11.7604  -17.4702   27.7571 C   0  0  0  0  0  0  0  0  0  0  0  0
   13.0903  -17.7084   28.1015 O   0  0  0  0  0  0  0  0  0  0  0  0
   10.9162  -18.3632   28.0078 O   0  0  0  0  0  0  0  0  0  0  0  0
  2  3  1  0
  2  1  1  0
  3  4  1  6
  5  7  1  0
  5  3  1  0
  5  6  1  1
  7  8  2  0
 10 12  1  0
 10  9  1  1
 11 10  1  0
 12 13  1  6
 13  7  1  0
 14 20  1  0
 14 12  1  0
 15 14  2  0
 17 16  1  1
 17 18  1  0
 19 20  1  6
 19 17  1  0
 21 22  1  0
 21 19  1  0
 23 21  2  0
M  END
$$$$
