ITV.pdb
     RDKit          3D

 23 22  0  0  1  0  0  0  0  0999 V2000
    7.2001  -12.3885   18.8782 C   0  0  0  0  0  0  0  0  0  0  0  0
    7.9435  -13.6405   19.3251 C   0  0  0  0  0  0  0  0  0  0  0  0
    7.9441  -13.6445   20.8306 C   0  0  2  0  0  0  0  0  0  0  0  0
    8.6750  -12.4324   21.3710 C   0  0  0  0  0  0  0  0  0  0  0  0
    8.5935  -14.8633   21.4178 C   0  0  2  0  0  0  0  0  0  0  0  0
    8.1152  -16.0284   20.6712 N   0  0  0  0  0  0  0  0  0  0  0  0
    8.2892  -15.0709   22.8406 C   0  0  0  0  0  0  0  0  0  0  0  0
    8.3398  -14.1322   23.6846 O   0  0  0  0  0  0  0  0  0  0  0  0
    6.7183  -18.2565   26.3365 C   0  0  0  0  0  0  0  0  0  0  0  0
    7.0289  -17.9277   24.8894 C   0  0  1  0  0  0  0  0  0  0  0  0
    5.9054  -18.0789   24.1083 O   0  0  0  0  0  0  0  0  0  0  0  0
    7.6625  -16.5576   24.7810 C   0  0  2  0  0  0  0  0  0  0  0  0
    7.9184  -16.3509   23.3476 N   0  0  0  0  0  0  0  0  0  0  0  0
    8.9516  -16.4848   25.5282 C   0  0  0  0  0  0  0  0  0  0  0  0
   10.0033  -16.8902   25.0184 O   0  0  0  0  0  0  0  0  0  0  0  0
    9.7563  -13.3606   27.5678 C   0  0  0  0  0  0  0  0  0  0  0  0
   10.0196  -14.5329   28.4964 C   0  0  1  0  0  0  0  0  0  0  0  0
    8.8785  -14.7143   29.4549 C   0  0  0  0  0  0  0  0  0  0  0  0
   10.1650  -15.7640   27.6054 C   0  0  2  0  0  0  0  0  0  0  0  0
    8.9507  -15.9398   26.8401 N   0  0  0  0  0  0  0  0  0  0  0  0
   10.4175  -16.9729   28.4031 C   0  0  0  0  0  0  0  0  0  0  0  0
    9.4330  -17.9317   28.6391 O   0  0  0  0  0  0  0  0  0  0  0  0
   11.5555  -17.1612   28.8954 O   0  0  0  0  0  0  0  0  0  0  0  0
  2  3  1  0
  2  1  1  0
  3  4  1  1
  5  7  1  0
  5  3  1  0
  5  6  1  6
  7  8  2  0
 10 12  1  0
 10  9  1  1
 11 10  1  0
 12 13  1  6
 13  7  1  0
 14 20  1  0
 14 12  1  0
 15 14  2  0
 17 16  1  6
 17 18  1  0
 19 20  1  1
 19 17  1  0
 21 22  1  0
 21 19  1  0
 23 21  2  0
M  END
$$$$
