ITV.pdb
     RDKit          3D

 23 22  0  0  1  0  0  0  0  0999 V2000
    8.2269  -12.2726   18.1779 C   0  0  0  0  0  0  0  0  0  0  0  0
    8.5297  -13.7508   18.3854 C   0  0  0  0  0  0  0  0  0  0  0  0
    7.7755  -14.1921   19.6114 C   0  0  2  0  0  0  0  0  0  0  0  0
    8.1739  -13.3624   20.8149 C   0  0  0  0  0  0  0  0  0  0  0  0
    8.0056  -15.6335   19.9594 C   0  0  2  0  0  0  0  0  0  0  0  0
    7.3902  -16.4503   18.9116 N   0  0  0  0  0  0  0  0  0  0  0  0
    7.4297  -16.0315   21.2518 C   0  0  0  0  0  0  0  0  0  0  0  0
    6.1833  -16.1321   21.4319 O   0  0  0  0  0  0  0  0  0  0  0  0
    7.5595  -18.1738   25.5562 C   0  0  0  0  0  0  0  0  0  0  0  0
    7.9999  -17.9172   24.1284 C   0  0  1  0  0  0  0  0  0  0  0  0
    7.4744  -18.8682   23.2830 O   0  0  0  0  0  0  0  0  0  0  0  0
    7.6740  -16.4968   23.7200 C   0  0  2  0  0  0  0  0  0  0  0  0
    8.2520  -16.3270   22.3784 N   0  0  0  0  0  0  0  0  0  0  0  0
    8.2829  -15.5016   24.6495 C   0  0  0  0  0  0  0  0  0  0  0  0
    9.4942  -15.2538   24.6076 O   0  0  0  0  0  0  0  0  0  0  0  0
    7.4383  -11.9369   27.9156 C   0  0  0  0  0  0  0  0  0  0  0  0
    6.8163  -12.9806   27.0048 C   0  0  1  0  0  0  0  0  0  0  0  0
    6.1573  -12.3269   25.8249 C   0  0  0  0  0  0  0  0  0  0  0  0
    7.9570  -13.8837   26.5423 C   0  0  2  0  0  0  0  0  0  0  0  0
    7.4448  -14.8407   25.5870 N   0  0  0  0  0  0  0  0  0  0  0  0
    8.5618  -14.6010   27.6742 C   0  0  0  0  0  0  0  0  0  0  0  0
    9.7104  -14.1453   28.3200 O   0  0  0  0  0  0  0  0  0  0  0  0
    8.0356  -15.6631   28.0842 O   0  0  0  0  0  0  0  0  0  0  0  0
  2  3  1  0
  2  1  1  0
  3  4  1  1
  5  7  1  0
  5  3  1  0
  5  6  1  6
  7  8  2  0
 10 12  1  0
 10  9  1  1
 11 10  1  0
 12 13  1  6
 13  7  1  0
 14 20  1  0
 14 12  1  0
 15 14  2  0
 17 16  1  1
 17 18  1  0
 19 20  1  6
 19 17  1  0
 21 22  1  0
 21 19  1  0
 23 21  2  0
M  END
$$$$
