ALF.pdb
     RDKit          3D

 25 25  0  0  1  0  0  0  0  0999 V2000
   11.1550  -19.2804   20.4514 C   0  0  0  0  0  0  0  0  0  0  0  0
   11.1241  -17.8934   19.8963 C   0  0  2  0  0  0  0  0  0  0  0  0
   12.4102  -17.5399   19.3178 N   0  0  0  0  0  0  0  0  0  0  0  0
   10.6913  -16.8863   20.9028 C   0  0  0  0  0  0  0  0  0  0  0  0
   11.5316  -16.5015   21.7445 O   0  0  0  0  0  0  0  0  0  0  0  0
    6.6562  -13.2542   19.7440 C   0  0  0  0  0  0  0  0  0  0  0  0
    7.9537  -13.8653   20.2434 C   0  0  1  0  0  0  0  0  0  0  0  0
    8.8198  -12.6600   20.6452 C   0  0  0  0  0  0  0  0  0  0  0  0
    7.6804  -14.7229   21.4485 C   0  0  0  0  0  0  0  0  0  0  0  0
    8.8953  -15.4328   21.9321 C   0  0  2  0  0  0  0  0  0  0  0  0
    9.3915  -16.3752   20.9221 N   0  0  0  0  0  0  0  0  0  0  0  0
    8.6905  -16.1465   23.2216 C   0  0  0  0  0  0  0  0  0  0  0  0
    8.5567  -17.3691   23.2956 O   0  0  0  0  0  0  0  0  0  0  0  0
    8.6410  -15.4102   24.4572 N   0  0  0  0  0  0  0  0  0  0  0  0
    8.4561  -16.0756   25.7312 C   0  0  1  0  0  0  0  0  0  0  0  0
    8.6275  -15.0746   26.8262 C   0  0  0  0  0  0  0  0  0  0  0  0
    7.7968  -13.8816   26.7276 C   0  0  0  0  0  0  0  0  0  0  0  0
    6.4238  -13.9504   26.4913 C   0  0  0  0  0  0  0  0  0  0  0  0
    5.7366  -12.7702   26.4173 C   0  0  0  0  0  0  0  0  0  0  0  0
    6.3733  -11.5519   26.5703 C   0  0  0  0  0  0  0  0  0  0  0  0
    7.7203  -11.4635   26.8028 C   0  0  0  0  0  0  0  0  0  0  0  0
    8.4233  -12.6480   26.8793 C   0  0  0  0  0  0  0  0  0  0  0  0
    7.1722  -16.7687   25.7281 C   0  0  0  0  0  0  0  0  0  0  0  0
    6.8220  -17.7374   26.6616 O   0  0  0  0  0  0  0  0  0  0  0  0
    6.3102  -16.5051   24.8524 O   0  0  0  0  0  0  0  0  0  0  0  0
  2  1  1  1
  2  4  1  0
  3  2  1  0
  4 11  1  0
  4  5  2  0
  7  6  1  1
  7  8  1  0
  9  7  1  0
 10  9  1  6
 11 10  1  0
 12 10  1  0
 12 13  2  0
 14 12  1  0
 15 14  1  0
 15 16  1  1
 17 16  1  0
 17 18  2  0
 19 18  1  0
 20 19  2  0
 21 22  2  0
 21 20  1  0
 22 17  1  0
 23 15  1  0
 24 23  1  0
 25 23  2  0
M  END
$$$$
