ALF.pdb
     RDKit          3D

 25 25  0  0  1  0  0  0  0  0999 V2000
    8.7557  -18.6688   18.9720 C   0  0  0  0  0  0  0  0  0  0  0  0
    8.8664  -18.5735   20.4591 C   0  0  2  0  0  0  0  0  0  0  0  0
    7.5797  -18.8204   21.0896 N   0  0  0  0  0  0  0  0  0  0  0  0
    9.4448  -17.2771   20.9056 C   0  0  0  0  0  0  0  0  0  0  0  0
   10.6550  -17.0657   20.6747 O   0  0  0  0  0  0  0  0  0  0  0  0
    6.7099  -12.8826   20.0454 C   0  0  0  0  0  0  0  0  0  0  0  0
    7.8342  -13.8831   20.2479 C   0  0  1  0  0  0  0  0  0  0  0  0
    9.0002  -13.3296   19.4121 C   0  0  0  0  0  0  0  0  0  0  0  0
    8.2213  -13.9250   21.7008 C   0  0  0  0  0  0  0  0  0  0  0  0
    9.1910  -15.0123   22.0028 C   0  0  2  0  0  0  0  0  0  0  0  0
    8.6756  -16.3144   21.5634 N   0  0  0  0  0  0  0  0  0  0  0  0
    9.5702  -15.0856   23.4397 C   0  0  0  0  0  0  0  0  0  0  0  0
   10.3174  -14.2663   23.9770 O   0  0  0  0  0  0  0  0  0  0  0  0
    9.0615  -16.1454   24.2702 N   0  0  0  0  0  0  0  0  0  0  0  0
    9.3017  -16.1728   25.6989 C   0  0  1  0  0  0  0  0  0  0  0  0
    8.0129  -15.9160   26.4085 C   0  0  0  0  0  0  0  0  0  0  0  0
    7.5846  -14.5242   26.4572 C   0  0  0  0  0  0  0  0  0  0  0  0
    6.3182  -14.1219   26.0331 C   0  0  0  0  0  0  0  0  0  0  0  0
    6.0166  -12.7908   26.1219 C   0  0  0  0  0  0  0  0  0  0  0  0
    6.9286  -11.8739   26.6126 C   0  0  0  0  0  0  0  0  0  0  0  0
    8.1768  -12.2492   27.0338 C   0  0  0  0  0  0  0  0  0  0  0  0
    8.4915  -13.5897   26.9487 C   0  0  0  0  0  0  0  0  0  0  0  0
    9.9571  -17.4278   26.0509 C   0  0  0  0  0  0  0  0  0  0  0  0
   10.3833  -18.3597   25.1116 O   0  0  0  0  0  0  0  0  0  0  0  0
   10.1657  -17.7194   27.2555 O   0  0  0  0  0  0  0  0  0  0  0  0
  2  1  1  6
  2  4  1  0
  3  2  1  0
  4 11  1  0
  4  5  2  0
  7  6  1  1
  7  8  1  0
  9  7  1  0
 10  9  1  1
 11 10  1  0
 12 10  1  0
 12 13  2  0
 14 12  1  0
 15 14  1  0
 15 16  1  1
 17 16  1  0
 17 18  2  0
 19 18  1  0
 20 19  2  0
 21 22  2  0
 21 20  1  0
 22 17  1  0
 23 15  1  0
 24 23  1  0
 25 23  2  0
M  END
$$$$
