ALF.pdb
     RDKit          3D

 25 25  0  0  1  0  0  0  0  0999 V2000
    8.2701  -18.8280   18.9588 C   0  0  0  0  0  0  0  0  0  0  0  0
    8.3069  -18.7049   20.4475 C   0  0  2  0  0  0  0  0  0  0  0  0
    6.9671  -18.7885   21.0059 N   0  0  0  0  0  0  0  0  0  0  0  0
    9.0028  -17.4699   20.9002 C   0  0  0  0  0  0  0  0  0  0  0  0
   10.2255  -17.3662   20.6619 O   0  0  0  0  0  0  0  0  0  0  0  0
    6.6673  -12.9139   19.8698 C   0  0  0  0  0  0  0  0  0  0  0  0
    7.6995  -13.9974   20.1284 C   0  0  1  0  0  0  0  0  0  0  0  0
    8.9263  -13.5673   19.3071 C   0  0  0  0  0  0  0  0  0  0  0  0
    8.0486  -14.0277   21.5911 C   0  0  0  0  0  0  0  0  0  0  0  0
    8.9398  -15.1662   21.9426 C   0  0  2  0  0  0  0  0  0  0  0  0
    8.3279  -16.4477   21.5716 N   0  0  0  0  0  0  0  0  0  0  0  0
    9.3249  -15.1952   23.3795 C   0  0  0  0  0  0  0  0  0  0  0  0
   10.0849  -14.3676   23.8852 O   0  0  0  0  0  0  0  0  0  0  0  0
    8.8070  -16.2195   24.2479 N   0  0  0  0  0  0  0  0  0  0  0  0
    9.1239  -16.2485   25.6616 C   0  0  1  0  0  0  0  0  0  0  0  0
    7.8910  -15.9198   26.4378 C   0  0  0  0  0  0  0  0  0  0  0  0
    7.4896  -14.5192   26.4232 C   0  0  0  0  0  0  0  0  0  0  0  0
    6.2598  -14.1047   25.9121 C   0  0  0  0  0  0  0  0  0  0  0  0
    5.9812  -12.7660   25.9468 C   0  0  0  0  0  0  0  0  0  0  0  0
    6.8808  -11.8535   26.4676 C   0  0  0  0  0  0  0  0  0  0  0  0
    8.0932  -12.2408   26.9740 C   0  0  0  0  0  0  0  0  0  0  0  0
    8.3844  -13.5889   26.9440 C   0  0  0  0  0  0  0  0  0  0  0  0
    9.7321  -17.5332   25.9903 C   0  0  0  0  0  0  0  0  0  0  0  0
   10.1774  -17.8669   27.2642 O   0  0  0  0  0  0  0  0  0  0  0  0
    9.8795  -18.4117   25.1037 O   0  0  0  0  0  0  0  0  0  0  0  0
  2  1  1  6
  2  4  1  0
  3  2  1  0
  4 11  1  0
  4  5  2  0
  7  6  1  1
  7  8  1  0
  9  7  1  0
 10  9  1  1
 11 10  1  0
 12 10  1  0
 12 13  2  0
 14 12  1  0
 15 14  1  0
 15 16  1  1
 17 16  1  0
 17 18  2  0
 19 18  1  0
 20 19  2  0
 21 22  2  0
 21 20  1  0
 22 17  1  0
 23 15  1  0
 24 23  1  0
 25 23  2  0
M  END
$$$$
