ALF.pdb
     RDKit          3D

 25 25  0  0  1  0  0  0  0  0999 V2000
   10.9800  -19.2559   20.1809 C   0  0  0  0  0  0  0  0  0  0  0  0
   11.0290  -17.8815   19.5965 C   0  0  2  0  0  0  0  0  0  0  0  0
   12.3452  -17.6009   19.0463 N   0  0  0  0  0  0  0  0  0  0  0  0
   10.6176  -16.8334   20.5696 C   0  0  0  0  0  0  0  0  0  0  0  0
   11.4857  -16.3863   21.3502 O   0  0  0  0  0  0  0  0  0  0  0  0
    6.5008  -13.3190   19.3996 C   0  0  0  0  0  0  0  0  0  0  0  0
    7.8268  -13.8508   19.9145 C   0  0  1  0  0  0  0  0  0  0  0  0
    8.6269  -12.5937   20.2938 C   0  0  0  0  0  0  0  0  0  0  0  0
    7.5947  -14.6970   21.1362 C   0  0  0  0  0  0  0  0  0  0  0  0
    8.8341  -15.3713   21.6083 C   0  0  2  0  0  0  0  0  0  0  0  0
    9.3076  -16.3517   20.6240 N   0  0  0  0  0  0  0  0  0  0  0  0
    8.6821  -16.0296   22.9340 C   0  0  0  0  0  0  0  0  0  0  0  0
    8.4773  -17.2379   23.0613 O   0  0  0  0  0  0  0  0  0  0  0  0
    8.7724  -15.2537   24.1429 N   0  0  0  0  0  0  0  0  0  0  0  0
    8.6188  -15.8619   25.4491 C   0  0  1  0  0  0  0  0  0  0  0  0
    8.9045  -14.8345   26.4947 C   0  0  0  0  0  0  0  0  0  0  0  0
    8.0056  -13.6881   26.5166 C   0  0  0  0  0  0  0  0  0  0  0  0
    7.8257  -12.8645   25.4053 C   0  0  0  0  0  0  0  0  0  0  0  0
    6.9577  -11.8150   25.5319 C   0  0  0  0  0  0  0  0  0  0  0  0
    6.2814  -11.5746   26.7142 C   0  0  0  0  0  0  0  0  0  0  0  0
    6.4446  -12.3716   27.8162 C   0  0  0  0  0  0  0  0  0  0  0  0
    7.3178  -13.4333   27.6995 C   0  0  0  0  0  0  0  0  0  0  0  0
    7.2998  -16.4789   25.5387 C   0  0  0  0  0  0  0  0  0  0  0  0
    6.9643  -17.4360   26.4893 O   0  0  0  0  0  0  0  0  0  0  0  0
    6.3913  -16.1557   24.7326 O   0  0  0  0  0  0  0  0  0  0  0  0
  2  1  1  1
  2  4  1  0
  3  2  1  0
  4 11  1  0
  4  5  2  0
  7  6  1  1
  7  8  1  0
  9  7  1  0
 10  9  1  6
 11 10  1  0
 12 10  1  0
 12 13  2  0
 14 12  1  0
 15 14  1  0
 15 16  1  1
 17 16  1  0
 17 18  2  0
 19 18  1  0
 20 19  2  0
 21 22  2  0
 21 20  1  0
 22 17  1  0
 23 15  1  0
 24 23  1  0
 25 23  2  0
M  END
$$$$
