ALF.pdb
     RDKit          3D

 25 25  0  0  1  0  0  0  0  0999 V2000
    7.1338  -19.4704   22.0215 C   0  0  0  0  0  0  0  0  0  0  0  0
    7.2945  -18.4977   20.8986 C   0  0  2  0  0  0  0  0  0  0  0  0
    7.5860  -19.1897   19.6536 N   0  0  0  0  0  0  0  0  0  0  0  0
    8.3176  -17.4567   21.1884 C   0  0  0  0  0  0  0  0  0  0  0  0
    9.5171  -17.7411   20.9809 O   0  0  0  0  0  0  0  0  0  0  0  0
    7.0446  -12.4236   20.0208 C   0  0  0  0  0  0  0  0  0  0  0  0
    7.8023  -13.7253   20.2147 C   0  0  1  0  0  0  0  0  0  0  0  0
    8.9585  -13.6546   19.2033 C   0  0  0  0  0  0  0  0  0  0  0  0
    8.3503  -13.7905   21.6139 C   0  0  0  0  0  0  0  0  0  0  0  0
    8.9328  -15.1207   21.9382 C   0  0  2  0  0  0  0  0  0  0  0  0
    7.9681  -16.1957   21.6770 N   0  0  0  0  0  0  0  0  0  0  0  0
    9.4285  -15.2251   23.3373 C   0  0  0  0  0  0  0  0  0  0  0  0
   10.4533  -14.6633   23.7275 O   0  0  0  0  0  0  0  0  0  0  0  0
    8.7059  -16.0073   24.3055 N   0  0  0  0  0  0  0  0  0  0  0  0
    9.0980  -16.0408   25.7002 C   0  0  1  0  0  0  0  0  0  0  0  0
    7.9222  -15.6619   26.5395 C   0  0  0  0  0  0  0  0  0  0  0  0
    7.5656  -14.2492   26.5268 C   0  0  0  0  0  0  0  0  0  0  0  0
    8.4833  -13.2490   26.8474 C   0  0  0  0  0  0  0  0  0  0  0  0
    8.0456  -11.9538   26.8038 C   0  0  0  0  0  0  0  0  0  0  0  0
    6.7438  -11.6419   26.4557 C   0  0  0  0  0  0  0  0  0  0  0  0
    5.8280  -12.6096   26.1377 C   0  0  0  0  0  0  0  0  0  0  0  0
    6.2590  -13.9195   26.1784 C   0  0  0  0  0  0  0  0  0  0  0  0
    9.6750  -17.3457   26.0048 C   0  0  0  0  0  0  0  0  0  0  0  0
    9.8353  -18.3524   25.0597 O   0  0  0  0  0  0  0  0  0  0  0  0
   10.0595  -17.6136   27.1709 O   0  0  0  0  0  0  0  0  0  0  0  0
  2  1  1  1
  2  4  1  0
  3  2  1  0
  4 11  1  0
  4  5  2  0
  7  6  1  1
  7  8  1  0
  9  7  1  0
 10  9  1  1
 11 10  1  0
 12 10  1  0
 12 13  2  0
 14 12  1  0
 15 14  1  0
 15 16  1  1
 17 16  1  0
 17 18  2  0
 19 18  1  0
 20 19  2  0
 21 22  2  0
 21 20  1  0
 22 17  1  0
 23 15  1  0
 24 23  1  0
 25 23  2  0
M  END
$$$$
