ALF.pdb
     RDKit          3D

 25 25  0  0  1  0  0  0  0  0999 V2000
    8.4279  -18.8059   18.8637 C   0  0  0  0  0  0  0  0  0  0  0  0
    8.4813  -18.6692   20.3507 C   0  0  2  0  0  0  0  0  0  0  0  0
    7.1562  -18.8161   20.9307 N   0  0  0  0  0  0  0  0  0  0  0  0
    9.1205  -17.3970   20.7836 C   0  0  0  0  0  0  0  0  0  0  0  0
   10.3313  -17.2313   20.5208 O   0  0  0  0  0  0  0  0  0  0  0  0
    6.6444  -12.8688   19.8916 C   0  0  0  0  0  0  0  0  0  0  0  0
    7.7177  -13.9204   20.1115 C   0  0  1  0  0  0  0  0  0  0  0  0
    8.9304  -13.4077   19.3171 C   0  0  0  0  0  0  0  0  0  0  0  0
    8.0604  -13.9984   21.5739 C   0  0  0  0  0  0  0  0  0  0  0  0
    8.9812  -15.1248   21.8859 C   0  0  2  0  0  0  0  0  0  0  0  0
    8.4063  -16.4073   21.4630 N   0  0  0  0  0  0  0  0  0  0  0  0
    9.3614  -15.1986   23.3226 C   0  0  0  0  0  0  0  0  0  0  0  0
   10.1558  -14.4152   23.8454 O   0  0  0  0  0  0  0  0  0  0  0  0
    8.7970  -16.2158   24.1700 N   0  0  0  0  0  0  0  0  0  0  0  0
    9.0642  -16.2527   25.5938 C   0  0  1  0  0  0  0  0  0  0  0  0
    7.8131  -15.8965   26.3274 C   0  0  0  0  0  0  0  0  0  0  0  0
    7.5646  -14.4710   26.4981 C   0  0  0  0  0  0  0  0  0  0  0  0
    8.5526  -13.5934   26.9444 C   0  0  0  0  0  0  0  0  0  0  0  0
    8.2146  -12.2739   27.0694 C   0  0  0  0  0  0  0  0  0  0  0  0
    6.9432  -11.8214   26.7662 C   0  0  0  0  0  0  0  0  0  0  0  0
    5.9596  -12.6672   26.3266 C   0  0  0  0  0  0  0  0  0  0  0  0
    6.2897  -14.0004   26.1969 C   0  0  0  0  0  0  0  0  0  0  0  0
    9.6316  -17.5510   25.9417 C   0  0  0  0  0  0  0  0  0  0  0  0
    9.9374  -18.5300   25.0034 O   0  0  0  0  0  0  0  0  0  0  0  0
    9.8713  -17.8386   27.1414 O   0  0  0  0  0  0  0  0  0  0  0  0
  2  1  1  6
  2  4  1  0
  3  2  1  0
  4 11  1  0
  4  5  2  0
  7  6  1  1
  7  8  1  0
  9  7  1  0
 10  9  1  1
 11 10  1  0
 12 10  1  0
 12 13  2  0
 14 12  1  0
 15 14  1  0
 15 16  1  1
 17 16  1  0
 17 18  2  0
 19 18  1  0
 20 19  2  0
 21 22  2  0
 21 20  1  0
 22 17  1  0
 23 15  1  0
 24 23  1  0
 25 23  2  0
M  END
$$$$
