ALF.pdb
     RDKit          3D

 25 25  0  0  1  0  0  0  0  0999 V2000
    8.5772  -18.9065   19.0434 C   0  0  0  0  0  0  0  0  0  0  0  0
    8.6485  -18.6981   20.5212 C   0  0  2  0  0  0  0  0  0  0  0  0
    7.3374  -18.8569   21.1291 N   0  0  0  0  0  0  0  0  0  0  0  0
    9.2548  -17.3882   20.8835 C   0  0  0  0  0  0  0  0  0  0  0  0
   10.4565  -17.1997   20.5951 O   0  0  0  0  0  0  0  0  0  0  0  0
    6.7699  -12.8026   19.9034 C   0  0  0  0  0  0  0  0  0  0  0  0
    7.8707  -13.8235   20.1320 C   0  0  1  0  0  0  0  0  0  0  0  0
    9.1125  -13.2096   19.4645 C   0  0  0  0  0  0  0  0  0  0  0  0
    8.1122  -13.9883   21.6074 C   0  0  0  0  0  0  0  0  0  0  0  0
    9.0721  -15.0840   21.9105 C   0  0  2  0  0  0  0  0  0  0  0  0
    8.5204  -16.3886   21.5258 N   0  0  0  0  0  0  0  0  0  0  0  0
    9.4955  -15.1230   23.3364 C   0  0  0  0  0  0  0  0  0  0  0  0
   10.2480  -14.2836   23.8339 O   0  0  0  0  0  0  0  0  0  0  0  0
    9.0260  -16.1716   24.2033 N   0  0  0  0  0  0  0  0  0  0  0  0
    9.2986  -16.1597   25.6265 C   0  0  1  0  0  0  0  0  0  0  0  0
    8.0153  -15.9476   26.3603 C   0  0  0  0  0  0  0  0  0  0  0  0
    7.5643  -14.5656   26.4583 C   0  0  0  0  0  0  0  0  0  0  0  0
    8.3545  -13.5652   27.0245 C   0  0  0  0  0  0  0  0  0  0  0  0
    7.8362  -12.3001   27.0666 C   0  0  0  0  0  0  0  0  0  0  0  0
    6.5772  -12.0176   26.5684 C   0  0  0  0  0  0  0  0  0  0  0  0
    5.7863  -12.9859   26.0088 C   0  0  0  0  0  0  0  0  0  0  0  0
    6.2994  -14.2656   25.9611 C   0  0  0  0  0  0  0  0  0  0  0  0
   10.0182  -17.3766   25.9869 C   0  0  0  0  0  0  0  0  0  0  0  0
   10.4390  -18.3217   25.0584 O   0  0  0  0  0  0  0  0  0  0  0  0
   10.2914  -17.6205   27.1892 O   0  0  0  0  0  0  0  0  0  0  0  0
  2  1  1  6
  2  4  1  0
  3  2  1  0
  4 11  1  0
  4  5  2  0
  7  6  1  1
  7  8  1  0
  9  7  1  0
 10  9  1  1
 11 10  1  0
 12 10  1  0
 12 13  2  0
 14 12  1  0
 15 14  1  0
 15 16  1  1
 17 16  1  0
 17 18  2  0
 19 18  1  0
 20 19  2  0
 21 22  2  0
 21 20  1  0
 22 17  1  0
 23 15  1  0
 24 23  1  0
 25 23  2  0
M  END
$$$$
