ALF.pdb
     RDKit          3D

 25 25  0  0  1  0  0  0  0  0999 V2000
    9.0412  -18.5555   19.1188 C   0  0  0  0  0  0  0  0  0  0  0  0
    9.2101  -18.4974   20.6023 C   0  0  2  0  0  0  0  0  0  0  0  0
    7.9669  -18.8335   21.2772 N   0  0  0  0  0  0  0  0  0  0  0  0
    9.7360  -17.1845   21.0651 C   0  0  0  0  0  0  0  0  0  0  0  0
   10.9474  -16.9400   20.8767 O   0  0  0  0  0  0  0  0  0  0  0  0
    6.6854  -13.0713   20.2185 C   0  0  0  0  0  0  0  0  0  0  0  0
    7.8371  -14.0398   20.4227 C   0  0  1  0  0  0  0  0  0  0  0  0
    8.8772  -13.6328   19.3657 C   0  0  0  0  0  0  0  0  0  0  0  0
    8.4124  -13.8615   21.8011 C   0  0  0  0  0  0  0  0  0  0  0  0
    9.3837  -14.9307   22.1577 C   0  0  2  0  0  0  0  0  0  0  0  0
    8.9175  -16.2422   21.6921 N   0  0  0  0  0  0  0  0  0  0  0  0
    9.6841  -14.9965   23.6135 C   0  0  0  0  0  0  0  0  0  0  0  0
   10.2557  -14.0892   24.2203 O   0  0  0  0  0  0  0  0  0  0  0  0
    9.3055  -16.1546   24.3797 N   0  0  0  0  0  0  0  0  0  0  0  0
    9.4791  -16.2041   25.8175 C   0  0  1  0  0  0  0  0  0  0  0  0
    8.1399  -16.0876   26.4681 C   0  0  0  0  0  0  0  0  0  0  0  0
    7.5015  -14.7814   26.3710 C   0  0  0  0  0  0  0  0  0  0  0  0
    6.2693  -14.6022   25.7424 C   0  0  0  0  0  0  0  0  0  0  0  0
    5.7578  -13.3342   25.7071 C   0  0  0  0  0  0  0  0  0  0  0  0
    6.4321  -12.2665   26.2714 C   0  0  0  0  0  0  0  0  0  0  0  0
    7.6428  -12.4221   26.8928 C   0  0  0  0  0  0  0  0  0  0  0  0
    8.1680  -13.6971   26.9342 C   0  0  0  0  0  0  0  0  0  0  0  0
   10.2301  -17.4046   26.1688 C   0  0  0  0  0  0  0  0  0  0  0  0
   10.7326  -18.2968   25.2286 O   0  0  0  0  0  0  0  0  0  0  0  0
   10.4559  -17.6829   27.3734 O   0  0  0  0  0  0  0  0  0  0  0  0
  2  1  1  6
  2  4  1  0
  3  2  1  0
  4 11  1  0
  4  5  2  0
  7  6  1  1
  7  8  1  0
  9  7  1  0
 10  9  1  1
 11 10  1  0
 12 10  1  0
 12 13  2  0
 14 12  1  0
 15 14  1  0
 15 16  1  1
 17 16  1  0
 17 18  2  0
 19 18  1  0
 20 19  2  0
 21 22  2  0
 21 20  1  0
 22 17  1  0
 23 15  1  0
 24 23  1  0
 25 23  2  0
M  END
$$$$
