ALF.pdb
     RDKit          3D

 25 25  0  0  1  0  0  0  0  0999 V2000
    7.5560  -19.5586   21.8157 C   0  0  0  0  0  0  0  0  0  0  0  0
    7.6632  -18.6487   20.6353 C   0  0  2  0  0  0  0  0  0  0  0  0
    8.0791  -19.3844   19.4522 N   0  0  0  0  0  0  0  0  0  0  0  0
    8.5587  -17.4878   20.8900 C   0  0  0  0  0  0  0  0  0  0  0  0
    9.7884  -17.6523   20.7363 O   0  0  0  0  0  0  0  0  0  0  0  0
    6.9786  -12.4926   19.7187 C   0  0  0  0  0  0  0  0  0  0  0  0
    7.8477  -13.7205   19.9269 C   0  0  1  0  0  0  0  0  0  0  0  0
    9.0887  -13.4687   19.0545 C   0  0  0  0  0  0  0  0  0  0  0  0
    8.2505  -13.8184   21.3728 C   0  0  0  0  0  0  0  0  0  0  0  0
    8.9025  -15.1157   21.6978 C   0  0  2  0  0  0  0  0  0  0  0  0
    8.0597  -16.2456   21.2887 N   0  0  0  0  0  0  0  0  0  0  0  0
    9.2598  -15.2553   23.1355 C   0  0  0  0  0  0  0  0  0  0  0  0
   10.2360  -14.6975   23.6394 O   0  0  0  0  0  0  0  0  0  0  0  0
    8.4533  -16.0690   24.0067 N   0  0  0  0  0  0  0  0  0  0  0  0
    8.6562  -16.0775   25.4415 C   0  0  1  0  0  0  0  0  0  0  0  0
    7.3861  -15.6638   26.1094 C   0  0  0  0  0  0  0  0  0  0  0  0
    7.1860  -14.2276   26.2523 C   0  0  0  0  0  0  0  0  0  0  0  0
    5.9389  -13.6301   26.0693 C   0  0  0  0  0  0  0  0  0  0  0  0
    5.8601  -12.2738   26.2279 C   0  0  0  0  0  0  0  0  0  0  0  0
    6.9710  -11.5185   26.5572 C   0  0  0  0  0  0  0  0  0  0  0  0
    8.2038  -12.0866   26.7410 C   0  0  0  0  0  0  0  0  0  0  0  0
    8.2947  -13.4541   26.5835 C   0  0  0  0  0  0  0  0  0  0  0  0
    9.1655  -17.3834   25.8459 C   0  0  0  0  0  0  0  0  0  0  0  0
    9.4569  -18.4041   24.9482 O   0  0  0  0  0  0  0  0  0  0  0  0
    9.3650  -17.6393   27.0602 O   0  0  0  0  0  0  0  0  0  0  0  0
  2  1  1  1
  2  4  1  0
  3  2  1  0
  4 11  1  0
  4  5  2  0
  7  6  1  1
  7  8  1  0
  9  7  1  0
 10  9  1  1
 11 10  1  0
 12 10  1  0
 12 13  2  0
 14 12  1  0
 15 14  1  0
 15 16  1  1
 17 16  1  0
 17 18  2  0
 19 18  1  0
 20 19  2  0
 21 22  2  0
 21 20  1  0
 22 17  1  0
 23 15  1  0
 24 23  1  0
 25 23  2  0
M  END
$$$$
