MAL.pdb
     RDKit          3D

 22 21  0  0  1  0  0  0  0  0999 V2000
   18.6289  -25.8040  -15.8081 C   0  0  0  0  0  0  0  0  0  0  0  0
   17.8006  -24.7457  -14.6285 S   0  0  0  0  0  0  0  0  0  0  0  0
   17.8092  -23.0146  -14.9566 C   0  0  0  0  0  0  0  0  0  0  0  0
   19.0365  -22.4643  -15.5510 C   0  0  0  0  0  0  0  0  0  0  0  0
   20.1429  -22.0934  -14.6561 C   0  0  2  0  0  0  0  0  0  0  0  0
   19.7164  -21.3009  -13.5378 N   0  0  0  0  0  0  0  0  0  0  0  0
   21.2275  -21.3320  -15.3781 C   0  0  0  0  0  0  0  0  0  0  0  0
   21.7745  -21.8549  -16.3683 O   0  0  0  0  0  0  0  0  0  0  0  0
   22.5296  -17.8461  -15.2091 C   0  0  0  0  0  0  0  0  0  0  0  0
   22.7109  -19.2986  -15.6133 C   0  0  2  0  0  0  0  0  0  0  0  0
   21.6537  -20.0460  -14.9806 N   0  0  0  0  0  0  0  0  0  0  0  0
   24.0497  -19.7081  -15.1837 C   0  0  0  0  0  0  0  0  0  0  0  0
   25.0604  -19.1532  -15.6591 O   0  0  0  0  0  0  0  0  0  0  0  0
   26.0247  -19.2775  -11.4084 C   0  0  0  0  0  0  0  0  0  0  0  0
   25.0277  -20.4264  -11.4242 C   0  0  2  0  0  0  0  0  0  0  0  0
   24.9558  -20.9001   -9.9820 C   0  0  0  0  0  0  0  0  0  0  0  0
   25.5488  -21.4908  -12.3219 C   0  0  0  0  0  0  0  0  0  0  0  0
   25.4952  -21.2053  -13.7810 C   0  0  2  0  0  0  0  0  0  0  0  0
   24.1950  -20.7392  -14.2242 N   0  0  0  0  0  0  0  0  0  0  0  0
   25.9690  -22.2425  -14.6714 C   0  0  0  0  0  0  0  0  0  0  0  0
   27.1712  -22.6095  -14.5883 O   0  0  0  0  0  0  0  0  0  0  0  0
   25.2397  -22.9065  -15.6388 O   0  0  0  0  0  0  0  0  0  0  0  0
  2  1  1  0
  3  4  1  0
  3  2  1  0
  4  5  1  0
  5  6  1  1
  7  5  1  0
  7 11  1  0
  8  7  2  0
 10  9  1  1
 10 11  1  0
 10 12  1  0
 12 19  1  0
 13 12  2  0
 15 14  1  1
 16 15  1  0
 17 15  1  0
 18 17  1  1
 19 18  1  0
 20 18  1  0
 20 22  1  0
 21 20  2  0
M  END
$$$$
