MAL.pdb
     RDKit          3D

 22 21  0  0  1  0  0  0  0  0999 V2000
   27.2437  -18.5246   -6.9832 C   0  0  0  0  0  0  0  0  0  0  0  0
   28.3781  -19.8819   -7.2442 S   0  0  0  0  0  0  0  0  0  0  0  0
   28.1881  -20.8150   -8.7267 C   0  0  0  0  0  0  0  0  0  0  0  0
   27.2521  -20.2784   -9.7258 C   0  0  0  0  0  0  0  0  0  0  0  0
   26.0611  -21.0707  -10.0665 C   0  0  2  0  0  0  0  0  0  0  0  0
   26.3552  -22.4593  -10.2806 N   0  0  0  0  0  0  0  0  0  0  0  0
   25.3638  -20.5484  -11.2986 C   0  0  0  0  0  0  0  0  0  0  0  0
   25.0636  -19.3401  -11.3551 O   0  0  0  0  0  0  0  0  0  0  0  0
   24.3853  -22.0693  -14.5772 C   0  0  0  0  0  0  0  0  0  0  0  0
   24.3448  -20.9236  -13.5815 C   0  0  2  0  0  0  0  0  0  0  0  0
   25.0339  -21.3711  -12.3976 N   0  0  0  0  0  0  0  0  0  0  0  0
   22.9364  -20.5984  -13.3462 C   0  0  0  0  0  0  0  0  0  0  0  0
   22.2741  -21.2401  -12.5065 O   0  0  0  0  0  0  0  0  0  0  0  0
   19.3434  -15.7363  -14.5345 C   0  0  0  0  0  0  0  0  0  0  0  0
   19.4633  -17.0581  -13.7910 C   0  0  2  0  0  0  0  0  0  0  0  0
   19.2602  -16.7021  -12.3276 C   0  0  0  0  0  0  0  0  0  0  0  0
   20.8207  -17.6141  -14.0331 C   0  0  0  0  0  0  0  0  0  0  0  0
   20.9928  -19.0680  -13.7689 C   0  0  2  0  0  0  0  0  0  0  0  0
   22.3257  -19.5504  -14.0767 N   0  0  0  0  0  0  0  0  0  0  0  0
   20.0087  -19.9608  -14.3412 C   0  0  0  0  0  0  0  0  0  0  0  0
   20.1994  -20.4073  -15.5037 O   0  0  0  0  0  0  0  0  0  0  0  0
   18.8410  -20.4022  -13.7495 O   0  0  0  0  0  0  0  0  0  0  0  0
  2  1  1  0
  3  4  1  0
  3  2  1  0
  4  5  1  0
  5  6  1  6
  7  5  1  0
  7 11  1  0
  8  7  2  0
 10  9  1  6
 10 11  1  0
 10 12  1  0
 12 19  1  0
 13 12  2  0
 15 14  1  6
 16 15  1  0
 17 15  1  0
 18 17  1  6
 19 18  1  0
 20 18  1  0
 20 22  1  0
 21 20  2  0
M  END
$$$$
