MAL.pdb
     RDKit          3D

 22 21  0  0  1  0  0  0  0  0999 V2000
   17.7266  -10.6545  -21.7590 C   0  0  0  0  0  0  0  0  0  0  0  0
   18.8595  -12.0258  -21.5767 S   0  0  0  0  0  0  0  0  0  0  0  0
   19.1191  -12.6433  -19.9470 C   0  0  0  0  0  0  0  0  0  0  0  0
   19.0132  -11.6693  -18.8505 C   0  0  0  0  0  0  0  0  0  0  0  0
   19.6062  -12.0123  -17.5492 C   0  0  2  0  0  0  0  0  0  0  0  0
   18.9657  -13.1324  -16.9202 N   0  0  0  0  0  0  0  0  0  0  0  0
   19.5682  -10.8533  -16.5836 C   0  0  0  0  0  0  0  0  0  0  0  0
   18.4841  -10.5486  -16.0495 O   0  0  0  0  0  0  0  0  0  0  0  0
   22.1144   -8.7531  -14.8785 C   0  0  0  0  0  0  0  0  0  0  0  0
   20.7059   -8.9180  -15.4215 C   0  0  2  0  0  0  0  0  0  0  0  0
   20.7119  -10.0934  -16.2552 N   0  0  0  0  0  0  0  0  0  0  0  0
   20.3713   -7.6915  -16.1485 C   0  0  0  0  0  0  0  0  0  0  0  0
   20.6505   -7.5814  -17.3590 O   0  0  0  0  0  0  0  0  0  0  0  0
   17.1289   -5.1985  -18.0554 C   0  0  0  0  0  0  0  0  0  0  0  0
   17.0230   -5.5071  -16.5695 C   0  0  2  0  0  0  0  0  0  0  0  0
   15.6658   -4.9638  -16.1542 C   0  0  0  0  0  0  0  0  0  0  0  0
   18.1289   -4.8086  -15.8627 C   0  0  0  0  0  0  0  0  0  0  0  0
   19.4987   -5.3390  -16.0984 C   0  0  2  0  0  0  0  0  0  0  0  0
   19.7280   -6.6270  -15.4718 N   0  0  0  0  0  0  0  0  0  0  0  0
   20.6052   -4.4534  -15.8075 C   0  0  0  0  0  0  0  0  0  0  0  0
   21.3242   -4.6927  -14.8011 O   0  0  0  0  0  0  0  0  0  0  0  0
   20.9869   -3.3350  -16.5231 O   0  0  0  0  0  0  0  0  0  0  0  0
  2  1  1  0
  3  4  1  0
  3  2  1  0
  4  5  1  0
  5  6  1  1
  7  5  1  0
  7 11  1  0
  8  7  2  0
 10  9  1  6
 10 11  1  0
 10 12  1  0
 12 19  1  0
 13 12  2  0
 15 14  1  6
 16 15  1  0
 17 15  1  0
 18 17  1  1
 19 18  1  0
 20 18  1  0
 20 22  1  0
 21 20  2  0
M  END
$$$$
