MAL.pdb
     RDKit          3D

 22 21  0  0  1  0  0  0  0  0999 V2000
   18.0541  -25.8069   -2.9511 C   0  0  0  0  0  0  0  0  0  0  0  0
   16.6294  -26.4299   -3.8340 S   0  0  0  0  0  0  0  0  0  0  0  0
   15.2296  -25.3666   -3.9543 C   0  0  0  0  0  0  0  0  0  0  0  0
   14.9623  -24.4985   -2.7979 C   0  0  0  0  0  0  0  0  0  0  0  0
   13.8118  -23.5847   -2.8591 C   0  0  2  0  0  0  0  0  0  0  0  0
   13.8531  -22.7081   -3.9950 N   0  0  0  0  0  0  0  0  0  0  0  0
   13.6955  -22.7326   -1.6191 C   0  0  0  0  0  0  0  0  0  0  0  0
   14.1010  -21.5547   -1.6566 O   0  0  0  0  0  0  0  0  0  0  0  0
   12.1461  -23.2305    1.7484 C   0  0  0  0  0  0  0  0  0  0  0  0
   13.0422  -22.4463    0.8061 C   0  0  2  0  0  0  0  0  0  0  0  0
   13.1448  -23.2117   -0.4105 N   0  0  0  0  0  0  0  0  0  0  0  0
   14.3270  -22.2553    1.4825 C   0  0  0  0  0  0  0  0  0  0  0  0
   15.2550  -23.0712    1.3130 O   0  0  0  0  0  0  0  0  0  0  0  0
   17.8885  -18.4576    3.1596 C   0  0  0  0  0  0  0  0  0  0  0  0
   18.0182  -19.6549    2.2301 C   0  0  2  0  0  0  0  0  0  0  0  0
   18.8428  -19.1505    1.0574 C   0  0  0  0  0  0  0  0  0  0  0  0
   16.6563  -20.0683    1.8007 C   0  0  0  0  0  0  0  0  0  0  0  0
   15.8229  -20.7528    2.8255 C   0  0  2  0  0  0  0  0  0  0  0  0
   14.5143  -21.1386    2.3327 N   0  0  0  0  0  0  0  0  0  0  0  0
   15.6851  -20.0950    4.1067 C   0  0  0  0  0  0  0  0  0  0  0  0
   14.7048  -19.3253    4.2899 O   0  0  0  0  0  0  0  0  0  0  0  0
   16.5264  -20.2099    5.1964 O   0  0  0  0  0  0  0  0  0  0  0  0
  2  1  1  0
  3  4  1  0
  3  2  1  0
  4  5  1  0
  5  6  1  6
  7  5  1  0
  7 11  1  0
  8  7  2  0
 10  9  1  1
 10 11  1  0
 10 12  1  0
 12 19  1  0
 13 12  2  0
 15 14  1  1
 16 15  1  0
 17 15  1  0
 18 17  1  6
 19 18  1  0
 20 18  1  0
 20 22  1  0
 21 20  2  0
M  END
$$$$
