MAL.pdb
     RDKit          3D

 22 21  0  0  1  0  0  0  0  0999 V2000
   28.7421  -20.0179  -16.6770 C   0  0  0  0  0  0  0  0  0  0  0  0
   28.9464  -18.9442  -18.0922 S   0  0  0  0  0  0  0  0  0  0  0  0
   28.6900  -17.2198  -17.8369 C   0  0  0  0  0  0  0  0  0  0  0  0
   27.3176  -16.7995  -17.5172 C   0  0  0  0  0  0  0  0  0  0  0  0
   26.2066  -17.4102  -18.2622 C   0  0  2  0  0  0  0  0  0  0  0  0
   25.8561  -16.6769  -19.4454 N   0  0  0  0  0  0  0  0  0  0  0  0
   24.9639  -17.5498  -17.4174 C   0  0  0  0  0  0  0  0  0  0  0  0
   24.6219  -16.6001  -16.6863 O   0  0  0  0  0  0  0  0  0  0  0  0
   21.9307  -19.5229  -17.3193 C   0  0  0  0  0  0  0  0  0  0  0  0
   23.0833  -18.9686  -16.5007 C   0  0  2  0  0  0  0  0  0  0  0  0
   24.1658  -18.7144  -17.4173 N   0  0  0  0  0  0  0  0  0  0  0  0
   23.4103  -19.9633  -15.4767 C   0  0  0  0  0  0  0  0  0  0  0  0
   23.9443  -21.0439  -15.7969 O   0  0  0  0  0  0  0  0  0  0  0  0
   24.3391  -20.8160  -10.0569 C   0  0  0  0  0  0  0  0  0  0  0  0
   25.2551  -21.0107  -11.2558 C   0  0  2  0  0  0  0  0  0  0  0  0
   26.6293  -20.5799  -10.7705 C   0  0  0  0  0  0  0  0  0  0  0  0
   24.7724  -20.1448  -12.3638 C   0  0  0  0  0  0  0  0  0  0  0  0
   23.5271  -20.5853  -13.0481 C   0  0  2  0  0  0  0  0  0  0  0  0
   23.1177  -19.6949  -14.1176 N   0  0  0  0  0  0  0  0  0  0  0  0
   22.3893  -20.8918  -12.2088 C   0  0  0  0  0  0  0  0  0  0  0  0
   22.1829  -22.0910  -11.8825 O   0  0  0  0  0  0  0  0  0  0  0  0
   21.4651  -19.9995  -11.7007 O   0  0  0  0  0  0  0  0  0  0  0  0
  2  1  1  0
  3  4  1  0
  3  2  1  0
  4  5  1  0
  5  6  1  6
  7  5  1  0
  7 11  1  0
  8  7  2  0
 10  9  1  6
 10 11  1  0
 10 12  1  0
 12 19  1  0
 13 12  2  0
 15 14  1  1
 16 15  1  0
 17 15  1  0
 18 17  1  1
 19 18  1  0
 20 18  1  0
 20 22  1  0
 21 20  2  0
M  END
$$$$
