MAL.pdb
     RDKit          3D

 22 21  0  0  1  0  0  0  0  0999 V2000
   20.4906  -38.2152  -15.8333 C   0  0  0  0  0  0  0  0  0  0  0  0
   21.1181  -36.9619  -14.7232 S   0  0  0  0  0  0  0  0  0  0  0  0
   22.8445  -36.6165  -14.7938 C   0  0  0  0  0  0  0  0  0  0  0  0
   23.3587  -35.6357  -13.8264 C   0  0  0  0  0  0  0  0  0  0  0  0
   22.8107  -34.2713  -13.8535 C   0  0  2  0  0  0  0  0  0  0  0  0
   23.3164  -33.4867  -14.9439 N   0  0  0  0  0  0  0  0  0  0  0  0
   23.0882  -33.5213  -12.5738 C   0  0  0  0  0  0  0  0  0  0  0  0
   24.2082  -32.9991  -12.4116 O   0  0  0  0  0  0  0  0  0  0  0  0
   21.0346  -32.6528   -9.5644 C   0  0  0  0  0  0  0  0  0  0  0  0
   22.3706  -32.7325  -10.2818 C   0  0  2  0  0  0  0  0  0  0  0  0
   22.1311  -33.3831  -11.5452 N   0  0  0  0  0  0  0  0  0  0  0  0
   23.2900  -33.4707   -9.4131 C   0  0  0  0  0  0  0  0  0  0  0  0
   23.4385  -34.7009   -9.5548 O   0  0  0  0  0  0  0  0  0  0  0  0
   27.5738  -34.2833   -8.8675 C   0  0  0  0  0  0  0  0  0  0  0  0
   27.0978  -32.8525   -8.6659 C   0  0  2  0  0  0  0  0  0  0  0  0
   28.3705  -32.0367   -8.5102 C   0  0  0  0  0  0  0  0  0  0  0  0
   26.2641  -32.8016   -7.4360 C   0  0  0  0  0  0  0  0  0  0  0  0
   24.9329  -33.4610   -7.5160 C   0  0  2  0  0  0  0  0  0  0  0  0
   24.0122  -32.7826   -8.4084 N   0  0  0  0  0  0  0  0  0  0  0  0
   24.2690  -33.7550   -6.2647 C   0  0  0  0  0  0  0  0  0  0  0  0
   23.0872  -33.3520   -6.0968 O   0  0  0  0  0  0  0  0  0  0  0  0
   24.7888  -34.4491   -5.1892 O   0  0  0  0  0  0  0  0  0  0  0  0
  2  1  1  0
  3  4  1  0
  3  2  1  0
  4  5  1  0
  5  6  1  6
  7  5  1  0
  7 11  1  0
  8  7  2  0
 10  9  1  1
 10 11  1  0
 10 12  1  0
 12 19  1  0
 13 12  2  0
 15 14  1  1
 16 15  1  0
 17 15  1  0
 18 17  1  1
 19 18  1  0
 20 18  1  0
 20 22  1  0
 21 20  2  0
M  END
$$$$
