MAL.pdb
     RDKit          3D

 22 21  0  0  1  0  0  0  0  0999 V2000
   26.1836  -16.1890  -16.8856 C   0  0  0  0  0  0  0  0  0  0  0  0
   27.6285  -16.2460  -15.8339 S   0  0  0  0  0  0  0  0  0  0  0  0
   28.1839  -17.8359  -15.3159 C   0  0  0  0  0  0  0  0  0  0  0  0
   27.1645  -18.7405  -14.7636 C   0  0  0  0  0  0  0  0  0  0  0  0
   27.5899  -20.0614  -14.2770 C   0  0  2  0  0  0  0  0  0  0  0  0
   28.1722  -20.8759  -15.3056 N   0  0  0  0  0  0  0  0  0  0  0  0
   26.4496  -20.8352  -13.6619 C   0  0  0  0  0  0  0  0  0  0  0  0
   25.8003  -21.6229  -14.3769 O   0  0  0  0  0  0  0  0  0  0  0  0
   24.8863  -20.8731  -10.2551 C   0  0  0  0  0  0  0  0  0  0  0  0
   24.8285  -21.1476  -11.7475 C   0  0  2  0  0  0  0  0  0  0  0  0
   26.0824  -20.7070  -12.3047 N   0  0  0  0  0  0  0  0  0  0  0  0
   23.6705  -20.4264  -12.2802 C   0  0  0  0  0  0  0  0  0  0  0  0
   23.6832  -19.1814  -12.3521 O   0  0  0  0  0  0  0  0  0  0  0  0
   21.9325  -18.5636  -15.5564 C   0  0  0  0  0  0  0  0  0  0  0  0
   22.1248  -20.0726  -15.5717 C   0  0  2  0  0  0  0  0  0  0  0  0
   21.8932  -20.4804  -17.0173 C   0  0  0  0  0  0  0  0  0  0  0  0
   21.1186  -20.6855  -14.6649 C   0  0  0  0  0  0  0  0  0  0  0  0
   21.3392  -20.4864  -13.2072 C   0  0  2  0  0  0  0  0  0  0  0  0
   22.5324  -21.1480  -12.7146 N   0  0  0  0  0  0  0  0  0  0  0  0
   20.2262  -20.7745  -12.3289 C   0  0  0  0  0  0  0  0  0  0  0  0
   20.2208  -21.8634  -11.6953 O   0  0  0  0  0  0  0  0  0  0  0  0
   19.1262  -19.9741  -12.0886 O   0  0  0  0  0  0  0  0  0  0  0  0
  2  1  1  0
  3  4  1  0
  3  2  1  0
  4  5  1  0
  5  6  1  6
  7  5  1  0
  7 11  1  0
  8  7  2  0
 10  9  1  1
 10 11  1  0
 10 12  1  0
 12 19  1  0
 13 12  2  0
 15 14  1  6
 16 15  1  0
 17 15  1  0
 18 17  1  6
 19 18  1  0
 20 18  1  0
 20 22  1  0
 21 20  2  0
M  END
$$$$
