EMK.pdb
     RDKit          3D

 27 26  0  0  1  0  0  0  0  0999 V2000
   20.8540  -20.9710  -11.4181 N   0  0  0  0  0  0  0  0  0  0  0  0
   21.4689  -21.1553  -12.7352 C   0  0  1  0  0  0  0  0  0  0  0  0
   20.5580  -20.6327  -13.8222 C   0  0  0  0  0  0  0  0  0  0  0  0
   19.8808  -21.7422  -14.6053 C   0  0  0  0  0  0  0  0  0  0  0  0
   19.6770  -22.9430  -13.8000 C   0  0  0  0  0  0  0  0  0  0  0  0
   18.8101  -22.9637  -12.9025 O   0  0  0  0  0  0  0  0  0  0  0  0
   22.7863  -20.4560  -12.7183 C   0  0  0  0  0  0  0  0  0  0  0  0
   22.8491  -19.1971  -12.6425 O   0  0  0  0  0  0  0  0  0  0  0  0
   20.4454  -24.0728  -14.0214 O   0  0  0  0  0  0  0  0  0  0  0  0
   30.3144  -20.9215  -10.5929 C   0  0  0  0  0  0  0  0  0  0  0  0
   28.6973  -21.7069  -10.7561 S   0  0  0  0  0  0  0  0  0  0  0  0
   27.6159  -20.7639  -11.8646 C   0  0  0  0  0  0  0  0  0  0  0  0
   26.2429  -21.4072  -11.9327 C   0  0  0  0  0  0  0  0  0  0  0  0
   25.2918  -20.5401  -12.7733 C   0  0  2  0  0  0  0  0  0  0  0  0
   24.0076  -21.1892  -12.7864 N   0  0  0  0  0  0  0  0  0  0  0  0
   25.8395  -20.3064  -14.1152 C   0  0  0  0  0  0  0  0  0  0  0  0
   25.7685  -21.2427  -14.9545 O   0  0  0  0  0  0  0  0  0  0  0  0
   26.4309  -19.0676  -14.4629 N   0  0  0  0  0  0  0  0  0  0  0  0
   26.9191  -18.7825  -15.8271 C   0  0  1  0  0  0  0  0  0  0  0  0
   27.3618  -17.3723  -15.9149 C   0  0  0  0  0  0  0  0  0  0  0  0
   27.8542  -16.8966  -17.2215 C   0  0  0  0  0  0  0  0  0  0  0  0
   28.2644  -15.4772  -17.3739 C   0  0  0  0  0  0  0  0  0  0  0  0
   28.7965  -15.1011  -18.7252 C   0  0  0  0  0  0  0  0  0  0  0  0
   29.1721  -13.7407  -18.9084 N   0  0  0  0  0  0  0  0  0  0  0  0
   27.8767  -19.8048  -16.1712 C   0  0  0  0  0  0  0  0  0  0  0  0
   27.9703  -20.2478  -17.3894 O   0  0  0  0  0  0  0  0  0  0  0  0
   28.7819  -20.4204  -15.3194 O   0  0  0  0  0  0  0  0  0  0  0  0
  2  1  1  1
  2  3  1  0
  4  3  1  0
  5  4  1  0
  6  5  2  0
  7  2  1  0
  7  8  2  0
  9  5  1  0
 11 10  1  0
 12 11  1  0
 12 13  1  0
 14 13  1  1
 14 15  1  0
 15  7  1  0
 16 14  1  0
 17 16  2  0
 18 16  1  0
 19 25  1  0
 19 18  1  0
 20 21  1  0
 19 20  1  1
 21 22  1  0
 22 23  1  0
 23 24  1  0
 25 27  1  0
 26 25  2  0
M  END
$$$$
