EMK.pdb
     RDKit          3D

 27 26  0  0  1  0  0  0  0  0999 V2000
   27.8122  -22.5907  -16.6158 N   0  0  0  0  0  0  0  0  0  0  0  0
   27.7774  -21.3395  -15.8543 C   0  0  1  0  0  0  0  0  0  0  0  0
   27.5320  -20.1663  -16.7751 C   0  0  0  0  0  0  0  0  0  0  0  0
   27.1643  -20.5920  -18.1844 C   0  0  0  0  0  0  0  0  0  0  0  0
   26.0643  -19.8028  -18.7316 C   0  0  0  0  0  0  0  0  0  0  0  0
   25.6366  -20.0257  -19.8825 O   0  0  0  0  0  0  0  0  0  0  0  0
   26.7147  -21.4741  -14.8163 C   0  0  0  0  0  0  0  0  0  0  0  0
   25.6851  -22.1726  -15.0321 O   0  0  0  0  0  0  0  0  0  0  0  0
   25.4842  -18.7957  -17.9799 O   0  0  0  0  0  0  0  0  0  0  0  0
   24.2892  -21.8406   -7.8409 C   0  0  0  0  0  0  0  0  0  0  0  0
   25.5608  -21.7306   -9.1172 S   0  0  0  0  0  0  0  0  0  0  0  0
   25.3102  -20.2781  -10.1732 C   0  0  0  0  0  0  0  0  0  0  0  0
   26.3560  -20.2403  -11.2725 C   0  0  0  0  0  0  0  0  0  0  0  0
   25.8185  -20.9239  -12.5400 C   0  0  2  0  0  0  0  0  0  0  0  0
   26.8333  -20.8196  -13.5549 N   0  0  0  0  0  0  0  0  0  0  0  0
   24.5303  -20.3470  -12.9437 C   0  0  0  0  0  0  0  0  0  0  0  0
   24.5064  -19.1357  -13.2877 O   0  0  0  0  0  0  0  0  0  0  0  0
   23.3460  -21.1232  -12.9492 N   0  0  0  0  0  0  0  0  0  0  0  0
   22.0381  -20.5630  -13.3445 C   0  0  1  0  0  0  0  0  0  0  0  0
   21.4573  -21.3738  -14.4388 C   0  0  0  0  0  0  0  0  0  0  0  0
   20.1422  -20.9607  -14.9640 C   0  0  0  0  0  0  0  0  0  0  0  0
   19.4541  -21.8169  -15.9639 C   0  0  0  0  0  0  0  0  0  0  0  0
   18.1849  -21.2532  -16.5312 C   0  0  0  0  0  0  0  0  0  0  0  0
   17.5595  -22.0024  -17.5671 N   0  0  0  0  0  0  0  0  0  0  0  0
   21.2523  -20.3999  -12.1459 C   0  0  0  0  0  0  0  0  0  0  0  0
   21.4094  -21.1975  -11.1320 O   0  0  0  0  0  0  0  0  0  0  0  0
   20.2858  -19.4340  -11.9073 O   0  0  0  0  0  0  0  0  0  0  0  0
  2  1  1  6
  2  3  1  0
  4  3  1  0
  5  4  1  0
  6  5  2  0
  7  2  1  0
  7  8  2  0
  9  5  1  0
 11 10  1  0
 12 11  1  0
 12 13  1  0
 14 13  1  1
 14 15  1  0
 15  7  1  0
 16 14  1  0
 17 16  2  0
 18 16  1  0
 19 25  1  0
 19 18  1  0
 20 21  1  0
 19 20  1  6
 21 22  1  0
 22 23  1  0
 23 24  1  0
 25 27  1  0
 26 25  2  0
M  END
$$$$
