EMK.pdb
     RDKit          3D

 27 26  0  0  1  0  0  0  0  0999 V2000
   21.9411  -14.5087  -16.4366 N   0  0  0  0  0  0  0  0  0  0  0  0
   21.7540  -13.2452  -17.1544 C   0  0  1  0  0  0  0  0  0  0  0  0
   20.2886  -13.0116  -17.4415 C   0  0  0  0  0  0  0  0  0  0  0  0
   19.6875  -14.0795  -18.3365 C   0  0  0  0  0  0  0  0  0  0  0  0
   18.3142  -13.7685  -18.7234 C   0  0  0  0  0  0  0  0  0  0  0  0
   18.0728  -12.8101  -19.4853 O   0  0  0  0  0  0  0  0  0  0  0  0
   22.3450  -12.1609  -16.3178 C   0  0  0  0  0  0  0  0  0  0  0  0
   22.0684  -12.0687  -15.0892 O   0  0  0  0  0  0  0  0  0  0  0  0
   17.2630  -14.5326  -18.2469 O   0  0  0  0  0  0  0  0  0  0  0  0
   28.3036  -12.9650  -14.9674 C   0  0  0  0  0  0  0  0  0  0  0  0
   27.6349  -11.4799  -15.7456 S   0  0  0  0  0  0  0  0  0  0  0  0
   25.8383  -11.3733  -15.5261 C   0  0  0  0  0  0  0  0  0  0  0  0
   25.2942  -10.1445  -16.2315 C   0  0  0  0  0  0  0  0  0  0  0  0
   23.7619  -10.1019  -16.1171 C   0  0  2  0  0  0  0  0  0  0  0  0
   23.2371  -11.2019  -16.8820 N   0  0  0  0  0  0  0  0  0  0  0  0
   23.2383   -8.7971  -16.5396 C   0  0  0  0  0  0  0  0  0  0  0  0
   23.1267   -8.5760  -17.7744 O   0  0  0  0  0  0  0  0  0  0  0  0
   22.8671   -7.8117  -15.5927 N   0  0  0  0  0  0  0  0  0  0  0  0
   22.2729   -6.5199  -15.9911 C   0  0  1  0  0  0  0  0  0  0  0  0
   21.1015   -6.7569  -16.8651 C   0  0  0  0  0  0  0  0  0  0  0  0
   20.3072   -5.5809  -17.2678 C   0  0  0  0  0  0  0  0  0  0  0  0
   19.1386   -5.7626  -18.1665 C   0  0  0  0  0  0  0  0  0  0  0  0
   18.4130   -4.5048  -18.5433 C   0  0  0  0  0  0  0  0  0  0  0  0
   17.3711   -4.6314  -19.5045 N   0  0  0  0  0  0  0  0  0  0  0  0
   22.0644   -5.7463  -14.7916 C   0  0  0  0  0  0  0  0  0  0  0  0
   21.9680   -6.3262  -13.6326 O   0  0  0  0  0  0  0  0  0  0  0  0
   21.9507   -4.3670  -14.6979 O   0  0  0  0  0  0  0  0  0  0  0  0
  2  1  1  1
  2  3  1  0
  4  3  1  0
  5  4  1  0
  6  5  2  0
  7  2  1  0
  7  8  2  0
  9  5  1  0
 11 10  1  0
 12 11  1  0
 12 13  1  0
 14 13  1  6
 14 15  1  0
 15  7  1  0
 16 14  1  0
 17 16  2  0
 18 16  1  0
 19 25  1  0
 19 18  1  0
 20 21  1  0
 19 20  1  1
 21 22  1  0
 22 23  1  0
 23 24  1  0
 25 27  1  0
 26 25  2  0
M  END
$$$$
