EMK.pdb
     RDKit          3D

 27 26  0  0  1  0  0  0  0  0999 V2000
   14.3299   -9.7482   -8.7232 N   0  0  0  0  0  0  0  0  0  0  0  0
   14.4367   -9.5882  -10.1756 C   0  0  1  0  0  0  0  0  0  0  0  0
   13.2176   -8.8807  -10.7211 C   0  0  0  0  0  0  0  0  0  0  0  0
   12.0638   -9.8266  -10.9982 C   0  0  0  0  0  0  0  0  0  0  0  0
   12.3073  -10.6694  -12.1655 C   0  0  0  0  0  0  0  0  0  0  0  0
   12.9420  -10.2268  -13.1446 O   0  0  0  0  0  0  0  0  0  0  0  0
   15.6960   -8.8389  -10.4542 C   0  0  0  0  0  0  0  0  0  0  0  0
   16.1471   -8.0016   -9.6236 O   0  0  0  0  0  0  0  0  0  0  0  0
   11.8343  -11.9697  -12.2005 O   0  0  0  0  0  0  0  0  0  0  0  0
   22.4507   -8.7261  -14.5298 C   0  0  0  0  0  0  0  0  0  0  0  0
   20.8622   -9.5202  -14.2071 S   0  0  0  0  0  0  0  0  0  0  0  0
   19.7806   -8.4520  -13.2189 C   0  0  0  0  0  0  0  0  0  0  0  0
   18.5023   -9.1867  -12.8587 C   0  0  0  0  0  0  0  0  0  0  0  0
   17.6054   -8.2945  -11.9855 C   0  0  2  0  0  0  0  0  0  0  0  0
   16.4228   -9.0482  -11.6631 N   0  0  0  0  0  0  0  0  0  0  0  0
   17.3186   -7.0200  -12.6552 C   0  0  0  0  0  0  0  0  0  0  0  0
   16.5944   -7.0427  -13.6853 O   0  0  0  0  0  0  0  0  0  0  0  0
   17.8368   -5.7974  -12.1632 N   0  0  0  0  0  0  0  0  0  0  0  0
   17.5178   -4.4978  -12.7876 C   0  0  1  0  0  0  0  0  0  0  0  0
   17.0191   -3.5578  -11.7580 C   0  0  0  0  0  0  0  0  0  0  0  0
   16.9086   -2.1359  -12.1350 C   0  0  0  0  0  0  0  0  0  0  0  0
   15.5719   -1.4887  -12.1577 C   0  0  0  0  0  0  0  0  0  0  0  0
   15.5631   -0.0403  -12.5484 C   0  0  0  0  0  0  0  0  0  0  0  0
   14.2938    0.6016  -12.5947 N   0  0  0  0  0  0  0  0  0  0  0  0
   18.6650   -4.0916  -13.5619 C   0  0  0  0  0  0  0  0  0  0  0  0
   19.8651   -4.4474  -13.2125 O   0  0  0  0  0  0  0  0  0  0  0  0
   18.6622   -3.3224  -14.7161 O   0  0  0  0  0  0  0  0  0  0  0  0
  2  1  1  1
  2  3  1  0
  4  3  1  0
  5  4  1  0
  6  5  2  0
  7  2  1  0
  7  8  2  0
  9  5  1  0
 11 10  1  0
 12 11  1  0
 12 13  1  0
 14 13  1  6
 14 15  1  0
 15  7  1  0
 16 14  1  0
 17 16  2  0
 18 16  1  0
 19 25  1  0
 19 18  1  0
 20 21  1  0
 19 20  1  1
 21 22  1  0
 22 23  1  0
 23 24  1  0
 25 27  1  0
 26 25  2  0
M  END
$$$$
