EMK.pdb
     RDKit          3D

 27 26  0  0  1  0  0  0  0  0999 V2000
   18.7817  -10.6740  -14.8443 N   0  0  0  0  0  0  0  0  0  0  0  0
   18.4503   -9.2537  -14.7048 C   0  0  1  0  0  0  0  0  0  0  0  0
   17.0975   -8.9636  -15.3132 C   0  0  0  0  0  0  0  0  0  0  0  0
   16.0093   -9.8842  -14.7926 C   0  0  0  0  0  0  0  0  0  0  0  0
   14.7050   -9.5847  -15.3766 C   0  0  0  0  0  0  0  0  0  0  0  0
   13.6924  -10.2242  -15.0258 O   0  0  0  0  0  0  0  0  0  0  0  0
   18.4985   -8.9212  -13.2515 C   0  0  0  0  0  0  0  0  0  0  0  0
   18.4734   -9.8333  -12.3785 O   0  0  0  0  0  0  0  0  0  0  0  0
   14.5769   -8.5885  -16.3290 O   0  0  0  0  0  0  0  0  0  0  0  0
   22.4057   -5.4511   -7.7546 C   0  0  0  0  0  0  0  0  0  0  0  0
   22.1210   -5.9281   -9.4720 S   0  0  0  0  0  0  0  0  0  0  0  0
   20.3976   -6.4229   -9.7412 C   0  0  0  0  0  0  0  0  0  0  0  0
   20.1846   -6.8198  -11.1905 C   0  0  0  0  0  0  0  0  0  0  0  0
   18.7189   -7.2222  -11.4206 C   0  0  2  0  0  0  0  0  0  0  0  0
   18.5749   -7.5674  -12.8101 N   0  0  0  0  0  0  0  0  0  0  0  0
   17.8061   -6.1569  -10.9880 C   0  0  0  0  0  0  0  0  0  0  0  0
   17.6703   -5.1538  -11.7371 O   0  0  0  0  0  0  0  0  0  0  0  0
   17.0958   -6.2479   -9.7663 N   0  0  0  0  0  0  0  0  0  0  0  0
   16.0960   -5.2404   -9.3589 C   0  0  1  0  0  0  0  0  0  0  0  0
   15.1203   -5.8525   -8.4285 C   0  0  0  0  0  0  0  0  0  0  0  0
   14.2224   -6.8886   -8.9731 C   0  0  0  0  0  0  0  0  0  0  0  0
   13.1548   -7.4558   -8.1102 C   0  0  0  0  0  0  0  0  0  0  0  0
   12.2028   -8.3925   -8.7936 C   0  0  0  0  0  0  0  0  0  0  0  0
   11.1288   -8.8977   -8.0084 N   0  0  0  0  0  0  0  0  0  0  0  0
   16.8116   -4.0742   -8.9024 C   0  0  0  0  0  0  0  0  0  0  0  0
   18.0549   -4.1570   -8.5334 O   0  0  0  0  0  0  0  0  0  0  0  0
   16.3208   -2.7807   -8.8021 O   0  0  0  0  0  0  0  0  0  0  0  0
  2  1  1  1
  2  3  1  0
  4  3  1  0
  5  4  1  0
  6  5  2  0
  7  2  1  0
  7  8  2  0
  9  5  1  0
 11 10  1  0
 12 11  1  0
 12 13  1  0
 14 13  1  6
 14 15  1  0
 15  7  1  0
 16 14  1  0
 17 16  2  0
 18 16  1  0
 19 25  1  0
 19 18  1  0
 20 21  1  0
 19 20  1  1
 21 22  1  0
 22 23  1  0
 23 24  1  0
 25 27  1  0
 26 25  2  0
M  END
$$$$
