EMK.pdb
     RDKit          3D

 27 26  0  0  1  0  0  0  0  0999 V2000
   20.0299  -12.4968  -18.6743 N   0  0  0  0  0  0  0  0  0  0  0  0
   18.6462  -12.1532  -18.3369 C   0  0  1  0  0  0  0  0  0  0  0  0
   17.9041  -13.3727  -17.8404 C   0  0  0  0  0  0  0  0  0  0  0  0
   17.7746  -14.4531  -18.8980 C   0  0  0  0  0  0  0  0  0  0  0  0
   17.1594  -15.6693  -18.3742 C   0  0  0  0  0  0  0  0  0  0  0  0
   16.8517  -15.7541  -17.1678 O   0  0  0  0  0  0  0  0  0  0  0  0
   18.6887  -11.0647  -17.3180 C   0  0  0  0  0  0  0  0  0  0  0  0
   17.6228  -10.5691  -16.8567 O   0  0  0  0  0  0  0  0  0  0  0  0
   16.9122  -16.7444  -19.2102 O   0  0  0  0  0  0  0  0  0  0  0  0
   22.7143   -8.2858  -11.1990 C   0  0  0  0  0  0  0  0  0  0  0  0
   22.6055   -9.4184  -12.6002 S   0  0  0  0  0  0  0  0  0  0  0  0
   21.2548   -8.9557  -13.7178 C   0  0  0  0  0  0  0  0  0  0  0  0
   21.1541   -9.9492  -14.8608 C   0  0  0  0  0  0  0  0  0  0  0  0
   20.0025   -9.5606  -15.8018 C   0  0  2  0  0  0  0  0  0  0  0  0
   19.9316  -10.5564  -16.8381 N   0  0  0  0  0  0  0  0  0  0  0  0
   20.1797   -8.1970  -16.3161 C   0  0  0  0  0  0  0  0  0  0  0  0
   21.1068   -7.9928  -17.1436 O   0  0  0  0  0  0  0  0  0  0  0  0
   19.3370   -7.1381  -15.8992 N   0  0  0  0  0  0  0  0  0  0  0  0
   19.5671   -5.7388  -16.3109 C   0  0  1  0  0  0  0  0  0  0  0  0
   18.2790   -5.0095  -16.3445 C   0  0  0  0  0  0  0  0  0  0  0  0
   18.3253   -3.5652  -16.6407 C   0  0  0  0  0  0  0  0  0  0  0  0
   17.0556   -2.8042  -16.7627 C   0  0  0  0  0  0  0  0  0  0  0  0
   17.2069   -1.3331  -17.0147 C   0  0  0  0  0  0  0  0  0  0  0  0
   16.0147   -0.6050  -17.2862 N   0  0  0  0  0  0  0  0  0  0  0  0
   20.6147   -5.2041  -15.4757 C   0  0  0  0  0  0  0  0  0  0  0  0
   21.5993   -4.5302  -15.9907 O   0  0  0  0  0  0  0  0  0  0  0  0
   20.7194   -5.3131  -14.0969 O   0  0  0  0  0  0  0  0  0  0  0  0
  2  1  1  1
  2  3  1  0
  4  3  1  0
  5  4  1  0
  6  5  2  0
  7  2  1  0
  7  8  2  0
  9  5  1  0
 11 10  1  0
 12 11  1  0
 12 13  1  0
 14 13  1  1
 14 15  1  0
 15  7  1  0
 16 14  1  0
 17 16  2  0
 18 16  1  0
 19 25  1  0
 19 18  1  0
 20 21  1  0
 19 20  1  1
 21 22  1  0
 22 23  1  0
 23 24  1  0
 25 27  1  0
 26 25  2  0
M  END
$$$$
