MDY.pdb
     RDKit          3D

 29 29  0  0  1  0  0  0  0  0999 V2000
    6.8171  -11.2776   19.9870 C   0  0  0  0  0  0  0  0  0  0  0  0
    7.4482  -12.3401   21.2560 S   0  0  0  0  0  0  0  0  0  0  0  0
    7.6530  -14.0502   20.9079 C   0  0  0  0  0  0  0  0  0  0  0  0
    8.2007  -14.9116   21.9730 C   0  0  0  0  0  0  0  0  0  0  0  0
    8.2354  -16.3524   21.6827 C   0  0  2  0  0  0  0  0  0  0  0  0
    6.9629  -17.0109   21.5955 N   0  0  0  0  0  0  0  0  0  0  0  0
    9.1523  -17.1014   22.6173 C   0  0  0  0  0  0  0  0  0  0  0  0
    8.6074  -17.7876   23.5103 O   0  0  0  0  0  0  0  0  0  0  0  0
   10.5424  -17.0548   22.5200 N   0  0  0  0  0  0  0  0  0  0  0  0
   11.4528  -17.6151   23.5479 C   0  0  1  0  0  0  0  0  0  0  0  0
   12.7618  -17.7963   22.8208 C   0  0  0  0  0  0  0  0  0  0  0  0
   12.6694  -18.6654   21.6685 C   0  0  0  0  0  0  0  0  0  0  0  0
   12.1436  -19.7882   21.7025 O   0  0  0  0  0  0  0  0  0  0  0  0
   11.5213  -16.6669   24.6848 C   0  0  0  0  0  0  0  0  0  0  0  0
   12.2723  -15.6742   24.6399 O   0  0  0  0  0  0  0  0  0  0  0  0
   13.1879  -18.2506   20.4409 O   0  0  0  0  0  0  0  0  0  0  0  0
    5.6062  -12.8859   25.5503 O   0  0  0  0  0  0  0  0  0  0  0  0
    6.8940  -13.2891   25.8796 C   0  0  0  0  0  0  0  0  0  0  0  0
    7.5252  -14.2045   25.0972 C   0  0  0  0  0  0  0  0  0  0  0  0
    8.8231  -14.6207   25.4157 C   0  0  0  0  0  0  0  0  0  0  0  0
    9.4828  -14.1202   26.5143 C   0  0  0  0  0  0  0  0  0  0  0  0
   10.8399  -14.5877   26.8035 C   0  0  0  0  0  0  0  0  0  0  0  0
   10.9528  -16.0655   27.0830 C   0  0  2  0  0  0  0  0  0  0  0  0
   10.7398  -16.8368   25.8793 N   0  0  0  0  0  0  0  0  0  0  0  0
   10.0923  -16.5548   28.1564 C   0  0  0  0  0  0  0  0  0  0  0  0
   10.1020  -16.0614   29.3216 O   0  0  0  0  0  0  0  0  0  0  0  0
    8.8470  -13.1928   27.3095 C   0  0  0  0  0  0  0  0  0  0  0  0
    7.5630  -12.7934   26.9781 C   0  0  0  0  0  0  0  0  0  0  0  0
    9.1939  -17.6083   27.9670 O   0  0  0  0  0  0  0  0  0  0  0  0
  2  1  1  0
  3  2  1  0
  4  5  1  0
  4  3  1  0
  5  6  1  1
  7  8  2  0
  7  5  1  0
  9  7  1  0
 10  9  1  0
 10 11  1  6
 12 13  2  0
 12 11  1  0
 14 24  1  0
 14 10  1  0
 15 14  2  0
 16 12  1  0
 18 19  2  0
 18 17  1  0
 20 19  1  0
 21 20  2  0
 22 21  1  0
 23 22  1  6
 23 24  1  0
 25 23  1  0
 26 25  2  0
 27 21  1  0
 27 28  2  0
 28 18  1  0
 29 25  1  0
M  END
$$$$
