MDY.pdb
     RDKit          3D

 29 29  0  0  1  0  0  0  0  0999 V2000
    8.6524  -11.4898   19.2353 C   0  0  0  0  0  0  0  0  0  0  0  0
    7.7567  -12.7961   20.0285 S   0  0  0  0  0  0  0  0  0  0  0  0
    8.2633  -14.4573   19.7611 C   0  0  0  0  0  0  0  0  0  0  0  0
    7.5761  -15.5199   20.5196 C   0  0  0  0  0  0  0  0  0  0  0  0
    8.0124  -16.8959   20.2408 C   0  0  2  0  0  0  0  0  0  0  0  0
    6.9697  -17.8665   20.0640 N   0  0  0  0  0  0  0  0  0  0  0  0
    9.0248  -17.3885   21.2446 C   0  0  0  0  0  0  0  0  0  0  0  0
    8.5810  -18.0272   22.2245 O   0  0  0  0  0  0  0  0  0  0  0  0
   10.3948  -17.1622   21.1183 N   0  0  0  0  0  0  0  0  0  0  0  0
   11.3704  -17.4285   22.2029 C   0  0  1  0  0  0  0  0  0  0  0  0
   12.7141  -17.2830   21.5333 C   0  0  0  0  0  0  0  0  0  0  0  0
   12.9739  -18.2916   20.5298 C   0  0  0  0  0  0  0  0  0  0  0  0
   13.4573  -18.0361   19.4165 O   0  0  0  0  0  0  0  0  0  0  0  0
   11.1349  -16.4585   23.2982 C   0  0  0  0  0  0  0  0  0  0  0  0
   11.3997  -15.2509   23.1453 O   0  0  0  0  0  0  0  0  0  0  0  0
   12.6776  -19.6294   20.7949 O   0  0  0  0  0  0  0  0  0  0  0  0
    5.6422  -11.7600   27.8773 O   0  0  0  0  0  0  0  0  0  0  0  0
    6.4211  -12.6167   27.1099 C   0  0  0  0  0  0  0  0  0  0  0  0
    5.8784  -13.7742   26.6469 C   0  0  0  0  0  0  0  0  0  0  0  0
    6.6503  -14.6478   25.8721 C   0  0  0  0  0  0  0  0  0  0  0  0
    7.9599  -14.3600   25.5645 C   0  0  0  0  0  0  0  0  0  0  0  0
    8.7241  -15.3067   24.7499 C   0  0  0  0  0  0  0  0  0  0  0  0
    9.8991  -15.9397   25.4524 C   0  0  2  0  0  0  0  0  0  0  0  0
   10.5979  -16.8495   24.5730 N   0  0  0  0  0  0  0  0  0  0  0  0
    9.5767  -16.6019   26.7131 C   0  0  0  0  0  0  0  0  0  0  0  0
    9.1046  -17.7745   26.7704 O   0  0  0  0  0  0  0  0  0  0  0  0
    8.5134  -13.1886   26.0315 C   0  0  0  0  0  0  0  0  0  0  0  0
    7.7338  -12.3370   26.7964 C   0  0  0  0  0  0  0  0  0  0  0  0
    9.7694  -15.9801   27.9497 O   0  0  0  0  0  0  0  0  0  0  0  0
  2  1  1  0
  3  2  1  0
  4  5  1  0
  4  3  1  0
  5  6  1  1
  7  8  2  0
  7  5  1  0
  9  7  1  0
 10  9  1  0
 10 11  1  6
 12 13  2  0
 12 11  1  0
 14 24  1  0
 14 10  1  0
 15 14  2  0
 16 12  1  0
 18 19  2  0
 18 17  1  0
 20 19  1  0
 21 20  2  0
 22 21  1  0
 23 22  1  6
 23 24  1  0
 25 23  1  0
 26 25  2  0
 27 21  1  0
 27 28  2  0
 28 18  1  0
 29 25  1  0
M  END
$$$$
