MDY.pdb
     RDKit          3D

 29 29  0  0  1  0  0  0  0  0999 V2000
    7.6479  -11.2194   20.0974 C   0  0  0  0  0  0  0  0  0  0  0  0
    7.7667  -12.8800   19.4925 S   0  0  0  0  0  0  0  0  0  0  0  0
    7.5467  -14.2115   20.6178 C   0  0  0  0  0  0  0  0  0  0  0  0
    7.7203  -15.5844   20.1064 C   0  0  0  0  0  0  0  0  0  0  0  0
    7.6291  -16.6602   21.1042 C   0  0  2  0  0  0  0  0  0  0  0  0
    6.7883  -16.4013   22.2384 N   0  0  0  0  0  0  0  0  0  0  0  0
    8.9871  -17.1382   21.5544 C   0  0  0  0  0  0  0  0  0  0  0  0
    9.7669  -17.5393   20.6621 O   0  0  0  0  0  0  0  0  0  0  0  0
    9.3874  -17.1461   22.8899 N   0  0  0  0  0  0  0  0  0  0  0  0
   10.7968  -16.9824   23.3215 C   0  0  1  0  0  0  0  0  0  0  0  0
   11.2656  -15.7505   22.5884 C   0  0  0  0  0  0  0  0  0  0  0  0
   12.5124  -15.9370   21.8796 C   0  0  0  0  0  0  0  0  0  0  0  0
   12.6475  -15.7107   20.6677 O   0  0  0  0  0  0  0  0  0  0  0  0
   10.8262  -16.8529   24.7975 C   0  0  0  0  0  0  0  0  0  0  0  0
   11.8364  -16.4101   25.3764 O   0  0  0  0  0  0  0  0  0  0  0  0
   13.6400  -16.3932   22.5638 O   0  0  0  0  0  0  0  0  0  0  0  0
    6.7468  -11.6788   25.2335 O   0  0  0  0  0  0  0  0  0  0  0  0
    7.1713  -12.8650   25.8185 C   0  0  0  0  0  0  0  0  0  0  0  0
    6.5069  -14.0185   25.5417 C   0  0  0  0  0  0  0  0  0  0  0  0
    6.9227  -15.2220   26.1231 C   0  0  0  0  0  0  0  0  0  0  0  0
    7.9997  -15.2661   26.9778 C   0  0  0  0  0  0  0  0  0  0  0  0
    8.3947  -16.5506   27.5592 C   0  0  0  0  0  0  0  0  0  0  0  0
    9.7148  -17.0879   27.0660 C   0  0  2  0  0  0  0  0  0  0  0  0
    9.7123  -17.2237   25.6270 N   0  0  0  0  0  0  0  0  0  0  0  0
   10.1417  -18.3364   27.6914 C   0  0  0  0  0  0  0  0  0  0  0  0
   10.3050  -19.4086   27.0397 O   0  0  0  0  0  0  0  0  0  0  0  0
    8.6755  -14.0999   27.2609 C   0  0  0  0  0  0  0  0  0  0  0  0
    8.2492  -12.9192   26.6759 C   0  0  0  0  0  0  0  0  0  0  0  0
   10.4002  -18.4309   29.0614 O   0  0  0  0  0  0  0  0  0  0  0  0
  2  1  1  0
  3  2  1  0
  4  5  1  0
  4  3  1  0
  5  6  1  1
  7  8  2  0
  7  5  1  0
  9  7  1  0
 10  9  1  0
 10 11  1  6
 12 13  2  0
 12 11  1  0
 14 24  1  0
 14 10  1  0
 15 14  2  0
 16 12  1  0
 18 19  2  0
 18 17  1  0
 20 19  1  0
 21 20  2  0
 22 21  1  0
 23 22  1  1
 23 24  1  0
 25 23  1  0
 26 25  2  0
 27 21  1  0
 27 28  2  0
 28 18  1  0
 29 25  1  0
M  END
$$$$
