MDY.pdb
     RDKit          3D

 29 29  0  0  1  0  0  0  0  0999 V2000
    7.3468  -11.3536   20.0482 C   0  0  0  0  0  0  0  0  0  0  0  0
    7.8645  -12.9286   20.6721 S   0  0  0  0  0  0  0  0  0  0  0  0
    6.6869  -13.9489   21.4843 C   0  0  0  0  0  0  0  0  0  0  0  0
    7.1675  -15.1955   22.1101 C   0  0  0  0  0  0  0  0  0  0  0  0
    8.1965  -15.9356   21.3652 C   0  0  2  0  0  0  0  0  0  0  0  0
    7.7397  -16.6819   20.2274 N   0  0  0  0  0  0  0  0  0  0  0  0
    9.0355  -16.8087   22.2646 C   0  0  0  0  0  0  0  0  0  0  0  0
    8.5101  -17.8699   22.6685 O   0  0  0  0  0  0  0  0  0  0  0  0
   10.3358  -16.4812   22.6468 N   0  0  0  0  0  0  0  0  0  0  0  0
   11.1073  -17.2445   23.6575 C   0  0  1  0  0  0  0  0  0  0  0  0
   12.5392  -17.1159   23.2017 C   0  0  0  0  0  0  0  0  0  0  0  0
   12.8209  -17.8190   21.9697 C   0  0  0  0  0  0  0  0  0  0  0  0
   13.4505  -17.3159   21.0268 O   0  0  0  0  0  0  0  0  0  0  0  0
   10.8450  -16.6581   24.9929 C   0  0  0  0  0  0  0  0  0  0  0  0
   11.2421  -15.5110   25.2723 O   0  0  0  0  0  0  0  0  0  0  0  0
   12.3765  -19.1311   21.8002 O   0  0  0  0  0  0  0  0  0  0  0  0
    6.9181  -11.6589   25.2169 O   0  0  0  0  0  0  0  0  0  0  0  0
    7.3402  -12.8286   25.8357 C   0  0  0  0  0  0  0  0  0  0  0  0
    6.8909  -14.0256   25.3732 C   0  0  0  0  0  0  0  0  0  0  0  0
    7.3073  -15.2132   25.9859 C   0  0  0  0  0  0  0  0  0  0  0  0
    8.1702  -15.1981   27.0572 C   0  0  0  0  0  0  0  0  0  0  0  0
    8.5760  -16.4683   27.6621 C   0  0  0  0  0  0  0  0  0  0  0  0
    9.9984  -16.8791   27.3743 C   0  0  2  0  0  0  0  0  0  0  0  0
   10.1314  -17.3667   26.0201 N   0  0  0  0  0  0  0  0  0  0  0  0
   10.5619  -17.8418   28.3165 C   0  0  0  0  0  0  0  0  0  0  0  0
   10.8730  -19.0229   27.9859 O   0  0  0  0  0  0  0  0  0  0  0  0
    8.6278  -13.9877   27.5288 C   0  0  0  0  0  0  0  0  0  0  0  0
    8.2045  -12.8236   26.9094 C   0  0  0  0  0  0  0  0  0  0  0  0
   10.7970  -17.5205   29.6560 O   0  0  0  0  0  0  0  0  0  0  0  0
  2  1  1  0
  3  2  1  0
  4  5  1  0
  4  3  1  0
  5  6  1  6
  7  8  2  0
  7  5  1  0
  9  7  1  0
 10  9  1  0
 10 11  1  6
 12 13  2  0
 12 11  1  0
 14 24  1  0
 14 10  1  0
 15 14  2  0
 16 12  1  0
 18 19  2  0
 18 17  1  0
 20 19  1  0
 21 20  2  0
 22 21  1  0
 23 22  1  1
 23 24  1  0
 25 23  1  0
 26 25  2  0
 27 21  1  0
 27 28  2  0
 28 18  1  0
 29 25  1  0
M  END
$$$$
