MDY.pdb
     RDKit          3D

 29 29  0  0  1  0  0  0  0  0999 V2000
    7.8905  -11.5907   19.6021 C   0  0  0  0  0  0  0  0  0  0  0  0
    7.6379  -13.1728   20.3575 S   0  0  0  0  0  0  0  0  0  0  0  0
    7.1911  -14.5365   19.3434 C   0  0  0  0  0  0  0  0  0  0  0  0
    6.8328  -15.8039   20.0081 C   0  0  0  0  0  0  0  0  0  0  0  0
    7.5122  -16.0778   21.2828 C   0  0  2  0  0  0  0  0  0  0  0  0
    7.7894  -14.9376   22.1095 N   0  0  0  0  0  0  0  0  0  0  0  0
    8.7572  -16.9094   21.0991 C   0  0  0  0  0  0  0  0  0  0  0  0
    8.5984  -18.0728   20.6673 O   0  0  0  0  0  0  0  0  0  0  0  0
   10.0374  -16.4372   21.3855 N   0  0  0  0  0  0  0  0  0  0  0  0
   11.2149  -17.3220   21.5593 C   0  0  1  0  0  0  0  0  0  0  0  0
   12.1271  -16.9494   20.4174 C   0  0  0  0  0  0  0  0  0  0  0  0
   13.3554  -17.7121   20.3840 C   0  0  0  0  0  0  0  0  0  0  0  0
   13.5767  -18.6111   19.5587 O   0  0  0  0  0  0  0  0  0  0  0  0
   11.7963  -17.0759   22.9000 C   0  0  0  0  0  0  0  0  0  0  0  0
   12.5449  -16.1004   23.0985 O   0  0  0  0  0  0  0  0  0  0  0  0
   14.3632  -17.4490   21.3128 O   0  0  0  0  0  0  0  0  0  0  0  0
   10.2053  -14.3081   30.7946 O   0  0  0  0  0  0  0  0  0  0  0  0
   10.2969  -14.7587   29.4839 C   0  0  0  0  0  0  0  0  0  0  0  0
   11.1630  -15.7631   29.1846 C   0  0  0  0  0  0  0  0  0  0  0  0
   11.2667  -16.2285   27.8686 C   0  0  0  0  0  0  0  0  0  0  0  0
   10.5044  -15.6876   26.8592 C   0  0  0  0  0  0  0  0  0  0  0  0
   10.6499  -16.2106   25.4993 C   0  0  0  0  0  0  0  0  0  0  0  0
   11.4888  -17.4591   25.3890 C   0  0  2  0  0  0  0  0  0  0  0  0
   11.5335  -17.9326   24.0240 N   0  0  0  0  0  0  0  0  0  0  0  0
   11.0991  -18.5419   26.2877 C   0  0  0  0  0  0  0  0  0  0  0  0
   11.3217  -18.5128   27.5330 O   0  0  0  0  0  0  0  0  0  0  0  0
    9.6258  -14.6701   27.1580 C   0  0  0  0  0  0  0  0  0  0  0  0
    9.5374  -14.2233   28.4659 C   0  0  0  0  0  0  0  0  0  0  0  0
   10.4494  -19.6910   25.8290 O   0  0  0  0  0  0  0  0  0  0  0  0
  2  1  1  0
  3  2  1  0
  4  5  1  0
  4  3  1  0
  5  6  1  6
  7  8  2  0
  7  5  1  0
  9  7  1  0
 10  9  1  0
 10 11  1  6
 12 13  2  0
 12 11  1  0
 14 24  1  0
 14 10  1  0
 15 14  2  0
 16 12  1  0
 18 19  2  0
 18 17  1  0
 20 19  1  0
 21 20  2  0
 22 21  1  0
 23 22  1  6
 23 24  1  0
 25 23  1  0
 26 25  2  0
 27 21  1  0
 27 28  2  0
 28 18  1  0
 29 25  1  0
M  END
$$$$
