MDY.pdb
     RDKit          3D

 29 29  0  0  1  0  0  0  0  0999 V2000
    7.4157  -11.0340   20.0393 C   0  0  0  0  0  0  0  0  0  0  0  0
    7.8647  -12.5565   20.8255 S   0  0  0  0  0  0  0  0  0  0  0  0
    6.5972  -13.6917   21.2644 C   0  0  0  0  0  0  0  0  0  0  0  0
    6.9786  -14.8877   22.0394 C   0  0  0  0  0  0  0  0  0  0  0  0
    7.5741  -15.9907   21.2712 C   0  0  2  0  0  0  0  0  0  0  0  0
    6.6610  -16.7997   20.5147 N   0  0  0  0  0  0  0  0  0  0  0  0
    8.4683  -16.8601   22.1196 C   0  0  0  0  0  0  0  0  0  0  0  0
    7.9557  -17.8955   22.5995 O   0  0  0  0  0  0  0  0  0  0  0  0
    9.8045  -16.5561   22.3765 N   0  0  0  0  0  0  0  0  0  0  0  0
   10.6531  -17.3308   23.3141 C   0  0  1  0  0  0  0  0  0  0  0  0
   12.0419  -17.2113   22.7380 C   0  0  0  0  0  0  0  0  0  0  0  0
   13.0338  -17.9858   23.4508 C   0  0  0  0  0  0  0  0  0  0  0  0
   14.0674  -17.4943   23.9288 O   0  0  0  0  0  0  0  0  0  0  0  0
   10.5110  -16.7491   24.6697 C   0  0  0  0  0  0  0  0  0  0  0  0
   10.9069  -15.5926   24.9096 O   0  0  0  0  0  0  0  0  0  0  0  0
   12.8498  -19.3579   23.6277 O   0  0  0  0  0  0  0  0  0  0  0  0
    6.7984  -11.6020   25.5169 O   0  0  0  0  0  0  0  0  0  0  0  0
    7.1962  -12.8428   25.9981 C   0  0  0  0  0  0  0  0  0  0  0  0
    8.2629  -12.9201   26.8377 C   0  0  0  0  0  0  0  0  0  0  0  0
    8.6759  -14.1631   27.3312 C   0  0  0  0  0  0  0  0  0  0  0  0
    8.0210  -15.3217   26.9830 C   0  0  0  0  0  0  0  0  0  0  0  0
    8.4923  -16.5967   27.5273 C   0  0  0  0  0  0  0  0  0  0  0  0
    9.8934  -16.9782   27.1197 C   0  0  2  0  0  0  0  0  0  0  0  0
    9.9198  -17.4730   25.7618 N   0  0  0  0  0  0  0  0  0  0  0  0
   10.5579  -17.9211   28.0149 C   0  0  0  0  0  0  0  0  0  0  0  0
   10.8665  -19.0973   27.6650 O   0  0  0  0  0  0  0  0  0  0  0  0
    6.9400  -15.2479   26.1329 C   0  0  0  0  0  0  0  0  0  0  0  0
    6.5464  -14.0090   25.6551 C   0  0  0  0  0  0  0  0  0  0  0  0
   10.8998  -17.5849   29.3275 O   0  0  0  0  0  0  0  0  0  0  0  0
  2  1  1  0
  3  2  1  0
  4  5  1  0
  4  3  1  0
  5  6  1  1
  7  8  2  0
  7  5  1  0
  9  7  1  0
 10  9  1  0
 10 11  1  6
 12 13  2  0
 12 11  1  0
 14 24  1  0
 14 10  1  0
 15 14  2  0
 16 12  1  0
 18 19  2  0
 18 17  1  0
 20 19  1  0
 21 20  2  0
 22 21  1  0
 23 22  1  1
 23 24  1  0
 25 23  1  0
 26 25  2  0
 27 21  1  0
 27 28  2  0
 28 18  1  0
 29 25  1  0
M  END
$$$$
