MDY.pdb
     RDKit          3D

 29 29  0  0  1  0  0  0  0  0999 V2000
    7.9407  -12.1770   20.0437 C   0  0  0  0  0  0  0  0  0  0  0  0
    6.9946  -13.2252   18.9742 S   0  0  0  0  0  0  0  0  0  0  0  0
    7.4820  -14.9022   18.7801 C   0  0  0  0  0  0  0  0  0  0  0  0
    7.6149  -15.7283   19.9952 C   0  0  0  0  0  0  0  0  0  0  0  0
    8.6521  -15.3092   20.9492 C   0  0  2  0  0  0  0  0  0  0  0  0
    9.6286  -14.3808   20.4544 N   0  0  0  0  0  0  0  0  0  0  0  0
    9.3302  -16.4844   21.6083 C   0  0  0  0  0  0  0  0  0  0  0  0
    8.5851  -17.3606   22.1006 O   0  0  0  0  0  0  0  0  0  0  0  0
   10.7157  -16.6205   21.6829 N   0  0  0  0  0  0  0  0  0  0  0  0
   11.3939  -17.6086   22.5565 C   0  0  1  0  0  0  0  0  0  0  0  0
   12.7070  -17.8729   21.8631 C   0  0  0  0  0  0  0  0  0  0  0  0
   13.5562  -18.8086   22.5667 C   0  0  0  0  0  0  0  0  0  0  0  0
   13.1173  -19.7223   23.2814 O   0  0  0  0  0  0  0  0  0  0  0  0
   11.5347  -17.0230   23.9105 C   0  0  0  0  0  0  0  0  0  0  0  0
   12.4125  -16.1712   24.1462 O   0  0  0  0  0  0  0  0  0  0  0  0
   14.9438  -18.7066   22.4576 O   0  0  0  0  0  0  0  0  0  0  0  0
    5.8820  -11.6948   27.3998 O   0  0  0  0  0  0  0  0  0  0  0  0
    6.7104  -12.6188   26.7757 C   0  0  0  0  0  0  0  0  0  0  0  0
    6.1588  -13.7017   26.1660 C   0  0  0  0  0  0  0  0  0  0  0  0
    6.9801  -14.6416   25.5326 C   0  0  0  0  0  0  0  0  0  0  0  0
    8.3477  -14.4943   25.5120 C   0  0  0  0  0  0  0  0  0  0  0  0
    9.1623  -15.5054   24.8352 C   0  0  0  0  0  0  0  0  0  0  0  0
    9.8927  -16.4491   25.7574 C   0  0  2  0  0  0  0  0  0  0  0  0
   10.6826  -17.3980   25.0058 N   0  0  0  0  0  0  0  0  0  0  0  0
    9.0444  -17.1465   26.7196 C   0  0  0  0  0  0  0  0  0  0  0  0
    8.3450  -16.5404   27.5826 O   0  0  0  0  0  0  0  0  0  0  0  0
    8.9105  -13.3988   26.1283 C   0  0  0  0  0  0  0  0  0  0  0  0
    8.0814  -12.4798   26.7497 C   0  0  0  0  0  0  0  0  0  0  0  0
    8.9476  -18.5402   26.7519 O   0  0  0  0  0  0  0  0  0  0  0  0
  2  1  1  0
  3  2  1  0
  4  5  1  0
  4  3  1  0
  5  6  1  6
  7  8  2  0
  7  5  1  0
  9  7  1  0
 10  9  1  0
 10 11  1  6
 12 13  2  0
 12 11  1  0
 14 24  1  0
 14 10  1  0
 15 14  2  0
 16 12  1  0
 18 19  2  0
 18 17  1  0
 20 19  1  0
 21 20  2  0
 22 21  1  0
 23 22  1  6
 23 24  1  0
 25 23  1  0
 26 25  2  0
 27 21  1  0
 27 28  2  0
 28 18  1  0
 29 25  1  0
M  END
$$$$
