MDY.pdb
     RDKit          3D

 29 29  0  0  1  0  0  0  0  0999 V2000
    8.1198  -11.9585   21.1970 C   0  0  0  0  0  0  0  0  0  0  0  0
    6.9178  -12.9419   20.3450 S   0  0  0  0  0  0  0  0  0  0  0  0
    6.9149  -14.6817   20.5916 C   0  0  0  0  0  0  0  0  0  0  0  0
    7.2141  -15.1884   21.9444 C   0  0  0  0  0  0  0  0  0  0  0  0
    7.3448  -16.6473   22.0719 C   0  0  2  0  0  0  0  0  0  0  0  0
    6.1436  -17.3641   22.3938 N   0  0  0  0  0  0  0  0  0  0  0  0
    8.4594  -17.0410   23.0088 C   0  0  0  0  0  0  0  0  0  0  0  0
    8.1516  -17.7790   23.9710 O   0  0  0  0  0  0  0  0  0  0  0  0
    9.7788  -16.6227   22.8410 N   0  0  0  0  0  0  0  0  0  0  0  0
   10.8914  -17.0553   23.7209 C   0  0  1  0  0  0  0  0  0  0  0  0
   12.1346  -16.6786   22.9545 C   0  0  0  0  0  0  0  0  0  0  0  0
   12.3603  -17.4920   21.7800 C   0  0  0  0  0  0  0  0  0  0  0  0
   12.0490  -18.6906   21.7114 O   0  0  0  0  0  0  0  0  0  0  0  0
   10.7562  -16.3662   25.0259 C   0  0  0  0  0  0  0  0  0  0  0  0
   11.2823  -15.2529   25.2141 O   0  0  0  0  0  0  0  0  0  0  0  0
   12.9563  -16.9312   20.6495 O   0  0  0  0  0  0  0  0  0  0  0  0
    7.0350  -11.3087   25.0528 O   0  0  0  0  0  0  0  0  0  0  0  0
    7.4853  -12.4127   25.7654 C   0  0  0  0  0  0  0  0  0  0  0  0
    6.7539  -13.5587   25.7492 C   0  0  0  0  0  0  0  0  0  0  0  0
    7.1945  -14.6799   26.4620 C   0  0  0  0  0  0  0  0  0  0  0  0
    8.3632  -14.6496   27.1870 C   0  0  0  0  0  0  0  0  0  0  0  0
    8.7805  -15.8497   27.9148 C   0  0  0  0  0  0  0  0  0  0  0  0
   10.1037  -16.4259   27.4769 C   0  0  2  0  0  0  0  0  0  0  0  0
   10.0246  -16.9332   26.1257 N   0  0  0  0  0  0  0  0  0  0  0  0
   10.6555  -17.4427   28.3678 C   0  0  0  0  0  0  0  0  0  0  0  0
   10.8659  -17.2350   29.5981 O   0  0  0  0  0  0  0  0  0  0  0  0
    9.1072  -13.4908   27.2060 C   0  0  0  0  0  0  0  0  0  0  0  0
    8.6549  -12.3921   26.4945 C   0  0  0  0  0  0  0  0  0  0  0  0
   10.9903  -18.7226   27.9176 O   0  0  0  0  0  0  0  0  0  0  0  0
  2  1  1  0
  3  2  1  0
  4  5  1  0
  4  3  1  0
  5  6  1  1
  7  8  2  0
  7  5  1  0
  9  7  1  0
 10  9  1  0
 10 11  1  6
 12 13  2  0
 12 11  1  0
 14 24  1  0
 14 10  1  0
 15 14  2  0
 16 12  1  0
 18 19  2  0
 18 17  1  0
 20 19  1  0
 21 20  2  0
 22 21  1  0
 23 22  1  1
 23 24  1  0
 25 23  1  0
 26 25  2  0
 27 21  1  0
 27 28  2  0
 28 18  1  0
 29 25  1  0
M  END
$$$$
