MDY.pdb
     RDKit          3D

 29 29  0  0  1  0  0  0  0  0999 V2000
    7.2124  -11.8312   26.1100 C   0  0  0  0  0  0  0  0  0  0  0  0
    6.6295  -11.8628   24.4377 S   0  0  0  0  0  0  0  0  0  0  0  0
    6.1490  -13.3999   23.7346 C   0  0  0  0  0  0  0  0  0  0  0  0
    7.1527  -14.4799   23.6827 C   0  0  0  0  0  0  0  0  0  0  0  0
    7.5530  -14.9237   22.3394 C   0  0  2  0  0  0  0  0  0  0  0  0
    6.4864  -15.2773   21.4462 N   0  0  0  0  0  0  0  0  0  0  0  0
    8.5867  -16.0212   22.3850 C   0  0  0  0  0  0  0  0  0  0  0  0
    8.3635  -16.9725   23.1664 O   0  0  0  0  0  0  0  0  0  0  0  0
    9.7446  -16.0095   21.6085 N   0  0  0  0  0  0  0  0  0  0  0  0
   10.9338  -16.8457   21.9019 C   0  0  1  0  0  0  0  0  0  0  0  0
   11.8976  -16.5183   20.7889 C   0  0  0  0  0  0  0  0  0  0  0  0
   11.4596  -16.9767   19.4891 C   0  0  0  0  0  0  0  0  0  0  0  0
   11.4708  -16.2621   18.4754 O   0  0  0  0  0  0  0  0  0  0  0  0
   11.4333  -16.4982   23.2532 C   0  0  0  0  0  0  0  0  0  0  0  0
   11.8595  -15.3536   23.4981 O   0  0  0  0  0  0  0  0  0  0  0  0
   10.9949  -18.2833   19.3324 O   0  0  0  0  0  0  0  0  0  0  0  0
   11.2059  -15.4772   31.8808 O   0  0  0  0  0  0  0  0  0  0  0  0
   11.0676  -15.6587   30.5106 C   0  0  0  0  0  0  0  0  0  0  0  0
   10.8517  -16.9095   30.0235 C   0  0  0  0  0  0  0  0  0  0  0  0
   10.7099  -17.1087   28.6452 C   0  0  0  0  0  0  0  0  0  0  0  0
   10.7848  -16.0570   27.7616 C   0  0  0  0  0  0  0  0  0  0  0  0
   10.6290  -16.3184   26.3294 C   0  0  0  0  0  0  0  0  0  0  0  0
   11.7663  -17.0828   25.6994 C   0  0  2  0  0  0  0  0  0  0  0  0
   11.4530  -17.4442   24.3354 N   0  0  0  0  0  0  0  0  0  0  0  0
   12.2041  -18.2584   26.4466 C   0  0  0  0  0  0  0  0  0  0  0  0
   11.7283  -19.4138   26.2471 O   0  0  0  0  0  0  0  0  0  0  0  0
   11.0033  -14.7882   28.2509 C   0  0  0  0  0  0  0  0  0  0  0  0
   11.1410  -14.6113   29.6175 C   0  0  0  0  0  0  0  0  0  0  0  0
   13.1851  -18.1853   27.4391 O   0  0  0  0  0  0  0  0  0  0  0  0
  2  1  1  0
  3  2  1  0
  4  5  1  0
  4  3  1  0
  5  6  1  1
  7  8  2  0
  7  5  1  0
  9  7  1  0
 10  9  1  0
 10 11  1  6
 12 13  2  0
 12 11  1  0
 14 24  1  0
 14 10  1  0
 15 14  2  0
 16 12  1  0
 18 19  2  0
 18 17  1  0
 20 19  1  0
 21 20  2  0
 22 21  1  0
 23 22  1  1
 23 24  1  0
 25 23  1  0
 26 25  2  0
 27 21  1  0
 27 28  2  0
 28 18  1  0
 29 25  1  0
M  END
$$$$
