WAV.pdb
     RDKit          3D

 27 28  0  0  1  0  0  0  0  0999 V2000
    6.3096  -17.6018   24.6803 N   0  0  0  0  0  0  0  0  0  0  0  0
    7.4347  -16.7641   24.4462 C   0  0  1  0  0  0  0  0  0  0  0  0
    7.7274  -15.8002   25.5946 C   0  0  0  0  0  0  0  0  0  0  0  0
    6.6659  -14.7930   25.7458 C   0  0  0  0  0  0  0  0  0  0  0  0
    5.3752  -15.0070   26.1283 C   0  0  0  0  0  0  0  0  0  0  0  0
    4.7033  -13.8609   26.1609 N   0  0  0  0  0  0  0  0  0  0  0  0
    5.5778  -12.8885   25.7929 C   0  0  0  0  0  0  0  0  0  0  0  0
    5.4045  -11.5287   25.6613 C   0  0  0  0  0  0  0  0  0  0  0  0
    6.4171  -10.6999   25.2745 C   0  0  0  0  0  0  0  0  0  0  0  0
    7.6479  -11.2743   25.0131 C   0  0  0  0  0  0  0  0  0  0  0  0
    7.8514  -12.6198   25.1337 C   0  0  0  0  0  0  0  0  0  0  0  0
    6.8141  -13.4440   25.5269 C   0  0  0  0  0  0  0  0  0  0  0  0
    8.6814  -17.4358   24.0822 C   0  0  0  0  0  0  0  0  0  0  0  0
    8.9652  -18.5883   24.5124 O   0  0  0  0  0  0  0  0  0  0  0  0
   11.7552  -16.4029   22.2123 C   0  0  0  0  0  0  0  0  0  0  0  0
   11.0954  -17.0356   23.4039 C   0  0  2  0  0  0  0  0  0  0  0  0
    9.6582  -16.8457   23.2189 N   0  0  0  0  0  0  0  0  0  0  0  0
   11.5782  -16.5136   24.6892 C   0  0  0  0  0  0  0  0  0  0  0  0
   12.2891  -15.4734   24.7594 O   0  0  0  0  0  0  0  0  0  0  0  0
   11.3729  -14.2299   26.7446 C   0  0  0  0  0  0  0  0  0  0  0  0
   10.7354  -15.4086   27.5000 C   0  0  2  0  0  0  0  0  0  0  0  0
   10.7771  -15.0454   28.9645 C   0  0  0  0  0  0  0  0  0  0  0  0
   11.4822  -16.6682   27.2173 C   0  0  2  0  0  0  0  0  0  0  0  0
   11.2459  -17.1837   25.8799 N   0  0  0  0  0  0  0  0  0  0  0  0
   11.1509  -17.7263   28.2331 C   0  0  0  0  0  0  0  0  0  0  0  0
   10.2008  -18.4935   27.9715 O   0  0  0  0  0  0  0  0  0  0  0  0
   11.8347  -17.8900   29.4232 O   0  0  0  0  0  0  0  0  0  0  0  0
  2 13  1  0
  2  1  1  1
  3  2  1  0
  4  3  1  0
  5  4  2  0
  6  5  1  0
  7  6  1  0
  7 12  2  0
  8  9  2  0
  8  7  1  0
  9 10  1  0
 10 11  2  0
 12 11  1  0
 12  4  1  0
 13 14  2  0
 16 15  1  6
 17 13  1  0
 17 16  1  0
 18 19  2  0
 18 16  1  0
 21 20  1  6
 21 23  1  0
 22 21  1  0
 23 24  1  6
 24 18  1  0
 25 23  1  0
 26 25  2  0
 27 25  1  0
M  END
$$$$
