WAV.pdb
     RDKit          3D

 27 28  0  0  1  0  0  0  0  0999 V2000
    6.3548  -18.2896   24.2855 N   0  0  0  0  0  0  0  0  0  0  0  0
    7.2343  -17.1795   24.4141 C   0  0  1  0  0  0  0  0  0  0  0  0
    7.1836  -16.5168   25.7896 C   0  0  0  0  0  0  0  0  0  0  0  0
    6.2868  -15.3507   25.8009 C   0  0  0  0  0  0  0  0  0  0  0  0
    4.9264  -15.3581   25.8850 C   0  0  0  0  0  0  0  0  0  0  0  0
    4.4526  -14.1165   25.8742 N   0  0  0  0  0  0  0  0  0  0  0  0
    5.5285  -13.2921   25.7822 C   0  0  0  0  0  0  0  0  0  0  0  0
    5.6046  -11.9179   25.7342 C   0  0  0  0  0  0  0  0  0  0  0  0
    6.7950  -11.2576   25.6404 C   0  0  0  0  0  0  0  0  0  0  0  0
    7.9471  -12.0216   25.5943 C   0  0  0  0  0  0  0  0  0  0  0  0
    7.9048  -13.3864   25.6390 C   0  0  0  0  0  0  0  0  0  0  0  0
    6.6899  -14.0382   25.7343 C   0  0  0  0  0  0  0  0  0  0  0  0
    8.6356  -17.4164   24.0705 C   0  0  0  0  0  0  0  0  0  0  0  0
    9.2043  -18.5154   24.3208 O   0  0  0  0  0  0  0  0  0  0  0  0
   11.3577  -15.5027   22.3717 C   0  0  0  0  0  0  0  0  0  0  0  0
   10.9109  -16.5407   23.3609 C   0  0  2  0  0  0  0  0  0  0  0  0
    9.4550  -16.4339   23.4296 N   0  0  0  0  0  0  0  0  0  0  0  0
   11.5539  -16.4150   24.6755 C   0  0  0  0  0  0  0  0  0  0  0  0
   12.8093  -16.4050   24.8033 O   0  0  0  0  0  0  0  0  0  0  0  0
    9.9607  -13.9995   27.5792 C   0  0  0  0  0  0  0  0  0  0  0  0
   10.2741  -15.4227   28.0718 C   0  0  2  0  0  0  0  0  0  0  0  0
   10.7995  -15.2777   29.4793 C   0  0  0  0  0  0  0  0  0  0  0  0
   11.2680  -16.0743   27.1708 C   0  0  2  0  0  0  0  0  0  0  0  0
   10.7586  -16.3031   25.8298 N   0  0  0  0  0  0  0  0  0  0  0  0
   11.7513  -17.3722   27.7566 C   0  0  0  0  0  0  0  0  0  0  0  0
   11.3195  -18.4268   27.2458 O   0  0  0  0  0  0  0  0  0  0  0  0
   12.6359  -17.4552   28.8155 O   0  0  0  0  0  0  0  0  0  0  0  0
  2 13  1  0
  2  1  1  1
  3  2  1  0
  4  3  1  0
  5  4  2  0
  6  5  1  0
  7  6  1  0
  7 12  2  0
  8  9  2  0
  8  7  1  0
  9 10  1  0
 10 11  2  0
 12 11  1  0
 12  4  1  0
 13 14  2  0
 16 15  1  6
 17 13  1  0
 17 16  1  0
 18 19  2  0
 18 16  1  0
 21 20  1  6
 21 23  1  0
 22 21  1  0
 23 24  1  6
 24 18  1  0
 25 23  1  0
 26 25  2  0
 27 25  1  0
M  END
$$$$
