WAV.pdb
     RDKit          3D

 27 28  0  0  1  0  0  0  0  0999 V2000
    6.1512  -17.7821   23.8158 N   0  0  0  0  0  0  0  0  0  0  0  0
    7.1913  -16.8541   24.0976 C   0  0  1  0  0  0  0  0  0  0  0  0
    7.1511  -16.3065   25.5231 C   0  0  0  0  0  0  0  0  0  0  0  0
    6.3643  -15.0664   25.6095 C   0  0  0  0  0  0  0  0  0  0  0  0
    5.0697  -14.9384   26.0162 C   0  0  0  0  0  0  0  0  0  0  0  0
    4.6913  -13.6652   25.9712 N   0  0  0  0  0  0  0  0  0  0  0  0
    5.7631  -12.9581   25.5275 C   0  0  0  0  0  0  0  0  0  0  0  0
    5.9158  -11.6085   25.2995 C   0  0  0  0  0  0  0  0  0  0  0  0
    7.0870  -11.0748   24.8463 C   0  0  0  0  0  0  0  0  0  0  0  0
    8.1386  -11.9438   24.6176 C   0  0  0  0  0  0  0  0  0  0  0  0
    8.0183  -13.2874   24.8333 C   0  0  0  0  0  0  0  0  0  0  0  0
    6.8244  -13.8104   25.2928 C   0  0  0  0  0  0  0  0  0  0  0  0
    8.5550  -17.2999   23.8159 C   0  0  0  0  0  0  0  0  0  0  0  0
    8.9198  -18.4913   24.0196 O   0  0  0  0  0  0  0  0  0  0  0  0
   11.6593  -15.8673   22.3442 C   0  0  0  0  0  0  0  0  0  0  0  0
   10.9905  -16.7367   23.3702 C   0  0  2  0  0  0  0  0  0  0  0  0
    9.5636  -16.4309   23.2914 N   0  0  0  0  0  0  0  0  0  0  0  0
   11.5344  -16.5720   24.7247 C   0  0  0  0  0  0  0  0  0  0  0  0
   12.7735  -16.6335   24.9555 O   0  0  0  0  0  0  0  0  0  0  0  0
    9.9389  -13.8113   27.1647 C   0  0  0  0  0  0  0  0  0  0  0  0
   10.0971  -15.1626   27.8826 C   0  0  2  0  0  0  0  0  0  0  0  0
   10.5577  -14.8459   29.2847 C   0  0  0  0  0  0  0  0  0  0  0  0
   11.0754  -16.0223   27.1560 C   0  0  2  0  0  0  0  0  0  0  0  0
   10.6596  -16.3401   25.8009 N   0  0  0  0  0  0  0  0  0  0  0  0
   11.3385  -17.2932   27.9155 C   0  0  0  0  0  0  0  0  0  0  0  0
   10.6832  -18.3037   27.5850 O   0  0  0  0  0  0  0  0  0  0  0  0
   12.2550  -17.3975   28.9449 O   0  0  0  0  0  0  0  0  0  0  0  0
  2 13  1  0
  2  1  1  1
  3  2  1  0
  4  3  1  0
  5  4  2  0
  6  5  1  0
  7  6  1  0
  7 12  2  0
  8  9  2  0
  8  7  1  0
  9 10  1  0
 10 11  2  0
 12 11  1  0
 12  4  1  0
 13 14  2  0
 16 15  1  6
 17 13  1  0
 17 16  1  0
 18 19  2  0
 18 16  1  0
 21 20  1  6
 21 23  1  0
 22 21  1  0
 23 24  1  6
 24 18  1  0
 25 23  1  0
 26 25  2  0
 27 25  1  0
M  END
$$$$
