WAV.pdb
     RDKit          3D

 27 28  0  0  1  0  0  0  0  0999 V2000
    7.9830  -17.8671   26.0468 N   0  0  0  0  0  0  0  0  0  0  0  0
    7.4045  -17.0035   25.0761 C   0  0  1  0  0  0  0  0  0  0  0  0
    8.2144  -15.7317   24.8307 C   0  0  0  0  0  0  0  0  0  0  0  0
    8.2240  -14.8543   26.0116 C   0  0  0  0  0  0  0  0  0  0  0  0
    9.0495  -14.9369   27.0930 C   0  0  0  0  0  0  0  0  0  0  0  0
    8.7738  -13.9717   27.9639 N   0  0  0  0  0  0  0  0  0  0  0  0
    7.7508  -13.2521   27.4336 C   0  0  0  0  0  0  0  0  0  0  0  0
    7.0833  -12.1494   27.9186 C   0  0  0  0  0  0  0  0  0  0  0  0
    6.0654  -11.5544   27.2317 C   0  0  0  0  0  0  0  0  0  0  0  0
    5.7151  -12.0996   26.0098 C   0  0  0  0  0  0  0  0  0  0  0  0
    6.3574  -13.1932   25.5020 C   0  0  0  0  0  0  0  0  0  0  0  0
    7.3864  -13.7828   26.2116 C   0  0  0  0  0  0  0  0  0  0  0  0
    7.0861  -17.6015   23.7805 C   0  0  0  0  0  0  0  0  0  0  0  0
    7.8194  -18.4874   23.2595 O   0  0  0  0  0  0  0  0  0  0  0  0
    4.1507  -17.6648   21.5187 C   0  0  0  0  0  0  0  0  0  0  0  0
    5.6336  -17.8096   21.7082 C   0  0  2  0  0  0  0  0  0  0  0  0
    5.9320  -17.2346   23.0182 N   0  0  0  0  0  0  0  0  0  0  0  0
    6.4258  -17.2073   20.6278 C   0  0  0  0  0  0  0  0  0  0  0  0
    6.3069  -17.5811   19.4284 O   0  0  0  0  0  0  0  0  0  0  0  0
    8.4799  -13.4601   21.2931 C   0  0  0  0  0  0  0  0  0  0  0  0
    8.0665  -14.0567   19.9367 C   0  0  2  0  0  0  0  0  0  0  0  0
    6.6351  -13.6360   19.7076 C   0  0  0  0  0  0  0  0  0  0  0  0
    8.2140  -15.5405   19.9583 C   0  0  2  0  0  0  0  0  0  0  0  0
    7.3452  -16.1864   20.9270 N   0  0  0  0  0  0  0  0  0  0  0  0
    9.6421  -15.9327   20.2192 C   0  0  0  0  0  0  0  0  0  0  0  0
   10.4892  -15.6160   19.3578 O   0  0  0  0  0  0  0  0  0  0  0  0
   10.0579  -16.6152   21.3470 O   0  0  0  0  0  0  0  0  0  0  0  0
  2 13  1  0
  2  1  1  1
  3  2  1  0
  4  3  1  0
  5  4  2  0
  6  5  1  0
  7  6  1  0
  7 12  2  0
  8  9  2  0
  8  7  1  0
  9 10  1  0
 10 11  2  0
 12 11  1  0
 12  4  1  0
 13 14  2  0
 16 15  1  6
 17 13  1  0
 17 16  1  0
 18 19  2  0
 18 16  1  0
 21 20  1  1
 21 23  1  0
 22 21  1  0
 23 24  1  1
 24 18  1  0
 25 23  1  0
 26 25  2  0
 27 25  1  0
M  END
$$$$
