WAV.pdb
     RDKit          3D

 27 28  0  0  1  0  0  0  0  0999 V2000
    7.0371  -17.3615   25.2731 N   0  0  0  0  0  0  0  0  0  0  0  0
    7.5637  -16.8760   24.0445 C   0  0  1  0  0  0  0  0  0  0  0  0
    6.7596  -15.7214   23.4496 C   0  0  0  0  0  0  0  0  0  0  0  0
    6.2272  -14.8321   24.4936 C   0  0  0  0  0  0  0  0  0  0  0  0
    5.4817  -15.1879   25.5777 C   0  0  0  0  0  0  0  0  0  0  0  0
    5.1839  -14.1190   26.3090 N   0  0  0  0  0  0  0  0  0  0  0  0
    5.7491  -13.0529   25.6848 C   0  0  0  0  0  0  0  0  0  0  0  0
    5.7495  -11.7160   26.0153 C   0  0  0  0  0  0  0  0  0  0  0  0
    6.3825  -10.7779   25.2529 C   0  0  0  0  0  0  0  0  0  0  0  0
    7.0377  -11.2151   24.1159 C   0  0  0  0  0  0  0  0  0  0  0  0
    7.0548  -12.5341   23.7607 C   0  0  0  0  0  0  0  0  0  0  0  0
    6.4083  -13.4704   24.5451 C   0  0  0  0  0  0  0  0  0  0  0  0
    8.9762  -16.4983   24.0460 C   0  0  0  0  0  0  0  0  0  0  0  0
    9.3535  -15.3391   24.3745 O   0  0  0  0  0  0  0  0  0  0  0  0
   11.6010  -15.9832   22.6362 C   0  0  0  0  0  0  0  0  0  0  0  0
   11.4353  -17.0290   23.7013 C   0  0  2  0  0  0  0  0  0  0  0  0
   10.0229  -17.4042   23.6836 N   0  0  0  0  0  0  0  0  0  0  0  0
   11.8927  -16.5947   25.0278 C   0  0  0  0  0  0  0  0  0  0  0  0
   13.0717  -16.1903   25.2249 O   0  0  0  0  0  0  0  0  0  0  0  0
   10.8304  -13.8643   27.4324 C   0  0  0  0  0  0  0  0  0  0  0  0
   10.4892  -15.2241   28.0656 C   0  0  2  0  0  0  0  0  0  0  0  0
   10.7093  -15.0670   29.5506 C   0  0  0  0  0  0  0  0  0  0  0  0
   11.3499  -16.2948   27.4854 C   0  0  2  0  0  0  0  0  0  0  0  0
   11.0014  -16.6271   26.1148 N   0  0  0  0  0  0  0  0  0  0  0  0
   11.3054  -17.5357   28.3336 C   0  0  0  0  0  0  0  0  0  0  0  0
   10.4396  -18.3907   28.0523 O   0  0  0  0  0  0  0  0  0  0  0  0
   12.1614  -17.7738   29.3924 O   0  0  0  0  0  0  0  0  0  0  0  0
  2 13  1  0
  2  1  1  1
  3  2  1  0
  4  3  1  0
  5  4  2  0
  6  5  1  0
  7  6  1  0
  7 12  2  0
  8  9  2  0
  8  7  1  0
  9 10  1  0
 10 11  2  0
 12 11  1  0
 12  4  1  0
 13 14  2  0
 16 15  1  6
 17 13  1  0
 17 16  1  0
 18 19  2  0
 18 16  1  0
 21 20  1  6
 21 23  1  0
 22 21  1  0
 23 24  1  6
 24 18  1  0
 25 23  1  0
 26 25  2  0
 27 25  1  0
M  END
$$$$
