MRR.pdb
     RDKit          3D

 31 30  0  0  1  0  0  0  0  0999 V2000
    6.7957  -11.4816   23.7753 C   0  0  0  0  0  0  0  0  0  0  0  0
    7.6068  -11.1011   22.1819 S   0  0  0  0  0  0  0  0  0  0  0  0
    7.2286  -12.4917   21.0627 C   0  0  0  0  0  0  0  0  0  0  0  0
    7.4317  -13.8100   21.7329 C   0  0  0  0  0  0  0  0  0  0  0  0
    7.1309  -15.0054   20.8589 C   0  0  2  0  0  0  0  0  0  0  0  0
    5.8087  -15.4579   21.2278 N   0  0  0  0  0  0  0  0  0  0  0  0
    8.1449  -16.0620   21.1490 C   0  0  0  0  0  0  0  0  0  0  0  0
    7.9862  -16.9114   22.0588 O   0  0  0  0  0  0  0  0  0  0  0  0
   11.9009  -21.6869   18.0671 N   0  0  0  0  0  0  0  0  0  0  0  0
   13.2391  -21.4137   18.4367 C   0  0  0  0  0  0  0  0  0  0  0  0
   14.0742  -22.3714   18.6006 N   0  0  0  0  0  0  0  0  0  0  0  0
   13.6719  -20.0827   18.6302 N   0  0  0  0  0  0  0  0  0  0  0  0
   12.7456  -19.0046   18.4143 C   0  0  0  0  0  0  0  0  0  0  0  0
   12.1011  -18.5892   19.7057 C   0  0  0  0  0  0  0  0  0  0  0  0
   11.0894  -17.5172   19.4317 C   0  0  0  0  0  0  0  0  0  0  0  0
   10.3137  -17.0885   20.6609 C   0  0  2  0  0  0  0  0  0  0  0  0
    9.3427  -16.0908   20.3437 N   0  0  0  0  0  0  0  0  0  0  0  0
   11.3496  -16.5548   21.6134 C   0  0  0  0  0  0  0  0  0  0  0  0
   12.2135  -15.7136   21.2020 O   0  0  0  0  0  0  0  0  0  0  0  0
   15.0662  -22.2177   18.8666 N   0  0  0  0  0  0  0  0  0  0  0  0
   11.5161  -16.3980   30.4432 C   0  0  0  0  0  0  0  0  0  0  0  0
   10.6394  -15.5038   29.7508 N   0  0  0  0  0  0  0  0  0  0  0  0
   10.0305  -14.5761   30.3658 N   0  0  0  0  0  0  0  0  0  0  0  0
   10.4724  -15.6868   28.3634 C   0  0  0  0  0  0  0  0  0  0  0  0
   11.4440  -16.4944   27.5889 C   0  0  0  0  0  0  0  0  0  0  0  0
   11.0816  -16.4032   26.1531 C   0  0  0  0  0  0  0  0  0  0  0  0
   11.8847  -17.1251   25.1852 C   0  0  2  0  0  0  0  0  0  0  0  0
   12.3811  -16.5423   23.9069 N   0  0  0  0  0  0  0  0  0  0  0  0
   11.3222  -17.0100   22.9312 C   0  0  0  0  0  0  0  0  0  0  0  0
   13.5932  -17.2524   23.4251 O   0  0  0  0  0  0  0  0  0  0  0  0
   13.6328  -18.3967   22.9410 O   0  0  0  0  0  0  0  0  0  0  0  0
  1  2  1  0
  2  3  1  0
  4  3  1  0
  5  4  1  0
  5  6  1  1
  7  8  2  0
  7  5  1  0
  9 10  1  0
 10 12  1  0
 11 10  2  0
 12 13  1  0
 13 14  1  0
 14 15  1  0
 16 15  1  6
 16 17  1  0
 17  7  1  0
 18 19  2  0
 18 16  1  0
 20 21  1  0
 21 22  2  0
 23 21  1  0
 23 24  1  0
 24 25  1  0
 25 26  1  0
 27 26  1  1
 27 28  1  0
 28 18  1  0
 29 27  1  0
 30 29  2  0
 31 29  1  0
M  END
$$$$
