MRR.pdb
     RDKit          3D

 31 30  0  0  1  0  0  0  0  0999 V2000
    7.2380  -12.3006   27.8131 C   0  0  0  0  0  0  0  0  0  0  0  0
    5.9830  -11.7444   26.6060 S   0  0  0  0  0  0  0  0  0  0  0  0
    6.5173  -12.3702   24.9773 C   0  0  0  0  0  0  0  0  0  0  0  0
    7.1451  -13.7203   25.0843 C   0  0  0  0  0  0  0  0  0  0  0  0
    8.3090  -13.9415   24.1462 C   0  0  2  0  0  0  0  0  0  0  0  0
    7.8196  -13.6600   22.8157 N   0  0  0  0  0  0  0  0  0  0  0  0
    8.7319  -15.3690   24.2564 C   0  0  0  0  0  0  0  0  0  0  0  0
    8.9354  -15.9242   25.3631 O   0  0  0  0  0  0  0  0  0  0  0  0
   10.0330  -23.0267   20.5949 N   0  0  0  0  0  0  0  0  0  0  0  0
    8.7964  -22.3670   20.4011 C   0  0  0  0  0  0  0  0  0  0  0  0
    7.6995  -23.0289   20.4177 N   0  0  0  0  0  0  0  0  0  0  0  0
    8.7545  -20.9711   20.1865 N   0  0  0  0  0  0  0  0  0  0  0  0
    9.9063  -20.1754   20.5137 C   0  0  0  0  0  0  0  0  0  0  0  0
    9.7878  -19.6114   21.9006 C   0  0  0  0  0  0  0  0  0  0  0  0
    9.4075  -18.1636   21.8154 C   0  0  0  0  0  0  0  0  0  0  0  0
    9.3244  -17.4792   23.1649 C   0  0  2  0  0  0  0  0  0  0  0  0
    8.9076  -16.1197   23.0359 N   0  0  0  0  0  0  0  0  0  0  0  0
   10.7132  -17.5695   23.7379 C   0  0  0  0  0  0  0  0  0  0  0  0
   11.6472  -16.8546   23.2483 O   0  0  0  0  0  0  0  0  0  0  0  0
    6.7690  -22.5850   20.2937 N   0  0  0  0  0  0  0  0  0  0  0  0
   14.2763  -21.0762   32.1404 C   0  0  0  0  0  0  0  0  0  0  0  0
   13.1331  -20.7099   31.3615 N   0  0  0  0  0  0  0  0  0  0  0  0
   11.9592  -20.8162   31.8308 N   0  0  0  0  0  0  0  0  0  0  0  0
   13.3521  -20.2282   30.0553 C   0  0  0  0  0  0  0  0  0  0  0  0
   12.2322  -19.6694   29.2620 C   0  0  0  0  0  0  0  0  0  0  0  0
   12.7722  -19.2084   27.9593 C   0  0  0  0  0  0  0  0  0  0  0  0
   11.8423  -18.9015   26.8896 C   0  0  1  0  0  0  0  0  0  0  0  0
   12.2481  -18.4223   25.5383 N   0  0  0  0  0  0  0  0  0  0  0  0
   10.9263  -18.4471   24.8005 C   0  0  0  0  0  0  0  0  0  0  0  0
   13.0355  -19.4528   24.8146 O   0  0  0  0  0  0  0  0  0  0  0  0
   14.2676  -19.4575   24.6505 O   0  0  0  0  0  0  0  0  0  0  0  0
  1  2  1  0
  2  3  1  0
  4  3  1  0
  5  4  1  0
  5  6  1  6
  7  8  2  0
  7  5  1  0
  9 10  1  0
 10 12  1  0
 11 10  2  0
 12 13  1  0
 13 14  1  0
 14 15  1  0
 16 15  1  6
 16 17  1  0
 17  7  1  0
 18 19  2  0
 18 16  1  0
 20 21  1  0
 21 22  2  0
 23 21  1  0
 23 24  1  0
 24 25  1  0
 25 26  1  0
 27 26  1  1
 27 28  1  0
 28 18  1  0
 29 27  1  0
 30 29  2  0
 31 29  1  0
M  END
$$$$
