MRR.pdb
     RDKit          3D

 31 30  0  0  1  0  0  0  0  0999 V2000
    5.9733  -10.5928   26.9699 C   0  0  0  0  0  0  0  0  0  0  0  0
    6.6029  -12.2066   27.5539 S   0  0  0  0  0  0  0  0  0  0  0  0
    5.4552  -13.4729   26.9142 C   0  0  0  0  0  0  0  0  0  0  0  0
    6.1553  -14.4611   26.0415 C   0  0  0  0  0  0  0  0  0  0  0  0
    7.5461  -14.0451   25.6216 C   0  0  2  0  0  0  0  0  0  0  0  0
    7.3929  -12.8369   24.8433 N   0  0  0  0  0  0  0  0  0  0  0  0
    8.1264  -15.1363   24.7843 C   0  0  0  0  0  0  0  0  0  0  0  0
    8.2612  -16.3087   25.2107 O   0  0  0  0  0  0  0  0  0  0  0  0
    9.4670  -15.2332   16.9443 N   0  0  0  0  0  0  0  0  0  0  0  0
    8.3223  -14.4344   17.1755 C   0  0  0  0  0  0  0  0  0  0  0  0
    7.4584  -14.2561   16.2463 N   0  0  0  0  0  0  0  0  0  0  0  0
    8.1168  -13.8229   18.4325 N   0  0  0  0  0  0  0  0  0  0  0  0
    9.1568  -13.8870   19.4231 C   0  0  0  0  0  0  0  0  0  0  0  0
    8.6231  -14.4187   20.7224 C   0  0  0  0  0  0  0  0  0  0  0  0
    9.6356  -15.3404   21.3333 C   0  0  0  0  0  0  0  0  0  0  0  0
    9.2619  -15.8139   22.7234 C   0  0  2  0  0  0  0  0  0  0  0  0
    8.5409  -14.8113   23.4402 N   0  0  0  0  0  0  0  0  0  0  0  0
   10.5706  -16.1278   23.3971 C   0  0  0  0  0  0  0  0  0  0  0  0
   11.2853  -15.1815   23.8630 O   0  0  0  0  0  0  0  0  0  0  0  0
    6.6007  -13.6846   16.3733 N   0  0  0  0  0  0  0  0  0  0  0  0
   10.4824  -20.5468   30.3113 C   0  0  0  0  0  0  0  0  0  0  0  0
   11.8107  -20.8616   29.8824 N   0  0  0  0  0  0  0  0  0  0  0  0
   12.6683  -21.3264   30.6935 N   0  0  0  0  0  0  0  0  0  0  0  0
   12.1372  -20.6377   28.5297 C   0  0  0  0  0  0  0  0  0  0  0  0
   11.3853  -19.6429   27.7292 C   0  0  0  0  0  0  0  0  0  0  0  0
   11.9072  -19.6759   26.3407 C   0  0  0  0  0  0  0  0  0  0  0  0
   11.2850  -18.8273   25.3428 C   0  0  1  0  0  0  0  0  0  0  0  0
   12.0283  -17.8709   24.4751 N   0  0  0  0  0  0  0  0  0  0  0  0
   10.9558  -17.4651   23.4865 C   0  0  0  0  0  0  0  0  0  0  0  0
   13.0076  -18.5765   23.6098 O   0  0  0  0  0  0  0  0  0  0  0  0
   14.1872  -18.8425   23.8977 O   0  0  0  0  0  0  0  0  0  0  0  0
  1  2  1  0
  2  3  1  0
  4  3  1  0
  5  4  1  0
  5  6  1  6
  7  8  2  0
  7  5  1  0
  9 10  1  0
 10 12  1  0
 11 10  2  0
 12 13  1  0
 13 14  1  0
 14 15  1  0
 16 15  1  6
 16 17  1  0
 17  7  1  0
 18 19  2  0
 18 16  1  0
 20 21  1  0
 21 22  2  0
 23 21  1  0
 23 24  1  0
 24 25  1  0
 25 26  1  0
 27 26  1  1
 27 28  1  0
 28 18  1  0
 29 27  1  0
 30 29  2  0
 31 29  1  0
M  END
$$$$
