MRR.pdb
     RDKit          3D

 31 30  0  0  1  0  0  0  0  0999 V2000
    6.4473  -11.7427   19.2934 C   0  0  0  0  0  0  0  0  0  0  0  0
    7.7477  -13.0275   19.2975 S   0  0  0  0  0  0  0  0  0  0  0  0
    6.8929  -14.6295   19.4779 C   0  0  0  0  0  0  0  0  0  0  0  0
    7.7795  -15.6613   20.0926 C   0  0  0  0  0  0  0  0  0  0  0  0
    8.5789  -15.1694   21.2768 C   0  0  2  0  0  0  0  0  0  0  0  0
    9.4218  -14.1031   20.7853 N   0  0  0  0  0  0  0  0  0  0  0  0
    9.4099  -16.3022   21.7815 C   0  0  0  0  0  0  0  0  0  0  0  0
    8.9037  -17.3781   22.1824 O   0  0  0  0  0  0  0  0  0  0  0  0
   14.3348  -14.0211   18.9014 N   0  0  0  0  0  0  0  0  0  0  0  0
   14.4052  -15.0961   17.9842 C   0  0  0  0  0  0  0  0  0  0  0  0
   14.3187  -14.8796   16.7244 N   0  0  0  0  0  0  0  0  0  0  0  0
   14.5711  -16.4216   18.4447 N   0  0  0  0  0  0  0  0  0  0  0  0
   14.5022  -16.6886   19.8557 C   0  0  0  0  0  0  0  0  0  0  0  0
   13.0788  -16.6624   20.3341 C   0  0  0  0  0  0  0  0  0  0  0  0
   13.0111  -17.2356   21.7179 C   0  0  0  0  0  0  0  0  0  0  0  0
   11.6168  -17.2210   22.3114 C   0  0  2  0  0  0  0  0  0  0  0  0
   10.8436  -16.1345   21.8012 N   0  0  0  0  0  0  0  0  0  0  0  0
   11.8228  -17.0908   23.7966 C   0  0  0  0  0  0  0  0  0  0  0  0
   11.8028  -15.9383   24.3393 O   0  0  0  0  0  0  0  0  0  0  0  0
   14.3933  -15.6336   16.0143 N   0  0  0  0  0  0  0  0  0  0  0  0
    7.3202  -22.2110   27.1016 C   0  0  0  0  0  0  0  0  0  0  0  0
    6.7109  -21.0991   27.7651 N   0  0  0  0  0  0  0  0  0  0  0  0
    5.6430  -21.2410   28.4351 N   0  0  0  0  0  0  0  0  0  0  0  0
    7.3342  -19.8403   27.6500 C   0  0  0  0  0  0  0  0  0  0  0  0
    7.6941  -19.2982   26.3186 C   0  0  0  0  0  0  0  0  0  0  0  0
    9.0050  -19.8703   25.9246 C   0  0  0  0  0  0  0  0  0  0  0  0
    9.9432  -19.0305   25.2052 C   0  0  1  0  0  0  0  0  0  0  0  0
   11.2142  -18.5093   25.7821 N   0  0  0  0  0  0  0  0  0  0  0  0
   12.0310  -18.2568   24.5326 C   0  0  0  0  0  0  0  0  0  0  0  0
   11.9843  -19.5876   26.4528 O   0  0  0  0  0  0  0  0  0  0  0  0
   12.7793  -20.3728   25.9083 O   0  0  0  0  0  0  0  0  0  0  0  0
  1  2  1  0
  2  3  1  0
  4  3  1  0
  5  4  1  0
  5  6  1  6
  7  8  2  0
  7  5  1  0
  9 10  1  0
 10 12  1  0
 11 10  2  0
 12 13  1  0
 13 14  1  0
 14 15  1  0
 16 15  1  6
 16 17  1  0
 17  7  1  0
 18 19  2  0
 18 16  1  0
 20 21  1  0
 21 22  2  0
 23 21  1  0
 23 24  1  0
 24 25  1  0
 25 26  1  0
 27 26  1  6
 27 28  1  0
 28 18  1  0
 29 27  1  0
 30 29  2  0
 31 29  1  0
M  END
$$$$
