MRR.pdb
     RDKit          3D

 31 30  0  0  1  0  0  0  0  0999 V2000
    4.6689  -11.6602   27.3285 C   0  0  0  0  0  0  0  0  0  0  0  0
    6.0562  -12.2452   26.2916 S   0  0  0  0  0  0  0  0  0  0  0  0
    7.1678  -13.1825   27.3940 C   0  0  0  0  0  0  0  0  0  0  0  0
    7.4264  -14.5584   26.8760 C   0  0  0  0  0  0  0  0  0  0  0  0
    6.4710  -15.0059   25.7942 C   0  0  2  0  0  0  0  0  0  0  0  0
    5.7249  -16.1158   26.3424 N   0  0  0  0  0  0  0  0  0  0  0  0
    7.2744  -15.4472   24.6159 C   0  0  0  0  0  0  0  0  0  0  0  0
    7.9180  -16.5243   24.6090 O   0  0  0  0  0  0  0  0  0  0  0  0
    7.1917  -14.7650   16.7953 N   0  0  0  0  0  0  0  0  0  0  0  0
    8.5898  -14.5735   16.6929 C   0  0  0  0  0  0  0  0  0  0  0  0
    9.2352  -15.0368   15.6877 N   0  0  0  0  0  0  0  0  0  0  0  0
    9.2925  -13.8700   17.6967 N   0  0  0  0  0  0  0  0  0  0  0  0
    8.5969  -13.4646   18.8878 C   0  0  0  0  0  0  0  0  0  0  0  0
    8.7754  -14.4793   19.9806 C   0  0  0  0  0  0  0  0  0  0  0  0
    7.9388  -14.0875   21.1615 C   0  0  0  0  0  0  0  0  0  0  0  0
    8.0630  -15.0395   22.3339 C   0  0  2  0  0  0  0  0  0  0  0  0
    7.2989  -14.5912   23.4537 N   0  0  0  0  0  0  0  0  0  0  0  0
    9.5323  -15.0747   22.6581 C   0  0  0  0  0  0  0  0  0  0  0  0
   10.0713  -14.0891   23.2590 O   0  0  0  0  0  0  0  0  0  0  0  0
   10.2487  -14.8664   15.5388 N   0  0  0  0  0  0  0  0  0  0  0  0
   11.3990  -14.4225   27.2707 C   0  0  0  0  0  0  0  0  0  0  0  0
   10.9670  -15.7772   27.4306 N   0  0  0  0  0  0  0  0  0  0  0  0
   10.8115  -16.2836   28.5834 N   0  0  0  0  0  0  0  0  0  0  0  0
   10.7207  -16.5325   26.2664 C   0  0  0  0  0  0  0  0  0  0  0  0
   11.7534  -17.4524   25.7341 C   0  0  0  0  0  0  0  0  0  0  0  0
   11.2152  -18.0936   24.5092 C   0  0  0  0  0  0  0  0  0  0  0  0
   11.7629  -17.7073   23.2232 C   0  0  2  0  0  0  0  0  0  0  0  0
   11.7155  -16.3230   22.6738 N   0  0  0  0  0  0  0  0  0  0  0  0
   10.2581  -16.2044   22.2815 C   0  0  0  0  0  0  0  0  0  0  0  0
   12.4058  -16.2395   21.3615 O   0  0  0  0  0  0  0  0  0  0  0  0
   13.4784  -15.6557   21.1293 O   0  0  0  0  0  0  0  0  0  0  0  0
  1  2  1  0
  2  3  1  0
  4  3  1  0
  5  4  1  0
  5  6  1  1
  7  8  2  0
  7  5  1  0
  9 10  1  0
 10 12  1  0
 11 10  2  0
 12 13  1  0
 13 14  1  0
 14 15  1  0
 16 15  1  6
 16 17  1  0
 17  7  1  0
 18 19  2  0
 18 16  1  0
 20 21  1  0
 21 22  2  0
 23 21  1  0
 23 24  1  0
 24 25  1  0
 25 26  1  0
 27 26  1  1
 27 28  1  0
 28 18  1  0
 29 27  1  0
 30 29  2  0
 31 29  1  0
M  END
$$$$
