AYL.pdb
     RDKit          3D

 26 26  0  0  1  0  0  0  0  0999 V2000
   23.7732  -15.7670  -19.7776 C   0  0  0  0  0  0  0  0  0  0  0  0
   24.9971  -16.4000  -19.1451 C   0  0  2  0  0  0  0  0  0  0  0  0
   25.9136  -16.7342  -20.2053 N   0  0  0  0  0  0  0  0  0  0  0  0
   24.6209  -17.6176  -18.3700 C   0  0  0  0  0  0  0  0  0  0  0  0
   24.8076  -18.7735  -18.8167 O   0  0  0  0  0  0  0  0  0  0  0  0
   29.5051  -21.4048  -16.3173 O   0  0  0  0  0  0  0  0  0  0  0  0
   28.2857  -20.7692  -16.0461 C   0  0  0  0  0  0  0  0  0  0  0  0
   28.2024  -19.4047  -15.8690 C   0  0  0  0  0  0  0  0  0  0  0  0
   27.0025  -18.7706  -15.6011 C   0  0  0  0  0  0  0  0  0  0  0  0
   25.8277  -19.5084  -15.5019 C   0  0  0  0  0  0  0  0  0  0  0  0
   24.5626  -18.8405  -15.1800 C   0  0  0  0  0  0  0  0  0  0  0  0
   23.6080  -18.6590  -16.2864 C   0  0  2  0  0  0  0  0  0  0  0  0
   24.0379  -17.4910  -17.0977 N   0  0  0  0  0  0  0  0  0  0  0  0
   22.1854  -18.5835  -16.0188 C   0  0  0  0  0  0  0  0  0  0  0  0
   21.7599  -17.4619  -15.5450 O   0  0  0  0  0  0  0  0  0  0  0  0
   25.9359  -20.8676  -15.6824 C   0  0  0  0  0  0  0  0  0  0  0  0
   27.1271  -21.5006  -15.9488 C   0  0  0  0  0  0  0  0  0  0  0  0
   16.8520  -19.8842  -16.0278 C   0  0  0  0  0  0  0  0  0  0  0  0
   17.5867  -19.3103  -17.2425 C   0  0  2  0  0  0  0  0  0  0  0  0
   16.8654  -19.5925  -18.4988 C   0  0  0  0  0  0  0  0  0  0  0  0
   19.0416  -19.5285  -17.1894 C   0  0  0  0  0  0  0  0  0  0  0  0
   19.7700  -19.2679  -15.9221 C   0  0  2  0  0  0  0  0  0  0  0  0
   21.1931  -19.5526  -16.2048 N   0  0  0  0  0  0  0  0  0  0  0  0
   19.3798  -20.0353  -14.7523 C   0  0  0  0  0  0  0  0  0  0  0  0
   18.5773  -19.5505  -13.7210 O   0  0  0  0  0  0  0  0  0  0  0  0
   19.7673  -21.2322  -14.6025 O   0  0  0  0  0  0  0  0  0  0  0  0
  2  1  1  6
  3  2  1  0
  4 13  1  0
  4  2  1  0
  5  4  2  0
  7  6  1  0
  8  7  2  0
  9  8  1  0
 10 16  1  0
 10  9  2  0
 11 10  1  0
 12 11  1  1
 12 13  1  0
 14 23  1  0
 14 12  1  0
 15 14  2  0
 16 17  2  0
 17  7  1  0
 19 18  1  1
 19 21  1  0
 20 19  1  0
 22 21  1  6
 22 23  1  0
 22 24  1  0
 24 25  1  0
 26 24  2  0
M  END
$$$$
