AYL.pdb
     RDKit          3D

 26 26  0  0  1  0  0  0  0  0999 V2000
   24.8999  -24.0611  -15.3682 C   0  0  0  0  0  0  0  0  0  0  0  0
   23.8953  -23.6617  -14.3051 C   0  0  2  0  0  0  0  0  0  0  0  0
   22.5775  -23.8581  -14.8533 N   0  0  0  0  0  0  0  0  0  0  0  0
   24.0917  -22.2395  -13.9009 C   0  0  0  0  0  0  0  0  0  0  0  0
   23.4316  -21.3058  -14.4138 O   0  0  0  0  0  0  0  0  0  0  0  0
   20.8267  -21.3853   -7.9537 O   0  0  0  0  0  0  0  0  0  0  0  0
   21.9775  -21.1627   -8.7221 C   0  0  0  0  0  0  0  0  0  0  0  0
   23.2414  -21.2603   -8.1807 C   0  0  0  0  0  0  0  0  0  0  0  0
   24.3817  -21.0420   -8.9329 C   0  0  0  0  0  0  0  0  0  0  0  0
   24.2791  -20.7122  -10.2802 C   0  0  0  0  0  0  0  0  0  0  0  0
   25.4865  -20.4434  -11.0674 C   0  0  0  0  0  0  0  0  0  0  0  0
   25.3520  -20.5102  -12.5323 C   0  0  2  0  0  0  0  0  0  0  0  0
   25.0397  -21.9107  -12.9171 N   0  0  0  0  0  0  0  0  0  0  0  0
   26.3956  -19.9794  -13.3867 C   0  0  0  0  0  0  0  0  0  0  0  0
   26.6428  -18.7200  -13.2583 O   0  0  0  0  0  0  0  0  0  0  0  0
   23.0080  -20.6207  -10.7976 C   0  0  0  0  0  0  0  0  0  0  0  0
   21.8729  -20.8371  -10.0524 C   0  0  0  0  0  0  0  0  0  0  0  0
   29.8192  -19.4907  -12.4141 C   0  0  0  0  0  0  0  0  0  0  0  0
   29.8142  -20.8065  -13.1973 C   0  0  2  0  0  0  0  0  0  0  0  0
   30.9282  -21.6857  -12.7924 C   0  0  0  0  0  0  0  0  0  0  0  0
   29.5354  -20.6203  -14.6307 C   0  0  0  0  0  0  0  0  0  0  0  0
   28.2824  -19.9402  -15.0452 C   0  0  2  0  0  0  0  0  0  0  0  0
   27.1878  -20.6359  -14.3353 N   0  0  0  0  0  0  0  0  0  0  0  0
   27.9630  -19.9241  -16.4620 C   0  0  0  0  0  0  0  0  0  0  0  0
   28.7995  -19.4165  -17.4547 O   0  0  0  0  0  0  0  0  0  0  0  0
   26.8619  -20.3869  -16.8844 O   0  0  0  0  0  0  0  0  0  0  0  0
  2  1  1  6
  3  2  1  0
  4 13  1  0
  4  2  1  0
  5  4  2  0
  7  6  1  0
  8  7  2  0
  9  8  1  0
 10 16  1  0
 10  9  2  0
 11 10  1  0
 12 11  1  1
 12 13  1  0
 14 23  1  0
 14 12  1  0
 15 14  2  0
 16 17  2  0
 17  7  1  0
 19 18  1  6
 19 21  1  0
 20 19  1  0
 22 21  1  6
 22 23  1  0
 22 24  1  0
 24 25  1  0
 26 24  2  0
M  END
$$$$
