AYL.pdb
     RDKit          3D

 26 26  0  0  1  0  0  0  0  0999 V2000
   29.2393  -22.4972  -16.8745 C   0  0  0  0  0  0  0  0  0  0  0  0
   28.4491  -21.6190  -17.8250 C   0  0  2  0  0  0  0  0  0  0  0  0
   29.3895  -20.8049  -18.5518 N   0  0  0  0  0  0  0  0  0  0  0  0
   27.4822  -20.7660  -17.0751 C   0  0  0  0  0  0  0  0  0  0  0  0
   27.8601  -19.8422  -16.3172 O   0  0  0  0  0  0  0  0  0  0  0  0
   19.3197  -17.5788  -15.1457 O   0  0  0  0  0  0  0  0  0  0  0  0
   20.4633  -18.1495  -15.7208 C   0  0  0  0  0  0  0  0  0  0  0  0
   20.6205  -19.5152  -15.8212 C   0  0  0  0  0  0  0  0  0  0  0  0
   21.7464  -20.0856  -16.3876 C   0  0  0  0  0  0  0  0  0  0  0  0
   22.7675  -19.2794  -16.8793 C   0  0  0  0  0  0  0  0  0  0  0  0
   23.9775  -19.8847  -17.4445 C   0  0  0  0  0  0  0  0  0  0  0  0
   25.0820  -20.1571  -16.5095 C   0  0  2  0  0  0  0  0  0  0  0  0
   26.1003  -20.9850  -17.2057 N   0  0  0  0  0  0  0  0  0  0  0  0
   24.8084  -20.7041  -15.1954 C   0  0  0  0  0  0  0  0  0  0  0  0
   24.6842  -21.9864  -15.1334 O   0  0  0  0  0  0  0  0  0  0  0  0
   22.5880  -17.9202  -16.7680 C   0  0  0  0  0  0  0  0  0  0  0  0
   21.4701  -17.3506  -16.2056 C   0  0  0  0  0  0  0  0  0  0  0  0
   26.6834  -21.2886   -9.9310 C   0  0  0  0  0  0  0  0  0  0  0  0
   25.3753  -20.5936  -10.3191 C   0  0  2  0  0  0  0  0  0  0  0  0
   24.1986  -21.3205   -9.8044 C   0  0  0  0  0  0  0  0  0  0  0  0
   25.3688  -20.1190  -11.7126 C   0  0  0  0  0  0  0  0  0  0  0  0
   24.4903  -20.7888  -12.7046 C   0  0  2  0  0  0  0  0  0  0  0  0
   24.6635  -20.0438  -13.9700 N   0  0  0  0  0  0  0  0  0  0  0  0
   23.0697  -20.8532  -12.4094 C   0  0  0  0  0  0  0  0  0  0  0  0
   22.4035  -21.9990  -11.9783 O   0  0  0  0  0  0  0  0  0  0  0  0
   22.3334  -19.8301  -12.5367 O   0  0  0  0  0  0  0  0  0  0  0  0
  2  1  1  1
  3  2  1  0
  4 13  1  0
  4  2  1  0
  5  4  2  0
  7  6  1  0
  8  7  2  0
  9  8  1  0
 10 16  1  0
 10  9  2  0
 11 10  1  0
 12 11  1  6
 12 13  1  0
 14 23  1  0
 14 12  1  0
 15 14  2  0
 16 17  2  0
 17  7  1  0
 19 18  1  6
 19 21  1  0
 20 19  1  0
 22 21  1  1
 22 23  1  0
 22 24  1  0
 24 25  1  0
 26 24  2  0
M  END
$$$$
