AYL.pdb
     RDKit          3D

 26 26  0  0  1  0  0  0  0  0999 V2000
   21.8221   -9.3367  -20.2077 C   0  0  0  0  0  0  0  0  0  0  0  0
   22.2417   -9.3835  -18.7514 C   0  0  2  0  0  0  0  0  0  0  0  0
   21.9620  -10.7080  -18.2583 N   0  0  0  0  0  0  0  0  0  0  0  0
   21.5052   -8.3584  -17.9566 C   0  0  0  0  0  0  0  0  0  0  0  0
   20.2708   -8.4355  -17.7543 O   0  0  0  0  0  0  0  0  0  0  0  0
   19.2144   -9.3863  -11.4879 O   0  0  0  0  0  0  0  0  0  0  0  0
   19.9211   -8.5993  -12.4075 C   0  0  0  0  0  0  0  0  0  0  0  0
   19.3541   -7.4920  -13.0013 C   0  0  0  0  0  0  0  0  0  0  0  0
   20.0454   -6.7106  -13.9097 C   0  0  0  0  0  0  0  0  0  0  0  0
   21.3550   -7.0291  -14.2532 C   0  0  0  0  0  0  0  0  0  0  0  0
   22.0740   -6.2232  -15.2448 C   0  0  0  0  0  0  0  0  0  0  0  0
   21.5230   -6.2047  -16.6103 C   0  0  2  0  0  0  0  0  0  0  0  0
   22.1940   -7.2636  -17.4074 N   0  0  0  0  0  0  0  0  0  0  0  0
   21.4783   -4.9669  -17.3632 C   0  0  0  0  0  0  0  0  0  0  0  0
   22.6064   -4.5492  -17.8283 O   0  0  0  0  0  0  0  0  0  0  0  0
   21.8990   -8.1381  -13.6479 C   0  0  0  0  0  0  0  0  0  0  0  0
   21.2143   -8.9165  -12.7446 C   0  0  0  0  0  0  0  0  0  0  0  0
   20.8290   -3.5338  -21.3982 C   0  0  0  0  0  0  0  0  0  0  0  0
   19.5191   -3.7290  -20.6295 C   0  0  2  0  0  0  0  0  0  0  0  0
   18.3598   -3.8059  -21.5394 C   0  0  0  0  0  0  0  0  0  0  0  0
   19.4284   -2.8858  -19.4262 C   0  0  0  0  0  0  0  0  0  0  0  0
   20.5403   -2.9010  -18.4424 C   0  0  2  0  0  0  0  0  0  0  0  0
   20.3828   -4.1517  -17.6697 N   0  0  0  0  0  0  0  0  0  0  0  0
   20.6216   -1.7969  -17.5023 C   0  0  0  0  0  0  0  0  0  0  0  0
   20.2909   -1.8836  -16.1511 O   0  0  0  0  0  0  0  0  0  0  0  0
   21.0104   -0.6513  -17.8788 O   0  0  0  0  0  0  0  0  0  0  0  0
  2  1  1  6
  3  2  1  0
  4 13  1  0
  4  2  1  0
  5  4  2  0
  7  6  1  0
  8  7  2  0
  9  8  1  0
 10 16  1  0
 10  9  2  0
 11 10  1  0
 12 11  1  1
 12 13  1  0
 14 23  1  0
 14 12  1  0
 15 14  2  0
 16 17  2  0
 17  7  1  0
 19 18  1  6
 19 21  1  0
 20 19  1  0
 22 21  1  6
 22 23  1  0
 22 24  1  0
 24 25  1  0
 26 24  2  0
M  END
$$$$
