AYL.pdb
     RDKit          3D

 26 26  0  0  1  0  0  0  0  0999 V2000
   25.7757  -23.3548  -17.9086 C   0  0  0  0  0  0  0  0  0  0  0  0
   26.3254  -23.8712  -16.5932 C   0  0  2  0  0  0  0  0  0  0  0  0
   26.2953  -25.3108  -16.6420 N   0  0  0  0  0  0  0  0  0  0  0  0
   25.5155  -23.3652  -15.4475 C   0  0  0  0  0  0  0  0  0  0  0  0
   24.5813  -24.0345  -14.9474 O   0  0  0  0  0  0  0  0  0  0  0  0
   24.4479  -20.3416   -7.4279 O   0  0  0  0  0  0  0  0  0  0  0  0
   24.7956  -20.4493   -8.7814 C   0  0  0  0  0  0  0  0  0  0  0  0
   26.0247  -20.9304   -9.1786 C   0  0  0  0  0  0  0  0  0  0  0  0
   26.3748  -21.0395  -10.5125 C   0  0  0  0  0  0  0  0  0  0  0  0
   25.4778  -20.6590  -11.5051 C   0  0  0  0  0  0  0  0  0  0  0  0
   25.8636  -20.7387  -12.9174 C   0  0  0  0  0  0  0  0  0  0  0  0
   24.9732  -21.5042  -13.8061 C   0  0  2  0  0  0  0  0  0  0  0  0
   25.7886  -22.1027  -14.8943 N   0  0  0  0  0  0  0  0  0  0  0  0
   23.7836  -20.8859  -14.3570 C   0  0  0  0  0  0  0  0  0  0  0  0
   23.9648  -20.1390  -15.3928 O   0  0  0  0  0  0  0  0  0  0  0  0
   24.2582  -20.1822  -11.0843 C   0  0  0  0  0  0  0  0  0  0  0  0
   23.9075  -20.0726   -9.7593 C   0  0  0  0  0  0  0  0  0  0  0  0
   20.9468  -19.6105  -17.3930 C   0  0  0  0  0  0  0  0  0  0  0  0
   20.8099  -21.0821  -16.9926 C   0  0  2  0  0  0  0  0  0  0  0  0
   19.8521  -21.7956  -17.8594 C   0  0  0  0  0  0  0  0  0  0  0  0
   20.7365  -21.2760  -15.5351 C   0  0  0  0  0  0  0  0  0  0  0  0
   21.3628  -20.2741  -14.6360 C   0  0  2  0  0  0  0  0  0  0  0  0
   22.4533  -20.9835  -13.9334 N   0  0  0  0  0  0  0  0  0  0  0  0
   20.5166  -19.6449  -13.6372 C   0  0  0  0  0  0  0  0  0  0  0  0
   19.9038  -18.4025  -13.7903 O   0  0  0  0  0  0  0  0  0  0  0  0
   20.2854  -20.2155  -12.5299 O   0  0  0  0  0  0  0  0  0  0  0  0
  2  1  1  6
  3  2  1  0
  4 13  1  0
  4  2  1  0
  5  4  2  0
  7  6  1  0
  8  7  2  0
  9  8  1  0
 10 16  1  0
 10  9  2  0
 11 10  1  0
 12 11  1  6
 12 13  1  0
 14 23  1  0
 14 12  1  0
 15 14  2  0
 16 17  2  0
 17  7  1  0
 19 18  1  1
 19 21  1  0
 20 19  1  0
 22 21  1  1
 22 23  1  0
 22 24  1  0
 24 25  1  0
 26 24  2  0
M  END
$$$$
