AYL.pdb
     RDKit          3D

 26 26  0  0  1  0  0  0  0  0999 V2000
   22.0542  -18.7178  -14.0737 C   0  0  0  0  0  0  0  0  0  0  0  0
   23.3189  -18.2882  -14.7912 C   0  0  2  0  0  0  0  0  0  0  0  0
   23.0326  -18.2603  -16.2029 N   0  0  0  0  0  0  0  0  0  0  0  0
   24.4379  -19.2301  -14.4985 C   0  0  0  0  0  0  0  0  0  0  0  0
   24.5421  -20.3376  -15.0756 O   0  0  0  0  0  0  0  0  0  0  0  0
   28.7881  -17.3737  -18.7805 O   0  0  0  0  0  0  0  0  0  0  0  0
   28.5570  -17.7809  -17.4595 C   0  0  0  0  0  0  0  0  0  0  0  0
   29.0030  -18.9964  -16.9864 C   0  0  0  0  0  0  0  0  0  0  0  0
   28.7786  -19.4049  -15.6838 C   0  0  0  0  0  0  0  0  0  0  0  0
   28.0840  -18.5834  -14.8023 C   0  0  0  0  0  0  0  0  0  0  0  0
   27.8132  -19.0332  -13.4333 C   0  0  0  0  0  0  0  0  0  0  0  0
   26.5605  -19.7756  -13.2145 C   0  0  2  0  0  0  0  0  0  0  0  0
   25.4175  -18.8881  -13.5509 N   0  0  0  0  0  0  0  0  0  0  0  0
   26.3181  -20.4431  -11.9509 C   0  0  0  0  0  0  0  0  0  0  0  0
   26.9333  -21.5635  -11.7784 O   0  0  0  0  0  0  0  0  0  0  0  0
   27.6491  -17.3759  -15.2972 C   0  0  0  0  0  0  0  0  0  0  0  0
   27.8707  -16.9673  -16.5913 C   0  0  0  0  0  0  0  0  0  0  0  0
   27.9406  -21.0327   -8.1507 C   0  0  0  0  0  0  0  0  0  0  0  0
   27.0264  -19.8115   -8.2832 C   0  0  2  0  0  0  0  0  0  0  0  0
   27.3457  -18.7802   -7.2771 C   0  0  0  0  0  0  0  0  0  0  0  0
   25.6179  -20.1712   -8.5157 C   0  0  0  0  0  0  0  0  0  0  0  0
   25.2562  -20.9452   -9.7300 C   0  0  2  0  0  0  0  0  0  0  0  0
   25.5136  -20.0475  -10.8763 N   0  0  0  0  0  0  0  0  0  0  0  0
   23.8919  -21.4322   -9.8354 C   0  0  0  0  0  0  0  0  0  0  0  0
   23.0329  -21.1520  -10.8966 O   0  0  0  0  0  0  0  0  0  0  0  0
   23.3922  -22.1638   -8.9298 O   0  0  0  0  0  0  0  0  0  0  0  0
  2  1  1  1
  3  2  1  0
  4 13  1  0
  4  2  1  0
  5  4  2  0
  7  6  1  0
  8  7  2  0
  9  8  1  0
 10 16  1  0
 10  9  2  0
 11 10  1  0
 12 11  1  1
 12 13  1  0
 14 23  1  0
 14 12  1  0
 15 14  2  0
 16 17  2  0
 17  7  1  0
 19 18  1  1
 19 21  1  0
 20 19  1  0
 22 21  1  1
 22 23  1  0
 22 24  1  0
 24 25  1  0
 26 24  2  0
M  END
$$$$
