YEI.pdb
     RDKit          3D

 30 30  0  0  1  0  0  0  0  0999 V2000
    7.4724  -12.0703   16.7878 O   0  0  0  0  0  0  0  0  0  0  0  0
    7.5920  -12.7257   18.0098 C   0  0  0  0  0  0  0  0  0  0  0  0
    6.5028  -13.3376   18.6159 C   0  0  0  0  0  0  0  0  0  0  0  0
    6.6230  -13.9855   19.8248 C   0  0  0  0  0  0  0  0  0  0  0  0
    7.8346  -14.0332   20.4496 C   0  0  0  0  0  0  0  0  0  0  0  0
    8.0791  -14.7034   21.7529 C   0  0  0  0  0  0  0  0  0  0  0  0
    8.6835  -16.0744   21.4933 C   0  0  2  0  0  0  0  0  0  0  0  0
    7.6878  -16.8749   20.8331 N   0  0  0  0  0  0  0  0  0  0  0  0
    9.0838  -16.7329   22.7641 C   0  0  0  0  0  0  0  0  0  0  0  0
    8.2056  -17.0753   23.6070 O   0  0  0  0  0  0  0  0  0  0  0  0
    8.9193  -13.4184   19.8366 C   0  0  0  0  0  0  0  0  0  0  0  0
    8.8032  -12.7740   18.6357 C   0  0  0  0  0  0  0  0  0  0  0  0
   10.4347  -17.0075   23.0957 N   0  0  0  0  0  0  0  0  0  0  0  0
   10.8748  -17.4266   24.4110 C   0  0  1  0  0  0  0  0  0  0  0  0
   11.9677  -18.4365   24.3463 C   0  0  0  0  0  0  0  0  0  0  0  0
   12.5060  -18.9596   25.6172 C   0  0  0  0  0  0  0  0  0  0  0  0
   13.5917  -19.8991   25.6246 C   0  0  0  0  0  0  0  0  0  0  0  0
   14.2921  -20.2054   26.5917 O   0  0  0  0  0  0  0  0  0  0  0  0
   11.0427  -16.3416   25.3816 C   0  0  0  0  0  0  0  0  0  0  0  0
   11.8898  -15.3990   25.2504 O   0  0  0  0  0  0  0  0  0  0  0  0
   13.9060  -20.5496   24.4113 O   0  0  0  0  0  0  0  0  0  0  0  0
    7.2102  -13.2439   26.9271 C   0  0  0  0  0  0  0  0  0  0  0  0
    8.5172  -13.8999   26.6910 C   0  0  0  0  0  0  0  0  0  0  0  0
    9.2065  -14.4831   27.8591 C   0  0  2  0  0  0  0  0  0  0  0  0
    9.4789  -13.4069   28.9241 C   0  0  0  0  0  0  0  0  0  0  0  0
   10.4472  -15.2911   27.6149 C   0  0  2  0  0  0  0  0  0  0  0  0
   10.2390  -16.2587   26.5770 N   0  0  0  0  0  0  0  0  0  0  0  0
   10.6806  -16.0548   28.8952 C   0  0  0  0  0  0  0  0  0  0  0  0
   10.3176  -17.2481   29.0433 O   0  0  0  0  0  0  0  0  0  0  0  0
   11.3180  -15.4379   29.9608 O   0  0  0  0  0  0  0  0  0  0  0  0
  2  1  1  0
  2  3  2  0
  4  3  1  0
  5  4  2  0
  6  5  1  0
  7  9  1  0
  7  6  1  0
  7  8  1  1
  9 10  2  0
 11 12  2  0
 11  5  1  0
 12  2  1  0
 13 14  1  0
 13  9  1  0
 14 15  1  6
 15 16  1  0
 16 17  1  0
 17 18  2  0
 19 20  2  0
 19 14  1  0
 21 17  1  0
 23 24  1  0
 23 22  1  0
 24 25  1  1
 24 26  1  0
 26 27  1  6
 27 19  1  0
 28 26  1  0
 28 30  1  0
 29 28  2  0
M  END
$$$$
