YEI.pdb
     RDKit          3D

 30 30  0  0  1  0  0  0  0  0999 V2000
    8.1121  -12.4464   16.6419 O   0  0  0  0  0  0  0  0  0  0  0  0
    7.9471  -13.0540   17.8832 C   0  0  0  0  0  0  0  0  0  0  0  0
    7.8317  -14.4321   18.0082 C   0  0  0  0  0  0  0  0  0  0  0  0
    7.6687  -15.0314   19.2370 C   0  0  0  0  0  0  0  0  0  0  0  0
    7.6181  -14.2634   20.3631 C   0  0  0  0  0  0  0  0  0  0  0  0
    7.4460  -14.8020   21.7371 C   0  0  0  0  0  0  0  0  0  0  0  0
    7.5906  -16.3150   21.6922 C   0  0  2  0  0  0  0  0  0  0  0  0
    6.3010  -16.8698   21.3804 N   0  0  0  0  0  0  0  0  0  0  0  0
    8.0547  -16.8481   22.9996 C   0  0  0  0  0  0  0  0  0  0  0  0
    7.3159  -16.7571   24.0218 O   0  0  0  0  0  0  0  0  0  0  0  0
    7.7343  -12.8854   20.2294 C   0  0  0  0  0  0  0  0  0  0  0  0
    7.8964  -12.2870   19.0102 C   0  0  0  0  0  0  0  0  0  0  0  0
    9.3164  -17.4715   23.1718 N   0  0  0  0  0  0  0  0  0  0  0  0
    9.8675  -17.8381   24.4607 C   0  0  1  0  0  0  0  0  0  0  0  0
   10.5985  -19.1350   24.4148 C   0  0  0  0  0  0  0  0  0  0  0  0
   11.2209  -19.6257   25.6600 C   0  0  0  0  0  0  0  0  0  0  0  0
   12.0676  -20.7852   25.6513 C   0  0  0  0  0  0  0  0  0  0  0  0
   13.1247  -20.9281   26.2693 O   0  0  0  0  0  0  0  0  0  0  0  0
   10.5184  -16.7451   25.1882 C   0  0  0  0  0  0  0  0  0  0  0  0
   11.4699  -16.0448   24.7112 O   0  0  0  0  0  0  0  0  0  0  0  0
   11.6676  -21.8851   24.8612 O   0  0  0  0  0  0  0  0  0  0  0  0
    8.1490  -12.7076   27.9774 C   0  0  0  0  0  0  0  0  0  0  0  0
    8.7484  -14.0481   27.7824 C   0  0  0  0  0  0  0  0  0  0  0  0
   10.1660  -14.1066   27.3740 C   0  0  2  0  0  0  0  0  0  0  0  0
   10.3763  -13.3847   26.0319 C   0  0  0  0  0  0  0  0  0  0  0  0
   10.8375  -15.4483   27.3475 C   0  0  2  0  0  0  0  0  0  0  0  0
   10.1150  -16.3726   26.5225 N   0  0  0  0  0  0  0  0  0  0  0  0
   10.7566  -15.9595   28.7649 C   0  0  0  0  0  0  0  0  0  0  0  0
   10.0516  -16.9485   29.0850 O   0  0  0  0  0  0  0  0  0  0  0  0
   11.4789  -15.3311   29.7677 O   0  0  0  0  0  0  0  0  0  0  0  0
  2  1  1  0
  2  3  2  0
  4  3  1  0
  5  4  2  0
  6  5  1  0
  7  9  1  0
  7  6  1  0
  7  8  1  1
  9 10  2  0
 11 12  2  0
 11  5  1  0
 12  2  1  0
 13 14  1  0
 13  9  1  0
 14 15  1  6
 15 16  1  0
 16 17  1  0
 17 18  2  0
 19 20  2  0
 19 14  1  0
 21 17  1  0
 23 24  1  0
 23 22  1  0
 24 25  1  6
 24 26  1  0
 26 27  1  6
 27 19  1  0
 28 26  1  0
 28 30  1  0
 29 28  2  0
M  END
$$$$
