YEI.pdb
     RDKit          3D

 30 30  0  0  1  0  0  0  0  0999 V2000
    7.0346  -11.9833   17.4345 O   0  0  0  0  0  0  0  0  0  0  0  0
    7.3502  -12.7201   18.5724 C   0  0  0  0  0  0  0  0  0  0  0  0
    6.3767  -13.4036   19.2886 C   0  0  0  0  0  0  0  0  0  0  0  0
    6.6908  -14.1320   20.4140 C   0  0  0  0  0  0  0  0  0  0  0  0
    7.9841  -14.1901   20.8435 C   0  0  0  0  0  0  0  0  0  0  0  0
    8.4357  -14.9440   22.0415 C   0  0  0  0  0  0  0  0  0  0  0  0
    9.0790  -16.2451   21.5881 C   0  0  2  0  0  0  0  0  0  0  0  0
    8.0420  -17.0820   21.0474 N   0  0  0  0  0  0  0  0  0  0  0  0
    9.7348  -16.9432   22.7245 C   0  0  0  0  0  0  0  0  0  0  0  0
    9.0401  -17.3944   23.6799 O   0  0  0  0  0  0  0  0  0  0  0  0
    8.9521  -13.5034   20.1212 C   0  0  0  0  0  0  0  0  0  0  0  0
    8.6434  -12.7789   19.0029 C   0  0  0  0  0  0  0  0  0  0  0  0
   11.1371  -17.1381   22.8013 N   0  0  0  0  0  0  0  0  0  0  0  0
   11.8147  -17.6847   23.9595 C   0  0  1  0  0  0  0  0  0  0  0  0
   13.0347  -18.4548   23.5895 C   0  0  0  0  0  0  0  0  0  0  0  0
   12.9717  -19.3259   22.3996 C   0  0  0  0  0  0  0  0  0  0  0  0
   14.1328  -20.0403   21.9490 C   0  0  0  0  0  0  0  0  0  0  0  0
   14.2041  -21.2459   21.7018 O   0  0  0  0  0  0  0  0  0  0  0  0
   11.9400  -16.7650   25.0936 C   0  0  0  0  0  0  0  0  0  0  0  0
   12.8521  -15.8806   25.1907 O   0  0  0  0  0  0  0  0  0  0  0  0
   15.3249  -19.3064   21.7636 O   0  0  0  0  0  0  0  0  0  0  0  0
    9.1276  -12.8859   28.5589 C   0  0  0  0  0  0  0  0  0  0  0  0
    9.9960  -14.0833   28.6402 C   0  0  0  0  0  0  0  0  0  0  0  0
   10.0280  -14.9814   27.4689 C   0  0  2  0  0  0  0  0  0  0  0  0
    8.6750  -15.6916   27.2902 C   0  0  0  0  0  0  0  0  0  0  0  0
   11.1477  -15.9757   27.3729 C   0  0  2  0  0  0  0  0  0  0  0  0
   11.0159  -16.7924   26.2013 N   0  0  0  0  0  0  0  0  0  0  0  0
   10.9769  -16.8809   28.5680 C   0  0  0  0  0  0  0  0  0  0  0  0
   11.2687  -16.5184   29.7346 O   0  0  0  0  0  0  0  0  0  0  0  0
   10.4806  -18.1641   28.3968 O   0  0  0  0  0  0  0  0  0  0  0  0
  2  1  1  0
  2  3  2  0
  4  3  1  0
  5  4  2  0
  6  5  1  0
  7  9  1  0
  7  6  1  0
  7  8  1  1
  9 10  2  0
 11 12  2  0
 11  5  1  0
 12  2  1  0
 13 14  1  0
 13  9  1  0
 14 15  1  6
 15 16  1  0
 16 17  1  0
 17 18  2  0
 19 20  2  0
 19 14  1  0
 21 17  1  0
 23 24  1  0
 23 22  1  0
 24 25  1  1
 24 26  1  0
 26 27  1  6
 27 19  1  0
 28 26  1  0
 28 30  1  0
 29 28  2  0
M  END
$$$$
