YEI.pdb
     RDKit          3D

 30 30  0  0  1  0  0  0  0  0999 V2000
    9.4444  -11.7383   19.9650 O   0  0  0  0  0  0  0  0  0  0  0  0
    8.5117  -12.7409   20.2145 C   0  0  0  0  0  0  0  0  0  0  0  0
    7.8707  -12.8479   21.4416 C   0  0  0  0  0  0  0  0  0  0  0  0
    6.9483  -13.8404   21.6867 C   0  0  0  0  0  0  0  0  0  0  0  0
    6.6503  -14.7437   20.7091 C   0  0  0  0  0  0  0  0  0  0  0  0
    5.6734  -15.8525   20.8630 C   0  0  0  0  0  0  0  0  0  0  0  0
    6.4341  -17.1650   20.9675 C   0  0  2  0  0  0  0  0  0  0  0  0
    5.4686  -18.2304   20.9985 N   0  0  0  0  0  0  0  0  0  0  0  0
    7.2587  -17.2096   22.2031 C   0  0  0  0  0  0  0  0  0  0  0  0
    6.7024  -17.2336   23.3384 O   0  0  0  0  0  0  0  0  0  0  0  0
    7.2961  -14.6297   19.4843 C   0  0  0  0  0  0  0  0  0  0  0  0
    8.2129  -13.6450   19.2377 C   0  0  0  0  0  0  0  0  0  0  0  0
    8.6763  -17.2271   22.1815 N   0  0  0  0  0  0  0  0  0  0  0  0
    9.5029  -17.2070   23.3713 C   0  0  1  0  0  0  0  0  0  0  0  0
   10.7161  -18.0598   23.2313 C   0  0  0  0  0  0  0  0  0  0  0  0
   11.6514  -18.1291   24.3710 C   0  0  0  0  0  0  0  0  0  0  0  0
   12.6603  -19.1489   24.4333 C   0  0  0  0  0  0  0  0  0  0  0  0
   13.6333  -19.2669   23.6856 O   0  0  0  0  0  0  0  0  0  0  0  0
    9.6993  -15.8818   23.9654 C   0  0  0  0  0  0  0  0  0  0  0  0
   10.4515  -14.9847   23.4625 O   0  0  0  0  0  0  0  0  0  0  0  0
   12.5452  -20.1259   25.4463 O   0  0  0  0  0  0  0  0  0  0  0  0
    6.0407  -12.4614   26.3111 C   0  0  0  0  0  0  0  0  0  0  0  0
    6.9851  -13.5871   26.1237 C   0  0  0  0  0  0  0  0  0  0  0  0
    8.3989  -13.2525   25.8608 C   0  0  2  0  0  0  0  0  0  0  0  0
    8.5455  -12.5305   24.5103 C   0  0  0  0  0  0  0  0  0  0  0  0
    9.4157  -14.3505   25.9705 C   0  0  2  0  0  0  0  0  0  0  0  0
    9.0357  -15.4885   25.1846 N   0  0  0  0  0  0  0  0  0  0  0  0
    9.3825  -14.7776   27.4173 C   0  0  0  0  0  0  0  0  0  0  0  0
    8.9159  -15.8852   27.7821 O   0  0  0  0  0  0  0  0  0  0  0  0
    9.8806  -13.9335   28.3980 O   0  0  0  0  0  0  0  0  0  0  0  0
  2  1  1  0
  2  3  2  0
  4  3  1  0
  5  4  2  0
  6  5  1  0
  7  9  1  0
  7  6  1  0
  7  8  1  1
  9 10  2  0
 11 12  2  0
 11  5  1  0
 12  2  1  0
 13 14  1  0
 13  9  1  0
 14 15  1  6
 15 16  1  0
 16 17  1  0
 17 18  2  0
 19 20  2  0
 19 14  1  0
 21 17  1  0
 23 24  1  0
 23 22  1  0
 24 25  1  6
 24 26  1  0
 26 27  1  6
 27 19  1  0
 28 26  1  0
 28 30  1  0
 29 28  2  0
M  END
$$$$
