YEI.pdb
     RDKit          3D

 30 30  0  0  1  0  0  0  0  0999 V2000
    7.4121  -12.9330   15.7206 O   0  0  0  0  0  0  0  0  0  0  0  0
    7.5775  -13.3894   17.0251 C   0  0  0  0  0  0  0  0  0  0  0  0
    8.0985  -14.6481   17.2941 C   0  0  0  0  0  0  0  0  0  0  0  0
    8.2615  -15.0978   18.5852 C   0  0  0  0  0  0  0  0  0  0  0  0
    7.9063  -14.2971   19.6306 C   0  0  0  0  0  0  0  0  0  0  0  0
    8.0385  -14.6787   21.0605 C   0  0  0  0  0  0  0  0  0  0  0  0
    8.1470  -16.1925   21.1558 C   0  0  2  0  0  0  0  0  0  0  0  0
    6.8691  -16.7472   20.7989 N   0  0  0  0  0  0  0  0  0  0  0  0
    8.5028  -16.6185   22.5344 C   0  0  0  0  0  0  0  0  0  0  0  0
    7.6017  -16.7513   23.4115 O   0  0  0  0  0  0  0  0  0  0  0  0
    7.3858  -13.0392   19.3530 C   0  0  0  0  0  0  0  0  0  0  0  0
    7.2227  -12.5895   18.0716 C   0  0  0  0  0  0  0  0  0  0  0  0
    9.8350  -16.8927   22.9350 N   0  0  0  0  0  0  0  0  0  0  0  0
   10.2153  -17.2483   24.2871 C   0  0  1  0  0  0  0  0  0  0  0  0
   11.2163  -18.3508   24.3214 C   0  0  0  0  0  0  0  0  0  0  0  0
   11.0586  -19.4619   23.3626 C   0  0  0  0  0  0  0  0  0  0  0  0
   12.0394  -20.5074   23.2811 C   0  0  0  0  0  0  0  0  0  0  0  0
   12.2010  -21.4279   24.0849 O   0  0  0  0  0  0  0  0  0  0  0  0
   10.4623  -16.1119   25.1789 C   0  0  0  0  0  0  0  0  0  0  0  0
   11.3367  -15.2127   24.9547 O   0  0  0  0  0  0  0  0  0  0  0  0
   12.9181  -20.4992   22.1757 O   0  0  0  0  0  0  0  0  0  0  0  0
    6.9527  -12.5877   26.4529 C   0  0  0  0  0  0  0  0  0  0  0  0
    8.1992  -13.3720   26.2930 C   0  0  0  0  0  0  0  0  0  0  0  0
    8.7781  -13.9841   27.5053 C   0  0  2  0  0  0  0  0  0  0  0  0
    9.0609  -12.9139   28.5737 C   0  0  0  0  0  0  0  0  0  0  0  0
    9.9729  -14.8772   27.3427 C   0  0  2  0  0  0  0  0  0  0  0  0
    9.7123  -15.9236   26.3970 N   0  0  0  0  0  0  0  0  0  0  0  0
   10.1642  -15.5315   28.6889 C   0  0  0  0  0  0  0  0  0  0  0  0
    9.7321  -16.6825   28.9459 O   0  0  0  0  0  0  0  0  0  0  0  0
   10.8394  -14.8570   29.6946 O   0  0  0  0  0  0  0  0  0  0  0  0
  2  1  1  0
  2  3  2  0
  4  3  1  0
  5  4  2  0
  6  5  1  0
  7  9  1  0
  7  6  1  0
  7  8  1  1
  9 10  2  0
 11 12  2  0
 11  5  1  0
 12  2  1  0
 13 14  1  0
 13  9  1  0
 14 15  1  6
 15 16  1  0
 16 17  1  0
 17 18  2  0
 19 20  2  0
 19 14  1  0
 21 17  1  0
 23 24  1  0
 23 22  1  0
 24 25  1  1
 24 26  1  0
 26 27  1  6
 27 19  1  0
 28 26  1  0
 28 30  1  0
 29 28  2  0
M  END
$$$$
