YEI.pdb
     RDKit          3D

 30 30  0  0  1  0  0  0  0  0999 V2000
    9.8044  -12.1672   19.3488 O   0  0  0  0  0  0  0  0  0  0  0  0
    8.7856  -13.0675   19.6470 C   0  0  0  0  0  0  0  0  0  0  0  0
    8.4842  -14.1290   18.8042 C   0  0  0  0  0  0  0  0  0  0  0  0
    7.4761  -15.0187   19.1008 C   0  0  0  0  0  0  0  0  0  0  0  0
    6.7512  -14.8629   20.2457 C   0  0  0  0  0  0  0  0  0  0  0  0
    5.6442  -15.7609   20.6647 C   0  0  0  0  0  0  0  0  0  0  0  0
    6.2206  -17.1291   20.9934 C   0  0  2  0  0  0  0  0  0  0  0  0
    5.1227  -18.0500   21.1147 N   0  0  0  0  0  0  0  0  0  0  0  0
    6.9819  -17.0973   22.2694 C   0  0  0  0  0  0  0  0  0  0  0  0
    6.3775  -16.9232   23.3664 O   0  0  0  0  0  0  0  0  0  0  0  0
    7.0591  -13.7983   21.0835 C   0  0  0  0  0  0  0  0  0  0  0  0
    8.0599  -12.9128   20.7917 C   0  0  0  0  0  0  0  0  0  0  0  0
    8.3896  -17.2558   22.3293 N   0  0  0  0  0  0  0  0  0  0  0  0
    9.1558  -17.2159   23.5584 C   0  0  1  0  0  0  0  0  0  0  0  0
   10.3440  -18.1129   23.5132 C   0  0  0  0  0  0  0  0  0  0  0  0
   11.1871  -18.2099   24.7209 C   0  0  0  0  0  0  0  0  0  0  0  0
   12.4008  -18.9769   24.7106 C   0  0  0  0  0  0  0  0  0  0  0  0
   13.2956  -18.9256   23.8643 O   0  0  0  0  0  0  0  0  0  0  0  0
    9.3681  -15.8754   24.1112 C   0  0  0  0  0  0  0  0  0  0  0  0
   10.0108  -14.9547   23.5090 O   0  0  0  0  0  0  0  0  0  0  0  0
   12.6109  -19.8886   25.7683 O   0  0  0  0  0  0  0  0  0  0  0  0
    5.7757  -13.0302   27.4088 C   0  0  0  0  0  0  0  0  0  0  0  0
    6.8623  -13.9632   27.0304 C   0  0  0  0  0  0  0  0  0  0  0  0
    8.0149  -13.4036   26.2970 C   0  0  2  0  0  0  0  0  0  0  0  0
    7.5643  -12.7929   24.9588 C   0  0  0  0  0  0  0  0  0  0  0  0
    9.2105  -14.2849   26.0838 C   0  0  2  0  0  0  0  0  0  0  0  0
    8.8480  -15.4933   25.4016 N   0  0  0  0  0  0  0  0  0  0  0  0
    9.6666  -14.6750   27.4683 C   0  0  0  0  0  0  0  0  0  0  0  0
    9.5226  -15.8372   27.9223 O   0  0  0  0  0  0  0  0  0  0  0  0
   10.2701  -13.7331   28.2873 O   0  0  0  0  0  0  0  0  0  0  0  0
  2  1  1  0
  2  3  2  0
  4  3  1  0
  5  4  2  0
  6  5  1  0
  7  9  1  0
  7  6  1  0
  7  8  1  1
  9 10  2  0
 11 12  2  0
 11  5  1  0
 12  2  1  0
 13 14  1  0
 13  9  1  0
 14 15  1  6
 15 16  1  0
 16 17  1  0
 17 18  2  0
 19 20  2  0
 19 14  1  0
 21 17  1  0
 23 24  1  0
 23 22  1  0
 24 25  1  6
 24 26  1  0
 26 27  1  6
 27 19  1  0
 28 26  1  0
 28 30  1  0
 29 28  2  0
M  END
$$$$
