YEI.pdb
     RDKit          3D

 30 30  0  0  1  0  0  0  0  0999 V2000
    7.9909  -12.3739   16.6120 O   0  0  0  0  0  0  0  0  0  0  0  0
    7.9036  -12.8938   17.9002 C   0  0  0  0  0  0  0  0  0  0  0  0
    6.6805  -13.0535   18.5379 C   0  0  0  0  0  0  0  0  0  0  0  0
    6.5961  -13.5681   19.8123 C   0  0  0  0  0  0  0  0  0  0  0  0
    7.7331  -13.9321   20.4719 C   0  0  0  0  0  0  0  0  0  0  0  0
    7.7599  -14.4970   21.8458 C   0  0  0  0  0  0  0  0  0  0  0  0
    7.7723  -16.0146   21.7517 C   0  0  2  0  0  0  0  0  0  0  0  0
    6.4915  -16.4335   21.2494 N   0  0  0  0  0  0  0  0  0  0  0  0
    8.0069  -16.6322   23.0830 C   0  0  0  0  0  0  0  0  0  0  0  0
    7.2105  -16.4052   24.0386 O   0  0  0  0  0  0  0  0  0  0  0  0
    8.9527  -13.7690   19.8268 C   0  0  0  0  0  0  0  0  0  0  0  0
    9.0400  -13.2582   18.5610 C   0  0  0  0  0  0  0  0  0  0  0  0
    9.1057  -17.4872   23.3513 N   0  0  0  0  0  0  0  0  0  0  0  0
    9.6010  -17.7729   24.6826 C   0  0  1  0  0  0  0  0  0  0  0  0
   10.4636  -18.9867   24.7164 C   0  0  0  0  0  0  0  0  0  0  0  0
   11.0244  -19.4040   26.0164 C   0  0  0  0  0  0  0  0  0  0  0  0
   11.9304  -20.5145   26.1039 C   0  0  0  0  0  0  0  0  0  0  0  0
   11.7844  -21.6246   25.5883 O   0  0  0  0  0  0  0  0  0  0  0  0
   10.0836  -16.6059   25.4263 C   0  0  0  0  0  0  0  0  0  0  0  0
   10.8800  -15.7373   24.9419 O   0  0  0  0  0  0  0  0  0  0  0  0
   13.1152  -20.3384   26.8519 O   0  0  0  0  0  0  0  0  0  0  0  0
    7.2125  -12.8391   27.3498 C   0  0  0  0  0  0  0  0  0  0  0  0
    8.3691  -13.6674   26.9367 C   0  0  0  0  0  0  0  0  0  0  0  0
    9.1518  -14.3229   28.0032 C   0  0  2  0  0  0  0  0  0  0  0  0
    9.7320  -13.2790   28.9729 C   0  0  0  0  0  0  0  0  0  0  0  0
   10.2184  -15.2974   27.5978 C   0  0  2  0  0  0  0  0  0  0  0  0
    9.6774  -16.3494   26.7867 N   0  0  0  0  0  0  0  0  0  0  0  0
   10.6903  -15.9262   28.8857 C   0  0  0  0  0  0  0  0  0  0  0  0
   10.3405  -17.0793   29.2400 O   0  0  0  0  0  0  0  0  0  0  0  0
   11.5426  -15.2248   29.7247 O   0  0  0  0  0  0  0  0  0  0  0  0
  2  1  1  0
  2  3  2  0
  4  3  1  0
  5  4  2  0
  6  5  1  0
  7  9  1  0
  7  6  1  0
  7  8  1  1
  9 10  2  0
 11 12  2  0
 11  5  1  0
 12  2  1  0
 13 14  1  0
 13  9  1  0
 14 15  1  6
 15 16  1  0
 16 17  1  0
 17 18  2  0
 19 20  2  0
 19 14  1  0
 21 17  1  0
 23 24  1  0
 23 22  1  0
 24 25  1  6
 24 26  1  0
 26 27  1  6
 27 19  1  0
 28 26  1  0
 28 30  1  0
 29 28  2  0
M  END
$$$$
