YEI.pdb
     RDKit          3D

 30 30  0  0  1  0  0  0  0  0999 V2000
    7.4995  -12.1086   16.4035 O   0  0  0  0  0  0  0  0  0  0  0  0
    7.5032  -12.7205   17.6536 C   0  0  0  0  0  0  0  0  0  0  0  0
    6.3768  -13.3616   18.1521 C   0  0  0  0  0  0  0  0  0  0  0  0
    6.3822  -13.9665   19.3890 C   0  0  0  0  0  0  0  0  0  0  0  0
    7.5141  -13.9412   20.1497 C   0  0  0  0  0  0  0  0  0  0  0  0
    7.6328  -14.5599   21.4954 C   0  0  0  0  0  0  0  0  0  0  0  0
    8.0524  -16.0123   21.3317 C   0  0  2  0  0  0  0  0  0  0  0  0
    6.9255  -16.7385   20.8113 N   0  0  0  0  0  0  0  0  0  0  0  0
    8.4616  -16.6018   22.6332 C   0  0  0  0  0  0  0  0  0  0  0  0
    7.6026  -16.8005   23.5395 O   0  0  0  0  0  0  0  0  0  0  0  0
    8.6366  -13.2977   19.6437 C   0  0  0  0  0  0  0  0  0  0  0  0
    8.6345  -12.6959   18.4154 C   0  0  0  0  0  0  0  0  0  0  0  0
    9.8005  -16.9651   22.9259 N   0  0  0  0  0  0  0  0  0  0  0  0
   10.2746  -17.3027   24.2528 C   0  0  1  0  0  0  0  0  0  0  0  0
   11.3391  -18.3441   24.2247 C   0  0  0  0  0  0  0  0  0  0  0  0
   11.9188  -18.7793   25.5105 C   0  0  0  0  0  0  0  0  0  0  0  0
   12.9586  -19.7687   25.5510 C   0  0  0  0  0  0  0  0  0  0  0  0
   12.8103  -20.9922   25.5261 O   0  0  0  0  0  0  0  0  0  0  0  0
   10.5026  -16.1572   25.1379 C   0  0  0  0  0  0  0  0  0  0  0  0
   11.2937  -15.1968   24.8636 O   0  0  0  0  0  0  0  0  0  0  0  0
   14.2939  -19.3158   25.6270 O   0  0  0  0  0  0  0  0  0  0  0  0
    6.5482  -13.3544   27.0605 C   0  0  0  0  0  0  0  0  0  0  0  0
    7.8991  -13.8166   26.6658 C   0  0  0  0  0  0  0  0  0  0  0  0
    8.7962  -14.2908   27.7383 C   0  0  2  0  0  0  0  0  0  0  0  0
    9.0883  -13.1625   28.7424 C   0  0  0  0  0  0  0  0  0  0  0  0
   10.0741  -14.9692   27.3403 C   0  0  2  0  0  0  0  0  0  0  0  0
    9.8282  -16.0301   26.4070 N   0  0  0  0  0  0  0  0  0  0  0  0
   10.5970  -15.6023   28.6063 C   0  0  0  0  0  0  0  0  0  0  0  0
   10.4605  -16.8262   28.8533 O   0  0  0  0  0  0  0  0  0  0  0  0
   11.2565  -14.8247   29.5457 O   0  0  0  0  0  0  0  0  0  0  0  0
  2  1  1  0
  2  3  2  0
  4  3  1  0
  5  4  2  0
  6  5  1  0
  7  9  1  0
  7  6  1  0
  7  8  1  1
  9 10  2  0
 11 12  2  0
 11  5  1  0
 12  2  1  0
 13 14  1  0
 13  9  1  0
 14 15  1  6
 15 16  1  0
 16 17  1  0
 17 18  2  0
 19 20  2  0
 19 14  1  0
 21 17  1  0
 23 24  1  0
 23 22  1  0
 24 25  1  6
 24 26  1  0
 26 27  1  6
 27 19  1  0
 28 26  1  0
 28 30  1  0
 29 28  2  0
M  END
$$$$
