YEI.pdb
     RDKit          3D

 30 30  0  0  1  0  0  0  0  0999 V2000
    7.5171  -13.1040   15.1091 O   0  0  0  0  0  0  0  0  0  0  0  0
    7.4774  -13.6021   16.4082 C   0  0  0  0  0  0  0  0  0  0  0  0
    7.0731  -14.9034   16.6755 C   0  0  0  0  0  0  0  0  0  0  0  0
    7.0345  -15.3944   17.9612 C   0  0  0  0  0  0  0  0  0  0  0  0
    7.3995  -14.5931   19.0029 C   0  0  0  0  0  0  0  0  0  0  0  0
    7.3966  -15.0173   20.4269 C   0  0  0  0  0  0  0  0  0  0  0  0
    8.8152  -14.9293   20.9674 C   0  0  2  0  0  0  0  0  0  0  0  0
    9.6779  -15.6243   20.0504 N   0  0  0  0  0  0  0  0  0  0  0  0
    8.9162  -15.5551   22.3116 C   0  0  0  0  0  0  0  0  0  0  0  0
    8.0846  -15.2566   23.2162 O   0  0  0  0  0  0  0  0  0  0  0  0
    7.8026  -13.2925   18.7270 C   0  0  0  0  0  0  0  0  0  0  0  0
    7.8422  -12.8017   17.4509 C   0  0  0  0  0  0  0  0  0  0  0  0
    9.9220  -16.4960   22.6483 N   0  0  0  0  0  0  0  0  0  0  0  0
   10.1331  -17.0093   23.9867 C   0  0  1  0  0  0  0  0  0  0  0  0
   10.9941  -18.2246   23.9969 C   0  0  0  0  0  0  0  0  0  0  0  0
   10.6374  -19.3359   23.0933 C   0  0  0  0  0  0  0  0  0  0  0  0
   11.4801  -20.4931   22.9828 C   0  0  0  0  0  0  0  0  0  0  0  0
   12.6202  -20.5303   22.5154 O   0  0  0  0  0  0  0  0  0  0  0  0
   10.4250  -15.9917   25.0001 C   0  0  0  0  0  0  0  0  0  0  0  0
   11.4619  -15.2515   24.9822 O   0  0  0  0  0  0  0  0  0  0  0  0
   10.9706  -21.7241   23.4511 O   0  0  0  0  0  0  0  0  0  0  0  0
    6.3526  -12.8963   26.7056 C   0  0  0  0  0  0  0  0  0  0  0  0
    7.6615  -13.4938   26.3532 C   0  0  0  0  0  0  0  0  0  0  0  0
    8.4829  -14.0315   27.4559 C   0  0  2  0  0  0  0  0  0  0  0  0
    8.7533  -12.9466   28.5126 C   0  0  0  0  0  0  0  0  0  0  0  0
    9.7595  -14.7376   27.1049 C   0  0  2  0  0  0  0  0  0  0  0  0
    9.5366  -15.7465   26.1102 N   0  0  0  0  0  0  0  0  0  0  0  0
   10.1813  -15.4448   28.3694 C   0  0  0  0  0  0  0  0  0  0  0  0
    9.9852  -16.6718   28.5523 O   0  0  0  0  0  0  0  0  0  0  0  0
   10.8110  -14.7349   29.3802 O   0  0  0  0  0  0  0  0  0  0  0  0
  2  1  1  0
  2  3  2  0
  4  3  1  0
  5  4  2  0
  6  5  1  0
  7  9  1  0
  7  6  1  0
  7  8  1  6
  9 10  2  0
 11 12  2  0
 11  5  1  0
 12  2  1  0
 13 14  1  0
 13  9  1  0
 14 15  1  6
 15 16  1  0
 16 17  1  0
 17 18  2  0
 19 20  2  0
 19 14  1  0
 21 17  1  0
 23 24  1  0
 23 22  1  0
 24 25  1  1
 24 26  1  0
 26 27  1  6
 27 19  1  0
 28 26  1  0
 28 30  1  0
 29 28  2  0
M  END
$$$$
