SLN.pdb
     RDKit          3D

 23 22  0  0  1  0  0  0  0  0999 V2000
   24.7154  -12.1272  -16.3098 O   0  0  0  0  0  0  0  0  0  0  0  0
   23.7635  -11.1035  -16.3666 C   0  0  0  0  0  0  0  0  0  0  0  0
   22.4781  -11.6302  -16.9957 C   0  0  2  0  0  0  0  0  0  0  0  0
   22.6694  -11.8695  -18.4057 N   0  0  0  0  0  0  0  0  0  0  0  0
   21.4184  -10.6468  -16.7159 C   0  0  0  0  0  0  0  0  0  0  0  0
   21.3503   -9.6268  -17.4471 O   0  0  0  0  0  0  0  0  0  0  0  0
   16.3558  -11.9922  -14.7548 C   0  0  0  0  0  0  0  0  0  0  0  0
   17.2985  -11.2183  -15.6907 C   0  0  1  0  0  0  0  0  0  0  0  0
   16.3785  -10.2685  -16.4684 C   0  0  0  0  0  0  0  0  0  0  0  0
   18.1814  -10.4058  -14.8012 C   0  0  0  0  0  0  0  0  0  0  0  0
   19.3826   -9.8244  -15.4631 C   0  0  2  0  0  0  0  0  0  0  0  0
   20.4578  -10.7587  -15.6764 N   0  0  0  0  0  0  0  0  0  0  0  0
   19.8928   -8.7363  -14.5913 C   0  0  0  0  0  0  0  0  0  0  0  0
   20.7374   -8.9944  -13.7047 O   0  0  0  0  0  0  0  0  0  0  0  0
   21.4553   -4.3445  -13.0432 N   0  0  0  0  0  0  0  0  0  0  0  0
   22.2100   -5.1646  -13.9483 C   0  0  0  0  0  0  0  0  0  0  0  0
   23.4002   -4.8649  -14.1491 O   0  0  0  0  0  0  0  0  0  0  0  0
   21.5185   -6.3072  -14.5773 C   0  0  0  0  0  0  0  0  0  0  0  0
   20.0941   -6.3430  -14.1118 C   0  0  2  0  0  0  0  0  0  0  0  0
   19.4081   -7.4119  -14.7821 N   0  0  0  0  0  0  0  0  0  0  0  0
   19.3721   -5.0670  -14.3584 C   0  0  0  0  0  0  0  0  0  0  0  0
   18.6322   -4.9005  -15.3716 O   0  0  0  0  0  0  0  0  0  0  0  0
   19.4749   -3.9916  -13.4858 O   0  0  0  0  0  0  0  0  0  0  0  0
  2  1  1  0
  3  4  1  6
  3  2  1  0
  5  3  1  0
  6  5  2  0
  8  7  1  1
  8 10  1  0
  9  8  1  0
 11 10  1  1
 11 12  1  0
 11 13  1  0
 12  5  1  0
 13 20  1  0
 14 13  2  0
 16 18  1  0
 16 15  1  0
 17 16  2  0
 19 21  1  0
 19 18  1  6
 20 19  1  0
 21 23  1  0
 22 21  2  0
M  END
$$$$
