SLN.pdb
     RDKit          3D

 23 22  0  0  1  0  0  0  0  0999 V2000
   20.1075  -11.7068  -20.2199 O   0  0  0  0  0  0  0  0  0  0  0  0
   20.6466  -11.0406  -19.1141 C   0  0  0  0  0  0  0  0  0  0  0  0
   21.7819  -11.8665  -18.5188 C   0  0  2  0  0  0  0  0  0  0  0  0
   21.2868  -13.1380  -18.0498 N   0  0  0  0  0  0  0  0  0  0  0  0
   22.3993  -11.0590  -17.4534 C   0  0  0  0  0  0  0  0  0  0  0  0
   21.8540  -11.0583  -16.3209 O   0  0  0  0  0  0  0  0  0  0  0  0
   27.8614  -10.1521  -16.7447 C   0  0  0  0  0  0  0  0  0  0  0  0
   26.3930  -10.5438  -16.5123 C   0  0  1  0  0  0  0  0  0  0  0  0
   26.3434  -11.0124  -15.0525 C   0  0  0  0  0  0  0  0  0  0  0  0
   25.6083   -9.2788  -16.6345 C   0  0  0  0  0  0  0  0  0  0  0  0
   24.1293   -9.4433  -16.5663 C   0  0  2  0  0  0  0  0  0  0  0  0
   23.5724  -10.2733  -17.6033 N   0  0  0  0  0  0  0  0  0  0  0  0
   23.5216   -8.0942  -16.6890 C   0  0  0  0  0  0  0  0  0  0  0  0
   23.3331   -7.5980  -17.8223 O   0  0  0  0  0  0  0  0  0  0  0  0
   21.0001   -3.9632  -15.9913 N   0  0  0  0  0  0  0  0  0  0  0  0
   20.4084   -5.1563  -16.5276 C   0  0  0  0  0  0  0  0  0  0  0  0
   19.3086   -5.0534  -17.0988 O   0  0  0  0  0  0  0  0  0  0  0  0
   21.1489   -6.4228  -16.3625 C   0  0  0  0  0  0  0  0  0  0  0  0
   22.4433   -6.1528  -15.6563 C   0  0  2  0  0  0  0  0  0  0  0  0
   23.1629   -7.3867  -15.5074 N   0  0  0  0  0  0  0  0  0  0  0  0
   22.2546   -5.5315  -14.3189 C   0  0  0  0  0  0  0  0  0  0  0  0
   22.2618   -6.2163  -13.2546 O   0  0  0  0  0  0  0  0  0  0  0  0
   22.0603   -4.1644  -14.1717 O   0  0  0  0  0  0  0  0  0  0  0  0
  2  1  1  0
  3  4  1  1
  3  2  1  0
  5  3  1  0
  6  5  2  0
  8  7  1  1
  8 10  1  0
  9  8  1  0
 11 10  1  6
 11 12  1  0
 11 13  1  0
 12  5  1  0
 13 20  1  0
 14 13  2  0
 16 18  1  0
 16 15  1  0
 17 16  2  0
 19 21  1  0
 19 18  1  1
 20 19  1  0
 21 23  1  0
 22 21  2  0
M  END
$$$$
