SLN.pdb
     RDKit          3D

 23 22  0  0  1  0  0  0  0  0999 V2000
   20.3957  -13.3409  -20.0120 O   0  0  0  0  0  0  0  0  0  0  0  0
   20.7061  -12.3527  -19.0716 C   0  0  0  0  0  0  0  0  0  0  0  0
   21.8443  -12.8326  -18.1773 C   0  0  2  0  0  0  0  0  0  0  0  0
   21.4264  -13.9739  -17.3998 N   0  0  0  0  0  0  0  0  0  0  0  0
   22.2608  -11.6900  -17.3471 C   0  0  0  0  0  0  0  0  0  0  0  0
   21.5340  -11.3714  -16.3724 O   0  0  0  0  0  0  0  0  0  0  0  0
   27.4868  -10.0659  -16.0742 C   0  0  0  0  0  0  0  0  0  0  0  0
   26.0071  -10.4353  -15.8799 C   0  0  1  0  0  0  0  0  0  0  0  0
   25.7279  -10.1503  -14.3987 C   0  0  0  0  0  0  0  0  0  0  0  0
   25.2312   -9.4637  -16.7074 C   0  0  0  0  0  0  0  0  0  0  0  0
   23.7697   -9.7372  -16.7992 C   0  0  2  0  0  0  0  0  0  0  0  0
   23.4287  -10.9112  -17.5606 N   0  0  0  0  0  0  0  0  0  0  0  0
   23.1349   -8.5681  -17.4585 C   0  0  0  0  0  0  0  0  0  0  0  0
   23.3893   -8.3167  -18.6578 O   0  0  0  0  0  0  0  0  0  0  0  0
   18.9369   -6.0081  -19.5413 N   0  0  0  0  0  0  0  0  0  0  0  0
   19.4794   -5.8371  -18.2231 C   0  0  0  0  0  0  0  0  0  0  0  0
   19.3433   -4.7277  -17.6780 O   0  0  0  0  0  0  0  0  0  0  0  0
   20.1616   -6.9925  -17.6073 C   0  0  0  0  0  0  0  0  0  0  0  0
   21.6056   -6.6565  -17.3860 C   0  0  2  0  0  0  0  0  0  0  0  0
   22.2435   -7.7505  -16.7087 N   0  0  0  0  0  0  0  0  0  0  0  0
   21.7959   -5.4126  -16.5944 C   0  0  0  0  0  0  0  0  0  0  0  0
   21.8767   -5.4274  -15.3315 O   0  0  0  0  0  0  0  0  0  0  0  0
   21.8946   -4.1690  -17.2045 O   0  0  0  0  0  0  0  0  0  0  0  0
  2  1  1  0
  3  4  1  1
  3  2  1  0
  5  3  1  0
  6  5  2  0
  8  7  1  1
  8 10  1  0
  9  8  1  0
 11 10  1  6
 11 12  1  0
 11 13  1  0
 12  5  1  0
 13 20  1  0
 14 13  2  0
 16 18  1  0
 16 15  1  0
 17 16  2  0
 19 21  1  0
 19 18  1  1
 20 19  1  0
 21 23  1  0
 22 21  2  0
M  END
$$$$
