SLN.pdb
     RDKit          3D

 23 22  0  0  1  0  0  0  0  0999 V2000
   25.4675  -23.1094  -18.0852 O   0  0  0  0  0  0  0  0  0  0  0  0
   26.7438  -22.7812  -18.5548 C   0  0  0  0  0  0  0  0  0  0  0  0
   27.6498  -22.4289  -17.3798 C   0  0  2  0  0  0  0  0  0  0  0  0
   28.2333  -23.6233  -16.8186 N   0  0  0  0  0  0  0  0  0  0  0  0
   26.8375  -21.6736  -16.4113 C   0  0  0  0  0  0  0  0  0  0  0  0
   26.7733  -22.1027  -15.2317 O   0  0  0  0  0  0  0  0  0  0  0  0
   27.1622  -16.2433  -15.9654 C   0  0  0  0  0  0  0  0  0  0  0  0
   27.1216  -17.7353  -15.5970 C   0  0  1  0  0  0  0  0  0  0  0  0
   27.3323  -17.7651  -14.0778 C   0  0  0  0  0  0  0  0  0  0  0  0
   25.7312  -18.1923  -15.8951 C   0  0  0  0  0  0  0  0  0  0  0  0
   25.4922  -19.6511  -15.7111 C   0  0  2  0  0  0  0  0  0  0  0  0
   26.1136  -20.4880  -16.7050 N   0  0  0  0  0  0  0  0  0  0  0  0
   24.0264  -19.8778  -15.7787 C   0  0  0  0  0  0  0  0  0  0  0  0
   23.4769  -20.0664  -16.8871 O   0  0  0  0  0  0  0  0  0  0  0  0
   19.2228  -20.3504  -14.7297 N   0  0  0  0  0  0  0  0  0  0  0  0
   19.8193  -20.5041  -13.4329 C   0  0  0  0  0  0  0  0  0  0  0  0
   19.0714  -20.7787  -12.4780 O   0  0  0  0  0  0  0  0  0  0  0  0
   21.2807  -20.3249  -13.3248 C   0  0  0  0  0  0  0  0  0  0  0  0
   21.8429  -20.0027  -14.6766 C   0  0  2  0  0  0  0  0  0  0  0  0
   23.2696  -19.8760  -14.5735 N   0  0  0  0  0  0  0  0  0  0  0  0
   21.2808  -18.7537  -15.2548 C   0  0  0  0  0  0  0  0  0  0  0  0
   21.7769  -17.6167  -15.0043 O   0  0  0  0  0  0  0  0  0  0  0  0
   20.1797  -18.7739  -16.1009 O   0  0  0  0  0  0  0  0  0  0  0  0
  2  1  1  0
  3  4  1  1
  3  2  1  0
  5  3  1  0
  6  5  2  0
  8  7  1  1
  8 10  1  0
  9  8  1  0
 11 10  1  6
 11 12  1  0
 11 13  1  0
 12  5  1  0
 13 20  1  0
 14 13  2  0
 16 18  1  0
 16 15  1  0
 17 16  2  0
 19 21  1  0
 19 18  1  1
 20 19  1  0
 21 23  1  0
 22 21  2  0
M  END
$$$$
