SLN.pdb
     RDKit          3D

 23 22  0  0  1  0  0  0  0  0999 V2000
   20.4779   -9.1893  -18.1131 O   0  0  0  0  0  0  0  0  0  0  0  0
   19.7265  -10.3359  -17.8340 C   0  0  0  0  0  0  0  0  0  0  0  0
   20.6578  -11.4813  -17.4520 C   0  0  2  0  0  0  0  0  0  0  0  0
   19.9045  -12.6941  -17.2435 N   0  0  0  0  0  0  0  0  0  0  0  0
   21.4088  -11.0562  -16.2588 C   0  0  0  0  0  0  0  0  0  0  0  0
   20.9865  -11.4221  -15.1330 O   0  0  0  0  0  0  0  0  0  0  0  0
   26.9069  -10.5196  -16.0240 C   0  0  0  0  0  0  0  0  0  0  0  0
   25.4430  -10.9238  -15.7851 C   0  0  1  0  0  0  0  0  0  0  0  0
   25.5070  -11.9634  -14.6589 C   0  0  0  0  0  0  0  0  0  0  0  0
   24.7604   -9.7004  -15.2672 C   0  0  0  0  0  0  0  0  0  0  0  0
   23.2856   -9.8234  -15.0976 C   0  0  2  0  0  0  0  0  0  0  0  0
   22.5830  -10.2582  -16.2773 N   0  0  0  0  0  0  0  0  0  0  0  0
   22.7634   -8.4841  -14.7259 C   0  0  0  0  0  0  0  0  0  0  0  0
   23.1895   -7.9144  -13.6963 O   0  0  0  0  0  0  0  0  0  0  0  0
   21.1989   -4.4105  -13.6540 N   0  0  0  0  0  0  0  0  0  0  0  0
   22.2327   -4.3811  -14.6497 C   0  0  0  0  0  0  0  0  0  0  0  0
   22.9617   -3.3749  -14.7011 O   0  0  0  0  0  0  0  0  0  0  0  0
   22.3572   -5.5496  -15.5434 C   0  0  0  0  0  0  0  0  0  0  0  0
   21.3138   -6.5638  -15.1831 C   0  0  2  0  0  0  0  0  0  0  0  0
   21.7816   -7.8701  -15.5532 N   0  0  0  0  0  0  0  0  0  0  0  0
   20.0056   -6.3074  -15.8412 C   0  0  0  0  0  0  0  0  0  0  0  0
   19.4523   -7.1650  -16.5896 O   0  0  0  0  0  0  0  0  0  0  0  0
   19.3245   -5.1099  -15.6663 O   0  0  0  0  0  0  0  0  0  0  0  0
  2  1  1  0
  3  4  1  1
  3  2  1  0
  5  3  1  0
  6  5  2  0
  8  7  1  1
  8 10  1  0
  9  8  1  0
 11 10  1  6
 11 12  1  0
 11 13  1  0
 12  5  1  0
 13 20  1  0
 14 13  2  0
 16 18  1  0
 16 15  1  0
 17 16  2  0
 19 21  1  0
 19 18  1  6
 20 19  1  0
 21 23  1  0
 22 21  2  0
M  END
$$$$
