SLN.pdb
     RDKit          3D

 23 22  0  0  1  0  0  0  0  0999 V2000
   26.9532  -18.4936  -17.2205 O   0  0  0  0  0  0  0  0  0  0  0  0
   26.4698  -19.7746  -16.9330 C   0  0  0  0  0  0  0  0  0  0  0  0
   27.1715  -20.3239  -15.6956 C   0  0  2  0  0  0  0  0  0  0  0  0
   28.2188  -21.2405  -16.0763 N   0  0  0  0  0  0  0  0  0  0  0  0
   26.1410  -20.9455  -14.8471 C   0  0  0  0  0  0  0  0  0  0  0  0
   25.8275  -22.1406  -15.0775 O   0  0  0  0  0  0  0  0  0  0  0  0
   25.7241  -20.2776   -9.3608 C   0  0  0  0  0  0  0  0  0  0  0  0
   25.9021  -20.7506  -10.8127 C   0  0  1  0  0  0  0  0  0  0  0  0
   26.1242  -22.2644  -10.7026 C   0  0  0  0  0  0  0  0  0  0  0  0
   24.5907  -20.5082  -11.4853 C   0  0  0  0  0  0  0  0  0  0  0  0
   24.5195  -20.9450  -12.9077 C   0  0  2  0  0  0  0  0  0  0  0  0
   25.4661  -20.2976  -13.7791 N   0  0  0  0  0  0  0  0  0  0  0  0
   23.1562  -20.6320  -13.4056 C   0  0  0  0  0  0  0  0  0  0  0  0
   22.8932  -19.4789  -13.8146 O   0  0  0  0  0  0  0  0  0  0  0  0
   21.4998  -24.4371  -15.5343 N   0  0  0  0  0  0  0  0  0  0  0  0
   21.0547  -23.0735  -15.5949 C   0  0  0  0  0  0  0  0  0  0  0  0
   21.3860  -22.3974  -16.5847 O   0  0  0  0  0  0  0  0  0  0  0  0
   20.2340  -22.5698  -14.4759 C   0  0  0  0  0  0  0  0  0  0  0  0
   20.8650  -21.3308  -13.9156 C   0  0  2  0  0  0  0  0  0  0  0  0
   22.1683  -21.6564  -13.4079 N   0  0  0  0  0  0  0  0  0  0  0  0
   20.0585  -20.7094  -12.8323 C   0  0  0  0  0  0  0  0  0  0  0  0
   20.4916  -20.6094  -11.6473 O   0  0  0  0  0  0  0  0  0  0  0  0
   18.7857  -20.2067  -13.0686 O   0  0  0  0  0  0  0  0  0  0  0  0
  2  1  1  0
  3  4  1  6
  3  2  1  0
  5  3  1  0
  6  5  2  0
  8  7  1  1
  8 10  1  0
  9  8  1  0
 11 10  1  1
 11 12  1  0
 11 13  1  0
 12  5  1  0
 13 20  1  0
 14 13  2  0
 16 18  1  0
 16 15  1  0
 17 16  2  0
 19 21  1  0
 19 18  1  1
 20 19  1  0
 21 23  1  0
 22 21  2  0
M  END
$$$$
