SLN.pdb
     RDKit          3D

 23 22  0  0  1  0  0  0  0  0999 V2000
   20.7646  -11.7880  -21.1114 O   0  0  0  0  0  0  0  0  0  0  0  0
   20.9666  -11.0985  -19.9109 C   0  0  0  0  0  0  0  0  0  0  0  0
   21.8880  -11.9056  -19.0026 C   0  0  2  0  0  0  0  0  0  0  0  0
   21.2378  -13.1221  -18.5793 N   0  0  0  0  0  0  0  0  0  0  0  0
   22.2690  -11.0337  -17.8787 C   0  0  0  0  0  0  0  0  0  0  0  0
   21.5085  -10.9919  -16.8788 O   0  0  0  0  0  0  0  0  0  0  0  0
   27.5700  -10.0667  -16.3440 C   0  0  0  0  0  0  0  0  0  0  0  0
   26.0949  -10.4989  -16.3668 C   0  0  1  0  0  0  0  0  0  0  0  0
   25.8264  -11.0354  -14.9549 C   0  0  0  0  0  0  0  0  0  0  0  0
   25.3048   -9.2462  -16.5597 C   0  0  0  0  0  0  0  0  0  0  0  0
   23.8340   -9.4408  -16.6939 C   0  0  2  0  0  0  0  0  0  0  0  0
   23.4374  -10.2283  -17.8327 N   0  0  0  0  0  0  0  0  0  0  0  0
   23.2145   -8.0986  -16.8320 C   0  0  0  0  0  0  0  0  0  0  0  0
   22.9431   -7.6532  -17.9696 O   0  0  0  0  0  0  0  0  0  0  0  0
   19.7845   -4.7069  -17.7848 N   0  0  0  0  0  0  0  0  0  0  0  0
   19.9985   -5.2726  -16.4827 C   0  0  0  0  0  0  0  0  0  0  0  0
   19.4738   -4.7044  -15.5088 O   0  0  0  0  0  0  0  0  0  0  0  0
   20.8276   -6.4907  -16.3922 C   0  0  0  0  0  0  0  0  0  0  0  0
   22.1613   -6.1410  -15.8040 C   0  0  2  0  0  0  0  0  0  0  0  0
   22.9395   -7.3394  -15.6601 N   0  0  0  0  0  0  0  0  0  0  0  0
   22.0529   -5.4661  -14.4838 C   0  0  0  0  0  0  0  0  0  0  0  0
   21.9868   -6.1180  -13.4010 O   0  0  0  0  0  0  0  0  0  0  0  0
   22.0186   -4.0822  -14.3739 O   0  0  0  0  0  0  0  0  0  0  0  0
  2  1  1  0
  3  4  1  1
  3  2  1  0
  5  3  1  0
  6  5  2  0
  8  7  1  1
  8 10  1  0
  9  8  1  0
 11 10  1  6
 11 12  1  0
 11 13  1  0
 12  5  1  0
 13 20  1  0
 14 13  2  0
 16 18  1  0
 16 15  1  0
 17 16  2  0
 19 21  1  0
 19 18  1  1
 20 19  1  0
 21 23  1  0
 22 21  2  0
M  END
$$$$
