SLN.pdb
     RDKit          3D

 23 22  0  0  1  0  0  0  0  0999 V2000
   35.1734  -26.7105  -17.0360 O   0  0  0  0  0  0  0  0  0  0  0  0
   34.5359  -27.9140  -17.3557 C   0  0  0  0  0  0  0  0  0  0  0  0
   35.4383  -28.7513  -18.2558 C   0  0  2  0  0  0  0  0  0  0  0  0
   35.6233  -28.0990  -19.5294 N   0  0  0  0  0  0  0  0  0  0  0  0
   34.8240  -30.0843  -18.3740 C   0  0  0  0  0  0  0  0  0  0  0  0
   33.9068  -30.2397  -19.2192 O   0  0  0  0  0  0  0  0  0  0  0  0
   34.9424  -35.3189  -18.7486 C   0  0  0  0  0  0  0  0  0  0  0  0
   34.7466  -34.9849  -17.2608 C   0  0  1  0  0  0  0  0  0  0  0  0
   35.6247  -35.9993  -16.5171 C   0  0  0  0  0  0  0  0  0  0  0  0
   35.3249  -33.6213  -17.0683 C   0  0  0  0  0  0  0  0  0  0  0  0
   34.5794  -32.5183  -17.7368 C   0  0  2  0  0  0  0  0  0  0  0  0
   35.1876  -31.2197  -17.6028 N   0  0  0  0  0  0  0  0  0  0  0  0
   33.2291  -32.4529  -17.1229 C   0  0  0  0  0  0  0  0  0  0  0  0
   33.0817  -31.9202  -16.0001 O   0  0  0  0  0  0  0  0  0  0  0  0
   28.8580  -32.1003  -15.6413 N   0  0  0  0  0  0  0  0  0  0  0  0
   29.4601  -30.9939  -16.3300 C   0  0  0  0  0  0  0  0  0  0  0  0
   29.0396  -29.8518  -16.0744 O   0  0  0  0  0  0  0  0  0  0  0  0
   30.5376  -31.2910  -17.2946 C   0  0  0  0  0  0  0  0  0  0  0  0
   30.8065  -32.7657  -17.3000 C   0  0  2  0  0  0  0  0  0  0  0  0
   32.1211  -33.0010  -17.8281 N   0  0  0  0  0  0  0  0  0  0  0  0
   29.8137  -33.5323  -18.0980 C   0  0  0  0  0  0  0  0  0  0  0  0
   30.0997  -34.0274  -19.2270 O   0  0  0  0  0  0  0  0  0  0  0  0
   28.5192  -33.7433  -17.6416 O   0  0  0  0  0  0  0  0  0  0  0  0
  2  1  1  0
  3  4  1  6
  3  2  1  0
  5  3  1  0
  6  5  2  0
  8  7  1  6
  8 10  1  0
  9  8  1  0
 11 10  1  1
 11 12  1  0
 11 13  1  0
 12  5  1  0
 13 20  1  0
 14 13  2  0
 16 18  1  0
 16 15  1  0
 17 16  2  0
 19 21  1  0
 19 18  1  6
 20 19  1  0
 21 23  1  0
 22 21  2  0
M  END
$$$$
