KTK.pdb
     RDKit          3D

 26 25  0  0  1  0  0  0  0  0999 V2000
    9.4811  -16.7727   15.7157 N   0  0  0  0  0  0  0  0  0  0  0  0
    8.4382  -16.4552   16.6709 C   0  0  1  0  0  0  0  0  0  0  0  0
    7.7353  -17.7498   17.0152 C   0  0  0  0  0  0  0  0  0  0  0  0
    6.5742  -18.0020   16.0520 C   0  0  0  0  0  0  0  0  0  0  0  0
    6.3119  -19.4692   15.8869 C   0  0  0  0  0  0  0  0  0  0  0  0
    5.2492  -19.7613   14.8530 C   0  0  0  0  0  0  0  0  0  0  0  0
    4.9992  -21.1915   14.8925 N   0  0  0  0  0  0  0  0  0  0  0  0
    8.9754  -15.8403   17.8989 C   0  0  0  0  0  0  0  0  0  0  0  0
   10.2312  -15.8882   18.0544 O   0  0  0  0  0  0  0  0  0  0  0  0
    7.7252  -12.5472   19.9306 C   0  0  0  0  0  0  0  0  0  0  0  0
    7.9004  -13.7667   20.8099 C   0  0  1  0  0  0  0  0  0  0  0  0
    6.6880  -14.3584   21.1205 O   0  0  0  0  0  0  0  0  0  0  0  0
    8.8238  -14.7557   20.0916 C   0  0  2  0  0  0  0  0  0  0  0  0
    8.1958  -15.2124   18.8959 N   0  0  0  0  0  0  0  0  0  0  0  0
    9.0813  -15.8496   21.0657 C   0  0  0  0  0  0  0  0  0  0  0  0
    8.4713  -16.9380   20.9242 O   0  0  0  0  0  0  0  0  0  0  0  0
    9.9957  -15.6760   22.1360 N   0  0  0  0  0  0  0  0  0  0  0  0
   10.3277  -16.7455   23.0733 C   0  0  1  0  0  0  0  0  0  0  0  0
   11.8049  -16.9795   23.1138 C   0  0  0  0  0  0  0  0  0  0  0  0
   12.2317  -18.0452   24.0843 C   0  0  0  0  0  0  0  0  0  0  0  0
   13.7476  -18.2407   24.0531 C   0  0  0  0  0  0  0  0  0  0  0  0
   14.1727  -19.3800   24.9142 C   0  0  0  0  0  0  0  0  0  0  0  0
   15.5963  -19.6029   24.6993 N   0  0  0  0  0  0  0  0  0  0  0  0
    9.7950  -16.3583   24.3899 C   0  0  0  0  0  0  0  0  0  0  0  0
    9.5161  -15.1377   24.5949 O   0  0  0  0  0  0  0  0  0  0  0  0
    9.5590  -17.2057   25.4519 O   0  0  0  0  0  0  0  0  0  0  0  0
  2  1  1  6
  3  2  1  0
  4  3  1  0
  5  4  1  0
  6  5  1  0
  7  6  1  0
  8  9  2  0
  8  2  1  0
 11 10  1  6
 11 13  1  0
 12 11  1  0
 13 14  1  6
 14  8  1  0
 15 13  1  0
 16 15  2  0
 17 15  1  0
 18 17  1  0
 18 24  1  0
 18 19  1  1
 20 19  1  0
 21 20  1  0
 21 22  1  0
 22 23  1  0
 24 26  1  0
 25 24  2  0
M  END
$$$$
