KTK.pdb
     RDKit          3D

 26 25  0  0  1  0  0  0  0  0999 V2000
    9.6181  -16.5136   15.8918 N   0  0  0  0  0  0  0  0  0  0  0  0
    8.6400  -16.7099   16.9434 C   0  0  1  0  0  0  0  0  0  0  0  0
    8.4415  -18.2014   17.0993 C   0  0  0  0  0  0  0  0  0  0  0  0
    9.7854  -18.9027   17.3031 C   0  0  0  0  0  0  0  0  0  0  0  0
    9.6068  -20.3801   17.4881 C   0  0  0  0  0  0  0  0  0  0  0  0
   10.9105  -21.1000   17.7443 C   0  0  0  0  0  0  0  0  0  0  0  0
   10.5820  -22.4853   18.0316 N   0  0  0  0  0  0  0  0  0  0  0  0
    9.0776  -16.1305   18.2269 C   0  0  0  0  0  0  0  0  0  0  0  0
   10.3263  -16.0834   18.4313 O   0  0  0  0  0  0  0  0  0  0  0  0
    7.2458  -13.0835   20.2344 C   0  0  0  0  0  0  0  0  0  0  0  0
    7.6751  -14.2326   21.1212 C   0  0  1  0  0  0  0  0  0  0  0  0
    6.6098  -15.0485   21.4617 O   0  0  0  0  0  0  0  0  0  0  0  0
    8.7631  -15.0284   20.3934 C   0  0  2  0  0  0  0  0  0  0  0  0
    8.2114  -15.6332   19.2261 N   0  0  0  0  0  0  0  0  0  0  0  0
    9.2653  -16.0221   21.3793 C   0  0  0  0  0  0  0  0  0  0  0  0
    8.9464  -17.2281   21.2348 O   0  0  0  0  0  0  0  0  0  0  0  0
   10.0885  -15.6250   22.4639 N   0  0  0  0  0  0  0  0  0  0  0  0
   10.5992  -16.5680   23.4552 C   0  0  1  0  0  0  0  0  0  0  0  0
   12.0952  -16.5855   23.4534 C   0  0  0  0  0  0  0  0  0  0  0  0
   12.7003  -17.4866   24.4933 C   0  0  0  0  0  0  0  0  0  0  0  0
   14.2275  -17.4339   24.4438 C   0  0  0  0  0  0  0  0  0  0  0  0
   14.8417  -18.3257   25.4673 C   0  0  0  0  0  0  0  0  0  0  0  0
   16.2865  -18.1458   25.4155 N   0  0  0  0  0  0  0  0  0  0  0  0
   10.0545  -16.1694   24.7636 C   0  0  0  0  0  0  0  0  0  0  0  0
   10.2956  -16.9046   25.7690 O   0  0  0  0  0  0  0  0  0  0  0  0
    9.2909  -15.0497   25.0186 O   0  0  0  0  0  0  0  0  0  0  0  0
  2  1  1  6
  3  2  1  0
  4  3  1  0
  5  4  1  0
  6  5  1  0
  7  6  1  0
  8  9  2  0
  8  2  1  0
 11 10  1  6
 11 13  1  0
 12 11  1  0
 13 14  1  6
 14  8  1  0
 15 13  1  0
 16 15  2  0
 17 15  1  0
 18 17  1  0
 18 24  1  0
 18 19  1  1
 20 19  1  0
 21 20  1  0
 21 22  1  0
 22 23  1  0
 24 26  1  0
 25 24  2  0
M  END
$$$$
