KTK.pdb
     RDKit          3D

 26 25  0  0  1  0  0  0  0  0999 V2000
    6.3989  -16.0088   21.3322 N   0  0  0  0  0  0  0  0  0  0  0  0
    7.4352  -14.9953   21.3332 C   0  0  1  0  0  0  0  0  0  0  0  0
    6.7822  -13.6852   20.9515 C   0  0  0  0  0  0  0  0  0  0  0  0
    7.7504  -12.8188   20.1443 C   0  0  0  0  0  0  0  0  0  0  0  0
    7.6704  -13.1317   18.6799 C   0  0  0  0  0  0  0  0  0  0  0  0
    8.6240  -12.3026   17.8511 C   0  0  0  0  0  0  0  0  0  0  0  0
    8.5223  -12.7785   16.4826 N   0  0  0  0  0  0  0  0  0  0  0  0
    8.0828  -14.8617   22.6513 C   0  0  0  0  0  0  0  0  0  0  0  0
    9.1839  -14.2371   22.6813 O   0  0  0  0  0  0  0  0  0  0  0  0
    7.3253  -12.9646   25.6169 C   0  0  0  0  0  0  0  0  0  0  0  0
    7.4169  -14.4059   26.0703 C   0  0  1  0  0  0  0  0  0  0  0  0
    6.1677  -14.9909   26.1881 O   0  0  0  0  0  0  0  0  0  0  0  0
    8.2895  -15.1749   25.0733 C   0  0  2  0  0  0  0  0  0  0  0  0
    7.5656  -15.3754   23.8615 N   0  0  0  0  0  0  0  0  0  0  0  0
    8.6509  -16.4487   25.7505 C   0  0  0  0  0  0  0  0  0  0  0  0
    7.7481  -17.2955   25.9621 O   0  0  0  0  0  0  0  0  0  0  0  0
    9.9855  -16.7105   26.1527 N   0  0  0  0  0  0  0  0  0  0  0  0
   10.3784  -17.9396   26.8365 C   0  0  1  0  0  0  0  0  0  0  0  0
   11.5771  -18.5529   26.1841 C   0  0  0  0  0  0  0  0  0  0  0  0
   12.1001  -19.7753   26.8854 C   0  0  0  0  0  0  0  0  0  0  0  0
   13.3580  -20.3065   26.1978 C   0  0  0  0  0  0  0  0  0  0  0  0
   13.8609  -21.5465   26.8535 C   0  0  0  0  0  0  0  0  0  0  0  0
   15.0989  -21.9375   26.1926 N   0  0  0  0  0  0  0  0  0  0  0  0
   10.6327  -17.5976   28.2456 C   0  0  0  0  0  0  0  0  0  0  0  0
   10.6981  -18.5382   29.0945 O   0  0  0  0  0  0  0  0  0  0  0  0
   10.8141  -16.3284   28.7534 O   0  0  0  0  0  0  0  0  0  0  0  0
  2  1  1  1
  3  2  1  0
  4  3  1  0
  5  4  1  0
  6  5  1  0
  7  6  1  0
  8  9  2  0
  8  2  1  0
 11 10  1  6
 11 13  1  0
 12 11  1  0
 13 14  1  6
 14  8  1  0
 15 13  1  0
 16 15  2  0
 17 15  1  0
 18 17  1  0
 18 24  1  0
 18 19  1  6
 20 19  1  0
 21 20  1  0
 21 22  1  0
 22 23  1  0
 24 26  1  0
 25 24  2  0
M  END
$$$$
