KTK.pdb
     RDKit          3D

 26 25  0  0  1  0  0  0  0  0999 V2000
    9.5097  -17.0265   16.7645 N   0  0  0  0  0  0  0  0  0  0  0  0
    8.7920  -17.4162   17.9620 C   0  0  1  0  0  0  0  0  0  0  0  0
    8.9975  -18.9038   18.1445 C   0  0  0  0  0  0  0  0  0  0  0  0
   10.4537  -19.2817   17.8684 C   0  0  0  0  0  0  0  0  0  0  0  0
   10.6375  -20.7700   17.8553 C   0  0  0  0  0  0  0  0  0  0  0  0
   12.0759  -21.1804   17.6408 C   0  0  0  0  0  0  0  0  0  0  0  0
   12.1176  -22.6310   17.7006 N   0  0  0  0  0  0  0  0  0  0  0  0
    9.2714  -16.6985   19.1577 C   0  0  0  0  0  0  0  0  0  0  0  0
   10.5015  -16.3993   19.1841 O   0  0  0  0  0  0  0  0  0  0  0  0
    7.4052  -13.7941   21.2686 C   0  0  0  0  0  0  0  0  0  0  0  0
    7.9597  -14.9009   22.1397 C   0  0  1  0  0  0  0  0  0  0  0  0
    6.9712  -15.7777   22.5528 O   0  0  0  0  0  0  0  0  0  0  0  0
    9.0508  -15.6366   21.3556 C   0  0  2  0  0  0  0  0  0  0  0  0
    8.4636  -16.3290   20.2563 N   0  0  0  0  0  0  0  0  0  0  0  0
    9.7061  -16.5475   22.3316 C   0  0  0  0  0  0  0  0  0  0  0  0
    9.4401  -17.7738   22.2833 O   0  0  0  0  0  0  0  0  0  0  0  0
   10.6143  -16.0502   23.3009 N   0  0  0  0  0  0  0  0  0  0  0  0
   11.3125  -16.9158   24.2474 C   0  0  1  0  0  0  0  0  0  0  0  0
   12.7738  -16.5965   24.2841 C   0  0  0  0  0  0  0  0  0  0  0  0
   13.5740  -17.4851   25.1950 C   0  0  0  0  0  0  0  0  0  0  0  0
   15.0456  -17.0708   25.2121 C   0  0  0  0  0  0  0  0  0  0  0  0
   15.8614  -17.9756   26.0701 C   0  0  0  0  0  0  0  0  0  0  0  0
   17.2600  -17.5930   25.9293 N   0  0  0  0  0  0  0  0  0  0  0  0
   10.6758  -16.7344   25.5623 C   0  0  0  0  0  0  0  0  0  0  0  0
   11.0277  -17.4945   26.5152 O   0  0  0  0  0  0  0  0  0  0  0  0
    9.7126  -15.7988   25.8763 O   0  0  0  0  0  0  0  0  0  0  0  0
  2  1  1  6
  3  2  1  0
  4  3  1  0
  5  4  1  0
  6  5  1  0
  7  6  1  0
  8  9  2  0
  8  2  1  0
 11 10  1  6
 11 13  1  0
 12 11  1  0
 13 14  1  6
 14  8  1  0
 15 13  1  0
 16 15  2  0
 17 15  1  0
 18 17  1  0
 18 24  1  0
 18 19  1  1
 20 19  1  0
 21 20  1  0
 21 22  1  0
 22 23  1  0
 24 26  1  0
 25 24  2  0
M  END
$$$$
