KTK.pdb
     RDKit          3D

 26 25  0  0  1  0  0  0  0  0999 V2000
   10.1292  -19.5166   21.6104 N   0  0  0  0  0  0  0  0  0  0  0  0
   11.0278  -18.6311   20.8966 C   0  0  1  0  0  0  0  0  0  0  0  0
   11.1053  -19.1255   19.4690 C   0  0  0  0  0  0  0  0  0  0  0  0
   10.7613  -20.6142   19.3978 C   0  0  0  0  0  0  0  0  0  0  0  0
   10.7756  -21.1097   17.9825 C   0  0  0  0  0  0  0  0  0  0  0  0
   10.3476  -22.5541   17.8635 C   0  0  0  0  0  0  0  0  0  0  0  0
   10.5190  -22.9353   16.4726 N   0  0  0  0  0  0  0  0  0  0  0  0
   10.5613  -17.2322   20.9129 C   0  0  0  0  0  0  0  0  0  0  0  0
   11.3027  -16.3806   20.3400 O   0  0  0  0  0  0  0  0  0  0  0  0
    7.4097  -15.7425   19.4655 C   0  0  0  0  0  0  0  0  0  0  0  0
    7.4965  -15.3677   20.9295 C   0  0  1  0  0  0  0  0  0  0  0  0
    6.7156  -16.1923   21.7212 O   0  0  0  0  0  0  0  0  0  0  0  0
    8.9655  -15.4266   21.3603 C   0  0  2  0  0  0  0  0  0  0  0  0
    9.3631  -16.7871   21.5146 N   0  0  0  0  0  0  0  0  0  0  0  0
    9.0470  -14.6513   22.6267 C   0  0  0  0  0  0  0  0  0  0  0  0
    8.9722  -13.3990   22.5721 O   0  0  0  0  0  0  0  0  0  0  0  0
    9.2061  -15.3045   23.8756 N   0  0  0  0  0  0  0  0  0  0  0  0
    9.1140  -14.6018   25.1525 C   0  0  1  0  0  0  0  0  0  0  0  0
    7.8036  -13.8906   25.2765 C   0  0  0  0  0  0  0  0  0  0  0  0
    7.6326  -13.1384   26.5667 C   0  0  0  0  0  0  0  0  0  0  0  0
    6.3082  -12.3748   26.5855 C   0  0  0  0  0  0  0  0  0  0  0  0
    6.1823  -11.5226   27.8013 C   0  0  0  0  0  0  0  0  0  0  0  0
    4.9192  -10.8012   27.7192 N   0  0  0  0  0  0  0  0  0  0  0  0
    9.3024  -15.5995   26.2186 C   0  0  0  0  0  0  0  0  0  0  0  0
    9.2859  -15.2068   27.4249 O   0  0  0  0  0  0  0  0  0  0  0  0
    9.4983  -16.9527   26.0394 O   0  0  0  0  0  0  0  0  0  0  0  0
  2  1  1  1
  3  2  1  0
  4  3  1  0
  5  4  1  0
  6  5  1  0
  7  6  1  0
  8  9  2  0
  8  2  1  0
 11 10  1  6
 11 13  1  0
 12 11  1  0
 13 14  1  1
 14  8  1  0
 15 13  1  0
 16 15  2  0
 17 15  1  0
 18 17  1  0
 18 24  1  0
 18 19  1  1
 20 19  1  0
 21 20  1  0
 21 22  1  0
 22 23  1  0
 24 26  1  0
 25 24  2  0
M  END
$$$$
