KTK.pdb
     RDKit          3D

 26 25  0  0  1  0  0  0  0  0999 V2000
    9.8318  -14.4705   18.0553 N   0  0  0  0  0  0  0  0  0  0  0  0
    8.8237  -13.7805   18.8354 C   0  0  1  0  0  0  0  0  0  0  0  0
    7.6013  -13.6300   17.9568 C   0  0  0  0  0  0  0  0  0  0  0  0
    8.0122  -13.3894   16.5032 C   0  0  0  0  0  0  0  0  0  0  0  0
    7.1946  -14.2215   15.5609 C   0  0  0  0  0  0  0  0  0  0  0  0
    7.5257  -13.9590   14.1100 C   0  0  0  0  0  0  0  0  0  0  0  0
    6.5805  -14.7215   13.3134 N   0  0  0  0  0  0  0  0  0  0  0  0
    8.4661  -14.5180   20.0613 C   0  0  0  0  0  0  0  0  0  0  0  0
    7.5579  -14.0110   20.7834 O   0  0  0  0  0  0  0  0  0  0  0  0
    8.2023  -18.5143   20.4197 C   0  0  0  0  0  0  0  0  0  0  0  0
    8.9355  -17.8774   21.5807 C   0  0  1  0  0  0  0  0  0  0  0  0
   10.3066  -18.0381   21.4766 O   0  0  0  0  0  0  0  0  0  0  0  0
    8.5613  -16.3930   21.6369 C   0  0  2  0  0  0  0  0  0  0  0  0
    9.0591  -15.7313   20.4763 N   0  0  0  0  0  0  0  0  0  0  0  0
    9.1527  -15.8741   22.8989 C   0  0  0  0  0  0  0  0  0  0  0  0
   10.3066  -15.3798   22.8646 O   0  0  0  0  0  0  0  0  0  0  0  0
    8.4355  -15.9322   24.1211 N   0  0  0  0  0  0  0  0  0  0  0  0
    8.9869  -15.4506   25.3848 C   0  0  1  0  0  0  0  0  0  0  0  0
    7.9315  -14.7790   26.2055 C   0  0  0  0  0  0  0  0  0  0  0  0
    7.5226  -13.4264   25.6927 C   0  0  0  0  0  0  0  0  0  0  0  0
    6.4425  -12.8067   26.5796 C   0  0  0  0  0  0  0  0  0  0  0  0
    6.1268  -11.4102   26.1669 C   0  0  0  0  0  0  0  0  0  0  0  0
    5.0829  -10.9032   27.0477 N   0  0  0  0  0  0  0  0  0  0  0  0
    9.5713  -16.6092   26.0801 C   0  0  0  0  0  0  0  0  0  0  0  0
    9.1606  -17.7697   25.7732 O   0  0  0  0  0  0  0  0  0  0  0  0
   10.5457  -16.5648   27.0549 O   0  0  0  0  0  0  0  0  0  0  0  0
  2  1  1  6
  3  2  1  0
  4  3  1  0
  5  4  1  0
  6  5  1  0
  7  6  1  0
  8  9  2  0
  8  2  1  0
 11 10  1  6
 11 13  1  0
 12 11  1  0
 13 14  1  6
 14  8  1  0
 15 13  1  0
 16 15  2  0
 17 15  1  0
 18 17  1  0
 18 24  1  0
 18 19  1  1
 20 19  1  0
 21 20  1  0
 21 22  1  0
 22 23  1  0
 24 26  1  0
 25 24  2  0
M  END
$$$$
