KTK.pdb
     RDKit          3D

 26 25  0  0  1  0  0  0  0  0999 V2000
    7.8139  -17.6231   16.6934 N   0  0  0  0  0  0  0  0  0  0  0  0
    7.1231  -17.2592   17.9146 C   0  0  1  0  0  0  0  0  0  0  0  0
    6.5476  -18.5297   18.5005 C   0  0  0  0  0  0  0  0  0  0  0  0
    5.3881  -19.0385   17.6425 C   0  0  0  0  0  0  0  0  0  0  0  0
    4.8334  -20.3229   18.1822 C   0  0  0  0  0  0  0  0  0  0  0  0
    3.7001  -20.8690   17.3449 C   0  0  0  0  0  0  0  0  0  0  0  0
    3.2994  -22.1306   17.9425 N   0  0  0  0  0  0  0  0  0  0  0  0
    8.0222  -16.6232   18.8953 C   0  0  0  0  0  0  0  0  0  0  0  0
    9.2378  -16.9761   18.8624 O   0  0  0  0  0  0  0  0  0  0  0  0
    7.7952  -12.8160   19.9967 C   0  0  0  0  0  0  0  0  0  0  0  0
    8.0839  -13.7027   21.1890 C   0  0  1  0  0  0  0  0  0  0  0  0
    6.9650  -13.8792   21.9848 O   0  0  0  0  0  0  0  0  0  0  0  0
    8.6100  -15.0479   20.6786 C   0  0  2  0  0  0  0  0  0  0  0  0
    7.6243  -15.6631   19.8524 N   0  0  0  0  0  0  0  0  0  0  0  0
    8.9285  -15.8449   21.8931 C   0  0  0  0  0  0  0  0  0  0  0  0
    8.1273  -16.7431   22.2511 O   0  0  0  0  0  0  0  0  0  0  0  0
   10.1108  -15.6026   22.6381 N   0  0  0  0  0  0  0  0  0  0  0  0
   10.5701  -16.4903   23.7028 C   0  0  1  0  0  0  0  0  0  0  0  0
   10.7884  -17.8766   23.1841 C   0  0  0  0  0  0  0  0  0  0  0  0
   10.3173  -18.9611   24.1124 C   0  0  0  0  0  0  0  0  0  0  0  0
   11.3262  -19.1979   25.2364 C   0  0  0  0  0  0  0  0  0  0  0  0
   10.8473  -20.2324   26.1960 C   0  0  0  0  0  0  0  0  0  0  0  0
   11.8610  -20.3945   27.2297 N   0  0  0  0  0  0  0  0  0  0  0  0
   11.8033  -15.9097   24.2589 C   0  0  0  0  0  0  0  0  0  0  0  0
   12.1133  -16.1822   25.4586 O   0  0  0  0  0  0  0  0  0  0  0  0
   12.6818  -15.0798   23.5946 O   0  0  0  0  0  0  0  0  0  0  0  0
  2  1  1  6
  3  2  1  0
  4  3  1  0
  5  4  1  0
  6  5  1  0
  7  6  1  0
  8  9  2  0
  8  2  1  0
 11 10  1  6
 11 13  1  0
 12 11  1  0
 13 14  1  1
 14  8  1  0
 15 13  1  0
 16 15  2  0
 17 15  1  0
 18 17  1  0
 18 24  1  0
 18 19  1  6
 20 19  1  0
 21 20  1  0
 21 22  1  0
 22 23  1  0
 24 26  1  0
 25 24  2  0
M  END
$$$$
