KTK.pdb
     RDKit          3D

 26 25  0  0  1  0  0  0  0  0999 V2000
   12.1174  -18.0029   16.7958 N   0  0  0  0  0  0  0  0  0  0  0  0
   12.8687  -17.9865   18.0352 C   0  0  1  0  0  0  0  0  0  0  0  0
   14.1653  -17.2557   17.7647 C   0  0  0  0  0  0  0  0  0  0  0  0
   15.2147  -18.2160   17.2022 C   0  0  0  0  0  0  0  0  0  0  0  0
   15.8963  -18.9807   18.2974 C   0  0  0  0  0  0  0  0  0  0  0  0
   17.0157  -19.8593   17.7889 C   0  0  0  0  0  0  0  0  0  0  0  0
   18.1099  -18.9804   17.4151 N   0  0  0  0  0  0  0  0  0  0  0  0
   12.1359  -17.3113   19.1223 C   0  0  0  0  0  0  0  0  0  0  0  0
   12.2315  -16.0497   19.1724 O   0  0  0  0  0  0  0  0  0  0  0  0
    8.4382  -17.5366   19.7648 C   0  0  0  0  0  0  0  0  0  0  0  0
    9.1475  -17.7894   21.0778 C   0  0  1  0  0  0  0  0  0  0  0  0
    9.1995  -19.1381   21.3858 O   0  0  0  0  0  0  0  0  0  0  0  0
   10.5560  -17.1930   20.9924 C   0  0  2  0  0  0  0  0  0  0  0  0
   11.3481  -17.9671   20.0946 N   0  0  0  0  0  0  0  0  0  0  0  0
   11.0828  -17.1986   22.3832 C   0  0  0  0  0  0  0  0  0  0  0  0
   12.0418  -17.9602   22.6608 O   0  0  0  0  0  0  0  0  0  0  0  0
   10.5197  -16.3640   23.3822 N   0  0  0  0  0  0  0  0  0  0  0  0
   10.9782  -16.3711   24.7687 C   0  0  1  0  0  0  0  0  0  0  0  0
   10.1260  -15.4805   25.6167 C   0  0  0  0  0  0  0  0  0  0  0  0
   10.5114  -15.4630   27.0696 C   0  0  0  0  0  0  0  0  0  0  0  0
    9.6579  -14.4646   27.8518 C   0  0  0  0  0  0  0  0  0  0  0  0
   10.0904  -14.3678   29.2745 C   0  0  0  0  0  0  0  0  0  0  0  0
    9.2903  -13.3364   29.9214 N   0  0  0  0  0  0  0  0  0  0  0  0
   10.9500  -17.7673   25.2347 C   0  0  0  0  0  0  0  0  0  0  0  0
   11.9069  -18.1841   25.9559 O   0  0  0  0  0  0  0  0  0  0  0  0
    9.9656  -18.6942   24.9640 O   0  0  0  0  0  0  0  0  0  0  0  0
  2  1  1  6
  3  2  1  0
  4  3  1  0
  5  4  1  0
  6  5  1  0
  7  6  1  0
  8  9  2  0
  8  2  1  0
 11 10  1  6
 11 13  1  0
 12 11  1  0
 13 14  1  6
 14  8  1  0
 15 13  1  0
 16 15  2  0
 17 15  1  0
 18 17  1  0
 18 24  1  0
 18 19  1  1
 20 19  1  0
 21 20  1  0
 21 22  1  0
 22 23  1  0
 24 26  1  0
 25 24  2  0
M  END
$$$$
