KTK.pdb
     RDKit          3D

 26 25  0  0  1  0  0  0  0  0999 V2000
   11.0424  -17.5774   18.7889 N   0  0  0  0  0  0  0  0  0  0  0  0
    9.7346  -17.5246   19.4118 C   0  0  1  0  0  0  0  0  0  0  0  0
    9.4932  -18.8683   20.0635 C   0  0  0  0  0  0  0  0  0  0  0  0
   10.7734  -19.3812   20.7250 C   0  0  0  0  0  0  0  0  0  0  0  0
   10.5798  -20.7545   21.2953 C   0  0  0  0  0  0  0  0  0  0  0  0
   11.8035  -21.2656   22.0198 C   0  0  0  0  0  0  0  0  0  0  0  0
   11.4849  -22.5966   22.5060 N   0  0  0  0  0  0  0  0  0  0  0  0
    9.6427  -16.4576   20.4256 C   0  0  0  0  0  0  0  0  0  0  0  0
   10.7250  -16.1115   20.9843 O   0  0  0  0  0  0  0  0  0  0  0  0
    7.5615  -13.1130   20.1244 C   0  0  0  0  0  0  0  0  0  0  0  0
    7.3470  -13.7619   21.4749 C   0  0  1  0  0  0  0  0  0  0  0  0
    6.1296  -14.4173   21.5458 O   0  0  0  0  0  0  0  0  0  0  0  0
    8.5052  -14.7291   21.7392 C   0  0  2  0  0  0  0  0  0  0  0  0
    8.4482  -15.8074   20.8082 N   0  0  0  0  0  0  0  0  0  0  0  0
    8.3484  -15.1722   23.1501 C   0  0  0  0  0  0  0  0  0  0  0  0
    8.1200  -16.3857   23.3784 O   0  0  0  0  0  0  0  0  0  0  0  0
    8.4530  -14.2500   24.2226 N   0  0  0  0  0  0  0  0  0  0  0  0
    8.4492  -14.6629   25.6234 C   0  0  1  0  0  0  0  0  0  0  0  0
    9.6102  -15.5593   25.9182 C   0  0  0  0  0  0  0  0  0  0  0  0
    9.7456  -15.9325   27.3681 C   0  0  0  0  0  0  0  0  0  0  0  0
   10.9768  -16.8097   27.5964 C   0  0  0  0  0  0  0  0  0  0  0  0
   11.0636  -17.2784   29.0082 C   0  0  0  0  0  0  0  0  0  0  0  0
   12.1417  -18.2543   29.0953 N   0  0  0  0  0  0  0  0  0  0  0  0
    8.4752  -13.4402   26.4429 C   0  0  0  0  0  0  0  0  0  0  0  0
    9.1208  -12.4365   26.0124 O   0  0  0  0  0  0  0  0  0  0  0  0
    7.8534  -13.2656   27.6613 O   0  0  0  0  0  0  0  0  0  0  0  0
  2  1  1  1
  3  2  1  0
  4  3  1  0
  5  4  1  0
  6  5  1  0
  7  6  1  0
  8  9  2  0
  8  2  1  0
 11 10  1  6
 11 13  1  0
 12 11  1  0
 13 14  1  6
 14  8  1  0
 15 13  1  0
 16 15  2  0
 17 15  1  0
 18 17  1  0
 18 24  1  0
 18 19  1  6
 20 19  1  0
 21 20  1  0
 21 22  1  0
 22 23  1  0
 24 26  1  0
 25 24  2  0
M  END
$$$$
