PFK.pdb
     RDKit          3D

 28 29  0  0  1  0  0  0  0  0999 V2000
    7.2422  -15.2988   20.2840 N   0  0  0  0  0  0  0  0  0  0  0  0
    6.4651  -14.0509   20.2252 C   0  0  0  0  0  0  0  0  0  0  0  0
    7.2271  -13.3079   19.1506 C   0  0  0  0  0  0  0  0  0  0  0  0
    8.6592  -13.5320   19.5881 C   0  0  0  0  0  0  0  0  0  0  0  0
    8.6016  -14.8619   20.2941 C   0  0  1  0  0  0  0  0  0  0  0  0
    9.0762  -14.7719   21.6952 C   0  0  0  0  0  0  0  0  0  0  0  0
   10.2874  -14.5505   21.9061 O   0  0  0  0  0  0  0  0  0  0  0  0
    8.2203  -14.9250   22.8111 N   0  0  0  0  0  0  0  0  0  0  0  0
    8.6645  -14.9348   24.1947 C   0  0  1  0  0  0  0  0  0  0  0  0
    7.6453  -14.3535   25.1181 C   0  0  0  0  0  0  0  0  0  0  0  0
    8.1703  -14.1627   26.4879 C   0  0  0  0  0  0  0  0  0  0  0  0
    8.2611  -15.1599   27.4329 C   0  0  0  0  0  0  0  0  0  0  0  0
    8.7652  -14.8938   28.6760 C   0  0  0  0  0  0  0  0  0  0  0  0
    9.1917  -13.6241   29.0069 C   0  0  0  0  0  0  0  0  0  0  0  0
    9.1087  -12.6088   28.0722 C   0  0  0  0  0  0  0  0  0  0  0  0
    8.6011  -12.8885   26.8286 C   0  0  0  0  0  0  0  0  0  0  0  0
    9.1025  -16.3120   24.5714 C   0  0  0  0  0  0  0  0  0  0  0  0
    8.3639  -17.3179   24.4327 O   0  0  0  0  0  0  0  0  0  0  0  0
   10.3877  -16.5350   25.1071 N   0  0  0  0  0  0  0  0  0  0  0  0
   10.8636  -17.9532   25.3743 C   0  0  1  0  0  0  0  0  0  0  0  0
   11.9894  -18.0752   24.4289 C   0  0  0  0  0  0  0  0  0  0  0  0
   12.5159  -19.3584   23.9872 C   0  0  0  0  0  0  0  0  0  0  0  0
   13.5656  -19.3565   22.9569 C   0  0  0  0  0  0  0  0  0  0  0  0
   13.8735  -20.8206   22.5124 C   0  0  0  0  0  0  0  0  0  0  0  0
   14.8947  -20.6946   21.4886 N   0  0  0  0  0  0  0  0  0  0  0  0
   11.2106  -17.9198   26.8246 C   0  0  0  0  0  0  0  0  0  0  0  0
   11.4195  -16.7806   27.3819 O   0  0  0  0  0  0  0  0  0  0  0  0
   11.3208  -19.0222   27.6310 O   0  0  0  0  0  0  0  0  0  0  0  0
  1  5  1  0
  2  3  1  0
  2  1  1  0
  3  4  1  0
  4  5  1  0
  5  6  1  1
  6  7  2  0
  8  6  1  0
  8  9  1  0
  9 17  1  0
 10 11  1  0
  9 10  1  1
 11 12  2  0
 12 13  1  0
 14 13  2  0
 15 14  1  0
 16 11  1  0
 16 15  2  0
 17 18  2  0
 19 17  1  0
 19 20  1  0
 20 26  1  0
 20 21  1  6
 22 21  1  0
 23 22  1  0
 24 23  1  0
 24 25  1  0
 26 27  2  0
 26 28  1  0
M  END
$$$$
