PFK.pdb
     RDKit          3D

 28 29  0  0  1  0  0  0  0  0999 V2000
    7.0985  -15.0303   20.4442 N   0  0  0  0  0  0  0  0  0  0  0  0
    6.2860  -13.8156   20.6141 C   0  0  0  0  0  0  0  0  0  0  0  0
    7.0653  -12.8461   19.7538 C   0  0  0  0  0  0  0  0  0  0  0  0
    8.4858  -13.1255   20.1974 C   0  0  0  0  0  0  0  0  0  0  0  0
    8.4424  -14.5753   20.6057 C   0  0  1  0  0  0  0  0  0  0  0  0
    8.8596  -14.7720   22.0140 C   0  0  0  0  0  0  0  0  0  0  0  0
   10.0216  -14.4554   22.3461 O   0  0  0  0  0  0  0  0  0  0  0  0
    8.0021  -15.3033   23.0059 N   0  0  0  0  0  0  0  0  0  0  0  0
    8.3877  -15.5412   24.3866 C   0  0  1  0  0  0  0  0  0  0  0  0
    7.2466  -15.3531   25.3310 C   0  0  0  0  0  0  0  0  0  0  0  0
    6.9588  -13.9252   25.5890 C   0  0  0  0  0  0  0  0  0  0  0  0
    5.8513  -13.2566   25.1178 C   0  0  0  0  0  0  0  0  0  0  0  0
    5.6628  -11.9340   25.4104 C   0  0  0  0  0  0  0  0  0  0  0  0
    6.5765  -11.2453   26.1813 C   0  0  0  0  0  0  0  0  0  0  0  0
    7.6954  -11.8985   26.6639 C   0  0  0  0  0  0  0  0  0  0  0  0
    7.8730  -13.2254   26.3636 C   0  0  0  0  0  0  0  0  0  0  0  0
    9.0496  -16.8752   24.5000 C   0  0  0  0  0  0  0  0  0  0  0  0
    8.4850  -17.9416   24.1526 O   0  0  0  0  0  0  0  0  0  0  0  0
   10.3589  -16.9856   25.0119 N   0  0  0  0  0  0  0  0  0  0  0  0
   10.9995  -18.3544   25.1703 C   0  0  1  0  0  0  0  0  0  0  0  0
   12.2494  -18.1912   24.4039 C   0  0  0  0  0  0  0  0  0  0  0  0
   13.3149  -19.1829   24.4080 C   0  0  0  0  0  0  0  0  0  0  0  0
   14.5405  -18.8829   23.6522 C   0  0  0  0  0  0  0  0  0  0  0  0
   15.4853  -20.1253   23.6612 C   0  0  0  0  0  0  0  0  0  0  0  0
   16.5562  -19.7884   22.7411 N   0  0  0  0  0  0  0  0  0  0  0  0
   11.1365  -18.4883   26.6496 C   0  0  0  0  0  0  0  0  0  0  0  0
   11.5177  -19.6166   27.1332 O   0  0  0  0  0  0  0  0  0  0  0  0
   10.8925  -17.4886   27.5543 O   0  0  0  0  0  0  0  0  0  0  0  0
  1  5  1  0
  2  3  1  0
  2  1  1  0
  3  4  1  0
  4  5  1  0
  5  6  1  1
  6  7  2  0
  8  6  1  0
  8  9  1  0
  9 17  1  0
 10 11  1  0
  9 10  1  1
 11 12  2  0
 12 13  1  0
 14 13  2  0
 15 14  1  0
 16 11  1  0
 16 15  2  0
 17 18  2  0
 19 17  1  0
 19 20  1  0
 20 26  1  0
 20 21  1  6
 22 21  1  0
 23 22  1  0
 24 23  1  0
 24 25  1  0
 26 27  2  0
 26 28  1  0
M  END
$$$$
