PFK.pdb
     RDKit          3D

 28 29  0  0  1  0  0  0  0  0999 V2000
    7.7957  -15.6124   19.7460 N   0  0  0  0  0  0  0  0  0  0  0  0
    7.0202  -14.4718   19.2338 C   0  0  0  0  0  0  0  0  0  0  0  0
    8.0345  -13.8535   18.2976 C   0  0  0  0  0  0  0  0  0  0  0  0
    9.2814  -13.8634   19.1565 C   0  0  0  0  0  0  0  0  0  0  0  0
    9.0724  -15.0534   20.0568 C   0  0  1  0  0  0  0  0  0  0  0  0
    9.1079  -14.6821   21.4911 C   0  0  0  0  0  0  0  0  0  0  0  0
   10.1660  -14.2171   21.9651 O   0  0  0  0  0  0  0  0  0  0  0  0
    7.9966  -14.8292   22.3540 N   0  0  0  0  0  0  0  0  0  0  0  0
    7.9418  -14.3322   23.7184 C   0  0  1  0  0  0  0  0  0  0  0  0
    6.7357  -13.4864   23.9623 C   0  0  0  0  0  0  0  0  0  0  0  0
    6.8113  -12.7547   25.2457 C   0  0  0  0  0  0  0  0  0  0  0  0
    7.7759  -11.8222   25.5548 C   0  0  0  0  0  0  0  0  0  0  0  0
    7.7659  -11.1893   26.7670 C   0  0  0  0  0  0  0  0  0  0  0  0
    6.7915  -11.4721   27.7020 C   0  0  0  0  0  0  0  0  0  0  0  0
    5.8140  -12.4056   27.4111 C   0  0  0  0  0  0  0  0  0  0  0  0
    5.8350  -13.0336   26.1915 C   0  0  0  0  0  0  0  0  0  0  0  0
    8.0812  -15.4719   24.6735 C   0  0  0  0  0  0  0  0  0  0  0  0
    7.7827  -15.3753   25.8893 O   0  0  0  0  0  0  0  0  0  0  0  0
    8.5629  -16.7221   24.2337 N   0  0  0  0  0  0  0  0  0  0  0  0
    8.6541  -17.8859   25.2066 C   0  0  1  0  0  0  0  0  0  0  0  0
    8.3528  -19.0339   24.3305 C   0  0  0  0  0  0  0  0  0  0  0  0
    7.0271  -19.6266   24.2314 C   0  0  0  0  0  0  0  0  0  0  0  0
    6.9330  -21.0862   24.0756 C   0  0  0  0  0  0  0  0  0  0  0  0
    5.4339  -21.5195   24.0428 C   0  0  0  0  0  0  0  0  0  0  0  0
    5.4598  -22.9348   23.7218 N   0  0  0  0  0  0  0  0  0  0  0  0
   10.0522  -17.7844   25.7164 C   0  0  0  0  0  0  0  0  0  0  0  0
   10.9081  -17.1079   25.0366 O   0  0  0  0  0  0  0  0  0  0  0  0
   10.5089  -18.3563   26.8747 O   0  0  0  0  0  0  0  0  0  0  0  0
  1  5  1  0
  2  3  1  0
  2  1  1  0
  3  4  1  0
  4  5  1  0
  5  6  1  1
  6  7  2  0
  8  6  1  0
  8  9  1  0
  9 17  1  0
 10 11  1  0
  9 10  1  1
 11 12  2  0
 12 13  1  0
 14 13  2  0
 15 14  1  0
 16 11  1  0
 16 15  2  0
 17 18  2  0
 19 17  1  0
 19 20  1  0
 20 26  1  0
 20 21  1  6
 22 21  1  0
 23 22  1  0
 24 23  1  0
 24 25  1  0
 26 27  2  0
 26 28  1  0
M  END
$$$$
