PFK.pdb
     RDKit          3D

 28 29  0  0  1  0  0  0  0  0999 V2000
    7.7472  -15.3538   19.2795 N   0  0  0  0  0  0  0  0  0  0  0  0
    6.9420  -14.1974   18.8566 C   0  0  0  0  0  0  0  0  0  0  0  0
    7.9030  -13.5360   17.8940 C   0  0  0  0  0  0  0  0  0  0  0  0
    9.1940  -13.5744   18.6842 C   0  0  0  0  0  0  0  0  0  0  0  0
    9.0370  -14.8014   19.5447 C   0  0  1  0  0  0  0  0  0  0  0  0
    9.1478  -14.4888   20.9891 C   0  0  0  0  0  0  0  0  0  0  0  0
   10.2664  -14.1823   21.4532 O   0  0  0  0  0  0  0  0  0  0  0  0
    8.0433  -14.5207   21.8725 N   0  0  0  0  0  0  0  0  0  0  0  0
    8.1288  -14.3010   23.3063 C   0  0  1  0  0  0  0  0  0  0  0  0
    7.0154  -13.4447   23.8128 C   0  0  0  0  0  0  0  0  0  0  0  0
    7.1714  -13.1070   25.2446 C   0  0  0  0  0  0  0  0  0  0  0  0
    6.5328  -13.7623   26.2733 C   0  0  0  0  0  0  0  0  0  0  0  0
    6.7404  -13.3847   27.5712 C   0  0  0  0  0  0  0  0  0  0  0  0
    7.5915  -12.3421   27.8747 C   0  0  0  0  0  0  0  0  0  0  0  0
    8.2423  -11.6710   26.8560 C   0  0  0  0  0  0  0  0  0  0  0  0
    8.0257  -12.0594   25.5581 C   0  0  0  0  0  0  0  0  0  0  0  0
    8.2466  -15.6136   24.0090 C   0  0  0  0  0  0  0  0  0  0  0  0
    7.4119  -16.5392   23.8565 O   0  0  0  0  0  0  0  0  0  0  0  0
    9.3217  -15.8641   24.8865 N   0  0  0  0  0  0  0  0  0  0  0  0
    9.4760  -17.2334   25.5271 C   0  0  1  0  0  0  0  0  0  0  0  0
   10.5536  -17.8261   24.7123 C   0  0  0  0  0  0  0  0  0  0  0  0
   10.4056  -19.0884   24.0028 C   0  0  0  0  0  0  0  0  0  0  0  0
   11.5348  -19.5578   23.1855 C   0  0  0  0  0  0  0  0  0  0  0  0
   11.1329  -20.8609   22.4261 C   0  0  0  0  0  0  0  0  0  0  0  0
   12.2884  -21.1920   21.6125 N   0  0  0  0  0  0  0  0  0  0  0  0
    9.8140  -16.9025   26.9417 C   0  0  0  0  0  0  0  0  0  0  0  0
   10.3021  -15.7426   27.2033 O   0  0  0  0  0  0  0  0  0  0  0  0
    9.6379  -17.7444   28.0084 O   0  0  0  0  0  0  0  0  0  0  0  0
  1  5  1  0
  2  3  1  0
  2  1  1  0
  3  4  1  0
  4  5  1  0
  5  6  1  1
  6  7  2  0
  8  6  1  0
  8  9  1  0
  9 17  1  0
 10 11  1  0
  9 10  1  1
 11 12  2  0
 12 13  1  0
 14 13  2  0
 15 14  1  0
 16 11  1  0
 16 15  2  0
 17 18  2  0
 19 17  1  0
 19 20  1  0
 20 26  1  0
 20 21  1  6
 22 21  1  0
 23 22  1  0
 24 23  1  0
 24 25  1  0
 26 27  2  0
 26 28  1  0
M  END
$$$$
