PFK.pdb
     RDKit          3D

 28 29  0  0  1  0  0  0  0  0999 V2000
    7.8961  -16.1885   20.1747 N   0  0  0  0  0  0  0  0  0  0  0  0
    7.0656  -15.1669   19.5180 C   0  0  0  0  0  0  0  0  0  0  0  0
    8.0753  -14.5702   18.5630 C   0  0  0  0  0  0  0  0  0  0  0  0
    9.2788  -14.3997   19.4659 C   0  0  0  0  0  0  0  0  0  0  0  0
    9.1139  -15.5062   20.4754 C   0  0  1  0  0  0  0  0  0  0  0  0
    9.0565  -14.9917   21.8640 C   0  0  0  0  0  0  0  0  0  0  0  0
   10.0589  -14.4108   22.3313 O   0  0  0  0  0  0  0  0  0  0  0  0
    7.9164  -15.1269   22.6905 N   0  0  0  0  0  0  0  0  0  0  0  0
    7.7953  -14.5654   24.0253 C   0  0  1  0  0  0  0  0  0  0  0  0
    6.5901  -13.6949   24.1635 C   0  0  0  0  0  0  0  0  0  0  0  0
    6.5568  -12.9807   25.4585 C   0  0  0  0  0  0  0  0  0  0  0  0
    7.5604  -12.1592   25.9207 C   0  0  0  0  0  0  0  0  0  0  0  0
    7.4426  -11.5337   27.1311 C   0  0  0  0  0  0  0  0  0  0  0  0
    6.3188  -11.7130   27.9111 C   0  0  0  0  0  0  0  0  0  0  0  0
    5.2998  -12.5341   27.4650 C   0  0  0  0  0  0  0  0  0  0  0  0
    5.4299  -13.1559   26.2490 C   0  0  0  0  0  0  0  0  0  0  0  0
    7.8669  -15.6601   25.0387 C   0  0  0  0  0  0  0  0  0  0  0  0
    7.8467  -15.4395   26.2746 O   0  0  0  0  0  0  0  0  0  0  0  0
    7.9615  -17.0077   24.6341 N   0  0  0  0  0  0  0  0  0  0  0  0
    8.1670  -18.0993   25.6709 C   0  0  1  0  0  0  0  0  0  0  0  0
    7.8308  -19.3118   24.9008 C   0  0  0  0  0  0  0  0  0  0  0  0
    6.5912  -19.4543   24.1512 C   0  0  0  0  0  0  0  0  0  0  0  0
    6.4134  -20.6645   23.3343 C   0  0  0  0  0  0  0  0  0  0  0  0
    5.0906  -20.5587   22.5126 C   0  0  0  0  0  0  0  0  0  0  0  0
    5.0218  -21.7933   21.7524 N   0  0  0  0  0  0  0  0  0  0  0  0
    9.5981  -17.9281   26.0550 C   0  0  0  0  0  0  0  0  0  0  0  0
   10.0143  -18.4765   27.1405 O   0  0  0  0  0  0  0  0  0  0  0  0
   10.5269  -17.2280   25.3307 O   0  0  0  0  0  0  0  0  0  0  0  0
  1  5  1  0
  2  3  1  0
  2  1  1  0
  3  4  1  0
  4  5  1  0
  5  6  1  1
  6  7  2  0
  8  6  1  0
  8  9  1  0
  9 17  1  0
 10 11  1  0
  9 10  1  6
 11 12  2  0
 12 13  1  0
 14 13  2  0
 15 14  1  0
 16 11  1  0
 16 15  2  0
 17 18  2  0
 19 17  1  0
 19 20  1  0
 20 26  1  0
 20 21  1  6
 22 21  1  0
 23 22  1  0
 24 23  1  0
 24 25  1  0
 26 27  2  0
 26 28  1  0
M  END
$$$$
