PFK.pdb
     RDKit          3D

 28 29  0  0  1  0  0  0  0  0999 V2000
    7.4028  -15.3701   19.3120 N   0  0  0  0  0  0  0  0  0  0  0  0
    6.5809  -14.1907   18.9989 C   0  0  0  0  0  0  0  0  0  0  0  0
    7.4890  -13.4801   18.0202 C   0  0  0  0  0  0  0  0  0  0  0  0
    8.8227  -13.5641   18.7322 C   0  0  0  0  0  0  0  0  0  0  0  0
    8.7085  -14.8356   19.5327 C   0  0  1  0  0  0  0  0  0  0  0  0
    8.9028  -14.6021   20.9832 C   0  0  0  0  0  0  0  0  0  0  0  0
   10.0420  -14.2968   21.3951 O   0  0  0  0  0  0  0  0  0  0  0  0
    7.8562  -14.7086   21.9290 N   0  0  0  0  0  0  0  0  0  0  0  0
    8.0146  -14.5057   23.3591 C   0  0  1  0  0  0  0  0  0  0  0  0
    6.8168  -13.8592   23.9729 C   0  0  0  0  0  0  0  0  0  0  0  0
    7.0848  -13.3591   25.3390 C   0  0  0  0  0  0  0  0  0  0  0  0
    7.6364  -12.1302   25.6241 C   0  0  0  0  0  0  0  0  0  0  0  0
    7.8449  -11.7472   26.9203 C   0  0  0  0  0  0  0  0  0  0  0  0
    7.5078  -12.5826   27.9653 C   0  0  0  0  0  0  0  0  0  0  0  0
    6.9529  -13.8209   27.7001 C   0  0  0  0  0  0  0  0  0  0  0  0
    6.7487  -14.1934   26.3956 C   0  0  0  0  0  0  0  0  0  0  0  0
    8.4032  -15.7932   24.0086 C   0  0  0  0  0  0  0  0  0  0  0  0
    7.7244  -16.8427   23.8886 O   0  0  0  0  0  0  0  0  0  0  0  0
    9.5704  -15.8765   24.7956 N   0  0  0  0  0  0  0  0  0  0  0  0
   10.0523  -17.2269   25.2988 C   0  0  1  0  0  0  0  0  0  0  0  0
   11.4533  -17.2368   24.8368 C   0  0  0  0  0  0  0  0  0  0  0  0
   11.8248  -17.4220   23.4416 C   0  0  0  0  0  0  0  0  0  0  0  0
   13.2550  -17.3998   23.0990 C   0  0  0  0  0  0  0  0  0  0  0  0
   13.4308  -17.5223   21.5529 C   0  0  0  0  0  0  0  0  0  0  0  0
   14.8642  -17.4610   21.3327 N   0  0  0  0  0  0  0  0  0  0  0  0
    9.8359  -17.1297   26.7714 C   0  0  0  0  0  0  0  0  0  0  0  0
    9.6496  -15.9691   27.2913 O   0  0  0  0  0  0  0  0  0  0  0  0
    9.8111  -18.1947   27.6332 O   0  0  0  0  0  0  0  0  0  0  0  0
  1  5  1  0
  2  3  1  0
  2  1  1  0
  3  4  1  0
  4  5  1  0
  5  6  1  1
  6  7  2  0
  8  6  1  0
  8  9  1  0
  9 17  1  0
 10 11  1  0
  9 10  1  1
 11 12  2  0
 12 13  1  0
 14 13  2  0
 15 14  1  0
 16 11  1  0
 16 15  2  0
 17 18  2  0
 19 17  1  0
 19 20  1  0
 20 26  1  0
 20 21  1  1
 22 21  1  0
 23 22  1  0
 24 23  1  0
 24 25  1  0
 26 27  2  0
 26 28  1  0
M  END
$$$$
