MKK.pdb
     RDKit          3D

 27 26  0  0  1  0  0  0  0  0999 V2000
    7.8682  -12.0099   18.9495 C   0  0  0  0  0  0  0  0  0  0  0  0
    8.1386  -12.7144   20.5743 S   0  0  0  0  0  0  0  0  0  0  0  0
    6.8603  -13.8767   21.0667 C   0  0  0  0  0  0  0  0  0  0  0  0
    7.3946  -15.2759   21.2586 C   0  0  0  0  0  0  0  0  0  0  0  0
    8.8844  -15.2900   21.4829 C   0  0  2  0  0  0  0  0  0  0  0  0
    9.6122  -14.9908   20.2908 N   0  0  0  0  0  0  0  0  0  0  0  0
    9.3506  -16.5673   22.0837 C   0  0  0  0  0  0  0  0  0  0  0  0
    8.7311  -17.0341   23.0861 O   0  0  0  0  0  0  0  0  0  0  0  0
   10.4517  -17.2988   21.6010 N   0  0  0  0  0  0  0  0  0  0  0  0
   10.8898  -18.5799   22.1667 C   0  0  1  0  0  0  0  0  0  0  0  0
   11.5762  -19.4055   21.1168 C   0  0  0  0  0  0  0  0  0  0  0  0
   10.6149  -19.8018   20.0444 C   0  0  0  0  0  0  0  0  0  0  0  0
   11.3225  -20.4410   18.8856 C   0  0  0  0  0  0  0  0  0  0  0  0
   10.3117  -20.7629   17.8095 C   0  0  0  0  0  0  0  0  0  0  0  0
   11.0324  -21.3663   16.7118 N   0  0  0  0  0  0  0  0  0  0  0  0
   11.7309  -18.2885   23.3554 C   0  0  0  0  0  0  0  0  0  0  0  0
   12.6000  -17.3837   23.4151 O   0  0  0  0  0  0  0  0  0  0  0  0
   11.5957  -19.0594   24.5657 N   0  0  0  0  0  0  0  0  0  0  0  0
   12.4154  -18.7959   25.7237 C   0  0  1  0  0  0  0  0  0  0  0  0
   11.8625  -19.4409   26.9819 C   0  0  0  0  0  0  0  0  0  0  0  0
   12.8111  -19.2103   28.1137 C   0  0  0  0  0  0  0  0  0  0  0  0
   12.3426  -19.9495   29.3309 C   0  0  0  0  0  0  0  0  0  0  0  0
   13.3118  -19.7807   30.4513 C   0  0  0  0  0  0  0  0  0  0  0  0
   12.8183  -20.4679   31.6555 N   0  0  0  0  0  0  0  0  0  0  0  0
   13.8045  -19.2162   25.4358 C   0  0  0  0  0  0  0  0  0  0  0  0
   14.0641  -20.2970   24.8359 O   0  0  0  0  0  0  0  0  0  0  0  0
   14.8888  -18.4320   25.8172 O   0  0  0  0  0  0  0  0  0  0  0  0
  1  2  1  0
  3  4  1  0
  3  2  1  0
  4  5  1  0
  5  6  1  6
  7  5  1  0
  7  8  2  0
  9  7  1  0
 10 11  1  6
 10  9  1  0
 12 13  1  0
 12 11  1  0
 13 14  1  0
 14 15  1  0
 16 10  1  0
 17 16  2  0
 18 16  1  0
 19 18  1  0
 19 20  1  1
 21 20  1  0
 21 22  1  0
 23 22  1  0
 23 24  1  0
 25 19  1  0
 25 27  1  0
 26 25  2  0
M  END
$$$$
