MKK.pdb
     RDKit          3D

 27 26  0  0  1  0  0  0  0  0999 V2000
    7.2697  -12.0025   27.3561 C   0  0  0  0  0  0  0  0  0  0  0  0
    5.6257  -12.1419   26.6581 S   0  0  0  0  0  0  0  0  0  0  0  0
    5.5142  -13.3566   25.3392 C   0  0  0  0  0  0  0  0  0  0  0  0
    5.4976  -14.7741   25.8594 C   0  0  0  0  0  0  0  0  0  0  0  0
    6.7626  -15.5190   25.5208 C   0  0  2  0  0  0  0  0  0  0  0  0
    7.9053  -14.9673   26.1766 N   0  0  0  0  0  0  0  0  0  0  0  0
    6.9850  -15.6120   24.0539 C   0  0  0  0  0  0  0  0  0  0  0  0
    6.3689  -16.5037   23.3969 O   0  0  0  0  0  0  0  0  0  0  0  0
    7.8489  -14.7595   23.3417 N   0  0  0  0  0  0  0  0  0  0  0  0
    8.3676  -15.0594   22.0022 C   0  0  1  0  0  0  0  0  0  0  0  0
    8.3880  -13.8157   21.1609 C   0  0  0  0  0  0  0  0  0  0  0  0
    8.8551  -14.1225   19.7757 C   0  0  0  0  0  0  0  0  0  0  0  0
    7.9712  -13.4809   18.7466 C   0  0  0  0  0  0  0  0  0  0  0  0
    8.4304  -13.9053   17.3709 C   0  0  0  0  0  0  0  0  0  0  0  0
    7.4769  -13.3803   16.4203 N   0  0  0  0  0  0  0  0  0  0  0  0
    9.6952  -15.7054   22.1625 C   0  0  0  0  0  0  0  0  0  0  0  0
   10.5223  -15.8853   21.2347 O   0  0  0  0  0  0  0  0  0  0  0  0
   10.1347  -16.1863   23.4482 N   0  0  0  0  0  0  0  0  0  0  0  0
   11.4652  -16.7100   23.6434 C   0  0  1  0  0  0  0  0  0  0  0  0
   11.6751  -17.2451   25.0485 C   0  0  0  0  0  0  0  0  0  0  0  0
   11.4453  -16.1466   26.0356 C   0  0  0  0  0  0  0  0  0  0  0  0
   11.5958  -16.6743   27.4307 C   0  0  0  0  0  0  0  0  0  0  0  0
   11.2595  -15.6189   28.4288 C   0  0  0  0  0  0  0  0  0  0  0  0
   11.2499  -16.1896   29.7853 N   0  0  0  0  0  0  0  0  0  0  0  0
   11.7396  -17.7265   22.6039 C   0  0  0  0  0  0  0  0  0  0  0  0
   10.8331  -18.4816   22.1529 O   0  0  0  0  0  0  0  0  0  0  0  0
   13.0168  -17.8926   22.0773 O   0  0  0  0  0  0  0  0  0  0  0  0
  1  2  1  0
  3  4  1  0
  3  2  1  0
  4  5  1  0
  5  6  1  1
  7  5  1  0
  7  8  2  0
  9  7  1  0
 10 11  1  6
 10  9  1  0
 12 13  1  0
 12 11  1  0
 13 14  1  0
 14 15  1  0
 16 10  1  0
 17 16  2  0
 18 16  1  0
 19 18  1  0
 19 20  1  1
 21 20  1  0
 21 22  1  0
 23 22  1  0
 23 24  1  0
 25 19  1  0
 25 27  1  0
 26 25  2  0
M  END
$$$$
