MKK.pdb
     RDKit          3D

 27 26  0  0  1  0  0  0  0  0999 V2000
    5.9346  -11.7638   26.1361 C   0  0  0  0  0  0  0  0  0  0  0  0
    6.3401  -12.9818   27.3856 S   0  0  0  0  0  0  0  0  0  0  0  0
    6.7947  -14.5789   26.7001 C   0  0  0  0  0  0  0  0  0  0  0  0
    5.9248  -14.9745   25.5309 C   0  0  0  0  0  0  0  0  0  0  0  0
    6.2942  -16.3268   24.9790 C   0  0  2  0  0  0  0  0  0  0  0  0
    6.5533  -17.2785   26.0121 N   0  0  0  0  0  0  0  0  0  0  0  0
    7.4329  -16.2535   24.0262 C   0  0  0  0  0  0  0  0  0  0  0  0
    8.2717  -17.2032   24.0011 O   0  0  0  0  0  0  0  0  0  0  0  0
    7.6385  -15.1803   23.1394 N   0  0  0  0  0  0  0  0  0  0  0  0
    8.6910  -15.1583   22.1173 C   0  0  1  0  0  0  0  0  0  0  0  0
    8.5004  -13.9860   21.1983 C   0  0  0  0  0  0  0  0  0  0  0  0
    8.0455  -14.4402   19.8500 C   0  0  0  0  0  0  0  0  0  0  0  0
    8.2219  -13.3613   18.8219 C   0  0  0  0  0  0  0  0  0  0  0  0
    7.6667  -13.8444   17.5023 C   0  0  0  0  0  0  0  0  0  0  0  0
    7.8593  -12.7818   16.5419 N   0  0  0  0  0  0  0  0  0  0  0  0
   10.0024  -15.1761   22.8141 C   0  0  0  0  0  0  0  0  0  0  0  0
   10.2175  -14.6878   23.9510 O   0  0  0  0  0  0  0  0  0  0  0  0
   11.1585  -15.7811   22.2018 N   0  0  0  0  0  0  0  0  0  0  0  0
   12.2369  -16.3204   22.9947 C   0  0  1  0  0  0  0  0  0  0  0  0
   11.8185  -17.5517   23.7780 C   0  0  0  0  0  0  0  0  0  0  0  0
   12.9973  -18.0871   24.5247 C   0  0  0  0  0  0  0  0  0  0  0  0
   12.5707  -19.2226   25.4057 C   0  0  0  0  0  0  0  0  0  0  0  0
   13.7268  -19.7355   26.1954 C   0  0  0  0  0  0  0  0  0  0  0  0
   13.2759  -20.7719   27.1379 N   0  0  0  0  0  0  0  0  0  0  0  0
   13.3991  -16.5768   22.1157 C   0  0  0  0  0  0  0  0  0  0  0  0
   14.5841  -16.5539   22.5522 O   0  0  0  0  0  0  0  0  0  0  0  0
   13.2321  -16.8556   20.7627 O   0  0  0  0  0  0  0  0  0  0  0  0
  1  2  1  0
  3  4  1  0
  3  2  1  0
  4  5  1  0
  5  6  1  1
  7  5  1  0
  7  8  2  0
  9  7  1  0
 10 11  1  1
 10  9  1  0
 12 13  1  0
 12 11  1  0
 13 14  1  0
 14 15  1  0
 16 10  1  0
 17 16  2  0
 18 16  1  0
 19 18  1  0
 19 20  1  6
 21 20  1  0
 21 22  1  0
 23 22  1  0
 23 24  1  0
 25 19  1  0
 25 27  1  0
 26 25  2  0
M  END
$$$$
