MKK.pdb
     RDKit          3D

 27 26  0  0  1  0  0  0  0  0999 V2000
    5.3881  -11.9920   26.4626 C   0  0  0  0  0  0  0  0  0  0  0  0
    6.6647  -12.9948   27.2201 S   0  0  0  0  0  0  0  0  0  0  0  0
    6.8635  -14.6008   26.4399 C   0  0  0  0  0  0  0  0  0  0  0  0
    5.7438  -14.9181   25.4776 C   0  0  0  0  0  0  0  0  0  0  0  0
    5.9312  -16.2544   24.8077 C   0  0  2  0  0  0  0  0  0  0  0  0
    6.2020  -17.2956   25.7474 N   0  0  0  0  0  0  0  0  0  0  0  0
    6.9727  -16.2111   23.7478 C   0  0  0  0  0  0  0  0  0  0  0  0
    7.7407  -17.2090   23.6036 O   0  0  0  0  0  0  0  0  0  0  0  0
    7.1600  -15.1159   22.8843 N   0  0  0  0  0  0  0  0  0  0  0  0
    8.0880  -15.1240   21.7477 C   0  0  1  0  0  0  0  0  0  0  0  0
    7.9453  -13.8600   20.9495 C   0  0  0  0  0  0  0  0  0  0  0  0
    8.7961  -13.9109   19.7228 C   0  0  0  0  0  0  0  0  0  0  0  0
    8.0096  -13.5484   18.4973 C   0  0  0  0  0  0  0  0  0  0  0  0
    8.7465  -14.0458   17.2754 C   0  0  0  0  0  0  0  0  0  0  0  0
    8.0468  -13.5383   16.1173 N   0  0  0  0  0  0  0  0  0  0  0  0
    9.4556  -15.3554   22.2785 C   0  0  0  0  0  0  0  0  0  0  0  0
   10.5012  -15.3764   21.5830 O   0  0  0  0  0  0  0  0  0  0  0  0
    9.6762  -15.5797   23.6851 N   0  0  0  0  0  0  0  0  0  0  0  0
   10.9928  -15.8548   24.2079 C   0  0  1  0  0  0  0  0  0  0  0  0
   10.9475  -16.4513   25.6032 C   0  0  0  0  0  0  0  0  0  0  0  0
   12.3413  -16.7152   26.0738 C   0  0  0  0  0  0  0  0  0  0  0  0
   12.3130  -17.2775   27.4632 C   0  0  0  0  0  0  0  0  0  0  0  0
   13.6981  -17.5303   27.9540 C   0  0  0  0  0  0  0  0  0  0  0  0
   13.6578  -18.1194   29.3020 N   0  0  0  0  0  0  0  0  0  0  0  0
   11.7218  -16.7137   23.2486 C   0  0  0  0  0  0  0  0  0  0  0  0
   11.2050  -17.7584   22.7618 O   0  0  0  0  0  0  0  0  0  0  0  0
   13.0154  -16.4029   22.8413 O   0  0  0  0  0  0  0  0  0  0  0  0
  1  2  1  0
  3  4  1  0
  3  2  1  0
  4  5  1  0
  5  6  1  1
  7  5  1  0
  7  8  2  0
  9  7  1  0
 10 11  1  1
 10  9  1  0
 12 13  1  0
 12 11  1  0
 13 14  1  0
 14 15  1  0
 16 10  1  0
 17 16  2  0
 18 16  1  0
 19 18  1  0
 19 20  1  1
 21 20  1  0
 21 22  1  0
 23 22  1  0
 23 24  1  0
 25 19  1  0
 25 27  1  0
 26 25  2  0
M  END
$$$$
