MKK.pdb
     RDKit          3D

 27 26  0  0  1  0  0  0  0  0999 V2000
    7.2435  -11.0197   26.7383 C   0  0  0  0  0  0  0  0  0  0  0  0
    7.5317  -12.4596   27.7644 S   0  0  0  0  0  0  0  0  0  0  0  0
    6.8217  -13.9661   27.0907 C   0  0  0  0  0  0  0  0  0  0  0  0
    7.4065  -14.3295   25.7467 C   0  0  0  0  0  0  0  0  0  0  0  0
    6.7295  -15.5296   25.1376 C   0  0  2  0  0  0  0  0  0  0  0  0
    6.6803  -16.6365   26.0391 N   0  0  0  0  0  0  0  0  0  0  0  0
    7.3440  -15.9254   23.8432 C   0  0  0  0  0  0  0  0  0  0  0  0
    7.6138  -17.1474   23.6423 O   0  0  0  0  0  0  0  0  0  0  0  0
    7.6483  -15.0144   22.8147 N   0  0  0  0  0  0  0  0  0  0  0  0
    7.8893  -15.4088   21.4220 C   0  0  1  0  0  0  0  0  0  0  0  0
    7.6971  -14.2337   20.5070 C   0  0  0  0  0  0  0  0  0  0  0  0
    8.0155  -14.6054   19.0958 C   0  0  0  0  0  0  0  0  0  0  0  0
    7.9197  -13.4179   18.1833 C   0  0  0  0  0  0  0  0  0  0  0  0
    8.1825  -13.8659   16.7643 C   0  0  0  0  0  0  0  0  0  0  0  0
    8.0224  -12.7089   15.9133 N   0  0  0  0  0  0  0  0  0  0  0  0
    9.2410  -16.0196   21.3496 C   0  0  0  0  0  0  0  0  0  0  0  0
    9.7079  -16.6117   20.3452 O   0  0  0  0  0  0  0  0  0  0  0  0
   10.1386  -15.9683   22.4761 N   0  0  0  0  0  0  0  0  0  0  0  0
   11.4539  -16.5592   22.4204 C   0  0  1  0  0  0  0  0  0  0  0  0
   12.5547  -15.5434   22.6682 C   0  0  0  0  0  0  0  0  0  0  0  0
   13.8833  -16.2223   22.5793 C   0  0  0  0  0  0  0  0  0  0  0  0
   14.9770  -15.2466   22.8945 C   0  0  0  0  0  0  0  0  0  0  0  0
   16.3121  -15.8987   22.7702 C   0  0  0  0  0  0  0  0  0  0  0  0
   17.3724  -14.9629   23.1775 N   0  0  0  0  0  0  0  0  0  0  0  0
   11.5108  -17.6969   23.3647 C   0  0  0  0  0  0  0  0  0  0  0  0
   10.8107  -17.7278   24.4155 O   0  0  0  0  0  0  0  0  0  0  0  0
   12.3441  -18.7865   23.1313 O   0  0  0  0  0  0  0  0  0  0  0  0
  1  2  1  0
  3  4  1  0
  3  2  1  0
  4  5  1  0
  5  6  1  1
  7  5  1  0
  7  8  2  0
  9  7  1  0
 10 11  1  6
 10  9  1  0
 12 13  1  0
 12 11  1  0
 13 14  1  0
 14 15  1  0
 16 10  1  0
 17 16  2  0
 18 16  1  0
 19 18  1  0
 19 20  1  1
 21 20  1  0
 21 22  1  0
 23 22  1  0
 23 24  1  0
 25 19  1  0
 25 27  1  0
 26 25  2  0
M  END
$$$$
