MGT.pdb
     RDKit          3D

 20 19  0  0  1  0  0  0  0  0999 V2000
    5.8392  -11.9659   27.3444 C   0  0  0  0  0  0  0  0  0  0  0  0
    7.6287  -12.0702   27.1081 S   0  0  0  0  0  0  0  0  0  0  0  0
    8.0833  -13.8126   26.9661 C   0  0  0  0  0  0  0  0  0  0  0  0
    7.1462  -14.5164   26.0416 C   0  0  0  0  0  0  0  0  0  0  0  0
    7.4007  -15.9857   25.9020 C   0  0  2  0  0  0  0  0  0  0  0  0
    8.7501  -16.2124   25.5083 N   0  0  0  0  0  0  0  0  0  0  0  0
    6.4129  -16.5192   24.9227 C   0  0  0  0  0  0  0  0  0  0  0  0
    5.5781  -15.7394   24.4012 O   0  0  0  0  0  0  0  0  0  0  0  0
    6.3643  -17.8818   24.5421 N   0  0  0  0  0  0  0  0  0  0  0  0
    7.2404  -18.5376   23.6305 C   0  0  0  0  0  0  0  0  0  0  0  0
    7.3713  -17.8852   22.3297 C   0  0  0  0  0  0  0  0  0  0  0  0
    7.0686  -18.4759   21.2729 O   0  0  0  0  0  0  0  0  0  0  0  0
    6.7902  -14.4299   20.5664 C   0  0  0  0  0  0  0  0  0  0  0  0
    8.2836  -14.5963   20.8120 C   0  0  1  0  0  0  0  0  0  0  0  0
    8.5940  -13.7773   21.9021 O   0  0  0  0  0  0  0  0  0  0  0  0
    8.6191  -16.0223   21.1582 C   0  0  2  0  0  0  0  0  0  0  0  0
    7.8503  -16.5545   22.2342 N   0  0  0  0  0  0  0  0  0  0  0  0
   10.0610  -16.2240   21.3896 C   0  0  0  0  0  0  0  0  0  0  0  0
   10.9799  -15.8984   20.4201 O   0  0  0  0  0  0  0  0  0  0  0  0
   10.4502  -16.6942   22.4747 O   0  0  0  0  0  0  0  0  0  0  0  0
  2  1  1  0
  3  2  1  0
  4  3  1  0
  5  4  1  0
  5  6  1  6
  7  5  1  0
  7  8  2  0
  9  7  1  0
 10  9  1  0
 10 11  1  0
 11 17  1  0
 11 12  2  0
 14 13  1  1
 15 14  1  0
 16 14  1  0
 16 17  1  1
 18 16  1  0
 18 19  1  0
 20 18  2  0
M  END
$$$$
