MGT.pdb
     RDKit          3D

 20 19  0  0  1  0  0  0  0  0999 V2000
    6.8049  -11.0873   25.6044 C   0  0  0  0  0  0  0  0  0  0  0  0
    5.6812  -12.2660   26.3902 S   0  0  0  0  0  0  0  0  0  0  0  0
    5.7701  -13.8267   25.4853 C   0  0  0  0  0  0  0  0  0  0  0  0
    7.0848  -13.9446   24.7883 C   0  0  0  0  0  0  0  0  0  0  0  0
    7.2428  -15.1892   23.9704 C   0  0  2  0  0  0  0  0  0  0  0  0
    6.6828  -16.3017   24.6606 N   0  0  0  0  0  0  0  0  0  0  0  0
    8.6955  -15.3548   23.6848 C   0  0  0  0  0  0  0  0  0  0  0  0
    9.2762  -14.5271   22.9400 O   0  0  0  0  0  0  0  0  0  0  0  0
    9.4696  -16.4138   24.2171 N   0  0  0  0  0  0  0  0  0  0  0  0
   10.8816  -16.5667   24.1100 C   0  0  0  0  0  0  0  0  0  0  0  0
   11.6020  -16.5102   25.3800 C   0  0  0  0  0  0  0  0  0  0  0  0
   12.8487  -16.5457   25.4221 O   0  0  0  0  0  0  0  0  0  0  0  0
   11.1316  -13.8861   28.1038 C   0  0  0  0  0  0  0  0  0  0  0  0
   10.9448  -15.2435   28.7679 C   0  0  1  0  0  0  0  0  0  0  0  0
    9.5655  -15.4183   28.9183 O   0  0  0  0  0  0  0  0  0  0  0  0
   11.4879  -16.3484   27.9020 C   0  0  2  0  0  0  0  0  0  0  0  0
   10.8974  -16.4139   26.6062 N   0  0  0  0  0  0  0  0  0  0  0  0
   11.4446  -17.6626   28.5685 C   0  0  0  0  0  0  0  0  0  0  0  0
   12.1027  -17.8685   29.7580 O   0  0  0  0  0  0  0  0  0  0  0  0
   10.8052  -18.5957   28.0484 O   0  0  0  0  0  0  0  0  0  0  0  0
  2  1  1  0
  3  2  1  0
  4  3  1  0
  5  4  1  0
  5  6  1  1
  7  5  1  0
  7  8  2  0
  9  7  1  0
 10  9  1  0
 10 11  1  0
 11 17  1  0
 11 12  2  0
 14 13  1  6
 15 14  1  0
 16 14  1  0
 16 17  1  6
 18 16  1  0
 18 19  1  0
 20 18  2  0
M  END
$$$$
