MGT.pdb
     RDKit          3D

 20 19  0  0  1  0  0  0  0  0999 V2000
    5.5417  -11.8615   26.9418 C   0  0  0  0  0  0  0  0  0  0  0  0
    7.1760  -12.0630   26.1951 S   0  0  0  0  0  0  0  0  0  0  0  0
    6.9630  -12.3125   24.4188 C   0  0  0  0  0  0  0  0  0  0  0  0
    6.7584  -13.7611   24.1224 C   0  0  0  0  0  0  0  0  0  0  0  0
    7.9907  -14.6012   24.2582 C   0  0  2  0  0  0  0  0  0  0  0  0
    8.9433  -14.2354   23.2651 N   0  0  0  0  0  0  0  0  0  0  0  0
    7.5718  -16.0277   24.1628 C   0  0  0  0  0  0  0  0  0  0  0  0
    7.7743  -16.6604   23.0971 O   0  0  0  0  0  0  0  0  0  0  0  0
    6.9467  -16.7200   25.2277 N   0  0  0  0  0  0  0  0  0  0  0  0
    6.5150  -18.0772   25.2169 C   0  0  0  0  0  0  0  0  0  0  0  0
    7.5360  -19.0480   25.6043 C   0  0  0  0  0  0  0  0  0  0  0  0
    7.2650  -20.2592   25.7348 O   0  0  0  0  0  0  0  0  0  0  0  0
   10.6644  -19.6003   23.7796 C   0  0  0  0  0  0  0  0  0  0  0  0
   11.1214  -19.4013   25.2182 C   0  0  1  0  0  0  0  0  0  0  0  0
   11.6623  -18.1133   25.2818 O   0  0  0  0  0  0  0  0  0  0  0  0
    9.9606  -19.4937   26.1720 C   0  0  2  0  0  0  0  0  0  0  0  0
    8.8706  -18.6353   25.8445 N   0  0  0  0  0  0  0  0  0  0  0  0
   10.3679  -19.3163   27.5777 C   0  0  0  0  0  0  0  0  0  0  0  0
    9.9293  -18.2348   28.3045 O   0  0  0  0  0  0  0  0  0  0  0  0
   11.1170  -20.1551   28.1119 O   0  0  0  0  0  0  0  0  0  0  0  0
  2  1  1  0
  3  2  1  0
  4  3  1  0
  5  4  1  0
  5  6  1  6
  7  5  1  0
  7  8  2  0
  9  7  1  0
 10  9  1  0
 10 11  1  0
 11 17  1  0
 11 12  2  0
 14 13  1  6
 15 14  1  0
 16 14  1  0
 16 17  1  6
 18 16  1  0
 18 19  1  0
 20 18  2  0
M  END
$$$$
