MGT.pdb
     RDKit          3D

 20 19  0  0  1  0  0  0  0  0999 V2000
    8.0846  -11.1424   26.8812 C   0  0  0  0  0  0  0  0  0  0  0  0
    6.3833  -11.7482   26.7948 S   0  0  0  0  0  0  0  0  0  0  0  0
    6.3546  -13.4513   27.3958 C   0  0  0  0  0  0  0  0  0  0  0  0
    7.3354  -14.2824   26.6374 C   0  0  0  0  0  0  0  0  0  0  0  0
    6.7671  -14.9655   25.4318 C   0  0  2  0  0  0  0  0  0  0  0  0
    5.6984  -15.8247   25.8156 N   0  0  0  0  0  0  0  0  0  0  0  0
    7.8826  -15.6907   24.7616 C   0  0  0  0  0  0  0  0  0  0  0  0
    8.9032  -15.0544   24.4001 O   0  0  0  0  0  0  0  0  0  0  0  0
    7.8532  -17.0827   24.5061 N   0  0  0  0  0  0  0  0  0  0  0  0
    8.8353  -17.8344   23.7997 C   0  0  0  0  0  0  0  0  0  0  0  0
    8.7002  -17.8049   22.3451 C   0  0  0  0  0  0  0  0  0  0  0  0
    8.4409  -18.8382   21.6953 O   0  0  0  0  0  0  0  0  0  0  0  0
    6.4294  -15.3757   20.5841 C   0  0  0  0  0  0  0  0  0  0  0  0
    7.7697  -15.2675   19.8697 C   0  0  1  0  0  0  0  0  0  0  0  0
    8.3552  -14.0784   20.3157 O   0  0  0  0  0  0  0  0  0  0  0  0
    8.6678  -16.4212   20.2275 C   0  0  2  0  0  0  0  0  0  0  0  0
    8.8623  -16.5921   21.6293 N   0  0  0  0  0  0  0  0  0  0  0  0
    9.9589  -16.3743   19.5175 C   0  0  0  0  0  0  0  0  0  0  0  0
   11.1352  -16.2092   20.2099 O   0  0  0  0  0  0  0  0  0  0  0  0
    9.9839  -16.4855   18.2778 O   0  0  0  0  0  0  0  0  0  0  0  0
  2  1  1  0
  3  2  1  0
  4  3  1  0
  5  4  1  0
  5  6  1  1
  7  5  1  0
  7  8  2  0
  9  7  1  0
 10  9  1  0
 10 11  1  0
 11 17  1  0
 11 12  2  0
 14 13  1  1
 15 14  1  0
 16 14  1  0
 16 17  1  1
 18 16  1  0
 18 19  1  0
 20 18  2  0
M  END
$$$$
