MGT.pdb
     RDKit          3D

 20 19  0  0  1  0  0  0  0  0999 V2000
    8.7626  -12.4022   27.8075 C   0  0  0  0  0  0  0  0  0  0  0  0
    7.1335  -11.7687   27.3452 S   0  0  0  0  0  0  0  0  0  0  0  0
    6.4148  -12.8861   26.1214 C   0  0  0  0  0  0  0  0  0  0  0  0
    7.0266  -14.2425   26.2395 C   0  0  0  0  0  0  0  0  0  0  0  0
    6.5769  -15.2178   25.1956 C   0  0  2  0  0  0  0  0  0  0  0  0
    5.1586  -15.1838   25.0739 N   0  0  0  0  0  0  0  0  0  0  0  0
    7.0940  -16.5595   25.5853 C   0  0  0  0  0  0  0  0  0  0  0  0
    6.2931  -17.5200   25.6999 O   0  0  0  0  0  0  0  0  0  0  0  0
    8.4634  -16.8140   25.8377 N   0  0  0  0  0  0  0  0  0  0  0  0
    9.3286  -17.6362   25.0605 C   0  0  0  0  0  0  0  0  0  0  0  0
    8.9631  -17.7492   23.6503 C   0  0  0  0  0  0  0  0  0  0  0  0
    8.4462  -18.7894   23.1942 O   0  0  0  0  0  0  0  0  0  0  0  0
    6.8641  -15.4563   21.4832 C   0  0  0  0  0  0  0  0  0  0  0  0
    8.2151  -15.5654   20.7895 C   0  0  1  0  0  0  0  0  0  0  0  0
    8.8888  -14.3693   21.0559 O   0  0  0  0  0  0  0  0  0  0  0  0
    9.0159  -16.7136   21.3428 C   0  0  2  0  0  0  0  0  0  0  0  0
    9.1891  -16.6719   22.7572 N   0  0  0  0  0  0  0  0  0  0  0  0
   10.3101  -16.8828   20.6576 C   0  0  0  0  0  0  0  0  0  0  0  0
   10.3612  -17.1501   19.3099 O   0  0  0  0  0  0  0  0  0  0  0  0
   11.3679  -16.7824   21.3065 O   0  0  0  0  0  0  0  0  0  0  0  0
  2  1  1  0
  3  2  1  0
  4  3  1  0
  5  4  1  0
  5  6  1  1
  7  5  1  0
  7  8  2  0
  9  7  1  0
 10  9  1  0
 10 11  1  0
 11 17  1  0
 11 12  2  0
 14 13  1  1
 15 14  1  0
 16 14  1  0
 16 17  1  1
 18 16  1  0
 18 19  1  0
 20 18  2  0
M  END
$$$$
