MGT.pdb
     RDKit          3D

 20 19  0  0  1  0  0  0  0  0999 V2000
    8.7950  -12.1900   20.8473 C   0  0  0  0  0  0  0  0  0  0  0  0
    7.5422  -12.1776   19.5436 S   0  0  0  0  0  0  0  0  0  0  0  0
    8.2000  -13.0643   18.1141 C   0  0  0  0  0  0  0  0  0  0  0  0
    8.6745  -14.4197   18.5214 C   0  0  0  0  0  0  0  0  0  0  0  0
    9.2943  -15.2172   17.4156 C   0  0  2  0  0  0  0  0  0  0  0  0
    8.3838  -15.3328   16.3270 N   0  0  0  0  0  0  0  0  0  0  0  0
    9.6901  -16.5364   17.9836 C   0  0  0  0  0  0  0  0  0  0  0  0
    9.0124  -17.5564   17.7054 O   0  0  0  0  0  0  0  0  0  0  0  0
   10.8085  -16.7044   18.8350 N   0  0  0  0  0  0  0  0  0  0  0  0
   11.2491  -17.9248   19.4225 C   0  0  0  0  0  0  0  0  0  0  0  0
   12.4275  -17.8027   20.2777 C   0  0  0  0  0  0  0  0  0  0  0  0
   12.9333  -18.7990   20.8334 O   0  0  0  0  0  0  0  0  0  0  0  0
   15.3436  -15.7782   18.9312 C   0  0  0  0  0  0  0  0  0  0  0  0
   15.1858  -15.3619   20.3872 C   0  0  1  0  0  0  0  0  0  0  0  0
   14.5879  -14.0979   20.3696 O   0  0  0  0  0  0  0  0  0  0  0  0
   14.2905  -16.3180   21.1289 C   0  0  2  0  0  0  0  0  0  0  0  0
   13.0303  -16.5393   20.5004 N   0  0  0  0  0  0  0  0  0  0  0  0
   14.1160  -15.9467   22.5449 C   0  0  0  0  0  0  0  0  0  0  0  0
   15.2022  -15.8356   23.3805 O   0  0  0  0  0  0  0  0  0  0  0  0
   12.9727  -15.7316   22.9883 O   0  0  0  0  0  0  0  0  0  0  0  0
  2  1  1  0
  3  2  1  0
  4  3  1  0
  5  4  1  0
  5  6  1  6
  7  5  1  0
  7  8  2  0
  9  7  1  0
 10  9  1  0
 10 11  1  0
 11 17  1  0
 11 12  2  0
 14 13  1  6
 15 14  1  0
 16 14  1  0
 16 17  1  6
 18 16  1  0
 18 19  1  0
 20 18  2  0
M  END
$$$$
