MGT.pdb
     RDKit          3D

 20 19  0  0  1  0  0  0  0  0999 V2000
    6.8632  -11.1653   25.0944 C   0  0  0  0  0  0  0  0  0  0  0  0
    5.6133  -12.2359   25.8433 S   0  0  0  0  0  0  0  0  0  0  0  0
    5.6470  -13.8299   24.9945 C   0  0  0  0  0  0  0  0  0  0  0  0
    7.0236  -14.1192   24.4950 C   0  0  0  0  0  0  0  0  0  0  0  0
    7.1253  -15.3373   23.6297 C   0  0  2  0  0  0  0  0  0  0  0  0
    6.4826  -16.4400   24.2609 N   0  0  0  0  0  0  0  0  0  0  0  0
    8.5717  -15.5806   23.3686 C   0  0  0  0  0  0  0  0  0  0  0  0
    8.9795  -15.6639   22.1838 O   0  0  0  0  0  0  0  0  0  0  0  0
    9.5276  -15.7253   24.4027 N   0  0  0  0  0  0  0  0  0  0  0  0
   10.9299  -15.9132   24.2387 C   0  0  0  0  0  0  0  0  0  0  0  0
   11.6561  -16.2134   25.4705 C   0  0  0  0  0  0  0  0  0  0  0  0
   12.8997  -16.3156   25.4834 O   0  0  0  0  0  0  0  0  0  0  0  0
   10.9758  -14.0571   28.4419 C   0  0  0  0  0  0  0  0  0  0  0  0
   10.9417  -15.4834   28.9736 C   0  0  1  0  0  0  0  0  0  0  0  0
    9.5915  -15.8044   29.1452 O   0  0  0  0  0  0  0  0  0  0  0  0
   11.5528  -16.4428   27.9878 C   0  0  2  0  0  0  0  0  0  0  0  0
   10.9607  -16.3986   26.6918 N   0  0  0  0  0  0  0  0  0  0  0  0
   11.6014  -17.8247   28.4989 C   0  0  0  0  0  0  0  0  0  0  0  0
   10.9366  -18.8374   27.8487 O   0  0  0  0  0  0  0  0  0  0  0  0
   12.2515  -18.0769   29.5303 O   0  0  0  0  0  0  0  0  0  0  0  0
  2  1  1  0
  3  2  1  0
  4  3  1  0
  5  4  1  0
  5  6  1  1
  7  5  1  0
  7  8  2  0
  9  7  1  0
 10  9  1  0
 10 11  1  0
 11 17  1  0
 11 12  2  0
 14 13  1  6
 15 14  1  0
 16 14  1  0
 16 17  1  6
 18 16  1  0
 18 19  1  0
 20 18  2  0
M  END
$$$$
