MGT.pdb
     RDKit          3D

 20 19  0  0  1  0  0  0  0  0999 V2000
    6.5070  -10.7661   26.9990 C   0  0  0  0  0  0  0  0  0  0  0  0
    6.9025  -12.5277   27.0965 S   0  0  0  0  0  0  0  0  0  0  0  0
    5.9540  -13.3949   25.8273 C   0  0  0  0  0  0  0  0  0  0  0  0
    6.5854  -14.7125   25.5218 C   0  0  0  0  0  0  0  0  0  0  0  0
    8.0622  -14.6506   25.2803 C   0  0  2  0  0  0  0  0  0  0  0  0
    8.4149  -13.3846   24.7324 N   0  0  0  0  0  0  0  0  0  0  0  0
    8.4171  -15.7888   24.3871 C   0  0  0  0  0  0  0  0  0  0  0  0
    8.1535  -16.9622   24.7485 O   0  0  0  0  0  0  0  0  0  0  0  0
    9.0465  -15.6152   23.1310 N   0  0  0  0  0  0  0  0  0  0  0  0
    9.4533  -16.6479   22.2384 C   0  0  0  0  0  0  0  0  0  0  0  0
   10.6615  -17.3645   22.6405 C   0  0  0  0  0  0  0  0  0  0  0  0
   11.3334  -17.0030   23.6280 O   0  0  0  0  0  0  0  0  0  0  0  0
   10.9190  -21.2903   23.0096 C   0  0  0  0  0  0  0  0  0  0  0  0
   11.9942  -20.7847   22.0575 C   0  0  1  0  0  0  0  0  0  0  0  0
   11.5099  -21.0113   20.7654 O   0  0  0  0  0  0  0  0  0  0  0  0
   12.2294  -19.3094   22.2418 C   0  0  2  0  0  0  0  0  0  0  0  0
   11.1052  -18.4970   21.9125 N   0  0  0  0  0  0  0  0  0  0  0  0
   13.4419  -18.8388   21.5478 C   0  0  0  0  0  0  0  0  0  0  0  0
   14.6848  -19.0152   22.1085 O   0  0  0  0  0  0  0  0  0  0  0  0
   13.3387  -18.2758   20.4422 O   0  0  0  0  0  0  0  0  0  0  0  0
  2  1  1  0
  3  2  1  0
  4  3  1  0
  5  4  1  0
  5  6  1  6
  7  5  1  0
  7  8  2  0
  9  7  1  0
 10  9  1  0
 10 11  1  0
 11 17  1  0
 11 12  2  0
 14 13  1  1
 15 14  1  0
 16 14  1  0
 16 17  1  6
 18 16  1  0
 18 19  1  0
 20 18  2  0
M  END
$$$$
