RPK.pdb
     RDKit          3D

 28 28  0  0  1  0  0  0  0  0999 V2000
   25.9825  -20.2828   -7.3750 N   0  0  0  0  0  0  0  0  0  0  0  0
   26.3089  -20.7462   -8.6815 C   0  0  0  0  0  0  0  0  0  0  0  0
   27.2348  -21.6542   -8.7939 N   0  0  0  0  0  0  0  0  0  0  0  0
   25.6429  -20.2310   -9.8179 N   0  0  0  0  0  0  0  0  0  0  0  0
   25.7082  -20.9108  -11.0782 C   0  0  0  0  0  0  0  0  0  0  0  0
   26.8680  -20.4350  -11.9302 C   0  0  0  0  0  0  0  0  0  0  0  0
   26.4518  -20.0972  -13.3241 C   0  0  0  0  0  0  0  0  0  0  0  0
   26.7388  -21.2220  -14.3007 C   0  0  2  0  0  0  0  0  0  0  0  0
   28.1672  -21.1118  -14.5917 N   0  0  0  0  0  0  0  0  0  0  0  0
   25.9201  -21.0210  -15.5608 C   0  0  0  0  0  0  0  0  0  0  0  0
   26.0812  -19.8810  -16.0668 O   0  0  0  0  0  0  0  0  0  0  0  0
   27.5711  -22.0108   -9.6977 N   0  0  0  0  0  0  0  0  0  0  0  0
   25.1015  -22.0369  -16.0427 C   0  0  0  0  0  0  0  0  0  0  0  0
   25.5884  -23.4189  -16.2545 C   0  0  0  0  0  0  0  0  0  0  0  0
   24.5084  -24.1655  -15.5040 C   0  0  0  0  0  0  0  0  0  0  0  0
   23.2659  -23.3060  -15.6219 C   0  0  2  0  0  0  0  0  0  0  0  0
   23.7622  -22.1186  -16.4735 C   0  0  0  0  0  0  0  0  0  0  0  0
   22.8767  -20.9834  -16.3531 O   0  0  0  0  0  0  0  0  0  0  0  0
   22.5578  -20.4539  -15.2806 N   0  0  0  0  0  0  0  0  0  0  0  0
   22.3294  -20.4319  -17.5612 C   0  0  1  0  0  0  0  0  0  0  0  0
   21.4932  -19.2394  -17.5315 C   0  0  0  0  0  0  0  0  0  0  0  0
   21.7021  -18.3815  -18.7609 C   0  0  0  0  0  0  0  0  0  0  0  0
   20.7871  -17.2036  -18.8032 C   0  0  0  0  0  0  0  0  0  0  0  0
   21.0262  -16.3712  -20.0333 C   0  0  0  0  0  0  0  0  0  0  0  0
   20.1344  -15.1495  -20.0256 N   0  0  0  0  0  0  0  0  0  0  0  0
   20.2647  -14.4453  -21.3021 C   0  0  0  0  0  0  0  0  0  0  0  0
   20.0836  -19.6592  -17.4519 O   0  0  0  0  0  0  0  0  0  0  0  0
   19.1634  -18.9800  -16.6620 O   0  0  0  0  0  0  0  0  0  0  0  0
  2  4  1  0
  2  1  1  0
  3  2  2  0
  5  4  1  0
  6  5  1  0
  7  6  1  0
  8  7  1  0
  8  9  1  6
 10  8  1  0
 11 10  2  0
 12 16  1  0
 12 10  1  0
 13 14  1  0
 13 12  1  0
 15 14  1  0
 15 16  1  0
 17 19  1  0
 16 17  1  1
 18 17  2  0
 20 19  1  0
 20 21  1  1
 22 21  1  0
 23 22  1  0
 23 24  1  0
 24 25  1  0
 26 20  1  0
 27 26  1  0
 28 26  2  0
M  END
$$$$
