RPK.pdb
     RDKit          3D

 28 28  0  0  1  0  0  0  0  0999 V2000
   17.3169  -18.6942  -16.0344 N   0  0  0  0  0  0  0  0  0  0  0  0
   18.5017  -18.0289  -16.4607 C   0  0  0  0  0  0  0  0  0  0  0  0
   18.3798  -16.8524  -17.0040 N   0  0  0  0  0  0  0  0  0  0  0  0
   19.7693  -18.6344  -16.2956 N   0  0  0  0  0  0  0  0  0  0  0  0
   19.8908  -19.9330  -15.7011 C   0  0  0  0  0  0  0  0  0  0  0  0
   21.3205  -20.4362  -15.7029 C   0  0  0  0  0  0  0  0  0  0  0  0
   22.2108  -19.6300  -14.8152 C   0  0  0  0  0  0  0  0  0  0  0  0
   22.9986  -20.4944  -13.8492 C   0  0  2  0  0  0  0  0  0  0  0  0
   23.8419  -21.3342  -14.6981 N   0  0  0  0  0  0  0  0  0  0  0  0
   22.0438  -21.3459  -13.0358 C   0  0  0  0  0  0  0  0  0  0  0  0
   21.6995  -22.3961  -13.6360 O   0  0  0  0  0  0  0  0  0  0  0  0
   19.1702  -16.3265  -17.3986 N   0  0  0  0  0  0  0  0  0  0  0  0
   21.6380  -20.9409  -11.7686 C   0  0  0  0  0  0  0  0  0  0  0  0
   22.4143  -19.9794  -10.9533 C   0  0  0  0  0  0  0  0  0  0  0  0
   21.3024  -19.0146  -10.6070 C   0  0  0  0  0  0  0  0  0  0  0  0
   20.0360  -19.8467  -10.5881 C   0  0  2  0  0  0  0  0  0  0  0  0
   20.5616  -21.2599  -10.9168 C   0  0  0  0  0  0  0  0  0  0  0  0
   19.4936  -22.1226  -11.3670 O   0  0  0  0  0  0  0  0  0  0  0  0
   18.8972  -21.9959  -12.4443 N   0  0  0  0  0  0  0  0  0  0  0  0
   19.0974  -23.2010  -10.5048 C   0  0  1  0  0  0  0  0  0  0  0  0
   18.0186  -24.1052  -10.8796 C   0  0  0  0  0  0  0  0  0  0  0  0
   17.9569  -25.3090   -9.9640 C   0  0  0  0  0  0  0  0  0  0  0  0
   18.5140  -26.5412  -10.5947 C   0  0  0  0  0  0  0  0  0  0  0  0
   18.5410  -27.6877   -9.6211 C   0  0  0  0  0  0  0  0  0  0  0  0
   19.1458  -28.9146  -10.2667 N   0  0  0  0  0  0  0  0  0  0  0  0
   19.2412  -29.9876   -9.2759 C   0  0  0  0  0  0  0  0  0  0  0  0
   16.7460  -23.3663  -10.8155 O   0  0  0  0  0  0  0  0  0  0  0  0
   15.6967  -23.6434  -11.6838 O   0  0  0  0  0  0  0  0  0  0  0  0
  2  4  1  0
  2  1  1  0
  3  2  2  0
  5  4  1  0
  6  5  1  0
  7  6  1  0
  8  7  1  0
  8  9  1  6
 10  8  1  0
 11 10  2  0
 12 16  1  0
 12 10  1  0
 13 14  1  0
 13 12  1  0
 15 14  1  0
 15 16  1  0
 17 19  1  0
 16 17  1  1
 18 17  2  0
 20 19  1  0
 20 21  1  1
 22 21  1  0
 23 22  1  0
 23 24  1  0
 24 25  1  0
 26 20  1  0
 27 26  1  0
 28 26  2  0
M  END
$$$$
