RPK.pdb
     RDKit          3D

 28 28  0  0  1  0  0  0  0  0999 V2000
   21.0770  -23.1710   -9.0351 N   0  0  0  0  0  0  0  0  0  0  0  0
   21.1338  -22.2211   -7.9756 C   0  0  0  0  0  0  0  0  0  0  0  0
   20.0166  -21.8768   -7.4032 N   0  0  0  0  0  0  0  0  0  0  0  0
   22.3705  -21.6724   -7.5632 N   0  0  0  0  0  0  0  0  0  0  0  0
   23.0262  -20.6679   -8.3477 C   0  0  0  0  0  0  0  0  0  0  0  0
   23.5852  -21.2221   -9.6430 C   0  0  0  0  0  0  0  0  0  0  0  0
   25.0645  -21.0458   -9.7484 C   0  0  0  0  0  0  0  0  0  0  0  0
   25.6080  -21.5147  -11.0847 C   0  0  2  0  0  0  0  0  0  0  0  0
   27.0539  -21.3210  -10.9912 N   0  0  0  0  0  0  0  0  0  0  0  0
   25.0260  -20.6634  -12.1960 C   0  0  0  0  0  0  0  0  0  0  0  0
   24.5088  -19.5988  -11.7708 O   0  0  0  0  0  0  0  0  0  0  0  0
   19.9675  -21.2555   -6.5856 N   0  0  0  0  0  0  0  0  0  0  0  0
   25.0957  -21.0834  -13.5200 C   0  0  0  0  0  0  0  0  0  0  0  0
   26.2640  -21.8122  -14.0638 C   0  0  0  0  0  0  0  0  0  0  0  0
   25.5385  -22.9767  -14.6999 C   0  0  0  0  0  0  0  0  0  0  0  0
   24.1775  -22.4390  -15.0938 C   0  0  2  0  0  0  0  0  0  0  0  0
   24.2615  -20.9635  -14.6495 C   0  0  0  0  0  0  0  0  0  0  0  0
   22.9462  -20.3763  -14.5377 O   0  0  0  0  0  0  0  0  0  0  0  0
   22.0569  -20.7877  -13.7811 N   0  0  0  0  0  0  0  0  0  0  0  0
   22.6510  -19.2369  -15.3610 C   0  0  1  0  0  0  0  0  0  0  0  0
   21.3698  -18.5505  -15.2628 C   0  0  0  0  0  0  0  0  0  0  0  0
   21.4747  -17.1080  -15.7093 C   0  0  0  0  0  0  0  0  0  0  0  0
   20.1520  -16.4183  -15.7437 C   0  0  0  0  0  0  0  0  0  0  0  0
   20.2888  -15.0000  -16.2261 C   0  0  0  0  0  0  0  0  0  0  0  0
   18.9295  -14.3454  -16.3339 N   0  0  0  0  0  0  0  0  0  0  0  0
   19.0808  -13.0012  -16.8926 C   0  0  0  0  0  0  0  0  0  0  0  0
   20.3931  -19.2618  -16.1053 O   0  0  0  0  0  0  0  0  0  0  0  0
   19.0798  -19.4567  -15.6939 O   0  0  0  0  0  0  0  0  0  0  0  0
  2  4  1  0
  2  1  1  0
  3  2  2  0
  5  4  1  0
  6  5  1  0
  7  6  1  0
  8  7  1  0
  8  9  1  1
 10  8  1  0
 11 10  2  0
 12 16  1  0
 12 10  1  0
 13 14  1  0
 13 12  1  0
 15 14  1  0
 15 16  1  0
 17 19  1  0
 16 17  1  6
 18 17  2  0
 20 19  1  0
 20 21  1  6
 22 21  1  0
 23 22  1  0
 23 24  1  0
 24 25  1  0
 26 20  1  0
 27 26  1  0
 28 26  2  0
M  END
$$$$
