RPK.pdb
     RDKit          3D

 28 28  0  0  1  0  0  0  0  0999 V2000
   21.6881  -13.2760  -22.1750 N   0  0  0  0  0  0  0  0  0  0  0  0
   20.6919  -12.5747  -21.4374 C   0  0  0  0  0  0  0  0  0  0  0  0
   19.7231  -12.0128  -22.1007 N   0  0  0  0  0  0  0  0  0  0  0  0
   20.7596  -12.4955  -20.0268 N   0  0  0  0  0  0  0  0  0  0  0  0
   21.9248  -11.9729  -19.3759 C   0  0  0  0  0  0  0  0  0  0  0  0
   23.1343  -12.8692  -19.5524 C   0  0  0  0  0  0  0  0  0  0  0  0
   24.3624  -12.3025  -18.9189 C   0  0  0  0  0  0  0  0  0  0  0  0
   24.5254  -12.7460  -17.4775 C   0  0  2  0  0  0  0  0  0  0  0  0
   23.6712  -13.9253  -17.3482 N   0  0  0  0  0  0  0  0  0  0  0  0
   24.0554  -11.6421  -16.5508 C   0  0  0  0  0  0  0  0  0  0  0  0
   22.8029  -11.5963  -16.4476 O   0  0  0  0  0  0  0  0  0  0  0  0
   18.9738  -11.4678  -21.6553 N   0  0  0  0  0  0  0  0  0  0  0  0
   24.9732  -10.8096  -15.9190 C   0  0  0  0  0  0  0  0  0  0  0  0
   26.2336  -11.3157  -15.3299 C   0  0  0  0  0  0  0  0  0  0  0  0
   27.1998  -10.3500  -15.9786 C   0  0  0  0  0  0  0  0  0  0  0  0
   26.4114   -9.0743  -16.1967 C   0  0  2  0  0  0  0  0  0  0  0  0
   25.0281   -9.4345  -15.6153 C   0  0  0  0  0  0  0  0  0  0  0  0
   24.0084   -8.5305  -16.0954 O   0  0  0  0  0  0  0  0  0  0  0  0
   23.7403   -8.3471  -17.2899 N   0  0  0  0  0  0  0  0  0  0  0  0
   23.2546   -7.7945  -15.1189 C   0  0  1  0  0  0  0  0  0  0  0  0
   22.3072   -6.7639  -15.5218 C   0  0  0  0  0  0  0  0  0  0  0  0
   20.8790   -7.1795  -15.2413 C   0  0  0  0  0  0  0  0  0  0  0  0
   19.8942   -6.1027  -15.5532 C   0  0  0  0  0  0  0  0  0  0  0  0
   18.4896   -6.5407  -15.2397 C   0  0  0  0  0  0  0  0  0  0  0  0
   17.5219   -5.3958  -15.4419 N   0  0  0  0  0  0  0  0  0  0  0  0
   16.1717   -5.8324  -15.0834 C   0  0  0  0  0  0  0  0  0  0  0  0
   22.6194   -5.5281  -14.7835 O   0  0  0  0  0  0  0  0  0  0  0  0
   23.4844   -5.5267  -13.6955 O   0  0  0  0  0  0  0  0  0  0  0  0
  2  4  1  0
  2  1  1  0
  3  2  2  0
  5  4  1  0
  6  5  1  0
  7  6  1  0
  8  7  1  0
  8  9  1  6
 10  8  1  0
 11 10  2  0
 12 16  1  0
 12 10  1  0
 13 14  1  0
 13 12  1  0
 15 14  1  0
 15 16  1  0
 17 19  1  0
 16 17  1  6
 18 17  2  0
 20 19  1  0
 20 21  1  6
 22 21  1  0
 23 22  1  0
 23 24  1  0
 24 25  1  0
 26 20  1  0
 27 26  1  0
 28 26  2  0
M  END
$$$$
