RPK.pdb
     RDKit          3D

 28 28  0  0  1  0  0  0  0  0999 V2000
   15.3353  -22.2667  -16.2915 N   0  0  0  0  0  0  0  0  0  0  0  0
   16.6064  -22.6857  -16.7783 C   0  0  0  0  0  0  0  0  0  0  0  0
   16.6336  -23.4943  -17.7980 N   0  0  0  0  0  0  0  0  0  0  0  0
   17.7989  -22.2329  -16.1673 N   0  0  0  0  0  0  0  0  0  0  0  0
   17.7563  -21.3528  -15.0368 C   0  0  0  0  0  0  0  0  0  0  0  0
   19.1360  -20.8861  -14.6174 C   0  0  0  0  0  0  0  0  0  0  0  0
   19.2882  -20.8146  -13.1334 C   0  0  0  0  0  0  0  0  0  0  0  0
   20.6996  -21.1380  -12.6817 C   0  0  2  0  0  0  0  0  0  0  0  0
   21.3295  -21.7697  -13.8398 N   0  0  0  0  0  0  0  0  0  0  0  0
   20.6498  -22.0993  -11.5105 C   0  0  0  0  0  0  0  0  0  0  0  0
   20.2287  -23.2387  -11.8362 O   0  0  0  0  0  0  0  0  0  0  0  0
   17.5034  -23.8469  -18.2177 N   0  0  0  0  0  0  0  0  0  0  0  0
   21.0443  -21.6898  -10.2412 C   0  0  0  0  0  0  0  0  0  0  0  0
   22.1794  -20.7655  -10.0196 C   0  0  0  0  0  0  0  0  0  0  0  0
   21.4924  -19.7620   -9.1208 C   0  0  0  0  0  0  0  0  0  0  0  0
   20.4280  -20.5453   -8.3791 C   0  0  2  0  0  0  0  0  0  0  0  0
   20.6250  -21.9747   -8.9262 C   0  0  0  0  0  0  0  0  0  0  0  0
   19.4588  -22.7922   -8.6832 O   0  0  0  0  0  0  0  0  0  0  0  0
   18.3582  -22.6214   -9.2236 N   0  0  0  0  0  0  0  0  0  0  0  0
   19.5860  -23.8773   -7.7507 C   0  0  1  0  0  0  0  0  0  0  0  0
   18.4429  -24.7137   -7.4106 C   0  0  0  0  0  0  0  0  0  0  0  0
   18.8730  -25.9953   -6.7295 C   0  0  0  0  0  0  0  0  0  0  0  0
   17.7304  -26.9171   -6.4629 C   0  0  0  0  0  0  0  0  0  0  0  0
   18.1943  -28.1805   -5.7909 C   0  0  0  0  0  0  0  0  0  0  0  0
   17.0325  -29.1275   -5.5872 N   0  0  0  0  0  0  0  0  0  0  0  0
   17.5092  -30.3471   -4.9334 C   0  0  0  0  0  0  0  0  0  0  0  0
   17.5546  -23.9502   -6.5176 O   0  0  0  0  0  0  0  0  0  0  0  0
   16.1776  -24.1398   -6.5215 O   0  0  0  0  0  0  0  0  0  0  0  0
  2  4  1  0
  2  1  1  0
  3  2  2  0
  5  4  1  0
  6  5  1  0
  7  6  1  0
  8  7  1  0
  8  9  1  6
 10  8  1  0
 11 10  2  0
 12 16  1  0
 12 10  1  0
 13 14  1  0
 13 12  1  0
 15 14  1  0
 15 16  1  0
 17 19  1  0
 16 17  1  6
 18 17  2  0
 20 19  1  0
 20 21  1  1
 22 21  1  0
 23 22  1  0
 23 24  1  0
 24 25  1  0
 26 20  1  0
 27 26  1  0
 28 26  2  0
M  END
$$$$
