RPK.pdb
     RDKit          3D

 28 28  0  0  1  0  0  0  0  0999 V2000
   24.5474  -23.6823  -17.9488 N   0  0  0  0  0  0  0  0  0  0  0  0
   23.8091  -24.0346  -16.7831 C   0  0  0  0  0  0  0  0  0  0  0  0
   23.5397  -25.2930  -16.5877 N   0  0  0  0  0  0  0  0  0  0  0  0
   23.3845  -23.0417  -15.8695 N   0  0  0  0  0  0  0  0  0  0  0  0
   23.6831  -21.6584  -16.0975 C   0  0  0  0  0  0  0  0  0  0  0  0
   25.1222  -21.3172  -15.7659 C   0  0  0  0  0  0  0  0  0  0  0  0
   25.2444  -20.5138  -14.5129 C   0  0  0  0  0  0  0  0  0  0  0  0
   26.1340  -21.1832  -13.4825 C   0  0  2  0  0  0  0  0  0  0  0  0
   26.8206  -22.2471  -14.2132 N   0  0  0  0  0  0  0  0  0  0  0  0
   25.2783  -21.7633  -12.3737 C   0  0  0  0  0  0  0  0  0  0  0  0
   24.8287  -22.9037  -12.6545 O   0  0  0  0  0  0  0  0  0  0  0  0
   22.9329  -25.6309  -15.8298 N   0  0  0  0  0  0  0  0  0  0  0  0
   25.0602  -21.0489  -11.2004 C   0  0  0  0  0  0  0  0  0  0  0  0
   26.1141  -20.2309  -10.5586 C   0  0  0  0  0  0  0  0  0  0  0  0
   25.3427  -18.9404  -10.3961 C   0  0  0  0  0  0  0  0  0  0  0  0
   23.8923  -19.3525  -10.2437 C   0  0  2  0  0  0  0  0  0  0  0  0
   23.9745  -20.8917  -10.3157 C   0  0  0  0  0  0  0  0  0  0  0  0
   22.6854  -21.4699  -10.6179 O   0  0  0  0  0  0  0  0  0  0  0  0
   22.1575  -21.4591  -11.7376 N   0  0  0  0  0  0  0  0  0  0  0  0
   21.9678  -22.1003   -9.5451 C   0  0  1  0  0  0  0  0  0  0  0  0
   20.6550  -22.6921   -9.7649 C   0  0  0  0  0  0  0  0  0  0  0  0
   20.1006  -23.3052   -8.4968 C   0  0  0  0  0  0  0  0  0  0  0  0
   18.8032  -24.0085   -8.7168 C   0  0  0  0  0  0  0  0  0  0  0  0
   18.3197  -24.6684   -7.4543 C   0  0  0  0  0  0  0  0  0  0  0  0
   17.0364  -25.4262   -7.7127 N   0  0  0  0  0  0  0  0  0  0  0  0
   16.5974  -26.0736   -6.4757 C   0  0  0  0  0  0  0  0  0  0  0  0
   19.7436  -21.6407  -10.2483 O   0  0  0  0  0  0  0  0  0  0  0  0
   18.7995  -21.8914  -11.2371 O   0  0  0  0  0  0  0  0  0  0  0  0
  2  4  1  0
  2  1  1  0
  3  2  2  0
  5  4  1  0
  6  5  1  0
  7  6  1  0
  8  7  1  0
  8  9  1  6
 10  8  1  0
 11 10  2  0
 12 16  1  0
 12 10  1  0
 13 14  1  0
 13 12  1  0
 15 14  1  0
 15 16  1  0
 17 19  1  0
 16 17  1  6
 18 17  2  0
 20 19  1  0
 20 21  1  1
 22 21  1  0
 23 22  1  0
 23 24  1  0
 24 25  1  0
 26 20  1  0
 27 26  1  0
 28 26  2  0
M  END
$$$$
