RPK.pdb
     RDKit          3D

 28 28  0  0  1  0  0  0  0  0999 V2000
   16.1629  -19.0638  -15.4772 N   0  0  0  0  0  0  0  0  0  0  0  0
   17.3020  -18.2162  -15.3676 C   0  0  0  0  0  0  0  0  0  0  0  0
   17.2933  -17.0930  -16.0252 N   0  0  0  0  0  0  0  0  0  0  0  0
   18.4060  -18.5902  -14.5663 N   0  0  0  0  0  0  0  0  0  0  0  0
   18.3665  -19.7830  -13.7725 C   0  0  0  0  0  0  0  0  0  0  0  0
   19.6416  -19.9900  -12.9796 C   0  0  0  0  0  0  0  0  0  0  0  0
   20.6281  -20.8502  -13.6988 C   0  0  0  0  0  0  0  0  0  0  0  0
   21.7947  -21.2521  -12.8164 C   0  0  2  0  0  0  0  0  0  0  0  0
   22.5987  -22.1510  -13.6427 N   0  0  0  0  0  0  0  0  0  0  0  0
   21.2767  -21.9755  -11.5889 C   0  0  0  0  0  0  0  0  0  0  0  0
   20.3926  -22.8262  -11.8647 O   0  0  0  0  0  0  0  0  0  0  0  0
   18.0542  -16.4033  -15.9777 N   0  0  0  0  0  0  0  0  0  0  0  0
   21.7761  -21.6741  -10.3263 C   0  0  0  0  0  0  0  0  0  0  0  0
   23.1285  -21.1084  -10.1190 C   0  0  0  0  0  0  0  0  0  0  0  0
   22.7595  -19.9355   -9.2387 C   0  0  0  0  0  0  0  0  0  0  0  0
   21.5185  -20.3698   -8.4852 C   0  0  2  0  0  0  0  0  0  0  0  0
   21.2976  -21.8051   -9.0072 C   0  0  0  0  0  0  0  0  0  0  0  0
   19.9474  -22.2515   -8.7520 O   0  0  0  0  0  0  0  0  0  0  0  0
   18.9328  -21.7192   -9.2206 N   0  0  0  0  0  0  0  0  0  0  0  0
   19.7712  -23.3913   -7.8957 C   0  0  1  0  0  0  0  0  0  0  0  0
   18.4484  -23.9505   -7.6516 C   0  0  0  0  0  0  0  0  0  0  0  0
   18.2250  -25.2200   -8.4451 C   0  0  0  0  0  0  0  0  0  0  0  0
   16.8855  -25.8275   -8.1943 C   0  0  0  0  0  0  0  0  0  0  0  0
   16.7252  -27.1227   -8.9425 C   0  0  0  0  0  0  0  0  0  0  0  0
   15.3466  -27.6999   -8.7099 N   0  0  0  0  0  0  0  0  0  0  0  0
   15.2485  -29.0034   -9.3682 C   0  0  0  0  0  0  0  0  0  0  0  0
   18.3198  -24.2349   -6.2121 O   0  0  0  0  0  0  0  0  0  0  0  0
   19.4247  -24.2461   -5.3689 O   0  0  0  0  0  0  0  0  0  0  0  0
  2  4  1  0
  2  1  1  0
  3  2  2  0
  5  4  1  0
  6  5  1  0
  7  6  1  0
  8  7  1  0
  8  9  1  6
 10  8  1  0
 11 10  2  0
 12 16  1  0
 12 10  1  0
 13 14  1  0
 13 12  1  0
 15 14  1  0
 15 16  1  0
 17 19  1  0
 16 17  1  1
 18 17  2  0
 20 19  1  0
 20 21  1  1
 22 21  1  0
 23 22  1  0
 23 24  1  0
 24 25  1  0
 26 20  1  0
 27 26  1  0
 28 26  2  0
M  END
$$$$
