PIH.pdb
     RDKit          3D

 26 27  0  0  1  0  0  0  0  0999 V2000
   28.4937  -20.2696  -15.6277 N   0  0  0  0  0  0  0  0  0  0  0  0
   28.2246  -19.4085  -16.7494 C   0  0  0  0  0  0  0  0  0  0  0  0
   28.1815  -18.0101  -16.2243 C   0  0  0  0  0  0  0  0  0  0  0  0
   27.6355  -18.2070  -14.8224 C   0  0  0  0  0  0  0  0  0  0  0  0
   28.1224  -19.5860  -14.4306 C   0  0  1  0  0  0  0  0  0  0  0  0
   27.0150  -20.3424  -13.7458 C   0  0  0  0  0  0  0  0  0  0  0  0
   26.6049  -21.4254  -14.2343 O   0  0  0  0  0  0  0  0  0  0  0  0
   26.5415  -20.1840   -8.2513 C   0  0  0  0  0  0  0  0  0  0  0  0
   26.5082  -20.8423   -9.5965 C   0  0  0  0  0  0  0  0  0  0  0  0
   25.3476  -20.4114  -10.4257 C   0  0  2  0  0  0  0  0  0  0  0  0
   24.1582  -21.2396   -9.8733 C   0  0  0  0  0  0  0  0  0  0  0  0
   25.4308  -20.6543  -11.8919 C   0  0  2  0  0  0  0  0  0  0  0  0
   26.4357  -19.8312  -12.5492 N   0  0  0  0  0  0  0  0  0  0  0  0
   24.1618  -20.2949  -12.5756 C   0  0  0  0  0  0  0  0  0  0  0  0
   23.8679  -19.0451  -12.6174 O   0  0  0  0  0  0  0  0  0  0  0  0
   23.2425  -21.1441  -13.1883 N   0  0  0  0  0  0  0  0  0  0  0  0
   22.0271  -20.5689  -13.8646 C   0  0  1  0  0  0  0  0  0  0  0  0
   22.0344  -21.2139  -15.2089 C   0  0  0  0  0  0  0  0  0  0  0  0
   22.9401  -20.6384  -16.2057 C   0  0  0  0  0  0  0  0  0  0  0  0
   22.9496  -19.4739  -16.9246 C   0  0  0  0  0  0  0  0  0  0  0  0
   24.0684  -19.4157  -17.6824 N   0  0  0  0  0  0  0  0  0  0  0  0
   24.7472  -20.5252  -17.4399 C   0  0  0  0  0  0  0  0  0  0  0  0
   24.0960  -21.2867  -16.5531 N   0  0  0  0  0  0  0  0  0  0  0  0
   20.9062  -21.0187  -13.0125 C   0  0  0  0  0  0  0  0  0  0  0  0
   19.6959  -20.3778  -12.9637 O   0  0  0  0  0  0  0  0  0  0  0  0
   21.0385  -22.0324  -12.2888 O   0  0  0  0  0  0  0  0  0  0  0  0
  2  1  1  0
  3  2  1  0
  4  3  1  0
  4  5  1  0
  5  1  1  0
  5  6  1  6
  6  7  2  0
  9  8  1  0
  9 10  1  0
 10 11  1  1
 12 10  1  0
 13  6  1  0
 12 13  1  6
 14 12  1  0
 14 15  2  0
 16 14  1  0
 17 16  1  0
 18 19  1  0
 17 18  1  6
 19 23  1  0
 20 21  1  0
 20 19  2  0
 21 22  1  0
 22 23  2  0
 24 17  1  0
 24 25  1  0
 26 24  2  0
M  END
$$$$
