PIH.pdb
     RDKit          3D

 26 27  0  0  1  0  0  0  0  0999 V2000
   28.4834  -19.4636  -14.3081 N   0  0  0  0  0  0  0  0  0  0  0  0
   29.8939  -19.6637  -14.1021 C   0  0  0  0  0  0  0  0  0  0  0  0
   30.2692  -20.9085  -14.8386 C   0  0  0  0  0  0  0  0  0  0  0  0
   29.0050  -21.7409  -14.7336 C   0  0  0  0  0  0  0  0  0  0  0  0
   27.8950  -20.7134  -14.6686 C   0  0  1  0  0  0  0  0  0  0  0  0
   26.8901  -21.1137  -13.6211 C   0  0  0  0  0  0  0  0  0  0  0  0
   26.2172  -22.1645  -13.7719 O   0  0  0  0  0  0  0  0  0  0  0  0
   27.3898  -19.7218   -8.2083 C   0  0  0  0  0  0  0  0  0  0  0  0
   27.1266  -20.5624   -9.4200 C   0  0  0  0  0  0  0  0  0  0  0  0
   25.8931  -20.1573  -10.1513 C   0  0  2  0  0  0  0  0  0  0  0  0
   24.7352  -20.6560   -9.2478 C   0  0  0  0  0  0  0  0  0  0  0  0
   25.6892  -20.7279  -11.5109 C   0  0  2  0  0  0  0  0  0  0  0  0
   26.7041  -20.3036  -12.4644 N   0  0  0  0  0  0  0  0  0  0  0  0
   24.4109  -20.2643  -12.1092 C   0  0  0  0  0  0  0  0  0  0  0  0
   24.3344  -19.0154  -12.3997 O   0  0  0  0  0  0  0  0  0  0  0  0
   23.2752  -21.0156  -12.4046 N   0  0  0  0  0  0  0  0  0  0  0  0
   22.0770  -20.3487  -13.0252 C   0  0  1  0  0  0  0  0  0  0  0  0
   22.1058  -20.8197  -14.4397 C   0  0  0  0  0  0  0  0  0  0  0  0
   20.9266  -20.5175  -15.2539 C   0  0  0  0  0  0  0  0  0  0  0  0
   19.6537  -20.1023  -14.9701 C   0  0  0  0  0  0  0  0  0  0  0  0
   18.9666  -19.9211  -16.1209 N   0  0  0  0  0  0  0  0  0  0  0  0
   19.7970  -20.2171  -17.1075 C   0  0  0  0  0  0  0  0  0  0  0  0
   20.9892  -20.5809  -16.6210 N   0  0  0  0  0  0  0  0  0  0  0  0
   20.9368  -20.8918  -12.2571 C   0  0  0  0  0  0  0  0  0  0  0  0
   19.6799  -20.3470  -12.2929 O   0  0  0  0  0  0  0  0  0  0  0  0
   21.0959  -21.8986  -11.5294 O   0  0  0  0  0  0  0  0  0  0  0  0
  2  1  1  0
  3  2  1  0
  4  3  1  0
  4  5  1  0
  5  1  1  0
  5  6  1  1
  6  7  2  0
  9  8  1  0
  9 10  1  0
 10 11  1  1
 12 10  1  0
 13  6  1  0
 12 13  1  6
 14 12  1  0
 14 15  2  0
 16 14  1  0
 17 16  1  0
 18 19  1  0
 17 18  1  6
 19 23  1  0
 20 21  1  0
 20 19  2  0
 21 22  1  0
 22 23  2  0
 24 17  1  0
 24 25  1  0
 26 24  2  0
M  END
$$$$
