PIH.pdb
     RDKit          3D

 26 27  0  0  1  0  0  0  0  0999 V2000
   28.0321  -22.4448  -18.2885 N   0  0  0  0  0  0  0  0  0  0  0  0
   29.2096  -22.0693  -19.0264 C   0  0  0  0  0  0  0  0  0  0  0  0
   30.3570  -22.8123  -18.4228 C   0  0  0  0  0  0  0  0  0  0  0  0
   29.9477  -22.9122  -16.9653 C   0  0  0  0  0  0  0  0  0  0  0  0
   28.4347  -22.9396  -17.0113 C   0  0  1  0  0  0  0  0  0  0  0  0
   27.8754  -22.0511  -15.9319 C   0  0  0  0  0  0  0  0  0  0  0  0
   28.2141  -22.2348  -14.7355 O   0  0  0  0  0  0  0  0  0  0  0  0
   28.1114  -16.7952  -16.1226 C   0  0  0  0  0  0  0  0  0  0  0  0
   28.0548  -18.2003  -15.6062 C   0  0  0  0  0  0  0  0  0  0  0  0
   26.6621  -18.7089  -15.4575 C   0  0  2  0  0  0  0  0  0  0  0  0
   26.0993  -17.9247  -14.2435 C   0  0  0  0  0  0  0  0  0  0  0  0
   26.4938  -20.1616  -15.1801 C   0  0  2  0  0  0  0  0  0  0  0  0
   26.9662  -21.0072  -16.2670 N   0  0  0  0  0  0  0  0  0  0  0  0
   25.0609  -20.5247  -15.0327 C   0  0  0  0  0  0  0  0  0  0  0  0
   24.3715  -20.5864  -16.1148 O   0  0  0  0  0  0  0  0  0  0  0  0
   24.3615  -20.8156  -13.8632 N   0  0  0  0  0  0  0  0  0  0  0  0
   22.9117  -21.2129  -13.9371 C   0  0  1  0  0  0  0  0  0  0  0  0
   22.6604  -21.8726  -12.6236 C   0  0  0  0  0  0  0  0  0  0  0  0
   21.2734  -22.2411  -12.3314 C   0  0  0  0  0  0  0  0  0  0  0  0
   20.0968  -22.1482  -13.0241 C   0  0  0  0  0  0  0  0  0  0  0  0
   19.0962  -22.6962  -12.2976 N   0  0  0  0  0  0  0  0  0  0  0  0
   19.6391  -23.1255  -11.1699 C   0  0  0  0  0  0  0  0  0  0  0  0
   20.9521  -22.8677  -11.1562 N   0  0  0  0  0  0  0  0  0  0  0  0
   22.2023  -19.9243  -14.0830 C   0  0  0  0  0  0  0  0  0  0  0  0
   22.4942  -18.8170  -13.3304 O   0  0  0  0  0  0  0  0  0  0  0  0
   21.2849  -19.8078  -14.9277 O   0  0  0  0  0  0  0  0  0  0  0  0
  2  1  1  0
  3  2  1  0
  4  3  1  0
  4  5  1  0
  5  1  1  0
  5  6  1  1
  6  7  2  0
  9  8  1  0
  9 10  1  0
 10 11  1  1
 12 10  1  0
 13  6  1  0
 12 13  1  6
 14 12  1  0
 14 15  2  0
 16 14  1  0
 17 16  1  0
 18 19  1  0
 17 18  1  1
 19 23  1  0
 20 21  1  0
 20 19  2  0
 21 22  1  0
 22 23  2  0
 24 17  1  0
 24 25  1  0
 26 24  2  0
M  END
$$$$
