PIH.pdb
     RDKit          3D

 26 27  0  0  1  0  0  0  0  0999 V2000
   27.0278  -18.8899  -14.2680 N   0  0  0  0  0  0  0  0  0  0  0  0
   28.4169  -18.5127  -14.2826 C   0  0  0  0  0  0  0  0  0  0  0  0
   29.1555  -19.5994  -14.9944 C   0  0  0  0  0  0  0  0  0  0  0  0
   28.3454  -20.8310  -14.6354 C   0  0  0  0  0  0  0  0  0  0  0  0
   26.9385  -20.3027  -14.4524 C   0  0  1  0  0  0  0  0  0  0  0  0
   26.3136  -20.9276  -13.2332 C   0  0  0  0  0  0  0  0  0  0  0  0
   26.0907  -22.1644  -13.2113 O   0  0  0  0  0  0  0  0  0  0  0  0
   27.8383  -20.3691   -8.1024 C   0  0  0  0  0  0  0  0  0  0  0  0
   27.2423  -20.9709   -9.3380 C   0  0  0  0  0  0  0  0  0  0  0  0
   25.9047  -20.4059   -9.6724 C   0  0  2  0  0  0  0  0  0  0  0  0
   24.9710  -20.9599   -8.5647 C   0  0  0  0  0  0  0  0  0  0  0  0
   25.3192  -20.7761  -10.9899 C   0  0  2  0  0  0  0  0  0  0  0  0
   25.9771  -20.1189  -12.1100 N   0  0  0  0  0  0  0  0  0  0  0  0
   23.9017  -20.3443  -11.0958 C   0  0  0  0  0  0  0  0  0  0  0  0
   23.6791  -19.0826  -11.0042 O   0  0  0  0  0  0  0  0  0  0  0  0
   22.7717  -21.1363  -11.2891 N   0  0  0  0  0  0  0  0  0  0  0  0
   21.4122  -20.4951  -11.3656 C   0  0  1  0  0  0  0  0  0  0  0  0
   21.0246  -20.6621  -12.7958 C   0  0  0  0  0  0  0  0  0  0  0  0
   19.6734  -20.2318  -13.1618 C   0  0  0  0  0  0  0  0  0  0  0  0
   18.6542  -19.6158  -12.4875 C   0  0  0  0  0  0  0  0  0  0  0  0
   17.6182  -19.3971  -13.3290 N   0  0  0  0  0  0  0  0  0  0  0  0
   17.9846  -19.8677  -14.5100 C   0  0  0  0  0  0  0  0  0  0  0  0
   19.2196  -20.3787  -14.4462 N   0  0  0  0  0  0  0  0  0  0  0  0
   20.5895  -21.3069  -10.4441 C   0  0  0  0  0  0  0  0  0  0  0  0
   19.5013  -20.8114   -9.7747 O   0  0  0  0  0  0  0  0  0  0  0  0
   20.8759  -22.5099  -10.2452 O   0  0  0  0  0  0  0  0  0  0  0  0
  2  1  1  0
  3  2  1  0
  4  3  1  0
  4  5  1  0
  5  1  1  0
  5  6  1  1
  6  7  2  0
  9  8  1  0
  9 10  1  0
 10 11  1  1
 12 10  1  0
 13  6  1  0
 12 13  1  6
 14 12  1  0
 14 15  2  0
 16 14  1  0
 17 16  1  0
 18 19  1  0
 17 18  1  6
 19 23  1  0
 20 21  1  0
 20 19  2  0
 21 22  1  0
 22 23  2  0
 24 17  1  0
 24 25  1  0
 26 24  2  0
M  END
$$$$
