PIH.pdb
     RDKit          3D

 26 27  0  0  1  0  0  0  0  0999 V2000
   27.7525  -19.4275  -15.0719 N   0  0  0  0  0  0  0  0  0  0  0  0
   29.1663  -19.4367  -14.8017 C   0  0  0  0  0  0  0  0  0  0  0  0
   29.7155  -20.6917  -15.3987 C   0  0  0  0  0  0  0  0  0  0  0  0
   28.5531  -21.6558  -15.2525 C   0  0  0  0  0  0  0  0  0  0  0  0
   27.3295  -20.7672  -15.3254 C   0  0  1  0  0  0  0  0  0  0  0  0
   26.3331  -21.1841  -14.2762 C   0  0  0  0  0  0  0  0  0  0  0  0
   25.6579  -22.2317  -14.4388 O   0  0  0  0  0  0  0  0  0  0  0  0
   27.2060  -20.2689   -8.9645 C   0  0  0  0  0  0  0  0  0  0  0  0
   26.6307  -21.0859  -10.0806 C   0  0  0  0  0  0  0  0  0  0  0  0
   25.4729  -20.4257  -10.7468 C   0  0  2  0  0  0  0  0  0  0  0  0
   24.2588  -20.8006   -9.8573 C   0  0  0  0  0  0  0  0  0  0  0  0
   25.1621  -20.8417  -12.1419 C   0  0  2  0  0  0  0  0  0  0  0  0
   26.1576  -20.3931  -13.1048 N   0  0  0  0  0  0  0  0  0  0  0  0
   23.8933  -20.2351  -12.6204 C   0  0  0  0  0  0  0  0  0  0  0  0
   23.8990  -18.9634  -12.8011 O   0  0  0  0  0  0  0  0  0  0  0  0
   22.6878  -20.8724  -12.9072 N   0  0  0  0  0  0  0  0  0  0  0  0
   21.4799  -20.0560  -13.2812 C   0  0  1  0  0  0  0  0  0  0  0  0
   21.1925  -20.4751  -14.6831 C   0  0  0  0  0  0  0  0  0  0  0  0
   19.9478  -19.9772  -15.2726 C   0  0  0  0  0  0  0  0  0  0  0  0
   19.2319  -18.8174  -15.1483 C   0  0  0  0  0  0  0  0  0  0  0  0
   18.1609  -18.8528  -15.9735 N   0  0  0  0  0  0  0  0  0  0  0  0
   18.2075  -20.0151  -16.6038 C   0  0  0  0  0  0  0  0  0  0  0  0
   19.2732  -20.7196  -16.2057 N   0  0  0  0  0  0  0  0  0  0  0  0
   20.4468  -20.4987  -12.3211 C   0  0  0  0  0  0  0  0  0  0  0  0
   19.3905  -19.7134  -11.9397 O   0  0  0  0  0  0  0  0  0  0  0  0
   20.5127  -21.6424  -11.8148 O   0  0  0  0  0  0  0  0  0  0  0  0
  2  1  1  0
  3  2  1  0
  4  3  1  0
  4  5  1  0
  5  1  1  0
  5  6  1  1
  6  7  2  0
  9  8  1  0
  9 10  1  0
 10 11  1  1
 12 10  1  0
 13  6  1  0
 12 13  1  6
 14 12  1  0
 14 15  2  0
 16 14  1  0
 17 16  1  0
 18 19  1  0
 17 18  1  6
 19 23  1  0
 20 21  1  0
 20 19  2  0
 21 22  1  0
 22 23  2  0
 24 17  1  0
 24 25  1  0
 26 24  2  0
M  END
$$$$
