PIH.pdb
     RDKit          3D

 26 27  0  0  1  0  0  0  0  0999 V2000
   36.5875  -11.1309   -8.3624 N   0  0  0  0  0  0  0  0  0  0  0  0
   36.9675  -12.4501   -8.7950 C   0  0  0  0  0  0  0  0  0  0  0  0
   37.1126  -13.2866   -7.5652 C   0  0  0  0  0  0  0  0  0  0  0  0
   37.5916  -12.2757   -6.5402 C   0  0  0  0  0  0  0  0  0  0  0  0
   36.9751  -10.9708   -6.9977 C   0  0  1  0  0  0  0  0  0  0  0  0
   37.9895   -9.8629   -6.8927 C   0  0  0  0  0  0  0  0  0  0  0  0
   38.6070   -9.6834   -5.8128 O   0  0  0  0  0  0  0  0  0  0  0  0
   41.9544   -6.8156  -10.4248 C   0  0  0  0  0  0  0  0  0  0  0  0
   41.2008   -6.8729   -9.1315 C   0  0  0  0  0  0  0  0  0  0  0  0
   40.1335   -7.9128   -9.1266 C   0  0  2  0  0  0  0  0  0  0  0  0
   39.1782   -7.4814  -10.2698 C   0  0  0  0  0  0  0  0  0  0  0  0
   39.3250   -8.0528   -7.8847 C   0  0  2  0  0  0  0  0  0  0  0  0
   38.2469   -9.0227   -8.0136 N   0  0  0  0  0  0  0  0  0  0  0  0
   38.6338   -6.7839   -7.5397 C   0  0  0  0  0  0  0  0  0  0  0  0
   37.4423   -6.6382   -7.9969 O   0  0  0  0  0  0  0  0  0  0  0  0
   39.1118   -5.7232   -6.7729 N   0  0  0  0  0  0  0  0  0  0  0  0
   38.2198   -4.5453   -6.4859 C   0  0  1  0  0  0  0  0  0  0  0  0
   38.6880   -4.0659   -5.1538 C   0  0  0  0  0  0  0  0  0  0  0  0
   38.0734   -2.8366   -4.6479 C   0  0  0  0  0  0  0  0  0  0  0  0
   37.0484   -2.0376   -5.0766 C   0  0  0  0  0  0  0  0  0  0  0  0
   36.8526   -1.0339   -4.1915 N   0  0  0  0  0  0  0  0  0  0  0  0
   37.7400   -1.2038   -3.2250 C   0  0  0  0  0  0  0  0  0  0  0  0
   38.4936   -2.2825   -3.4674 N   0  0  0  0  0  0  0  0  0  0  0  0
   38.5240   -3.6003   -7.5811 C   0  0  0  0  0  0  0  0  0  0  0  0
   39.7952   -3.3566   -8.0311 O   0  0  0  0  0  0  0  0  0  0  0  0
   37.5954   -2.9773   -8.1453 O   0  0  0  0  0  0  0  0  0  0  0  0
  2  1  1  0
  3  2  1  0
  4  3  1  0
  4  5  1  0
  5  1  1  0
  5  6  1  6
  6  7  2  0
  9  8  1  0
  9 10  1  0
 10 11  1  6
 12 10  1  0
 13  6  1  0
 12 13  1  6
 14 12  1  0
 14 15  2  0
 16 14  1  0
 17 16  1  0
 18 19  1  0
 17 18  1  1
 19 23  1  0
 20 21  1  0
 20 19  2  0
 21 22  1  0
 22 23  2  0
 24 17  1  0
 24 25  1  0
 26 24  2  0
M  END
$$$$
