PIH.pdb
     RDKit          3D

 26 27  0  0  1  0  0  0  0  0999 V2000
   23.9611  -21.3367  -13.4154 N   0  0  0  0  0  0  0  0  0  0  0  0
   23.2872  -20.1644  -12.9219 C   0  0  0  0  0  0  0  0  0  0  0  0
   21.9700  -20.0914  -13.6238 C   0  0  0  0  0  0  0  0  0  0  0  0
   22.2898  -20.6985  -14.9771 C   0  0  0  0  0  0  0  0  0  0  0  0
   23.4022  -21.6824  -14.6829 C   0  0  1  0  0  0  0  0  0  0  0  0
   24.4666  -21.5808  -15.7431 C   0  0  0  0  0  0  0  0  0  0  0  0
   24.1720  -21.7993  -16.9453 O   0  0  0  0  0  0  0  0  0  0  0  0
   28.0027  -17.5541  -16.5255 C   0  0  0  0  0  0  0  0  0  0  0  0
   27.0516  -18.6997  -16.6906 C   0  0  0  0  0  0  0  0  0  0  0  0
   27.6766  -20.0204  -16.3986 C   0  0  2  0  0  0  0  0  0  0  0  0
   28.7576  -20.1805  -17.4992 C   0  0  0  0  0  0  0  0  0  0  0  0
   26.7934  -21.2176  -16.4489 C   0  0  2  0  0  0  0  0  0  0  0  0
   25.8016  -21.2385  -15.3834 N   0  0  0  0  0  0  0  0  0  0  0  0
   27.5654  -22.4715  -16.2523 C   0  0  0  0  0  0  0  0  0  0  0  0
   28.1783  -22.5968  -15.1305 O   0  0  0  0  0  0  0  0  0  0  0  0
   27.7082  -23.5424  -17.1323 N   0  0  0  0  0  0  0  0  0  0  0  0
   28.5680  -24.7168  -16.7490 C   0  0  1  0  0  0  0  0  0  0  0  0
   27.5887  -25.8277  -16.5751 C   0  0  0  0  0  0  0  0  0  0  0  0
   28.1447  -27.1776  -16.4586 C   0  0  0  0  0  0  0  0  0  0  0  0
   29.3631  -27.6773  -16.0861 C   0  0  0  0  0  0  0  0  0  0  0  0
   29.3261  -29.0292  -16.1056 N   0  0  0  0  0  0  0  0  0  0  0  0
   28.1041  -29.3685  -16.4829 C   0  0  0  0  0  0  0  0  0  0  0  0
   27.3637  -28.2762  -16.7043 N   0  0  0  0  0  0  0  0  0  0  0  0
   29.4513  -24.9014  -17.9197 C   0  0  0  0  0  0  0  0  0  0  0  0
   29.2621  -24.2539  -19.1126 O   0  0  0  0  0  0  0  0  0  0  0  0
   30.4292  -25.6808  -17.8486 O   0  0  0  0  0  0  0  0  0  0  0  0
  2  1  1  0
  3  2  1  0
  4  3  1  0
  4  5  1  0
  5  1  1  0
  5  6  1  6
  6  7  2  0
  9  8  1  0
  9 10  1  0
 10 11  1  6
 12 10  1  0
 13  6  1  0
 12 13  1  1
 14 12  1  0
 14 15  2  0
 16 14  1  0
 17 16  1  0
 18 19  1  0
 17 18  1  6
 19 23  1  0
 20 21  1  0
 20 19  2  0
 21 22  1  0
 22 23  2  0
 24 17  1  0
 24 25  1  0
 26 24  2  0
M  END
$$$$
