PIH.pdb
     RDKit          3D

 26 27  0  0  1  0  0  0  0  0999 V2000
   27.5340  -19.4696  -16.4246 N   0  0  0  0  0  0  0  0  0  0  0  0
   28.8437  -18.9138  -16.2062 C   0  0  0  0  0  0  0  0  0  0  0  0
   29.8329  -19.9613  -16.6027 C   0  0  0  0  0  0  0  0  0  0  0  0
   29.1021  -21.2449  -16.2561 C   0  0  0  0  0  0  0  0  0  0  0  0
   27.6404  -20.8933  -16.4346 C   0  0  1  0  0  0  0  0  0  0  0  0
   26.8361  -21.4629  -15.2962 C   0  0  0  0  0  0  0  0  0  0  0  0
   26.6689  -22.7057  -15.2114 O   0  0  0  0  0  0  0  0  0  0  0  0
   25.6494  -20.5419   -9.4236 C   0  0  0  0  0  0  0  0  0  0  0  0
   25.1536  -21.1269  -10.7104 C   0  0  0  0  0  0  0  0  0  0  0  0
   25.9808  -20.7316  -11.8851 C   0  0  2  0  0  0  0  0  0  0  0  0
   25.9125  -19.1822  -11.8933 C   0  0  0  0  0  0  0  0  0  0  0  0
   25.5396  -21.2149  -13.2221 C   0  0  2  0  0  0  0  0  0  0  0  0
   26.2676  -20.5952  -14.3200 N   0  0  0  0  0  0  0  0  0  0  0  0
   24.1194  -20.8671  -13.4846 C   0  0  0  0  0  0  0  0  0  0  0  0
   23.8612  -19.6244  -13.6819 O   0  0  0  0  0  0  0  0  0  0  0  0
   23.0210  -21.7219  -13.5511 N   0  0  0  0  0  0  0  0  0  0  0  0
   21.6552  -21.1641  -13.8493 C   0  0  1  0  0  0  0  0  0  0  0  0
   20.8832  -22.3528  -14.3123 C   0  0  0  0  0  0  0  0  0  0  0  0
   19.4642  -22.1381  -14.6039 C   0  0  0  0  0  0  0  0  0  0  0  0
   18.6252  -21.0606  -14.5134 C   0  0  0  0  0  0  0  0  0  0  0  0
   17.3976  -21.3998  -14.9686 N   0  0  0  0  0  0  0  0  0  0  0  0
   17.4688  -22.6681  -15.3386 C   0  0  0  0  0  0  0  0  0  0  0  0
   18.7016  -23.1460  -15.1328 N   0  0  0  0  0  0  0  0  0  0  0  0
   21.1949  -20.6475  -12.5431 C   0  0  0  0  0  0  0  0  0  0  0  0
   21.3923  -21.3121  -11.3610 O   0  0  0  0  0  0  0  0  0  0  0  0
   20.5923  -19.5512  -12.4814 O   0  0  0  0  0  0  0  0  0  0  0  0
  2  1  1  0
  3  2  1  0
  4  3  1  0
  4  5  1  0
  5  1  1  0
  5  6  1  1
  6  7  2  0
  9  8  1  0
  9 10  1  0
 10 11  1  6
 12 10  1  0
 13  6  1  0
 12 13  1  6
 14 12  1  0
 14 15  2  0
 16 14  1  0
 17 16  1  0
 18 19  1  0
 17 18  1  1
 19 23  1  0
 20 21  1  0
 20 19  2  0
 21 22  1  0
 22 23  2  0
 24 17  1  0
 24 25  1  0
 26 24  2  0
M  END
$$$$
