PIH.pdb
     RDKit          3D

 26 27  0  0  1  0  0  0  0  0999 V2000
   24.3987  -22.6252  -14.1562 N   0  0  0  0  0  0  0  0  0  0  0  0
   25.2816  -22.3952  -15.2695 C   0  0  0  0  0  0  0  0  0  0  0  0
   26.2943  -21.3915  -14.8221 C   0  0  0  0  0  0  0  0  0  0  0  0
   25.5015  -20.5455  -13.8433 C   0  0  0  0  0  0  0  0  0  0  0  0
   24.4802  -21.5065  -13.2729 C   0  0  1  0  0  0  0  0  0  0  0  0
   23.1355  -20.8336  -13.1929 C   0  0  0  0  0  0  0  0  0  0  0  0
   23.0089  -19.7696  -12.5360 O   0  0  0  0  0  0  0  0  0  0  0  0
   21.1493  -18.4361  -17.1851 C   0  0  0  0  0  0  0  0  0  0  0  0
   21.4219  -18.8681  -15.7768 C   0  0  0  0  0  0  0  0  0  0  0  0
   20.6191  -20.0548  -15.3674 C   0  0  2  0  0  0  0  0  0  0  0  0
   19.1483  -19.5762  -15.4831 C   0  0  0  0  0  0  0  0  0  0  0  0
   20.8235  -20.5716  -13.9865 C   0  0  2  0  0  0  0  0  0  0  0  0
   22.0125  -21.4020  -13.8597 N   0  0  0  0  0  0  0  0  0  0  0  0
   19.7107  -21.4629  -13.5691 C   0  0  0  0  0  0  0  0  0  0  0  0
   19.7484  -22.6697  -14.0073 O   0  0  0  0  0  0  0  0  0  0  0  0
   18.6237  -21.1593  -12.7518 N   0  0  0  0  0  0  0  0  0  0  0  0
   17.6161  -22.2267  -12.4192 C   0  0  1  0  0  0  0  0  0  0  0  0
   17.5490  -22.1952  -10.9299 C   0  0  0  0  0  0  0  0  0  0  0  0
   18.4029  -23.1473  -10.2164 C   0  0  0  0  0  0  0  0  0  0  0  0
   19.3353  -24.0697  -10.6074 C   0  0  0  0  0  0  0  0  0  0  0  0
   19.8772  -24.6595   -9.5175 N   0  0  0  0  0  0  0  0  0  0  0  0
   19.2937  -24.1138   -8.4629 C   0  0  0  0  0  0  0  0  0  0  0  0
   18.3984  -23.1966   -8.8472 N   0  0  0  0  0  0  0  0  0  0  0  0
   16.3748  -21.7502  -13.0650 C   0  0  0  0  0  0  0  0  0  0  0  0
   15.3453  -22.5826  -13.4190 O   0  0  0  0  0  0  0  0  0  0  0  0
   16.2271  -20.5315  -13.3132 O   0  0  0  0  0  0  0  0  0  0  0  0
  2  1  1  0
  3  2  1  0
  4  3  1  0
  4  5  1  0
  5  1  1  0
  5  6  1  6
  6  7  2  0
  9  8  1  0
  9 10  1  0
 10 11  1  1
 12 10  1  0
 13  6  1  0
 12 13  1  6
 14 12  1  0
 14 15  2  0
 16 14  1  0
 17 16  1  0
 18 19  1  0
 17 18  1  1
 19 23  1  0
 20 21  1  0
 20 19  2  0
 21 22  1  0
 22 23  2  0
 24 17  1  0
 24 25  1  0
 26 24  2  0
M  END
$$$$
