TIV.pdb
     RDKit          3D

 23 22  0  0  1  0  0  0  0  0999 V2000
   28.5209  -17.9629  -17.1021 C   0  0  0  0  0  0  0  0  0  0  0  0
   27.7852  -18.7094  -16.0352 C   0  0  1  0  0  0  0  0  0  0  0  0
   26.4681  -18.8534  -16.4484 O   0  0  0  0  0  0  0  0  0  0  0  0
   28.4388  -20.0099  -15.7041 C   0  0  2  0  0  0  0  0  0  0  0  0
   28.5097  -20.8631  -16.8801 N   0  0  0  0  0  0  0  0  0  0  0  0
   27.8055  -20.7276  -14.5868 C   0  0  0  0  0  0  0  0  0  0  0  0
   27.1193  -21.7401  -14.8357 O   0  0  0  0  0  0  0  0  0  0  0  0
   30.4788  -21.0736  -10.2508 C   0  0  0  0  0  0  0  0  0  0  0  0
   29.4307  -21.4272  -11.2745 C   0  0  0  0  0  0  0  0  0  0  0  0
   28.0742  -20.7826  -10.9534 C   0  0  2  0  0  0  0  0  0  0  0  0
   27.5759  -21.4941   -9.7275 C   0  0  0  0  0  0  0  0  0  0  0  0
   27.2338  -20.9527  -12.1755 C   0  0  2  0  0  0  0  0  0  0  0  0
   27.9670  -20.2832  -13.2590 N   0  0  0  0  0  0  0  0  0  0  0  0
   25.8871  -20.3699  -12.1131 C   0  0  0  0  0  0  0  0  0  0  0  0
   25.8059  -19.1054  -11.9485 O   0  0  0  0  0  0  0  0  0  0  0  0
   22.5850  -22.1057  -14.0093 C   0  0  0  0  0  0  0  0  0  0  0  0
   22.7933  -20.6612  -13.6871 C   0  0  1  0  0  0  0  0  0  0  0  0
   21.4904  -19.8823  -13.6960 C   0  0  0  0  0  0  0  0  0  0  0  0
   23.4131  -20.4422  -12.3214 C   0  0  2  0  0  0  0  0  0  0  0  0
   24.7058  -21.1255  -12.2256 N   0  0  0  0  0  0  0  0  0  0  0  0
   22.5325  -20.9094  -11.2216 C   0  0  0  0  0  0  0  0  0  0  0  0
   21.3722  -20.2401  -10.8604 O   0  0  0  0  0  0  0  0  0  0  0  0
   22.8000  -21.9588  -10.5472 O   0  0  0  0  0  0  0  0  0  0  0  0
  2  3  1  0
  2  1  1  6
  4  2  1  0
  4  5  1  6
  6  4  1  0
  6 13  1  0
  7  6  2  0
  8  9  1  0
 10 11  1  1
 10 12  1  0
 10  9  1  0
 12 13  1  6
 14 12  1  0
 15 14  2  0
 17 16  1  1
 18 17  1  0
 19 20  1  6
 19 17  1  0
 20 14  1  0
 21 19  1  0
 22 21  1  0
 23 21  2  0
M  END
$$$$
