TIV.pdb
     RDKit          3D

 23 22  0  0  1  0  0  0  0  0999 V2000
   24.5380  -11.3022  -15.1942 C   0  0  0  0  0  0  0  0  0  0  0  0
   24.2855  -12.1473  -16.4022 C   0  0  1  0  0  0  0  0  0  0  0  0
   25.0727  -13.2854  -16.2965 O   0  0  0  0  0  0  0  0  0  0  0  0
   22.8359  -12.4545  -16.5823 C   0  0  2  0  0  0  0  0  0  0  0  0
   22.6399  -13.3743  -17.6920 N   0  0  0  0  0  0  0  0  0  0  0  0
   21.9904  -11.2621  -16.7487 C   0  0  0  0  0  0  0  0  0  0  0  0
   22.0092  -10.6608  -17.8423 O   0  0  0  0  0  0  0  0  0  0  0  0
   17.0663  -11.4498  -16.1347 C   0  0  0  0  0  0  0  0  0  0  0  0
   18.4151  -10.8968  -16.5173 C   0  0  0  0  0  0  0  0  0  0  0  0
   18.9814   -9.9652  -15.4356 C   0  0  2  0  0  0  0  0  0  0  0  0
   18.0084   -8.8241  -15.3441 C   0  0  0  0  0  0  0  0  0  0  0  0
   20.3568   -9.5962  -15.8837 C   0  0  2  0  0  0  0  0  0  0  0  0
   21.1739  -10.8032  -15.6955 N   0  0  0  0  0  0  0  0  0  0  0  0
   20.9969   -8.4975  -15.1487 C   0  0  0  0  0  0  0  0  0  0  0  0
   21.2610   -8.6973  -13.9147 O   0  0  0  0  0  0  0  0  0  0  0  0
   24.1315   -6.6132  -16.3637 C   0  0  0  0  0  0  0  0  0  0  0  0
   23.1537   -5.6269  -15.8114 C   0  0  1  0  0  0  0  0  0  0  0  0
   22.4278   -4.8695  -16.9085 C   0  0  0  0  0  0  0  0  0  0  0  0
   22.0816   -6.2714  -14.9554 C   0  0  2  0  0  0  0  0  0  0  0  0
   21.3272   -7.2600  -15.7305 N   0  0  0  0  0  0  0  0  0  0  0  0
   21.1390   -5.2749  -14.3881 C   0  0  0  0  0  0  0  0  0  0  0  0
   19.8466   -5.1150  -14.8663 O   0  0  0  0  0  0  0  0  0  0  0  0
   21.4722   -4.5087  -13.4240 O   0  0  0  0  0  0  0  0  0  0  0  0
  2  3  1  0
  2  1  1  1
  4  2  1  0
  4  5  1  6
  6  4  1  0
  6 13  1  0
  7  6  2  0
  8  9  1  0
 10 11  1  6
 10 12  1  0
 10  9  1  0
 12 13  1  1
 14 12  1  0
 15 14  2  0
 17 16  1  6
 18 17  1  0
 19 20  1  6
 19 17  1  0
 20 14  1  0
 21 19  1  0
 22 21  1  0
 23 21  2  0
M  END
$$$$
