TIV.pdb
     RDKit          3D

 23 22  0  0  1  0  0  0  0  0999 V2000
   19.1332  -14.9499  -19.5038 C   0  0  0  0  0  0  0  0  0  0  0  0
   19.7312  -14.3126  -18.2900 C   0  0  1  0  0  0  0  0  0  0  0  0
   20.6581  -15.1981  -17.7582 O   0  0  0  0  0  0  0  0  0  0  0  0
   20.3103  -12.9690  -18.5860 C   0  0  2  0  0  0  0  0  0  0  0  0
   21.3478  -13.0691  -19.6006 N   0  0  0  0  0  0  0  0  0  0  0  0
   20.8197  -12.2651  -17.3988 C   0  0  0  0  0  0  0  0  0  0  0  0
   20.0666  -12.1283  -16.4129 O   0  0  0  0  0  0  0  0  0  0  0  0
   25.6071  -13.1536  -15.6527 C   0  0  0  0  0  0  0  0  0  0  0  0
   24.1695  -12.7020  -15.6814 C   0  0  0  0  0  0  0  0  0  0  0  0
   24.0398  -11.2252  -16.0826 C   0  0  2  0  0  0  0  0  0  0  0  0
   24.7353  -10.4552  -14.9961 C   0  0  0  0  0  0  0  0  0  0  0  0
   22.5771  -10.9584  -16.2173 C   0  0  2  0  0  0  0  0  0  0  0  0
   22.1323  -11.7523  -17.3713 N   0  0  0  0  0  0  0  0  0  0  0  0
   22.2007   -9.5593  -16.4587 C   0  0  0  0  0  0  0  0  0  0  0  0
   22.7447   -8.9725  -17.4548 O   0  0  0  0  0  0  0  0  0  0  0  0
   19.5710   -7.9376  -17.9007 C   0  0  0  0  0  0  0  0  0  0  0  0
   19.6834   -7.2410  -16.5832 C   0  0  1  0  0  0  0  0  0  0  0  0
   18.6500   -7.7360  -15.5875 C   0  0  0  0  0  0  0  0  0  0  0  0
   21.0359   -7.4312  -15.9259 C   0  0  2  0  0  0  0  0  0  0  0  0
   21.2853   -8.8504  -15.6596 N   0  0  0  0  0  0  0  0  0  0  0  0
   21.1585   -6.6688  -14.6583 C   0  0  0  0  0  0  0  0  0  0  0  0
   21.3415   -5.2940  -14.6302 O   0  0  0  0  0  0  0  0  0  0  0  0
   21.1014   -7.2439  -13.5209 O   0  0  0  0  0  0  0  0  0  0  0  0
  2  3  1  0
  2  1  1  6
  4  2  1  0
  4  5  1  6
  6  4  1  0
  6 13  1  0
  7  6  2  0
  8  9  1  0
 10 11  1  1
 10 12  1  0
 10  9  1  0
 12 13  1  6
 14 12  1  0
 15 14  2  0
 17 16  1  6
 18 17  1  0
 19 20  1  1
 19 17  1  0
 20 14  1  0
 21 19  1  0
 22 21  1  0
 23 21  2  0
M  END
$$$$
