TIV.pdb
     RDKit          3D

 23 22  0  0  1  0  0  0  0  0999 V2000
   23.2179  -23.7582  -15.7066 C   0  0  0  0  0  0  0  0  0  0  0  0
   24.1710  -24.7508  -16.2927 C   0  0  1  0  0  0  0  0  0  0  0  0
   23.5116  -25.4216  -17.3132 O   0  0  0  0  0  0  0  0  0  0  0  0
   25.4444  -24.1133  -16.7403 C   0  0  2  0  0  0  0  0  0  0  0  0
   26.3609  -25.1120  -17.2679 N   0  0  0  0  0  0  0  0  0  0  0  0
   26.1052  -23.3085  -15.7010 C   0  0  0  0  0  0  0  0  0  0  0  0
   26.7611  -23.8939  -14.8150 O   0  0  0  0  0  0  0  0  0  0  0  0
   28.3656  -18.6274  -16.8259 C   0  0  0  0  0  0  0  0  0  0  0  0
   28.0336  -19.9245  -16.1341 C   0  0  0  0  0  0  0  0  0  0  0  0
   26.8576  -19.7701  -15.1584 C   0  0  2  0  0  0  0  0  0  0  0  0
   27.3034  -18.7419  -14.1576 C   0  0  0  0  0  0  0  0  0  0  0  0
   26.5979  -21.1309  -14.6023 C   0  0  2  0  0  0  0  0  0  0  0  0
   26.0013  -21.9029  -15.7013 N   0  0  0  0  0  0  0  0  0  0  0  0
   25.6799  -21.1905  -13.4572 C   0  0  0  0  0  0  0  0  0  0  0  0
   24.4333  -21.3016  -13.7142 O   0  0  0  0  0  0  0  0  0  0  0  0
   26.5731  -19.6077   -9.6018 C   0  0  0  0  0  0  0  0  0  0  0  0
   25.7854  -20.8742   -9.6998 C   0  0  1  0  0  0  0  0  0  0  0  0
   24.6869  -20.9436   -8.6545 C   0  0  0  0  0  0  0  0  0  0  0  0
   25.1078  -21.0478  -11.0444 C   0  0  2  0  0  0  0  0  0  0  0  0
   26.1028  -21.1335  -12.1167 N   0  0  0  0  0  0  0  0  0  0  0  0
   24.1614  -19.9445  -11.3450 C   0  0  0  0  0  0  0  0  0  0  0  0
   22.7935  -20.0608  -11.1456 O   0  0  0  0  0  0  0  0  0  0  0  0
   24.5613  -18.8240  -11.8058 O   0  0  0  0  0  0  0  0  0  0  0  0
  2  3  1  0
  2  1  1  6
  4  2  1  0
  4  5  1  1
  6  4  1  0
  6 13  1  0
  7  6  2  0
  8  9  1  0
 10 11  1  1
 10 12  1  0
 10  9  1  0
 12 13  1  6
 14 12  1  0
 15 14  2  0
 17 16  1  6
 18 17  1  0
 19 20  1  6
 19 17  1  0
 20 14  1  0
 21 19  1  0
 22 21  1  0
 23 21  2  0
M  END
$$$$
