TIV.pdb
     RDKit          3D

 23 22  0  0  1  0  0  0  0  0999 V2000
   18.1830  -10.9482  -20.2911 C   0  0  0  0  0  0  0  0  0  0  0  0
   18.7367  -10.3013  -19.0615 C   0  0  1  0  0  0  0  0  0  0  0  0
   17.8245   -9.3456  -18.6367 O   0  0  0  0  0  0  0  0  0  0  0  0
   19.0737  -11.2983  -18.0029 C   0  0  2  0  0  0  0  0  0  0  0  0
   17.8990  -12.0729  -17.6344 N   0  0  0  0  0  0  0  0  0  0  0  0
   19.6964  -10.7099  -16.8069 C   0  0  0  0  0  0  0  0  0  0  0  0
   18.9891  -10.5118  -15.7978 O   0  0  0  0  0  0  0  0  0  0  0  0
   23.8578  -12.8086  -14.8277 C   0  0  0  0  0  0  0  0  0  0  0  0
   22.6241  -11.9592  -14.9947 C   0  0  0  0  0  0  0  0  0  0  0  0
   22.9693  -10.5207  -15.4077 C   0  0  2  0  0  0  0  0  0  0  0  0
   23.8480   -9.9916  -14.3099 C   0  0  0  0  0  0  0  0  0  0  0  0
   21.6656   -9.8134  -15.5780 C   0  0  2  0  0  0  0  0  0  0  0  0
   21.0651  -10.3736  -16.7967 N   0  0  0  0  0  0  0  0  0  0  0  0
   21.7442   -8.3558  -15.7412 C   0  0  0  0  0  0  0  0  0  0  0  0
   22.3752   -7.9164  -16.7616 O   0  0  0  0  0  0  0  0  0  0  0  0
   20.1132   -3.8345  -15.3481 C   0  0  0  0  0  0  0  0  0  0  0  0
   20.0118   -5.3248  -15.2947 C   0  0  1  0  0  0  0  0  0  0  0  0
   19.4615   -5.9044  -16.5853 C   0  0  0  0  0  0  0  0  0  0  0  0
   21.3472   -6.0013  -15.0572 C   0  0  2  0  0  0  0  0  0  0  0  0
   21.1664   -7.4397  -14.8436 N   0  0  0  0  0  0  0  0  0  0  0  0
   22.0729   -5.4241  -13.8982 C   0  0  0  0  0  0  0  0  0  0  0  0
   22.9883   -4.3903  -14.0317 O   0  0  0  0  0  0  0  0  0  0  0  0
   21.8903   -5.8530  -12.7106 O   0  0  0  0  0  0  0  0  0  0  0  0
  2  3  1  0
  2  1  1  6
  4  2  1  0
  4  5  1  1
  6  4  1  0
  6 13  1  0
  7  6  2  0
  8  9  1  0
 10 11  1  1
 10 12  1  0
 10  9  1  0
 12 13  1  6
 14 12  1  0
 15 14  2  0
 17 16  1  6
 18 17  1  0
 19 20  1  1
 19 17  1  0
 20 14  1  0
 21 19  1  0
 22 21  1  0
 23 21  2  0
M  END
$$$$
