TIV.pdb
     RDKit          3D

 23 22  0  0  1  0  0  0  0  0999 V2000
   28.5674  -18.0755  -15.9570 C   0  0  0  0  0  0  0  0  0  0  0  0
   27.3507  -18.7632  -15.4242 C   0  0  1  0  0  0  0  0  0  0  0  0
   26.4705  -18.9487  -16.4811 O   0  0  0  0  0  0  0  0  0  0  0  0
   27.6861  -20.0324  -14.7138 C   0  0  2  0  0  0  0  0  0  0  0  0
   28.3319  -20.9715  -15.6175 N   0  0  0  0  0  0  0  0  0  0  0  0
   26.5356  -20.6663  -14.0512 C   0  0  0  0  0  0  0  0  0  0  0  0
   26.0977  -21.7421  -14.5081 O   0  0  0  0  0  0  0  0  0  0  0  0
   26.5639  -20.4785   -9.0360 C   0  0  0  0  0  0  0  0  0  0  0  0
   26.0287  -21.1230  -10.2889 C   0  0  0  0  0  0  0  0  0  0  0  0
   24.8245  -20.3585  -10.8582 C   0  0  2  0  0  0  0  0  0  0  0  0
   23.6468  -20.8038  -10.0383 C   0  0  0  0  0  0  0  0  0  0  0  0
   24.7598  -20.7062  -12.3086 C   0  0  2  0  0  0  0  0  0  0  0  0
   25.9353  -20.0729  -12.9225 N   0  0  0  0  0  0  0  0  0  0  0  0
   23.5671  -20.2384  -13.0269 C   0  0  0  0  0  0  0  0  0  0  0  0
   23.4199  -18.9755  -13.1527 O   0  0  0  0  0  0  0  0  0  0  0  0
   20.0791  -20.6738  -16.3730 C   0  0  0  0  0  0  0  0  0  0  0  0
   21.3237  -21.1051  -15.6667 C   0  0  1  0  0  0  0  0  0  0  0  0
   22.5768  -20.6692  -16.4042 C   0  0  0  0  0  0  0  0  0  0  0  0
   21.4348  -20.5407  -14.2644 C   0  0  2  0  0  0  0  0  0  0  0  0
   22.5992  -21.1009  -13.5733 N   0  0  0  0  0  0  0  0  0  0  0  0
   20.2175  -20.7987  -13.4552 C   0  0  0  0  0  0  0  0  0  0  0  0
   20.0874  -21.9130  -12.6391 O   0  0  0  0  0  0  0  0  0  0  0  0
   19.2209  -20.0023  -13.4691 O   0  0  0  0  0  0  0  0  0  0  0  0
  2  3  1  0
  2  1  1  6
  4  2  1  0
  4  5  1  6
  6  4  1  0
  6 13  1  0
  7  6  2  0
  8  9  1  0
 10 11  1  1
 10 12  1  0
 10  9  1  0
 12 13  1  6
 14 12  1  0
 15 14  2  0
 17 16  1  6
 18 17  1  0
 19 20  1  1
 19 17  1  0
 20 14  1  0
 21 19  1  0
 22 21  1  0
 23 21  2  0
M  END
$$$$
