IQF.pdb
     RDKit          3D

 29 29  0  0  1  0  0  0  0  0999 V2000
   28.6999  -17.3782  -16.3721 C   0  0  0  0  0  0  0  0  0  0  0  0
   27.4725  -16.5363  -16.0199 C   0  0  0  0  0  0  0  0  0  0  0  0
   26.8235  -17.1632  -14.8355 C   0  0  2  0  0  0  0  0  0  0  0  0
   27.5801  -16.7845  -13.5718 C   0  0  0  0  0  0  0  0  0  0  0  0
   26.5312  -18.6136  -14.9129 C   0  0  2  0  0  0  0  0  0  0  0  0
   25.7268  -18.8469  -16.1428 N   0  0  0  0  0  0  0  0  0  0  0  0
   25.8433  -19.2608  -13.8093 C   0  0  0  0  0  0  0  0  0  0  0  0
   24.6833  -18.8192  -13.4663 O   0  0  0  0  0  0  0  0  0  0  0  0
   24.7222  -24.9364  -13.4660 N   0  0  0  0  0  0  0  0  0  0  0  0
   24.0725  -23.8423  -14.0687 C   0  0  0  0  0  0  0  0  0  0  0  0
   23.2762  -24.0892  -15.0290 O   0  0  0  0  0  0  0  0  0  0  0  0
   24.3101  -22.4379  -13.5938 C   0  0  0  0  0  0  0  0  0  0  0  0
   25.2413  -22.4139  -12.4241 C   0  0  0  0  0  0  0  0  0  0  0  0
   25.5674  -20.9928  -11.9610 C   0  0  2  0  0  0  0  0  0  0  0  0
   26.2854  -20.3555  -13.0337 N   0  0  0  0  0  0  0  0  0  0  0  0
   26.1672  -20.9943  -10.6501 C   0  0  0  0  0  0  0  0  0  0  0  0
   27.4503  -20.9347  -10.6076 O   0  0  0  0  0  0  0  0  0  0  0  0
   25.5390  -21.0568   -9.3833 N   0  0  0  0  0  0  0  0  0  0  0  0
   26.3427  -21.0464   -8.1711 C   0  0  1  0  0  0  0  0  0  0  0  0
   27.3012  -19.9421   -8.0233 C   0  0  0  0  0  0  0  0  0  0  0  0
   27.9483  -19.7566   -6.7299 C   0  0  0  0  0  0  0  0  0  0  0  0
   28.8410  -20.7118   -6.2812 C   0  0  0  0  0  0  0  0  0  0  0  0
   29.5008  -20.6096   -5.0607 C   0  0  0  0  0  0  0  0  0  0  0  0
   29.2730  -19.5243   -4.2521 C   0  0  0  0  0  0  0  0  0  0  0  0
   28.3876  -18.5612   -4.6815 C   0  0  0  0  0  0  0  0  0  0  0  0
   27.7277  -18.6766   -5.9168 C   0  0  0  0  0  0  0  0  0  0  0  0
   25.4229  -21.1463   -6.9754 C   0  0  0  0  0  0  0  0  0  0  0  0
   24.0851  -21.0351   -7.1726 O   0  0  0  0  0  0  0  0  0  0  0  0
   25.9151  -21.3236   -5.8601 O   0  0  0  0  0  0  0  0  0  0  0  0
  2  3  1  0
  2  1  1  0
  3  5  1  0
  3  4  1  1
  5  7  1  0
  5  6  1  6
  7  8  2  0
  7 15  1  0
  9 10  1  0
 10 11  2  0
 10 12  1  0
 12 13  1  0
 14 13  1  6
 14 16  1  0
 15 14  1  0
 16 17  2  0
 18 16  1  0
 18 19  1  0
 19 27  1  0
 19 20  1  1
 21 26  2  0
 21 20  1  0
 22 21  1  0
 23 24  1  0
 23 22  2  0
 24 25  2  0
 25 26  1  0
 27 28  1  0
 29 27  2  0
M  END
$$$$
