IQF.pdb
     RDKit          3D

 29 29  0  0  1  0  0  0  0  0999 V2000
   29.7449  -17.8862  -16.6096 C   0  0  0  0  0  0  0  0  0  0  0  0
   28.2553  -17.9710  -16.9457 C   0  0  0  0  0  0  0  0  0  0  0  0
   27.4989  -17.8235  -15.6715 C   0  0  2  0  0  0  0  0  0  0  0  0
   27.6568  -16.4079  -15.1388 C   0  0  0  0  0  0  0  0  0  0  0  0
   27.7208  -18.8535  -14.6301 C   0  0  2  0  0  0  0  0  0  0  0  0
   27.6304  -20.1859  -15.2864 N   0  0  0  0  0  0  0  0  0  0  0  0
   26.8589  -18.8809  -13.4611 C   0  0  0  0  0  0  0  0  0  0  0  0
   26.0925  -17.8697  -13.2406 O   0  0  0  0  0  0  0  0  0  0  0  0
   21.6279  -21.6436  -10.6832 N   0  0  0  0  0  0  0  0  0  0  0  0
   22.0620  -20.8974  -11.7956 C   0  0  0  0  0  0  0  0  0  0  0  0
   21.5005  -21.1296  -12.9128 O   0  0  0  0  0  0  0  0  0  0  0  0
   23.1452  -19.8659  -11.6663 C   0  0  0  0  0  0  0  0  0  0  0  0
   24.3805  -20.2859  -12.3968 C   0  0  0  0  0  0  0  0  0  0  0  0
   25.6507  -20.0849  -11.5683 C   0  0  2  0  0  0  0  0  0  0  0  0
   26.7353  -19.9069  -12.4981 N   0  0  0  0  0  0  0  0  0  0  0  0
   25.7837  -21.1050  -10.5584 C   0  0  0  0  0  0  0  0  0  0  0  0
   25.0198  -22.1317  -10.6776 O   0  0  0  0  0  0  0  0  0  0  0  0
   26.6438  -21.1392   -9.4349 N   0  0  0  0  0  0  0  0  0  0  0  0
   26.0926  -21.0360   -8.0928 C   0  0  1  0  0  0  0  0  0  0  0  0
   26.3528  -19.7853   -7.3662 C   0  0  0  0  0  0  0  0  0  0  0  0
   27.4413  -19.7629   -6.3962 C   0  0  0  0  0  0  0  0  0  0  0  0
   28.0810  -18.5667   -6.1306 C   0  0  0  0  0  0  0  0  0  0  0  0
   29.1267  -18.4596   -5.2192 C   0  0  0  0  0  0  0  0  0  0  0  0
   29.5577  -19.5736   -4.5432 C   0  0  0  0  0  0  0  0  0  0  0  0
   28.9328  -20.7747   -4.7933 C   0  0  0  0  0  0  0  0  0  0  0  0
   27.8775  -20.8691   -5.7164 C   0  0  0  0  0  0  0  0  0  0  0  0
   24.6144  -21.3485   -8.1475 C   0  0  0  0  0  0  0  0  0  0  0  0
   24.0988  -22.2165   -7.2410 O   0  0  0  0  0  0  0  0  0  0  0  0
   23.9242  -20.8078   -9.0130 O   0  0  0  0  0  0  0  0  0  0  0  0
  2  3  1  0
  2  1  1  0
  3  5  1  0
  3  4  1  1
  5  7  1  0
  5  6  1  6
  7  8  2  0
  7 15  1  0
  9 10  1  0
 10 11  2  0
 10 12  1  0
 12 13  1  0
 14 13  1  6
 14 16  1  0
 15 14  1  0
 16 17  2  0
 18 16  1  0
 18 19  1  0
 19 27  1  0
 19 20  1  6
 21 26  2  0
 21 20  1  0
 22 21  1  0
 23 24  1  0
 23 22  2  0
 24 25  2  0
 25 26  1  0
 27 28  1  0
 29 27  2  0
M  END
$$$$
