IQF.pdb
     RDKit          3D

 29 29  0  0  1  0  0  0  0  0999 V2000
   28.9762  -18.5960  -18.3631 C   0  0  0  0  0  0  0  0  0  0  0  0
   27.7296  -17.9354  -18.9539 C   0  0  0  0  0  0  0  0  0  0  0  0
   26.6435  -18.0405  -17.9407 C   0  0  2  0  0  0  0  0  0  0  0  0
   26.6020  -19.4508  -17.3731 C   0  0  0  0  0  0  0  0  0  0  0  0
   25.3039  -17.5424  -18.3309 C   0  0  2  0  0  0  0  0  0  0  0  0
   25.4564  -16.1257  -18.7598 N   0  0  0  0  0  0  0  0  0  0  0  0
   24.2171  -17.5948  -17.3686 C   0  0  0  0  0  0  0  0  0  0  0  0
   24.2647  -16.8128  -16.3466 O   0  0  0  0  0  0  0  0  0  0  0  0
   21.6301  -18.8492  -19.7479 N   0  0  0  0  0  0  0  0  0  0  0  0
   20.6680  -17.8943  -19.3669 C   0  0  0  0  0  0  0  0  0  0  0  0
   20.2313  -17.1100  -20.2677 O   0  0  0  0  0  0  0  0  0  0  0  0
   20.1757  -17.8074  -17.9512 C   0  0  0  0  0  0  0  0  0  0  0  0
   20.7482  -18.9049  -17.1122 C   0  0  0  0  0  0  0  0  0  0  0  0
   22.0368  -18.4893  -16.3999 C   0  0  2  0  0  0  0  0  0  0  0  0
   23.0660  -18.4128  -17.4036 N   0  0  0  0  0  0  0  0  0  0  0  0
   22.2807  -19.3089  -15.2393 C   0  0  0  0  0  0  0  0  0  0  0  0
   22.9616  -20.3823  -15.4293 O   0  0  0  0  0  0  0  0  0  0  0  0
   21.8698  -19.1024  -13.9008 N   0  0  0  0  0  0  0  0  0  0  0  0
   22.2885  -20.0279  -12.8598 C   0  0  1  0  0  0  0  0  0  0  0  0
   23.0272  -19.4558  -11.7254 C   0  0  0  0  0  0  0  0  0  0  0  0
   23.2909  -20.3076  -10.5717 C   0  0  0  0  0  0  0  0  0  0  0  0
   24.5692  -20.7947  -10.3734 C   0  0  0  0  0  0  0  0  0  0  0  0
   24.9039  -21.6119   -9.2983 C   0  0  0  0  0  0  0  0  0  0  0  0
   23.9425  -21.9614   -8.3833 C   0  0  0  0  0  0  0  0  0  0  0  0
   22.6629  -21.4857   -8.5629 C   0  0  0  0  0  0  0  0  0  0  0  0
   22.3382  -20.6609   -9.6533 C   0  0  0  0  0  0  0  0  0  0  0  0
   21.0853  -20.8175  -12.3967 C   0  0  0  0  0  0  0  0  0  0  0  0
   21.2654  -22.0994  -11.9902 O   0  0  0  0  0  0  0  0  0  0  0  0
   19.9794  -20.2746  -12.4039 O   0  0  0  0  0  0  0  0  0  0  0  0
  2  3  1  0
  2  1  1  0
  3  5  1  0
  3  4  1  6
  5  7  1  0
  5  6  1  1
  7  8  2  0
  7 15  1  0
  9 10  1  0
 10 11  2  0
 10 12  1  0
 12 13  1  0
 14 13  1  6
 14 16  1  0
 15 14  1  0
 16 17  2  0
 18 16  1  0
 18 19  1  0
 19 27  1  0
 19 20  1  1
 21 26  2  0
 21 20  1  0
 22 21  1  0
 23 24  1  0
 23 22  2  0
 24 25  2  0
 25 26  1  0
 27 28  1  0
 29 27  2  0
M  END
$$$$
