IQF.pdb
     RDKit          3D

 29 29  0  0  1  0  0  0  0  0999 V2000
   28.9407  -16.2127  -18.3903 C   0  0  0  0  0  0  0  0  0  0  0  0
   27.4144  -16.3090  -18.4090 C   0  0  0  0  0  0  0  0  0  0  0  0
   26.9821  -16.8371  -17.0856 C   0  0  2  0  0  0  0  0  0  0  0  0
   27.8202  -18.0510  -16.7157 C   0  0  0  0  0  0  0  0  0  0  0  0
   25.5313  -17.0634  -16.8888 C   0  0  2  0  0  0  0  0  0  0  0  0
   24.8330  -15.7776  -17.1596 N   0  0  0  0  0  0  0  0  0  0  0  0
   25.0556  -17.5600  -15.6093 C   0  0  0  0  0  0  0  0  0  0  0  0
   25.1396  -16.7877  -14.5822 O   0  0  0  0  0  0  0  0  0  0  0  0
   20.2684  -19.6247  -13.3559 N   0  0  0  0  0  0  0  0  0  0  0  0
   21.0638  -20.4235  -12.5121 C   0  0  0  0  0  0  0  0  0  0  0  0
   20.5552  -20.7978  -11.4083 O   0  0  0  0  0  0  0  0  0  0  0  0
   22.4584  -20.8193  -12.9025 C   0  0  0  0  0  0  0  0  0  0  0  0
   22.8721  -20.1532  -14.1758 C   0  0  0  0  0  0  0  0  0  0  0  0
   24.1605  -19.3425  -14.0238 C   0  0  2  0  0  0  0  0  0  0  0  0
   24.4848  -18.8206  -15.3257 N   0  0  0  0  0  0  0  0  0  0  0  0
   25.1718  -20.0937  -13.3230 C   0  0  0  0  0  0  0  0  0  0  0  0
   25.7169  -21.0616  -13.9693 O   0  0  0  0  0  0  0  0  0  0  0  0
   25.6567  -19.9201  -12.0046 N   0  0  0  0  0  0  0  0  0  0  0  0
   26.7452  -20.7509  -11.5142 C   0  0  1  0  0  0  0  0  0  0  0  0
   27.7923  -20.0754  -10.7349 C   0  0  0  0  0  0  0  0  0  0  0  0
   27.5231  -19.7686   -9.3351 C   0  0  0  0  0  0  0  0  0  0  0  0
   27.8036  -20.7195   -8.3719 C   0  0  0  0  0  0  0  0  0  0  0  0
   27.5774  -20.5056   -7.0160 C   0  0  0  0  0  0  0  0  0  0  0  0
   27.0559  -19.3086   -6.5930 C   0  0  0  0  0  0  0  0  0  0  0  0
   26.7702  -18.3479   -7.5371 C   0  0  0  0  0  0  0  0  0  0  0  0
   27.0036  -18.5768   -8.9038 C   0  0  0  0  0  0  0  0  0  0  0  0
   26.1615  -21.9237  -10.7594 C   0  0  0  0  0  0  0  0  0  0  0  0
   26.9841  -22.9417  -10.4018 O   0  0  0  0  0  0  0  0  0  0  0  0
   24.9585  -21.9203  -10.4939 O   0  0  0  0  0  0  0  0  0  0  0  0
  2  3  1  0
  2  1  1  0
  3  5  1  0
  3  4  1  6
  5  7  1  0
  5  6  1  1
  7  8  2  0
  7 15  1  0
  9 10  1  0
 10 11  2  0
 10 12  1  0
 12 13  1  0
 14 13  1  6
 14 16  1  0
 15 14  1  0
 16 17  2  0
 18 16  1  0
 18 19  1  0
 19 27  1  0
 19 20  1  1
 21 26  2  0
 21 20  1  0
 22 21  1  0
 23 24  1  0
 23 22  2  0
 24 25  2  0
 25 26  1  0
 27 28  1  0
 29 27  2  0
M  END
$$$$
