IQF.pdb
     RDKit          3D

 29 29  0  0  1  0  0  0  0  0999 V2000
   20.6929  -21.1844  -11.4357 C   0  0  0  0  0  0  0  0  0  0  0  0
   22.0762  -21.8243  -11.5632 C   0  0  0  0  0  0  0  0  0  0  0  0
   22.8532  -21.0206  -12.5468 C   0  0  2  0  0  0  0  0  0  0  0  0
   22.0692  -20.8939  -13.8438 C   0  0  0  0  0  0  0  0  0  0  0  0
   24.2664  -21.4058  -12.7693 C   0  0  2  0  0  0  0  0  0  0  0  0
   24.9561  -21.3729  -11.4512 N   0  0  0  0  0  0  0  0  0  0  0  0
   25.0731  -20.6428  -13.7058 C   0  0  0  0  0  0  0  0  0  0  0  0
   25.4988  -19.4823  -13.3446 O   0  0  0  0  0  0  0  0  0  0  0  0
   29.0832  -23.0291  -17.7098 N   0  0  0  0  0  0  0  0  0  0  0  0
   28.8981  -23.0904  -16.3153 C   0  0  0  0  0  0  0  0  0  0  0  0
   29.5222  -23.9984  -15.6801 O   0  0  0  0  0  0  0  0  0  0  0  0
   27.9995  -22.1192  -15.6059 C   0  0  0  0  0  0  0  0  0  0  0  0
   27.2563  -21.2614  -16.5795 C   0  0  0  0  0  0  0  0  0  0  0  0
   26.3264  -20.2605  -15.8910 C   0  0  2  0  0  0  0  0  0  0  0  0
   25.4769  -21.0152  -15.0072 N   0  0  0  0  0  0  0  0  0  0  0  0
   25.7003  -19.3836  -16.8487 C   0  0  0  0  0  0  0  0  0  0  0  0
   24.5193  -19.7095  -17.2368 O   0  0  0  0  0  0  0  0  0  0  0  0
   26.2065  -18.1994  -17.4359 N   0  0  0  0  0  0  0  0  0  0  0  0
   25.3936  -17.4510  -18.3817 C   0  0  1  0  0  0  0  0  0  0  0  0
   24.4955  -16.4323  -17.8196 C   0  0  0  0  0  0  0  0  0  0  0  0
   25.0702  -15.3985  -16.9670 C   0  0  0  0  0  0  0  0  0  0  0  0
   25.3810  -14.1690  -17.5170 C   0  0  0  0  0  0  0  0  0  0  0  0
   25.9306  -13.1299  -16.7728 C   0  0  0  0  0  0  0  0  0  0  0  0
   26.1825  -13.3090  -15.4356 C   0  0  0  0  0  0  0  0  0  0  0  0
   25.8793  -14.5266  -14.8687 C   0  0  0  0  0  0  0  0  0  0  0  0
   25.3243  -15.5679  -15.6318 C   0  0  0  0  0  0  0  0  0  0  0  0
   26.2956  -16.8686  -19.4461 C   0  0  0  0  0  0  0  0  0  0  0  0
   25.7284  -16.2897  -20.5343 O   0  0  0  0  0  0  0  0  0  0  0  0
   27.5161  -16.9387  -19.2942 O   0  0  0  0  0  0  0  0  0  0  0  0
  2  3  1  0
  2  1  1  0
  3  5  1  0
  3  4  1  6
  5  7  1  0
  5  6  1  1
  7  8  2  0
  7 15  1  0
  9 10  1  0
 10 11  2  0
 10 12  1  0
 12 13  1  0
 14 13  1  6
 14 16  1  0
 15 14  1  0
 16 17  2  0
 18 16  1  0
 18 19  1  0
 19 27  1  0
 19 20  1  1
 21 26  2  0
 21 20  1  0
 22 21  1  0
 23 24  1  0
 23 22  2  0
 24 25  2  0
 25 26  1  0
 27 28  1  0
 29 27  2  0
M  END
$$$$
