IQF.pdb
     RDKit          3D

 29 29  0  0  1  0  0  0  0  0999 V2000
   27.3337  -15.5789  -15.7276 C   0  0  0  0  0  0  0  0  0  0  0  0
   27.7628  -16.9437  -16.2684 C   0  0  0  0  0  0  0  0  0  0  0  0
   26.6167  -17.8774  -16.0898 C   0  0  2  0  0  0  0  0  0  0  0  0
   26.2473  -17.9653  -14.6172 C   0  0  0  0  0  0  0  0  0  0  0  0
   26.7218  -19.2081  -16.7325 C   0  0  2  0  0  0  0  0  0  0  0  0
   27.0122  -18.9907  -18.1757 N   0  0  0  0  0  0  0  0  0  0  0  0
   25.6038  -20.1314  -16.6442 C   0  0  0  0  0  0  0  0  0  0  0  0
   24.5103  -19.8303  -17.2541 O   0  0  0  0  0  0  0  0  0  0  0  0
   25.6286  -26.2418  -15.6667 N   0  0  0  0  0  0  0  0  0  0  0  0
   26.5633  -25.2594  -16.0462 C   0  0  0  0  0  0  0  0  0  0  0  0
   27.7328  -25.6512  -16.3563 O   0  0  0  0  0  0  0  0  0  0  0  0
   26.1919  -23.8052  -16.0846 C   0  0  0  0  0  0  0  0  0  0  0  0
   24.7580  -23.6042  -15.7109 C   0  0  0  0  0  0  0  0  0  0  0  0
   24.3670  -22.1264  -15.6531 C   0  0  2  0  0  0  0  0  0  0  0  0
   25.5503  -21.3661  -15.9603 N   0  0  0  0  0  0  0  0  0  0  0  0
   23.6609  -21.8193  -14.4343 C   0  0  0  0  0  0  0  0  0  0  0  0
   24.1492  -22.3088  -13.3509 O   0  0  0  0  0  0  0  0  0  0  0  0
   22.4876  -21.0483  -14.2549 N   0  0  0  0  0  0  0  0  0  0  0  0
   21.8615  -20.9700  -12.9444 C   0  0  1  0  0  0  0  0  0  0  0  0
   22.4020  -19.9701  -12.0127 C   0  0  0  0  0  0  0  0  0  0  0  0
   23.6859  -20.2406  -11.3765 C   0  0  0  0  0  0  0  0  0  0  0  0
   23.7085  -20.6708  -10.0631 C   0  0  0  0  0  0  0  0  0  0  0  0
   24.8900  -20.9513   -9.3842 C   0  0  0  0  0  0  0  0  0  0  0  0
   26.0950  -20.8032  -10.0244 C   0  0  0  0  0  0  0  0  0  0  0  0
   26.0937  -20.3762  -11.3334 C   0  0  0  0  0  0  0  0  0  0  0  0
   24.8930  -20.0964  -12.0076 C   0  0  0  0  0  0  0  0  0  0  0  0
   20.3692  -20.8094  -13.1258 C   0  0  0  0  0  0  0  0  0  0  0  0
   19.5729  -20.8429  -12.0278 O   0  0  0  0  0  0  0  0  0  0  0  0
   19.9220  -20.6549  -14.2633 O   0  0  0  0  0  0  0  0  0  0  0  0
  2  3  1  0
  2  1  1  0
  3  5  1  0
  3  4  1  1
  5  7  1  0
  5  6  1  6
  7  8  2  0
  7 15  1  0
  9 10  1  0
 10 11  2  0
 10 12  1  0
 12 13  1  0
 14 13  1  1
 14 16  1  0
 15 14  1  0
 16 17  2  0
 18 16  1  0
 18 19  1  0
 19 27  1  0
 19 20  1  6
 21 26  2  0
 21 20  1  0
 22 21  1  0
 23 24  1  0
 23 22  2  0
 24 25  2  0
 25 26  1  0
 27 28  1  0
 29 27  2  0
M  END
$$$$
