IQF.pdb
     RDKit          3D

 29 29  0  0  1  0  0  0  0  0999 V2000
  115.1183    3.3002  -67.5750 C   0  0  0  0  0  0  0  0  0  0  0  0
  115.1124    2.0601  -66.6797 C   0  0  0  0  0  0  0  0  0  0  0  0
  113.9731    2.1975  -65.7308 C   0  0  2  0  0  0  0  0  0  0  0  0
  113.2094    0.8850  -65.6480 C   0  0  0  0  0  0  0  0  0  0  0  0
  113.0811    3.3668  -65.9097 C   0  0  2  0  0  0  0  0  0  0  0  0
  112.0608    3.0042  -66.9305 N   0  0  0  0  0  0  0  0  0  0  0  0
  113.6524    4.6454  -66.2953 C   0  0  0  0  0  0  0  0  0  0  0  0
  113.0609    5.3298  -67.2119 O   0  0  0  0  0  0  0  0  0  0  0  0
  119.3027    3.6574  -63.5030 N   0  0  0  0  0  0  0  0  0  0  0  0
  118.0059    3.9817  -63.9455 C   0  0  0  0  0  0  0  0  0  0  0  0
  117.5886    5.1623  -63.7234 O   0  0  0  0  0  0  0  0  0  0  0  0
  117.1500    2.9720  -64.6540 C   0  0  0  0  0  0  0  0  0  0  0  0
  115.7107    3.3774  -64.6366 C   0  0  0  0  0  0  0  0  0  0  0  0
  115.5278    4.8955  -64.5888 C   0  0  2  0  0  0  0  0  0  0  0  0
  114.8093    5.2699  -65.7788 N   0  0  0  0  0  0  0  0  0  0  0  0
  116.7743    5.5642  -64.3105 C   0  0  0  0  0  0  0  0  0  0  0  0
  117.7421    4.8241  -63.9014 O   0  0  0  0  0  0  0  0  0  0  0  0
  117.0912    6.9392  -64.4204 N   0  0  0  0  0  0  0  0  0  0  0  0
  116.0281    7.9225  -64.5562 C   0  0  1  0  0  0  0  0  0  0  0  0
  115.4257    8.4204  -63.3115 C   0  0  0  0  0  0  0  0  0  0  0  0
  114.4986    7.5516  -62.5962 C   0  0  0  0  0  0  0  0  0  0  0  0
  114.7801    6.2017  -62.5000 C   0  0  0  0  0  0  0  0  0  0  0  0
  113.9489    5.3061  -61.8347 C   0  0  0  0  0  0  0  0  0  0  0  0
  112.7971    5.7582  -61.2409 C   0  0  0  0  0  0  0  0  0  0  0  0
  112.4993    7.0998  -61.3250 C   0  0  0  0  0  0  0  0  0  0  0  0
  113.3476    7.9939  -62.0000 C   0  0  0  0  0  0  0  0  0  0  0  0
  116.5211    9.0565  -65.4261 C   0  0  0  0  0  0  0  0  0  0  0  0
  116.2851   10.3320  -65.0281 O   0  0  0  0  0  0  0  0  0  0  0  0
  117.1196    8.7886  -66.4691 O   0  0  0  0  0  0  0  0  0  0  0  0
  2  3  1  0
  2  1  1  0
  3  5  1  0
  3  4  1  6
  5  7  1  0
  5  6  1  6
  7  8  2  0
  7 15  1  0
  9 10  1  0
 10 11  2  0
 10 12  1  0
 12 13  1  0
 14 13  1  6
 14 16  1  0
 15 14  1  0
 16 17  2  0
 18 16  1  0
 18 19  1  0
 19 27  1  0
 19 20  1  1
 21 26  2  0
 21 20  1  0
 22 21  1  0
 23 24  1  0
 23 22  2  0
 24 25  2  0
 25 26  1  0
 27 28  1  0
 29 27  2  0
M  END
$$$$
