IQF.pdb
     RDKit          3D

 29 29  0  0  1  0  0  0  0  0999 V2000
   25.5676  -14.6966  -18.2349 C   0  0  0  0  0  0  0  0  0  0  0  0
   26.2333  -15.1356  -16.9297 C   0  0  0  0  0  0  0  0  0  0  0  0
   25.5061  -16.3383  -16.4378 C   0  0  2  0  0  0  0  0  0  0  0  0
   24.7138  -15.9870  -15.1881 C   0  0  0  0  0  0  0  0  0  0  0  0
   26.2889  -17.5868  -16.2853 C   0  0  2  0  0  0  0  0  0  0  0  0
   26.9690  -17.8544  -17.5815 N   0  0  0  0  0  0  0  0  0  0  0  0
   25.6110  -18.8076  -15.8853 C   0  0  0  0  0  0  0  0  0  0  0  0
   24.9097  -19.4356  -16.7640 O   0  0  0  0  0  0  0  0  0  0  0  0
   25.5270  -23.9538  -14.7264 N   0  0  0  0  0  0  0  0  0  0  0  0
   26.7131  -23.2417  -14.9884 C   0  0  0  0  0  0  0  0  0  0  0  0
   27.5145  -23.7321  -15.8455 O   0  0  0  0  0  0  0  0  0  0  0  0
   27.0184  -21.9517  -14.2836 C   0  0  0  0  0  0  0  0  0  0  0  0
   25.8577  -21.5014  -13.4552 C   0  0  0  0  0  0  0  0  0  0  0  0
   24.8896  -20.6096  -14.2347 C   0  0  2  0  0  0  0  0  0  0  0  0
   25.6203  -19.4297  -14.6171 N   0  0  0  0  0  0  0  0  0  0  0  0
   23.6480  -20.4375  -13.5226 C   0  0  0  0  0  0  0  0  0  0  0  0
   23.6603  -19.6056  -12.5431 O   0  0  0  0  0  0  0  0  0  0  0  0
   22.3988  -21.0640  -13.7464 N   0  0  0  0  0  0  0  0  0  0  0  0
   21.1950  -20.5279  -13.1308 C   0  0  1  0  0  0  0  0  0  0  0  0
   20.9480  -19.0896  -13.3055 C   0  0  0  0  0  0  0  0  0  0  0  0
   20.7080  -18.5880  -14.6534 C   0  0  0  0  0  0  0  0  0  0  0  0
   21.6965  -17.8567  -15.2849 C   0  0  0  0  0  0  0  0  0  0  0  0
   21.5476  -17.3439  -16.5696 C   0  0  0  0  0  0  0  0  0  0  0  0
   20.3805  -17.5609  -17.2585 C   0  0  0  0  0  0  0  0  0  0  0  0
   19.3838  -18.2878  -16.6469 C   0  0  0  0  0  0  0  0  0  0  0  0
   19.5472  -18.8003  -15.3487 C   0  0  0  0  0  0  0  0  0  0  0  0
   20.0096  -21.3526  -13.5785 C   0  0  0  0  0  0  0  0  0  0  0  0
   20.2120  -22.3483  -14.4777 O   0  0  0  0  0  0  0  0  0  0  0  0
   18.8974  -21.0950  -13.1154 O   0  0  0  0  0  0  0  0  0  0  0  0
  2  3  1  0
  2  1  1  0
  3  5  1  0
  3  4  1  1
  5  7  1  0
  5  6  1  6
  7  8  2  0
  7 15  1  0
  9 10  1  0
 10 11  2  0
 10 12  1  0
 12 13  1  0
 14 13  1  1
 14 16  1  0
 15 14  1  0
 16 17  2  0
 18 16  1  0
 18 19  1  0
 19 27  1  0
 19 20  1  6
 21 26  2  0
 21 20  1  0
 22 21  1  0
 23 24  1  0
 23 22  2  0
 24 25  2  0
 25 26  1  0
 27 28  1  0
 29 27  2  0
M  END
$$$$
