WIF.pdb
     RDKit          3D

 34 36  0  0  1  0  0  0  0  0999 V2000
    7.5388  -17.6323   21.3174 N   0  0  0  0  0  0  0  0  0  0  0  0
    8.3058  -16.6661   22.0546 C   0  0  1  0  0  0  0  0  0  0  0  0
    7.5913  -15.4035   22.3428 C   0  0  0  0  0  0  0  0  0  0  0  0
    7.1194  -14.6575   21.1803 C   0  0  0  0  0  0  0  0  0  0  0  0
    5.8660  -14.6650   20.6146 C   0  0  0  0  0  0  0  0  0  0  0  0
    5.9049  -13.8298   19.5715 N   0  0  0  0  0  0  0  0  0  0  0  0
    7.1328  -13.2795   19.4362 C   0  0  0  0  0  0  0  0  0  0  0  0
    7.6492  -12.3721   18.5206 C   0  0  0  0  0  0  0  0  0  0  0  0
    8.9502  -11.9945   18.6380 C   0  0  0  0  0  0  0  0  0  0  0  0
    9.7799  -12.4780   19.6329 C   0  0  0  0  0  0  0  0  0  0  0  0
    9.2373  -13.3774   20.5264 C   0  0  0  0  0  0  0  0  0  0  0  0
    7.9071  -13.7942   20.4454 C   0  0  0  0  0  0  0  0  0  0  0  0
    8.9149  -17.3171   23.2329 C   0  0  0  0  0  0  0  0  0  0  0  0
    8.2188  -17.9962   24.0200 O   0  0  0  0  0  0  0  0  0  0  0  0
   13.7467  -19.3863   22.6246 C   0  0  0  0  0  0  0  0  0  0  0  0
   12.3587  -19.0825   23.1447 C   0  0  0  0  0  0  0  0  0  0  0  0
   12.3909  -18.0900   24.2832 C   0  0  2  0  0  0  0  0  0  0  0  0
   12.9963  -18.7040   25.5366 C   0  0  0  0  0  0  0  0  0  0  0  0
   10.9702  -17.7047   24.6371 C   0  0  2  0  0  0  0  0  0  0  0  0
   10.3180  -17.1547   23.4551 N   0  0  0  0  0  0  0  0  0  0  0  0
   10.9388  -16.7199   25.7620 C   0  0  0  0  0  0  0  0  0  0  0  0
   11.6033  -15.6355   25.6395 O   0  0  0  0  0  0  0  0  0  0  0  0
   10.2103  -16.9461   26.9363 N   0  0  0  0  0  0  0  0  0  0  0  0
   10.4313  -16.0770   28.1124 C   0  0  1  0  0  0  0  0  0  0  0  0
    9.1278  -15.5328   28.5814 C   0  0  0  0  0  0  0  0  0  0  0  0
    8.5458  -14.6196   27.5841 C   0  0  0  0  0  0  0  0  0  0  0  0
    7.5591  -15.0367   26.6869 C   0  0  0  0  0  0  0  0  0  0  0  0
    6.9888  -14.1868   25.7663 C   0  0  0  0  0  0  0  0  0  0  0  0
    7.3860  -12.8655   25.7024 C   0  0  0  0  0  0  0  0  0  0  0  0
    8.3574  -12.4141   26.5709 C   0  0  0  0  0  0  0  0  0  0  0  0
    8.9137  -13.2829   27.4837 C   0  0  0  0  0  0  0  0  0  0  0  0
   11.0902  -16.8503   29.1701 C   0  0  0  0  0  0  0  0  0  0  0  0
   11.3269  -18.1979   29.0334 O   0  0  0  0  0  0  0  0  0  0  0  0
   11.4453  -16.2764   30.2247 O   0  0  0  0  0  0  0  0  0  0  0  0
  2  1  1  1
  3  2  1  0
  4  3  1  0
  5  4  2  0
  6  5  1  0
  7  6  1  0
  7 12  2  0
  8  7  1  0
  9  8  2  0
  9 10  1  0
 10 11  2  0
 11 12  1  0
 12  4  1  0
 13  2  1  0
 14 13  2  0
 15 16  1  0
 16 17  1  0
 17 19  1  0
 17 18  1  1
 19 21  1  0
 19 20  1  6
 20 13  1  0
 21 23  1  0
 22 21  2  0
 23 24  1  0
 24 25  1  1
 25 26  1  0
 26 27  2  0
 27 28  1  0
 29 28  2  0
 30 29  1  0
 31 26  1  0
 31 30  2  0
 32 24  1  0
 32 33  1  0
 34 32  2  0
M  END
$$$$
