WIF.pdb
     RDKit          3D

 34 36  0  0  1  0  0  0  0  0999 V2000
    7.3049  -20.4831   24.0813 N   0  0  0  0  0  0  0  0  0  0  0  0
    7.2187  -19.0621   24.2785 C   0  0  1  0  0  0  0  0  0  0  0  0
    7.7270  -18.5903   25.5849 C   0  0  0  0  0  0  0  0  0  0  0  0
    7.2630  -19.3294   26.7550 C   0  0  0  0  0  0  0  0  0  0  0  0
    6.0461  -19.9396   26.9496 C   0  0  0  0  0  0  0  0  0  0  0  0
    6.0765  -20.4884   28.1683 N   0  0  0  0  0  0  0  0  0  0  0  0
    7.2639  -20.2596   28.7737 C   0  0  0  0  0  0  0  0  0  0  0  0
    7.7573  -20.6230   30.0199 C   0  0  0  0  0  0  0  0  0  0  0  0
    9.0171  -20.2410   30.3603 C   0  0  0  0  0  0  0  0  0  0  0  0
    9.8269  -19.5049   29.5151 C   0  0  0  0  0  0  0  0  0  0  0  0
    9.3080  -19.1598   28.2849 C   0  0  0  0  0  0  0  0  0  0  0  0
    8.0202  -19.5295   27.8918 C   0  0  0  0  0  0  0  0  0  0  0  0
    7.7860  -18.3673   23.1044 C   0  0  0  0  0  0  0  0  0  0  0  0
    8.5587  -18.9622   22.3204 O   0  0  0  0  0  0  0  0  0  0  0  0
    5.5850  -13.9745   20.5385 C   0  0  0  0  0  0  0  0  0  0  0  0
    6.4013  -15.1905   20.9188 C   0  0  0  0  0  0  0  0  0  0  0  0
    7.5598  -14.8294   21.8186 C   0  0  2  0  0  0  0  0  0  0  0  0
    8.5461  -13.9122   21.1112 C   0  0  0  0  0  0  0  0  0  0  0  0
    8.3207  -16.0911   22.1669 C   0  0  2  0  0  0  0  0  0  0  0  0
    7.4333  -16.9996   22.8824 N   0  0  0  0  0  0  0  0  0  0  0  0
    9.5333  -15.7850   22.9868 C   0  0  0  0  0  0  0  0  0  0  0  0
   10.6099  -15.4578   22.3815 O   0  0  0  0  0  0  0  0  0  0  0  0
    9.5270  -15.8451   24.3859 N   0  0  0  0  0  0  0  0  0  0  0  0
   10.7216  -15.4098   25.1415 C   0  0  1  0  0  0  0  0  0  0  0  0
   10.4677  -14.0748   25.7484 C   0  0  0  0  0  0  0  0  0  0  0  0
    9.1440  -14.0283   26.3907 C   0  0  0  0  0  0  0  0  0  0  0  0
    7.9607  -14.1102   25.6520 C   0  0  0  0  0  0  0  0  0  0  0  0
    6.7171  -14.0931   26.2422 C   0  0  0  0  0  0  0  0  0  0  0  0
    6.6017  -13.9919   27.6148 C   0  0  0  0  0  0  0  0  0  0  0  0
    7.7458  -13.9090   28.3800 C   0  0  0  0  0  0  0  0  0  0  0  0
    8.9794  -13.9281   27.7673 C   0  0  0  0  0  0  0  0  0  0  0  0
   11.0334  -16.4059   26.1719 C   0  0  0  0  0  0  0  0  0  0  0  0
   12.1635  -16.3062   26.9489 O   0  0  0  0  0  0  0  0  0  0  0  0
   10.2581  -17.3726   26.3509 O   0  0  0  0  0  0  0  0  0  0  0  0
  2  1  1  6
  3  2  1  0
  4  3  1  0
  5  4  2  0
  6  5  1  0
  7  6  1  0
  7 12  2  0
  8  7  1  0
  9  8  2  0
  9 10  1  0
 10 11  2  0
 11 12  1  0
 12  4  1  0
 13  2  1  0
 14 13  2  0
 15 16  1  0
 16 17  1  0
 17 19  1  0
 17 18  1  6
 19 21  1  0
 19 20  1  1
 20 13  1  0
 21 23  1  0
 22 21  2  0
 23 24  1  0
 24 25  1  1
 25 26  1  0
 26 27  2  0
 27 28  1  0
 29 28  2  0
 30 29  1  0
 31 26  1  0
 31 30  2  0
 32 24  1  0
 32 33  1  0
 34 32  2  0
M  END
$$$$
