WIF.pdb
     RDKit          3D

 34 36  0  0  1  0  0  0  0  0999 V2000
    8.1133  -18.5188   19.9257 N   0  0  0  0  0  0  0  0  0  0  0  0
    7.3837  -18.0251   21.0612 C   0  0  1  0  0  0  0  0  0  0  0  0
    6.7661  -19.0754   21.8998 C   0  0  0  0  0  0  0  0  0  0  0  0
    5.6412  -19.7890   21.3032 C   0  0  0  0  0  0  0  0  0  0  0  0
    5.4689  -21.1467   21.1679 C   0  0  0  0  0  0  0  0  0  0  0  0
    4.2915  -21.3310   20.5620 N   0  0  0  0  0  0  0  0  0  0  0  0
    3.6915  -20.1482   20.2980 C   0  0  0  0  0  0  0  0  0  0  0  0
    2.4816  -19.8341   19.6931 C   0  0  0  0  0  0  0  0  0  0  0  0
    2.1366  -18.5252   19.5634 C   0  0  0  0  0  0  0  0  0  0  0  0
    2.9425  -17.4941   20.0098 C   0  0  0  0  0  0  0  0  0  0  0  0
    4.1373  -17.8388   20.6060 C   0  0  0  0  0  0  0  0  0  0  0  0
    4.5335  -19.1687   20.7611 C   0  0  0  0  0  0  0  0  0  0  0  0
    8.2188  -17.0542   21.7981 C   0  0  0  0  0  0  0  0  0  0  0  0
    9.4608  -17.0343   21.6475 O   0  0  0  0  0  0  0  0  0  0  0  0
    7.3519  -12.5057   25.9937 C   0  0  0  0  0  0  0  0  0  0  0  0
    8.2211  -13.5000   25.2552 C   0  0  0  0  0  0  0  0  0  0  0  0
    7.3996  -14.4399   24.4042 C   0  0  2  0  0  0  0  0  0  0  0  0
    6.4750  -15.2950   25.2576 C   0  0  0  0  0  0  0  0  0  0  0  0
    8.3321  -15.3959   23.6911 C   0  0  2  0  0  0  0  0  0  0  0  0
    7.5776  -16.1368   22.6877 N   0  0  0  0  0  0  0  0  0  0  0  0
    8.9892  -16.3329   24.6537 C   0  0  0  0  0  0  0  0  0  0  0  0
    8.6437  -17.5629   24.6368 O   0  0  0  0  0  0  0  0  0  0  0  0
    9.9633  -15.9089   25.5659 N   0  0  0  0  0  0  0  0  0  0  0  0
   11.2019  -16.7000   25.7329 C   0  0  1  0  0  0  0  0  0  0  0  0
   12.2477  -15.8579   26.3750 C   0  0  0  0  0  0  0  0  0  0  0  0
   11.7181  -15.1716   27.5647 C   0  0  0  0  0  0  0  0  0  0  0  0
   11.7294  -15.7680   28.8283 C   0  0  0  0  0  0  0  0  0  0  0  0
   11.2603  -15.1278   29.9531 C   0  0  0  0  0  0  0  0  0  0  0  0
   10.7529  -13.8465   29.8616 C   0  0  0  0  0  0  0  0  0  0  0  0
   10.7241  -13.2225   28.6323 C   0  0  0  0  0  0  0  0  0  0  0  0
   11.1992  -13.8828   27.5205 C   0  0  0  0  0  0  0  0  0  0  0  0
   10.9129  -17.8887   26.5419 C   0  0  0  0  0  0  0  0  0  0  0  0
    9.6718  -18.0958   27.0965 O   0  0  0  0  0  0  0  0  0  0  0  0
   11.8134  -18.7363   26.7375 O   0  0  0  0  0  0  0  0  0  0  0  0
  2  1  1  6
  3  2  1  0
  4  3  1  0
  5  4  2  0
  6  5  1  0
  7  6  1  0
  7 12  2  0
  8  7  1  0
  9  8  2  0
  9 10  1  0
 10 11  2  0
 11 12  1  0
 12  4  1  0
 13  2  1  0
 14 13  2  0
 15 16  1  0
 16 17  1  0
 17 19  1  0
 17 18  1  1
 19 21  1  0
 19 20  1  6
 20 13  1  0
 21 23  1  0
 22 21  2  0
 23 24  1  0
 24 25  1  1
 25 26  1  0
 26 27  2  0
 27 28  1  0
 29 28  2  0
 30 29  1  0
 31 26  1  0
 31 30  2  0
 32 24  1  0
 32 33  1  0
 34 32  2  0
M  END
$$$$
