WIF.pdb
     RDKit          3D

 34 36  0  0  1  0  0  0  0  0999 V2000
    6.1707  -18.7928   24.2539 N   0  0  0  0  0  0  0  0  0  0  0  0
    6.5455  -17.4053   24.2577 C   0  0  1  0  0  0  0  0  0  0  0  0
    6.9495  -16.8807   25.5804 C   0  0  0  0  0  0  0  0  0  0  0  0
    6.0539  -15.8942   26.1764 C   0  0  0  0  0  0  0  0  0  0  0  0
    4.8433  -16.1056   26.7935 C   0  0  0  0  0  0  0  0  0  0  0  0
    4.3891  -14.9089   27.1796 N   0  0  0  0  0  0  0  0  0  0  0  0
    5.2554  -13.9282   26.8384 C   0  0  0  0  0  0  0  0  0  0  0  0
    5.2217  -12.5523   27.0229 C   0  0  0  0  0  0  0  0  0  0  0  0
    6.2604  -11.8058   26.5618 C   0  0  0  0  0  0  0  0  0  0  0  0
    7.3494  -12.3619   25.9162 C   0  0  0  0  0  0  0  0  0  0  0  0
    7.3531  -13.7307   25.7486 C   0  0  0  0  0  0  0  0  0  0  0  0
    6.3092  -14.5378   26.2051 C   0  0  0  0  0  0  0  0  0  0  0  0
    7.5122  -17.1539   23.1690 C   0  0  0  0  0  0  0  0  0  0  0  0
    8.2855  -18.0568   22.7787 O   0  0  0  0  0  0  0  0  0  0  0  0
    8.7529  -12.5196   19.1678 C   0  0  0  0  0  0  0  0  0  0  0  0
    9.0232  -13.8870   19.7567 C   0  0  0  0  0  0  0  0  0  0  0  0
    8.2009  -14.1351   20.9996 C   0  0  2  0  0  0  0  0  0  0  0  0
    8.5909  -13.1839   22.1209 C   0  0  0  0  0  0  0  0  0  0  0  0
    8.4863  -15.5337   21.5041 C   0  0  2  0  0  0  0  0  0  0  0  0
    7.5456  -15.8561   22.5699 N   0  0  0  0  0  0  0  0  0  0  0  0
    9.8952  -15.6587   21.9898 C   0  0  0  0  0  0  0  0  0  0  0  0
   10.8430  -15.3392   21.1947 O   0  0  0  0  0  0  0  0  0  0  0  0
   10.2067  -16.1113   23.2778 N   0  0  0  0  0  0  0  0  0  0  0  0
   11.6208  -16.3235   23.6558 C   0  0  1  0  0  0  0  0  0  0  0  0
   11.6998  -16.7117   25.0905 C   0  0  0  0  0  0  0  0  0  0  0  0
   11.3442  -15.5821   25.9649 C   0  0  0  0  0  0  0  0  0  0  0  0
   11.7349  -14.2721   25.6758 C   0  0  0  0  0  0  0  0  0  0  0  0
   11.3881  -13.2036   26.4715 C   0  0  0  0  0  0  0  0  0  0  0  0
   10.6253  -13.4018   27.6058 C   0  0  0  0  0  0  0  0  0  0  0  0
   10.2192  -14.6800   27.9263 C   0  0  0  0  0  0  0  0  0  0  0  0
   10.5783  -15.7337   27.1149 C   0  0  0  0  0  0  0  0  0  0  0  0
   12.2022  -17.3604   22.7969 C   0  0  0  0  0  0  0  0  0  0  0  0
   11.4733  -17.9537   21.7932 O   0  0  0  0  0  0  0  0  0  0  0  0
   13.3878  -17.7195   22.9785 O   0  0  0  0  0  0  0  0  0  0  0  0
  2  1  1  1
  3  2  1  0
  4  3  1  0
  5  4  2  0
  6  5  1  0
  7  6  1  0
  7 12  2  0
  8  7  1  0
  9  8  2  0
  9 10  1  0
 10 11  2  0
 11 12  1  0
 12  4  1  0
 13  2  1  0
 14 13  2  0
 15 16  1  0
 16 17  1  0
 17 19  1  0
 17 18  1  1
 19 21  1  0
 19 20  1  1
 20 13  1  0
 21 23  1  0
 22 21  2  0
 23 24  1  0
 24 25  1  1
 25 26  1  0
 26 27  2  0
 27 28  1  0
 29 28  2  0
 30 29  1  0
 31 26  1  0
 31 30  2  0
 32 24  1  0
 32 33  1  0
 34 32  2  0
M  END
$$$$
