WIF.pdb
     RDKit          3D

 34 36  0  0  1  0  0  0  0  0999 V2000
    5.8625  -18.0870   24.4106 N   0  0  0  0  0  0  0  0  0  0  0  0
    6.4902  -16.8011   24.2758 C   0  0  1  0  0  0  0  0  0  0  0  0
    6.8261  -16.1431   25.5571 C   0  0  0  0  0  0  0  0  0  0  0  0
    5.9842  -15.0117   25.9336 C   0  0  0  0  0  0  0  0  0  0  0  0
    4.7754  -15.0302   26.5890 C   0  0  0  0  0  0  0  0  0  0  0  0
    4.3803  -13.7591   26.7127 N   0  0  0  0  0  0  0  0  0  0  0  0
    5.2833  -12.9150   26.1642 C   0  0  0  0  0  0  0  0  0  0  0  0
    5.3128  -11.5313   26.0501 C   0  0  0  0  0  0  0  0  0  0  0  0
    6.3758  -10.9493   25.4335 C   0  0  0  0  0  0  0  0  0  0  0  0
    7.4290  -11.6802   24.9154 C   0  0  0  0  0  0  0  0  0  0  0  0
    7.3701  -13.0519   25.0446 C   0  0  0  0  0  0  0  0  0  0  0  0
    6.2991  -13.6937   25.6697 C   0  0  0  0  0  0  0  0  0  0  0  0
    7.6094  -16.8983   23.3161 C   0  0  0  0  0  0  0  0  0  0  0  0
    8.1548  -17.9990   23.0785 O   0  0  0  0  0  0  0  0  0  0  0  0
    7.6224  -12.8397   19.6179 C   0  0  0  0  0  0  0  0  0  0  0  0
    7.6976  -14.1579   20.3568 C   0  0  0  0  0  0  0  0  0  0  0  0
    9.0863  -14.4246   20.8884 C   0  0  2  0  0  0  0  0  0  0  0  0
   10.0945  -14.5667   19.7580 C   0  0  0  0  0  0  0  0  0  0  0  0
    9.0819  -15.7454   21.6283 C   0  0  2  0  0  0  0  0  0  0  0  0
    8.0566  -15.7072   22.6638 N   0  0  0  0  0  0  0  0  0  0  0  0
   10.4216  -16.0383   22.2245 C   0  0  0  0  0  0  0  0  0  0  0  0
   11.4525  -15.9547   21.4743 O   0  0  0  0  0  0  0  0  0  0  0  0
   10.5817  -16.3986   23.5682 N   0  0  0  0  0  0  0  0  0  0  0  0
   11.9426  -16.5502   24.1272 C   0  0  1  0  0  0  0  0  0  0  0  0
   11.8580  -17.1422   25.4901 C   0  0  0  0  0  0  0  0  0  0  0  0
   10.9995  -16.3298   26.3677 C   0  0  0  0  0  0  0  0  0  0  0  0
   11.0670  -14.9342   26.3816 C   0  0  0  0  0  0  0  0  0  0  0  0
   10.2529  -14.1618   27.1790 C   0  0  0  0  0  0  0  0  0  0  0  0
    9.3238  -14.7597   28.0078 C   0  0  0  0  0  0  0  0  0  0  0  0
    9.2255  -16.1351   28.0235 C   0  0  0  0  0  0  0  0  0  0  0  0
   10.0507  -16.8874   27.2168 C   0  0  0  0  0  0  0  0  0  0  0  0
   12.7423  -17.3956   23.2346 C   0  0  0  0  0  0  0  0  0  0  0  0
   14.0677  -17.6580   23.4902 O   0  0  0  0  0  0  0  0  0  0  0  0
   12.2123  -17.8904   22.2138 O   0  0  0  0  0  0  0  0  0  0  0  0
  2  1  1  1
  3  2  1  0
  4  3  1  0
  5  4  2  0
  6  5  1  0
  7  6  1  0
  7 12  2  0
  8  7  1  0
  9  8  2  0
  9 10  1  0
 10 11  2  0
 11 12  1  0
 12  4  1  0
 13  2  1  0
 14 13  2  0
 15 16  1  0
 16 17  1  0
 17 19  1  0
 17 18  1  6
 19 21  1  0
 19 20  1  1
 20 13  1  0
 21 23  1  0
 22 21  2  0
 23 24  1  0
 24 25  1  1
 25 26  1  0
 26 27  2  0
 27 28  1  0
 29 28  2  0
 30 29  1  0
 31 26  1  0
 31 30  2  0
 32 24  1  0
 32 33  1  0
 34 32  2  0
M  END
$$$$
