WIF.pdb
     RDKit          3D

 34 36  0  0  1  0  0  0  0  0999 V2000
    7.3242  -17.6981   21.4860 N   0  0  0  0  0  0  0  0  0  0  0  0
    8.2496  -16.7542   22.0503 C   0  0  1  0  0  0  0  0  0  0  0  0
    7.6698  -15.4263   22.3472 C   0  0  0  0  0  0  0  0  0  0  0  0
    7.1490  -14.6866   21.2017 C   0  0  0  0  0  0  0  0  0  0  0  0
    5.8459  -14.5855   20.7739 C   0  0  0  0  0  0  0  0  0  0  0  0
    5.8524  -13.8064   19.6876 N   0  0  0  0  0  0  0  0  0  0  0  0
    7.1068  -13.3969   19.3919 C   0  0  0  0  0  0  0  0  0  0  0  0
    7.6069  -12.5914   18.3773 C   0  0  0  0  0  0  0  0  0  0  0  0
    8.9443  -12.3499   18.3342 C   0  0  0  0  0  0  0  0  0  0  0  0
    9.8268  -12.8744   19.2606 C   0  0  0  0  0  0  0  0  0  0  0  0
    9.2991  -13.6702   20.2556 C   0  0  0  0  0  0  0  0  0  0  0  0
    7.9329  -13.9459   20.3400 C   0  0  0  0  0  0  0  0  0  0  0  0
    8.9681  -17.3836   23.1775 C   0  0  0  0  0  0  0  0  0  0  0  0
    8.3871  -18.1927   23.9348 O   0  0  0  0  0  0  0  0  0  0  0  0
   13.9141  -18.5328   22.0427 C   0  0  0  0  0  0  0  0  0  0  0  0
   12.5845  -18.6398   22.7571 C   0  0  0  0  0  0  0  0  0  0  0  0
   12.5544  -17.8030   24.0145 C   0  0  2  0  0  0  0  0  0  0  0  0
   13.2920  -18.4890   25.1545 C   0  0  0  0  0  0  0  0  0  0  0  0
   11.1173  -17.6479   24.4648 C   0  0  2  0  0  0  0  0  0  0  0  0
   10.3424  -17.0487   23.3853 N   0  0  0  0  0  0  0  0  0  0  0  0
   11.0234  -16.8168   25.7045 C   0  0  0  0  0  0  0  0  0  0  0  0
   11.5287  -15.6434   25.6895 O   0  0  0  0  0  0  0  0  0  0  0  0
   10.4044  -17.2796   26.8722 N   0  0  0  0  0  0  0  0  0  0  0  0
   10.5576  -16.5190   28.1313 C   0  0  1  0  0  0  0  0  0  0  0  0
    9.2143  -16.2000   28.6870 C   0  0  0  0  0  0  0  0  0  0  0  0
    8.5165  -15.2103   27.8499 C   0  0  0  0  0  0  0  0  0  0  0  0
    7.4579  -15.5672   27.0106 C   0  0  0  0  0  0  0  0  0  0  0  0
    6.7807  -14.6478   26.2417 C   0  0  0  0  0  0  0  0  0  0  0  0
    7.1377  -13.3141   26.2795 C   0  0  0  0  0  0  0  0  0  0  0  0
    8.1775  -12.9208   27.0953 C   0  0  0  0  0  0  0  0  0  0  0  0
    8.8405  -13.8586   27.8560 C   0  0  0  0  0  0  0  0  0  0  0  0
   11.3469  -17.3088   29.0823 C   0  0  0  0  0  0  0  0  0  0  0  0
   11.7620  -18.5856   28.7851 O   0  0  0  0  0  0  0  0  0  0  0  0
   11.6504  -16.8156   30.1923 O   0  0  0  0  0  0  0  0  0  0  0  0
  2  1  1  1
  3  2  1  0
  4  3  1  0
  5  4  2  0
  6  5  1  0
  7  6  1  0
  7 12  2  0
  8  7  1  0
  9  8  2  0
  9 10  1  0
 10 11  2  0
 11 12  1  0
 12  4  1  0
 13  2  1  0
 14 13  2  0
 15 16  1  0
 16 17  1  0
 17 19  1  0
 17 18  1  1
 19 21  1  0
 19 20  1  6
 20 13  1  0
 21 23  1  0
 22 21  2  0
 23 24  1  0
 24 25  1  1
 25 26  1  0
 26 27  2  0
 27 28  1  0
 29 28  2  0
 30 29  1  0
 31 26  1  0
 31 30  2  0
 32 24  1  0
 32 33  1  0
 34 32  2  0
M  END
$$$$
