HKT.pdb
     RDKit          3D

 27 27  0  0  1  0  0  0  0  0999 V2000
   17.5943  -11.5157  -16.9279 N   0  0  0  0  0  0  0  0  0  0  0  0
   18.8189  -11.1383  -16.2563 C   0  0  1  0  0  0  0  0  0  0  0  0
   19.9038  -11.0675  -17.3058 C   0  0  0  0  0  0  0  0  0  0  0  0
   20.1410  -12.4461  -17.7894 C   0  0  0  0  0  0  0  0  0  0  0  0
   19.6049  -12.9812  -18.9396 C   0  0  0  0  0  0  0  0  0  0  0  0
   20.0435  -14.2631  -19.0553 N   0  0  0  0  0  0  0  0  0  0  0  0
   20.8339  -14.5247  -18.0050 C   0  0  0  0  0  0  0  0  0  0  0  0
   20.8805  -13.4149  -17.2516 N   0  0  0  0  0  0  0  0  0  0  0  0
   18.6172   -9.8683  -15.5540 C   0  0  0  0  0  0  0  0  0  0  0  0
   17.7517   -9.0728  -15.9829 O   0  0  0  0  0  0  0  0  0  0  0  0
   19.3361   -9.4591  -14.4063 N   0  0  0  0  0  0  0  0  0  0  0  0
   19.0264   -8.2680  -13.7286 C   0  0  1  0  0  0  0  0  0  0  0  0
   18.4349   -8.2954  -12.3851 C   0  0  0  0  0  0  0  0  0  0  0  0
   18.1046   -6.9340  -11.8684 C   0  0  0  0  0  0  0  0  0  0  0  0
   17.3319   -6.8460  -10.6101 C   0  0  0  0  0  0  0  0  0  0  0  0
   16.8175   -5.4420  -10.3403 C   0  0  0  0  0  0  0  0  0  0  0  0
   16.0738   -5.4446   -9.1179 N   0  0  0  0  0  0  0  0  0  0  0  0
   20.3346   -7.5130  -13.6160 C   0  0  0  0  0  0  0  0  0  0  0  0
   21.2975   -7.9663  -12.9792 O   0  0  0  0  0  0  0  0  0  0  0  0
   22.7757   -6.6340  -16.0089 C   0  0  0  0  0  0  0  0  0  0  0  0
   22.2385   -5.3358  -15.4961 C   0  0  1  0  0  0  0  0  0  0  0  0
   21.1880   -4.9060  -16.3221 O   0  0  0  0  0  0  0  0  0  0  0  0
   21.6381   -5.4749  -14.1018 C   0  0  2  0  0  0  0  0  0  0  0  0
   20.4312   -6.2712  -14.2599 N   0  0  0  0  0  0  0  0  0  0  0  0
   21.3383   -4.1636  -13.5089 C   0  0  0  0  0  0  0  0  0  0  0  0
   20.1312   -3.8387  -13.3664 O   0  0  0  0  0  0  0  0  0  0  0  0
   22.2965   -3.2511  -13.0919 O   0  0  0  0  0  0  0  0  0  0  0  0
  2  1  1  6
  2  9  1  0
  2  3  1  0
  3  4  1  0
  4  8  1  0
  4  5  2  0
  5  6  1  0
  7  6  1  0
  8  7  2  0
  9 11  1  0
 10  9  2  0
 11 12  1  0
 12 13  1  1
 13 14  1  0
 14 15  1  0
 15 16  1  0
 16 17  1  0
 18 19  2  0
 18 12  1  0
 21 20  1  6
 21 23  1  0
 22 21  1  0
 23 24  1  6
 23 25  1  0
 24 18  1  0
 25 27  1  0
 26 25  2  0
M  END
$$$$
