HKT.pdb
     RDKit          3D

 27 27  0  0  1  0  0  0  0  0999 V2000
   24.2921  -19.7898  -10.2167 N   0  0  0  0  0  0  0  0  0  0  0  0
   23.7705  -20.4933  -11.3683 C   0  0  1  0  0  0  0  0  0  0  0  0
   22.2648  -20.5081  -11.2420 C   0  0  0  0  0  0  0  0  0  0  0  0
   21.9330  -21.2406   -9.9995 C   0  0  0  0  0  0  0  0  0  0  0  0
   22.8526  -21.6742   -9.0706 C   0  0  0  0  0  0  0  0  0  0  0  0
   22.1803  -22.3036   -8.0701 N   0  0  0  0  0  0  0  0  0  0  0  0
   20.8732  -22.2655   -8.3642 C   0  0  0  0  0  0  0  0  0  0  0  0
   20.7437  -21.6193   -9.5335 N   0  0  0  0  0  0  0  0  0  0  0  0
   24.2365  -19.8360  -12.5921 C   0  0  0  0  0  0  0  0  0  0  0  0
   24.4140  -18.5974  -12.5814 O   0  0  0  0  0  0  0  0  0  0  0  0
   24.5080  -20.5014  -13.8108 N   0  0  0  0  0  0  0  0  0  0  0  0
   25.0610  -19.8260  -14.9117 C   0  0  1  0  0  0  0  0  0  0  0  0
   26.3381  -20.2537  -15.4963 C   0  0  0  0  0  0  0  0  0  0  0  0
   26.7773  -19.3861  -16.6294 C   0  0  0  0  0  0  0  0  0  0  0  0
   28.0526  -19.7238  -17.2984 C   0  0  0  0  0  0  0  0  0  0  0  0
   28.4490  -18.6981  -18.3470 C   0  0  0  0  0  0  0  0  0  0  0  0
   29.6913  -19.0914  -18.9380 N   0  0  0  0  0  0  0  0  0  0  0  0
   24.0225  -19.9216  -16.0101 C   0  0  0  0  0  0  0  0  0  0  0  0
   23.6261  -21.0151  -16.4406 O   0  0  0  0  0  0  0  0  0  0  0  0
   20.5301  -18.7114  -16.1902 C   0  0  0  0  0  0  0  0  0  0  0  0
   21.3531  -17.9715  -17.1963 C   0  0  1  0  0  0  0  0  0  0  0  0
   21.8614  -16.8000  -16.6134 O   0  0  0  0  0  0  0  0  0  0  0  0
   22.5705  -18.7737  -17.6419 C   0  0  2  0  0  0  0  0  0  0  0  0
   23.5128  -18.7254  -16.5349 N   0  0  0  0  0  0  0  0  0  0  0  0
   23.1613  -18.2222  -18.8699 C   0  0  0  0  0  0  0  0  0  0  0  0
   24.2064  -17.5294  -18.7663 O   0  0  0  0  0  0  0  0  0  0  0  0
   22.6468  -18.4115  -20.1443 O   0  0  0  0  0  0  0  0  0  0  0  0
  2  1  1  1
  2  9  1  0
  2  3  1  0
  3  4  1  0
  4  8  1  0
  4  5  2  0
  5  6  1  0
  7  6  1  0
  8  7  2  0
  9 11  1  0
 10  9  2  0
 11 12  1  0
 12 13  1  6
 13 14  1  0
 14 15  1  0
 15 16  1  0
 16 17  1  0
 18 19  2  0
 18 12  1  0
 21 20  1  1
 21 23  1  0
 22 21  1  0
 23 24  1  1
 23 25  1  0
 24 18  1  0
 25 27  1  0
 26 25  2  0
M  END
$$$$
