HKT.pdb
     RDKit          3D

 27 27  0  0  1  0  0  0  0  0999 V2000
   22.8487  -15.7267  -18.6687 N   0  0  0  0  0  0  0  0  0  0  0  0
   22.6730  -15.7421  -17.2326 C   0  0  1  0  0  0  0  0  0  0  0  0
   21.4847  -14.8642  -16.9156 C   0  0  0  0  0  0  0  0  0  0  0  0
   21.8998  -13.4613  -17.1398 C   0  0  0  0  0  0  0  0  0  0  0  0
   21.4604  -12.6649  -18.1738 C   0  0  0  0  0  0  0  0  0  0  0  0
   22.0548  -11.4478  -18.0537 N   0  0  0  0  0  0  0  0  0  0  0  0
   22.8462  -11.4804  -16.9725 C   0  0  0  0  0  0  0  0  0  0  0  0
   22.7392  -12.7051  -16.4338 N   0  0  0  0  0  0  0  0  0  0  0  0
   22.5017  -17.1245  -16.7782 C   0  0  0  0  0  0  0  0  0  0  0  0
   21.6588  -17.8485  -17.3537 O   0  0  0  0  0  0  0  0  0  0  0  0
   23.2267  -17.7204  -15.7195 N   0  0  0  0  0  0  0  0  0  0  0  0
   23.0472  -19.0697  -15.3714 C   0  0  1  0  0  0  0  0  0  0  0  0
   24.1803  -19.8930  -14.9309 C   0  0  0  0  0  0  0  0  0  0  0  0
   25.0785  -20.2932  -16.0546 C   0  0  0  0  0  0  0  0  0  0  0  0
   26.1052  -21.3221  -15.7797 C   0  0  0  0  0  0  0  0  0  0  0  0
   26.9309  -21.6627  -17.0089 C   0  0  0  0  0  0  0  0  0  0  0  0
   27.8577  -22.7005  -16.6752 N   0  0  0  0  0  0  0  0  0  0  0  0
   22.0415  -19.0666  -14.2390 C   0  0  0  0  0  0  0  0  0  0  0  0
   22.1673  -18.3211  -13.2559 O   0  0  0  0  0  0  0  0  0  0  0  0
   20.4866  -17.5077  -13.1061 C   0  0  0  0  0  0  0  0  0  0  0  0
   19.3972  -18.5277  -13.2050 C   0  0  1  0  0  0  0  0  0  0  0  0
   18.6833  -18.3346  -14.3981 O   0  0  0  0  0  0  0  0  0  0  0  0
   19.9469  -19.9478  -13.2771 C   0  0  2  0  0  0  0  0  0  0  0  0
   20.9483  -19.9397  -14.3321 N   0  0  0  0  0  0  0  0  0  0  0  0
   18.8850  -20.9251  -13.5569 C   0  0  0  0  0  0  0  0  0  0  0  0
   18.8458  -21.4477  -14.7008 O   0  0  0  0  0  0  0  0  0  0  0  0
   17.9155  -21.3162  -12.6449 O   0  0  0  0  0  0  0  0  0  0  0  0
  2  1  1  6
  2  9  1  0
  2  3  1  0
  3  4  1  0
  4  8  1  0
  4  5  2  0
  5  6  1  0
  7  6  1  0
  8  7  2  0
  9 11  1  0
 10  9  2  0
 11 12  1  0
 12 13  1  1
 13 14  1  0
 14 15  1  0
 15 16  1  0
 16 17  1  0
 18 19  2  0
 18 12  1  0
 21 20  1  6
 21 23  1  0
 22 21  1  0
 23 24  1  6
 23 25  1  0
 24 18  1  0
 25 27  1  0
 26 25  2  0
M  END
$$$$
