HKT.pdb
     RDKit          3D

 27 27  0  0  1  0  0  0  0  0999 V2000
   19.0516  -12.3105  -16.1579 N   0  0  0  0  0  0  0  0  0  0  0  0
   18.8193  -10.9166  -16.4686 C   0  0  1  0  0  0  0  0  0  0  0  0
   17.4718  -10.5463  -15.8937 C   0  0  0  0  0  0  0  0  0  0  0  0
   16.4430  -11.2532  -16.6891 C   0  0  0  0  0  0  0  0  0  0  0  0
   15.7755  -12.3876  -16.2843 C   0  0  0  0  0  0  0  0  0  0  0  0
   14.9119  -12.7464  -17.2715 N   0  0  0  0  0  0  0  0  0  0  0  0
   15.0349  -11.8598  -18.2691 C   0  0  0  0  0  0  0  0  0  0  0  0
   15.9646  -10.9654  -17.8987 N   0  0  0  0  0  0  0  0  0  0  0  0
   19.9151  -10.1084  -15.9273 C   0  0  0  0  0  0  0  0  0  0  0  0
   20.2208  -10.2375  -14.7207 O   0  0  0  0  0  0  0  0  0  0  0  0
   20.6718   -9.1741  -16.6730 N   0  0  0  0  0  0  0  0  0  0  0  0
   21.8270   -8.5731  -16.1456 C   0  0  1  0  0  0  0  0  0  0  0  0
   23.1149   -8.6708  -16.8437 C   0  0  0  0  0  0  0  0  0  0  0  0
   24.0210   -9.6981  -16.2492 C   0  0  0  0  0  0  0  0  0  0  0  0
   23.8151  -11.1078  -16.6471 C   0  0  0  0  0  0  0  0  0  0  0  0
   24.7981  -12.0515  -15.9749 C   0  0  0  0  0  0  0  0  0  0  0  0
   24.4067  -13.4013  -16.2431 N   0  0  0  0  0  0  0  0  0  0  0  0
   21.5014   -7.0983  -16.0313 C   0  0  0  0  0  0  0  0  0  0  0  0
   21.1461   -6.4300  -17.0138 O   0  0  0  0  0  0  0  0  0  0  0  0
   18.9034   -5.5471  -14.9639 C   0  0  0  0  0  0  0  0  0  0  0  0
   19.9342   -4.9732  -14.0446 C   0  0  1  0  0  0  0  0  0  0  0  0
   19.9582   -5.7111  -12.8507 O   0  0  0  0  0  0  0  0  0  0  0  0
   21.3404   -5.0779  -14.6240 C   0  0  2  0  0  0  0  0  0  0  0  0
   21.6125   -6.4994  -14.7684 N   0  0  0  0  0  0  0  0  0  0  0  0
   22.3330   -4.4303  -13.7543 C   0  0  0  0  0  0  0  0  0  0  0  0
   23.1075   -5.1648  -13.0882 O   0  0  0  0  0  0  0  0  0  0  0  0
   22.4793   -3.0579  -13.6132 O   0  0  0  0  0  0  0  0  0  0  0  0
  2  1  1  1
  2  9  1  0
  2  3  1  0
  3  4  1  0
  4  8  1  0
  4  5  2  0
  5  6  1  0
  7  6  1  0
  8  7  2  0
  9 11  1  0
 10  9  2  0
 11 12  1  0
 12 13  1  6
 13 14  1  0
 14 15  1  0
 15 16  1  0
 16 17  1  0
 18 19  2  0
 18 12  1  0
 21 20  1  6
 21 23  1  0
 22 21  1  0
 23 24  1  1
 23 25  1  0
 24 18  1  0
 25 27  1  0
 26 25  2  0
M  END
$$$$
