HKT.pdb
     RDKit          3D

 27 27  0  0  1  0  0  0  0  0999 V2000
   31.5713  -34.5087   -1.6598 N   0  0  0  0  0  0  0  0  0  0  0  0
   31.4602  -35.1380   -2.9578 C   0  0  1  0  0  0  0  0  0  0  0  0
   31.7791  -36.6038   -2.7755 C   0  0  0  0  0  0  0  0  0  0  0  0
   33.1563  -36.8212   -3.2721 C   0  0  0  0  0  0  0  0  0  0  0  0
   33.6754  -36.2709   -4.4228 C   0  0  0  0  0  0  0  0  0  0  0  0
   34.9614  -36.6933   -4.5521 N   0  0  0  0  0  0  0  0  0  0  0  0
   35.2412  -37.4877   -3.5095 C   0  0  0  0  0  0  0  0  0  0  0  0
   34.1383  -37.5528   -2.7474 N   0  0  0  0  0  0  0  0  0  0  0  0
   30.1179  -34.9063   -3.4976 C   0  0  0  0  0  0  0  0  0  0  0  0
   29.1519  -34.8416   -2.7047 O   0  0  0  0  0  0  0  0  0  0  0  0
   29.8181  -34.7464   -4.8709 N   0  0  0  0  0  0  0  0  0  0  0  0
   28.5091  -34.4950   -5.3150 C   0  0  1  0  0  0  0  0  0  0  0  0
   28.2455  -33.5041   -6.3658 C   0  0  0  0  0  0  0  0  0  0  0  0
   26.8024  -33.4265   -6.7417 C   0  0  0  0  0  0  0  0  0  0  0  0
   26.4352  -32.5558   -7.8797 C   0  0  0  0  0  0  0  0  0  0  0  0
   24.9593  -32.6468   -8.2292 C   0  0  0  0  0  0  0  0  0  0  0  0
   24.6987  -31.8241   -9.3705 N   0  0  0  0  0  0  0  0  0  0  0  0
   27.9915  -35.8236   -5.8258 C   0  0  0  0  0  0  0  0  0  0  0  0
   28.4311  -36.3402   -6.8640 O   0  0  0  0  0  0  0  0  0  0  0  0
   28.1097  -39.0407   -4.1255 C   0  0  0  0  0  0  0  0  0  0  0  0
   26.6697  -38.7087   -4.3558 C   0  0  1  0  0  0  0  0  0  0  0  0
   26.1595  -38.0380   -3.2330 O   0  0  0  0  0  0  0  0  0  0  0  0
   26.4824  -37.7532   -5.5288 C   0  0  2  0  0  0  0  0  0  0  0  0
   26.9888  -36.4642   -5.0840 N   0  0  0  0  0  0  0  0  0  0  0  0
   25.0717  -37.6621   -5.9320 C   0  0  0  0  0  0  0  0  0  0  0  0
   24.4984  -36.5461   -5.8373 O   0  0  0  0  0  0  0  0  0  0  0  0
   24.3207  -38.7247   -6.4129 O   0  0  0  0  0  0  0  0  0  0  0  0
  2  1  1  1
  2  9  1  0
  2  3  1  0
  3  4  1  0
  4  8  1  0
  4  5  2  0
  5  6  1  0
  7  6  1  0
  8  7  2  0
  9 11  1  0
 10  9  2  0
 11 12  1  0
 12 13  1  6
 13 14  1  0
 14 15  1  0
 15 16  1  0
 16 17  1  0
 18 19  2  0
 18 12  1  0
 21 20  1  1
 21 23  1  0
 22 21  1  0
 23 24  1  1
 23 25  1  0
 24 18  1  0
 25 27  1  0
 26 25  2  0
M  END
$$$$
