HKT.pdb
     RDKit          3D

 27 27  0  0  1  0  0  0  0  0999 V2000
   23.8687  -14.6744  -17.5334 N   0  0  0  0  0  0  0  0  0  0  0  0
   23.9015  -13.7179  -16.4484 C   0  0  1  0  0  0  0  0  0  0  0  0
   25.3266  -13.2322  -16.3202 C   0  0  0  0  0  0  0  0  0  0  0  0
   26.1503  -14.3868  -15.8970 C   0  0  0  0  0  0  0  0  0  0  0  0
   25.8406  -15.2380  -14.8597 C   0  0  0  0  0  0  0  0  0  0  0  0
   26.8249  -16.1717  -14.7691 N   0  0  0  0  0  0  0  0  0  0  0  0
   27.7282  -15.9126  -15.7248 C   0  0  0  0  0  0  0  0  0  0  0  0
   27.3032  -14.8306  -16.3957 N   0  0  0  0  0  0  0  0  0  0  0  0
   22.9504  -12.6377  -16.7231 C   0  0  0  0  0  0  0  0  0  0  0  0
   22.9175  -12.1405  -17.8710 O   0  0  0  0  0  0  0  0  0  0  0  0
   22.0469  -12.0995  -15.7768 N   0  0  0  0  0  0  0  0  0  0  0  0
   21.0773  -11.1502  -16.1408 C   0  0  1  0  0  0  0  0  0  0  0  0
   19.6548  -11.3764  -15.8562 C   0  0  0  0  0  0  0  0  0  0  0  0
   19.1385  -12.6451  -16.4507 C   0  0  0  0  0  0  0  0  0  0  0  0
   17.7181  -12.9850  -16.2162 C   0  0  0  0  0  0  0  0  0  0  0  0
   17.3071  -14.2751  -16.9057 C   0  0  0  0  0  0  0  0  0  0  0  0
   15.9828  -14.6240  -16.4913 N   0  0  0  0  0  0  0  0  0  0  0  0
   21.4697   -9.8741  -15.4255 C   0  0  0  0  0  0  0  0  0  0  0  0
   21.7705   -9.8660  -14.2223 O   0  0  0  0  0  0  0  0  0  0  0  0
   24.0123   -7.3631  -16.8549 C   0  0  0  0  0  0  0  0  0  0  0  0
   22.7135   -6.6830  -16.5589 C   0  0  1  0  0  0  0  0  0  0  0  0
   21.9284   -6.6486  -17.7220 O   0  0  0  0  0  0  0  0  0  0  0  0
   21.8902   -7.4448  -15.5264 C   0  0  2  0  0  0  0  0  0  0  0  0
   21.4855   -8.6854  -16.1689 N   0  0  0  0  0  0  0  0  0  0  0  0
   20.7234   -6.6672  -15.0849 C   0  0  0  0  0  0  0  0  0  0  0  0
   19.5833   -7.0411  -15.4634 O   0  0  0  0  0  0  0  0  0  0  0  0
   20.7881   -5.5426  -14.2750 O   0  0  0  0  0  0  0  0  0  0  0  0
  2  1  1  6
  2  9  1  0
  2  3  1  0
  3  4  1  0
  4  8  1  0
  4  5  2  0
  5  6  1  0
  7  6  1  0
  8  7  2  0
  9 11  1  0
 10  9  2  0
 11 12  1  0
 12 13  1  1
 13 14  1  0
 14 15  1  0
 15 16  1  0
 16 17  1  0
 18 19  2  0
 18 12  1  0
 21 20  1  6
 21 23  1  0
 22 21  1  0
 23 24  1  6
 23 25  1  0
 24 18  1  0
 25 27  1  0
 26 25  2  0
M  END
$$$$
