HKT.pdb
     RDKit          3D

 27 27  0  0  1  0  0  0  0  0999 V2000
   24.9828  -12.6483  -17.9405 N   0  0  0  0  0  0  0  0  0  0  0  0
   25.0763  -11.8833  -16.7160 C   0  0  1  0  0  0  0  0  0  0  0  0
   26.4905  -11.3597  -16.6200 C   0  0  0  0  0  0  0  0  0  0  0  0
   27.3751  -12.5200  -16.3717 C   0  0  0  0  0  0  0  0  0  0  0  0
   26.9462  -13.8194  -16.2170 C   0  0  0  0  0  0  0  0  0  0  0  0
   28.0368  -14.6038  -16.0064 N   0  0  0  0  0  0  0  0  0  0  0  0
   29.1212  -13.8165  -16.0285 C   0  0  0  0  0  0  0  0  0  0  0  0
   28.7012  -12.5611  -16.2504 N   0  0  0  0  0  0  0  0  0  0  0  0
   24.0704  -10.8180  -16.7300 C   0  0  0  0  0  0  0  0  0  0  0  0
   24.0513  -10.0192  -17.6930 O   0  0  0  0  0  0  0  0  0  0  0  0
   23.0985  -10.6142  -15.7224 N   0  0  0  0  0  0  0  0  0  0  0  0
   22.0932   -9.6416  -15.8542 C   0  0  1  0  0  0  0  0  0  0  0  0
   20.7316   -9.8919  -15.3651 C   0  0  0  0  0  0  0  0  0  0  0  0
   20.0600  -11.0233  -16.0711 C   0  0  0  0  0  0  0  0  0  0  0  0
   18.6543  -11.3164  -15.7162 C   0  0  0  0  0  0  0  0  0  0  0  0
   18.0554  -12.4185  -16.5738 C   0  0  0  0  0  0  0  0  0  0  0  0
   16.7416  -12.7207  -16.0944 N   0  0  0  0  0  0  0  0  0  0  0  0
   22.6073   -8.4236  -15.1151 C   0  0  0  0  0  0  0  0  0  0  0  0
   23.1680   -8.5171  -14.0128 O   0  0  0  0  0  0  0  0  0  0  0  0
   24.9209   -5.8315  -16.5587 C   0  0  0  0  0  0  0  0  0  0  0  0
   23.6570   -5.1671  -16.1135 C   0  0  1  0  0  0  0  0  0  0  0  0
   22.7695   -5.0773  -17.1974 O   0  0  0  0  0  0  0  0  0  0  0  0
   22.9280   -5.9779  -15.0481 C   0  0  2  0  0  0  0  0  0  0  0  0
   22.4314   -7.1698  -15.7177 N   0  0  0  0  0  0  0  0  0  0  0  0
   21.8309   -5.2105  -14.4412 C   0  0  0  0  0  0  0  0  0  0  0  0
   20.6499   -5.5304  -14.7344 O   0  0  0  0  0  0  0  0  0  0  0  0
   22.0038   -4.1513  -13.5621 O   0  0  0  0  0  0  0  0  0  0  0  0
  2  1  1  6
  2  9  1  0
  2  3  1  0
  3  4  1  0
  4  8  1  0
  4  5  2  0
  5  6  1  0
  7  6  1  0
  8  7  2  0
  9 11  1  0
 10  9  2  0
 11 12  1  0
 12 13  1  1
 13 14  1  0
 14 15  1  0
 15 16  1  0
 16 17  1  0
 18 19  2  0
 18 12  1  0
 21 20  1  6
 21 23  1  0
 22 21  1  0
 23 24  1  6
 23 25  1  0
 24 18  1  0
 25 27  1  0
 26 25  2  0
M  END
$$$$
