FQS.pdb
     RDKit          3D

 27 27  0  0  1  0  0  0  0  0999 V2000
    5.8259  -17.2882   25.3555 N   0  0  0  0  0  0  0  0  0  0  0  0
    6.6577  -16.1429   25.0919 C   0  0  1  0  0  0  0  0  0  0  0  0
    7.2605  -15.6421   26.4268 C   0  0  0  0  0  0  0  0  0  0  0  0
    6.9939  -14.1720   26.4600 C   0  0  0  0  0  0  0  0  0  0  0  0
    7.9558  -13.2098   26.3791 C   0  0  0  0  0  0  0  0  0  0  0  0
    7.6141  -11.8531   26.4428 C   0  0  0  0  0  0  0  0  0  0  0  0
    6.3083  -11.4363   26.5865 C   0  0  0  0  0  0  0  0  0  0  0  0
    5.3331  -12.4025   26.6685 C   0  0  0  0  0  0  0  0  0  0  0  0
    5.6681  -13.7303   26.6073 C   0  0  0  0  0  0  0  0  0  0  0  0
    7.6771  -16.2946   24.0748 C   0  0  0  0  0  0  0  0  0  0  0  0
    8.4160  -17.3436   24.1662 O   0  0  0  0  0  0  0  0  0  0  0  0
    7.2196  -12.0650   19.5841 N   0  0  0  0  0  0  0  0  0  0  0  0
    7.6942  -13.3901   19.3990 C   0  0  0  0  0  0  0  0  0  0  0  0
    8.1857  -13.7090   18.2968 O   0  0  0  0  0  0  0  0  0  0  0  0
    7.6074  -14.3750   20.4998 C   0  0  0  0  0  0  0  0  0  0  0  0
    8.9892  -14.6164   21.0128 C   0  0  0  0  0  0  0  0  0  0  0  0
    9.0846  -15.6945   22.0762 C   0  0  2  0  0  0  0  0  0  0  0  0
    7.9723  -15.4417   22.9907 N   0  0  0  0  0  0  0  0  0  0  0  0
   10.3762  -15.7155   22.7528 C   0  0  0  0  0  0  0  0  0  0  0  0
   10.6593  -14.9880   23.7397 O   0  0  0  0  0  0  0  0  0  0  0  0
   12.2745  -18.7843   23.5787 O   0  0  0  0  0  0  0  0  0  0  0  0
   12.8542  -17.6178   24.0938 C   0  0  0  0  0  0  0  0  0  0  0  0
   12.7482  -16.5665   23.0128 C   0  0  2  0  0  0  0  0  0  0  0  0
   11.4667  -16.5790   22.3596 N   0  0  0  0  0  0  0  0  0  0  0  0
   13.8435  -16.7981   22.0676 C   0  0  0  0  0  0  0  0  0  0  0  0
   15.1765  -16.7936   22.4580 O   0  0  0  0  0  0  0  0  0  0  0  0
   13.5842  -17.0130   20.8524 O   0  0  0  0  0  0  0  0  0  0  0  0
  2  1  1  1
  3  2  1  0
  4  9  2  0
  4  3  1  0
  5  4  1  0
  6  7  1  0
  6  5  2  0
  7  8  2  0
  8  9  1  0
 10 11  2  0
 10  2  1  0
 13 12  1  0
 14 13  2  0
 15 13  1  0
 17 16  1  6
 16 15  1  0
 17 18  1  0
 18 10  1  0
 19 17  1  0
 20 19  2  0
 22 21  1  0
 23 22  1  1
 23 24  1  0
 24 19  1  0
 25 26  1  0
 25 23  1  0
 27 25  2  0
M  END
$$$$
