FQS.pdb
     RDKit          3D

 27 27  0  0  1  0  0  0  0  0999 V2000
    5.4428  -17.7036   24.3660 N   0  0  0  0  0  0  0  0  0  0  0  0
    6.2145  -16.5076   24.5833 C   0  0  1  0  0  0  0  0  0  0  0  0
    6.7619  -16.5191   26.0311 C   0  0  0  0  0  0  0  0  0  0  0  0
    7.1251  -15.1012   26.3332 C   0  0  0  0  0  0  0  0  0  0  0  0
    6.2242  -14.1016   26.5494 C   0  0  0  0  0  0  0  0  0  0  0  0
    6.6574  -12.7941   26.8028 C   0  0  0  0  0  0  0  0  0  0  0  0
    7.9950  -12.4649   26.8460 C   0  0  0  0  0  0  0  0  0  0  0  0
    8.9089  -13.4693   26.6289 C   0  0  0  0  0  0  0  0  0  0  0  0
    8.4845  -14.7487   26.3796 C   0  0  0  0  0  0  0  0  0  0  0  0
    7.2610  -16.2206   23.6243 C   0  0  0  0  0  0  0  0  0  0  0  0
    8.0269  -17.2055   23.3109 O   0  0  0  0  0  0  0  0  0  0  0  0
    8.8776  -14.3814   18.8376 N   0  0  0  0  0  0  0  0  0  0  0  0
    7.5357  -14.0234   19.1320 C   0  0  0  0  0  0  0  0  0  0  0  0
    6.6611  -14.1784   18.2549 O   0  0  0  0  0  0  0  0  0  0  0  0
    7.1830  -13.4765   20.4608 C   0  0  0  0  0  0  0  0  0  0  0  0
    8.4024  -13.5332   21.3215 C   0  0  0  0  0  0  0  0  0  0  0  0
    8.6304  -14.8711   21.9998 C   0  0  2  0  0  0  0  0  0  0  0  0
    7.5567  -14.9991   22.9838 N   0  0  0  0  0  0  0  0  0  0  0  0
    9.9564  -14.9904   22.5946 C   0  0  0  0  0  0  0  0  0  0  0  0
   11.0268  -14.8739   21.9434 O   0  0  0  0  0  0  0  0  0  0  0  0
   10.4898  -16.4367   26.4636 O   0  0  0  0  0  0  0  0  0  0  0  0
   11.4814  -15.5352   26.0562 C   0  0  0  0  0  0  0  0  0  0  0  0
   11.4777  -15.5396   24.5446 C   0  0  2  0  0  0  0  0  0  0  0  0
   10.1782  -15.2529   23.9987 N   0  0  0  0  0  0  0  0  0  0  0  0
   11.9749  -16.8472   24.1091 C   0  0  0  0  0  0  0  0  0  0  0  0
   11.2081  -17.7183   23.3458 O   0  0  0  0  0  0  0  0  0  0  0  0
   13.1396  -17.2099   24.4285 O   0  0  0  0  0  0  0  0  0  0  0  0
  2  1  1  6
  3  2  1  0
  4  9  2  0
  4  3  1  0
  5  4  1  0
  6  7  1  0
  6  5  2  0
  7  8  2  0
  8  9  1  0
 10 11  2  0
 10  2  1  0
 13 12  1  0
 14 13  2  0
 15 13  1  0
 17 16  1  1
 16 15  1  0
 17 18  1  0
 18 10  1  0
 19 17  1  0
 20 19  2  0
 22 21  1  0
 23 22  1  1
 23 24  1  0
 24 19  1  0
 25 26  1  0
 25 23  1  0
 27 25  2  0
M  END
$$$$
