FQS.pdb
     RDKit          3D

 27 27  0  0  1  0  0  0  0  0999 V2000
    5.9776  -18.0731   24.1575 N   0  0  0  0  0  0  0  0  0  0  0  0
    6.7187  -16.8606   24.3893 C   0  0  1  0  0  0  0  0  0  0  0  0
    6.2999  -16.2696   25.7573 C   0  0  0  0  0  0  0  0  0  0  0  0
    6.7325  -14.8394   25.7251 C   0  0  0  0  0  0  0  0  0  0  0  0
    7.0876  -14.1645   24.5955 C   0  0  0  0  0  0  0  0  0  0  0  0
    7.5037  -12.8290   24.6643 C   0  0  0  0  0  0  0  0  0  0  0  0
    7.5702  -12.1469   25.8601 C   0  0  0  0  0  0  0  0  0  0  0  0
    7.2129  -12.8226   27.0033 C   0  0  0  0  0  0  0  0  0  0  0  0
    6.8068  -14.1301   26.9357 C   0  0  0  0  0  0  0  0  0  0  0  0
    8.1593  -16.9403   24.2661 C   0  0  0  0  0  0  0  0  0  0  0  0
    8.7238  -17.9330   24.8583 O   0  0  0  0  0  0  0  0  0  0  0  0
   11.9962  -16.9420   19.3873 N   0  0  0  0  0  0  0  0  0  0  0  0
   11.0754  -17.0922   20.4574 C   0  0  0  0  0  0  0  0  0  0  0  0
   10.9108  -18.2226   20.9607 O   0  0  0  0  0  0  0  0  0  0  0  0
   10.3253  -15.9230   20.9668 C   0  0  0  0  0  0  0  0  0  0  0  0
   10.9319  -15.5180   22.2703 C   0  0  0  0  0  0  0  0  0  0  0  0
   10.4660  -16.3357   23.4605 C   0  0  2  0  0  0  0  0  0  0  0  0
    9.0333  -16.0706   23.5808 N   0  0  0  0  0  0  0  0  0  0  0  0
   11.1996  -16.0317   24.6835 C   0  0  0  0  0  0  0  0  0  0  0  0
   12.4511  -16.1139   24.7857 O   0  0  0  0  0  0  0  0  0  0  0  0
    9.4043  -15.4726   28.4834 O   0  0  0  0  0  0  0  0  0  0  0  0
   10.4554  -14.6098   28.1475 C   0  0  0  0  0  0  0  0  0  0  0  0
   11.2941  -15.3285   27.1155 C   0  0  2  0  0  0  0  0  0  0  0  0
   10.5626  -15.6008   25.9074 N   0  0  0  0  0  0  0  0  0  0  0  0
   11.7957  -16.5569   27.7371 C   0  0  0  0  0  0  0  0  0  0  0  0
   11.5727  -17.8132   27.1880 O   0  0  0  0  0  0  0  0  0  0  0  0
   12.4571  -16.4891   28.8085 O   0  0  0  0  0  0  0  0  0  0  0  0
  2  1  1  1
  3  2  1  0
  4  9  2  0
  4  3  1  0
  5  4  1  0
  6  7  1  0
  6  5  2  0
  7  8  2  0
  8  9  1  0
 10 11  2  0
 10  2  1  0
 13 12  1  0
 14 13  2  0
 15 13  1  0
 17 16  1  6
 16 15  1  0
 17 18  1  0
 18 10  1  0
 19 17  1  0
 20 19  2  0
 22 21  1  0
 23 22  1  1
 23 24  1  0
 24 19  1  0
 25 26  1  0
 25 23  1  0
 27 25  2  0
M  END
$$$$
