FQS.pdb
     RDKit          3D

 27 27  0  0  1  0  0  0  0  0999 V2000
    5.8741  -16.8454   25.5612 N   0  0  0  0  0  0  0  0  0  0  0  0
    6.9552  -15.9982   25.1293 C   0  0  1  0  0  0  0  0  0  0  0  0
    7.4816  -15.1967   26.3444 C   0  0  0  0  0  0  0  0  0  0  0  0
    7.0633  -13.7824   26.1030 C   0  0  0  0  0  0  0  0  0  0  0  0
    7.7138  -12.9139   25.2783 C   0  0  0  0  0  0  0  0  0  0  0  0
    7.2620  -11.5965   25.1314 C   0  0  0  0  0  0  0  0  0  0  0  0
    6.1542  -11.1265   25.8034 C   0  0  0  0  0  0  0  0  0  0  0  0
    5.4934  -11.9984   26.6368 C   0  0  0  0  0  0  0  0  0  0  0  0
    5.9366  -13.2874   26.7813 C   0  0  0  0  0  0  0  0  0  0  0  0
    8.0367  -16.6345   24.4065 C   0  0  0  0  0  0  0  0  0  0  0  0
    8.5380  -17.6872   24.9497 O   0  0  0  0  0  0  0  0  0  0  0  0
   10.7810  -17.5915   17.8620 N   0  0  0  0  0  0  0  0  0  0  0  0
   10.7413  -16.6537   18.9271 C   0  0  0  0  0  0  0  0  0  0  0  0
   10.5742  -15.4450   18.6639 O   0  0  0  0  0  0  0  0  0  0  0  0
   10.8943  -17.1068   20.3273 C   0  0  0  0  0  0  0  0  0  0  0  0
    9.7798  -16.5167   21.1275 C   0  0  0  0  0  0  0  0  0  0  0  0
    9.7059  -17.0103   22.5604 C   0  0  2  0  0  0  0  0  0  0  0  0
    8.6192  -16.2532   23.1797 N   0  0  0  0  0  0  0  0  0  0  0  0
   10.9682  -16.8720   23.2771 C   0  0  0  0  0  0  0  0  0  0  0  0
   11.4600  -15.7649   23.6178 O   0  0  0  0  0  0  0  0  0  0  0  0
   14.3413  -18.7790   26.1316 O   0  0  0  0  0  0  0  0  0  0  0  0
   13.1061  -18.9655   25.4979 C   0  0  0  0  0  0  0  0  0  0  0  0
   12.9688  -17.8568   24.4796 C   0  0  2  0  0  0  0  0  0  0  0  0
   11.7858  -17.9962   23.6734 N   0  0  0  0  0  0  0  0  0  0  0  0
   14.1865  -17.8572   23.6647 C   0  0  0  0  0  0  0  0  0  0  0  0
   15.4449  -17.6309   24.2074 O   0  0  0  0  0  0  0  0  0  0  0  0
   14.1074  -18.0711   22.4245 O   0  0  0  0  0  0  0  0  0  0  0  0
  2  1  1  1
  3  2  1  0
  4  9  2  0
  4  3  1  0
  5  4  1  0
  6  7  1  0
  6  5  2  0
  7  8  2  0
  8  9  1  0
 10 11  2  0
 10  2  1  0
 13 12  1  0
 14 13  2  0
 15 13  1  0
 17 16  1  6
 16 15  1  0
 17 18  1  0
 18 10  1  0
 19 17  1  0
 20 19  2  0
 22 21  1  0
 23 22  1  1
 23 24  1  0
 24 19  1  0
 25 26  1  0
 25 23  1  0
 27 25  2  0
M  END
$$$$
