FQS.pdb
     RDKit          3D

 27 27  0  0  1  0  0  0  0  0999 V2000
    5.7735  -18.1395   25.3244 N   0  0  0  0  0  0  0  0  0  0  0  0
    6.3221  -16.8179   25.1651 C   0  0  1  0  0  0  0  0  0  0  0  0
    6.9054  -16.3495   26.5203 C   0  0  0  0  0  0  0  0  0  0  0  0
    6.8722  -14.8560   26.4758 C   0  0  0  0  0  0  0  0  0  0  0  0
    5.7329  -14.1086   26.4475 C   0  0  0  0  0  0  0  0  0  0  0  0
    5.7986  -12.7111   26.3821 C   0  0  0  0  0  0  0  0  0  0  0  0
    7.0012  -12.0388   26.3456 C   0  0  0  0  0  0  0  0  0  0  0  0
    8.1543  -12.7876   26.3742 C   0  0  0  0  0  0  0  0  0  0  0  0
    8.0896  -14.1554   26.4370 C   0  0  0  0  0  0  0  0  0  0  0  0
    7.2703  -16.6283   24.0872 C   0  0  0  0  0  0  0  0  0  0  0  0
    8.1140  -17.5814   23.9016 O   0  0  0  0  0  0  0  0  0  0  0  0
    6.6808  -12.5980   19.5461 N   0  0  0  0  0  0  0  0  0  0  0  0
    7.8391  -13.2502   19.0476 C   0  0  0  0  0  0  0  0  0  0  0  0
    8.2835  -12.9233   17.9279 O   0  0  0  0  0  0  0  0  0  0  0  0
    8.5077  -14.3000   19.8476 C   0  0  0  0  0  0  0  0  0  0  0  0
    7.7801  -14.4241   21.1460 C   0  0  0  0  0  0  0  0  0  0  0  0
    8.2426  -15.5770   22.0172 C   0  0  2  0  0  0  0  0  0  0  0  0
    7.3953  -15.5325   23.2078 N   0  0  0  0  0  0  0  0  0  0  0  0
    9.6644  -15.5168   22.3354 C   0  0  0  0  0  0  0  0  0  0  0  0
   10.5731  -15.4708   21.4661 O   0  0  0  0  0  0  0  0  0  0  0  0
   11.0823  -16.3365   26.1130 O   0  0  0  0  0  0  0  0  0  0  0  0
   11.8551  -15.3616   25.4694 C   0  0  0  0  0  0  0  0  0  0  0  0
   11.5839  -15.5003   23.9887 C   0  0  2  0  0  0  0  0  0  0  0  0
   10.1776  -15.5009   23.6866 N   0  0  0  0  0  0  0  0  0  0  0  0
   12.2385  -16.7308   23.5370 C   0  0  0  0  0  0  0  0  0  0  0  0
   11.5351  -17.7762   22.9523 O   0  0  0  0  0  0  0  0  0  0  0  0
   13.4851  -16.8612   23.6744 O   0  0  0  0  0  0  0  0  0  0  0  0
  2  1  1  1
  3  2  1  0
  4  9  2  0
  4  3  1  0
  5  4  1  0
  6  7  1  0
  6  5  2  0
  7  8  2  0
  8  9  1  0
 10 11  2  0
 10  2  1  0
 13 12  1  0
 14 13  2  0
 15 13  1  0
 17 16  1  6
 16 15  1  0
 17 18  1  0
 18 10  1  0
 19 17  1  0
 20 19  2  0
 22 21  1  0
 23 22  1  1
 23 24  1  0
 24 19  1  0
 25 26  1  0
 25 23  1  0
 27 25  2  0
M  END
$$$$
