FQS.pdb
     RDKit          3D

 27 27  0  0  1  0  0  0  0  0999 V2000
    5.8118  -16.8654   25.1240 N   0  0  0  0  0  0  0  0  0  0  0  0
    6.6917  -15.8123   24.6881 C   0  0  1  0  0  0  0  0  0  0  0  0
    7.4482  -15.2495   25.9156 C   0  0  0  0  0  0  0  0  0  0  0  0
    7.0148  -13.8241   26.0342 C   0  0  0  0  0  0  0  0  0  0  0  0
    7.6081  -12.7796   25.3904 C   0  0  0  0  0  0  0  0  0  0  0  0
    7.1477  -11.4707   25.5807 C   0  0  0  0  0  0  0  0  0  0  0  0
    6.0881  -11.1846   26.4143 C   0  0  0  0  0  0  0  0  0  0  0  0
    5.4851  -12.2345   27.0665 C   0  0  0  0  0  0  0  0  0  0  0  0
    5.9368  -13.5154   26.8810 C   0  0  0  0  0  0  0  0  0  0  0  0
    7.6000  -16.1249   23.6044 C   0  0  0  0  0  0  0  0  0  0  0  0
    8.1345  -17.2946   23.6338 O   0  0  0  0  0  0  0  0  0  0  0  0
    8.3773  -14.0399   17.3567 N   0  0  0  0  0  0  0  0  0  0  0  0
    7.5370  -13.8666   18.4877 C   0  0  0  0  0  0  0  0  0  0  0  0
    6.8294  -12.8412   18.5651 O   0  0  0  0  0  0  0  0  0  0  0  0
    7.5022  -14.8897   19.5560 C   0  0  0  0  0  0  0  0  0  0  0  0
    8.7680  -14.7799   20.3413 C   0  0  0  0  0  0  0  0  0  0  0  0
    8.8939  -15.7831   21.4727 C   0  0  2  0  0  0  0  0  0  0  0  0
    7.9812  -15.3148   22.5144 N   0  0  0  0  0  0  0  0  0  0  0  0
   10.2632  -15.9350   21.9505 C   0  0  0  0  0  0  0  0  0  0  0  0
   10.7334  -15.3061   22.9338 O   0  0  0  0  0  0  0  0  0  0  0  0
   11.5728  -19.0468   23.1389 O   0  0  0  0  0  0  0  0  0  0  0  0
   12.2198  -17.8227   23.3510 C   0  0  0  0  0  0  0  0  0  0  0  0
   12.4510  -17.2118   21.9877 C   0  0  2  0  0  0  0  0  0  0  0  0
   11.2235  -16.8286   21.3433 N   0  0  0  0  0  0  0  0  0  0  0  0
   13.2023  -18.1867   21.1927 C   0  0  0  0  0  0  0  0  0  0  0  0
   14.4623  -18.6374   21.5650 O   0  0  0  0  0  0  0  0  0  0  0  0
   12.7007  -18.6448   20.1304 O   0  0  0  0  0  0  0  0  0  0  0  0
  2  1  1  1
  3  2  1  0
  4  9  2  0
  4  3  1  0
  5  4  1  0
  6  7  1  0
  6  5  2  0
  7  8  2  0
  8  9  1  0
 10 11  2  0
 10  2  1  0
 13 12  1  0
 14 13  2  0
 15 13  1  0
 17 16  1  6
 16 15  1  0
 17 18  1  0
 18 10  1  0
 19 17  1  0
 20 19  2  0
 22 21  1  0
 23 22  1  1
 23 24  1  0
 24 19  1  0
 25 26  1  0
 25 23  1  0
 27 25  2  0
M  END
$$$$
