FQS.pdb
     RDKit          3D

 27 27  0  0  1  0  0  0  0  0999 V2000
    5.8181  -17.8066   25.4346 N   0  0  0  0  0  0  0  0  0  0  0  0
    6.5044  -16.5723   25.1541 C   0  0  1  0  0  0  0  0  0  0  0  0
    7.3191  -16.1557   26.4026 C   0  0  0  0  0  0  0  0  0  0  0  0
    7.2124  -14.6666   26.4718 C   0  0  0  0  0  0  0  0  0  0  0  0
    6.0480  -13.9686   26.3522 C   0  0  0  0  0  0  0  0  0  0  0  0
    6.0470  -12.5691   26.4063 C   0  0  0  0  0  0  0  0  0  0  0  0
    7.2069  -11.8456   26.5819 C   0  0  0  0  0  0  0  0  0  0  0  0
    8.3851  -12.5444   26.7034 C   0  0  0  0  0  0  0  0  0  0  0  0
    8.3858  -13.9141   26.6493 C   0  0  0  0  0  0  0  0  0  0  0  0
    7.3157  -16.5323   23.9554 C   0  0  0  0  0  0  0  0  0  0  0  0
    8.0049  -17.5888   23.7031 O   0  0  0  0  0  0  0  0  0  0  0  0
    7.1016  -12.4279   19.3951 N   0  0  0  0  0  0  0  0  0  0  0  0
    7.9958  -13.3529   18.7949 C   0  0  0  0  0  0  0  0  0  0  0  0
    8.3206  -13.1934   17.6003 O   0  0  0  0  0  0  0  0  0  0  0  0
    8.5340  -14.4869   19.5782 C   0  0  0  0  0  0  0  0  0  0  0  0
    7.8978  -14.4577   20.9292 C   0  0  0  0  0  0  0  0  0  0  0  0
    8.3147  -15.5939   21.8442 C   0  0  2  0  0  0  0  0  0  0  0  0
    7.4543  -15.4846   23.0212 N   0  0  0  0  0  0  0  0  0  0  0  0
    9.7336  -15.5649   22.1794 C   0  0  0  0  0  0  0  0  0  0  0  0
   10.6541  -15.5818   21.3217 O   0  0  0  0  0  0  0  0  0  0  0  0
   11.1988  -16.6218   25.8236 O   0  0  0  0  0  0  0  0  0  0  0  0
   11.8885  -15.5019   25.3417 C   0  0  0  0  0  0  0  0  0  0  0  0
   11.6311  -15.4408   23.8534 C   0  0  2  0  0  0  0  0  0  0  0  0
   10.2300  -15.5108   23.5359 N   0  0  0  0  0  0  0  0  0  0  0  0
   12.3853  -16.5333   23.2333 C   0  0  0  0  0  0  0  0  0  0  0  0
   11.7714  -17.5318   22.4879 O   0  0  0  0  0  0  0  0  0  0  0  0
   13.6379  -16.5830   23.3695 O   0  0  0  0  0  0  0  0  0  0  0  0
  2  1  1  1
  3  2  1  0
  4  9  2  0
  4  3  1  0
  5  4  1  0
  6  7  1  0
  6  5  2  0
  7  8  2  0
  8  9  1  0
 10 11  2  0
 10  2  1  0
 13 12  1  0
 14 13  2  0
 15 13  1  0
 17 16  1  6
 16 15  1  0
 17 18  1  0
 18 10  1  0
 19 17  1  0
 20 19  2  0
 22 21  1  0
 23 22  1  1
 23 24  1  0
 24 19  1  0
 25 26  1  0
 25 23  1  0
 27 25  2  0
M  END
$$$$
