FQS.pdb
     RDKit          3D

 27 27  0  0  1  0  0  0  0  0999 V2000
    5.6415  -17.2607   24.7770 N   0  0  0  0  0  0  0  0  0  0  0  0
    6.4057  -16.0408   24.7466 C   0  0  1  0  0  0  0  0  0  0  0  0
    7.0758  -15.8332   26.1264 C   0  0  0  0  0  0  0  0  0  0  0  0
    7.0132  -14.3625   26.3848 C   0  0  0  0  0  0  0  0  0  0  0  0
    8.0983  -13.5719   26.6187 C   0  0  0  0  0  0  0  0  0  0  0  0
    7.9416  -12.2040   26.8754 C   0  0  0  0  0  0  0  0  0  0  0  0
    6.7008  -11.6046   26.9010 C   0  0  0  0  0  0  0  0  0  0  0  0
    5.6019  -12.3973   26.6654 C   0  0  0  0  0  0  0  0  0  0  0  0
    5.7556  -13.7363   26.4154 C   0  0  0  0  0  0  0  0  0  0  0  0
    7.3598  -15.8930   23.6674 C   0  0  0  0  0  0  0  0  0  0  0  0
    8.1725  -16.8746   23.4922 O   0  0  0  0  0  0  0  0  0  0  0  0
    8.7468  -13.1642   18.1900 N   0  0  0  0  0  0  0  0  0  0  0  0
    7.7060  -13.7070   18.9885 C   0  0  0  0  0  0  0  0  0  0  0  0
    7.0651  -14.6896   18.5620 O   0  0  0  0  0  0  0  0  0  0  0  0
    7.3900  -13.1148   20.3070 C   0  0  0  0  0  0  0  0  0  0  0  0
    8.5531  -13.3572   21.2122 C   0  0  0  0  0  0  0  0  0  0  0  0
    8.6088  -14.7539   21.8024 C   0  0  2  0  0  0  0  0  0  0  0  0
    7.5205  -14.8108   22.7769 N   0  0  0  0  0  0  0  0  0  0  0  0
    9.9056  -15.0747   22.3872 C   0  0  0  0  0  0  0  0  0  0  0  0
   10.4303  -14.4189   23.3242 O   0  0  0  0  0  0  0  0  0  0  0  0
   11.3541  -18.6712   22.5390 O   0  0  0  0  0  0  0  0  0  0  0  0
   12.1122  -17.7318   23.2494 C   0  0  0  0  0  0  0  0  0  0  0  0
   12.0394  -16.4376   22.4718 C   0  0  2  0  0  0  0  0  0  0  0  0
   10.7229  -16.1842   21.9509 N   0  0  0  0  0  0  0  0  0  0  0  0
   13.0422  -16.5100   21.4060 C   0  0  0  0  0  0  0  0  0  0  0  0
   14.3983  -16.6560   21.6690 O   0  0  0  0  0  0  0  0  0  0  0  0
   12.6780  -16.4410   20.2007 O   0  0  0  0  0  0  0  0  0  0  0  0
  2  1  1  1
  3  2  1  0
  4  9  2  0
  4  3  1  0
  5  4  1  0
  6  7  1  0
  6  5  2  0
  7  8  2  0
  8  9  1  0
 10 11  2  0
 10  2  1  0
 13 12  1  0
 14 13  2  0
 15 13  1  0
 17 16  1  1
 16 15  1  0
 17 18  1  0
 18 10  1  0
 19 17  1  0
 20 19  2  0
 22 21  1  0
 23 22  1  6
 23 24  1  0
 24 19  1  0
 25 26  1  0
 25 23  1  0
 27 25  2  0
M  END
$$$$
