DTA.pdb
     RDKit          3D

 21 20  0  0  1  0  0  0  0  0999 V2000
   16.8094  -11.3150  -16.8674 N   0  0  0  0  0  0  0  0  0  0  0  0
   17.9914  -11.0244  -16.0179 C   0  0  1  0  0  0  0  0  0  0  0  0
   18.9512  -12.1627  -16.0865 C   0  0  0  0  0  0  0  0  0  0  0  0
   18.4554  -13.3574  -15.4196 C   0  0  0  0  0  0  0  0  0  0  0  0
   17.3678  -13.4048  -14.8337 O   0  0  0  0  0  0  0  0  0  0  0  0
   18.5675   -9.7346  -16.4853 C   0  0  0  0  0  0  0  0  0  0  0  0
   18.8963   -9.5170  -17.6601 O   0  0  0  0  0  0  0  0  0  0  0  0
   19.2188  -14.5389  -15.4173 O   0  0  0  0  0  0  0  0  0  0  0  0
   16.8762   -6.7298  -16.7898 C   0  0  0  0  0  0  0  0  0  0  0  0
   17.9554   -6.4676  -15.7973 C   0  0  1  0  0  0  0  0  0  0  0  0
   17.4142   -6.7564  -14.5225 O   0  0  0  0  0  0  0  0  0  0  0  0
   19.1908   -7.3273  -15.9673 C   0  0  2  0  0  0  0  0  0  0  0  0
   18.7659   -8.6707  -15.5592 N   0  0  0  0  0  0  0  0  0  0  0  0
   20.3228   -6.9002  -15.1432 C   0  0  0  0  0  0  0  0  0  0  0  0
   20.2886   -7.1088  -13.8811 O   0  0  0  0  0  0  0  0  0  0  0  0
   23.7727   -5.3680  -15.4967 C   0  0  0  0  0  0  0  0  0  0  0  0
   22.5833   -5.8672  -14.7341 C   0  0  2  0  0  0  0  0  0  0  0  0
   21.4908   -6.2619  -15.5979 N   0  0  0  0  0  0  0  0  0  0  0  0
   22.0902   -4.7829  -13.8514 C   0  0  0  0  0  0  0  0  0  0  0  0
   22.6466   -4.5223  -12.5921 O   0  0  0  0  0  0  0  0  0  0  0  0
   21.1388   -4.0356  -14.1923 O   0  0  0  0  0  0  0  0  0  0  0  0
  2  1  1  6
  3  2  1  0
  4  3  1  0
  5  4  2  0
  6  2  1  0
  7  6  2  0
  8  4  1  0
 10  9  1  6
 10 12  1  0
 11 10  1  0
 12 14  1  0
 12 13  1  1
 13  6  1  0
 14 18  1  0
 15 14  2  0
 17 16  1  6
 17 19  1  0
 18 17  1  0
 19 21  2  0
 19 20  1  0
M  END
$$$$
