DTA.pdb
     RDKit          3D

 21 20  0  0  1  0  0  0  0  0999 V2000
   16.0883  -10.7025  -16.8362 N   0  0  0  0  0  0  0  0  0  0  0  0
   16.7085  -10.1617  -15.6008 C   0  0  1  0  0  0  0  0  0  0  0  0
   17.3639  -11.2655  -14.8433 C   0  0  0  0  0  0  0  0  0  0  0  0
   16.4283  -12.3059  -14.4431 C   0  0  0  0  0  0  0  0  0  0  0  0
   16.5575  -13.4931  -14.7623 O   0  0  0  0  0  0  0  0  0  0  0  0
   17.6495   -9.0846  -16.0114 C   0  0  0  0  0  0  0  0  0  0  0  0
   18.3901   -9.1630  -17.0017 O   0  0  0  0  0  0  0  0  0  0  0  0
   15.3081  -11.9891  -13.6534 O   0  0  0  0  0  0  0  0  0  0  0  0
   16.6094   -5.6894  -16.9211 C   0  0  0  0  0  0  0  0  0  0  0  0
   17.5445   -5.5907  -15.7660 C   0  0  1  0  0  0  0  0  0  0  0  0
   16.7493   -5.6129  -14.5961 O   0  0  0  0  0  0  0  0  0  0  0  0
   18.5360   -6.7307  -15.6582 C   0  0  2  0  0  0  0  0  0  0  0  0
   17.7294   -7.8851  -15.2475 N   0  0  0  0  0  0  0  0  0  0  0  0
   19.5951   -6.4984  -14.6747 C   0  0  0  0  0  0  0  0  0  0  0  0
   19.2767   -6.2995  -13.4513 O   0  0  0  0  0  0  0  0  0  0  0  0
   23.3560   -6.6002  -14.3445 C   0  0  0  0  0  0  0  0  0  0  0  0
   21.9788   -6.1861  -13.9234 C   0  0  2  0  0  0  0  0  0  0  0  0
   20.9779   -6.4683  -14.9304 N   0  0  0  0  0  0  0  0  0  0  0  0
   21.9717   -4.7239  -13.6789 C   0  0  0  0  0  0  0  0  0  0  0  0
   22.5705   -4.1435  -12.5528 O   0  0  0  0  0  0  0  0  0  0  0  0
   21.4226   -3.9237  -14.4777 O   0  0  0  0  0  0  0  0  0  0  0  0
  2  1  1  6
  3  2  1  0
  4  3  1  0
  5  4  2  0
  6  2  1  0
  7  6  2  0
  8  4  1  0
 10  9  1  6
 10 12  1  0
 11 10  1  0
 12 14  1  0
 12 13  1  1
 13  6  1  0
 14 18  1  0
 15 14  2  0
 17 16  1  6
 17 19  1  0
 18 17  1  0
 19 21  2  0
 19 20  1  0
M  END
$$$$
