DTA.pdb
     RDKit          3D

 21 20  0  0  1  0  0  0  0  0999 V2000
   14.2991  -11.3290  -10.9243 N   0  0  0  0  0  0  0  0  0  0  0  0
   15.3524  -10.3306  -11.2359 C   0  0  1  0  0  0  0  0  0  0  0  0
   15.7692  -10.4682  -12.6603 C   0  0  0  0  0  0  0  0  0  0  0  0
   16.2791  -11.7952  -12.9713 C   0  0  0  0  0  0  0  0  0  0  0  0
   16.2930  -12.7245  -12.1561 O   0  0  0  0  0  0  0  0  0  0  0  0
   14.8023   -8.9878  -10.9065 C   0  0  0  0  0  0  0  0  0  0  0  0
   13.6113   -8.6799  -11.0564 O   0  0  0  0  0  0  0  0  0  0  0  0
   16.7904  -12.0785  -14.2509 O   0  0  0  0  0  0  0  0  0  0  0  0
   14.9072   -7.1025   -7.6307 C   0  0  0  0  0  0  0  0  0  0  0  0
   15.6660   -6.3576   -8.6736 C   0  0  1  0  0  0  0  0  0  0  0  0
   17.0107   -6.7878   -8.5831 O   0  0  0  0  0  0  0  0  0  0  0  0
   15.2054   -6.6154  -10.0934 C   0  0  2  0  0  0  0  0  0  0  0  0
   15.6628   -7.9775  -10.3893 N   0  0  0  0  0  0  0  0  0  0  0  0
   15.7696   -5.6856  -11.0731 C   0  0  0  0  0  0  0  0  0  0  0  0
   17.0205   -5.7422  -11.3375 O   0  0  0  0  0  0  0  0  0  0  0  0
   14.6583   -3.1230  -13.6217 C   0  0  0  0  0  0  0  0  0  0  0  0
   15.6717   -3.8317  -12.7755 C   0  0  2  0  0  0  0  0  0  0  0  0
   15.0663   -4.6980  -11.7863 N   0  0  0  0  0  0  0  0  0  0  0  0
   16.4835   -2.8228  -12.0538 C   0  0  0  0  0  0  0  0  0  0  0  0
   16.4436   -2.6772  -10.6607 O   0  0  0  0  0  0  0  0  0  0  0  0
   17.2561   -2.0395  -12.6618 O   0  0  0  0  0  0  0  0  0  0  0  0
  2  1  1  6
  3  2  1  0
  4  3  1  0
  5  4  2  0
  6  2  1  0
  7  6  2  0
  8  4  1  0
 10  9  1  1
 10 12  1  0
 11 10  1  0
 12 14  1  0
 12 13  1  6
 13  6  1  0
 14 18  1  0
 15 14  2  0
 17 16  1  1
 17 19  1  0
 18 17  1  0
 19 21  2  0
 19 20  1  0
M  END
$$$$
