DTA.pdb
     RDKit          3D

 21 20  0  0  1  0  0  0  0  0999 V2000
   17.8524  -11.7655  -15.0529 N   0  0  0  0  0  0  0  0  0  0  0  0
   17.7136  -10.3002  -15.2452 C   0  0  1  0  0  0  0  0  0  0  0  0
   16.3539   -9.8642  -14.8179 C   0  0  0  0  0  0  0  0  0  0  0  0
   15.2931  -10.4885  -15.5943 C   0  0  0  0  0  0  0  0  0  0  0  0
   14.3687  -11.1319  -15.0847 O   0  0  0  0  0  0  0  0  0  0  0  0
   18.8121   -9.6466  -14.4835 C   0  0  0  0  0  0  0  0  0  0  0  0
   18.9644   -9.7693  -13.2599 O   0  0  0  0  0  0  0  0  0  0  0  0
   15.2799  -10.3791  -16.9967 O   0  0  0  0  0  0  0  0  0  0  0  0
   22.2647  -10.3368  -14.5562 C   0  0  0  0  0  0  0  0  0  0  0  0
   22.1115   -8.9384  -15.0452 C   0  0  1  0  0  0  0  0  0  0  0  0
   21.9539   -9.0136  -16.4491 O   0  0  0  0  0  0  0  0  0  0  0  0
   20.9046   -8.2068  -14.4952 C   0  0  2  0  0  0  0  0  0  0  0  0
   19.7576   -8.8285  -15.1658 N   0  0  0  0  0  0  0  0  0  0  0  0
   20.9124   -6.7689  -14.7702 C   0  0  0  0  0  0  0  0  0  0  0  0
   20.6580   -6.3599  -15.9558 O   0  0  0  0  0  0  0  0  0  0  0  0
   20.9149   -3.4697  -12.9646 C   0  0  0  0  0  0  0  0  0  0  0  0
   21.1418   -4.3341  -14.1674 C   0  0  2  0  0  0  0  0  0  0  0  0
   21.1772   -5.7445  -13.8434 N   0  0  0  0  0  0  0  0  0  0  0  0
   22.4471   -3.9787  -14.7738 C   0  0  0  0  0  0  0  0  0  0  0  0
   22.6212   -2.8479  -15.5828 O   0  0  0  0  0  0  0  0  0  0  0  0
   23.4733   -4.6810  -14.5904 O   0  0  0  0  0  0  0  0  0  0  0  0
  2  1  1  1
  3  2  1  0
  4  3  1  0
  5  4  2  0
  6  2  1  0
  7  6  2  0
  8  4  1  0
 10  9  1  1
 10 12  1  0
 11 10  1  0
 12 14  1  0
 12 13  1  6
 13  6  1  0
 14 18  1  0
 15 14  2  0
 17 16  1  1
 17 19  1  0
 18 17  1  0
 19 21  2  0
 19 20  1  0
M  END
$$$$
