DTA.pdb
     RDKit          3D

 21 20  0  0  1  0  0  0  0  0999 V2000
   18.6075  -10.9881  -15.0987 N   0  0  0  0  0  0  0  0  0  0  0  0
   17.5471  -10.0568  -14.6389 C   0  0  1  0  0  0  0  0  0  0  0  0
   16.2435  -10.7759  -14.5674 C   0  0  0  0  0  0  0  0  0  0  0  0
   15.5643  -10.8380  -15.8530 C   0  0  0  0  0  0  0  0  0  0  0  0
   16.0206  -10.3348  -16.8859 O   0  0  0  0  0  0  0  0  0  0  0  0
   17.9860   -9.4946  -13.3330 C   0  0  0  0  0  0  0  0  0  0  0  0
   18.4645  -10.1801  -12.4182 O   0  0  0  0  0  0  0  0  0  0  0  0
   14.3254  -11.4937  -15.9716 O   0  0  0  0  0  0  0  0  0  0  0  0
   20.6687   -7.2721  -12.7421 C   0  0  0  0  0  0  0  0  0  0  0  0
   19.4521   -6.5581  -12.2643 C   0  0  1  0  0  0  0  0  0  0  0  0
   18.9874   -5.7765  -13.3481 O   0  0  0  0  0  0  0  0  0  0  0  0
   18.3142   -7.4644  -11.8422 C   0  0  2  0  0  0  0  0  0  0  0  0
   17.8637   -8.0970  -13.0867 N   0  0  0  0  0  0  0  0  0  0  0  0
   17.1952   -6.7536  -11.2212 C   0  0  0  0  0  0  0  0  0  0  0  0
   16.3709   -6.1177  -11.9654 O   0  0  0  0  0  0  0  0  0  0  0  0
   15.5947   -6.2648   -7.8189 C   0  0  0  0  0  0  0  0  0  0  0  0
   15.7365   -6.0441   -9.2942 C   0  0  2  0  0  0  0  0  0  0  0  0
   16.9103   -6.6874   -9.8454 N   0  0  0  0  0  0  0  0  0  0  0  0
   15.8578   -4.5892   -9.5518 C   0  0  0  0  0  0  0  0  0  0  0  0
   14.7590   -3.7207   -9.5108 O   0  0  0  0  0  0  0  0  0  0  0  0
   16.9637   -4.0566   -9.8225 O   0  0  0  0  0  0  0  0  0  0  0  0
  2  1  1  1
  3  2  1  0
  4  3  1  0
  5  4  2  0
  6  2  1  0
  7  6  2  0
  8  4  1  0
 10  9  1  6
 10 12  1  0
 11 10  1  0
 12 14  1  0
 12 13  1  6
 13  6  1  0
 14 18  1  0
 15 14  2  0
 17 16  1  1
 17 19  1  0
 18 17  1  0
 19 21  2  0
 19 20  1  0
M  END
$$$$
