DTA.pdb
     RDKit          3D

 21 20  0  0  1  0  0  0  0  0999 V2000
   26.1116  -21.4967  -10.6190 N   0  0  0  0  0  0  0  0  0  0  0  0
   24.8610  -21.1551  -11.3418 C   0  0  1  0  0  0  0  0  0  0  0  0
   23.9822  -20.3318  -10.4635 C   0  0  0  0  0  0  0  0  0  0  0  0
   23.6280  -21.0115   -9.2264 C   0  0  0  0  0  0  0  0  0  0  0  0
   23.2400  -22.1845   -9.1845 O   0  0  0  0  0  0  0  0  0  0  0  0
   25.2508  -20.4670  -12.6023 C   0  0  0  0  0  0  0  0  0  0  0  0
   26.1951  -19.6686  -12.6830 O   0  0  0  0  0  0  0  0  0  0  0  0
   23.7172  -20.3381   -7.9946 O   0  0  0  0  0  0  0  0  0  0  0  0
   26.6273  -21.9352  -15.3942 C   0  0  0  0  0  0  0  0  0  0  0  0
   25.3877  -21.2956  -15.9163 C   0  0  1  0  0  0  0  0  0  0  0  0
   24.3792  -22.2877  -15.8970 O   0  0  0  0  0  0  0  0  0  0  0  0
   24.8861  -20.1274  -15.0930 C   0  0  2  0  0  0  0  0  0  0  0  0
   24.5208  -20.7158  -13.7998 N   0  0  0  0  0  0  0  0  0  0  0  0
   23.7211  -19.4564  -15.6723 C   0  0  0  0  0  0  0  0  0  0  0  0
   22.5484  -19.8315  -15.3231 O   0  0  0  0  0  0  0  0  0  0  0  0
   22.8495  -16.5192  -17.8950 C   0  0  0  0  0  0  0  0  0  0  0  0
   22.5553  -17.7912  -17.1596 C   0  0  2  0  0  0  0  0  0  0  0  0
   23.7438  -18.4042  -16.6054 N   0  0  0  0  0  0  0  0  0  0  0  0
   21.9468  -18.7602  -18.1023 C   0  0  0  0  0  0  0  0  0  0  0  0
   20.5997  -18.6992  -18.4833 O   0  0  0  0  0  0  0  0  0  0  0  0
   22.6157  -19.6943  -18.6121 O   0  0  0  0  0  0  0  0  0  0  0  0
  2  1  1  1
  3  2  1  0
  4  3  1  0
  5  4  2  0
  6  2  1  0
  7  6  2  0
  8  4  1  0
 10  9  1  1
 10 12  1  0
 11 10  1  0
 12 14  1  0
 12 13  1  1
 13  6  1  0
 14 18  1  0
 15 14  2  0
 17 16  1  6
 17 19  1  0
 18 17  1  0
 19 21  2  0
 19 20  1  0
M  END
$$$$
