DTA.pdb
     RDKit          3D

 21 20  0  0  1  0  0  0  0  0999 V2000
   18.7294  -12.3553  -17.5765 N   0  0  0  0  0  0  0  0  0  0  0  0
   19.8587  -11.7439  -16.8322 C   0  0  1  0  0  0  0  0  0  0  0  0
   21.1481  -12.1175  -17.4800 C   0  0  0  0  0  0  0  0  0  0  0  0
   21.3955  -13.5513  -17.4545 C   0  0  0  0  0  0  0  0  0  0  0  0
   21.3282  -14.2328  -16.4252 O   0  0  0  0  0  0  0  0  0  0  0  0
   19.6199  -10.2758  -16.7908 C   0  0  0  0  0  0  0  0  0  0  0  0
   19.3800   -9.5923  -17.7961 O   0  0  0  0  0  0  0  0  0  0  0  0
   21.7304  -14.2361  -18.6368 O   0  0  0  0  0  0  0  0  0  0  0  0
   16.9466   -8.5670  -15.1242 C   0  0  0  0  0  0  0  0  0  0  0  0
   18.2038   -8.0348  -14.5286 C   0  0  1  0  0  0  0  0  0  0  0  0
   18.4625   -8.8045  -13.3702 O   0  0  0  0  0  0  0  0  0  0  0  0
   19.4211   -8.1445  -15.4233 C   0  0  2  0  0  0  0  0  0  0  0  0
   19.6622   -9.5864  -15.5451 N   0  0  0  0  0  0  0  0  0  0  0  0
   20.6130   -7.4930  -14.8776 C   0  0  0  0  0  0  0  0  0  0  0  0
   21.2706   -8.0753  -13.9469 O   0  0  0  0  0  0  0  0  0  0  0  0
   22.7456   -4.4016  -15.4081 C   0  0  0  0  0  0  0  0  0  0  0  0
   22.3390   -5.6658  -14.7139 C   0  0  2  0  0  0  0  0  0  0  0  0
   21.1400   -6.2510  -15.2755 N   0  0  0  0  0  0  0  0  0  0  0  0
   22.0674   -5.3638  -13.2881 C   0  0  0  0  0  0  0  0  0  0  0  0
   20.7875   -5.4607  -12.7261 O   0  0  0  0  0  0  0  0  0  0  0  0
   22.9810   -5.0021  -12.5043 O   0  0  0  0  0  0  0  0  0  0  0  0
  2  1  1  6
  3  2  1  0
  4  3  1  0
  5  4  2  0
  6  2  1  0
  7  6  2  0
  8  4  1  0
 10  9  1  6
 10 12  1  0
 11 10  1  0
 12 14  1  0
 12 13  1  1
 13  6  1  0
 14 18  1  0
 15 14  2  0
 17 16  1  6
 17 19  1  0
 18 17  1  0
 19 21  2  0
 19 20  1  0
M  END
$$$$
