DTA.pdb
     RDKit          3D

 21 20  0  0  1  0  0  0  0  0999 V2000
   15.1393  -10.1392  -15.7006 N   0  0  0  0  0  0  0  0  0  0  0  0
   16.3057   -9.9374  -14.8050 C   0  0  1  0  0  0  0  0  0  0  0  0
   17.1211  -11.1840  -14.7536 C   0  0  0  0  0  0  0  0  0  0  0  0
   16.3832  -12.3167  -14.2147 C   0  0  0  0  0  0  0  0  0  0  0  0
   15.7240  -12.2615  -13.1703 O   0  0  0  0  0  0  0  0  0  0  0  0
   17.0574   -8.7584  -15.3141 C   0  0  0  0  0  0  0  0  0  0  0  0
   17.2917   -8.5618  -16.5150 O   0  0  0  0  0  0  0  0  0  0  0  0
   16.3927  -13.5544  -14.8832 O   0  0  0  0  0  0  0  0  0  0  0  0
   15.9041   -5.4977  -15.2907 C   0  0  0  0  0  0  0  0  0  0  0  0
   17.1522   -5.4586  -14.4786 C   0  0  1  0  0  0  0  0  0  0  0  0
   16.7689   -5.6717  -13.1336 O   0  0  0  0  0  0  0  0  0  0  0  0
   18.1678   -6.5254  -14.8319 C   0  0  2  0  0  0  0  0  0  0  0  0
   17.5490   -7.7833  -14.3997 N   0  0  0  0  0  0  0  0  0  0  0  0
   19.4566   -6.3569  -14.1583 C   0  0  0  0  0  0  0  0  0  0  0  0
   19.5050   -6.4188  -12.8810 O   0  0  0  0  0  0  0  0  0  0  0  0
   23.1396   -5.9904  -14.9629 C   0  0  0  0  0  0  0  0  0  0  0  0
   21.9445   -5.9763  -14.0591 C   0  0  2  0  0  0  0  0  0  0  0  0
   20.6975   -6.1262  -14.7790 N   0  0  0  0  0  0  0  0  0  0  0  0
   21.8989   -4.6779  -13.3450 C   0  0  0  0  0  0  0  0  0  0  0  0
   22.7297   -4.3857  -12.2552 O   0  0  0  0  0  0  0  0  0  0  0  0
   21.1045   -3.7650  -13.6851 O   0  0  0  0  0  0  0  0  0  0  0  0
  2  1  1  6
  3  2  1  0
  4  3  1  0
  5  4  2  0
  6  2  1  0
  7  6  2  0
  8  4  1  0
 10  9  1  6
 10 12  1  0
 11 10  1  0
 12 14  1  0
 12 13  1  1
 13  6  1  0
 14 18  1  0
 15 14  2  0
 17 16  1  6
 17 19  1  0
 18 17  1  0
 19 21  2  0
 19 20  1  0
M  END
$$$$
