PKQ.pdb
     RDKit          3D

 26 26  0  0  1  0  0  0  0  0999 V2000
    7.1969  -14.9374   19.7366 N   0  0  0  0  0  0  0  0  0  0  0  0
    6.8715  -14.5079   18.3793 C   0  0  0  0  0  0  0  0  0  0  0  0
    7.2613  -13.0585   18.4008 C   0  0  0  0  0  0  0  0  0  0  0  0
    8.5439  -13.0743   19.2149 C   0  0  0  0  0  0  0  0  0  0  0  0
    8.5586  -14.4451   19.8529 C   0  0  1  0  0  0  0  0  0  0  0  0
    8.9112  -14.3080   21.2694 C   0  0  0  0  0  0  0  0  0  0  0  0
   10.0819  -14.0508   21.6796 O   0  0  0  0  0  0  0  0  0  0  0  0
    7.9247  -14.4614   22.2923 N   0  0  0  0  0  0  0  0  0  0  0  0
    8.2438  -14.2948   23.6800 C   0  0  1  0  0  0  0  0  0  0  0  0
    7.2016  -13.4565   24.3745 C   0  0  0  0  0  0  0  0  0  0  0  0
    7.4456  -13.2167   25.8204 C   0  0  0  0  0  0  0  0  0  0  0  0
    6.2978  -12.3596   26.3430 C   0  0  0  0  0  0  0  0  0  0  0  0
    6.3773  -12.1074   27.8132 C   0  0  0  0  0  0  0  0  0  0  0  0
    5.2895  -11.3085   28.3175 N   0  0  0  0  0  0  0  0  0  0  0  0
    8.4637  -15.6205   24.2817 C   0  0  0  0  0  0  0  0  0  0  0  0
    7.6237  -16.5496   24.2098 O   0  0  0  0  0  0  0  0  0  0  0  0
   13.0776  -19.1972   23.1807 N   0  0  0  0  0  0  0  0  0  0  0  0
   13.3534  -17.9277   23.7578 C   0  0  0  0  0  0  0  0  0  0  0  0
   14.5181  -17.4573   23.5388 O   0  0  0  0  0  0  0  0  0  0  0  0
   12.3467  -17.2199   24.5449 C   0  0  0  0  0  0  0  0  0  0  0  0
   11.0262  -17.8511   24.6935 C   0  0  0  0  0  0  0  0  0  0  0  0
   10.0050  -17.2033   25.5419 C   0  0  2  0  0  0  0  0  0  0  0  0
    9.6676  -15.8756   24.9740 N   0  0  0  0  0  0  0  0  0  0  0  0
   10.2195  -17.1304   26.9772 C   0  0  0  0  0  0  0  0  0  0  0  0
   10.4087  -18.2134   27.8333 O   0  0  0  0  0  0  0  0  0  0  0  0
   10.2379  -15.9854   27.5551 O   0  0  0  0  0  0  0  0  0  0  0  0
  1  5  1  0
  1  2  1  0
  2  3  1  0
  4  3  1  0
  5  4  1  0
  6  7  2  0
  5  6  1  1
  8  6  1  0
  9  8  1  0
  9 10  1  1
 11 10  1  0
 11 12  1  0
 12 13  1  0
 13 14  1  0
 15  9  1  0
 16 15  2  0
 18 20  1  0
 18 17  1  0
 19 18  2  0
 21 20  1  0
 22 21  1  6
 22 23  1  0
 23 15  1  0
 24 22  1  0
 24 25  1  0
 26 24  2  0
M  END
$$$$
