PKQ.pdb
     RDKit          3D

 26 26  0  0  1  0  0  0  0  0999 V2000
    8.6736  -14.9380   19.1151 N   0  0  0  0  0  0  0  0  0  0  0  0
    8.6868  -14.1576   17.8810 C   0  0  0  0  0  0  0  0  0  0  0  0
    7.4320  -13.3430   18.0047 C   0  0  0  0  0  0  0  0  0  0  0  0
    7.4238  -12.9723   19.4779 C   0  0  0  0  0  0  0  0  0  0  0  0
    8.4593  -13.8860   20.0937 C   0  0  1  0  0  0  0  0  0  0  0  0
    7.9125  -14.4652   21.3246 C   0  0  0  0  0  0  0  0  0  0  0  0
    7.4085  -13.7765   22.2609 O   0  0  0  0  0  0  0  0  0  0  0  0
    7.9189  -15.8782   21.5401 N   0  0  0  0  0  0  0  0  0  0  0  0
    7.4738  -16.4557   22.7744 C   0  0  1  0  0  0  0  0  0  0  0  0
    7.4078  -17.9579   22.6723 C   0  0  0  0  0  0  0  0  0  0  0  0
    6.1240  -18.4994   22.1560 C   0  0  0  0  0  0  0  0  0  0  0  0
    6.2993  -20.0038   21.9790 C   0  0  0  0  0  0  0  0  0  0  0  0
    5.0963  -20.6688   21.3940 C   0  0  0  0  0  0  0  0  0  0  0  0
    5.3056  -22.0595   21.0809 N   0  0  0  0  0  0  0  0  0  0  0  0
    8.3204  -15.9533   23.8692 C   0  0  0  0  0  0  0  0  0  0  0  0
    9.5394  -15.6943   23.7245 O   0  0  0  0  0  0  0  0  0  0  0  0
    5.6793  -12.1827   27.8542 N   0  0  0  0  0  0  0  0  0  0  0  0
    6.5761  -11.7947   26.8218 C   0  0  0  0  0  0  0  0  0  0  0  0
    6.4735  -10.5895   26.4184 O   0  0  0  0  0  0  0  0  0  0  0  0
    7.5523  -12.7341   26.2753 C   0  0  0  0  0  0  0  0  0  0  0  0
    7.6258  -14.0733   26.8796 C   0  0  0  0  0  0  0  0  0  0  0  0
    8.4867  -15.1015   26.2599 C   0  0  2  0  0  0  0  0  0  0  0  0
    7.7523  -15.7476   25.1453 N   0  0  0  0  0  0  0  0  0  0  0  0
    9.1394  -16.0838   27.1088 C   0  0  0  0  0  0  0  0  0  0  0  0
   10.1760  -15.8321   28.0052 O   0  0  0  0  0  0  0  0  0  0  0  0
    8.7652  -17.3096   27.0580 O   0  0  0  0  0  0  0  0  0  0  0  0
  1  5  1  0
  1  2  1  0
  2  3  1  0
  4  3  1  0
  5  4  1  0
  6  7  2  0
  5  6  1  1
  8  6  1  0
  9  8  1  0
  9 10  1  6
 11 10  1  0
 11 12  1  0
 12 13  1  0
 13 14  1  0
 15  9  1  0
 16 15  2  0
 18 20  1  0
 18 17  1  0
 19 18  2  0
 21 20  1  0
 22 21  1  1
 22 23  1  0
 23 15  1  0
 24 22  1  0
 24 25  1  0
 26 24  2  0
M  END
$$$$
