PKQ.pdb
     RDKit          3D

 26 26  0  0  1  0  0  0  0  0999 V2000
    9.1414  -14.3835   18.8193 N   0  0  0  0  0  0  0  0  0  0  0  0
    8.5753  -13.4469   17.8524 C   0  0  0  0  0  0  0  0  0  0  0  0
    7.2750  -13.0672   18.4992 C   0  0  0  0  0  0  0  0  0  0  0  0
    7.6566  -12.9554   19.9654 C   0  0  0  0  0  0  0  0  0  0  0  0
    9.0169  -13.6110   20.0433 C   0  0  1  0  0  0  0  0  0  0  0  0
    9.0456  -14.5140   21.1980 C   0  0  0  0  0  0  0  0  0  0  0  0
    8.8565  -14.1334   22.3916 O   0  0  0  0  0  0  0  0  0  0  0  0
    9.2955  -15.9117   21.0343 N   0  0  0  0  0  0  0  0  0  0  0  0
    9.5060  -16.7778   22.1572 C   0  0  1  0  0  0  0  0  0  0  0  0
    9.6052  -18.2155   21.7163 C   0  0  0  0  0  0  0  0  0  0  0  0
    9.5874  -19.2152   22.8154 C   0  0  0  0  0  0  0  0  0  0  0  0
    9.6821  -20.5977   22.1791 C   0  0  0  0  0  0  0  0  0  0  0  0
    9.7610  -21.7006   23.1835 C   0  0  0  0  0  0  0  0  0  0  0  0
    9.9438  -23.0020   22.5927 N   0  0  0  0  0  0  0  0  0  0  0  0
   10.6648  -16.2914   22.9244 C   0  0  0  0  0  0  0  0  0  0  0  0
   11.2369  -15.2024   22.6783 O   0  0  0  0  0  0  0  0  0  0  0  0
    8.4627  -14.9855   27.8460 N   0  0  0  0  0  0  0  0  0  0  0  0
    9.6244  -14.1876   27.6602 C   0  0  0  0  0  0  0  0  0  0  0  0
    9.7756  -13.2239   28.4812 O   0  0  0  0  0  0  0  0  0  0  0  0
   10.5770  -14.4763   26.5910 C   0  0  0  0  0  0  0  0  0  0  0  0
   10.3125  -15.6434   25.7354 C   0  0  0  0  0  0  0  0  0  0  0  0
   11.4337  -16.5194   25.3380 C   0  0  2  0  0  0  0  0  0  0  0  0
   11.1681  -17.0721   23.9878 N   0  0  0  0  0  0  0  0  0  0  0  0
   11.8866  -17.5502   26.2566 C   0  0  0  0  0  0  0  0  0  0  0  0
   11.1902  -18.7083   26.5962 O   0  0  0  0  0  0  0  0  0  0  0  0
   13.0231  -17.4227   26.8375 O   0  0  0  0  0  0  0  0  0  0  0  0
  1  5  1  0
  1  2  1  0
  2  3  1  0
  4  3  1  0
  5  4  1  0
  6  7  2  0
  5  6  1  1
  8  6  1  0
  9  8  1  0
  9 10  1  6
 11 10  1  0
 11 12  1  0
 12 13  1  0
 13 14  1  0
 15  9  1  0
 16 15  2  0
 18 20  1  0
 18 17  1  0
 19 18  2  0
 21 20  1  0
 22 21  1  1
 22 23  1  0
 23 15  1  0
 24 22  1  0
 24 25  1  0
 26 24  2  0
M  END
$$$$
