PKQ.pdb
     RDKit          3D

 26 26  0  0  1  0  0  0  0  0999 V2000
    7.2791  -14.9394   19.4786 N   0  0  0  0  0  0  0  0  0  0  0  0
    6.9785  -14.4683   18.1295 C   0  0  0  0  0  0  0  0  0  0  0  0
    7.4394  -13.0406   18.1796 C   0  0  0  0  0  0  0  0  0  0  0  0
    8.7176  -13.1355   18.9950 C   0  0  0  0  0  0  0  0  0  0  0  0
    8.6632  -14.5173   19.6063 C   0  0  1  0  0  0  0  0  0  0  0  0
    9.0188  -14.4252   21.0257 C   0  0  0  0  0  0  0  0  0  0  0  0
   10.1871  -14.1655   21.4413 O   0  0  0  0  0  0  0  0  0  0  0  0
    8.0383  -14.6289   22.0456 N   0  0  0  0  0  0  0  0  0  0  0  0
    8.3263  -14.3871   23.4290 C   0  0  1  0  0  0  0  0  0  0  0  0
    7.1865  -13.6618   24.0968 C   0  0  0  0  0  0  0  0  0  0  0  0
    7.4230  -13.2838   25.5141 C   0  0  0  0  0  0  0  0  0  0  0  0
    6.1869  -12.5356   26.0014 C   0  0  0  0  0  0  0  0  0  0  0  0
    6.2910  -12.0977   27.4258 C   0  0  0  0  0  0  0  0  0  0  0  0
    5.1667  -11.3124   27.8677 N   0  0  0  0  0  0  0  0  0  0  0  0
    8.7004  -15.6596   24.0681 C   0  0  0  0  0  0  0  0  0  0  0  0
    7.9695  -16.6788   24.0372 O   0  0  0  0  0  0  0  0  0  0  0  0
   14.1285  -18.0067   23.0798 N   0  0  0  0  0  0  0  0  0  0  0  0
   13.7078  -18.8466   24.1468 C   0  0  0  0  0  0  0  0  0  0  0  0
   14.4473  -19.8575   24.3849 O   0  0  0  0  0  0  0  0  0  0  0  0
   12.5017  -18.5470   24.9146 C   0  0  0  0  0  0  0  0  0  0  0  0
   11.7607  -17.3223   24.5750 C   0  0  0  0  0  0  0  0  0  0  0  0
   10.4784  -17.0402   25.2519 C   0  0  2  0  0  0  0  0  0  0  0  0
    9.9327  -15.7557   24.7506 N   0  0  0  0  0  0  0  0  0  0  0  0
   10.4107  -17.1189   26.7013 C   0  0  0  0  0  0  0  0  0  0  0  0
   10.4256  -18.2877   27.4598 O   0  0  0  0  0  0  0  0  0  0  0  0
   10.3215  -16.0394   27.3883 O   0  0  0  0  0  0  0  0  0  0  0  0
  1  5  1  0
  1  2  1  0
  2  3  1  0
  4  3  1  0
  5  4  1  0
  6  7  2  0
  5  6  1  1
  8  6  1  0
  9  8  1  0
  9 10  1  1
 11 10  1  0
 11 12  1  0
 12 13  1  0
 13 14  1  0
 15  9  1  0
 16 15  2  0
 18 20  1  0
 18 17  1  0
 19 18  2  0
 21 20  1  0
 22 21  1  1
 22 23  1  0
 23 15  1  0
 24 22  1  0
 24 25  1  0
 26 24  2  0
M  END
$$$$
