PKQ.pdb
     RDKit          3D

 26 26  0  0  1  0  0  0  0  0999 V2000
    8.3839  -14.9810   18.8714 N   0  0  0  0  0  0  0  0  0  0  0  0
    8.4633  -14.1282   17.6887 C   0  0  0  0  0  0  0  0  0  0  0  0
    7.4026  -13.1020   17.9631 C   0  0  0  0  0  0  0  0  0  0  0  0
    7.5686  -12.8465   19.4514 C   0  0  0  0  0  0  0  0  0  0  0  0
    8.4467  -13.9828   19.9248 C   0  0  1  0  0  0  0  0  0  0  0  0
    7.8841  -14.5372   21.1601 C   0  0  0  0  0  0  0  0  0  0  0  0
    7.5903  -13.8367   22.1740 O   0  0  0  0  0  0  0  0  0  0  0  0
    7.6297  -15.9377   21.2899 N   0  0  0  0  0  0  0  0  0  0  0  0
    7.0680  -16.4954   22.4853 C   0  0  1  0  0  0  0  0  0  0  0  0
    6.6581  -17.9294   22.2686 C   0  0  0  0  0  0  0  0  0  0  0  0
    5.6013  -18.1357   21.2447 C   0  0  0  0  0  0  0  0  0  0  0  0
    5.3534  -19.6365   21.1378 C   0  0  0  0  0  0  0  0  0  0  0  0
    4.2173  -19.9793   20.2305 C   0  0  0  0  0  0  0  0  0  0  0  0
    4.0278  -21.3974   20.0598 N   0  0  0  0  0  0  0  0  0  0  0  0
    8.0112  -16.2897   23.5969 C   0  0  0  0  0  0  0  0  0  0  0  0
    9.2397  -16.5252   23.5011 O   0  0  0  0  0  0  0  0  0  0  0  0
    6.6965  -12.2063   28.2226 N   0  0  0  0  0  0  0  0  0  0  0  0
    6.7598  -12.1382   26.8041 C   0  0  0  0  0  0  0  0  0  0  0  0
    6.2805  -11.0817   26.2751 O   0  0  0  0  0  0  0  0  0  0  0  0
    7.3485  -13.2213   26.0204 C   0  0  0  0  0  0  0  0  0  0  0  0
    7.8821  -14.3821   26.7499 C   0  0  0  0  0  0  0  0  0  0  0  0
    8.4144  -15.5324   25.9912 C   0  0  2  0  0  0  0  0  0  0  0  0
    7.5297  -15.8064   24.8331 N   0  0  0  0  0  0  0  0  0  0  0  0
    8.7552  -16.7529   26.7024 C   0  0  0  0  0  0  0  0  0  0  0  0
    9.8172  -16.9145   27.5899 O   0  0  0  0  0  0  0  0  0  0  0  0
    8.0456  -17.8064   26.5237 O   0  0  0  0  0  0  0  0  0  0  0  0
  1  5  1  0
  1  2  1  0
  2  3  1  0
  4  3  1  0
  5  4  1  0
  6  7  2  0
  5  6  1  1
  8  6  1  0
  9  8  1  0
  9 10  1  6
 11 10  1  0
 11 12  1  0
 12 13  1  0
 13 14  1  0
 15  9  1  0
 16 15  2  0
 18 20  1  0
 18 17  1  0
 19 18  2  0
 21 20  1  0
 22 21  1  1
 22 23  1  0
 23 15  1  0
 24 22  1  0
 24 25  1  0
 26 24  2  0
M  END
$$$$
