PKQ.pdb
     RDKit          3D

 26 26  0  0  1  0  0  0  0  0999 V2000
    8.4973  -14.9858   19.3717 N   0  0  0  0  0  0  0  0  0  0  0  0
    8.4424  -14.0655   18.2392 C   0  0  0  0  0  0  0  0  0  0  0  0
    7.4748  -13.0238   18.7209 C   0  0  0  0  0  0  0  0  0  0  0  0
    7.8617  -12.8651   20.1814 C   0  0  0  0  0  0  0  0  0  0  0  0
    8.7506  -14.0562   20.4588 C   0  0  1  0  0  0  0  0  0  0  0  0
    8.3475  -14.6663   21.7297 C   0  0  0  0  0  0  0  0  0  0  0  0
    8.3995  -14.0661   22.8441 O   0  0  0  0  0  0  0  0  0  0  0  0
    7.8603  -16.0090   21.7805 N   0  0  0  0  0  0  0  0  0  0  0  0
    7.5922  -16.6684   23.0249 C   0  0  1  0  0  0  0  0  0  0  0  0
    6.9610  -18.0172   22.7938 C   0  0  0  0  0  0  0  0  0  0  0  0
    6.6886  -18.8055   24.0235 C   0  0  0  0  0  0  0  0  0  0  0  0
    6.0920  -20.1401   23.5896 C   0  0  0  0  0  0  0  0  0  0  0  0
    5.7879  -21.0465   24.7375 C   0  0  0  0  0  0  0  0  0  0  0  0
    5.3058  -22.3424   24.3324 N   0  0  0  0  0  0  0  0  0  0  0  0
    8.8281  -16.6997   23.8244 C   0  0  0  0  0  0  0  0  0  0  0  0
    9.9058  -16.1898   23.4339 O   0  0  0  0  0  0  0  0  0  0  0  0
    9.5230  -12.6513   27.2455 N   0  0  0  0  0  0  0  0  0  0  0  0
    8.3219  -13.4100   27.2958 C   0  0  0  0  0  0  0  0  0  0  0  0
    7.2775  -12.7763   27.6609 O   0  0  0  0  0  0  0  0  0  0  0  0
    8.3069  -14.8267   26.9403 C   0  0  0  0  0  0  0  0  0  0  0  0
    9.5295  -15.3984   26.3549 C   0  0  0  0  0  0  0  0  0  0  0  0
    9.6532  -16.8647   26.2246 C   0  0  2  0  0  0  0  0  0  0  0  0
    8.8189  -17.3272   25.0893 N   0  0  0  0  0  0  0  0  0  0  0  0
    9.4640  -17.6983   27.3997 C   0  0  0  0  0  0  0  0  0  0  0  0
    8.4707  -18.6604   27.5703 O   0  0  0  0  0  0  0  0  0  0  0  0
   10.2560  -17.5675   28.4002 O   0  0  0  0  0  0  0  0  0  0  0  0
  1  5  1  0
  1  2  1  0
  2  3  1  0
  4  3  1  0
  5  4  1  0
  6  7  2  0
  5  6  1  1
  8  6  1  0
  9  8  1  0
  9 10  1  6
 11 10  1  0
 11 12  1  0
 12 13  1  0
 13 14  1  0
 15  9  1  0
 16 15  2  0
 18 20  1  0
 18 17  1  0
 19 18  2  0
 21 20  1  0
 22 21  1  1
 22 23  1  0
 23 15  1  0
 24 22  1  0
 24 25  1  0
 26 24  2  0
M  END
$$$$
