IDP.pdb
     RDKit          3D

 24 24  0  0  1  0  0  0  0  0999 V2000
    8.1198  -12.2682   18.1964 C   0  0  0  0  0  0  0  0  0  0  0  0
    8.2650  -13.6993   18.6972 C   0  0  0  0  0  0  0  0  0  0  0  0
    7.6670  -13.8413   20.0757 C   0  0  2  0  0  0  0  0  0  0  0  0
    8.3464  -12.8568   20.9821 C   0  0  0  0  0  0  0  0  0  0  0  0
    7.7077  -15.2584   20.5058 C   0  0  2  0  0  0  0  0  0  0  0  0
    7.0619  -16.1569   19.5643 N   0  0  0  0  0  0  0  0  0  0  0  0
    7.2287  -15.5392   21.8722 C   0  0  0  0  0  0  0  0  0  0  0  0
    6.0035  -15.5658   22.1858 O   0  0  0  0  0  0  0  0  0  0  0  0
    8.1707  -15.7972   22.9135 N   0  0  0  0  0  0  0  0  0  0  0  0
    7.7132  -16.0122   24.3175 C   0  0  1  0  0  0  0  0  0  0  0  0
    7.9436  -17.5110   24.5551 C   0  0  0  0  0  0  0  0  0  0  0  0
    6.8365  -18.3537   24.1370 C   0  0  0  0  0  0  0  0  0  0  0  0
    5.7209  -18.3839   24.7639 O   0  0  0  0  0  0  0  0  0  0  0  0
    8.6094  -15.2115   25.1720 C   0  0  0  0  0  0  0  0  0  0  0  0
    9.8462  -15.1789   24.7878 O   0  0  0  0  0  0  0  0  0  0  0  0
    6.9596  -19.1665   23.0200 O   0  0  0  0  0  0  0  0  0  0  0  0
    8.2557  -14.4941   26.3317 N   0  0  0  0  0  0  0  0  0  0  0  0
    6.9139  -14.3842   26.8821 C   0  0  0  0  0  0  0  0  0  0  0  0
    6.9505  -13.2496   27.8899 C   0  0  0  0  0  0  0  0  0  0  0  0
    8.2402  -12.5150   27.4912 C   0  0  0  0  0  0  0  0  0  0  0  0
    9.1126  -13.7436   27.1961 C   0  0  1  0  0  0  0  0  0  0  0  0
    9.2120  -14.4487   28.5389 C   0  0  0  0  0  0  0  0  0  0  0  0
    9.9417  -13.9783   29.4446 O   0  0  0  0  0  0  0  0  0  0  0  0
    8.5109  -15.6115   28.7976 O   0  0  0  0  0  0  0  0  0  0  0  0
  2  1  1  0
  3  2  1  0
  3  4  1  1
  5  3  1  0
  5  6  1  6
  7  5  1  0
  7  8  2  0
  9  7  1  0
 10  9  1  0
 10 11  1  1
 12 11  1  0
 13 12  2  0
 14 10  1  0
 15 14  2  0
 16 12  1  0
 17 14  1  0
 17 21  1  0
 18 17  1  0
 18 19  1  0
 19 20  1  0
 21 20  1  0
 22 24  1  0
 21 22  1  1
 23 22  2  0
M  END
$$$$
