IDP.pdb
     RDKit          3D

 24 24  0  0  1  0  0  0  0  0999 V2000
    9.5044  -12.6025   18.6943 C   0  0  0  0  0  0  0  0  0  0  0  0
    8.1961  -13.3455   18.4573 C   0  0  0  0  0  0  0  0  0  0  0  0
    7.4967  -13.6175   19.7668 C   0  0  2  0  0  0  0  0  0  0  0  0
    7.7677  -12.4643   20.6881 C   0  0  0  0  0  0  0  0  0  0  0  0
    7.8686  -14.9585   20.2747 C   0  0  2  0  0  0  0  0  0  0  0  0
    7.6007  -16.0218   19.3216 N   0  0  0  0  0  0  0  0  0  0  0  0
    7.3305  -15.3271   21.5975 C   0  0  0  0  0  0  0  0  0  0  0  0
    6.0958  -15.4809   21.8257 O   0  0  0  0  0  0  0  0  0  0  0  0
    8.2227  -15.5267   22.6941 N   0  0  0  0  0  0  0  0  0  0  0  0
    7.6991  -15.8732   24.0478 C   0  0  1  0  0  0  0  0  0  0  0  0
    7.6888  -17.4082   24.0574 C   0  0  0  0  0  0  0  0  0  0  0  0
    7.3436  -17.9897   25.3432 C   0  0  0  0  0  0  0  0  0  0  0  0
    7.8570  -19.0848   25.7622 O   0  0  0  0  0  0  0  0  0  0  0  0
    8.6845  -15.3588   25.0168 C   0  0  0  0  0  0  0  0  0  0  0  0
    9.9230  -15.4985   24.6637 O   0  0  0  0  0  0  0  0  0  0  0  0
    6.4282  -17.3592   26.1726 O   0  0  0  0  0  0  0  0  0  0  0  0
    8.4128  -14.7419   26.2539 N   0  0  0  0  0  0  0  0  0  0  0  0
    7.1057  -14.6529   26.8858 C   0  0  0  0  0  0  0  0  0  0  0  0
    7.2267  -13.6154   27.9873 C   0  0  0  0  0  0  0  0  0  0  0  0
    8.5124  -12.8760   27.5844 C   0  0  0  0  0  0  0  0  0  0  0  0
    9.3346  -14.0917   27.1326 C   0  0  1  0  0  0  0  0  0  0  0  0
    9.4868  -14.9175   28.3995 C   0  0  0  0  0  0  0  0  0  0  0  0
    8.7624  -15.9248   28.5853 O   0  0  0  0  0  0  0  0  0  0  0  0
   10.4147  -14.5877   29.3694 O   0  0  0  0  0  0  0  0  0  0  0  0
  2  1  1  0
  3  2  1  0
  3  4  1  1
  5  3  1  0
  5  6  1  6
  7  5  1  0
  7  8  2  0
  9  7  1  0
 10  9  1  0
 10 11  1  6
 12 11  1  0
 13 12  2  0
 14 10  1  0
 15 14  2  0
 16 12  1  0
 17 14  1  0
 17 21  1  0
 18 17  1  0
 18 19  1  0
 19 20  1  0
 21 20  1  0
 22 24  1  0
 21 22  1  1
 23 22  2  0
M  END
$$$$
