IDP.pdb
     RDKit          3D

 24 24  0  0  1  0  0  0  0  0999 V2000
    8.1329  -12.2852   18.2994 C   0  0  0  0  0  0  0  0  0  0  0  0
    8.3288  -13.7147   18.7873 C   0  0  0  0  0  0  0  0  0  0  0  0
    7.6365  -13.9217   20.1124 C   0  0  2  0  0  0  0  0  0  0  0  0
    8.2285  -12.9617   21.1024 C   0  0  0  0  0  0  0  0  0  0  0  0
    7.6756  -15.3537   20.4901 C   0  0  2  0  0  0  0  0  0  0  0  0
    7.0673  -16.2206   19.4956 N   0  0  0  0  0  0  0  0  0  0  0  0
    7.1564  -15.6894   21.8291 C   0  0  0  0  0  0  0  0  0  0  0  0
    5.9228  -15.7979   22.0874 O   0  0  0  0  0  0  0  0  0  0  0  0
    8.0667  -15.9081   22.9069 N   0  0  0  0  0  0  0  0  0  0  0  0
    7.5672  -16.0710   24.3037 C   0  0  1  0  0  0  0  0  0  0  0  0
    7.6327  -17.5855   24.5444 C   0  0  0  0  0  0  0  0  0  0  0  0
    7.3625  -17.9789   25.9166 C   0  0  0  0  0  0  0  0  0  0  0  0
    6.2639  -17.6953   26.5092 O   0  0  0  0  0  0  0  0  0  0  0  0
    8.5306  -15.3694   25.1721 C   0  0  0  0  0  0  0  0  0  0  0  0
    9.7733  -15.5068   24.8331 O   0  0  0  0  0  0  0  0  0  0  0  0
    8.3084  -18.6908   26.6390 O   0  0  0  0  0  0  0  0  0  0  0  0
    8.2341  -14.5809   26.3014 N   0  0  0  0  0  0  0  0  0  0  0  0
    6.9131  -14.3968   26.8814 C   0  0  0  0  0  0  0  0  0  0  0  0
    7.0158  -13.2132   27.8263 C   0  0  0  0  0  0  0  0  0  0  0  0
    8.3167  -12.5447   27.3543 C   0  0  0  0  0  0  0  0  0  0  0  0
    9.1398  -13.8161   27.1011 C   0  0  1  0  0  0  0  0  0  0  0  0
    9.2549  -14.4532   28.4762 C   0  0  0  0  0  0  0  0  0  0  0  0
   10.0004  -13.9424   29.3464 O   0  0  0  0  0  0  0  0  0  0  0  0
    8.5512  -15.5970   28.8034 O   0  0  0  0  0  0  0  0  0  0  0  0
  2  1  1  0
  3  2  1  0
  3  4  1  1
  5  3  1  0
  5  6  1  6
  7  5  1  0
  7  8  2  0
  9  7  1  0
 10  9  1  0
 10 11  1  1
 12 11  1  0
 13 12  2  0
 14 10  1  0
 15 14  2  0
 16 12  1  0
 17 14  1  0
 17 21  1  0
 18 17  1  0
 18 19  1  0
 19 20  1  0
 21 20  1  0
 22 24  1  0
 21 22  1  1
 23 22  2  0
M  END
$$$$
