IDP.pdb
     RDKit          3D

 24 24  0  0  1  0  0  0  0  0999 V2000
    7.8569  -12.1545   18.5217 C   0  0  0  0  0  0  0  0  0  0  0  0
    8.2051  -13.5749   18.9472 C   0  0  0  0  0  0  0  0  0  0  0  0
    7.7108  -13.8446   20.3475 C   0  0  2  0  0  0  0  0  0  0  0  0
    8.3177  -12.8204   21.2613 C   0  0  0  0  0  0  0  0  0  0  0  0
    7.9485  -15.2618   20.7081 C   0  0  2  0  0  0  0  0  0  0  0  0
    7.3576  -16.1952   19.7647 N   0  0  0  0  0  0  0  0  0  0  0  0
    7.5936  -15.6525   22.0853 C   0  0  0  0  0  0  0  0  0  0  0  0
    6.4001  -15.7439   22.4945 O   0  0  0  0  0  0  0  0  0  0  0  0
    8.6264  -15.9482   23.0257 N   0  0  0  0  0  0  0  0  0  0  0  0
    8.3069  -16.1446   24.4701 C   0  0  1  0  0  0  0  0  0  0  0  0
    8.2052  -17.6687   24.6214 C   0  0  0  0  0  0  0  0  0  0  0  0
    9.3989  -18.3856   24.2070 C   0  0  0  0  0  0  0  0  0  0  0  0
    9.6632  -18.6279   22.9782 O   0  0  0  0  0  0  0  0  0  0  0  0
    9.4644  -15.6284   25.2238 C   0  0  0  0  0  0  0  0  0  0  0  0
   10.6103  -15.7821   24.6392 O   0  0  0  0  0  0  0  0  0  0  0  0
   10.3075  -18.8364   25.1528 O   0  0  0  0  0  0  0  0  0  0  0  0
    9.4413  -14.9963   26.4826 N   0  0  0  0  0  0  0  0  0  0  0  0
    8.2465  -14.6886   27.2529 C   0  0  0  0  0  0  0  0  0  0  0  0
    8.6679  -13.7098   28.3339 C   0  0  0  0  0  0  0  0  0  0  0  0
   10.0143  -13.2029   27.7931 C   0  0  0  0  0  0  0  0  0  0  0  0
   10.5531  -14.5365   27.2554 C   0  0  1  0  0  0  0  0  0  0  0  0
   10.6903  -15.3997   28.4988 C   0  0  0  0  0  0  0  0  0  0  0  0
    9.8258  -16.2708   28.7592 O   0  0  0  0  0  0  0  0  0  0  0  0
   11.7566  -15.2526   29.3660 O   0  0  0  0  0  0  0  0  0  0  0  0
  2  1  1  0
  3  2  1  0
  3  4  1  1
  5  3  1  0
  5  6  1  6
  7  5  1  0
  7  8  2  0
  9  7  1  0
 10  9  1  0
 10 11  1  6
 12 11  1  0
 13 12  2  0
 14 10  1  0
 15 14  2  0
 16 12  1  0
 17 14  1  0
 17 21  1  0
 18 17  1  0
 18 19  1  0
 19 20  1  0
 21 20  1  0
 22 24  1  0
 21 22  1  1
 23 22  2  0
M  END
$$$$
