IDP.pdb
     RDKit          3D

 24 24  0  0  1  0  0  0  0  0999 V2000
    9.8292  -13.0368   18.6758 C   0  0  0  0  0  0  0  0  0  0  0  0
    8.3930  -13.5112   18.4967 C   0  0  0  0  0  0  0  0  0  0  0  0
    7.7332  -13.7209   19.8379 C   0  0  2  0  0  0  0  0  0  0  0  0
    8.0099  -12.5148   20.6870 C   0  0  0  0  0  0  0  0  0  0  0  0
    8.1405  -15.0263   20.4080 C   0  0  2  0  0  0  0  0  0  0  0  0
    7.8887  -16.1414   19.5116 N   0  0  0  0  0  0  0  0  0  0  0  0
    7.6228  -15.3405   21.7529 C   0  0  0  0  0  0  0  0  0  0  0  0
    6.3929  -15.3106   22.0470 O   0  0  0  0  0  0  0  0  0  0  0  0
    8.5306  -15.6994   22.7948 N   0  0  0  0  0  0  0  0  0  0  0  0
    8.0445  -15.9032   24.1908 C   0  0  1  0  0  0  0  0  0  0  0  0
    7.8517  -17.4224   24.2961 C   0  0  0  0  0  0  0  0  0  0  0  0
    6.6084  -17.9027   23.7181 C   0  0  0  0  0  0  0  0  0  0  0  0
    5.4617  -17.5527   24.1666 O   0  0  0  0  0  0  0  0  0  0  0  0
    9.1358  -15.4599   25.0779 C   0  0  0  0  0  0  0  0  0  0  0  0
   10.3299  -15.6484   24.6121 O   0  0  0  0  0  0  0  0  0  0  0  0
    6.6295  -18.7727   22.6383 O   0  0  0  0  0  0  0  0  0  0  0  0
    9.0054  -14.8622   26.3469 N   0  0  0  0  0  0  0  0  0  0  0  0
    7.7514  -14.6184   27.0423 C   0  0  0  0  0  0  0  0  0  0  0  0
    8.0628  -13.6535   28.1720 C   0  0  0  0  0  0  0  0  0  0  0  0
    9.4217  -13.0840   27.7350 C   0  0  0  0  0  0  0  0  0  0  0  0
   10.0453  -14.3826   27.2033 C   0  0  1  0  0  0  0  0  0  0  0  0
   10.1327  -15.2724   28.4323 C   0  0  0  0  0  0  0  0  0  0  0  0
    9.2846  -16.1787   28.6152 O   0  0  0  0  0  0  0  0  0  0  0  0
   11.1350  -15.1117   29.3704 O   0  0  0  0  0  0  0  0  0  0  0  0
  2  1  1  0
  3  2  1  0
  3  4  1  1
  5  3  1  0
  5  6  1  6
  7  5  1  0
  7  8  2  0
  9  7  1  0
 10  9  1  0
 10 11  1  6
 12 11  1  0
 13 12  2  0
 14 10  1  0
 15 14  2  0
 16 12  1  0
 17 14  1  0
 17 21  1  0
 18 17  1  0
 18 19  1  0
 19 20  1  0
 21 20  1  0
 22 24  1  0
 21 22  1  1
 23 22  2  0
M  END
$$$$
