IDP.pdb
     RDKit          3D

 24 24  0  0  1  0  0  0  0  0999 V2000
    7.8500  -11.9438   19.7589 C   0  0  0  0  0  0  0  0  0  0  0  0
    7.2486  -13.3103   20.0603 C   0  0  0  0  0  0  0  0  0  0  0  0
    8.3206  -14.3729   20.0582 C   0  0  2  0  0  0  0  0  0  0  0  0
    9.0393  -14.3071   18.7424 C   0  0  0  0  0  0  0  0  0  0  0  0
    7.7371  -15.6865   20.4168 C   0  0  2  0  0  0  0  0  0  0  0  0
    6.7732  -16.1657   19.4412 N   0  0  0  0  0  0  0  0  0  0  0  0
    7.1716  -15.8002   21.7742 C   0  0  0  0  0  0  0  0  0  0  0  0
    5.9336  -15.7129   22.0193 O   0  0  0  0  0  0  0  0  0  0  0  0
    8.0394  -16.0193   22.8865 N   0  0  0  0  0  0  0  0  0  0  0  0
    7.4933  -16.1033   24.2727 C   0  0  1  0  0  0  0  0  0  0  0  0
    7.4489  -17.6103   24.5610 C   0  0  0  0  0  0  0  0  0  0  0  0
    7.1107  -17.9405   25.9347 C   0  0  0  0  0  0  0  0  0  0  0  0
    6.4056  -17.1686   26.6734 O   0  0  0  0  0  0  0  0  0  0  0  0
    8.4790  -15.4406   25.1467 C   0  0  0  0  0  0  0  0  0  0  0  0
    9.7178  -15.6882   24.8598 O   0  0  0  0  0  0  0  0  0  0  0  0
    7.5509  -19.1294   26.4968 O   0  0  0  0  0  0  0  0  0  0  0  0
    8.2076  -14.5829   26.2308 N   0  0  0  0  0  0  0  0  0  0  0  0
    6.8847  -14.2497   26.7353 C   0  0  0  0  0  0  0  0  0  0  0  0
    7.0575  -13.0448   27.6421 C   0  0  0  0  0  0  0  0  0  0  0  0
    8.4387  -12.5237   27.2145 C   0  0  0  0  0  0  0  0  0  0  0  0
    9.1444  -13.8773   27.0488 C   0  0  1  0  0  0  0  0  0  0  0  0
    9.1307  -14.4672   28.4495 C   0  0  0  0  0  0  0  0  0  0  0  0
    9.8521  -13.9717   29.3484 O   0  0  0  0  0  0  0  0  0  0  0  0
    8.3341  -15.5506   28.7691 O   0  0  0  0  0  0  0  0  0  0  0  0
  2  1  1  0
  3  2  1  0
  3  4  1  6
  5  3  1  0
  5  6  1  6
  7  5  1  0
  7  8  2  0
  9  7  1  0
 10  9  1  0
 10 11  1  1
 12 11  1  0
 13 12  2  0
 14 10  1  0
 15 14  2  0
 16 12  1  0
 17 14  1  0
 17 21  1  0
 18 17  1  0
 18 19  1  0
 19 20  1  0
 21 20  1  0
 22 24  1  0
 21 22  1  1
 23 22  2  0
M  END
$$$$
