IDP.pdb
     RDKit          3D

 24 24  0  0  1  0  0  0  0  0999 V2000
    7.8047  -11.6446   19.9751 C   0  0  0  0  0  0  0  0  0  0  0  0
    7.4031  -13.1015   20.1650 C   0  0  0  0  0  0  0  0  0  0  0  0
    8.5674  -14.0149   19.8684 C   0  0  2  0  0  0  0  0  0  0  0  0
    9.0738  -13.6928   18.4928 C   0  0  0  0  0  0  0  0  0  0  0  0
    8.1828  -15.4255   20.1073 C   0  0  2  0  0  0  0  0  0  0  0  0
    7.1921  -15.9122   19.1627 N   0  0  0  0  0  0  0  0  0  0  0  0
    7.7704  -15.7650   21.4820 C   0  0  0  0  0  0  0  0  0  0  0  0
    6.5625  -15.9144   21.8269 O   0  0  0  0  0  0  0  0  0  0  0  0
    8.7608  -15.9399   22.4953 N   0  0  0  0  0  0  0  0  0  0  0  0
    8.3664  -16.2729   23.8955 C   0  0  1  0  0  0  0  0  0  0  0  0
    9.0503  -17.6214   24.1604 C   0  0  0  0  0  0  0  0  0  0  0  0
    8.9578  -18.0713   25.5387 C   0  0  0  0  0  0  0  0  0  0  0  0
    9.7238  -18.9776   26.0186 O   0  0  0  0  0  0  0  0  0  0  0  0
    8.9499  -15.2228   24.7507 C   0  0  0  0  0  0  0  0  0  0  0  0
   10.1831  -14.9258   24.4875 O   0  0  0  0  0  0  0  0  0  0  0  0
    8.0163  -17.5175   26.3932 O   0  0  0  0  0  0  0  0  0  0  0  0
    8.3082  -14.5276   25.7945 N   0  0  0  0  0  0  0  0  0  0  0  0
    6.9215  -14.6997   26.1984 C   0  0  0  0  0  0  0  0  0  0  0  0
    6.5797  -13.5187   27.0887 C   0  0  0  0  0  0  0  0  0  0  0  0
    7.7055  -12.5298   26.7471 C   0  0  0  0  0  0  0  0  0  0  0  0
    8.8637  -13.5343   26.6602 C   0  0  1  0  0  0  0  0  0  0  0  0
    8.9628  -14.0960   28.0690 C   0  0  0  0  0  0  0  0  0  0  0  0
    8.4216  -15.1926   28.3491 O   0  0  0  0  0  0  0  0  0  0  0  0
    9.6428  -13.4249   29.0679 O   0  0  0  0  0  0  0  0  0  0  0  0
  2  1  1  0
  3  2  1  0
  3  4  1  6
  5  3  1  0
  5  6  1  6
  7  5  1  0
  7  8  2  0
  9  7  1  0
 10  9  1  0
 10 11  1  1
 12 11  1  0
 13 12  2  0
 14 10  1  0
 15 14  2  0
 16 12  1  0
 17 14  1  0
 17 21  1  0
 18 17  1  0
 18 19  1  0
 19 20  1  0
 21 20  1  0
 22 24  1  0
 21 22  1  1
 23 22  2  0
M  END
$$$$
