IDP.pdb
     RDKit          3D

 24 24  0  0  1  0  0  0  0  0999 V2000
    8.2941  -12.0336   18.2192 C   0  0  0  0  0  0  0  0  0  0  0  0
    8.4745  -13.4953   18.6074 C   0  0  0  0  0  0  0  0  0  0  0  0
    7.7013  -13.8086   19.8652 C   0  0  2  0  0  0  0  0  0  0  0  0
    8.1086  -12.8223   20.9204 C   0  0  0  0  0  0  0  0  0  0  0  0
    7.8568  -15.2395   20.2162 C   0  0  2  0  0  0  0  0  0  0  0  0
    7.4160  -16.1349   19.1604 N   0  0  0  0  0  0  0  0  0  0  0  0
    7.2748  -15.6620   21.5039 C   0  0  0  0  0  0  0  0  0  0  0  0
    6.0410  -15.8890   21.6661 O   0  0  0  0  0  0  0  0  0  0  0  0
    8.1208  -15.8312   22.6414 N   0  0  0  0  0  0  0  0  0  0  0  0
    7.5380  -15.9980   24.0051 C   0  0  1  0  0  0  0  0  0  0  0  0
    7.6928  -17.4981   24.2913 C   0  0  0  0  0  0  0  0  0  0  0  0
    7.4076  -17.8707   25.6662 C   0  0  0  0  0  0  0  0  0  0  0  0
    6.2151  -17.9395   26.1264 O   0  0  0  0  0  0  0  0  0  0  0  0
    8.3870  -15.2094   24.9171 C   0  0  0  0  0  0  0  0  0  0  0  0
    9.6531  -15.2343   24.6443 O   0  0  0  0  0  0  0  0  0  0  0  0
    8.4432  -18.1710   26.5385 O   0  0  0  0  0  0  0  0  0  0  0  0
    7.9615  -14.4481   26.0235 N   0  0  0  0  0  0  0  0  0  0  0  0
    6.5979  -14.3719   26.5239 C   0  0  0  0  0  0  0  0  0  0  0  0
    6.5485  -13.1843   27.4681 C   0  0  0  0  0  0  0  0  0  0  0  0
    7.8166  -12.4123   27.0706 C   0  0  0  0  0  0  0  0  0  0  0  0
    8.7534  -13.6126   26.8719 C   0  0  1  0  0  0  0  0  0  0  0  0
    8.8383  -14.2389   28.2541 C   0  0  0  0  0  0  0  0  0  0  0  0
    9.5318  -13.6981   29.1489 O   0  0  0  0  0  0  0  0  0  0  0  0
    8.1633  -15.4053   28.5612 O   0  0  0  0  0  0  0  0  0  0  0  0
  2  1  1  0
  3  2  1  0
  3  4  1  1
  5  3  1  0
  5  6  1  6
  7  5  1  0
  7  8  2  0
  9  7  1  0
 10  9  1  0
 10 11  1  1
 12 11  1  0
 13 12  2  0
 14 10  1  0
 15 14  2  0
 16 12  1  0
 17 14  1  0
 17 21  1  0
 18 17  1  0
 18 19  1  0
 19 20  1  0
 21 20  1  0
 22 24  1  0
 21 22  1  1
 23 22  2  0
M  END
$$$$
