LRQ.pdb
     RDKit          3D

 29 28  0  0  1  0  0  0  0  0999 V2000
    7.2189  -11.5238   27.7854 C   0  0  0  0  0  0  0  0  0  0  0  0
    6.0786  -11.9913   26.8999 C   0  0  2  0  0  0  0  0  0  0  0  0
    4.7687  -11.9748   27.6458 C   0  0  0  0  0  0  0  0  0  0  0  0
    6.3690  -13.3600   26.3178 C   0  0  0  0  0  0  0  0  0  0  0  0
    7.7667  -13.4421   25.7893 C   0  0  2  0  0  0  0  0  0  0  0  0
    8.3048  -12.1787   25.3499 N   0  0  0  0  0  0  0  0  0  0  0  0
    7.8395  -14.4805   24.7203 C   0  0  0  0  0  0  0  0  0  0  0  0
    7.3016  -15.6015   24.9067 O   0  0  0  0  0  0  0  0  0  0  0  0
    7.7640  -13.2100   17.9209 N   0  0  0  0  0  0  0  0  0  0  0  0
    8.1542  -14.3822   17.1859 C   0  0  0  0  0  0  0  0  0  0  0  0
    8.7070  -14.2839   16.0285 N   0  0  0  0  0  0  0  0  0  0  0  0
    7.9117  -15.6504   17.7732 N   0  0  0  0  0  0  0  0  0  0  0  0
    7.5449  -15.8245   19.1496 C   0  0  0  0  0  0  0  0  0  0  0  0
    8.7894  -15.6960   20.0065 C   0  0  0  0  0  0  0  0  0  0  0  0
    8.6143  -14.7525   21.1564 C   0  0  0  0  0  0  0  0  0  0  0  0
    8.6187  -15.3871   22.5235 C   0  0  2  0  0  0  0  0  0  0  0  0
    8.4889  -14.2688   23.4943 N   0  0  0  0  0  0  0  0  0  0  0  0
    9.9058  -16.0386   22.8470 C   0  0  0  0  0  0  0  0  0  0  0  0
   10.9772  -15.3497   22.8749 O   0  0  0  0  0  0  0  0  0  0  0  0
    8.9918  -15.1303   15.5012 N   0  0  0  0  0  0  0  0  0  0  0  0
   12.1415  -19.0244   27.7895 C   0  0  0  0  0  0  0  0  0  0  0  0
   10.9563  -18.9071   27.0364 O   0  0  0  0  0  0  0  0  0  0  0  0
    9.9203  -19.4957   27.4467 C   0  0  0  0  0  0  0  0  0  0  0  0
   10.9269  -18.1086   25.7997 C   0  0  0  0  0  0  0  0  0  0  0  0
   11.3613  -18.8255   24.5665 C   0  0  2  0  0  0  0  0  0  0  0  0
   11.3436  -18.0391   23.3046 N   0  0  0  0  0  0  0  0  0  0  0  0
    9.9956  -17.4248   23.1369 C   0  0  0  0  0  0  0  0  0  0  0  0
   11.7882  -18.6120   22.0628 O   0  0  0  0  0  0  0  0  0  0  0  0
   10.8757  -18.7359   21.0017 O   0  0  0  0  0  0  0  0  0  0  0  0
  2  1  1  1
  2  3  1  0
  2  4  1  0
  5  4  1  0
  5  6  1  6
  7  8  2  0
  7  5  1  0
 10  9  1  0
 10 12  1  0
 11 10  2  0
 12 13  1  0
 13 14  1  0
 14 15  1  0
 16 15  1  6
 16 17  1  0
 17  7  1  0
 18 16  1  0
 18 19  2  0
 20 21  1  0
 21 23  1  0
 21 22  2  0
 23 24  1  0
 25 24  1  1
 25 26  1  0
 25 27  1  0
 26 18  1  0
 27 29  2  0
 27 28  1  0
M  END
$$$$
