LRQ.pdb
     RDKit          3D

 29 28  0  0  1  0  0  0  0  0999 V2000
    4.8060  -11.4397   27.0564 C   0  0  0  0  0  0  0  0  0  0  0  0
    6.1870  -11.9549   26.6951 C   0  0  2  0  0  0  0  0  0  0  0  0
    6.8885  -11.0138   25.7493 C   0  0  0  0  0  0  0  0  0  0  0  0
    6.1119  -13.3582   26.1282 C   0  0  0  0  0  0  0  0  0  0  0  0
    7.4550  -14.0182   26.1270 C   0  0  2  0  0  0  0  0  0  0  0  0
    8.5563  -13.1109   25.9198 N   0  0  0  0  0  0  0  0  0  0  0  0
    7.4636  -15.1386   25.1417 C   0  0  0  0  0  0  0  0  0  0  0  0
    6.5980  -16.0465   25.2273 O   0  0  0  0  0  0  0  0  0  0  0  0
    7.7769  -12.5341   19.9799 N   0  0  0  0  0  0  0  0  0  0  0  0
    8.6658  -13.0645   18.9823 C   0  0  0  0  0  0  0  0  0  0  0  0
    9.3028  -12.2847   18.1818 N   0  0  0  0  0  0  0  0  0  0  0  0
    8.8198  -14.4725   18.9057 N   0  0  0  0  0  0  0  0  0  0  0  0
    8.0720  -15.3924   19.7142 C   0  0  0  0  0  0  0  0  0  0  0  0
    8.7168  -15.4742   21.0843 C   0  0  0  0  0  0  0  0  0  0  0  0
    7.9613  -16.3494   22.0362 C   0  0  0  0  0  0  0  0  0  0  0  0
    8.5912  -16.5275   23.3939 C   0  0  2  0  0  0  0  0  0  0  0  0
    8.4041  -15.2352   24.1046 N   0  0  0  0  0  0  0  0  0  0  0  0
   10.0544  -16.7269   23.3235 C   0  0  0  0  0  0  0  0  0  0  0  0
   10.7973  -15.8134   22.8368 O   0  0  0  0  0  0  0  0  0  0  0  0
    9.9256  -12.6696   17.4474 N   0  0  0  0  0  0  0  0  0  0  0  0
    9.7263  -15.2188   27.9268 C   0  0  0  0  0  0  0  0  0  0  0  0
   10.8888  -15.9291   28.2870 O   0  0  0  0  0  0  0  0  0  0  0  0
   11.3462  -15.7858   29.4525 C   0  0  0  0  0  0  0  0  0  0  0  0
   11.5516  -16.8246   27.3244 C   0  0  0  0  0  0  0  0  0  0  0  0
   10.8915  -16.9299   25.9915 C   0  0  1  0  0  0  0  0  0  0  0  0
   11.5249  -17.8520   25.0118 N   0  0  0  0  0  0  0  0  0  0  0  0
   10.6752  -17.9152   23.7886 C   0  0  0  0  0  0  0  0  0  0  0  0
   11.9458  -19.1725   25.3952 O   0  0  0  0  0  0  0  0  0  0  0  0
   11.2172  -20.2825   24.9356 O   0  0  0  0  0  0  0  0  0  0  0  0
  2  1  1  6
  2  3  1  0
  2  4  1  0
  5  4  1  0
  5  6  1  6
  7  8  2  0
  7  5  1  0
 10  9  1  0
 10 12  1  0
 11 10  2  0
 12 13  1  0
 13 14  1  0
 14 15  1  0
 16 15  1  6
 16 17  1  0
 17  7  1  0
 18 16  1  0
 18 19  2  0
 20 21  1  0
 21 23  1  0
 21 22  2  0
 23 24  1  0
 25 24  1  6
 25 26  1  0
 25 27  1  0
 26 18  1  0
 27 29  2  0
 27 28  1  0
M  END
$$$$
