LRQ.pdb
     RDKit          3D

 29 28  0  0  1  0  0  0  0  0999 V2000
    5.5836  -12.6247   26.2610 C   0  0  0  0  0  0  0  0  0  0  0  0
    6.6212  -13.2274   27.1900 C   0  0  2  0  0  0  0  0  0  0  0  0
    7.5641  -12.1724   27.7100 C   0  0  0  0  0  0  0  0  0  0  0  0
    7.3705  -14.3548   26.5088 C   0  0  0  0  0  0  0  0  0  0  0  0
    6.4447  -15.2249   25.7180 C   0  0  2  0  0  0  0  0  0  0  0  0
    5.9505  -16.3695   26.4424 N   0  0  0  0  0  0  0  0  0  0  0  0
    7.0971  -15.6173   24.4348 C   0  0  0  0  0  0  0  0  0  0  0  0
    7.5357  -16.7872   24.2942 O   0  0  0  0  0  0  0  0  0  0  0  0
   10.0385  -14.4627   16.7471 N   0  0  0  0  0  0  0  0  0  0  0  0
    8.7000  -13.9857   16.5293 C   0  0  0  0  0  0  0  0  0  0  0  0
    8.3235  -13.5780   15.3689 N   0  0  0  0  0  0  0  0  0  0  0  0
    7.8065  -13.9770   17.6310 N   0  0  0  0  0  0  0  0  0  0  0  0
    7.9049  -14.8908   18.7330 C   0  0  0  0  0  0  0  0  0  0  0  0
    8.6178  -14.1989   19.8788 C   0  0  0  0  0  0  0  0  0  0  0  0
    7.7766  -14.0924   21.1133 C   0  0  0  0  0  0  0  0  0  0  0  0
    8.0052  -15.1632   22.1492 C   0  0  2  0  0  0  0  0  0  0  0  0
    7.2504  -14.7333   23.3556 N   0  0  0  0  0  0  0  0  0  0  0  0
    9.4166  -15.2489   22.5807 C   0  0  0  0  0  0  0  0  0  0  0  0
    9.9396  -14.2902   23.2370 O   0  0  0  0  0  0  0  0  0  0  0  0
    7.3333  -13.3288   15.1878 N   0  0  0  0  0  0  0  0  0  0  0  0
   12.7521  -18.4792   26.0092 C   0  0  0  0  0  0  0  0  0  0  0  0
   11.3875  -18.5403   25.6631 O   0  0  0  0  0  0  0  0  0  0  0  0
   10.5679  -18.9746   26.5162 C   0  0  0  0  0  0  0  0  0  0  0  0
   10.9278  -18.1001   24.3355 C   0  0  0  0  0  0  0  0  0  0  0  0
   11.9933  -17.5804   23.4310 C   0  0  2  0  0  0  0  0  0  0  0  0
   11.6671  -16.3473   22.6665 N   0  0  0  0  0  0  0  0  0  0  0  0
   10.2248  -16.3789   22.2911 C   0  0  0  0  0  0  0  0  0  0  0  0
   12.4653  -15.9328   21.5444 O   0  0  0  0  0  0  0  0  0  0  0  0
   11.8679  -15.8457   20.2758 O   0  0  0  0  0  0  0  0  0  0  0  0
  2  1  1  6
  2  3  1  0
  2  4  1  0
  5  4  1  0
  5  6  1  1
  7  8  2  0
  7  5  1  0
 10  9  1  0
 10 12  1  0
 11 10  2  0
 12 13  1  0
 13 14  1  0
 14 15  1  0
 16 15  1  6
 16 17  1  0
 17  7  1  0
 18 16  1  0
 18 19  2  0
 20 21  1  0
 21 23  1  0
 21 22  2  0
 23 24  1  0
 25 24  1  1
 25 26  1  0
 25 27  1  0
 26 18  1  0
 27 29  2  0
 27 28  1  0
M  END
$$$$
