LRQ.pdb
     RDKit          3D

 29 28  0  0  1  0  0  0  0  0999 V2000
    8.0406  -11.8338   20.5080 C   0  0  0  0  0  0  0  0  0  0  0  0
    8.2847  -13.2200   19.9407 C   0  0  2  0  0  0  0  0  0  0  0  0
    8.0876  -13.2388   18.4463 C   0  0  0  0  0  0  0  0  0  0  0  0
    7.4119  -14.2500   20.6290 C   0  0  0  0  0  0  0  0  0  0  0  0
    7.9146  -15.6389   20.3883 C   0  0  2  0  0  0  0  0  0  0  0  0
    6.9920  -16.4824   19.6698 N   0  0  0  0  0  0  0  0  0  0  0  0
    8.3378  -16.2513   21.6814 C   0  0  0  0  0  0  0  0  0  0  0  0
    7.4656  -16.6024   22.5162 O   0  0  0  0  0  0  0  0  0  0  0  0
   13.5589  -21.5001   21.6639 N   0  0  0  0  0  0  0  0  0  0  0  0
   12.2383  -21.9255   21.2874 C   0  0  0  0  0  0  0  0  0  0  0  0
   12.0500  -22.6529   20.2433 N   0  0  0  0  0  0  0  0  0  0  0  0
   11.1488  -21.5195   22.0999 N   0  0  0  0  0  0  0  0  0  0  0  0
   11.2072  -20.3989   22.9944 C   0  0  0  0  0  0  0  0  0  0  0  0
   11.2138  -19.1215   22.1769 C   0  0  0  0  0  0  0  0  0  0  0  0
   11.3217  -17.8876   23.0188 C   0  0  0  0  0  0  0  0  0  0  0  0
   10.0247  -17.1674   23.2846 C   0  0  2  0  0  0  0  0  0  0  0  0
    9.6830  -16.4603   22.0223 N   0  0  0  0  0  0  0  0  0  0  0  0
   10.1593  -16.1050   24.3039 C   0  0  0  0  0  0  0  0  0  0  0  0
   11.0468  -15.2013   24.1662 O   0  0  0  0  0  0  0  0  0  0  0  0
   11.0929  -22.9203   19.9467 N   0  0  0  0  0  0  0  0  0  0  0  0
    5.5503  -12.5476   25.3135 C   0  0  0  0  0  0  0  0  0  0  0  0
    6.4094  -12.7735   26.4074 O   0  0  0  0  0  0  0  0  0  0  0  0
    6.4623  -11.9076   27.3215 C   0  0  0  0  0  0  0  0  0  0  0  0
    7.2232  -13.9981   26.4843 C   0  0  0  0  0  0  0  0  0  0  0  0
    8.6677  -13.8262   26.1564 C   0  0  1  0  0  0  0  0  0  0  0  0
    9.5555  -14.9798   26.4599 N   0  0  0  0  0  0  0  0  0  0  0  0
    9.3214  -16.0491   25.4478 C   0  0  0  0  0  0  0  0  0  0  0  0
    9.6158  -15.5473   27.7798 O   0  0  0  0  0  0  0  0  0  0  0  0
    9.3854  -16.9237   27.9432 O   0  0  0  0  0  0  0  0  0  0  0  0
  2  1  1  1
  2  3  1  0
  2  4  1  0
  5  4  1  0
  5  6  1  1
  7  8  2  0
  7  5  1  0
 10  9  1  0
 10 12  1  0
 11 10  2  0
 12 13  1  0
 13 14  1  0
 14 15  1  0
 16 15  1  6
 16 17  1  0
 17  7  1  0
 18 16  1  0
 18 19  2  0
 20 21  1  0
 21 23  1  0
 21 22  2  0
 23 24  1  0
 25 24  1  6
 25 26  1  0
 25 27  1  0
 26 18  1  0
 27 29  2  0
 27 28  1  0
M  END
$$$$
