LRQ.pdb
     RDKit          3D

 29 28  0  0  1  0  0  0  0  0999 V2000
    6.4063  -21.7882   26.3028 C   0  0  0  0  0  0  0  0  0  0  0  0
    5.8768  -21.7504   24.8811 C   0  0  2  0  0  0  0  0  0  0  0  0
    5.8535  -23.1293   24.2723 C   0  0  0  0  0  0  0  0  0  0  0  0
    6.6731  -20.7813   24.0307 C   0  0  0  0  0  0  0  0  0  0  0  0
    6.6741  -19.4079   24.6253 C   0  0  2  0  0  0  0  0  0  0  0  0
    5.3585  -18.8786   24.8860 N   0  0  0  0  0  0  0  0  0  0  0  0
    7.4841  -18.4911   23.7712 C   0  0  0  0  0  0  0  0  0  0  0  0
    8.5717  -18.8944   23.2861 O   0  0  0  0  0  0  0  0  0  0  0  0
    7.9559  -14.6754   17.9328 N   0  0  0  0  0  0  0  0  0  0  0  0
    8.1390  -13.2776   18.2148 C   0  0  0  0  0  0  0  0  0  0  0  0
    8.9367  -12.5588   17.5066 N   0  0  0  0  0  0  0  0  0  0  0  0
    7.4152  -12.7141   19.2967 N   0  0  0  0  0  0  0  0  0  0  0  0
    6.7075  -13.5004   20.2662 C   0  0  0  0  0  0  0  0  0  0  0  0
    7.6663  -14.5069   20.8725 C   0  0  0  0  0  0  0  0  0  0  0  0
    7.0420  -15.3325   21.9549 C   0  0  0  0  0  0  0  0  0  0  0  0
    7.9612  -16.3153   22.6338 C   0  0  2  0  0  0  0  0  0  0  0  0
    7.0895  -17.1773   23.4747 N   0  0  0  0  0  0  0  0  0  0  0  0
    8.8961  -15.6659   23.5771 C   0  0  0  0  0  0  0  0  0  0  0  0
    8.4424  -14.9747   24.5465 O   0  0  0  0  0  0  0  0  0  0  0  0
    9.1245  -11.5697   17.7555 N   0  0  0  0  0  0  0  0  0  0  0  0
    8.9234  -15.0970   28.1933 C   0  0  0  0  0  0  0  0  0  0  0  0
   10.3222  -15.2244   28.3064 O   0  0  0  0  0  0  0  0  0  0  0  0
   10.8627  -14.9745   29.4170 C   0  0  0  0  0  0  0  0  0  0  0  0
   11.1346  -15.6470   27.1535 C   0  0  0  0  0  0  0  0  0  0  0  0
   10.3940  -15.7836   25.8665 C   0  0  1  0  0  0  0  0  0  0  0  0
   11.1651  -15.4991   24.6273 N   0  0  0  0  0  0  0  0  0  0  0  0
   10.3038  -15.7878   23.4452 C   0  0  0  0  0  0  0  0  0  0  0  0
   12.4825  -16.0401   24.4282 O   0  0  0  0  0  0  0  0  0  0  0  0
   13.5580  -15.5061   25.1577 O   0  0  0  0  0  0  0  0  0  0  0  0
  2  1  1  1
  2  3  1  0
  2  4  1  0
  5  4  1  0
  5  6  1  6
  7  8  2  0
  7  5  1  0
 10  9  1  0
 10 12  1  0
 11 10  2  0
 12 13  1  0
 13 14  1  0
 14 15  1  0
 16 15  1  1
 16 17  1  0
 17  7  1  0
 18 16  1  0
 18 19  2  0
 20 21  1  0
 21 23  1  0
 21 22  2  0
 23 24  1  0
 25 24  1  1
 25 26  1  0
 25 27  1  0
 26 18  1  0
 27 29  2  0
 27 28  1  0
M  END
$$$$
