LRQ.pdb
     RDKit          3D

 29 28  0  0  1  0  0  0  0  0999 V2000
    7.5205  -11.4859   24.4875 C   0  0  0  0  0  0  0  0  0  0  0  0
    6.5288  -12.2830   25.3147 C   0  0  2  0  0  0  0  0  0  0  0  0
    6.2118  -11.5800   26.6100 C   0  0  0  0  0  0  0  0  0  0  0  0
    7.0315  -13.6920   25.5562 C   0  0  0  0  0  0  0  0  0  0  0  0
    7.6263  -14.2787   24.3146 C   0  0  2  0  0  0  0  0  0  0  0  0
    6.7237  -14.3166   23.1908 N   0  0  0  0  0  0  0  0  0  0  0  0
    8.1954  -15.6244   24.6173 C   0  0  0  0  0  0  0  0  0  0  0  0
    7.8434  -16.2255   25.6640 O   0  0  0  0  0  0  0  0  0  0  0  0
   13.8699  -20.7521   23.0501 N   0  0  0  0  0  0  0  0  0  0  0  0
   13.8373  -19.6476   22.1305 C   0  0  0  0  0  0  0  0  0  0  0  0
   14.8874  -18.9377   21.9116 N   0  0  0  0  0  0  0  0  0  0  0  0
   12.6137  -19.3627   21.4720 N   0  0  0  0  0  0  0  0  0  0  0  0
   11.3979  -20.0831   21.7213 C   0  0  0  0  0  0  0  0  0  0  0  0
   10.7838  -19.5730   23.0107 C   0  0  0  0  0  0  0  0  0  0  0  0
   10.2555  -18.1764   22.8958 C   0  0  0  0  0  0  0  0  0  0  0  0
    9.6475  -17.6067   24.1518 C   0  0  2  0  0  0  0  0  0  0  0  0
    9.1203  -16.2673   23.7802 N   0  0  0  0  0  0  0  0  0  0  0  0
   10.6503  -17.3531   25.2081 C   0  0  0  0  0  0  0  0  0  0  0  0
   11.6143  -16.5493   24.9891 O   0  0  0  0  0  0  0  0  0  0  0  0
   14.8563  -18.1267   21.2659 N   0  0  0  0  0  0  0  0  0  0  0  0
   10.4024  -14.7276   30.4508 C   0  0  0  0  0  0  0  0  0  0  0  0
   10.2696  -14.6779   29.0488 O   0  0  0  0  0  0  0  0  0  0  0  0
   10.2280  -13.5508   28.4865 C   0  0  0  0  0  0  0  0  0  0  0  0
   10.1877  -15.9163   28.2567 C   0  0  0  0  0  0  0  0  0  0  0  0
   11.2122  -16.9502   28.5807 C   0  0  2  0  0  0  0  0  0  0  0  0
   11.6968  -17.7786   27.4448 N   0  0  0  0  0  0  0  0  0  0  0  0
   10.5777  -17.9779   26.4802 C   0  0  0  0  0  0  0  0  0  0  0  0
   12.3888  -19.0191   27.6686 O   0  0  0  0  0  0  0  0  0  0  0  0
   11.9443  -20.1781   27.0105 O   0  0  0  0  0  0  0  0  0  0  0  0
  2  1  1  1
  2  3  1  0
  2  4  1  0
  5  4  1  0
  5  6  1  6
  7  8  2  0
  7  5  1  0
 10  9  1  0
 10 12  1  0
 11 10  2  0
 12 13  1  0
 13 14  1  0
 14 15  1  0
 16 15  1  6
 16 17  1  0
 17  7  1  0
 18 16  1  0
 18 19  2  0
 20 21  1  0
 21 23  1  0
 21 22  2  0
 23 24  1  0
 25 24  1  6
 25 26  1  0
 25 27  1  0
 26 18  1  0
 27 29  2  0
 27 28  1  0
M  END
$$$$
