QDV.pdb
     RDKit          3D

 25 24  0  0  1  0  0  0  0  0999 V2000
    8.5269  -12.6376   17.1794 N   0  0  0  0  0  0  0  0  0  0  0  0
    8.2386  -14.0223   16.8888 C   0  0  0  0  0  0  0  0  0  0  0  0
    7.8842  -14.3719   15.7498 O   0  0  0  0  0  0  0  0  0  0  0  0
    8.3649  -15.0348   17.9612 C   0  0  0  0  0  0  0  0  0  0  0  0
    8.6955  -14.4083   19.2637 C   0  0  0  0  0  0  0  0  0  0  0  0
    8.8685  -15.4319   20.3518 C   0  0  2  0  0  0  0  0  0  0  0  0
    8.3156  -16.6788   19.7812 N   0  0  0  0  0  0  0  0  0  0  0  0
    8.0805  -15.0274   21.5400 C   0  0  0  0  0  0  0  0  0  0  0  0
    8.2389  -13.9243   22.1155 O   0  0  0  0  0  0  0  0  0  0  0  0
    7.0751  -15.8829   22.1129 N   0  0  0  0  0  0  0  0  0  0  0  0
    7.2404  -16.4284   23.4436 C   0  0  1  0  0  0  0  0  0  0  0  0
    7.8085  -17.8145   23.3325 C   0  0  0  0  0  0  0  0  0  0  0  0
    6.9021  -18.8671   23.7951 C   0  0  0  0  0  0  0  0  0  0  0  0
    5.8298  -18.5038   24.3545 O   0  0  0  0  0  0  0  0  0  0  0  0
    8.0235  -15.5417   24.3250 C   0  0  0  0  0  0  0  0  0  0  0  0
    9.2710  -15.5088   24.1836 O   0  0  0  0  0  0  0  0  0  0  0  0
    7.1112  -20.2242   23.6763 O   0  0  0  0  0  0  0  0  0  0  0  0
    6.2997  -12.8918   27.3283 C   0  0  0  0  0  0  0  0  0  0  0  0
    7.5904  -12.5848   26.5847 C   0  0  2  0  0  0  0  0  0  0  0  0
    7.1527  -11.7736   25.3658 C   0  0  0  0  0  0  0  0  0  0  0  0
    8.2134  -13.8748   26.2195 C   0  0  2  0  0  0  0  0  0  0  0  0
    7.4954  -14.7187   25.3224 N   0  0  0  0  0  0  0  0  0  0  0  0
    8.5392  -14.6552   27.4341 C   0  0  0  0  0  0  0  0  0  0  0  0
    9.4522  -14.2079   28.3694 O   0  0  0  0  0  0  0  0  0  0  0  0
    7.9856  -15.7560   27.6443 O   0  0  0  0  0  0  0  0  0  0  0  0
  1  2  1  0
  2  3  2  0
  4  2  1  0
  4  5  1  0
  6  5  1  0
  6  8  1  0
  6  7  1  6
  8  9  2  0
  8 10  1  0
 10 11  1  0
 11 12  1  6
 12 13  1  0
 13 14  2  0
 15 11  1  0
 15 22  1  0
 16 15  2  0
 17 13  1  0
 19 21  1  0
 19 18  1  1
 20 19  1  0
 21 23  1  0
 21 22  1  6
 23 25  2  0
 23 24  1  0
M  END
$$$$
