QDV.pdb
     RDKit          3D

 25 24  0  0  1  0  0  0  0  0999 V2000
    7.9042  -12.1705   19.0501 N   0  0  0  0  0  0  0  0  0  0  0  0
    8.0858  -13.1269   17.9837 C   0  0  0  0  0  0  0  0  0  0  0  0
    8.2330  -12.7482   16.8090 O   0  0  0  0  0  0  0  0  0  0  0  0
    8.0941  -14.5742   18.2947 C   0  0  0  0  0  0  0  0  0  0  0  0
    7.9113  -14.8191   19.7456 C   0  0  0  0  0  0  0  0  0  0  0  0
    7.9772  -16.2836   20.0809 C   0  0  2  0  0  0  0  0  0  0  0  0
    6.7756  -16.8654   19.4457 N   0  0  0  0  0  0  0  0  0  0  0  0
    7.9056  -16.4573   21.5510 C   0  0  0  0  0  0  0  0  0  0  0  0
    6.8189  -16.5265   22.1736 O   0  0  0  0  0  0  0  0  0  0  0  0
    9.0891  -16.5583   22.3633 N   0  0  0  0  0  0  0  0  0  0  0  0
    8.9883  -16.7431   23.7955 C   0  0  1  0  0  0  0  0  0  0  0  0
    9.8826  -17.8796   24.2020 C   0  0  0  0  0  0  0  0  0  0  0  0
    9.9980  -18.0560   25.6508 C   0  0  0  0  0  0  0  0  0  0  0  0
    8.9256  -18.1044   26.3160 O   0  0  0  0  0  0  0  0  0  0  0  0
    9.2427  -15.4985   24.5456 C   0  0  0  0  0  0  0  0  0  0  0  0
   10.3652  -14.9480   24.4267 O   0  0  0  0  0  0  0  0  0  0  0  0
   11.1739  -18.1748   26.3599 O   0  0  0  0  0  0  0  0  0  0  0  0
    6.2287  -13.0840   26.5242 C   0  0  0  0  0  0  0  0  0  0  0  0
    7.5708  -12.5842   26.0122 C   0  0  2  0  0  0  0  0  0  0  0  0
    7.3172  -12.2198   24.5499 C   0  0  0  0  0  0  0  0  0  0  0  0
    8.5460  -13.6846   26.1666 C   0  0  2  0  0  0  0  0  0  0  0  0
    8.3324  -14.8629   25.3931 N   0  0  0  0  0  0  0  0  0  0  0  0
    8.6651  -14.0755   27.5890 C   0  0  0  0  0  0  0  0  0  0  0  0
    9.0647  -13.1817   28.5637 O   0  0  0  0  0  0  0  0  0  0  0  0
    8.4022  -15.2441   27.9465 O   0  0  0  0  0  0  0  0  0  0  0  0
  1  2  1  0
  2  3  2  0
  4  2  1  0
  4  5  1  0
  6  5  1  0
  6  8  1  0
  6  7  1  6
  8  9  2  0
  8 10  1  0
 10 11  1  0
 11 12  1  1
 12 13  1  0
 13 14  2  0
 15 11  1  0
 15 22  1  0
 16 15  2  0
 17 13  1  0
 19 21  1  0
 19 18  1  6
 20 19  1  0
 21 23  1  0
 21 22  1  6
 23 25  2  0
 23 24  1  0
M  END
$$$$
