QDV.pdb
     RDKit          3D

 25 24  0  0  1  0  0  0  0  0999 V2000
    8.4394  -12.5619   17.6672 N   0  0  0  0  0  0  0  0  0  0  0  0
    7.8738  -13.7477   17.0681 C   0  0  0  0  0  0  0  0  0  0  0  0
    7.8608  -13.8914   15.8336 O   0  0  0  0  0  0  0  0  0  0  0  0
    7.3017  -14.8019   17.9358 C   0  0  0  0  0  0  0  0  0  0  0  0
    7.3369  -14.4079   19.3647 C   0  0  0  0  0  0  0  0  0  0  0  0
    8.6724  -14.6948   19.9939 C   0  0  2  0  0  0  0  0  0  0  0  0
    9.2570  -15.7631   19.1556 N   0  0  0  0  0  0  0  0  0  0  0  0
    8.4707  -15.1907   21.3759 C   0  0  0  0  0  0  0  0  0  0  0  0
    7.4310  -14.9541   22.0364 O   0  0  0  0  0  0  0  0  0  0  0  0
    9.4643  -15.9818   22.0525 N   0  0  0  0  0  0  0  0  0  0  0  0
    9.2722  -16.3902   23.4279 C   0  0  1  0  0  0  0  0  0  0  0  0
   10.2796  -17.4528   23.7636 C   0  0  0  0  0  0  0  0  0  0  0  0
   10.1931  -18.6428   22.9153 C   0  0  0  0  0  0  0  0  0  0  0  0
    9.0395  -19.0822   22.6491 O   0  0  0  0  0  0  0  0  0  0  0  0
    9.2874  -15.2499   24.3638 C   0  0  0  0  0  0  0  0  0  0  0  0
   10.2724  -14.4711   24.3408 O   0  0  0  0  0  0  0  0  0  0  0  0
   11.2589  -19.3318   22.3775 O   0  0  0  0  0  0  0  0  0  0  0  0
    6.7543  -12.4010   24.9943 C   0  0  0  0  0  0  0  0  0  0  0  0
    6.9907  -13.1031   26.3226 C   0  0  2  0  0  0  0  0  0  0  0  0
    7.0663  -11.9746   27.3502 C   0  0  0  0  0  0  0  0  0  0  0  0
    8.2559  -13.8594   26.2094 C   0  0  2  0  0  0  0  0  0  0  0  0
    8.2876  -14.9502   25.2921 N   0  0  0  0  0  0  0  0  0  0  0  0
    8.6847  -14.3538   27.5369 C   0  0  0  0  0  0  0  0  0  0  0  0
    8.8835  -15.6973   27.7893 O   0  0  0  0  0  0  0  0  0  0  0  0
    8.8800  -13.5521   28.4759 O   0  0  0  0  0  0  0  0  0  0  0  0
  1  2  1  0
  2  3  2  0
  4  2  1  0
  4  5  1  0
  6  5  1  0
  6  8  1  0
  6  7  1  6
  8  9  2  0
  8 10  1  0
 10 11  1  0
 11 12  1  1
 12 13  1  0
 13 14  2  0
 15 11  1  0
 15 22  1  0
 16 15  2  0
 17 13  1  0
 19 21  1  0
 19 18  1  6
 20 19  1  0
 21 23  1  0
 21 22  1  6
 23 25  2  0
 23 24  1  0
M  END
$$$$
