QDV.pdb
     RDKit          3D

 25 24  0  0  1  0  0  0  0  0999 V2000
   10.0541  -12.6424   18.7862 N   0  0  0  0  0  0  0  0  0  0  0  0
    8.6189  -12.7999   18.7664 C   0  0  0  0  0  0  0  0  0  0  0  0
    7.8824  -11.8667   18.4036 O   0  0  0  0  0  0  0  0  0  0  0  0
    8.0201  -14.0873   19.1852 C   0  0  0  0  0  0  0  0  0  0  0  0
    9.0549  -15.0424   19.6493 C   0  0  0  0  0  0  0  0  0  0  0  0
    8.4685  -16.3851   19.9886 C   0  0  2  0  0  0  0  0  0  0  0  0
    7.1472  -16.3926   19.3253 N   0  0  0  0  0  0  0  0  0  0  0  0
    8.2972  -16.4921   21.4568 C   0  0  0  0  0  0  0  0  0  0  0  0
    7.1760  -16.4267   22.0154 O   0  0  0  0  0  0  0  0  0  0  0  0
    9.4167  -16.6796   22.3414 N   0  0  0  0  0  0  0  0  0  0  0  0
    9.2090  -16.9693   23.7444 C   0  0  1  0  0  0  0  0  0  0  0  0
   10.2098  -18.0015   24.1799 C   0  0  0  0  0  0  0  0  0  0  0  0
   10.1032  -18.3739   25.5917 C   0  0  0  0  0  0  0  0  0  0  0  0
   11.1798  -18.5203   26.2353 O   0  0  0  0  0  0  0  0  0  0  0  0
    9.2177  -15.7537   24.5802 C   0  0  0  0  0  0  0  0  0  0  0  0
   10.2850  -15.0978   24.6699 O   0  0  0  0  0  0  0  0  0  0  0  0
    8.9314  -18.5808   26.2873 O   0  0  0  0  0  0  0  0  0  0  0  0
    6.3858  -12.9170   24.9366 C   0  0  0  0  0  0  0  0  0  0  0  0
    6.8099  -13.4129   26.3105 C   0  0  2  0  0  0  0  0  0  0  0  0
    6.9250  -12.1485   27.1610 C   0  0  0  0  0  0  0  0  0  0  0  0
    8.1009  -14.1158   26.1530 C   0  0  2  0  0  0  0  0  0  0  0  0
    8.1268  -15.2544   25.2955 N   0  0  0  0  0  0  0  0  0  0  0  0
    8.6388  -14.5137   27.4731 C   0  0  0  0  0  0  0  0  0  0  0  0
    9.0354  -13.5828   28.4136 O   0  0  0  0  0  0  0  0  0  0  0  0
    8.7480  -15.7226   27.7717 O   0  0  0  0  0  0  0  0  0  0  0  0
  1  2  1  0
  2  3  2  0
  4  2  1  0
  4  5  1  0
  6  5  1  0
  6  8  1  0
  6  7  1  6
  8  9  2  0
  8 10  1  0
 10 11  1  0
 11 12  1  1
 12 13  1  0
 13 14  2  0
 15 11  1  0
 15 22  1  0
 16 15  2  0
 17 13  1  0
 19 21  1  0
 19 18  1  6
 20 19  1  0
 21 23  1  0
 21 22  1  6
 23 25  2  0
 23 24  1  0
M  END
$$$$
