QDV.pdb
     RDKit          3D

 25 24  0  0  1  0  0  0  0  0999 V2000
   11.3167  -13.3570   19.8952 N   0  0  0  0  0  0  0  0  0  0  0  0
   10.5637  -13.2738   18.6659 C   0  0  0  0  0  0  0  0  0  0  0  0
   11.0441  -13.6892   17.5974 O   0  0  0  0  0  0  0  0  0  0  0  0
    9.2056  -12.6850   18.6802 C   0  0  0  0  0  0  0  0  0  0  0  0
    8.3841  -13.2407   19.7823 C   0  0  0  0  0  0  0  0  0  0  0  0
    8.4579  -14.7418   19.8363 C   0  0  2  0  0  0  0  0  0  0  0  0
    7.3679  -15.2002   18.9488 N   0  0  0  0  0  0  0  0  0  0  0  0
    8.2058  -15.1989   21.2233 C   0  0  0  0  0  0  0  0  0  0  0  0
    7.0684  -15.1691   21.7511 O   0  0  0  0  0  0  0  0  0  0  0  0
    9.2600  -15.7104   22.0589 N   0  0  0  0  0  0  0  0  0  0  0  0
    8.9749  -16.1992   23.3912 C   0  0  1  0  0  0  0  0  0  0  0  0
    9.7556  -17.4617   23.6220 C   0  0  0  0  0  0  0  0  0  0  0  0
    9.6156  -18.4509   22.5519 C   0  0  0  0  0  0  0  0  0  0  0  0
    8.5304  -19.0943   22.4957 O   0  0  0  0  0  0  0  0  0  0  0  0
    9.1959  -15.1742   24.4290 C   0  0  0  0  0  0  0  0  0  0  0  0
   10.3256  -14.6302   24.5006 O   0  0  0  0  0  0  0  0  0  0  0  0
   10.5627  -18.7470   21.5953 O   0  0  0  0  0  0  0  0  0  0  0  0
    6.0695  -13.5595   26.9130 C   0  0  0  0  0  0  0  0  0  0  0  0
    7.3464  -12.7942   26.6013 C   0  0  2  0  0  0  0  0  0  0  0  0
    7.0253  -12.0033   25.3338 C   0  0  0  0  0  0  0  0  0  0  0  0
    8.4238  -13.7862   26.3990 C   0  0  2  0  0  0  0  0  0  0  0  0
    8.2458  -14.7440   25.3581 N   0  0  0  0  0  0  0  0  0  0  0  0
    8.7029  -14.5122   27.6581 C   0  0  0  0  0  0  0  0  0  0  0  0
    9.1905  -13.8715   28.7807 O   0  0  0  0  0  0  0  0  0  0  0  0
    8.5000  -15.7432   27.7352 O   0  0  0  0  0  0  0  0  0  0  0  0
  1  2  1  0
  2  3  2  0
  4  2  1  0
  4  5  1  0
  6  5  1  0
  6  8  1  0
  6  7  1  6
  8  9  2  0
  8 10  1  0
 10 11  1  0
 11 12  1  1
 12 13  1  0
 13 14  2  0
 15 11  1  0
 15 22  1  0
 16 15  2  0
 17 13  1  0
 19 21  1  0
 19 18  1  6
 20 19  1  0
 21 23  1  0
 21 22  1  6
 23 25  2  0
 23 24  1  0
M  END
$$$$
