QDV.pdb
     RDKit          3D

 25 24  0  0  1  0  0  0  0  0999 V2000
    8.5892  -12.6605   17.8624 N   0  0  0  0  0  0  0  0  0  0  0  0
    8.0558  -13.7455   17.0729 C   0  0  0  0  0  0  0  0  0  0  0  0
    8.2113  -13.7702   15.8400 O   0  0  0  0  0  0  0  0  0  0  0  0
    7.3139  -14.8384   17.7411 C   0  0  0  0  0  0  0  0  0  0  0  0
    7.1812  -14.5938   19.1975 C   0  0  0  0  0  0  0  0  0  0  0  0
    8.4815  -14.8040   19.9233 C   0  0  2  0  0  0  0  0  0  0  0  0
    9.1147  -15.9456   19.2295 N   0  0  0  0  0  0  0  0  0  0  0  0
    8.2067  -15.1605   21.3353 C   0  0  0  0  0  0  0  0  0  0  0  0
    7.3691  -14.5471   22.0391 O   0  0  0  0  0  0  0  0  0  0  0  0
    8.8900  -16.2428   21.9931 N   0  0  0  0  0  0  0  0  0  0  0  0
    8.5618  -16.6037   23.3560 C   0  0  1  0  0  0  0  0  0  0  0  0
    9.2709  -17.8816   23.7036 C   0  0  0  0  0  0  0  0  0  0  0  0
    8.9579  -18.3902   25.0402 C   0  0  0  0  0  0  0  0  0  0  0  0
    8.0610  -17.7880   25.6941 O   0  0  0  0  0  0  0  0  0  0  0  0
    8.8233  -15.5089   24.3096 C   0  0  0  0  0  0  0  0  0  0  0  0
   10.0029  -15.0974   24.4381 O   0  0  0  0  0  0  0  0  0  0  0  0
    9.5541  -19.4705   25.6546 O   0  0  0  0  0  0  0  0  0  0  0  0
    7.4757  -11.5043   26.7031 C   0  0  0  0  0  0  0  0  0  0  0  0
    6.9978  -12.6770   25.8608 C   0  0  2  0  0  0  0  0  0  0  0  0
    5.6821  -13.1086   26.5072 C   0  0  0  0  0  0  0  0  0  0  0  0
    8.0376  -13.7260   25.9244 C   0  0  2  0  0  0  0  0  0  0  0  0
    7.8610  -14.8748   25.0989 N   0  0  0  0  0  0  0  0  0  0  0  0
    8.2313  -14.1797   27.3198 C   0  0  0  0  0  0  0  0  0  0  0  0
    8.7818  -13.3610   28.2867 O   0  0  0  0  0  0  0  0  0  0  0  0
    7.8950  -15.3344   27.6604 O   0  0  0  0  0  0  0  0  0  0  0  0
  1  2  1  0
  2  3  2  0
  4  2  1  0
  4  5  1  0
  6  5  1  0
  6  8  1  0
  6  7  1  6
  8  9  2  0
  8 10  1  0
 10 11  1  0
 11 12  1  1
 12 13  1  0
 13 14  2  0
 15 11  1  0
 15 22  1  0
 16 15  2  0
 17 13  1  0
 19 21  1  0
 19 18  1  1
 20 19  1  0
 21 23  1  0
 21 22  1  6
 23 25  2  0
 23 24  1  0
M  END
$$$$
