QDV.pdb
     RDKit          3D

 25 24  0  0  1  0  0  0  0  0999 V2000
    8.9110  -12.1427   18.3528 N   0  0  0  0  0  0  0  0  0  0  0  0
    8.0205  -13.2353   18.0395 C   0  0  0  0  0  0  0  0  0  0  0  0
    7.6791  -13.4599   16.8656 O   0  0  0  0  0  0  0  0  0  0  0  0
    7.5080  -14.0950   19.1302 C   0  0  0  0  0  0  0  0  0  0  0  0
    8.6123  -14.7643   19.8589 C   0  0  0  0  0  0  0  0  0  0  0  0
    8.2632  -16.1787   20.2322 C   0  0  2  0  0  0  0  0  0  0  0  0
    7.1161  -16.5204   19.3642 N   0  0  0  0  0  0  0  0  0  0  0  0
    7.8516  -16.2265   21.6551 C   0  0  0  0  0  0  0  0  0  0  0  0
    6.6764  -15.9985   22.0293 O   0  0  0  0  0  0  0  0  0  0  0  0
    8.7833  -16.5405   22.7060 N   0  0  0  0  0  0  0  0  0  0  0  0
    8.3365  -16.6604   24.0777 C   0  0  1  0  0  0  0  0  0  0  0  0
    8.7092  -18.0217   24.5920 C   0  0  0  0  0  0  0  0  0  0  0  0
    8.3966  -18.2283   26.0072 C   0  0  0  0  0  0  0  0  0  0  0  0
    7.2271  -17.9442   26.3899 O   0  0  0  0  0  0  0  0  0  0  0  0
    8.8221  -15.5579   24.9291 C   0  0  0  0  0  0  0  0  0  0  0  0
   10.0546  -15.3174   24.9502 O   0  0  0  0  0  0  0  0  0  0  0  0
    9.2641  -18.7064   26.9657 O   0  0  0  0  0  0  0  0  0  0  0  0
    6.2223  -13.0161   27.2490 C   0  0  0  0  0  0  0  0  0  0  0  0
    7.5992  -12.5450   26.8068 C   0  0  2  0  0  0  0  0  0  0  0  0
    7.3549  -11.8186   25.4847 C   0  0  0  0  0  0  0  0  0  0  0  0
    8.4529  -13.7420   26.6525 C   0  0  2  0  0  0  0  0  0  0  0  0
    8.0218  -14.7399   25.7302 N   0  0  0  0  0  0  0  0  0  0  0  0
    8.6824  -14.3875   27.9645 C   0  0  0  0  0  0  0  0  0  0  0  0
    9.3001  -13.7262   29.0083 O   0  0  0  0  0  0  0  0  0  0  0  0
    8.3159  -15.5663   28.1606 O   0  0  0  0  0  0  0  0  0  0  0  0
  1  2  1  0
  2  3  2  0
  4  2  1  0
  4  5  1  0
  6  5  1  0
  6  8  1  0
  6  7  1  6
  8  9  2  0
  8 10  1  0
 10 11  1  0
 11 12  1  1
 12 13  1  0
 13 14  2  0
 15 11  1  0
 15 22  1  0
 16 15  2  0
 17 13  1  0
 19 21  1  0
 19 18  1  6
 20 19  1  0
 21 23  1  0
 21 22  1  6
 23 25  2  0
 23 24  1  0
M  END
$$$$
