QDV.pdb
     RDKit          3D

 25 24  0  0  1  0  0  0  0  0999 V2000
    7.1253  -14.6677   15.8425 N   0  0  0  0  0  0  0  0  0  0  0  0
    7.9992  -14.1211   16.8536 C   0  0  0  0  0  0  0  0  0  0  0  0
    9.1778  -14.5040   16.9491 O   0  0  0  0  0  0  0  0  0  0  0  0
    7.4830  -13.0948   17.7873 C   0  0  0  0  0  0  0  0  0  0  0  0
    7.3005  -13.6447   19.1521 C   0  0  0  0  0  0  0  0  0  0  0  0
    8.5933  -13.6847   19.9194 C   0  0  2  0  0  0  0  0  0  0  0  0
    9.4815  -14.5437   19.1075 N   0  0  0  0  0  0  0  0  0  0  0  0
    8.3620  -14.3070   21.2444 C   0  0  0  0  0  0  0  0  0  0  0  0
    7.4309  -13.9532   22.0067 O   0  0  0  0  0  0  0  0  0  0  0  0
    9.1990  -15.3658   21.7437 N   0  0  0  0  0  0  0  0  0  0  0  0
    8.9233  -15.9841   23.0232 C   0  0  1  0  0  0  0  0  0  0  0  0
    9.6788  -17.2797   23.1087 C   0  0  0  0  0  0  0  0  0  0  0  0
    9.6334  -17.9080   24.4303 C   0  0  0  0  0  0  0  0  0  0  0  0
    8.5086  -18.3054   24.8447 O   0  0  0  0  0  0  0  0  0  0  0  0
    9.1829  -15.0771   24.1573 C   0  0  0  0  0  0  0  0  0  0  0  0
   10.3392  -14.6063   24.2935 O   0  0  0  0  0  0  0  0  0  0  0  0
   10.7092  -18.1071   25.2685 O   0  0  0  0  0  0  0  0  0  0  0  0
    6.0901  -13.6260   26.7778 C   0  0  0  0  0  0  0  0  0  0  0  0
    7.3460  -12.8206   26.4823 C   0  0  2  0  0  0  0  0  0  0  0  0
    6.9809  -11.9626   25.2716 C   0  0  0  0  0  0  0  0  0  0  0  0
    8.4347  -13.7791   26.1967 C   0  0  2  0  0  0  0  0  0  0  0  0
    8.2426  -14.6853   25.1131 N   0  0  0  0  0  0  0  0  0  0  0  0
    8.7656  -14.5632   27.4075 C   0  0  0  0  0  0  0  0  0  0  0  0
    9.2392  -13.9667   28.5600 O   0  0  0  0  0  0  0  0  0  0  0  0
    8.6214  -15.8048   27.4143 O   0  0  0  0  0  0  0  0  0  0  0  0
  1  2  1  0
  2  3  2  0
  4  2  1  0
  4  5  1  0
  6  5  1  0
  6  8  1  0
  6  7  1  6
  8  9  2  0
  8 10  1  0
 10 11  1  0
 11 12  1  1
 12 13  1  0
 13 14  2  0
 15 11  1  0
 15 22  1  0
 16 15  2  0
 17 13  1  0
 19 21  1  0
 19 18  1  6
 20 19  1  0
 21 23  1  0
 21 22  1  6
 23 25  2  0
 23 24  1  0
M  END
$$$$
