QDV.pdb
     RDKit          3D

 25 24  0  0  1  0  0  0  0  0999 V2000
    8.2242  -15.0243   15.3022 N   0  0  0  0  0  0  0  0  0  0  0  0
    7.6853  -14.5435   16.5525 C   0  0  0  0  0  0  0  0  0  0  0  0
    6.4572  -14.4936   16.7376 O   0  0  0  0  0  0  0  0  0  0  0  0
    8.6075  -14.1036   17.6237 C   0  0  0  0  0  0  0  0  0  0  0  0
    7.8703  -13.7207   18.8519 C   0  0  0  0  0  0  0  0  0  0  0  0
    8.8002  -13.3115   19.9608 C   0  0  2  0  0  0  0  0  0  0  0  0
   10.1538  -13.5759   19.4280 N   0  0  0  0  0  0  0  0  0  0  0  0
    8.5517  -14.1585   21.1513 C   0  0  0  0  0  0  0  0  0  0  0  0
    7.4539  -14.1706   21.7579 O   0  0  0  0  0  0  0  0  0  0  0  0
    9.5637  -15.0279   21.6906 N   0  0  0  0  0  0  0  0  0  0  0  0
    9.3223  -15.7783   22.9047 C   0  0  1  0  0  0  0  0  0  0  0  0
   10.1954  -17.0007   22.9011 C   0  0  0  0  0  0  0  0  0  0  0  0
    9.8760  -17.9560   21.8387 C   0  0  0  0  0  0  0  0  0  0  0  0
    8.6577  -18.1079   21.5430 O   0  0  0  0  0  0  0  0  0  0  0  0
    9.4719  -14.9534   24.1186 C   0  0  0  0  0  0  0  0  0  0  0  0
   10.5841  -14.4142   24.3413 O   0  0  0  0  0  0  0  0  0  0  0  0
   10.7856  -18.7088   21.1277 O   0  0  0  0  0  0  0  0  0  0  0  0
    6.1847  -13.6664   26.5738 C   0  0  0  0  0  0  0  0  0  0  0  0
    7.5086  -12.9228   26.4871 C   0  0  2  0  0  0  0  0  0  0  0  0
    7.3342  -11.9545   25.3177 C   0  0  0  0  0  0  0  0  0  0  0  0
    8.5690  -13.9245   26.2469 C   0  0  2  0  0  0  0  0  0  0  0  0
    8.4709  -14.7115   25.0623 N   0  0  0  0  0  0  0  0  0  0  0  0
    8.6908  -14.8380   27.4050 C   0  0  0  0  0  0  0  0  0  0  0  0
    9.0747  -14.3903   28.6542 O   0  0  0  0  0  0  0  0  0  0  0  0
    8.4446  -16.0567   27.2761 O   0  0  0  0  0  0  0  0  0  0  0  0
  1  2  1  0
  2  3  2  0
  4  2  1  0
  4  5  1  0
  6  5  1  0
  6  8  1  0
  6  7  1  6
  8  9  2  0
  8 10  1  0
 10 11  1  0
 11 12  1  1
 12 13  1  0
 13 14  2  0
 15 11  1  0
 15 22  1  0
 16 15  2  0
 17 13  1  0
 19 21  1  0
 19 18  1  6
 20 19  1  0
 21 23  1  0
 21 22  1  6
 23 25  2  0
 23 24  1  0
M  END
$$$$
