QDV.pdb
     RDKit          3D

 25 24  0  0  1  0  0  0  0  0999 V2000
   10.0507  -13.5118   19.0950 N   0  0  0  0  0  0  0  0  0  0  0  0
    8.9548  -13.1812   18.2150 C   0  0  0  0  0  0  0  0  0  0  0  0
    9.1460  -13.0107   16.9987 O   0  0  0  0  0  0  0  0  0  0  0  0
    7.5895  -13.0422   18.7699 C   0  0  0  0  0  0  0  0  0  0  0  0
    7.5169  -13.5387   20.1651 C   0  0  0  0  0  0  0  0  0  0  0  0
    7.7036  -15.0290   20.2415 C   0  0  2  0  0  0  0  0  0  0  0  0
    6.5510  -15.5869   19.5024 N   0  0  0  0  0  0  0  0  0  0  0  0
    7.6521  -15.4610   21.6582 C   0  0  0  0  0  0  0  0  0  0  0  0
    6.5796  -15.5448   22.3032 O   0  0  0  0  0  0  0  0  0  0  0  0
    8.8403  -15.8146   22.3891 N   0  0  0  0  0  0  0  0  0  0  0  0
    8.7519  -16.3186   23.7431 C   0  0  1  0  0  0  0  0  0  0  0  0
    9.5275  -17.6019   23.8346 C   0  0  0  0  0  0  0  0  0  0  0  0
    9.6634  -18.1182   25.1979 C   0  0  0  0  0  0  0  0  0  0  0  0
    8.6016  -18.3023   25.8563 O   0  0  0  0  0  0  0  0  0  0  0  0
    9.1553  -15.3159   24.7473 C   0  0  0  0  0  0  0  0  0  0  0  0
   10.3585  -14.9578   24.7843 O   0  0  0  0  0  0  0  0  0  0  0  0
   10.8481  -18.4234   25.8327 O   0  0  0  0  0  0  0  0  0  0  0  0
    6.3936  -13.0647   27.0094 C   0  0  0  0  0  0  0  0  0  0  0  0
    7.8502  -12.6317   26.9464 C   0  0  2  0  0  0  0  0  0  0  0  0
    7.9192  -11.6730   25.7584 C   0  0  0  0  0  0  0  0  0  0  0  0
    8.6694  -13.8465   26.7494 C   0  0  2  0  0  0  0  0  0  0  0  0
    8.3057  -14.7158   25.6796 N   0  0  0  0  0  0  0  0  0  0  0  0
    8.7269  -14.6407   27.9969 C   0  0  0  0  0  0  0  0  0  0  0  0
    9.2710  -14.1365   29.1622 O   0  0  0  0  0  0  0  0  0  0  0  0
    8.2763  -15.8064   28.0242 O   0  0  0  0  0  0  0  0  0  0  0  0
  1  2  1  0
  2  3  2  0
  4  2  1  0
  4  5  1  0
  6  5  1  0
  6  8  1  0
  6  7  1  6
  8  9  2  0
  8 10  1  0
 10 11  1  0
 11 12  1  6
 12 13  1  0
 13 14  2  0
 15 11  1  0
 15 22  1  0
 16 15  2  0
 17 13  1  0
 19 21  1  0
 19 18  1  6
 20 19  1  0
 21 23  1  0
 21 22  1  6
 23 25  2  0
 23 24  1  0
M  END
$$$$
