QDV.pdb
     RDKit          3D

 25 24  0  0  1  0  0  0  0  0999 V2000
   10.4113  -13.7641   17.4973 N   0  0  0  0  0  0  0  0  0  0  0  0
    9.8942  -12.8027   18.4425 C   0  0  0  0  0  0  0  0  0  0  0  0
   10.6635  -12.0775   19.0961 O   0  0  0  0  0  0  0  0  0  0  0  0
    8.4314  -12.6826   18.6352 C   0  0  0  0  0  0  0  0  0  0  0  0
    7.9871  -13.3758   19.8683 C   0  0  0  0  0  0  0  0  0  0  0  0
    8.4467  -14.8072   19.9048 C   0  0  2  0  0  0  0  0  0  0  0  0
    7.5668  -15.5053   18.9434 N   0  0  0  0  0  0  0  0  0  0  0  0
    8.2433  -15.3564   21.2662 C   0  0  0  0  0  0  0  0  0  0  0  0
    7.1143  -15.4252   21.8082 O   0  0  0  0  0  0  0  0  0  0  0  0
    9.3387  -15.8497   22.0587 N   0  0  0  0  0  0  0  0  0  0  0  0
    9.1237  -16.2975   23.4183 C   0  0  1  0  0  0  0  0  0  0  0  0
   10.0678  -17.4286   23.7115 C   0  0  0  0  0  0  0  0  0  0  0  0
    9.9175  -18.5758   22.8144 C   0  0  0  0  0  0  0  0  0  0  0  0
    8.8845  -19.2889   22.9536 O   0  0  0  0  0  0  0  0  0  0  0  0
    9.2055  -15.1959   24.3962 C   0  0  0  0  0  0  0  0  0  0  0  0
   10.3033  -14.6025   24.5374 O   0  0  0  0  0  0  0  0  0  0  0  0
   10.8027  -18.9519   21.8272 O   0  0  0  0  0  0  0  0  0  0  0  0
    7.2269  -11.7036   27.1966 C   0  0  0  0  0  0  0  0  0  0  0  0
    6.9426  -12.8351   26.2208 C   0  0  2  0  0  0  0  0  0  0  0  0
    5.7765  -13.6014   26.8439 C   0  0  0  0  0  0  0  0  0  0  0  0
    8.1707  -13.6511   26.1127 C   0  0  2  0  0  0  0  0  0  0  0  0
    8.1537  -14.7426   25.1958 N   0  0  0  0  0  0  0  0  0  0  0  0
    8.5703  -14.1647   27.4419 C   0  0  0  0  0  0  0  0  0  0  0  0
    9.0465  -13.3322   28.4362 O   0  0  0  0  0  0  0  0  0  0  0  0
    8.4843  -15.3849   27.6990 O   0  0  0  0  0  0  0  0  0  0  0  0
  1  2  1  0
  2  3  2  0
  4  2  1  0
  4  5  1  0
  6  5  1  0
  6  8  1  0
  6  7  1  6
  8  9  2  0
  8 10  1  0
 10 11  1  0
 11 12  1  1
 12 13  1  0
 13 14  2  0
 15 11  1  0
 15 22  1  0
 16 15  2  0
 17 13  1  0
 19 21  1  0
 19 18  1  1
 20 19  1  0
 21 23  1  0
 21 22  1  6
 23 25  2  0
 23 24  1  0
M  END
$$$$
