QDV.pdb
     RDKit          3D

 25 24  0  0  1  0  0  0  0  0999 V2000
   10.4487  -13.1329   19.5831 N   0  0  0  0  0  0  0  0  0  0  0  0
    9.5019  -12.7178   18.5751 C   0  0  0  0  0  0  0  0  0  0  0  0
    9.8919  -12.2772   17.4803 O   0  0  0  0  0  0  0  0  0  0  0  0
    8.0510  -12.8169   18.8516 C   0  0  0  0  0  0  0  0  0  0  0  0
    7.7916  -13.3953   20.1920 C   0  0  0  0  0  0  0  0  0  0  0  0
    8.0609  -14.8745   20.2273 C   0  0  2  0  0  0  0  0  0  0  0  0
    6.9192  -15.4780   19.5075 N   0  0  0  0  0  0  0  0  0  0  0  0
    8.0742  -15.3404   21.6341 C   0  0  0  0  0  0  0  0  0  0  0  0
    7.0428  -15.3745   22.3471 O   0  0  0  0  0  0  0  0  0  0  0  0
    9.2823  -15.7869   22.2759 N   0  0  0  0  0  0  0  0  0  0  0  0
    9.2548  -16.2924   23.6321 C   0  0  1  0  0  0  0  0  0  0  0  0
   10.2456  -17.4152   23.7515 C   0  0  0  0  0  0  0  0  0  0  0  0
    9.9559  -18.5581   22.8836 C   0  0  0  0  0  0  0  0  0  0  0  0
   10.7646  -18.7905   21.9419 O   0  0  0  0  0  0  0  0  0  0  0  0
    9.4487  -15.2290   24.6360 C   0  0  0  0  0  0  0  0  0  0  0  0
   10.5243  -14.5807   24.6197 O   0  0  0  0  0  0  0  0  0  0  0  0
    8.8773  -19.4084   22.9992 O   0  0  0  0  0  0  0  0  0  0  0  0
    6.3110  -13.7084   27.1351 C   0  0  0  0  0  0  0  0  0  0  0  0
    7.5465  -12.9000   26.7698 C   0  0  2  0  0  0  0  0  0  0  0  0
    7.1768  -12.1937   25.4661 C   0  0  0  0  0  0  0  0  0  0  0  0
    8.6692  -13.8481   26.6082 C   0  0  2  0  0  0  0  0  0  0  0  0
    8.5283  -14.8690   25.6231 N   0  0  0  0  0  0  0  0  0  0  0  0
    8.9961  -14.4896   27.9013 C   0  0  0  0  0  0  0  0  0  0  0  0
    9.4503  -13.7636   28.9853 O   0  0  0  0  0  0  0  0  0  0  0  0
    8.8660  -15.7246   28.0438 O   0  0  0  0  0  0  0  0  0  0  0  0
  1  2  1  0
  2  3  2  0
  4  2  1  0
  4  5  1  0
  6  5  1  0
  6  8  1  0
  6  7  1  6
  8  9  2  0
  8 10  1  0
 10 11  1  0
 11 12  1  6
 12 13  1  0
 13 14  2  0
 15 11  1  0
 15 22  1  0
 16 15  2  0
 17 13  1  0
 19 21  1  0
 19 18  1  6
 20 19  1  0
 21 23  1  0
 21 22  1  6
 23 25  2  0
 23 24  1  0
M  END
$$$$
