QVM.pdb
     RDKit          3D

 25 24  0  0  1  0  0  0  0  0999 V2000
   10.9260  -19.5624   16.1868 N   0  0  0  0  0  0  0  0  0  0  0  0
    9.8600  -18.6310   16.2585 C   0  0  0  0  0  0  0  0  0  0  0  0
    9.3188  -18.1879   15.1865 O   0  0  0  0  0  0  0  0  0  0  0  0
    9.3384  -18.1510   17.5478 C   0  0  0  0  0  0  0  0  0  0  0  0
    9.9351  -18.7749   18.7479 C   0  0  0  0  0  0  0  0  0  0  0  0
    9.4213  -18.3188   20.0500 C   0  0  2  0  0  0  0  0  0  0  0  0
    7.9795  -18.6826   20.0722 N   0  0  0  0  0  0  0  0  0  0  0  0
    9.5795  -16.9060   20.3900 C   0  0  0  0  0  0  0  0  0  0  0  0
   10.7371  -16.4087   20.4235 O   0  0  0  0  0  0  0  0  0  0  0  0
    7.8360  -12.3413   21.2623 C   0  0  0  0  0  0  0  0  0  0  0  0
    7.5915  -13.7440   20.7176 C   0  0  1  0  0  0  0  0  0  0  0  0
    7.2856  -13.6900   19.2325 C   0  0  0  0  0  0  0  0  0  0  0  0
    8.7648  -14.6610   21.0013 C   0  0  2  0  0  0  0  0  0  0  0  0
    8.4862  -16.0427   20.6940 N   0  0  0  0  0  0  0  0  0  0  0  0
    9.0167  -14.5556   22.4686 C   0  0  0  0  0  0  0  0  0  0  0  0
    9.6254  -13.5427   22.8748 O   0  0  0  0  0  0  0  0  0  0  0  0
    7.6570  -11.0961   26.8960 C   0  0  0  0  0  0  0  0  0  0  0  0
    6.3210  -12.2260   26.5456 S   0  0  0  0  0  0  0  0  0  0  0  0
    6.7695  -13.9301   26.3045 C   0  0  0  0  0  0  0  0  0  0  0  0
    7.1657  -14.3062   24.9165 C   0  0  0  0  0  0  0  0  0  0  0  0
    8.3013  -15.2615   24.7867 C   0  0  2  0  0  0  0  0  0  0  0  0
    8.5846  -15.5588   23.3767 N   0  0  0  0  0  0  0  0  0  0  0  0
    7.9437  -16.5918   25.3868 C   0  0  0  0  0  0  0  0  0  0  0  0
    7.8335  -16.7461   26.7697 O   0  0  0  0  0  0  0  0  0  0  0  0
    7.7304  -17.6137   24.6804 O   0  0  0  0  0  0  0  0  0  0  0  0
  1  2  1  0
  2  3  2  0
  4  5  1  0
  4  2  1  0
  5  6  1  0
  6  8  1  0
  6  7  1  6
  8  9  2  0
 11 10  1  6
 11 12  1  0
 11 13  1  0
 13 14  1  1
 14  8  1  0
 15 13  1  0
 15 16  2  0
 17 18  1  0
 19 20  1  0
 19 18  1  0
 21 20  1  6
 21 22  1  0
 21 23  1  0
 22 15  1  0
 23 25  2  0
 23 24  1  0
M  END
$$$$
