QVM.pdb
     RDKit          3D

 25 24  0  0  1  0  0  0  0  0999 V2000
   10.1371  -21.5667   20.9133 N   0  0  0  0  0  0  0  0  0  0  0  0
   10.6745  -20.8767   19.7979 C   0  0  0  0  0  0  0  0  0  0  0  0
   10.0678  -20.9029   18.6711 O   0  0  0  0  0  0  0  0  0  0  0  0
   11.9268  -20.1102   19.8932 C   0  0  0  0  0  0  0  0  0  0  0  0
   11.8092  -18.7732   20.5129 C   0  0  0  0  0  0  0  0  0  0  0  0
   11.3318  -17.6854   19.6432 C   0  0  2  0  0  0  0  0  0  0  0  0
   12.4954  -17.2890   18.8063 N   0  0  0  0  0  0  0  0  0  0  0  0
   10.7566  -16.5029   20.2814 C   0  0  0  0  0  0  0  0  0  0  0  0
   11.5259  -15.6008   20.7088 O   0  0  0  0  0  0  0  0  0  0  0  0
    7.0088  -13.4687   21.4118 C   0  0  0  0  0  0  0  0  0  0  0  0
    7.5194  -14.6664   20.6186 C   0  0  1  0  0  0  0  0  0  0  0  0
    7.5012  -14.3641   19.1319 C   0  0  0  0  0  0  0  0  0  0  0  0
    8.9033  -15.0839   21.0748 C   0  0  2  0  0  0  0  0  0  0  0  0
    9.3551  -16.3059   20.4554 N   0  0  0  0  0  0  0  0  0  0  0  0
    8.7911  -15.3244   22.5436 C   0  0  0  0  0  0  0  0  0  0  0  0
    8.8693  -16.5073   22.9388 O   0  0  0  0  0  0  0  0  0  0  0  0
    6.2767  -10.7715   27.0486 C   0  0  0  0  0  0  0  0  0  0  0  0
    7.3683  -11.8790   27.9238 S   0  0  0  0  0  0  0  0  0  0  0  0
    7.8116  -13.3815   27.0816 C   0  0  0  0  0  0  0  0  0  0  0  0
    8.1308  -13.2419   25.6312 C   0  0  0  0  0  0  0  0  0  0  0  0
    8.5074  -14.4907   24.9117 C   0  0  2  0  0  0  0  0  0  0  0  0
    8.6051  -14.2592   23.4648 N   0  0  0  0  0  0  0  0  0  0  0  0
    7.4299  -15.5281   25.0545 C   0  0  0  0  0  0  0  0  0  0  0  0
    7.5739  -16.5905   25.9482 O   0  0  0  0  0  0  0  0  0  0  0  0
    6.3633  -15.4877   24.3841 O   0  0  0  0  0  0  0  0  0  0  0  0
  1  2  1  0
  2  3  2  0
  4  5  1  0
  4  2  1  0
  5  6  1  0
  6  8  1  0
  6  7  1  1
  8  9  2  0
 11 10  1  1
 11 12  1  0
 11 13  1  0
 13 14  1  6
 14  8  1  0
 15 13  1  0
 15 16  2  0
 17 18  1  0
 19 20  1  0
 19 18  1  0
 21 20  1  1
 21 22  1  0
 21 23  1  0
 22 15  1  0
 23 25  2  0
 23 24  1  0
M  END
$$$$
