QVM.pdb
     RDKit          3D

 25 24  0  0  1  0  0  0  0  0999 V2000
    5.7287  -18.0120   24.7702 N   0  0  0  0  0  0  0  0  0  0  0  0
    6.8956  -18.8012   24.6131 C   0  0  0  0  0  0  0  0  0  0  0  0
    7.6184  -19.0912   25.6289 O   0  0  0  0  0  0  0  0  0  0  0  0
    7.3099  -19.3150   23.2982 C   0  0  0  0  0  0  0  0  0  0  0  0
    6.4363  -18.9426   22.1651 C   0  0  0  0  0  0  0  0  0  0  0  0
    7.1072  -18.4323   20.9581 C   0  0  2  0  0  0  0  0  0  0  0  0
    7.9685  -19.5412   20.4679 N   0  0  0  0  0  0  0  0  0  0  0  0
    7.8987  -17.2097   21.0816 C   0  0  0  0  0  0  0  0  0  0  0  0
    9.1539  -17.2796   20.9927 O   0  0  0  0  0  0  0  0  0  0  0  0
    8.2139  -12.2526   20.9071 C   0  0  0  0  0  0  0  0  0  0  0  0
    7.3454  -13.5027   20.8218 C   0  0  1  0  0  0  0  0  0  0  0  0
    6.6521  -13.5753   19.4742 C   0  0  0  0  0  0  0  0  0  0  0  0
    8.1525  -14.7575   21.0899 C   0  0  2  0  0  0  0  0  0  0  0  0
    7.3280  -15.9219   21.3032 N   0  0  0  0  0  0  0  0  0  0  0  0
    8.9106  -14.4914   22.3478 C   0  0  0  0  0  0  0  0  0  0  0  0
    9.7224  -13.5415   22.3381 O   0  0  0  0  0  0  0  0  0  0  0  0
    6.5395  -10.7362   26.1401 C   0  0  0  0  0  0  0  0  0  0  0  0
    6.3350  -12.2878   26.9974 S   0  0  0  0  0  0  0  0  0  0  0  0
    7.5768  -13.5257   26.6990 C   0  0  0  0  0  0  0  0  0  0  0  0
    7.5715  -14.1342   25.3372 C   0  0  0  0  0  0  0  0  0  0  0  0
    8.8602  -14.7126   24.8642 C   0  0  2  0  0  0  0  0  0  0  0  0
    8.7235  -15.2781   23.5157 N   0  0  0  0  0  0  0  0  0  0  0  0
    9.2621  -15.8790   25.7218 C   0  0  0  0  0  0  0  0  0  0  0  0
    9.4813  -17.1379   25.1599 O   0  0  0  0  0  0  0  0  0  0  0  0
    9.4170  -15.7765   26.9684 O   0  0  0  0  0  0  0  0  0  0  0  0
  1  2  1  0
  2  3  2  0
  4  5  1  0
  4  2  1  0
  5  6  1  0
  6  8  1  0
  6  7  1  1
  8  9  2  0
 11 10  1  6
 11 12  1  0
 11 13  1  0
 13 14  1  1
 14  8  1  0
 15 13  1  0
 15 16  2  0
 17 18  1  0
 19 20  1  0
 19 18  1  0
 21 20  1  1
 21 22  1  0
 21 23  1  0
 22 15  1  0
 23 25  2  0
 23 24  1  0
M  END
$$$$
