QVM.pdb
     RDKit          3D

 25 24  0  0  1  0  0  0  0  0999 V2000
   13.8325  -17.6218   17.4681 N   0  0  0  0  0  0  0  0  0  0  0  0
   14.4633  -18.2424   18.5753 C   0  0  0  0  0  0  0  0  0  0  0  0
   15.2644  -19.2240   18.3932 O   0  0  0  0  0  0  0  0  0  0  0  0
   14.2303  -17.7846   19.9541 C   0  0  0  0  0  0  0  0  0  0  0  0
   13.3082  -16.6379   20.0968 C   0  0  0  0  0  0  0  0  0  0  0  0
   11.8810  -16.9590   20.2628 C   0  0  2  0  0  0  0  0  0  0  0  0
   11.2276  -16.6002   18.9759 N   0  0  0  0  0  0  0  0  0  0  0  0
   11.1644  -16.3325   21.3721 C   0  0  0  0  0  0  0  0  0  0  0  0
   11.7571  -15.4737   22.0787 O   0  0  0  0  0  0  0  0  0  0  0  0
    7.0190  -14.8961   23.6145 C   0  0  0  0  0  0  0  0  0  0  0  0
    7.6970  -15.6170   22.4547 C   0  0  1  0  0  0  0  0  0  0  0  0
    7.5091  -14.8399   21.1653 C   0  0  0  0  0  0  0  0  0  0  0  0
    9.1662  -15.8612   22.7369 C   0  0  2  0  0  0  0  0  0  0  0  0
    9.8141  -16.6412   21.7109 N   0  0  0  0  0  0  0  0  0  0  0  0
    9.2110  -16.6417   24.0083 C   0  0  0  0  0  0  0  0  0  0  0  0
    9.1347  -17.8859   23.9206 O   0  0  0  0  0  0  0  0  0  0  0  0
    9.4247  -12.3319   28.2979 C   0  0  0  0  0  0  0  0  0  0  0  0
   10.6687  -13.5224   28.7663 S   0  0  0  0  0  0  0  0  0  0  0  0
   10.8289  -14.9518   27.7202 C   0  0  0  0  0  0  0  0  0  0  0  0
    9.6516  -15.8671   27.6884 C   0  0  0  0  0  0  0  0  0  0  0  0
    9.5462  -16.7714   26.5092 C   0  0  2  0  0  0  0  0  0  0  0  0
    9.3374  -16.0069   25.2728 N   0  0  0  0  0  0  0  0  0  0  0  0
    8.3291  -17.6453   26.6208 C   0  0  0  0  0  0  0  0  0  0  0  0
    8.3876  -18.8713   27.2856 O   0  0  0  0  0  0  0  0  0  0  0  0
    7.2170  -17.3173   26.1267 O   0  0  0  0  0  0  0  0  0  0  0  0
  1  2  1  0
  2  3  2  0
  4  5  1  0
  4  2  1  0
  5  6  1  0
  6  8  1  0
  6  7  1  6
  8  9  2  0
 11 10  1  1
 11 12  1  0
 11 13  1  0
 13 14  1  6
 14  8  1  0
 15 13  1  0
 15 16  2  0
 17 18  1  0
 19 20  1  0
 19 18  1  0
 21 20  1  1
 21 22  1  0
 21 23  1  0
 22 15  1  0
 23 25  2  0
 23 24  1  0
M  END
$$$$
