ARP.pdb
     RDKit          3D

 24 24  0  0  1  0  0  0  0  0999 V2000
   11.3289  -18.8515   25.5469 C   0  0  0  0  0  0  0  0  0  0  0  0
   11.7676  -18.0033   24.4009 C   0  0  2  0  0  0  0  0  0  0  0  0
   13.2058  -17.8123   24.3665 N   0  0  0  0  0  0  0  0  0  0  0  0
   11.0584  -16.6899   24.3471 C   0  0  0  0  0  0  0  0  0  0  0  0
   11.4655  -15.7094   25.0222 O   0  0  0  0  0  0  0  0  0  0  0  0
    8.5719  -14.6755   17.4401 N   0  0  0  0  0  0  0  0  0  0  0  0
    8.0689  -13.8161   18.4451 C   0  0  0  0  0  0  0  0  0  0  0  0
    7.0969  -12.9619   18.2307 N   0  0  0  0  0  0  0  0  0  0  0  0
    8.5822  -13.8107   19.7798 N   0  0  0  0  0  0  0  0  0  0  0  0
    7.9440  -13.0957   20.8691 C   0  0  0  0  0  0  0  0  0  0  0  0
    7.5404  -14.0386   21.9857 C   0  0  0  0  0  0  0  0  0  0  0  0
    8.4893  -15.1426   22.1913 C   0  0  0  0  0  0  0  0  0  0  0  0
    9.2098  -15.1593   23.5179 C   0  0  2  0  0  0  0  0  0  0  0  0
    9.9143  -16.5001   23.5438 N   0  0  0  0  0  0  0  0  0  0  0  0
    8.3425  -15.1256   24.6954 C   0  0  0  0  0  0  0  0  0  0  0  0
    7.8247  -16.3028   24.9637 O   0  0  0  0  0  0  0  0  0  0  0  0
    6.7852  -12.4265   19.0697 N   0  0  0  0  0  0  0  0  0  0  0  0
    7.9834  -14.0935   25.5604 C   0  0  0  0  0  0  0  0  0  0  0  0
    8.4686  -12.7036   25.3444 C   0  0  0  0  0  0  0  0  0  0  0  0
    7.2593  -11.8911   25.8346 C   0  0  0  0  0  0  0  0  0  0  0  0
    7.0258  -12.5974   27.1508 C   0  0  2  0  0  0  0  0  0  0  0  0
    7.1197  -14.0763   26.6960 C   0  0  0  0  0  0  0  0  0  0  0  0
    5.7006  -14.3997   26.2822 O   0  0  0  0  0  0  0  0  0  0  0  0
    5.4023  -14.3444   25.0623 O   0  0  0  0  0  0  0  0  0  0  0  0
  2  1  1  1
  2  3  1  0
  4  2  1  0
  4  5  2  0
  6  7  1  0
  7  9  1  0
  8  7  2  0
  9 10  1  0
 10 11  1  0
 11 12  1  0
 13 12  1  6
 13 14  1  0
 14  4  1  0
 15 13  1  0
 16 15  2  0
 17 15  1  0
 18 19  1  0
 18 17  1  0
 19 20  1  0
 20 21  1  0
 21 17  1  0
 21 22  1  1
 23 22  2  0
 24 22  1  0
M  END
$$$$
