ARP.pdb
     RDKit          3D

 24 24  0  0  1  0  0  0  0  0999 V2000
    8.8509  -12.3459   19.6124 C   0  0  0  0  0  0  0  0  0  0  0  0
    8.5393  -13.8035   19.6718 C   0  0  2  0  0  0  0  0  0  0  0  0
    7.9410  -14.2966   18.4450 N   0  0  0  0  0  0  0  0  0  0  0  0
    7.7016  -14.1695   20.8529 C   0  0  0  0  0  0  0  0  0  0  0  0
    6.4996  -14.5122   20.7093 O   0  0  0  0  0  0  0  0  0  0  0  0
    9.0472  -20.2828   26.2383 N   0  0  0  0  0  0  0  0  0  0  0  0
    7.6686  -20.2815   25.9202 C   0  0  0  0  0  0  0  0  0  0  0  0
    6.8656  -21.2714   26.2294 N   0  0  0  0  0  0  0  0  0  0  0  0
    7.0389  -19.1965   25.2338 N   0  0  0  0  0  0  0  0  0  0  0  0
    7.7552  -18.0094   24.8064 C   0  0  0  0  0  0  0  0  0  0  0  0
    6.8177  -16.9955   24.1803 C   0  0  0  0  0  0  0  0  0  0  0  0
    7.4477  -16.1901   23.1238 C   0  0  0  0  0  0  0  0  0  0  0  0
    7.4116  -14.6937   23.3205 C   0  0  2  0  0  0  0  0  0  0  0  0
    8.2218  -14.1450   22.1639 N   0  0  0  0  0  0  0  0  0  0  0  0
    8.0571  -14.2126   24.5419 C   0  0  0  0  0  0  0  0  0  0  0  0
    9.2361  -14.7613   24.7288 O   0  0  0  0  0  0  0  0  0  0  0  0
    5.8632  -21.1215   25.9830 N   0  0  0  0  0  0  0  0  0  0  0  0
    7.6536  -13.2967   25.5117 C   0  0  0  0  0  0  0  0  0  0  0  0
    6.3455  -12.5948   25.4114 C   0  0  0  0  0  0  0  0  0  0  0  0
    5.9574  -12.4837   26.8946 C   0  0  0  0  0  0  0  0  0  0  0  0
    7.2616  -11.9412   27.4336 C   0  0  2  0  0  0  0  0  0  0  0  0
    8.2700  -12.8859   26.7312 C   0  0  0  0  0  0  0  0  0  0  0  0
    8.3717  -14.0536   27.6883 O   0  0  0  0  0  0  0  0  0  0  0  0
    7.7015  -15.0893   27.4469 O   0  0  0  0  0  0  0  0  0  0  0  0
  2  1  1  6
  2  3  1  0
  4  2  1  0
  4  5  2  0
  6  7  1  0
  7  9  1  0
  8  7  2  0
  9 10  1  0
 10 11  1  0
 11 12  1  0
 13 12  1  1
 13 14  1  0
 14  4  1  0
 15 13  1  0
 16 15  2  0
 17 15  1  0
 18 19  1  0
 18 17  1  0
 19 20  1  0
 20 21  1  0
 21 17  1  0
 21 22  1  1
 23 22  2  0
 24 22  1  0
M  END
$$$$
