ARP.pdb
     RDKit          3D

 24 24  0  0  1  0  0  0  0  0999 V2000
    8.9172  -12.4696   19.6331 C   0  0  0  0  0  0  0  0  0  0  0  0
    8.3014  -13.8282   19.6122 C   0  0  2  0  0  0  0  0  0  0  0  0
    7.4147  -14.0215   18.4797 N   0  0  0  0  0  0  0  0  0  0  0  0
    7.6087  -14.1702   20.8905 C   0  0  0  0  0  0  0  0  0  0  0  0
    6.3539  -14.1333   20.9735 O   0  0  0  0  0  0  0  0  0  0  0  0
    6.0308  -18.6059   27.0967 N   0  0  0  0  0  0  0  0  0  0  0  0
    7.2742  -19.2656   26.9545 C   0  0  0  0  0  0  0  0  0  0  0  0
    7.8463  -19.9254   27.9332 N   0  0  0  0  0  0  0  0  0  0  0  0
    8.0088  -19.2656   25.7276 N   0  0  0  0  0  0  0  0  0  0  0  0
    8.4765  -18.0511   25.0864 C   0  0  0  0  0  0  0  0  0  0  0  0
    7.3516  -17.3460   24.3542 C   0  0  0  0  0  0  0  0  0  0  0  0
    7.8055  -16.5748   23.1875 C   0  0  0  0  0  0  0  0  0  0  0  0
    7.6030  -15.0806   23.2609 C   0  0  2  0  0  0  0  0  0  0  0  0
    8.3291  -14.5447   22.0441 N   0  0  0  0  0  0  0  0  0  0  0  0
    8.2075  -14.4289   24.4228 C   0  0  0  0  0  0  0  0  0  0  0  0
    9.4420  -14.8280   24.6287 O   0  0  0  0  0  0  0  0  0  0  0  0
    8.7864  -20.3189   27.7114 N   0  0  0  0  0  0  0  0  0  0  0  0
    7.7181  -13.4821   25.3209 C   0  0  0  0  0  0  0  0  0  0  0  0
    6.3850  -12.8512   25.1247 C   0  0  0  0  0  0  0  0  0  0  0  0
    5.9248  -12.6785   26.5812 C   0  0  0  0  0  0  0  0  0  0  0  0
    7.1765  -12.0447   27.1444 C   0  0  2  0  0  0  0  0  0  0  0  0
    8.2585  -12.9761   26.5407 C   0  0  0  0  0  0  0  0  0  0  0  0
    8.3701  -14.0835   27.5658 O   0  0  0  0  0  0  0  0  0  0  0  0
    9.0110  -13.8612   28.6241 O   0  0  0  0  0  0  0  0  0  0  0  0
  2  1  1  1
  2  3  1  0
  4  2  1  0
  4  5  2  0
  6  7  1  0
  7  9  1  0
  8  7  2  0
  9 10  1  0
 10 11  1  0
 11 12  1  0
 13 12  1  1
 13 14  1  0
 14  4  1  0
 15 13  1  0
 16 15  2  0
 17 15  1  0
 18 19  1  0
 18 17  1  0
 19 20  1  0
 20 21  1  0
 21 17  1  0
 21 22  1  1
 23 22  2  0
 24 22  1  0
M  END
$$$$
