ARP.pdb
     RDKit          3D

 24 24  0  0  1  0  0  0  0  0999 V2000
    8.9753  -12.6866   19.5372 C   0  0  0  0  0  0  0  0  0  0  0  0
    8.2684  -13.9993   19.5863 C   0  0  2  0  0  0  0  0  0  0  0  0
    7.3997  -14.2083   18.4427 N   0  0  0  0  0  0  0  0  0  0  0  0
    7.5215  -14.2079   20.8628 C   0  0  0  0  0  0  0  0  0  0  0  0
    6.2664  -14.1282   20.8956 O   0  0  0  0  0  0  0  0  0  0  0  0
    9.0980  -20.0650   26.8625 N   0  0  0  0  0  0  0  0  0  0  0  0
    7.7111  -19.7959   26.9383 C   0  0  0  0  0  0  0  0  0  0  0  0
    6.8966  -20.4689   27.7155 N   0  0  0  0  0  0  0  0  0  0  0  0
    7.0848  -18.7646   26.1707 N   0  0  0  0  0  0  0  0  0  0  0  0
    7.7092  -18.1503   25.0141 C   0  0  0  0  0  0  0  0  0  0  0  0
    6.7904  -17.1323   24.3673 C   0  0  0  0  0  0  0  0  0  0  0  0
    7.4004  -16.4356   23.2253 C   0  0  0  0  0  0  0  0  0  0  0  0
    7.4070  -14.9275   23.2952 C   0  0  2  0  0  0  0  0  0  0  0  0
    8.1894  -14.4999   22.0706 N   0  0  0  0  0  0  0  0  0  0  0  0
    8.1058  -14.3630   24.4497 C   0  0  0  0  0  0  0  0  0  0  0  0
    9.2868  -14.9092   24.6303 O   0  0  0  0  0  0  0  0  0  0  0  0
    5.8943  -20.1868   27.6561 N   0  0  0  0  0  0  0  0  0  0  0  0
    7.7497  -13.3719   25.3627 C   0  0  0  0  0  0  0  0  0  0  0  0
    6.5047  -12.5760   25.1890 C   0  0  0  0  0  0  0  0  0  0  0  0
    6.0862  -12.3625   26.6526 C   0  0  0  0  0  0  0  0  0  0  0  0
    7.4141  -11.8975   27.2061 C   0  0  2  0  0  0  0  0  0  0  0  0
    8.3632  -12.9512   26.5803 C   0  0  0  0  0  0  0  0  0  0  0  0
    8.3457  -14.0749   27.5936 O   0  0  0  0  0  0  0  0  0  0  0  0
    7.6145  -15.0732   27.3722 O   0  0  0  0  0  0  0  0  0  0  0  0
  2  1  1  1
  2  3  1  0
  4  2  1  0
  4  5  2  0
  6  7  1  0
  7  9  1  0
  8  7  2  0
  9 10  1  0
 10 11  1  0
 11 12  1  0
 13 12  1  1
 13 14  1  0
 14  4  1  0
 15 13  1  0
 16 15  2  0
 17 15  1  0
 18 19  1  0
 18 17  1  0
 19 20  1  0
 20 21  1  0
 21 17  1  0
 21 22  1  1
 23 22  2  0
 24 22  1  0
M  END
$$$$
