ARP.pdb
     RDKit          3D

 24 24  0  0  1  0  0  0  0  0999 V2000
   12.3557  -19.8696   21.4460 C   0  0  0  0  0  0  0  0  0  0  0  0
   12.3005  -18.6637   20.5696 C   0  0  2  0  0  0  0  0  0  0  0  0
   13.6175  -18.2062   20.1664 N   0  0  0  0  0  0  0  0  0  0  0  0
   11.5136  -17.5457   21.1711 C   0  0  0  0  0  0  0  0  0  0  0  0
   12.0671  -16.6950   21.9145 O   0  0  0  0  0  0  0  0  0  0  0  0
    8.6026  -14.4709   17.5677 N   0  0  0  0  0  0  0  0  0  0  0  0
    7.9858  -13.5540   18.4512 C   0  0  0  0  0  0  0  0  0  0  0  0
    8.6037  -12.5007   18.9298 N   0  0  0  0  0  0  0  0  0  0  0  0
    6.6343  -13.7034   18.8941 N   0  0  0  0  0  0  0  0  0  0  0  0
    6.2308  -14.6850   19.8834 C   0  0  0  0  0  0  0  0  0  0  0  0
    7.3177  -14.9044   20.9175 C   0  0  0  0  0  0  0  0  0  0  0  0
    8.3106  -15.9126   20.5181 C   0  0  0  0  0  0  0  0  0  0  0  0
    9.3608  -16.2530   21.5478 C   0  0  2  0  0  0  0  0  0  0  0  0
   10.1310  -17.4022   20.9304 N   0  0  0  0  0  0  0  0  0  0  0  0
    8.8420  -16.7424   22.8250 C   0  0  0  0  0  0  0  0  0  0  0  0
    8.4982  -18.0091   22.7678 O   0  0  0  0  0  0  0  0  0  0  0  0
    9.5148  -12.2770   18.4740 N   0  0  0  0  0  0  0  0  0  0  0  0
    8.6583  -16.1190   24.0578 C   0  0  0  0  0  0  0  0  0  0  0  0
    8.8627  -14.6539   24.2181 C   0  0  0  0  0  0  0  0  0  0  0  0
    7.7884  -14.3205   25.2658 C   0  0  0  0  0  0  0  0  0  0  0  0
    8.0936  -15.4139   26.2643 C   0  0  1  0  0  0  0  0  0  0  0  0
    8.2216  -16.6328   25.3153 C   0  0  0  0  0  0  0  0  0  0  0  0
    6.7992  -17.1386   25.2113 O   0  0  0  0  0  0  0  0  0  0  0  0
    6.1407  -16.8731   24.1740 O   0  0  0  0  0  0  0  0  0  0  0  0
  2  1  1  1
  2  3  1  0
  4  2  1  0
  4  5  2  0
  6  7  1  0
  7  9  1  0
  8  7  2  0
  9 10  1  0
 10 11  1  0
 11 12  1  0
 13 12  1  6
 13 14  1  0
 14  4  1  0
 15 13  1  0
 16 15  2  0
 17 15  1  0
 18 19  1  0
 18 17  1  0
 19 20  1  0
 20 21  1  0
 21 17  1  0
 21 22  1  6
 23 22  2  0
 24 22  1  0
M  END
$$$$
