ARP.pdb
     RDKit          3D

 24 24  0  0  1  0  0  0  0  0999 V2000
    9.5000  -12.4625   19.9855 C   0  0  0  0  0  0  0  0  0  0  0  0
    8.4867  -13.5414   19.8003 C   0  0  2  0  0  0  0  0  0  0  0  0
    7.5648  -13.2608   18.7152 N   0  0  0  0  0  0  0  0  0  0  0  0
    7.7438  -13.8605   21.0562 C   0  0  0  0  0  0  0  0  0  0  0  0
    6.6635  -13.2774   21.3317 O   0  0  0  0  0  0  0  0  0  0  0  0
    8.7494  -18.5400   26.9766 N   0  0  0  0  0  0  0  0  0  0  0  0
    7.4918  -19.1869   27.0135 C   0  0  0  0  0  0  0  0  0  0  0  0
    7.0055  -19.7369   28.1004 N   0  0  0  0  0  0  0  0  0  0  0  0
    6.6475  -19.2928   25.8641 N   0  0  0  0  0  0  0  0  0  0  0  0
    7.0132  -18.7642   24.5634 C   0  0  0  0  0  0  0  0  0  0  0  0
    6.9565  -17.2492   24.5483 C   0  0  0  0  0  0  0  0  0  0  0  0
    7.4827  -16.6560   23.3102 C   0  0  0  0  0  0  0  0  0  0  0  0
    7.4261  -15.1501   23.2203 C   0  0  2  0  0  0  0  0  0  0  0  0
    8.2210  -14.8198   21.9737 N   0  0  0  0  0  0  0  0  0  0  0  0
    8.0721  -14.4379   24.3228 C   0  0  0  0  0  0  0  0  0  0  0  0
    9.3643  -14.6695   24.3732 O   0  0  0  0  0  0  0  0  0  0  0  0
    6.0101  -20.0415   28.0350 N   0  0  0  0  0  0  0  0  0  0  0  0
    7.5714  -13.5775   25.2983 C   0  0  0  0  0  0  0  0  0  0  0  0
    6.1338  -13.1947   25.3233 C   0  0  0  0  0  0  0  0  0  0  0  0
    5.8864  -13.0818   26.8362 C   0  0  0  0  0  0  0  0  0  0  0  0
    7.0796  -12.2281   27.2013 C   0  0  2  0  0  0  0  0  0  0  0  0
    8.1998  -12.9641   26.4229 C   0  0  0  0  0  0  0  0  0  0  0  0
    8.6658  -14.0175   27.4042 O   0  0  0  0  0  0  0  0  0  0  0  0
    8.2725  -15.2012   27.2480 O   0  0  0  0  0  0  0  0  0  0  0  0
  2  1  1  1
  2  3  1  0
  4  2  1  0
  4  5  2  0
  6  7  1  0
  7  9  1  0
  8  7  2  0
  9 10  1  0
 10 11  1  0
 11 12  1  0
 13 12  1  1
 13 14  1  0
 14  4  1  0
 15 13  1  0
 16 15  2  0
 17 15  1  0
 18 19  1  0
 18 17  1  0
 19 20  1  0
 20 21  1  0
 21 17  1  0
 21 22  1  1
 23 22  2  0
 24 22  1  0
M  END
$$$$
