ARP.pdb
     RDKit          3D

 24 24  0  0  1  0  0  0  0  0999 V2000
    9.0556  -12.5877   19.7331 C   0  0  0  0  0  0  0  0  0  0  0  0
    8.2328  -13.8320   19.7381 C   0  0  2  0  0  0  0  0  0  0  0  0
    7.2812  -13.8761   18.6432 N   0  0  0  0  0  0  0  0  0  0  0  0
    7.5477  -14.0685   21.0440 C   0  0  0  0  0  0  0  0  0  0  0  0
    6.3830  -13.6387   21.2479 O   0  0  0  0  0  0  0  0  0  0  0  0
    7.2725  -21.4637   25.6835 N   0  0  0  0  0  0  0  0  0  0  0  0
    7.2084  -20.4115   26.6270 C   0  0  0  0  0  0  0  0  0  0  0  0
    7.1857  -20.6169   27.9223 N   0  0  0  0  0  0  0  0  0  0  0  0
    7.1631  -19.0351   26.2420 N   0  0  0  0  0  0  0  0  0  0  0  0
    6.9951  -18.6041   24.8668 C   0  0  0  0  0  0  0  0  0  0  0  0
    6.9019  -17.0939   24.7699 C   0  0  0  0  0  0  0  0  0  0  0  0
    7.4970  -16.5484   23.5411 C   0  0  0  0  0  0  0  0  0  0  0  0
    7.4353  -15.0482   23.3839 C   0  0  2  0  0  0  0  0  0  0  0  0
    8.1752  -14.7771   22.0900 N   0  0  0  0  0  0  0  0  0  0  0  0
    8.1279  -14.2864   24.4231 C   0  0  0  0  0  0  0  0  0  0  0  0
    9.3960  -14.6166   24.5180 O   0  0  0  0  0  0  0  0  0  0  0  0
    7.1512  -19.7537   28.5067 N   0  0  0  0  0  0  0  0  0  0  0  0
    7.6913  -13.2966   25.3018 C   0  0  0  0  0  0  0  0  0  0  0  0
    6.3174  -12.7335   25.2064 C   0  0  0  0  0  0  0  0  0  0  0  0
    6.0032  -12.4734   26.6885 C   0  0  0  0  0  0  0  0  0  0  0  0
    7.2761  -11.7526   27.0705 C   0  0  2  0  0  0  0  0  0  0  0  0
    8.3314  -12.6829   26.4196 C   0  0  0  0  0  0  0  0  0  0  0  0
    8.5995  -13.7079   27.5000 O   0  0  0  0  0  0  0  0  0  0  0  0
    8.0120  -14.8174   27.4357 O   0  0  0  0  0  0  0  0  0  0  0  0
  2  1  1  1
  2  3  1  0
  4  2  1  0
  4  5  2  0
  6  7  1  0
  7  9  1  0
  8  7  2  0
  9 10  1  0
 10 11  1  0
 11 12  1  0
 13 12  1  1
 13 14  1  0
 14  4  1  0
 15 13  1  0
 16 15  2  0
 17 15  1  0
 18 19  1  0
 18 17  1  0
 19 20  1  0
 20 21  1  0
 21 17  1  0
 21 22  1  1
 23 22  2  0
 24 22  1  0
M  END
$$$$
