ARP.pdb
     RDKit          3D

 24 24  0  0  1  0  0  0  0  0999 V2000
    7.6545  -13.0844   19.0484 C   0  0  0  0  0  0  0  0  0  0  0  0
    8.5925  -13.6070   20.0839 C   0  0  2  0  0  0  0  0  0  0  0  0
    9.2806  -14.8113   19.6566 N   0  0  0  0  0  0  0  0  0  0  0  0
    7.9354  -13.8154   21.4089 C   0  0  0  0  0  0  0  0  0  0  0  0
    7.2713  -12.8945   21.9508 O   0  0  0  0  0  0  0  0  0  0  0  0
    6.7340  -20.6341   28.4807 N   0  0  0  0  0  0  0  0  0  0  0  0
    7.1140  -20.2871   27.1628 C   0  0  0  0  0  0  0  0  0  0  0  0
    7.7306  -21.1185   26.3573 N   0  0  0  0  0  0  0  0  0  0  0  0
    6.8548  -18.9973   26.6022 N   0  0  0  0  0  0  0  0  0  0  0  0
    7.3013  -18.6069   25.2781 C   0  0  0  0  0  0  0  0  0  0  0  0
    6.8337  -17.2074   24.9292 C   0  0  0  0  0  0  0  0  0  0  0  0
    7.3235  -16.7345   23.6260 C   0  0  0  0  0  0  0  0  0  0  0  0
    7.3196  -15.2391   23.4192 C   0  0  2  0  0  0  0  0  0  0  0  0
    8.0336  -15.0426   22.0976 N   0  0  0  0  0  0  0  0  0  0  0  0
    8.0721  -14.4733   24.4129 C   0  0  0  0  0  0  0  0  0  0  0  0
    9.3138  -14.8881   24.5223 O   0  0  0  0  0  0  0  0  0  0  0  0
    7.9696  -20.7303   25.4191 N   0  0  0  0  0  0  0  0  0  0  0  0
    7.7134  -13.4081   25.2370 C   0  0  0  0  0  0  0  0  0  0  0  0
    6.3847  -12.7504   25.1113 C   0  0  0  0  0  0  0  0  0  0  0  0
    6.0964  -12.3886   26.5772 C   0  0  0  0  0  0  0  0  0  0  0  0
    7.4207  -11.7448   26.9200 C   0  0  2  0  0  0  0  0  0  0  0  0
    8.4016  -12.7845   26.3203 C   0  0  0  0  0  0  0  0  0  0  0  0
    8.5971  -13.7671   27.4543 O   0  0  0  0  0  0  0  0  0  0  0  0
    7.9460  -14.8423   27.4376 O   0  0  0  0  0  0  0  0  0  0  0  0
  2  1  1  6
  2  3  1  0
  4  2  1  0
  4  5  2  0
  6  7  1  0
  7  9  1  0
  8  7  2  0
  9 10  1  0
 10 11  1  0
 11 12  1  0
 13 12  1  1
 13 14  1  0
 14  4  1  0
 15 13  1  0
 16 15  2  0
 17 15  1  0
 18 19  1  0
 18 17  1  0
 19 20  1  0
 20 21  1  0
 21 17  1  0
 21 22  1  1
 23 22  2  0
 24 22  1  0
M  END
$$$$
