ARP.pdb
     RDKit          3D

 24 24  0  0  1  0  0  0  0  0999 V2000
    7.1570  -11.7175   27.5129 C   0  0  0  0  0  0  0  0  0  0  0  0
    6.0843  -11.8799   26.4890 C   0  0  2  0  0  0  0  0  0  0  0  0
    4.7526  -11.8325   27.0637 N   0  0  0  0  0  0  0  0  0  0  0  0
    6.2580  -13.1084   25.6576 C   0  0  0  0  0  0  0  0  0  0  0  0
    5.6234  -14.1617   25.9235 O   0  0  0  0  0  0  0  0  0  0  0  0
    8.8911  -12.7761   17.5628 N   0  0  0  0  0  0  0  0  0  0  0  0
    8.1949  -13.9686   17.8707 C   0  0  0  0  0  0  0  0  0  0  0  0
    7.7714  -14.8033   16.9519 N   0  0  0  0  0  0  0  0  0  0  0  0
    7.8967  -14.3601   19.2134 N   0  0  0  0  0  0  0  0  0  0  0  0
    8.9118  -14.4953   20.2412 C   0  0  0  0  0  0  0  0  0  0  0  0
    8.3218  -15.0299   21.5315 C   0  0  0  0  0  0  0  0  0  0  0  0
    7.8129  -13.9771   22.4228 C   0  0  0  0  0  0  0  0  0  0  0  0
    7.3762  -14.4253   23.7967 C   0  0  2  0  0  0  0  0  0  0  0  0
    7.1330  -13.1345   24.5514 N   0  0  0  0  0  0  0  0  0  0  0  0
    8.3833  -15.1651   24.5573 C   0  0  0  0  0  0  0  0  0  0  0  0
    9.5467  -14.5550   24.5637 O   0  0  0  0  0  0  0  0  0  0  0  0
    7.3560  -15.6882   17.3157 N   0  0  0  0  0  0  0  0  0  0  0  0
    8.3246  -16.3671   25.2602 C   0  0  0  0  0  0  0  0  0  0  0  0
    7.0622  -17.1503   25.3426 C   0  0  0  0  0  0  0  0  0  0  0  0
    7.6079  -18.5873   25.3447 C   0  0  0  0  0  0  0  0  0  0  0  0
    8.6712  -18.4281   26.4076 C   0  0  2  0  0  0  0  0  0  0  0  0
    9.3352  -17.1063   25.9443 C   0  0  0  0  0  0  0  0  0  0  0  0
   10.3936  -17.5759   24.9702 O   0  0  0  0  0  0  0  0  0  0  0  0
   10.1590  -17.4875   23.7383 O   0  0  0  0  0  0  0  0  0  0  0  0
  2  1  1  1
  2  3  1  0
  4  2  1  0
  4  5  2  0
  6  7  1  0
  7  9  1  0
  8  7  2  0
  9 10  1  0
 10 11  1  0
 11 12  1  0
 13 12  1  6
 13 14  1  0
 14  4  1  0
 15 13  1  0
 16 15  2  0
 17 15  1  0
 18 19  1  0
 18 17  1  0
 19 20  1  0
 20 21  1  0
 21 17  1  0
 21 22  1  6
 23 22  2  0
 24 22  1  0
M  END
$$$$
