ARP.pdb
     RDKit          3D

 24 24  0  0  1  0  0  0  0  0999 V2000
    8.4653  -12.2672   19.6272 C   0  0  0  0  0  0  0  0  0  0  0  0
    8.2722  -13.7464   19.6339 C   0  0  2  0  0  0  0  0  0  0  0  0
    7.5614  -14.2216   18.4613 N   0  0  0  0  0  0  0  0  0  0  0  0
    7.6199  -14.2400   20.8837 C   0  0  0  0  0  0  0  0  0  0  0  0
    6.4246  -14.6325   20.8751 O   0  0  0  0  0  0  0  0  0  0  0  0
   11.8798  -17.0034   20.9749 N   0  0  0  0  0  0  0  0  0  0  0  0
   11.4697  -18.3262   21.2644 C   0  0  0  0  0  0  0  0  0  0  0  0
   11.6909  -19.3336   20.4542 N   0  0  0  0  0  0  0  0  0  0  0  0
   10.7790  -18.6711   22.4681 N   0  0  0  0  0  0  0  0  0  0  0  0
    9.3987  -18.3022   22.7207 C   0  0  0  0  0  0  0  0  0  0  0  0
    9.2412  -16.7981   22.8294 C   0  0  0  0  0  0  0  0  0  0  0  0
    7.8766  -16.3762   23.1780 C   0  0  0  0  0  0  0  0  0  0  0  0
    7.6626  -14.8903   23.3378 C   0  0  2  0  0  0  0  0  0  0  0  0
    8.3135  -14.2847   22.1112 N   0  0  0  0  0  0  0  0  0  0  0  0
    8.3242  -14.2891   24.4958 C   0  0  0  0  0  0  0  0  0  0  0  0
    9.5804  -14.6599   24.5970 O   0  0  0  0  0  0  0  0  0  0  0  0
   11.2355  -20.2308   20.7291 N   0  0  0  0  0  0  0  0  0  0  0  0
    7.8691  -13.4131   25.4795 C   0  0  0  0  0  0  0  0  0  0  0  0
    6.5197  -12.7920   25.3934 C   0  0  0  0  0  0  0  0  0  0  0  0
    6.1320  -12.7252   26.8794 C   0  0  0  0  0  0  0  0  0  0  0  0
    7.4025  -12.1106   27.4213 C   0  0  2  0  0  0  0  0  0  0  0  0
    8.4643  -12.9816   26.7025 C   0  0  0  0  0  0  0  0  0  0  0  0
    8.6419  -14.1536   27.6430 O   0  0  0  0  0  0  0  0  0  0  0  0
    8.0309  -15.2234   27.3931 O   0  0  0  0  0  0  0  0  0  0  0  0
  2  1  1  1
  2  3  1  0
  4  2  1  0
  4  5  2  0
  6  7  1  0
  7  9  1  0
  8  7  2  0
  9 10  1  0
 10 11  1  0
 11 12  1  0
 13 12  1  6
 13 14  1  0
 14  4  1  0
 15 13  1  0
 16 15  2  0
 17 15  1  0
 18 19  1  0
 18 17  1  0
 19 20  1  0
 20 21  1  0
 21 17  1  0
 21 22  1  1
 23 22  2  0
 24 22  1  0
M  END
$$$$
