RWN.pdb
     RDKit          3D

 34 35  0  0  1  0  0  0  0  0999 V2000
   27.1885  -16.8646  -16.1497 N   0  0  0  0  0  0  0  0  0  0  0  0
   28.2157  -16.6430  -17.1082 C   0  0  0  0  0  0  0  0  0  0  0  0
   28.5228  -15.4521  -17.4874 N   0  0  0  0  0  0  0  0  0  0  0  0
   28.9488  -17.7153  -17.6948 N   0  0  0  0  0  0  0  0  0  0  0  0
   28.9195  -19.0202  -17.0987 C   0  0  0  0  0  0  0  0  0  0  0  0
   27.5792  -19.5437  -16.7438 C   0  0  0  0  0  0  0  0  0  0  0  0
   27.4865  -20.8857  -16.1349 C   0  0  0  0  0  0  0  0  0  0  0  0
   27.9757  -20.9228  -14.7243 C   0  0  2  0  0  0  0  0  0  0  0  0
   29.1079  -21.8179  -14.6371 N   0  0  0  0  0  0  0  0  0  0  0  0
   26.8874  -21.3503  -13.7780 C   0  0  0  0  0  0  0  0  0  0  0  0
   26.2063  -22.3609  -14.0679 O   0  0  0  0  0  0  0  0  0  0  0  0
   29.2646  -15.3484  -18.2099 N   0  0  0  0  0  0  0  0  0  0  0  0
   26.6339  -20.6448  -12.6009 C   0  0  2  0  0  0  0  0  0  0  0  0
   25.6477  -20.9762  -11.5935 C   0  0  0  0  0  0  0  0  0  0  0  0
   25.9269  -20.2568  -10.2710 C   0  0  0  0  0  0  0  0  0  0  0  0
   27.2504  -20.6625   -9.7415 C   0  0  0  0  0  0  0  0  0  0  0  0
   28.2300  -21.4309  -10.3103 N   0  0  0  0  0  0  0  0  0  0  0  0
   29.2540  -21.5322   -9.4411 C   0  0  0  0  0  0  0  0  0  0  0  0
   28.9753  -20.8455   -8.3044 C   0  0  0  0  0  0  0  0  0  0  0  0
   29.6688  -20.6373   -7.1385 C   0  0  0  0  0  0  0  0  0  0  0  0
   29.1095  -19.8739   -6.1366 C   0  0  0  0  0  0  0  0  0  0  0  0
   27.8631  -19.3089   -6.2736 C   0  0  0  0  0  0  0  0  0  0  0  0
   27.1860  -19.5381   -7.4663 C   0  0  0  0  0  0  0  0  0  0  0  0
   27.7231  -20.2987   -8.4855 C   0  0  0  0  0  0  0  0  0  0  0  0
   24.2967  -20.6454  -12.0206 O   0  0  0  0  0  0  0  0  0  0  0  0
   24.0544  -19.5358  -12.6065 N   0  0  0  0  0  0  0  0  0  0  0  0
   19.8036  -20.8597  -15.0086 C   0  0  0  0  0  0  0  0  0  0  0  0
   19.9614  -21.6696  -13.8634 O   0  0  0  0  0  0  0  0  0  0  0  0
   18.9471  -22.0665  -13.2535 C   0  0  0  0  0  0  0  0  0  0  0  0
   21.2963  -22.0595  -13.3673 C   0  0  1  0  0  0  0  0  0  0  0  0
   21.8421  -21.0864  -12.3394 N   0  0  0  0  0  0  0  0  0  0  0  0
   23.1431  -21.4860  -11.8416 C   0  0  0  0  0  0  0  0  0  0  0  0
   20.8551  -20.9784  -11.2414 O   0  0  0  0  0  0  0  0  0  0  0  0
   21.0183  -21.6645  -10.2076 O   0  0  0  0  0  0  0  0  0  0  0  0
  2  3  2  0
  2  1  1  0
  4  2  1  0
  5  6  1  0
  5  4  1  0
  7  6  1  0
  8  9  1  6
  8  7  1  0
 10  8  1  0
 11 10  2  0
 12 10  1  0
 13 24  1  0
 13 12  1  0
 13 14  1  6
 15 14  1  0
 16 15  2  0
 17 18  1  0
 17 16  1  0
 18 23  2  0
 19 20  2  0
 19 18  1  0
 20 21  1  0
 21 22  2  0
 23 22  1  0
 23 15  1  0
 24 31  1  0
 25 24  2  0
 27 28  2  0
 27 26  1  0
 30 29  1  6
 29 27  1  0
 30 32  1  0
 31 30  1  0
 32 33  2  0
 32 34  1  0
M  END
$$$$
