RWN.pdb
     RDKit          3D

 34 35  0  0  1  0  0  0  0  0999 V2000
   29.5624  -25.7872  -18.3085 N   0  0  0  0  0  0  0  0  0  0  0  0
   28.1604  -25.9484  -18.4859 C   0  0  0  0  0  0  0  0  0  0  0  0
   27.6427  -27.1154  -18.6485 N   0  0  0  0  0  0  0  0  0  0  0  0
   27.2654  -24.8392  -18.4957 N   0  0  0  0  0  0  0  0  0  0  0  0
   27.6110  -23.6273  -17.8096 C   0  0  0  0  0  0  0  0  0  0  0  0
   28.4295  -23.7838  -16.5840 C   0  0  0  0  0  0  0  0  0  0  0  0
   27.8947  -23.2643  -15.3096 C   0  0  0  0  0  0  0  0  0  0  0  0
   26.7065  -22.3783  -15.4919 C   0  0  2  0  0  0  0  0  0  0  0  0
   27.1547  -21.0420  -15.8145 N   0  0  0  0  0  0  0  0  0  0  0  0
   25.8394  -22.3647  -14.2627 C   0  0  0  0  0  0  0  0  0  0  0  0
   25.3665  -23.4500  -13.8530 O   0  0  0  0  0  0  0  0  0  0  0  0
   26.6269  -27.1700  -18.8679 N   0  0  0  0  0  0  0  0  0  0  0  0
   25.5620  -21.1761  -13.5861 C   0  0  1  0  0  0  0  0  0  0  0  0
   24.7488  -21.0318  -12.3966 C   0  0  0  0  0  0  0  0  0  0  0  0
   25.3563  -20.0256  -11.4152 C   0  0  0  0  0  0  0  0  0  0  0  0
   26.6473  -20.5371  -10.8973 C   0  0  0  0  0  0  0  0  0  0  0  0
   27.7009  -21.1052  -11.5611 N   0  0  0  0  0  0  0  0  0  0  0  0
   28.6534  -21.4212  -10.6626 C   0  0  0  0  0  0  0  0  0  0  0  0
   28.2543  -21.0741   -9.4129 C   0  0  0  0  0  0  0  0  0  0  0  0
   28.8406  -21.1785   -8.1764 C   0  0  0  0  0  0  0  0  0  0  0  0
   28.1700  -20.7256   -7.0607 C   0  0  0  0  0  0  0  0  0  0  0  0
   26.9170  -20.1661   -7.1525 C   0  0  0  0  0  0  0  0  0  0  0  0
   26.3502  -20.0743   -8.4189 C   0  0  0  0  0  0  0  0  0  0  0  0
   26.9999  -20.5201   -9.5524 C   0  0  0  0  0  0  0  0  0  0  0  0
   23.3925  -20.6078  -12.7090 O   0  0  0  0  0  0  0  0  0  0  0  0
   23.1563  -19.9000  -13.7466 N   0  0  0  0  0  0  0  0  0  0  0  0
   18.6104  -21.9074  -13.9375 C   0  0  0  0  0  0  0  0  0  0  0  0
   19.7370  -22.7414  -14.1031 O   0  0  0  0  0  0  0  0  0  0  0  0
   19.6444  -23.7534  -14.8282 C   0  0  0  0  0  0  0  0  0  0  0  0
   21.0232  -22.4481  -13.4401 C   0  0  1  0  0  0  0  0  0  0  0  0
   20.9566  -21.2131  -12.5616 N   0  0  0  0  0  0  0  0  0  0  0  0
   22.2265  -20.9216  -11.9271 C   0  0  0  0  0  0  0  0  0  0  0  0
   19.8884  -21.4216  -11.5583 O   0  0  0  0  0  0  0  0  0  0  0  0
   20.0599  -22.2706  -10.6551 O   0  0  0  0  0  0  0  0  0  0  0  0
  2  3  2  0
  2  1  1  0
  4  2  1  0
  5  6  1  0
  5  4  1  0
  7  6  1  0
  8  9  1  1
  8  7  1  0
 10  8  1  0
 11 10  2  0
 12 10  1  0
 13 24  1  0
 13 12  1  0
 13 14  1  1
 15 14  1  0
 16 15  2  0
 17 18  1  0
 17 16  1  0
 18 23  2  0
 19 20  2  0
 19 18  1  0
 20 21  1  0
 21 22  2  0
 23 22  1  0
 23 15  1  0
 24 31  1  0
 25 24  2  0
 27 28  2  0
 27 26  1  0
 30 29  1  6
 29 27  1  0
 30 32  1  0
 31 30  1  0
 32 33  2  0
 32 34  1  0
M  END
$$$$
