RWN.pdb
     RDKit          3D

 34 35  0  0  1  0  0  0  0  0999 V2000
   31.1748  -25.5770  -16.6449 N   0  0  0  0  0  0  0  0  0  0  0  0
   30.3602  -26.1329  -17.6699 C   0  0  0  0  0  0  0  0  0  0  0  0
   30.5930  -27.3094  -18.1367 N   0  0  0  0  0  0  0  0  0  0  0  0
   29.2578  -25.4239  -18.2296 N   0  0  0  0  0  0  0  0  0  0  0  0
   28.6964  -24.2997  -17.5369 C   0  0  0  0  0  0  0  0  0  0  0  0
   28.4283  -24.4929  -16.0922 C   0  0  0  0  0  0  0  0  0  0  0  0
   27.0275  -24.4626  -15.6262 C   0  0  0  0  0  0  0  0  0  0  0  0
   26.4360  -23.0915  -15.6407 C   0  0  2  0  0  0  0  0  0  0  0  0
   27.5003  -22.1150  -15.7074 N   0  0  0  0  0  0  0  0  0  0  0  0
   25.5732  -22.8541  -14.4315 C   0  0  0  0  0  0  0  0  0  0  0  0
   24.8019  -23.7682  -14.0590 O   0  0  0  0  0  0  0  0  0  0  0  0
   30.0173  -27.6362  -18.9397 N   0  0  0  0  0  0  0  0  0  0  0  0
   25.6233  -21.6471  -13.7328 C   0  0  1  0  0  0  0  0  0  0  0  0
   24.9156  -21.3300  -12.5097 C   0  0  0  0  0  0  0  0  0  0  0  0
   25.5707  -20.1642  -11.7638 C   0  0  0  0  0  0  0  0  0  0  0  0
   26.8658  -20.5944  -11.1858 C   0  0  0  0  0  0  0  0  0  0  0  0
   27.9485  -21.1790  -11.7856 N   0  0  0  0  0  0  0  0  0  0  0  0
   28.8921  -21.3955  -10.8491 C   0  0  0  0  0  0  0  0  0  0  0  0
   28.4587  -20.9660   -9.6371 C   0  0  0  0  0  0  0  0  0  0  0  0
   29.0236  -20.9572   -8.3863 C   0  0  0  0  0  0  0  0  0  0  0  0
   28.3184  -20.4410   -7.3206 C   0  0  0  0  0  0  0  0  0  0  0  0
   27.0515  -19.9291   -7.4768 C   0  0  0  0  0  0  0  0  0  0  0  0
   26.5070  -19.9523   -8.7561 C   0  0  0  0  0  0  0  0  0  0  0  0
   27.1915  -20.4634   -9.8404 C   0  0  0  0  0  0  0  0  0  0  0  0
   23.5217  -20.9934  -12.7555 O   0  0  0  0  0  0  0  0  0  0  0  0
   23.2049  -20.1815  -13.6903 N   0  0  0  0  0  0  0  0  0  0  0  0
   18.3437  -20.7023  -12.9987 C   0  0  0  0  0  0  0  0  0  0  0  0
   18.6352  -21.7120  -12.0564 O   0  0  0  0  0  0  0  0  0  0  0  0
   17.6997  -22.3828  -11.5735 C   0  0  0  0  0  0  0  0  0  0  0  0
   20.0188  -21.9951  -11.6261 C   0  0  2  0  0  0  0  0  0  0  0  0
   21.0425  -21.1597  -12.3715 N   0  0  0  0  0  0  0  0  0  0  0  0
   22.4024  -21.5098  -12.0137 C   0  0  0  0  0  0  0  0  0  0  0  0
   20.7618  -19.7336  -12.0911 O   0  0  0  0  0  0  0  0  0  0  0  0
   21.2050  -19.2224  -11.0383 O   0  0  0  0  0  0  0  0  0  0  0  0
  2  3  2  0
  2  1  1  0
  4  2  1  0
  5  6  1  0
  5  4  1  0
  7  6  1  0
  8  9  1  1
  8  7  1  0
 10  8  1  0
 11 10  2  0
 12 10  1  0
 13 24  1  0
 13 12  1  0
 13 14  1  1
 15 14  1  0
 16 15  2  0
 17 18  1  0
 17 16  1  0
 18 23  2  0
 19 20  2  0
 19 18  1  0
 20 21  1  0
 21 22  2  0
 23 22  1  0
 23 15  1  0
 24 31  1  0
 25 24  2  0
 27 28  2  0
 27 26  1  0
 30 29  1  6
 29 27  1  0
 30 32  1  0
 31 30  1  0
 32 33  2  0
 32 34  1  0
M  END
$$$$
