RWN.pdb
     RDKit          3D

 34 35  0  0  1  0  0  0  0  0999 V2000
   27.1477  -18.0724  -18.9759 N   0  0  0  0  0  0  0  0  0  0  0  0
   28.4262  -18.4154  -19.4962 C   0  0  0  0  0  0  0  0  0  0  0  0
   28.7508  -18.1196  -20.7060 N   0  0  0  0  0  0  0  0  0  0  0  0
   29.4032  -19.0991  -18.7155 N   0  0  0  0  0  0  0  0  0  0  0  0
   29.0398  -19.6863  -17.4578 C   0  0  0  0  0  0  0  0  0  0  0  0
   27.8533  -20.5743  -17.4726 C   0  0  0  0  0  0  0  0  0  0  0  0
   27.0662  -20.7180  -16.2317 C   0  0  0  0  0  0  0  0  0  0  0  0
   27.7626  -21.5281  -15.1881 C   0  0  2  0  0  0  0  0  0  0  0  0
   28.0323  -22.8483  -15.7124 N   0  0  0  0  0  0  0  0  0  0  0  0
   26.9471  -21.6145  -13.9270 C   0  0  0  0  0  0  0  0  0  0  0  0
   25.7526  -21.9823  -14.0117 O   0  0  0  0  0  0  0  0  0  0  0  0
   29.7217  -18.3324  -21.0143 N   0  0  0  0  0  0  0  0  0  0  0  0
   27.4987  -21.2951  -12.6855 C   0  0  2  0  0  0  0  0  0  0  0  0
   26.8029  -21.2659  -11.4157 C   0  0  0  0  0  0  0  0  0  0  0  0
   27.7651  -21.0240  -10.2494 C   0  0  0  0  0  0  0  0  0  0  0  0
   27.0014  -20.7679   -9.0054 C   0  0  0  0  0  0  0  0  0  0  0  0
   25.6747  -20.9609   -8.7296 N   0  0  0  0  0  0  0  0  0  0  0  0
   25.4397  -20.5726   -7.4613 C   0  0  0  0  0  0  0  0  0  0  0  0
   26.5848  -20.1250   -6.8871 C   0  0  0  0  0  0  0  0  0  0  0  0
   26.8800  -19.6294   -5.6417 C   0  0  0  0  0  0  0  0  0  0  0  0
   28.1704  -19.2463   -5.3459 C   0  0  0  0  0  0  0  0  0  0  0  0
   29.1812  -19.3477   -6.2731 C   0  0  0  0  0  0  0  0  0  0  0  0
   28.8502  -19.8536   -7.5253 C   0  0  0  0  0  0  0  0  0  0  0  0
   27.5662  -20.2445   -7.8476 C   0  0  0  0  0  0  0  0  0  0  0  0
   25.7709  -20.2409  -11.3806 O   0  0  0  0  0  0  0  0  0  0  0  0
   26.0196  -19.0550  -11.7869 N   0  0  0  0  0  0  0  0  0  0  0  0
   22.3239  -18.1060  -14.2360 C   0  0  0  0  0  0  0  0  0  0  0  0
   22.3988  -19.4856  -13.9474 O   0  0  0  0  0  0  0  0  0  0  0  0
   21.4982  -20.2444  -14.3617 C   0  0  0  0  0  0  0  0  0  0  0  0
   23.5152  -20.0552  -13.1670 C   0  0  1  0  0  0  0  0  0  0  0  0
   23.2898  -19.9545  -11.6702 N   0  0  0  0  0  0  0  0  0  0  0  0
   24.4256  -20.4370  -10.9102 C   0  0  0  0  0  0  0  0  0  0  0  0
   22.0605  -20.7102  -11.3401 O   0  0  0  0  0  0  0  0  0  0  0  0
   22.0818  -21.9602  -11.3965 O   0  0  0  0  0  0  0  0  0  0  0  0
  2  3  2  0
  2  1  1  0
  4  2  1  0
  5  6  1  0
  5  4  1  0
  7  6  1  0
  8  9  1  6
  8  7  1  0
 10  8  1  0
 11 10  2  0
 12 10  1  0
 13 24  1  0
 13 12  1  0
 13 14  1  1
 15 14  1  0
 16 15  2  0
 17 18  1  0
 17 16  1  0
 18 23  2  0
 19 20  2  0
 19 18  1  0
 20 21  1  0
 21 22  2  0
 23 22  1  0
 23 15  1  0
 24 31  1  0
 25 24  2  0
 27 28  2  0
 27 26  1  0
 30 29  1  6
 29 27  1  0
 30 32  1  0
 31 30  1  0
 32 33  2  0
 32 34  1  0
M  END
$$$$
