RWN.pdb
     RDKit          3D

 34 35  0  0  1  0  0  0  0  0999 V2000
   31.2375  -24.9615  -15.5349 N   0  0  0  0  0  0  0  0  0  0  0  0
   31.4862  -24.5913  -16.8855 C   0  0  0  0  0  0  0  0  0  0  0  0
   32.6091  -24.8647  -17.4519 N   0  0  0  0  0  0  0  0  0  0  0  0
   30.5176  -23.9036  -17.6732 N   0  0  0  0  0  0  0  0  0  0  0  0
   29.4165  -23.2352  -17.0411 C   0  0  0  0  0  0  0  0  0  0  0  0
   29.7653  -22.2957  -15.9493 C   0  0  0  0  0  0  0  0  0  0  0  0
   28.9987  -22.3652  -14.6892 C   0  0  0  0  0  0  0  0  0  0  0  0
   27.7271  -21.5834  -14.7345 C   0  0  2  0  0  0  0  0  0  0  0  0
   28.0357  -20.1846  -14.9311 N   0  0  0  0  0  0  0  0  0  0  0  0
   26.9197  -21.7773  -13.4801 C   0  0  0  0  0  0  0  0  0  0  0  0
   26.6638  -22.9461  -13.1089 O   0  0  0  0  0  0  0  0  0  0  0  0
   32.7102  -24.6413  -18.4633 N   0  0  0  0  0  0  0  0  0  0  0  0
   26.4617  -20.6872  -12.7389 C   0  0  1  0  0  0  0  0  0  0  0  0
   25.6642  -20.7409  -11.5312 C   0  0  0  0  0  0  0  0  0  0  0  0
   26.2386  -19.8403  -10.4342 C   0  0  0  0  0  0  0  0  0  0  0  0
   27.4554  -20.4576   -9.8553 C   0  0  0  0  0  0  0  0  0  0  0  0
   28.4154  -21.2352  -10.4446 N   0  0  0  0  0  0  0  0  0  0  0  0
   29.3274  -21.5705   -9.5118 C   0  0  0  0  0  0  0  0  0  0  0  0
   28.9932  -21.0308   -8.3124 C   0  0  0  0  0  0  0  0  0  0  0  0
   29.5747  -21.0697   -7.0698 C   0  0  0  0  0  0  0  0  0  0  0  0
   28.9841  -20.4049   -6.0169 C   0  0  0  0  0  0  0  0  0  0  0  0
   27.8165  -19.6962   -6.1778 C   0  0  0  0  0  0  0  0  0  0  0  0
   27.2522  -19.6759   -7.4486 C   0  0  0  0  0  0  0  0  0  0  0  0
   27.8228  -20.3330   -8.5201 C   0  0  0  0  0  0  0  0  0  0  0  0
   24.2829  -20.3511  -11.7697 O   0  0  0  0  0  0  0  0  0  0  0  0
   24.0116  -19.3239  -12.4800 N   0  0  0  0  0  0  0  0  0  0  0  0
   19.4447  -21.0012  -13.3872 C   0  0  0  0  0  0  0  0  0  0  0  0
   20.4427  -21.9272  -13.7600 O   0  0  0  0  0  0  0  0  0  0  0  0
   20.2120  -22.7314  -14.6864 C   0  0  0  0  0  0  0  0  0  0  0  0
   21.7534  -21.9697  -13.0816 C   0  0  1  0  0  0  0  0  0  0  0  0
   21.8525  -20.9709  -11.9441 N   0  0  0  0  0  0  0  0  0  0  0  0
   23.1284  -21.0420  -11.2606 C   0  0  0  0  0  0  0  0  0  0  0  0
   20.7285  -21.2225  -11.0142 O   0  0  0  0  0  0  0  0  0  0  0  0
   20.8698  -22.0710  -10.1052 O   0  0  0  0  0  0  0  0  0  0  0  0
  2  3  2  0
  2  1  1  0
  4  2  1  0
  5  6  1  0
  5  4  1  0
  7  6  1  0
  8  9  1  1
  8  7  1  0
 10  8  1  0
 11 10  2  0
 12 10  1  0
 13 24  1  0
 13 12  1  0
 13 14  1  1
 15 14  1  0
 16 15  2  0
 17 18  1  0
 17 16  1  0
 18 23  2  0
 19 20  2  0
 19 18  1  0
 20 21  1  0
 21 22  2  0
 23 22  1  0
 23 15  1  0
 24 31  1  0
 25 24  2  0
 27 28  2  0
 27 26  1  0
 30 29  1  6
 29 27  1  0
 30 32  1  0
 31 30  1  0
 32 33  2  0
 32 34  1  0
M  END
$$$$
