RWN.pdb
     RDKit          3D

 34 35  0  0  1  0  0  0  0  0999 V2000
   26.7779  -16.7474  -16.1844 N   0  0  0  0  0  0  0  0  0  0  0  0
   27.9229  -16.7200  -17.0276 C   0  0  0  0  0  0  0  0  0  0  0  0
   28.0288  -15.8541  -17.9739 N   0  0  0  0  0  0  0  0  0  0  0  0
   29.0000  -17.6406  -16.8730 N   0  0  0  0  0  0  0  0  0  0  0  0
   28.7679  -18.9312  -16.2904 C   0  0  0  0  0  0  0  0  0  0  0  0
   28.1006  -19.9279  -17.1608 C   0  0  0  0  0  0  0  0  0  0  0  0
   27.5276  -21.1366  -16.5357 C   0  0  0  0  0  0  0  0  0  0  0  0
   28.3305  -21.6331  -15.3785 C   0  0  2  0  0  0  0  0  0  0  0  0
   28.9063  -22.9160  -15.7147 N   0  0  0  0  0  0  0  0  0  0  0  0
   27.4916  -21.7378  -14.1343 C   0  0  0  0  0  0  0  0  0  0  0  0
   26.3931  -22.3360  -14.2028 O   0  0  0  0  0  0  0  0  0  0  0  0
   28.9034  -15.8551  -18.5378 N   0  0  0  0  0  0  0  0  0  0  0  0
   27.9179  -21.1852  -12.9257 C   0  0  2  0  0  0  0  0  0  0  0  0
   27.1521  -21.1012  -11.6995 C   0  0  0  0  0  0  0  0  0  0  0  0
   27.8243  -20.1827  -10.6752 C   0  0  0  0  0  0  0  0  0  0  0  0
   27.0570  -20.1883   -9.4072 C   0  0  0  0  0  0  0  0  0  0  0  0
   25.7048  -20.1910   -9.1946 N   0  0  0  0  0  0  0  0  0  0  0  0
   25.4798  -20.1868   -7.8666 C   0  0  0  0  0  0  0  0  0  0  0  0
   26.6564  -20.1816   -7.1906 C   0  0  0  0  0  0  0  0  0  0  0  0
   26.9727  -20.1760   -5.8550 C   0  0  0  0  0  0  0  0  0  0  0  0
   28.2945  -20.1711   -5.4649 C   0  0  0  0  0  0  0  0  0  0  0  0
   29.3162  -20.1719   -6.3856 C   0  0  0  0  0  0  0  0  0  0  0  0
   28.9632  -20.1778   -7.7306 C   0  0  0  0  0  0  0  0  0  0  0  0
   27.6476  -20.1827   -8.1484 C   0  0  0  0  0  0  0  0  0  0  0  0
   25.7990  -20.6193  -11.9312 O   0  0  0  0  0  0  0  0  0  0  0  0
   25.5979  -19.4396  -12.3800 N   0  0  0  0  0  0  0  0  0  0  0  0
   20.6910  -20.1489  -12.8344 C   0  0  0  0  0  0  0  0  0  0  0  0
   21.1805  -21.3909  -13.2928 O   0  0  0  0  0  0  0  0  0  0  0  0
   20.4560  -22.0998  -14.0214 C   0  0  0  0  0  0  0  0  0  0  0  0
   22.5283  -21.8742  -12.9322 C   0  0  1  0  0  0  0  0  0  0  0  0
   23.3030  -20.8701  -12.0997 N   0  0  0  0  0  0  0  0  0  0  0  0
   24.5989  -21.3764  -11.6945 C   0  0  0  0  0  0  0  0  0  0  0  0
   22.4743  -20.5108  -10.9270 O   0  0  0  0  0  0  0  0  0  0  0  0
   21.5082  -19.7304  -11.0814 O   0  0  0  0  0  0  0  0  0  0  0  0
  2  3  2  0
  2  1  1  0
  4  2  1  0
  5  6  1  0
  5  4  1  0
  7  6  1  0
  8  9  1  6
  8  7  1  0
 10  8  1  0
 11 10  2  0
 12 10  1  0
 13 24  1  0
 13 12  1  0
 13 14  1  1
 15 14  1  0
 16 15  2  0
 17 18  1  0
 17 16  1  0
 18 23  2  0
 19 20  2  0
 19 18  1  0
 20 21  1  0
 21 22  2  0
 23 22  1  0
 23 15  1  0
 24 31  1  0
 25 24  2  0
 27 28  2  0
 27 26  1  0
 30 29  1  6
 29 27  1  0
 30 32  1  0
 31 30  1  0
 32 33  2  0
 32 34  1  0
M  END
$$$$
