RWN.pdb
     RDKit          3D

 34 35  0  0  1  0  0  0  0  0999 V2000
   28.4898  -19.8602  -19.9794 N   0  0  0  0  0  0  0  0  0  0  0  0
   29.6048  -19.9004  -19.0973 C   0  0  0  0  0  0  0  0  0  0  0  0
   30.7023  -19.2943  -19.3880 N   0  0  0  0  0  0  0  0  0  0  0  0
   29.5675  -20.6080  -17.8607 N   0  0  0  0  0  0  0  0  0  0  0  0
   28.3902  -21.3352  -17.4808 C   0  0  0  0  0  0  0  0  0  0  0  0
   27.2136  -20.5173  -17.1029 C   0  0  0  0  0  0  0  0  0  0  0  0
   26.3763  -20.9684  -15.9734 C   0  0  0  0  0  0  0  0  0  0  0  0
   27.1718  -21.5539  -14.8533 C   0  0  2  0  0  0  0  0  0  0  0  0
   27.7222  -22.8231  -15.2735 N   0  0  0  0  0  0  0  0  0  0  0  0
   26.3334  -21.7228  -13.6158 C   0  0  0  0  0  0  0  0  0  0  0  0
   25.6014  -22.7352  -13.5235 O   0  0  0  0  0  0  0  0  0  0  0  0
   31.4776  -19.3341  -18.6950 N   0  0  0  0  0  0  0  0  0  0  0  0
   26.3630  -20.7797  -12.5875 C   0  0  2  0  0  0  0  0  0  0  0  0
   25.5282  -20.7691  -11.4042 C   0  0  0  0  0  0  0  0  0  0  0  0
   26.1070  -19.8650  -10.3124 C   0  0  0  0  0  0  0  0  0  0  0  0
   27.3504  -20.4590   -9.7670 C   0  0  0  0  0  0  0  0  0  0  0  0
   28.2669  -21.2850  -10.3597 N   0  0  0  0  0  0  0  0  0  0  0  0
   29.2297  -21.5711   -9.4622 C   0  0  0  0  0  0  0  0  0  0  0  0
   28.9721  -20.9510   -8.2830 C   0  0  0  0  0  0  0  0  0  0  0  0
   29.6260  -20.9170   -7.0768 C   0  0  0  0  0  0  0  0  0  0  0  0
   29.1049  -20.1783   -6.0365 C   0  0  0  0  0  0  0  0  0  0  0  0
   27.9360  -19.4668   -6.1744 C   0  0  0  0  0  0  0  0  0  0  0  0
   27.2975  -19.5213   -7.4085 C   0  0  0  0  0  0  0  0  0  0  0  0
   27.7976  -20.2532   -8.4666 C   0  0  0  0  0  0  0  0  0  0  0  0
   24.1723  -20.3289  -11.6949 O   0  0  0  0  0  0  0  0  0  0  0  0
   23.9591  -19.4077  -12.5547 N   0  0  0  0  0  0  0  0  0  0  0  0
   19.3371  -20.8766  -13.2715 C   0  0  0  0  0  0  0  0  0  0  0  0
   20.3810  -21.7403  -13.6673 O   0  0  0  0  0  0  0  0  0  0  0  0
   20.2140  -22.4850  -14.6551 C   0  0  0  0  0  0  0  0  0  0  0  0
   21.6664  -21.7861  -12.9424 C   0  0  2  0  0  0  0  0  0  0  0  0
   21.7083  -20.8234  -11.7707 N   0  0  0  0  0  0  0  0  0  0  0  0
   22.9822  -20.8538  -11.0804 C   0  0  0  0  0  0  0  0  0  0  0  0
   20.5931  -21.1630  -10.8585 O   0  0  0  0  0  0  0  0  0  0  0  0
   19.4314  -20.8089  -11.1605 O   0  0  0  0  0  0  0  0  0  0  0  0
  2  3  2  0
  2  1  1  0
  4  2  1  0
  5  6  1  0
  5  4  1  0
  7  6  1  0
  8  9  1  6
  8  7  1  0
 10  8  1  0
 11 10  2  0
 12 10  1  0
 13 24  1  0
 13 12  1  0
 13 14  1  1
 15 14  1  0
 16 15  2  0
 17 18  1  0
 17 16  1  0
 18 23  2  0
 19 20  2  0
 19 18  1  0
 20 21  1  0
 21 22  2  0
 23 22  1  0
 23 15  1  0
 24 31  1  0
 25 24  2  0
 27 28  2  0
 27 26  1  0
 30 29  1  6
 29 27  1  0
 30 32  1  0
 31 30  1  0
 32 33  2  0
 32 34  1  0
M  END
$$$$
