RWN.pdb
     RDKit          3D

 34 35  0  0  1  0  0  0  0  0999 V2000
   24.0981  -16.7841  -17.8531 N   0  0  0  0  0  0  0  0  0  0  0  0
   23.9271  -18.0912  -18.3871 C   0  0  0  0  0  0  0  0  0  0  0  0
   24.5475  -18.4581  -19.4534 N   0  0  0  0  0  0  0  0  0  0  0  0
   23.0678  -19.0518  -17.7786 N   0  0  0  0  0  0  0  0  0  0  0  0
   23.3221  -19.5018  -16.4401 C   0  0  0  0  0  0  0  0  0  0  0  0
   24.7203  -19.8893  -16.1382 C   0  0  0  0  0  0  0  0  0  0  0  0
   25.0051  -20.5481  -14.8478 C   0  0  0  0  0  0  0  0  0  0  0  0
   24.3738  -19.8548  -13.6854 C   0  0  2  0  0  0  0  0  0  0  0  0
   24.8057  -18.4751  -13.6628 N   0  0  0  0  0  0  0  0  0  0  0  0
   24.7137  -20.5383  -12.3892 C   0  0  0  0  0  0  0  0  0  0  0  0
   24.5264  -21.7736  -12.2980 O   0  0  0  0  0  0  0  0  0  0  0  0
   24.2997  -19.3805  -19.8665 N   0  0  0  0  0  0  0  0  0  0  0  0
   25.2270  -19.8225  -11.3067 C   0  0  1  0  0  0  0  0  0  0  0  0
   25.5632  -20.3559  -10.0030 C   0  0  0  0  0  0  0  0  0  0  0  0
   26.5338  -19.4409   -9.2512 C   0  0  0  0  0  0  0  0  0  0  0  0
   27.2804  -20.2184   -8.2340 C   0  0  0  0  0  0  0  0  0  0  0  0
   27.7023  -21.5204   -8.2540 N   0  0  0  0  0  0  0  0  0  0  0  0
   28.3360  -21.7834   -7.0948 C   0  0  0  0  0  0  0  0  0  0  0  0
   28.3445  -20.6812   -6.3033 C   0  0  0  0  0  0  0  0  0  0  0  0
   28.8496  -20.4262   -5.0529 C   0  0  0  0  0  0  0  0  0  0  0  0
   28.6978  -19.1749   -4.4957 C   0  0  0  0  0  0  0  0  0  0  0  0
   28.0478  -18.1639   -5.1642 C   0  0  0  0  0  0  0  0  0  0  0  0
   27.5476  -18.4536   -6.4288 C   0  0  0  0  0  0  0  0  0  0  0  0
   27.6857  -19.6980   -7.0100 C   0  0  0  0  0  0  0  0  0  0  0  0
   24.3849  -20.5571   -9.1735 O   0  0  0  0  0  0  0  0  0  0  0  0
   23.5869  -19.5882   -8.9333 N   0  0  0  0  0  0  0  0  0  0  0  0
   20.4805  -22.3420   -6.2565 C   0  0  0  0  0  0  0  0  0  0  0  0
   21.3654  -23.4297   -6.4189 O   0  0  0  0  0  0  0  0  0  0  0  0
   21.0655  -24.5375   -5.9277 C   0  0  0  0  0  0  0  0  0  0  0  0
   22.6378  -23.2911   -7.1549 C   0  0  2  0  0  0  0  0  0  0  0  0
   22.8459  -21.8901   -7.6984 N   0  0  0  0  0  0  0  0  0  0  0  0
   24.0053  -21.8034   -8.5635 C   0  0  0  0  0  0  0  0  0  0  0  0
   22.9615  -20.9651   -6.5485 O   0  0  0  0  0  0  0  0  0  0  0  0
   21.9370  -20.6890   -5.8851 O   0  0  0  0  0  0  0  0  0  0  0  0
  2  3  2  0
  2  1  1  0
  4  2  1  0
  5  6  1  0
  5  4  1  0
  7  6  1  0
  8  9  1  1
  8  7  1  0
 10  8  1  0
 11 10  2  0
 12 10  1  0
 13 24  1  0
 13 12  1  0
 13 14  1  6
 15 14  1  0
 16 15  2  0
 17 18  1  0
 17 16  1  0
 18 23  2  0
 19 20  2  0
 19 18  1  0
 20 21  1  0
 21 22  2  0
 23 22  1  0
 23 15  1  0
 24 31  1  0
 25 24  2  0
 27 28  2  0
 27 26  1  0
 30 29  1  6
 29 27  1  0
 30 32  1  0
 31 30  1  0
 32 33  2  0
 32 34  1  0
M  END
$$$$
