VCV.pdb
     RDKit          3D

 21 20  0  0  1  0  0  0  0  0999 V2000
    8.2717  -13.2956   17.9725 C   0  0  0  0  0  0  0  0  0  0  0  0
    7.6716  -13.7276   19.2729 C   0  0  2  0  0  0  0  0  0  0  0  0
    8.1598  -12.8359   20.3655 C   0  0  0  0  0  0  0  0  0  0  0  0
    7.8931  -15.1918   19.5662 C   0  0  2  0  0  0  0  0  0  0  0  0
    7.3740  -15.9485   18.4677 N   0  0  0  0  0  0  0  0  0  0  0  0
    7.3373  -15.5953   20.8711 C   0  0  0  0  0  0  0  0  0  0  0  0
    6.0625  -15.6490   20.9399 O   0  0  0  0  0  0  0  0  0  0  0  0
    8.1364  -15.9105   21.9979 N   0  0  0  0  0  0  0  0  0  0  0  0
    7.4469  -16.2056   23.2546 C   0  0  1  0  0  0  0  0  0  0  0  0
    7.9119  -17.6294   23.5982 C   0  0  0  0  0  0  0  0  0  0  0  0
    7.3308  -18.0644   25.2432 S   0  0  0  0  0  0  0  0  0  0  0  0
    7.8955  -15.3127   24.3290 C   0  0  0  0  0  0  0  0  0  0  0  0
    9.1570  -15.2195   24.5219 O   0  0  0  0  0  0  0  0  0  0  0  0
    7.0758  -11.7926   27.7858 C   0  0  0  0  0  0  0  0  0  0  0  0
    6.5427  -12.7921   26.8135 C   0  0  1  0  0  0  0  0  0  0  0  0
    5.7417  -12.0930   25.7633 C   0  0  0  0  0  0  0  0  0  0  0  0
    7.6207  -13.6801   26.2320 C   0  0  2  0  0  0  0  0  0  0  0  0
    7.1017  -14.5350   25.1833 N   0  0  0  0  0  0  0  0  0  0  0  0
    8.1758  -14.5401   27.2899 C   0  0  0  0  0  0  0  0  0  0  0  0
    9.3642  -14.2197   27.9138 O   0  0  0  0  0  0  0  0  0  0  0  0
    7.5750  -15.5741   27.6365 O   0  0  0  0  0  0  0  0  0  0  0  0
  2  3  1  1
  2  1  1  0
  4  6  1  0
  4  2  1  0
  4  5  1  6
  6  8  1  0
  7  6  2  0
  8  9  1  0
  9 12  1  0
 10 11  1  0
  9 10  1  1
 12 18  1  0
 12 13  2  0
 15 14  1  1
 16 15  1  0
 17 15  1  0
 17 19  1  0
 17 18  1  6
 19 20  1  0
 21 19  2  0
M  END
$$$$
