VCV.pdb
     RDKit          3D

 21 20  0  0  1  0  0  0  0  0999 V2000
    8.2933  -12.9547   17.7444 C   0  0  0  0  0  0  0  0  0  0  0  0
    7.7458  -13.5469   19.0043 C   0  0  2  0  0  0  0  0  0  0  0  0
    8.0737  -12.6553   20.1553 C   0  0  0  0  0  0  0  0  0  0  0  0
    8.1848  -14.9746   19.2233 C   0  0  2  0  0  0  0  0  0  0  0  0
    7.7595  -15.7480   18.0964 N   0  0  0  0  0  0  0  0  0  0  0  0
    7.7206  -15.5150   20.5145 C   0  0  0  0  0  0  0  0  0  0  0  0
    6.7320  -16.3224   20.4562 O   0  0  0  0  0  0  0  0  0  0  0  0
    8.3100  -15.1817   21.7591 N   0  0  0  0  0  0  0  0  0  0  0  0
    7.6760  -15.7062   22.9694 C   0  0  1  0  0  0  0  0  0  0  0  0
    8.0434  -17.1983   22.9544 C   0  0  0  0  0  0  0  0  0  0  0  0
    9.8325  -17.3701   22.9078 S   0  0  0  0  0  0  0  0  0  0  0  0
    8.2600  -15.1098   24.1760 C   0  0  0  0  0  0  0  0  0  0  0  0
    9.5032  -14.8097   24.1358 O   0  0  0  0  0  0  0  0  0  0  0  0
    7.3338  -11.8275   27.6834 C   0  0  0  0  0  0  0  0  0  0  0  0
    6.9256  -12.8610   26.6865 C   0  0  1  0  0  0  0  0  0  0  0  0
    6.3245  -12.1956   25.4910 C   0  0  0  0  0  0  0  0  0  0  0  0
    8.0499  -13.8066   26.3255 C   0  0  2  0  0  0  0  0  0  0  0  0
    7.6150  -14.8213   25.3867 N   0  0  0  0  0  0  0  0  0  0  0  0
    8.5338  -14.4844   27.5393 C   0  0  0  0  0  0  0  0  0  0  0  0
    9.4418  -13.8725   28.3792 O   0  0  0  0  0  0  0  0  0  0  0  0
    8.1266  -15.6259   27.8242 O   0  0  0  0  0  0  0  0  0  0  0  0
  2  3  1  1
  2  1  1  0
  4  6  1  0
  4  2  1  0
  4  5  1  6
  6  8  1  0
  7  6  2  0
  8  9  1  0
  9 12  1  0
 10 11  1  0
  9 10  1  1
 12 18  1  0
 12 13  2  0
 15 14  1  1
 16 15  1  0
 17 15  1  0
 17 19  1  0
 17 18  1  6
 19 20  1  0
 21 19  2  0
M  END
$$$$
