VCV.pdb
     RDKit          3D

 21 20  0  0  1  0  0  0  0  0999 V2000
    8.1406  -13.4499   17.8945 C   0  0  0  0  0  0  0  0  0  0  0  0
    7.6261  -13.8229   19.2487 C   0  0  2  0  0  0  0  0  0  0  0  0
    8.0330  -12.7825   20.2382 C   0  0  0  0  0  0  0  0  0  0  0  0
    8.0237  -15.2182   19.6660 C   0  0  2  0  0  0  0  0  0  0  0  0
    7.6098  -16.1243   18.6382 N   0  0  0  0  0  0  0  0  0  0  0  0
    7.5120  -15.5739   21.0026 C   0  0  0  0  0  0  0  0  0  0  0  0
    6.6133  -16.4817   21.0304 O   0  0  0  0  0  0  0  0  0  0  0  0
    7.9655  -14.9679   22.2004 N   0  0  0  0  0  0  0  0  0  0  0  0
    7.5350  -15.5651   23.4652 C   0  0  1  0  0  0  0  0  0  0  0  0
    8.1244  -16.9835   23.4163 C   0  0  0  0  0  0  0  0  0  0  0  0
    7.8502  -17.7966   24.9963 S   0  0  0  0  0  0  0  0  0  0  0  0
    8.1300  -14.8684   24.6112 C   0  0  0  0  0  0  0  0  0  0  0  0
    9.4037  -14.7465   24.6232 O   0  0  0  0  0  0  0  0  0  0  0  0
    6.6960  -11.3820   25.9425 C   0  0  0  0  0  0  0  0  0  0  0  0
    7.0753  -12.2985   27.0582 C   0  0  1  0  0  0  0  0  0  0  0  0
    5.8422  -12.8686   27.6808 C   0  0  0  0  0  0  0  0  0  0  0  0
    8.0624  -13.3639   26.6347 C   0  0  2  0  0  0  0  0  0  0  0  0
    7.4663  -14.3090   25.7119 N   0  0  0  0  0  0  0  0  0  0  0  0
    8.5227  -14.1088   27.8180 C   0  0  0  0  0  0  0  0  0  0  0  0
    9.3425  -13.5146   28.7555 O   0  0  0  0  0  0  0  0  0  0  0  0
    8.1750  -15.2922   27.9877 O   0  0  0  0  0  0  0  0  0  0  0  0
  2  3  1  1
  2  1  1  0
  4  6  1  0
  4  2  1  0
  4  5  1  6
  6  8  1  0
  7  6  2  0
  8  9  1  0
  9 12  1  0
 10 11  1  0
  9 10  1  6
 12 18  1  0
 12 13  2  0
 15 14  1  6
 16 15  1  0
 17 15  1  0
 17 19  1  0
 17 18  1  6
 19 20  1  0
 21 19  2  0
M  END
$$$$
