LGI.pdb
     RDKit          3D

 21 20  0  0  1  0  0  0  0  0999 V2000
   21.7314  -19.7592  -16.4703 C   0  0  0  0  0  0  0  0  0  0  0  0
   21.4614  -19.8424  -14.9828 C   0  0  2  0  0  0  0  0  0  0  0  0
   20.3139  -18.9291  -14.5979 C   0  0  0  0  0  0  0  0  0  0  0  0
   22.7322  -19.4337  -14.2435 C   0  0  0  0  0  0  0  0  0  0  0  0
   23.8905  -19.8640  -15.1210 C   0  0  2  0  0  0  0  0  0  0  0  0
   23.7030  -21.2558  -15.4583 N   0  0  0  0  0  0  0  0  0  0  0  0
   25.1510  -19.6448  -14.3930 C   0  0  0  0  0  0  0  0  0  0  0  0
   25.4464  -18.5103  -13.9531 O   0  0  0  0  0  0  0  0  0  0  0  0
   26.0288  -20.7422  -14.1970 N   0  0  0  0  0  0  0  0  0  0  0  0
   27.2721  -20.6350  -13.4694 C   0  0  0  0  0  0  0  0  0  0  0  0
   27.0468  -21.1570  -12.0992 C   0  0  0  0  0  0  0  0  0  0  0  0
   27.5688  -22.2341  -11.7217 O   0  0  0  0  0  0  0  0  0  0  0  0
   27.4928  -20.0276   -6.4539 C   0  0  0  0  0  0  0  0  0  0  0  0
   26.6340  -20.7282   -7.4929 C   0  0  0  0  0  0  0  0  0  0  0  0
   26.7760  -20.1092   -8.8472 C   0  0  2  0  0  0  0  0  0  0  0  0
   26.5782  -18.6274   -8.8486 C   0  0  0  0  0  0  0  0  0  0  0  0
   25.9942  -20.8762   -9.8562 C   0  0  2  0  0  0  0  0  0  0  0  0
   26.2279  -20.4177  -11.2148 N   0  0  0  0  0  0  0  0  0  0  0  0
   24.5376  -20.9778   -9.5711 C   0  0  0  0  0  0  0  0  0  0  0  0
   23.5867  -20.4914  -10.4930 O   0  0  0  0  0  0  0  0  0  0  0  0
   24.0486  -21.4820   -8.5332 O   0  0  0  0  0  0  0  0  0  0  0  0
  2  4  1  0
  2  1  1  6
  3  2  1  0
  5  7  1  0
  5  4  1  0
  5  6  1  1
  7  9  1  0
  8  7  2  0
  9 10  1  0
 10 11  1  0
 11 12  2  0
 11 18  1  0
 14 13  1  0
 15 16  1  1
 15 14  1  0
 17 15  1  0
 17 18  1  6
 19 20  1  0
 19 17  1  0
 21 19  2  0
M  END
$$$$
