LGI.pdb
     RDKit          3D

 21 20  0  0  1  0  0  0  0  0999 V2000
   22.0562  -18.9014  -13.9757 C   0  0  0  0  0  0  0  0  0  0  0  0
   22.1446  -20.4102  -13.8833 C   0  0  2  0  0  0  0  0  0  0  0  0
   20.9106  -21.0538  -14.4849 C   0  0  0  0  0  0  0  0  0  0  0  0
   22.2745  -20.7914  -12.4114 C   0  0  0  0  0  0  0  0  0  0  0  0
   23.6162  -20.2571  -11.9517 C   0  0  2  0  0  0  0  0  0  0  0  0
   24.6289  -20.7577  -12.8515 N   0  0  0  0  0  0  0  0  0  0  0  0
   23.8559  -20.6913  -10.5657 C   0  0  0  0  0  0  0  0  0  0  0  0
   23.0263  -20.4362   -9.6631 O   0  0  0  0  0  0  0  0  0  0  0  0
   25.0451  -21.4056  -10.2674 N   0  0  0  0  0  0  0  0  0  0  0  0
   25.4213  -21.7812   -8.9243 C   0  0  0  0  0  0  0  0  0  0  0  0
   26.0569  -20.6049   -8.2814 C   0  0  0  0  0  0  0  0  0  0  0  0
   25.7925  -19.4377   -8.6594 O   0  0  0  0  0  0  0  0  0  0  0  0
   28.0489  -21.2621   -3.1670 C   0  0  0  0  0  0  0  0  0  0  0  0
   27.3809  -20.7530   -4.4330 C   0  0  0  0  0  0  0  0  0  0  0  0
   28.3520  -20.0712   -5.3438 C   0  0  2  0  0  0  0  0  0  0  0  0
   29.1363  -18.9883   -4.6751 C   0  0  0  0  0  0  0  0  0  0  0  0
   27.6943  -19.7067   -6.6291 C   0  0  2  0  0  0  0  0  0  0  0  0
   26.9739  -20.8180   -7.2264 N   0  0  0  0  0  0  0  0  0  0  0  0
   28.5877  -19.0543   -7.6240 C   0  0  0  0  0  0  0  0  0  0  0  0
   28.8169  -17.6627   -7.5840 O   0  0  0  0  0  0  0  0  0  0  0  0
   29.1886  -19.6564   -8.5442 O   0  0  0  0  0  0  0  0  0  0  0  0
  2  4  1  0
  2  1  1  1
  3  2  1  0
  5  7  1  0
  5  4  1  0
  5  6  1  6
  7  9  1  0
  8  7  2  0
  9 10  1  0
 10 11  1  0
 11 12  2  0
 11 18  1  0
 14 13  1  0
 15 16  1  1
 15 14  1  0
 17 15  1  0
 17 18  1  6
 19 20  1  0
 19 17  1  0
 21 19  2  0
M  END
$$$$
