LGI.pdb
     RDKit          3D

 21 20  0  0  1  0  0  0  0  0999 V2000
   13.9978  -11.9333  -15.6299 C   0  0  0  0  0  0  0  0  0  0  0  0
   15.0656  -12.9803  -15.3930 C   0  0  2  0  0  0  0  0  0  0  0  0
   14.4676  -14.3726  -15.4466 C   0  0  0  0  0  0  0  0  0  0  0  0
   15.6883  -12.7256  -14.0234 C   0  0  0  0  0  0  0  0  0  0  0  0
   16.0018  -11.2438  -13.9689 C   0  0  2  0  0  0  0  0  0  0  0  0
   17.3592  -11.0569  -14.4257 N   0  0  0  0  0  0  0  0  0  0  0  0
   15.8206  -10.7656  -12.5885 C   0  0  0  0  0  0  0  0  0  0  0  0
   14.7100  -10.8632  -12.0185 O   0  0  0  0  0  0  0  0  0  0  0  0
   16.9273  -10.1907  -11.9118 N   0  0  0  0  0  0  0  0  0  0  0  0
   16.8715   -9.7651  -10.5325 C   0  0  0  0  0  0  0  0  0  0  0  0
   16.1733   -8.4570  -10.4853 C   0  0  0  0  0  0  0  0  0  0  0  0
   16.1052   -7.7214  -11.4999 O   0  0  0  0  0  0  0  0  0  0  0  0
   12.0348   -7.9075   -7.1724 C   0  0  0  0  0  0  0  0  0  0  0  0
   12.9003   -7.6277   -8.3893 C   0  0  0  0  0  0  0  0  0  0  0  0
   13.9673   -6.6206   -8.0985 C   0  0  2  0  0  0  0  0  0  0  0  0
   13.4339   -5.2539   -7.8107 C   0  0  0  0  0  0  0  0  0  0  0  0
   15.0517   -6.7006   -9.1159 C   0  0  2  0  0  0  0  0  0  0  0  0
   15.5793   -8.0455   -9.2699 N   0  0  0  0  0  0  0  0  0  0  0  0
   16.1508   -5.7144   -8.9352 C   0  0  0  0  0  0  0  0  0  0  0  0
   17.3037   -6.0473   -8.1931 O   0  0  0  0  0  0  0  0  0  0  0  0
   16.1495   -4.5527   -9.4052 O   0  0  0  0  0  0  0  0  0  0  0  0
  2  4  1  0
  2  1  1  1
  3  2  1  0
  5  7  1  0
  5  4  1  0
  5  6  1  1
  7  9  1  0
  8  7  2  0
  9 10  1  0
 10 11  1  0
 11 12  2  0
 11 18  1  0
 14 13  1  0
 15 16  1  6
 15 14  1  0
 17 15  1  0
 17 18  1  1
 19 20  1  0
 19 17  1  0
 21 19  2  0
M  END
$$$$
