LGI.pdb
     RDKit          3D

 21 20  0  0  1  0  0  0  0  0999 V2000
   18.8193  -11.9444  -16.3604 C   0  0  0  0  0  0  0  0  0  0  0  0
   19.2773  -10.5339  -16.6658 C   0  0  2  0  0  0  0  0  0  0  0  0
   20.5351  -10.5538  -17.5122 C   0  0  0  0  0  0  0  0  0  0  0  0
   19.5425   -9.8212  -15.3427 C   0  0  0  0  0  0  0  0  0  0  0  0
   18.2356   -9.8504  -14.5758 C   0  0  2  0  0  0  0  0  0  0  0  0
   17.2763   -9.0464  -15.2963 N   0  0  0  0  0  0  0  0  0  0  0  0
   18.4660   -9.3359  -13.2160 C   0  0  0  0  0  0  0  0  0  0  0  0
   19.2674   -9.9085  -12.4428 O   0  0  0  0  0  0  0  0  0  0  0  0
   17.7636   -8.1777  -12.7935 N   0  0  0  0  0  0  0  0  0  0  0  0
   17.9367   -7.5852  -11.4875 C   0  0  0  0  0  0  0  0  0  0  0  0
   16.6740   -6.8948  -11.1274 C   0  0  0  0  0  0  0  0  0  0  0  0
   15.7136   -6.8377  -11.9334 O   0  0  0  0  0  0  0  0  0  0  0  0
   14.2235   -7.6673   -6.5573 C   0  0  0  0  0  0  0  0  0  0  0  0
   14.5954   -7.2912   -7.9815 C   0  0  0  0  0  0  0  0  0  0  0  0
   14.9008   -5.8329   -8.1145 C   0  0  2  0  0  0  0  0  0  0  0  0
   13.8186   -4.9471   -7.5862 C   0  0  0  0  0  0  0  0  0  0  0  0
   15.3887   -5.5251   -9.4874 C   0  0  2  0  0  0  0  0  0  0  0  0
   16.5653   -6.2956   -9.8513 N   0  0  0  0  0  0  0  0  0  0  0  0
   15.5915   -4.0781   -9.7675 C   0  0  0  0  0  0  0  0  0  0  0  0
   16.8619   -3.4844   -9.6110 O   0  0  0  0  0  0  0  0  0  0  0  0
   14.6920   -3.2939  -10.1501 O   0  0  0  0  0  0  0  0  0  0  0  0
  2  4  1  0
  2  1  1  1
  3  2  1  0
  5  7  1  0
  5  4  1  0
  5  6  1  6
  7  9  1  0
  8  7  2  0
  9 10  1  0
 10 11  1  0
 11 12  2  0
 11 18  1  0
 14 13  1  0
 15 16  1  6
 15 14  1  0
 17 15  1  0
 17 18  1  1
 19 20  1  0
 19 17  1  0
 21 19  2  0
M  END
$$$$
