LGI.pdb
     RDKit          3D

 21 20  0  0  1  0  0  0  0  0999 V2000
   16.8860  -11.6728  -17.2207 C   0  0  0  0  0  0  0  0  0  0  0  0
   17.8418  -12.7589  -16.7741 C   0  0  2  0  0  0  0  0  0  0  0  0
   17.0890  -13.8813  -16.0867 C   0  0  0  0  0  0  0  0  0  0  0  0
   18.8550  -12.1388  -15.8162 C   0  0  0  0  0  0  0  0  0  0  0  0
   19.5294  -11.0169  -16.5802 C   0  0  2  0  0  0  0  0  0  0  0  0
   20.4020  -11.6093  -17.5668 N   0  0  0  0  0  0  0  0  0  0  0  0
   20.2732  -10.1709  -15.6326 C   0  0  0  0  0  0  0  0  0  0  0  0
   19.6802   -9.5797  -14.7015 O   0  0  0  0  0  0  0  0  0  0  0  0
   21.6767  -10.0352  -15.7910 N   0  0  0  0  0  0  0  0  0  0  0  0
   22.4958   -9.2433  -14.9029 C   0  0  0  0  0  0  0  0  0  0  0  0
   22.1880   -7.8133  -15.1500 C   0  0  0  0  0  0  0  0  0  0  0  0
   22.2419   -7.3289  -16.3066 O   0  0  0  0  0  0  0  0  0  0  0  0
   17.7911   -5.6312  -14.7795 C   0  0  0  0  0  0  0  0  0  0  0  0
   19.2664   -5.8886  -15.0346 C   0  0  0  0  0  0  0  0  0  0  0  0
   20.1358   -5.2250  -14.0143 C   0  0  2  0  0  0  0  0  0  0  0  0
   19.8370   -3.7715  -13.8318 C   0  0  0  0  0  0  0  0  0  0  0  0
   21.5652   -5.5777  -14.2376 C   0  0  2  0  0  0  0  0  0  0  0  0
   21.8293   -6.9945  -14.0544 N   0  0  0  0  0  0  0  0  0  0  0  0
   22.5384   -4.7510  -13.4743 C   0  0  0  0  0  0  0  0  0  0  0  0
   23.1252   -3.6072  -14.0558 O   0  0  0  0  0  0  0  0  0  0  0  0
   22.9065   -4.9872  -12.3000 O   0  0  0  0  0  0  0  0  0  0  0  0
  2  4  1  0
  2  1  1  1
  3  2  1  0
  5  7  1  0
  5  4  1  0
  5  6  1  6
  7  9  1  0
  8  7  2  0
  9 10  1  0
 10 11  1  0
 11 12  2  0
 11 18  1  0
 14 13  1  0
 15 16  1  6
 15 14  1  0
 17 15  1  0
 17 18  1  1
 19 20  1  0
 19 17  1  0
 21 19  2  0
M  END
$$$$
