LGI.pdb
     RDKit          3D

 21 20  0  0  1  0  0  0  0  0999 V2000
   29.1319  -18.9175  -15.0471 C   0  0  0  0  0  0  0  0  0  0  0  0
   27.7605  -19.2711  -15.5828 C   0  0  2  0  0  0  0  0  0  0  0  0
   27.4101  -18.3949  -16.7696 C   0  0  0  0  0  0  0  0  0  0  0  0
   26.7444  -19.0725  -14.4617 C   0  0  0  0  0  0  0  0  0  0  0  0
   27.2139  -19.9338  -13.3063 C   0  0  2  0  0  0  0  0  0  0  0  0
   27.3915  -21.2808  -13.7960 N   0  0  0  0  0  0  0  0  0  0  0  0
   26.2151  -19.8736  -12.2266 C   0  0  0  0  0  0  0  0  0  0  0  0
   25.8713  -18.7750  -11.7339 O   0  0  0  0  0  0  0  0  0  0  0  0
   25.6462  -21.0835  -11.7514 N   0  0  0  0  0  0  0  0  0  0  0  0
   24.6865  -21.1313  -10.6729 C   0  0  0  0  0  0  0  0  0  0  0  0
   23.3416  -20.8783  -11.2457 C   0  0  0  0  0  0  0  0  0  0  0  0
   22.3352  -20.7520  -10.5064 O   0  0  0  0  0  0  0  0  0  0  0  0
   22.8081  -17.6917  -15.5617 C   0  0  0  0  0  0  0  0  0  0  0  0
   22.5772  -18.4621  -14.2728 C   0  0  0  0  0  0  0  0  0  0  0  0
   21.9670  -19.8045  -14.5239 C   0  0  2  0  0  0  0  0  0  0  0  0
   20.7083  -19.7456  -15.3284 C   0  0  0  0  0  0  0  0  0  0  0  0
   21.9026  -20.5927  -13.2621 C   0  0  2  0  0  0  0  0  0  0  0  0
   23.2067  -20.7801  -12.6498 N   0  0  0  0  0  0  0  0  0  0  0  0
   21.1739  -21.8852  -13.3704 C   0  0  0  0  0  0  0  0  0  0  0  0
   21.7801  -23.0063  -13.9757 O   0  0  0  0  0  0  0  0  0  0  0  0
   20.0093  -22.0833  -12.9522 O   0  0  0  0  0  0  0  0  0  0  0  0
  2  4  1  0
  2  1  1  1
  3  2  1  0
  5  7  1  0
  5  4  1  0
  5  6  1  6
  7  9  1  0
  8  7  2  0
  9 10  1  0
 10 11  1  0
 11 12  2  0
 11 18  1  0
 14 13  1  0
 15 16  1  1
 15 14  1  0
 17 15  1  0
 17 18  1  6
 19 20  1  0
 19 17  1  0
 21 19  2  0
M  END
$$$$
