LGI.pdb
     RDKit          3D

 21 20  0  0  1  0  0  0  0  0999 V2000
   24.7868  -21.6086  -15.7399 C   0  0  0  0  0  0  0  0  0  0  0  0
   23.6321  -21.7490  -14.7707 C   0  0  2  0  0  0  0  0  0  0  0  0
   22.3098  -21.5471  -15.4847 C   0  0  0  0  0  0  0  0  0  0  0  0
   23.8027  -20.7055  -13.6705 C   0  0  0  0  0  0  0  0  0  0  0  0
   25.1624  -20.9603  -13.0513 C   0  0  2  0  0  0  0  0  0  0  0  0
   25.1907  -22.3255  -12.5809 N   0  0  0  0  0  0  0  0  0  0  0  0
   25.3774  -20.0016  -11.9552 C   0  0  0  0  0  0  0  0  0  0  0  0
   25.4377  -18.7719  -12.1837 O   0  0  0  0  0  0  0  0  0  0  0  0
   25.5158  -20.4939  -10.6317 N   0  0  0  0  0  0  0  0  0  0  0  0
   25.6955  -19.6320   -9.4864 C   0  0  0  0  0  0  0  0  0  0  0  0
   26.5688  -20.3368   -8.5161 C   0  0  0  0  0  0  0  0  0  0  0  0
   27.0346  -21.4742   -8.7700 O   0  0  0  0  0  0  0  0  0  0  0  0
   29.3763  -17.2752   -4.9291 C   0  0  0  0  0  0  0  0  0  0  0  0
   28.9693  -18.3585   -5.9134 C   0  0  0  0  0  0  0  0  0  0  0  0
   28.2084  -19.4619   -5.2495 C   0  0  2  0  0  0  0  0  0  0  0  0
   28.9477  -20.0971   -4.1159 C   0  0  0  0  0  0  0  0  0  0  0  0
   27.6429  -20.3912   -6.2663 C   0  0  2  0  0  0  0  0  0  0  0  0
   26.8728  -19.7039   -7.2887 N   0  0  0  0  0  0  0  0  0  0  0  0
   26.8804  -21.5395   -5.7065 C   0  0  0  0  0  0  0  0  0  0  0  0
   27.5510  -22.6792   -5.2144 O   0  0  0  0  0  0  0  0  0  0  0  0
   25.6310  -21.5934   -5.6263 O   0  0  0  0  0  0  0  0  0  0  0  0
  2  4  1  0
  2  1  1  6
  3  2  1  0
  5  7  1  0
  5  4  1  0
  5  6  1  1
  7  9  1  0
  8  7  2  0
  9 10  1  0
 10 11  1  0
 11 12  2  0
 11 18  1  0
 14 13  1  0
 15 16  1  1
 15 14  1  0
 17 15  1  0
 17 18  1  6
 19 20  1  0
 19 17  1  0
 21 19  2  0
M  END
$$$$
