VWQ.pdb
     RDKit          3D

 31 32  0  0  1  0  0  0  0  0999 V2000
    8.5825  -19.0629   20.0448 C   0  0  0  0  0  0  0  0  0  0  0  0
    9.7742  -18.4984   19.3050 C   0  0  1  0  0  0  0  0  0  0  0  0
    9.7602  -19.0516   17.9037 C   0  0  0  0  0  0  0  0  0  0  0  0
    9.6685  -16.9928   19.3254 C   0  0  2  0  0  0  0  0  0  0  0  0
   10.7661  -16.4471   18.5452 N   0  0  0  0  0  0  0  0  0  0  0  0
    9.6663  -16.4575   20.7106 C   0  0  0  0  0  0  0  0  0  0  0  0
   10.7274  -16.3512   21.3416 O   0  0  0  0  0  0  0  0  0  0  0  0
    8.4588  -16.0715   21.3050 N   0  0  0  0  0  0  0  0  0  0  0  0
    8.3279  -15.5906   22.6617 C   0  0  1  0  0  0  0  0  0  0  0  0
    6.9412  -15.1015   22.9799 C   0  0  0  0  0  0  0  0  0  0  0  0
    6.7444  -14.7551   24.3991 C   0  0  0  0  0  0  0  0  0  0  0  0
    6.2855  -15.6649   25.3461 C   0  0  0  0  0  0  0  0  0  0  0  0
    6.2395  -14.9823   26.5028 N   0  0  0  0  0  0  0  0  0  0  0  0
    6.6422  -13.7138   26.3175 C   0  0  0  0  0  0  0  0  0  0  0  0
    6.7525  -12.6735   27.2216 C   0  0  0  0  0  0  0  0  0  0  0  0
    7.2042  -11.4587   26.7317 C   0  0  0  0  0  0  0  0  0  0  0  0
    7.5325  -11.2866   25.3978 C   0  0  0  0  0  0  0  0  0  0  0  0
    7.4200  -12.3230   24.5095 C   0  0  0  0  0  0  0  0  0  0  0  0
    6.9709  -13.5349   24.9904 C   0  0  0  0  0  0  0  0  0  0  0  0
    8.5805  -16.7477   23.5581 C   0  0  0  0  0  0  0  0  0  0  0  0
    8.1541  -17.8674   23.2468 O   0  0  0  0  0  0  0  0  0  0  0  0
   13.4541  -18.1324   22.4330 N   0  0  0  0  0  0  0  0  0  0  0  0
   13.3512  -19.0570   23.4947 C   0  0  0  0  0  0  0  0  0  0  0  0
   14.0565  -20.0697   23.5364 O   0  0  0  0  0  0  0  0  0  0  0  0
   12.3717  -18.8388   24.6204 C   0  0  0  0  0  0  0  0  0  0  0  0
   11.3505  -17.8186   24.2217 C   0  0  0  0  0  0  0  0  0  0  0  0
   10.2673  -17.6318   25.2237 C   0  0  2  0  0  0  0  0  0  0  0  0
    9.2982  -16.6324   24.7746 N   0  0  0  0  0  0  0  0  0  0  0  0
   10.8272  -17.1819   26.5164 C   0  0  0  0  0  0  0  0  0  0  0  0
   11.6753  -17.9214   27.1344 O   0  0  0  0  0  0  0  0  0  0  0  0
   10.5279  -16.0005   27.1610 O   0  0  0  0  0  0  0  0  0  0  0  0
  2  1  1  1
  2  3  1  0
  4  2  1  0
  4  5  1  6
  6  7  2  0
  6  4  1  0
  8  6  1  0
  9  8  1  0
  9 10  1  6
 11 19  1  0
 11 10  1  0
 12 11  2  0
 13 12  1  0
 13 14  1  0
 14 15  1  0
 14 19  2  0
 15 16  2  0
 16 17  1  0
 18 17  2  0
 19 18  1  0
 20  9  1  0
 21 20  2  0
 23 22  1  0
 24 23  2  0
 25 23  1  0
 26 25  1  0
 27 26  1  6
 27 28  1  0
 28 20  1  0
 29 27  1  0
 30 29  2  0
 31 29  1  0
M  END
$$$$
