VWQ.pdb
     RDKit          3D

 31 32  0  0  1  0  0  0  0  0999 V2000
    7.1507  -20.2161   24.3069 C   0  0  0  0  0  0  0  0  0  0  0  0
    6.9631  -20.7501   22.9049 C   0  0  1  0  0  0  0  0  0  0  0  0
    5.9595  -21.8724   22.9620 C   0  0  0  0  0  0  0  0  0  0  0  0
    6.4981  -19.6127   22.0282 C   0  0  2  0  0  0  0  0  0  0  0  0
    6.1786  -20.1484   20.7160 N   0  0  0  0  0  0  0  0  0  0  0  0
    7.5118  -18.5308   21.9426 C   0  0  0  0  0  0  0  0  0  0  0  0
    8.5711  -18.7138   21.3264 O   0  0  0  0  0  0  0  0  0  0  0  0
    7.2679  -17.2988   22.5614 N   0  0  0  0  0  0  0  0  0  0  0  0
    8.1812  -16.1786   22.5498 C   0  0  1  0  0  0  0  0  0  0  0  0
    7.5028  -14.8651   22.8288 C   0  0  0  0  0  0  0  0  0  0  0  0
    7.0276  -14.7250   24.2171 C   0  0  0  0  0  0  0  0  0  0  0  0
    6.3651  -15.7405   24.8991 C   0  0  0  0  0  0  0  0  0  0  0  0
    6.0985  -15.2370   26.1163 N   0  0  0  0  0  0  0  0  0  0  0  0
    6.5581  -13.9784   26.2164 C   0  0  0  0  0  0  0  0  0  0  0  0
    6.5039  -13.0923   27.2765 C   0  0  0  0  0  0  0  0  0  0  0  0
    7.0726  -11.8437   27.0834 C   0  0  0  0  0  0  0  0  0  0  0  0
    7.6703  -11.4917   25.8852 C   0  0  0  0  0  0  0  0  0  0  0  0
    7.7191  -12.3761   24.8406 C   0  0  0  0  0  0  0  0  0  0  0  0
    7.1550  -13.6207   25.0260 C   0  0  0  0  0  0  0  0  0  0  0  0
    9.1471  -16.3953   23.6573 C   0  0  0  0  0  0  0  0  0  0  0  0
    8.8059  -17.0574   24.6460 O   0  0  0  0  0  0  0  0  0  0  0  0
   12.3583  -20.4819   23.6182 N   0  0  0  0  0  0  0  0  0  0  0  0
   12.5107  -19.5636   22.5569 C   0  0  0  0  0  0  0  0  0  0  0  0
   12.8682  -19.9322   21.4338 O   0  0  0  0  0  0  0  0  0  0  0  0
   12.2409  -18.0938   22.7588 C   0  0  0  0  0  0  0  0  0  0  0  0
   11.7928  -17.8427   24.1655 C   0  0  0  0  0  0  0  0  0  0  0  0
   11.5438  -16.4078   24.4678 C   0  0  2  0  0  0  0  0  0  0  0  0
   10.4642  -15.8725   23.6387 N   0  0  0  0  0  0  0  0  0  0  0  0
   12.7597  -15.6049   24.2153 C   0  0  0  0  0  0  0  0  0  0  0  0
   12.7782  -14.7665   23.2433 O   0  0  0  0  0  0  0  0  0  0  0  0
   13.9298  -15.6570   24.9427 O   0  0  0  0  0  0  0  0  0  0  0  0
  2  1  1  1
  2  3  1  0
  4  2  1  0
  4  5  1  6
  6  7  2  0
  6  4  1  0
  8  6  1  0
  9  8  1  0
  9 10  1  1
 11 19  1  0
 11 10  1  0
 12 11  2  0
 13 12  1  0
 13 14  1  0
 14 15  1  0
 14 19  2  0
 15 16  2  0
 16 17  1  0
 18 17  2  0
 19 18  1  0
 20  9  1  0
 21 20  2  0
 23 22  1  0
 24 23  2  0
 25 23  1  0
 26 25  1  0
 27 26  1  6
 27 28  1  0
 28 20  1  0
 29 27  1  0
 30 29  2  0
 31 29  1  0
M  END
$$$$
