VWQ.pdb
     RDKit          3D

 31 32  0  0  1  0  0  0  0  0999 V2000
    8.0939  -16.5585   19.2221 C   0  0  0  0  0  0  0  0  0  0  0  0
    7.9065  -15.1103   18.8301 C   0  0  1  0  0  0  0  0  0  0  0  0
    6.9789  -15.0627   17.6439 C   0  0  0  0  0  0  0  0  0  0  0  0
    7.3481  -14.3705   20.0215 C   0  0  2  0  0  0  0  0  0  0  0  0
    7.0023  -13.0232   19.6018 N   0  0  0  0  0  0  0  0  0  0  0  0
    8.3008  -14.3583   21.1607 C   0  0  0  0  0  0  0  0  0  0  0  0
    9.2858  -13.6068   21.1440 O   0  0  0  0  0  0  0  0  0  0  0  0
    8.0834  -15.2002   22.2581 N   0  0  0  0  0  0  0  0  0  0  0  0
    8.9149  -15.2410   23.4396 C   0  0  1  0  0  0  0  0  0  0  0  0
    8.2318  -15.8827   24.6163 C   0  0  0  0  0  0  0  0  0  0  0  0
    7.2611  -15.0029   25.2921 C   0  0  0  0  0  0  0  0  0  0  0  0
    5.9664  -15.4018   25.6080 C   0  0  0  0  0  0  0  0  0  0  0  0
    5.4020  -14.3387   26.2057 N   0  0  0  0  0  0  0  0  0  0  0  0
    6.2736  -13.3183   26.2729 C   0  0  0  0  0  0  0  0  0  0  0  0
    6.1203  -12.0496   26.8007 C   0  0  0  0  0  0  0  0  0  0  0  0
    7.2125  -11.2003   26.7260 C   0  0  0  0  0  0  0  0  0  0  0  0
    8.4073  -11.5971   26.1501 C   0  0  0  0  0  0  0  0  0  0  0  0
    8.5498  -12.8560   25.6298 C   0  0  0  0  0  0  0  0  0  0  0  0
    7.4666  -13.7065   25.7008 C   0  0  0  0  0  0  0  0  0  0  0  0
   10.0856  -16.0964   23.1165 C   0  0  0  0  0  0  0  0  0  0  0  0
    9.9055  -17.2503   22.7061 O   0  0  0  0  0  0  0  0  0  0  0  0
   14.8126  -14.5009   19.8850 N   0  0  0  0  0  0  0  0  0  0  0  0
   15.4503  -15.5851   20.5259 C   0  0  0  0  0  0  0  0  0  0  0  0
   16.5230  -16.0361   20.1125 O   0  0  0  0  0  0  0  0  0  0  0  0
   14.8408  -16.2331   21.7436 C   0  0  0  0  0  0  0  0  0  0  0  0
   13.5692  -15.5346   22.1146 C   0  0  0  0  0  0  0  0  0  0  0  0
   12.5722  -16.4172   22.7774 C   0  0  2  0  0  0  0  0  0  0  0  0
   11.4231  -15.6497   23.2572 N   0  0  0  0  0  0  0  0  0  0  0  0
   13.1792  -17.1094   23.9346 C   0  0  0  0  0  0  0  0  0  0  0  0
   14.2012  -17.8662   23.7591 O   0  0  0  0  0  0  0  0  0  0  0  0
   12.7514  -17.0272   25.2427 O   0  0  0  0  0  0  0  0  0  0  0  0
  2  1  1  1
  2  3  1  0
  4  2  1  0
  4  5  1  6
  6  7  2  0
  6  4  1  0
  8  6  1  0
  9  8  1  0
  9 10  1  1
 11 19  1  0
 11 10  1  0
 12 11  2  0
 13 12  1  0
 13 14  1  0
 14 15  1  0
 14 19  2  0
 15 16  2  0
 16 17  1  0
 18 17  2  0
 19 18  1  0
 20  9  1  0
 21 20  2  0
 23 22  1  0
 24 23  2  0
 25 23  1  0
 26 25  1  0
 27 26  1  1
 27 28  1  0
 28 20  1  0
 29 27  1  0
 30 29  2  0
 31 29  1  0
M  END
$$$$
