VWQ.pdb
     RDKit          3D

 31 32  0  0  1  0  0  0  0  0999 V2000
    8.2304  -12.7061   20.1898 C   0  0  0  0  0  0  0  0  0  0  0  0
    7.3355  -13.8982   20.4430 C   0  0  1  0  0  0  0  0  0  0  0  0
    6.4787  -14.1080   19.2216 C   0  0  0  0  0  0  0  0  0  0  0  0
    8.2140  -15.0903   20.7356 C   0  0  2  0  0  0  0  0  0  0  0  0
    7.3708  -16.2708   20.8154 N   0  0  0  0  0  0  0  0  0  0  0  0
    9.0058  -14.9018   21.9778 C   0  0  0  0  0  0  0  0  0  0  0  0
    9.7829  -13.9426   22.0845 O   0  0  0  0  0  0  0  0  0  0  0  0
    8.8723  -15.8130   23.0324 N   0  0  0  0  0  0  0  0  0  0  0  0
    9.6247  -15.7583   24.2654 C   0  0  1  0  0  0  0  0  0  0  0  0
    8.7850  -16.0510   25.4788 C   0  0  0  0  0  0  0  0  0  0  0  0
    7.6348  -15.1430   25.6385 C   0  0  0  0  0  0  0  0  0  0  0  0
    6.3242  -15.5231   25.3684 C   0  0  0  0  0  0  0  0  0  0  0  0
    5.5772  -14.4369   25.6301 N   0  0  0  0  0  0  0  0  0  0  0  0
    6.3528  -13.4202   26.0427 C   0  0  0  0  0  0  0  0  0  0  0  0
    6.0103  -12.1334   26.4152 C   0  0  0  0  0  0  0  0  0  0  0  0
    7.0427  -11.2938   26.8013 C   0  0  0  0  0  0  0  0  0  0  0  0
    8.3607  -11.7172   26.8160 C   0  0  0  0  0  0  0  0  0  0  0  0
    8.6904  -12.9938   26.4451 C   0  0  0  0  0  0  0  0  0  0  0  0
    7.6677  -13.8348   26.0597 C   0  0  0  0  0  0  0  0  0  0  0  0
   10.6495  -16.8313   24.1958 C   0  0  0  0  0  0  0  0  0  0  0  0
   10.3035  -17.9925   23.9427 O   0  0  0  0  0  0  0  0  0  0  0  0
   16.3207  -14.8948   23.0350 N   0  0  0  0  0  0  0  0  0  0  0  0
   15.6759  -15.8731   22.2477 C   0  0  0  0  0  0  0  0  0  0  0  0
   16.2122  -16.3436   21.2397 O   0  0  0  0  0  0  0  0  0  0  0  0
   14.3033  -16.3801   22.6121 C   0  0  0  0  0  0  0  0  0  0  0  0
   14.3557  -17.1097   23.9188 C   0  0  0  0  0  0  0  0  0  0  0  0
   13.0397  -17.6445   24.3598 C   0  0  2  0  0  0  0  0  0  0  0  0
   12.0293  -16.5880   24.4087 N   0  0  0  0  0  0  0  0  0  0  0  0
   13.1470  -18.2419   25.7083 C   0  0  0  0  0  0  0  0  0  0  0  0
   12.5802  -17.6665   26.7061 O   0  0  0  0  0  0  0  0  0  0  0  0
   13.8173  -19.4035   26.0281 O   0  0  0  0  0  0  0  0  0  0  0  0
  2  1  1  6
  2  3  1  0
  4  2  1  0
  4  5  1  1
  6  7  2  0
  6  4  1  0
  8  6  1  0
  9  8  1  0
  9 10  1  1
 11 19  1  0
 11 10  1  0
 12 11  2  0
 13 12  1  0
 13 14  1  0
 14 15  1  0
 14 19  2  0
 15 16  2  0
 16 17  1  0
 18 17  2  0
 19 18  1  0
 20  9  1  0
 21 20  2  0
 23 22  1  0
 24 23  2  0
 25 23  1  0
 26 25  1  0
 27 26  1  1
 27 28  1  0
 28 20  1  0
 29 27  1  0
 30 29  2  0
 31 29  1  0
M  END
$$$$
