VWQ.pdb
     RDKit          3D

 31 32  0  0  1  0  0  0  0  0999 V2000
    8.2248  -12.6511   20.2691 C   0  0  0  0  0  0  0  0  0  0  0  0
    7.2520  -13.7745   20.5478 C   0  0  1  0  0  0  0  0  0  0  0  0
    6.3214  -13.8911   19.3687 C   0  0  0  0  0  0  0  0  0  0  0  0
    8.0469  -15.0375   20.7746 C   0  0  2  0  0  0  0  0  0  0  0  0
    7.1170  -16.1479   20.8913 N   0  0  0  0  0  0  0  0  0  0  0  0
    8.9222  -14.9326   21.9697 C   0  0  0  0  0  0  0  0  0  0  0  0
    9.8079  -14.0677   22.0220 O   0  0  0  0  0  0  0  0  0  0  0  0
    8.7445  -15.8158   23.0415 N   0  0  0  0  0  0  0  0  0  0  0  0
    9.4997  -15.7751   24.2733 C   0  0  1  0  0  0  0  0  0  0  0  0
    8.6556  -16.0469   25.4885 C   0  0  0  0  0  0  0  0  0  0  0  0
    7.5764  -15.0641   25.6942 C   0  0  0  0  0  0  0  0  0  0  0  0
    6.2288  -15.3726   25.5390 C   0  0  0  0  0  0  0  0  0  0  0  0
    5.5692  -14.2332   25.8087 N   0  0  0  0  0  0  0  0  0  0  0  0
    6.4325  -13.2512   26.1183 C   0  0  0  0  0  0  0  0  0  0  0  0
    6.1958  -11.9324   26.4597 C   0  0  0  0  0  0  0  0  0  0  0  0
    7.3023  -11.1440   26.7314 C   0  0  0  0  0  0  0  0  0  0  0  0
    8.5905  -11.6471   26.6661 C   0  0  0  0  0  0  0  0  0  0  0  0
    8.8151  -12.9549   26.3269 C   0  0  0  0  0  0  0  0  0  0  0  0
    7.7183  -13.7453   26.0552 C   0  0  0  0  0  0  0  0  0  0  0  0
   10.5007  -16.8703   24.2044 C   0  0  0  0  0  0  0  0  0  0  0  0
   10.1932  -17.9483   23.6792 O   0  0  0  0  0  0  0  0  0  0  0  0
   16.7470  -16.4460   22.6024 N   0  0  0  0  0  0  0  0  0  0  0  0
   15.5576  -15.8229   23.0382 C   0  0  0  0  0  0  0  0  0  0  0  0
   15.5415  -14.6372   23.3827 O   0  0  0  0  0  0  0  0  0  0  0  0
   14.2591  -16.5874   23.0983 C   0  0  0  0  0  0  0  0  0  0  0  0
   14.1563  -17.3230   24.3987 C   0  0  0  0  0  0  0  0  0  0  0  0
   12.7897  -17.8311   24.6932 C   0  0  2  0  0  0  0  0  0  0  0  0
   11.8147  -16.7411   24.7194 N   0  0  0  0  0  0  0  0  0  0  0  0
   12.7591  -18.5080   26.0075 C   0  0  0  0  0  0  0  0  0  0  0  0
   12.0313  -18.0319   26.9518 O   0  0  0  0  0  0  0  0  0  0  0  0
   13.4558  -19.6482   26.3473 O   0  0  0  0  0  0  0  0  0  0  0  0
  2  1  1  6
  2  3  1  0
  4  2  1  0
  4  5  1  1
  6  7  2  0
  6  4  1  0
  8  6  1  0
  9  8  1  0
  9 10  1  1
 11 19  1  0
 11 10  1  0
 12 11  2  0
 13 12  1  0
 13 14  1  0
 14 15  1  0
 14 19  2  0
 15 16  2  0
 16 17  1  0
 18 17  2  0
 19 18  1  0
 20  9  1  0
 21 20  2  0
 23 22  1  0
 24 23  2  0
 25 23  1  0
 26 25  1  0
 27 26  1  1
 27 28  1  0
 28 20  1  0
 29 27  1  0
 30 29  2  0
 31 29  1  0
M  END
$$$$
