VWQ.pdb
     RDKit          3D

 31 32  0  0  1  0  0  0  0  0999 V2000
    8.6087  -12.5327   19.9419 C   0  0  0  0  0  0  0  0  0  0  0  0
    7.5508  -13.5845   20.1876 C   0  0  1  0  0  0  0  0  0  0  0  0
    6.6541  -13.6379   18.9780 C   0  0  0  0  0  0  0  0  0  0  0  0
    8.2470  -14.8997   20.4406 C   0  0  2  0  0  0  0  0  0  0  0  0
    7.2423  -15.9485   20.4799 N   0  0  0  0  0  0  0  0  0  0  0  0
    9.0507  -14.8685   21.6890 C   0  0  0  0  0  0  0  0  0  0  0  0
   10.0281  -14.1130   21.7847 O   0  0  0  0  0  0  0  0  0  0  0  0
    8.7010  -15.6972   22.7620 N   0  0  0  0  0  0  0  0  0  0  0  0
    9.3990  -15.7419   24.0269 C   0  0  1  0  0  0  0  0  0  0  0  0
    8.5125  -16.1481   25.1725 C   0  0  0  0  0  0  0  0  0  0  0  0
    7.4406  -15.1800   25.4665 C   0  0  0  0  0  0  0  0  0  0  0  0
    6.0887  -15.4819   25.3384 C   0  0  0  0  0  0  0  0  0  0  0  0
    5.4382  -14.3601   25.6912 N   0  0  0  0  0  0  0  0  0  0  0  0
    6.3111  -13.3950   26.0260 C   0  0  0  0  0  0  0  0  0  0  0  0
    6.0856  -12.0972   26.4465 C   0  0  0  0  0  0  0  0  0  0  0  0
    7.2004  -11.3228   26.7249 C   0  0  0  0  0  0  0  0  0  0  0  0
    8.4857  -11.8194   26.5904 C   0  0  0  0  0  0  0  0  0  0  0  0
    8.6992  -13.1062   26.1731 C   0  0  0  0  0  0  0  0  0  0  0  0
    7.5941  -13.8826   25.8943 C   0  0  0  0  0  0  0  0  0  0  0  0
   10.4415  -16.7935   23.9098 C   0  0  0  0  0  0  0  0  0  0  0  0
   10.6449  -17.3343   22.8150 O   0  0  0  0  0  0  0  0  0  0  0  0
   15.1469  -15.7749   20.9942 N   0  0  0  0  0  0  0  0  0  0  0  0
   14.8711  -15.9768   22.3638 C   0  0  0  0  0  0  0  0  0  0  0  0
   15.5810  -15.4792   23.2431 O   0  0  0  0  0  0  0  0  0  0  0  0
   13.6941  -16.8111   22.8027 C   0  0  0  0  0  0  0  0  0  0  0  0
   13.4858  -16.6686   24.2788 C   0  0  0  0  0  0  0  0  0  0  0  0
   12.5987  -17.7104   24.8621 C   0  0  2  0  0  0  0  0  0  0  0  0
   11.2295  -17.2170   25.0089 N   0  0  0  0  0  0  0  0  0  0  0  0
   13.0862  -18.1199   26.1968 C   0  0  0  0  0  0  0  0  0  0  0  0
   12.4761  -17.7116   27.2500 O   0  0  0  0  0  0  0  0  0  0  0  0
   14.1722  -18.9313   26.4482 O   0  0  0  0  0  0  0  0  0  0  0  0
  2  1  1  6
  2  3  1  0
  4  2  1  0
  4  5  1  1
  6  7  2  0
  6  4  1  0
  8  6  1  0
  9  8  1  0
  9 10  1  1
 11 19  1  0
 11 10  1  0
 12 11  2  0
 13 12  1  0
 13 14  1  0
 14 15  1  0
 14 19  2  0
 15 16  2  0
 16 17  1  0
 18 17  2  0
 19 18  1  0
 20  9  1  0
 21 20  2  0
 23 22  1  0
 24 23  2  0
 25 23  1  0
 26 25  1  0
 27 26  1  1
 27 28  1  0
 28 20  1  0
 29 27  1  0
 30 29  2  0
 31 29  1  0
M  END
$$$$
