VWQ.pdb
     RDKit          3D

 31 32  0  0  1  0  0  0  0  0999 V2000
    7.2117  -23.4227   24.6102 C   0  0  0  0  0  0  0  0  0  0  0  0
    7.8143  -22.0406   24.4967 C   0  0  1  0  0  0  0  0  0  0  0  0
    9.1744  -22.1737   23.8624 C   0  0  0  0  0  0  0  0  0  0  0  0
    6.8807  -21.1883   23.6719 C   0  0  2  0  0  0  0  0  0  0  0  0
    6.6288  -21.8716   22.4147 N   0  0  0  0  0  0  0  0  0  0  0  0
    7.4269  -19.8251   23.4507 C   0  0  0  0  0  0  0  0  0  0  0  0
    8.2694  -19.6253   22.5644 O   0  0  0  0  0  0  0  0  0  0  0  0
    6.9868  -18.7618   24.2482 N   0  0  0  0  0  0  0  0  0  0  0  0
    7.4279  -17.3925   24.1081 C   0  0  1  0  0  0  0  0  0  0  0  0
    6.4323  -16.3978   24.6396 C   0  0  0  0  0  0  0  0  0  0  0  0
    6.8118  -14.9931   24.4034 C   0  0  0  0  0  0  0  0  0  0  0  0
    7.2262  -14.5168   23.1638 C   0  0  0  0  0  0  0  0  0  0  0  0
    7.4796  -13.2103   23.3508 N   0  0  0  0  0  0  0  0  0  0  0  0
    7.2447  -12.8630   24.6274 C   0  0  0  0  0  0  0  0  0  0  0  0
    7.3705  -11.6370   25.2542 C   0  0  0  0  0  0  0  0  0  0  0  0
    7.0504  -11.5827   26.6012 C   0  0  0  0  0  0  0  0  0  0  0  0
    6.6230  -12.7018   27.2952 C   0  0  0  0  0  0  0  0  0  0  0  0
    6.5015  -13.9121   26.6659 C   0  0  0  0  0  0  0  0  0  0  0  0
    6.8185  -13.9733   25.3252 C   0  0  0  0  0  0  0  0  0  0  0  0
    8.6519  -17.2445   24.9366 C   0  0  0  0  0  0  0  0  0  0  0  0
    8.7243  -17.8209   26.0296 O   0  0  0  0  0  0  0  0  0  0  0  0
   14.0086  -15.3289   22.2116 N   0  0  0  0  0  0  0  0  0  0  0  0
   14.4925  -15.9538   23.3813 C   0  0  0  0  0  0  0  0  0  0  0  0
   15.7028  -16.0399   23.6108 O   0  0  0  0  0  0  0  0  0  0  0  0
   13.5437  -16.5405   24.3959 C   0  0  0  0  0  0  0  0  0  0  0  0
   12.1291  -16.2280   24.0166 C   0  0  0  0  0  0  0  0  0  0  0  0
   11.1241  -16.7108   25.0012 C   0  0  2  0  0  0  0  0  0  0  0  0
    9.7616  -16.4618   24.5311 N   0  0  0  0  0  0  0  0  0  0  0  0
   11.2964  -16.0232   26.2991 C   0  0  0  0  0  0  0  0  0  0  0  0
   10.5688  -15.0036   26.5805 O   0  0  0  0  0  0  0  0  0  0  0  0
   12.1913  -16.3726   27.2879 O   0  0  0  0  0  0  0  0  0  0  0  0
  2  1  1  6
  2  3  1  0
  4  2  1  0
  4  5  1  6
  6  7  2  0
  6  4  1  0
  8  6  1  0
  9  8  1  0
  9 10  1  1
 11 19  1  0
 11 10  1  0
 12 11  2  0
 13 12  1  0
 13 14  1  0
 14 15  1  0
 14 19  2  0
 15 16  2  0
 16 17  1  0
 18 17  2  0
 19 18  1  0
 20  9  1  0
 21 20  2  0
 23 22  1  0
 24 23  2  0
 25 23  1  0
 26 25  1  0
 27 26  1  6
 27 28  1  0
 28 20  1  0
 29 27  1  0
 30 29  2  0
 31 29  1  0
M  END
$$$$
