FYY.pdb
     RDKit          3D

 36 38  0  0  1  0  0  0  0  0999 V2000
   22.8665  -19.2493  -19.9944 N   0  0  0  0  0  0  0  0  0  0  0  0
   22.3765  -18.2776  -19.0408 C   0  0  1  0  0  0  0  0  0  0  0  0
   21.4182  -17.2962  -19.6843 C   0  0  0  0  0  0  0  0  0  0  0  0
   22.1786  -16.4901  -20.6703 C   0  0  0  0  0  0  0  0  0  0  0  0
   22.0005  -16.7857  -22.0061 C   0  0  0  0  0  0  0  0  0  0  0  0
   22.7018  -16.0433  -22.9328 C   0  0  0  0  0  0  0  0  0  0  0  0
   23.5426  -15.0494  -22.5191 C   0  0  0  0  0  0  0  0  0  0  0  0
   23.7151  -14.7603  -21.1852 C   0  0  0  0  0  0  0  0  0  0  0  0
   23.0179  -15.4966  -20.2378 C   0  0  0  0  0  0  0  0  0  0  0  0
   21.6384  -18.9369  -17.9323 C   0  0  0  0  0  0  0  0  0  0  0  0
   21.0896  -20.0652  -18.0540 O   0  0  0  0  0  0  0  0  0  0  0  0
   19.0765  -20.2526   -9.6920 O   0  0  0  0  0  0  0  0  0  0  0  0
   19.6927  -19.7359  -10.8273 C   0  0  0  0  0  0  0  0  0  0  0  0
   20.6484  -20.4417  -11.5254 C   0  0  0  0  0  0  0  0  0  0  0  0
   21.2329  -19.8922  -12.6442 C   0  0  0  0  0  0  0  0  0  0  0  0
   20.9084  -18.6398  -13.1213 C   0  0  0  0  0  0  0  0  0  0  0  0
   21.5701  -18.0986  -14.3309 C   0  0  0  0  0  0  0  0  0  0  0  0
   20.9649  -18.7912  -15.5581 C   0  0  2  0  0  0  0  0  0  0  0  0
   21.5833  -18.2159  -16.7074 N   0  0  0  0  0  0  0  0  0  0  0  0
   19.5055  -18.4579  -15.5994 C   0  0  0  0  0  0  0  0  0  0  0  0
   19.1473  -17.2762  -15.8266 O   0  0  0  0  0  0  0  0  0  0  0  0
   19.9507  -17.9298  -12.4238 C   0  0  0  0  0  0  0  0  0  0  0  0
   19.3583  -18.4814  -11.2936 C   0  0  0  0  0  0  0  0  0  0  0  0
   16.6212  -25.2693  -14.6119 O   0  0  0  0  0  0  0  0  0  0  0  0
   16.5707  -23.9540  -15.0706 C   0  0  0  0  0  0  0  0  0  0  0  0
   17.4490  -23.4682  -16.0235 C   0  0  0  0  0  0  0  0  0  0  0  0
   17.4068  -22.1722  -16.4820 C   0  0  0  0  0  0  0  0  0  0  0  0
   16.4664  -21.2977  -15.9947 C   0  0  0  0  0  0  0  0  0  0  0  0
   16.3687  -19.9000  -16.4335 C   0  0  0  0  0  0  0  0  0  0  0  0
   17.0987  -19.0054  -15.4611 C   0  0  2  0  0  0  0  0  0  0  0  0
   18.5084  -19.4358  -15.3898 N   0  0  0  0  0  0  0  0  0  0  0  0
   16.4647  -19.1204  -14.1338 C   0  0  0  0  0  0  0  0  0  0  0  0
   15.1964  -18.6971  -13.8353 O   0  0  0  0  0  0  0  0  0  0  0  0
   15.5775  -21.7443  -15.0478 C   0  0  0  0  0  0  0  0  0  0  0  0
   15.6410  -23.0457  -14.6058 C   0  0  0  0  0  0  0  0  0  0  0  0
   17.1297  -19.6407  -13.2013 O   0  0  0  0  0  0  0  0  0  0  0  0
  2  1  1  6
  3  2  1  0
  4  9  1  0
  4  3  1  0
  5  4  2  0
  6  7  2  0
  6  5  1  0
  7  8  1  0
  8  9  2  0
 10  2  1  0
 11 10  2  0
 12 13  1  0
 13 14  2  0
 14 15  1  0
 16 17  1  0
 16 15  2  0
 18 17  1  1
 18 19  1  0
 19 10  1  0
 20 21  2  0
 20 18  1  0
 22 16  1  0
 23 22  2  0
 23 13  1  0
 24 25  1  0
 25 35  2  0
 26 25  1  0
 26 27  2  0
 27 28  1  0
 28 34  2  0
 28 29  1  0
 30 29  1  6
 30 31  1  0
 31 20  1  0
 32 33  1  0
 32 30  1  0
 35 34  1  0
 36 32  2  0
M  END
$$$$
