FYY.pdb
     RDKit          3D

 36 38  0  0  1  0  0  0  0  0999 V2000
1595600.75001366971.50002439761.7500 N   0  0  0  0  0  0  0  0  0  0  0  0
1595599.87501366970.37502439762.2500 C   0  0  1  0  0  0  0  0  0  0  0  0
1595600.50001366969.37502439762.7500 C   0  0  0  0  0  0  0  0  0  0  0  0
1595601.62501366968.37502439762.5000 C   0  0  0  0  0  0  0  0  0  0  0  0
1595602.87501366969.25002439762.0000 C   0  0  0  0  0  0  0  0  0  0  0  0
1595603.62501366968.75002439761.2500 C   0  0  0  0  0  0  0  0  0  0  0  0
1595603.37501366967.50002439760.5000 C   0  0  0  0  0  0  0  0  0  0  0  0
1595602.12501366966.75002439760.7500 C   0  0  0  0  0  0  0  0  0  0  0  0
1595601.00001366967.75002439761.7500 C   0  0  0  0  0  0  0  0  0  0  0  0
1595598.87501366970.75002439763.0000 C   0  0  0  0  0  0  0  0  0  0  0  0
1595598.87501366971.50002439764.2500 O   0  0  0  0  0  0  0  0  0  0  0  0
1595599.37501366973.00002439757.5000 O   0  0  0  0  0  0  0  0  0  0  0  0
1595598.37501366972.87502439758.5000 C   0  0  0  0  0  0  0  0  0  0  0  0
1595598.25001366973.50002439759.2500 C   0  0  0  0  0  0  0  0  0  0  0  0
1595597.25001366973.12502439760.0000 C   0  0  0  0  0  0  0  0  0  0  0  0
1595596.37501366972.00002439760.0000 C   0  0  0  0  0  0  0  0  0  0  0  0
1595595.62501366971.62502439761.2500 C   0  0  0  0  0  0  0  0  0  0  0  0
1595596.50001366971.25002439762.7500 C   0  0  2  0  0  0  0  0  0  0  0  0
1595597.62501366970.50002439762.5000 N   0  0  0  0  0  0  0  0  0  0  0  0
1595595.75001366970.87502439764.0000 C   0  0  0  0  0  0  0  0  0  0  0  0
1595595.50001366969.62502439764.2500 O   0  0  0  0  0  0  0  0  0  0  0  0
1595596.62501366970.75002439759.5000 C   0  0  0  0  0  0  0  0  0  0  0  0
1595597.75001366971.37502439758.2500 C   0  0  0  0  0  0  0  0  0  0  0  0
1595597.50001366965.75002439765.2500 O   0  0  0  0  0  0  0  0  0  0  0  0
1595596.25001366967.00002439766.2500 C   0  0  0  0  0  0  0  0  0  0  0  0
1595595.12501366967.37502439765.2500 C   0  0  0  0  0  0  0  0  0  0  0  0
1595594.50001366968.00002439765.2500 C   0  0  0  0  0  0  0  0  0  0  0  0
1595594.50001366969.12502439766.5000 C   0  0  0  0  0  0  0  0  0  0  0  0
1595593.62501366970.25002439766.0000 C   0  0  0  0  0  0  0  0  0  0  0  0
1595593.37501366970.87502439765.2500 C   0  0  2  0  0  0  0  0  0  0  0  0
1595595.00001366971.37502439764.5000 N   0  0  0  0  0  0  0  0  0  0  0  0
1595592.25001366971.87502439765.7500 C   0  0  0  0  0  0  0  0  0  0  0  0
1595592.37501366973.12502439764.2500 O   0  0  0  0  0  0  0  0  0  0  0  0
1595595.62501366969.12502439767.5000 C   0  0  0  0  0  0  0  0  0  0  0  0
1595596.50001366967.75002439767.0000 C   0  0  0  0  0  0  0  0  0  0  0  0
1595591.87501366972.12502439766.2500 O   0  0  0  0  0  0  0  0  0  0  0  0
  2  1  1  1
  3  2  1  0
  4  9  1  0
  4  3  1  0
  5  4  2  0
  6  7  2  0
  6  5  1  0
  7  8  1  0
  8  9  2  0
 10  2  1  0
 11 10  2  0
 12 13  1  0
 13 14  2  0
 14 15  1  0
 16 17  1  0
 16 15  2  0
 18 17  1  6
 18 19  1  0
 19 10  1  0
 20 21  2  0
 20 18  1  0
 22 16  1  0
 23 22  2  0
 23 13  1  0
 24 25  1  0
 25 35  2  0
 26 25  1  0
 26 27  2  0
 27 28  1  0
 28 34  2  0
 28 29  1  0
 30 29  1  1
 30 31  1  0
 31 20  1  0
 32 33  1  0
 32 30  1  0
 35 34  1  0
 36 32  2  0
M  END
$$$$
