FYY.pdb
     RDKit          3D

 36 38  0  0  1  0  0  0  0  0999 V2000
   31.4824  -19.5680  -20.8229 N   0  0  0  0  0  0  0  0  0  0  0  0
   31.2530  -19.9936  -19.4592 C   0  0  1  0  0  0  0  0  0  0  0  0
   30.6894  -18.8722  -18.6104 C   0  0  0  0  0  0  0  0  0  0  0  0
   31.5506  -17.6786  -18.7944 C   0  0  0  0  0  0  0  0  0  0  0  0
   30.9245  -16.4748  -19.0435 C   0  0  0  0  0  0  0  0  0  0  0  0
   31.7142  -15.3576  -19.2164 C   0  0  0  0  0  0  0  0  0  0  0  0
   33.0741  -15.4617  -19.1394 C   0  0  0  0  0  0  0  0  0  0  0  0
   33.6914  -16.6657  -18.8907 C   0  0  0  0  0  0  0  0  0  0  0  0
   32.9134  -17.8012  -18.7139 C   0  0  0  0  0  0  0  0  0  0  0  0
   30.2748  -21.1109  -19.4019 C   0  0  0  0  0  0  0  0  0  0  0  0
   29.2702  -21.1778  -20.1603 O   0  0  0  0  0  0  0  0  0  0  0  0
   26.8301  -28.6477  -16.6133 O   0  0  0  0  0  0  0  0  0  0  0  0
   27.7112  -27.6036  -16.8762 C   0  0  0  0  0  0  0  0  0  0  0  0
   28.3739  -27.4919  -18.0791 C   0  0  0  0  0  0  0  0  0  0  0  0
   29.2375  -26.4421  -18.2971 C   0  0  0  0  0  0  0  0  0  0  0  0
   29.4853  -25.4669  -17.3542 C   0  0  0  0  0  0  0  0  0  0  0  0
   30.4251  -24.3593  -17.6437 C   0  0  0  0  0  0  0  0  0  0  0  0
   29.6255  -23.1985  -18.2478 C   0  0  2  0  0  0  0  0  0  0  0  0
   30.5367  -22.1165  -18.4307 N   0  0  0  0  0  0  0  0  0  0  0  0
   28.5987  -22.7768  -17.2425 C   0  0  0  0  0  0  0  0  0  0  0  0
   28.9511  -22.1008  -16.2449 O   0  0  0  0  0  0  0  0  0  0  0  0
   28.8225  -25.5760  -16.1473 C   0  0  0  0  0  0  0  0  0  0  0  0
   27.9498  -26.6347  -15.9237 C   0  0  0  0  0  0  0  0  0  0  0  0
   24.0312  -19.5270  -21.4134 O   0  0  0  0  0  0  0  0  0  0  0  0
   24.5560  -19.9232  -20.1842 C   0  0  0  0  0  0  0  0  0  0  0  0
   23.7518  -20.3023  -19.1236 C   0  0  0  0  0  0  0  0  0  0  0  0
   24.2606  -20.6945  -17.9076 C   0  0  0  0  0  0  0  0  0  0  0  0
   25.6187  -20.7222  -17.7038 C   0  0  0  0  0  0  0  0  0  0  0  0
   26.2296  -21.1228  -16.4303 C   0  0  0  0  0  0  0  0  0  0  0  0
   26.2994  -22.6285  -16.3466 C   0  0  2  0  0  0  0  0  0  0  0  0
   27.2346  -23.1163  -17.3786 N   0  0  0  0  0  0  0  0  0  0  0  0
   24.9526  -23.1852  -16.5776 C   0  0  0  0  0  0  0  0  0  0  0  0
   23.8698  -22.9707  -15.7663 O   0  0  0  0  0  0  0  0  0  0  0  0
   26.4485  -20.3527  -18.7338 C   0  0  0  0  0  0  0  0  0  0  0  0
   25.9141  -19.9644  -19.9408 C   0  0  0  0  0  0  0  0  0  0  0  0
   24.7765  -23.9132  -17.5882 O   0  0  0  0  0  0  0  0  0  0  0  0
  2  1  1  6
  3  2  1  0
  4  9  1  0
  4  3  1  0
  5  4  2  0
  6  7  2  0
  6  5  1  0
  7  8  1  0
  8  9  2  0
 10  2  1  0
 11 10  2  0
 12 13  1  0
 13 14  2  0
 14 15  1  0
 16 17  1  0
 16 15  2  0
 18 17  1  1
 18 19  1  0
 19 10  1  0
 20 21  2  0
 20 18  1  0
 22 16  1  0
 23 22  2  0
 23 13  1  0
 24 25  1  0
 25 35  2  0
 26 25  1  0
 26 27  2  0
 27 28  1  0
 28 34  2  0
 28 29  1  0
 30 29  1  6
 30 31  1  0
 31 20  1  0
 32 33  1  0
 32 30  1  0
 35 34  1  0
 36 32  2  0
M  END
$$$$
