FYY.pdb
     RDKit          3D

 36 38  0  0  1  0  0  0  0  0999 V2000
   26.4143  -20.0515  -19.8482 N   0  0  0  0  0  0  0  0  0  0  0  0
   25.5782  -20.8653  -18.9925 C   0  0  1  0  0  0  0  0  0  0  0  0
   24.1483  -20.9150  -19.4908 C   0  0  0  0  0  0  0  0  0  0  0  0
   23.6069  -19.5341  -19.4735 C   0  0  0  0  0  0  0  0  0  0  0  0
   23.3391  -18.9712  -18.2428 C   0  0  0  0  0  0  0  0  0  0  0  0
   22.8356  -17.6878  -18.2132 C   0  0  0  0  0  0  0  0  0  0  0  0
   22.6158  -17.0116  -19.3796 C   0  0  0  0  0  0  0  0  0  0  0  0
   22.8852  -17.5794  -20.6033 C   0  0  0  0  0  0  0  0  0  0  0  0
   23.3925  -18.8702  -20.6532 C   0  0  0  0  0  0  0  0  0  0  0  0
   26.0657  -22.2682  -18.9412 C   0  0  0  0  0  0  0  0  0  0  0  0
   26.9232  -22.7225  -19.7458 O   0  0  0  0  0  0  0  0  0  0  0  0
   27.6436  -30.1650  -15.7009 O   0  0  0  0  0  0  0  0  0  0  0  0
   27.2089  -28.8520  -15.8510 C   0  0  0  0  0  0  0  0  0  0  0  0
   28.0902  -27.7996  -15.9719 C   0  0  0  0  0  0  0  0  0  0  0  0
   27.6164  -26.5153  -16.1187 C   0  0  0  0  0  0  0  0  0  0  0  0
   26.2719  -26.2113  -16.1527 C   0  0  0  0  0  0  0  0  0  0  0  0
   25.8191  -24.8103  -16.3129 C   0  0  0  0  0  0  0  0  0  0  0  0
   25.8792  -24.4551  -17.8035 C   0  0  2  0  0  0  0  0  0  0  0  0
   25.5047  -23.0838  -17.9198 N   0  0  0  0  0  0  0  0  0  0  0  0
   24.8502  -25.2800  -18.5132 C   0  0  0  0  0  0  0  0  0  0  0  0
   24.9777  -26.5284  -18.5518 O   0  0  0  0  0  0  0  0  0  0  0  0
   25.3858  -27.2641  -16.0317 C   0  0  0  0  0  0  0  0  0  0  0  0
   25.8606  -28.5622  -15.8834 C   0  0  0  0  0  0  0  0  0  0  0  0
   20.1540  -25.9068  -14.0892 O   0  0  0  0  0  0  0  0  0  0  0  0
   20.4502  -25.7329  -15.4401 C   0  0  0  0  0  0  0  0  0  0  0  0
   20.3042  -26.7504  -16.3668 C   0  0  0  0  0  0  0  0  0  0  0  0
   20.5939  -26.5881  -17.7015 C   0  0  0  0  0  0  0  0  0  0  0  0
   21.0493  -25.3787  -18.1671 C   0  0  0  0  0  0  0  0  0  0  0  0
   21.3845  -25.1375  -19.5760 C   0  0  0  0  0  0  0  0  0  0  0  0
   22.7963  -25.5950  -19.8525 C   0  0  2  0  0  0  0  0  0  0  0  0
   23.7307  -24.6970  -19.1468 N   0  0  0  0  0  0  0  0  0  0  0  0
   23.0419  -25.5427  -21.3064 C   0  0  0  0  0  0  0  0  0  0  0  0
   22.3019  -26.2089  -22.2474 O   0  0  0  0  0  0  0  0  0  0  0  0
   21.2066  -24.3452  -17.2765 C   0  0  0  0  0  0  0  0  0  0  0  0
   20.9096  -24.5336  -15.9462 C   0  0  0  0  0  0  0  0  0  0  0  0
   23.9996  -24.8409  -21.7218 O   0  0  0  0  0  0  0  0  0  0  0  0
  2  1  1  6
  3  2  1  0
  4  9  1  0
  4  3  1  0
  5  4  2  0
  6  7  2  0
  6  5  1  0
  7  8  1  0
  8  9  2  0
 10  2  1  0
 11 10  2  0
 12 13  1  0
 13 14  2  0
 14 15  1  0
 16 17  1  0
 16 15  2  0
 18 17  1  1
 18 19  1  0
 19 10  1  0
 20 21  2  0
 20 18  1  0
 22 16  1  0
 23 22  2  0
 23 13  1  0
 24 25  1  0
 25 35  2  0
 26 25  1  0
 26 27  2  0
 27 28  1  0
 28 34  2  0
 28 29  1  0
 30 29  1  6
 30 31  1  0
 31 20  1  0
 32 33  1  0
 32 30  1  0
 35 34  1  0
 36 32  2  0
M  END
$$$$
