FYY.pdb
     RDKit          3D

 36 38  0  0  1  0  0  0  0  0999 V2000
   25.6999  -19.0765   -8.1530 N   0  0  0  0  0  0  0  0  0  0  0  0
   26.7051  -19.8558   -8.8428 C   0  0  1  0  0  0  0  0  0  0  0  0
   26.9199  -21.2023   -8.1823 C   0  0  0  0  0  0  0  0  0  0  0  0
   27.5454  -20.9701   -6.8574 C   0  0  0  0  0  0  0  0  0  0  0  0
   28.9079  -20.7559   -6.8261 C   0  0  0  0  0  0  0  0  0  0  0  0
   29.5014  -20.5387   -5.6004 C   0  0  0  0  0  0  0  0  0  0  0  0
   28.7443  -20.5397   -4.4633 C   0  0  0  0  0  0  0  0  0  0  0  0
   27.3860  -20.7540   -4.5024 C   0  0  0  0  0  0  0  0  0  0  0  0
   26.7708  -20.9745   -5.7267 C   0  0  0  0  0  0  0  0  0  0  0  0
   26.3059  -20.1244  -10.2489 C   0  0  0  0  0  0  0  0  0  0  0  0
   25.1115  -20.3381  -10.5902 O   0  0  0  0  0  0  0  0  0  0  0  0
   27.5995  -18.3799  -18.7291 O   0  0  0  0  0  0  0  0  0  0  0  0
   27.8141  -18.6720  -17.3859 C   0  0  0  0  0  0  0  0  0  0  0  0
   28.1976  -19.9261  -16.9630 C   0  0  0  0  0  0  0  0  0  0  0  0
   28.3992  -20.1716  -15.6234 C   0  0  0  0  0  0  0  0  0  0  0  0
   28.2349  -19.2076  -14.6513 C   0  0  0  0  0  0  0  0  0  0  0  0
   28.4659  -19.5285  -13.2239 C   0  0  0  0  0  0  0  0  0  0  0  0
   27.1045  -19.7749  -12.5623 C   0  0  2  0  0  0  0  0  0  0  0  0
   27.3599  -20.1273  -11.2040 N   0  0  0  0  0  0  0  0  0  0  0  0
   26.4730  -20.9530  -13.2375 C   0  0  0  0  0  0  0  0  0  0  0  0
   26.9748  -22.0940  -13.0875 O   0  0  0  0  0  0  0  0  0  0  0  0
   27.8505  -17.9493  -15.0721 C   0  0  0  0  0  0  0  0  0  0  0  0
   27.6460  -17.6977  -16.4239 C   0  0  0  0  0  0  0  0  0  0  0  0
   19.5066  -19.4923  -12.2559 O   0  0  0  0  0  0  0  0  0  0  0  0
   20.5972  -20.2871  -12.6053 C   0  0  0  0  0  0  0  0  0  0  0  0
   21.8934  -19.9664  -12.2417 C   0  0  0  0  0  0  0  0  0  0  0  0
   22.9754  -20.7443  -12.5818 C   0  0  0  0  0  0  0  0  0  0  0  0
   22.7971  -21.8936  -13.3125 C   0  0  0  0  0  0  0  0  0  0  0  0
   23.9064  -22.7664  -13.7163 C   0  0  0  0  0  0  0  0  0  0  0  0
   24.7988  -22.0416  -14.6947 C   0  0  2  0  0  0  0  0  0  0  0  0
   25.3215  -20.8241  -14.0451 N   0  0  0  0  0  0  0  0  0  0  0  0
   24.0099  -21.6816  -15.8884 C   0  0  0  0  0  0  0  0  0  0  0  0
   23.4526  -22.5829  -16.7566 O   0  0  0  0  0  0  0  0  0  0  0  0
   21.5244  -22.2442  -13.6914 C   0  0  0  0  0  0  0  0  0  0  0  0
   20.4588  -21.4486  -13.3381 C   0  0  0  0  0  0  0  0  0  0  0  0
   23.8331  -20.4612  -16.1373 O   0  0  0  0  0  0  0  0  0  0  0  0
  2  1  1  1
  3  2  1  0
  4  9  1  0
  4  3  1  0
  5  4  2  0
  6  7  2  0
  6  5  1  0
  7  8  1  0
  8  9  2  0
 10  2  1  0
 11 10  2  0
 12 13  1  0
 13 14  2  0
 14 15  1  0
 16 17  1  0
 16 15  2  0
 18 17  1  6
 18 19  1  0
 19 10  1  0
 20 21  2  0
 20 18  1  0
 22 16  1  0
 23 22  2  0
 23 13  1  0
 24 25  1  0
 25 35  2  0
 26 25  1  0
 26 27  2  0
 27 28  1  0
 28 34  2  0
 28 29  1  0
 30 29  1  1
 30 31  1  0
 31 20  1  0
 32 33  1  0
 32 30  1  0
 35 34  1  0
 36 32  2  0
M  END
$$$$
