QWK.pdb
     RDKit          3D

 33 34  0  0  1  0  0  0  0  0999 V2000
    7.8366  -14.7733   17.5582 N   0  0  0  0  0  0  0  0  0  0  0  0
    7.7779  -13.8802   18.6821 C   0  0  0  0  0  0  0  0  0  0  0  0
    7.9444  -12.6659   18.5042 O   0  0  0  0  0  0  0  0  0  0  0  0
    7.5256  -14.4524   20.0029 C   0  0  0  0  0  0  0  0  0  0  0  0
    8.7781  -14.7645   20.7365 C   0  0  0  0  0  0  0  0  0  0  0  0
    8.8341  -16.1208   21.3514 C   0  0  2  0  0  0  0  0  0  0  0  0
    7.5798  -16.8215   21.4123 N   0  0  0  0  0  0  0  0  0  0  0  0
    9.3506  -16.0260   22.7609 C   0  0  0  0  0  0  0  0  0  0  0  0
   10.4080  -15.4005   23.0094 O   0  0  0  0  0  0  0  0  0  0  0  0
    8.6474  -16.6435   23.8278 N   0  0  0  0  0  0  0  0  0  0  0  0
    9.0646  -16.5894   25.2043 C   0  0  1  0  0  0  0  0  0  0  0  0
    7.9818  -16.2577   26.1743 C   0  0  0  0  0  0  0  0  0  0  0  0
    7.1468  -15.0931   25.8274 C   0  0  0  0  0  0  0  0  0  0  0  0
    5.9468  -15.1069   25.1284 C   0  0  0  0  0  0  0  0  0  0  0  0
    5.5010  -13.8527   24.9949 N   0  0  0  0  0  0  0  0  0  0  0  0
    6.3717  -13.0042   25.5868 C   0  0  0  0  0  0  0  0  0  0  0  0
    6.4003  -11.6347   25.7497 C   0  0  0  0  0  0  0  0  0  0  0  0
    7.4356  -11.0238   26.4230 C   0  0  0  0  0  0  0  0  0  0  0  0
    8.4630  -11.7555   26.9487 C   0  0  0  0  0  0  0  0  0  0  0  0
    8.4241  -13.1273   26.7790 C   0  0  0  0  0  0  0  0  0  0  0  0
    7.3958  -13.7675   26.1059 C   0  0  0  0  0  0  0  0  0  0  0  0
    9.8327  -17.8155   25.5446 C   0  0  0  0  0  0  0  0  0  0  0  0
    9.2973  -18.9555   25.4066 O   0  0  0  0  0  0  0  0  0  0  0  0
   11.1656  -17.8070   26.0268 N   0  0  0  0  0  0  0  0  0  0  0  0
   11.8419  -19.0352   26.3514 C   0  0  1  0  0  0  0  0  0  0  0  0
   13.2710  -18.9309   25.8113 C   0  0  0  0  0  0  0  0  0  0  0  0
   13.4140  -19.8292   24.6295 C   0  0  0  0  0  0  0  0  0  0  0  0
   14.7576  -19.8775   24.0070 C   0  0  0  0  0  0  0  0  0  0  0  0
   14.8676  -20.7545   22.8107 C   0  0  0  0  0  0  0  0  0  0  0  0
   16.1813  -20.7633   22.2206 N   0  0  0  0  0  0  0  0  0  0  0  0
   11.8497  -19.1937   27.8249 C   0  0  0  0  0  0  0  0  0  0  0  0
   12.4852  -20.1391   28.3727 O   0  0  0  0  0  0  0  0  0  0  0  0
   11.1690  -18.3231   28.6617 O   0  0  0  0  0  0  0  0  0  0  0  0
  2  3  2  0
  2  1  1  0
  4  2  1  0
  5  4  1  0
  5  6  1  0
  6  7  1  1
  8  9  2  0
  8  6  1  0
 10  8  1  0
 11 12  1  1
 11 10  1  0
 13 12  1  0
 13 14  2  0
 15 14  1  0
 16 15  1  0
 17 16  2  0
 18 17  1  0
 19 18  2  0
 19 20  1  0
 20 21  2  0
 21 16  1  0
 21 13  1  0
 22 11  1  0
 23 22  2  0
 24 22  1  0
 25 24  1  0
 25 26  1  1
 27 26  1  0
 28 29  1  0
 28 27  1  0
 30 29  1  0
 31 25  1  0
 31 33  1  0
 32 31  2  0
M  END
$$$$
