QWK.pdb
     RDKit          3D

 33 34  0  0  1  0  0  0  0  0999 V2000
    8.6844  -12.5757   18.6622 N   0  0  0  0  0  0  0  0  0  0  0  0
    8.0976  -13.7544   18.0870 C   0  0  0  0  0  0  0  0  0  0  0  0
    7.3819  -13.6496   17.0817 O   0  0  0  0  0  0  0  0  0  0  0  0
    8.3715  -15.0404   18.7248 C   0  0  0  0  0  0  0  0  0  0  0  0
    9.1955  -14.9028   19.9521 C   0  0  0  0  0  0  0  0  0  0  0  0
    9.5398  -16.1824   20.6339 C   0  0  2  0  0  0  0  0  0  0  0  0
    8.6010  -17.2545   20.4418 N   0  0  0  0  0  0  0  0  0  0  0  0
    9.6527  -15.9610   22.1175 C   0  0  0  0  0  0  0  0  0  0  0  0
   10.3748  -15.0415   22.5696 O   0  0  0  0  0  0  0  0  0  0  0  0
    8.9429  -16.7901   23.0246 N   0  0  0  0  0  0  0  0  0  0  0  0
    9.0709  -16.7107   24.4560 C   0  0  1  0  0  0  0  0  0  0  0  0
    7.7921  -16.4799   25.1872 C   0  0  0  0  0  0  0  0  0  0  0  0
    7.1446  -15.1770   24.9482 C   0  0  0  0  0  0  0  0  0  0  0  0
    6.2232  -14.8744   23.9541 C   0  0  0  0  0  0  0  0  0  0  0  0
    5.8813  -13.5846   24.0489 N   0  0  0  0  0  0  0  0  0  0  0  0
    6.5500  -13.0203   25.0799 C   0  0  0  0  0  0  0  0  0  0  0  0
    6.5697  -11.7497   25.6166 C   0  0  0  0  0  0  0  0  0  0  0  0
    7.3615  -11.4533   26.7044 C   0  0  0  0  0  0  0  0  0  0  0  0
    8.1496  -12.4079   27.2831 C   0  0  0  0  0  0  0  0  0  0  0  0
    8.1221  -13.6779   26.7366 C   0  0  0  0  0  0  0  0  0  0  0  0
    7.3359  -14.0033   25.6429 C   0  0  0  0  0  0  0  0  0  0  0  0
    9.8573  -17.8691   24.9547 C   0  0  0  0  0  0  0  0  0  0  0  0
    9.5197  -19.0475   24.6339 O   0  0  0  0  0  0  0  0  0  0  0  0
   10.9969  -17.7526   25.7896 N   0  0  0  0  0  0  0  0  0  0  0  0
   11.6622  -18.9224   26.2994 C   0  0  1  0  0  0  0  0  0  0  0  0
   13.1617  -18.7485   26.0423 C   0  0  0  0  0  0  0  0  0  0  0  0
   13.8905  -19.9345   26.5777 C   0  0  0  0  0  0  0  0  0  0  0  0
   15.3653  -19.9097   26.4388 C   0  0  0  0  0  0  0  0  0  0  0  0
   16.0646  -21.1326   26.9162 C   0  0  0  0  0  0  0  0  0  0  0  0
   17.4591  -21.1765   26.5588 N   0  0  0  0  0  0  0  0  0  0  0  0
   11.3889  -19.0243   27.7524 C   0  0  0  0  0  0  0  0  0  0  0  0
   11.1295  -17.9945   28.4379 O   0  0  0  0  0  0  0  0  0  0  0  0
   11.4041  -20.2390   28.4202 O   0  0  0  0  0  0  0  0  0  0  0  0
  2  3  2  0
  2  1  1  0
  4  2  1  0
  5  4  1  0
  5  6  1  0
  6  7  1  1
  8  9  2  0
  8  6  1  0
 10  8  1  0
 11 12  1  1
 11 10  1  0
 13 12  1  0
 13 14  2  0
 15 14  1  0
 16 15  1  0
 17 16  2  0
 18 17  1  0
 19 18  2  0
 19 20  1  0
 20 21  2  0
 21 16  1  0
 21 13  1  0
 22 11  1  0
 23 22  2  0
 24 22  1  0
 25 24  1  0
 25 26  1  1
 27 26  1  0
 28 29  1  0
 28 27  1  0
 30 29  1  0
 31 25  1  0
 31 33  1  0
 32 31  2  0
M  END
$$$$
