QWK.pdb
     RDKit          3D

 33 34  0  0  1  0  0  0  0  0999 V2000
    8.9082  -12.8509   19.3448 N   0  0  0  0  0  0  0  0  0  0  0  0
    7.9157  -13.8333   19.0068 C   0  0  0  0  0  0  0  0  0  0  0  0
    7.2979  -13.7320   17.9382 O   0  0  0  0  0  0  0  0  0  0  0  0
    7.6734  -14.9200   19.9534 C   0  0  0  0  0  0  0  0  0  0  0  0
    8.6112  -14.8920   21.1040 C   0  0  0  0  0  0  0  0  0  0  0  0
    9.0517  -16.2271   21.5983 C   0  0  2  0  0  0  0  0  0  0  0  0
    8.0736  -17.2760   21.4933 N   0  0  0  0  0  0  0  0  0  0  0  0
    9.4412  -16.1363   23.0483 C   0  0  0  0  0  0  0  0  0  0  0  0
   10.2558  -15.2653   23.4341 O   0  0  0  0  0  0  0  0  0  0  0  0
    8.8911  -17.0355   23.9986 N   0  0  0  0  0  0  0  0  0  0  0  0
    9.1544  -16.9725   25.4122 C   0  0  1  0  0  0  0  0  0  0  0  0
    7.9813  -16.5948   26.2515 C   0  0  0  0  0  0  0  0  0  0  0  0
    7.2493  -15.3890   25.8224 C   0  0  0  0  0  0  0  0  0  0  0  0
    6.1441  -15.3399   24.9828 C   0  0  0  0  0  0  0  0  0  0  0  0
    5.7761  -14.0649   24.8141 N   0  0  0  0  0  0  0  0  0  0  0  0
    6.6064  -13.2637   25.5192 C   0  0  0  0  0  0  0  0  0  0  0  0
    6.6780  -11.8985   25.7039 C   0  0  0  0  0  0  0  0  0  0  0  0
    7.6504  -11.3432   26.5064 C   0  0  0  0  0  0  0  0  0  0  0  0
    8.5713  -12.1272   27.1425 C   0  0  0  0  0  0  0  0  0  0  0  0
    8.4902  -13.4942   26.9499 C   0  0  0  0  0  0  0  0  0  0  0  0
    7.5232  -14.0792   26.1479 C   0  0  0  0  0  0  0  0  0  0  0  0
    9.8424  -18.2149   25.8506 C   0  0  0  0  0  0  0  0  0  0  0  0
    9.2681  -19.3363   25.7167 O   0  0  0  0  0  0  0  0  0  0  0  0
   11.1377  -18.2426   26.4256 N   0  0  0  0  0  0  0  0  0  0  0  0
   11.6061  -19.4028   27.1365 C   0  0  1  0  0  0  0  0  0  0  0  0
   13.0961  -19.5651   26.8229 C   0  0  0  0  0  0  0  0  0  0  0  0
   13.2683  -19.7612   25.3545 C   0  0  0  0  0  0  0  0  0  0  0  0
   14.6651  -19.8491   24.8687 C   0  0  0  0  0  0  0  0  0  0  0  0
   14.8141  -19.9580   23.3928 C   0  0  0  0  0  0  0  0  0  0  0  0
   16.1844  -20.0285   22.9549 N   0  0  0  0  0  0  0  0  0  0  0  0
   11.3977  -19.1825   28.5872 C   0  0  0  0  0  0  0  0  0  0  0  0
   11.0547  -18.0490   29.0289 O   0  0  0  0  0  0  0  0  0  0  0  0
   11.5665  -20.1970   29.5167 O   0  0  0  0  0  0  0  0  0  0  0  0
  2  3  2  0
  2  1  1  0
  4  2  1  0
  5  4  1  0
  5  6  1  0
  6  7  1  1
  8  9  2  0
  8  6  1  0
 10  8  1  0
 11 12  1  1
 11 10  1  0
 13 12  1  0
 13 14  2  0
 15 14  1  0
 16 15  1  0
 17 16  2  0
 18 17  1  0
 19 18  2  0
 19 20  1  0
 20 21  2  0
 21 16  1  0
 21 13  1  0
 22 11  1  0
 23 22  2  0
 24 22  1  0
 25 24  1  0
 25 26  1  1
 27 26  1  0
 28 29  1  0
 28 27  1  0
 30 29  1  0
 31 25  1  0
 31 33  1  0
 32 31  2  0
M  END
$$$$
