QWK.pdb
     RDKit          3D

 33 34  0  0  1  0  0  0  0  0999 V2000
    7.7410  -13.1714   17.8862 N   0  0  0  0  0  0  0  0  0  0  0  0
    7.8260  -13.1858   19.3204 C   0  0  0  0  0  0  0  0  0  0  0  0
    8.0173  -12.1247   19.9297 O   0  0  0  0  0  0  0  0  0  0  0  0
    7.6856  -14.4694   20.0048 C   0  0  0  0  0  0  0  0  0  0  0  0
    8.9753  -15.1953   20.1228 C   0  0  0  0  0  0  0  0  0  0  0  0
    8.9065  -16.5030   20.8343 C   0  0  2  0  0  0  0  0  0  0  0  0
    7.5892  -17.0648   20.9639 N   0  0  0  0  0  0  0  0  0  0  0  0
    9.4601  -16.3616   22.2257 C   0  0  0  0  0  0  0  0  0  0  0  0
   10.5913  -15.8542   22.4110 O   0  0  0  0  0  0  0  0  0  0  0  0
    8.7089  -16.8007   23.3469 N   0  0  0  0  0  0  0  0  0  0  0  0
    9.1604  -16.6943   24.7095 C   0  0  1  0  0  0  0  0  0  0  0  0
    8.0821  -16.4454   25.7088 C   0  0  0  0  0  0  0  0  0  0  0  0
    7.1852  -15.3130   25.4136 C   0  0  0  0  0  0  0  0  0  0  0  0
    6.0493  -15.3361   24.6149 C   0  0  0  0  0  0  0  0  0  0  0  0
    5.5149  -14.1104   24.5744 N   0  0  0  0  0  0  0  0  0  0  0  0
    6.2643  -13.2718   25.3252 C   0  0  0  0  0  0  0  0  0  0  0  0
    6.1685  -11.9303   25.6318 C   0  0  0  0  0  0  0  0  0  0  0  0
    7.0942  -11.3244   26.4529 C   0  0  0  0  0  0  0  0  0  0  0  0
    8.1330  -12.0335   26.9872 C   0  0  0  0  0  0  0  0  0  0  0  0
    8.2192  -13.3773   26.6728 C   0  0  0  0  0  0  0  0  0  0  0  0
    7.3028  -14.0119   25.8494 C   0  0  0  0  0  0  0  0  0  0  0  0
   10.0413  -17.8456   25.0377 C   0  0  0  0  0  0  0  0  0  0  0  0
    9.6905  -19.0208   24.7194 O   0  0  0  0  0  0  0  0  0  0  0  0
   11.2881  -17.7253   25.7012 N   0  0  0  0  0  0  0  0  0  0  0  0
   12.0782  -18.8888   26.0062 C   0  0  1  0  0  0  0  0  0  0  0  0
   13.4515  -18.6964   25.3567 C   0  0  0  0  0  0  0  0  0  0  0  0
   14.3205  -19.8599   25.6964 C   0  0  0  0  0  0  0  0  0  0  0  0
   15.6952  -19.8288   25.1450 C   0  0  0  0  0  0  0  0  0  0  0  0
   16.5126  -21.0407   25.4194 C   0  0  0  0  0  0  0  0  0  0  0  0
   17.8612  -20.9519   24.9218 N   0  0  0  0  0  0  0  0  0  0  0  0
   12.2066  -18.9985   27.4786 C   0  0  0  0  0  0  0  0  0  0  0  0
   12.8328  -19.9617   28.0057 O   0  0  0  0  0  0  0  0  0  0  0  0
   11.6531  -18.0611   28.3368 O   0  0  0  0  0  0  0  0  0  0  0  0
  2  3  2  0
  2  1  1  0
  4  2  1  0
  5  4  1  0
  5  6  1  0
  6  7  1  1
  8  9  2  0
  8  6  1  0
 10  8  1  0
 11 12  1  1
 11 10  1  0
 13 12  1  0
 13 14  2  0
 15 14  1  0
 16 15  1  0
 17 16  2  0
 18 17  1  0
 19 18  2  0
 19 20  1  0
 20 21  2  0
 21 16  1  0
 21 13  1  0
 22 11  1  0
 23 22  2  0
 24 22  1  0
 25 24  1  0
 25 26  1  6
 27 26  1  0
 28 29  1  0
 28 27  1  0
 30 29  1  0
 31 25  1  0
 31 33  1  0
 32 31  2  0
M  END
$$$$
