QWK.pdb
     RDKit          3D

 33 34  0  0  1  0  0  0  0  0999 V2000
    8.6575  -12.5076   18.6056 N   0  0  0  0  0  0  0  0  0  0  0  0
    7.9219  -13.6839   18.2321 C   0  0  0  0  0  0  0  0  0  0  0  0
    7.7137  -13.9168   17.0337 O   0  0  0  0  0  0  0  0  0  0  0  0
    7.4420  -14.5620   19.2971 C   0  0  0  0  0  0  0  0  0  0  0  0
    8.3432  -14.5704   20.4770 C   0  0  0  0  0  0  0  0  0  0  0  0
    8.6573  -15.9189   21.0280 C   0  0  2  0  0  0  0  0  0  0  0  0
    7.5632  -16.8520   21.0332 N   0  0  0  0  0  0  0  0  0  0  0  0
    9.1334  -15.7959   22.4496 C   0  0  0  0  0  0  0  0  0  0  0  0
   10.0070  -14.9509   22.7562 O   0  0  0  0  0  0  0  0  0  0  0  0
    8.5997  -16.6350   23.4621 N   0  0  0  0  0  0  0  0  0  0  0  0
    8.9964  -16.5797   24.8446 C   0  0  1  0  0  0  0  0  0  0  0  0
    7.8834  -16.3350   25.8062 C   0  0  0  0  0  0  0  0  0  0  0  0
    7.1000  -15.1068   25.5789 C   0  0  0  0  0  0  0  0  0  0  0  0
    5.8521  -15.0140   24.9765 C   0  0  0  0  0  0  0  0  0  0  0  0
    5.4778  -13.7304   24.9352 N   0  0  0  0  0  0  0  0  0  0  0  0
    6.4428  -12.9659   25.4944 C   0  0  0  0  0  0  0  0  0  0  0  0
    6.5704  -11.6104   25.7163 C   0  0  0  0  0  0  0  0  0  0  0  0
    7.6902  -11.0968   26.3330 C   0  0  0  0  0  0  0  0  0  0  0  0
    8.7061  -11.9138   26.7428 C   0  0  0  0  0  0  0  0  0  0  0  0
    8.5675  -13.2706   26.5150 C   0  0  0  0  0  0  0  0  0  0  0  0
    7.4528  -13.8140   25.8965 C   0  0  0  0  0  0  0  0  0  0  0  0
    9.8368  -17.7607   25.1733 C   0  0  0  0  0  0  0  0  0  0  0  0
    9.3899  -18.9296   24.9746 O   0  0  0  0  0  0  0  0  0  0  0  0
   11.1464  -17.6768   25.7091 N   0  0  0  0  0  0  0  0  0  0  0  0
   11.8716  -18.8639   26.0778 C   0  0  1  0  0  0  0  0  0  0  0  0
   13.3648  -18.5516   25.9451 C   0  0  0  0  0  0  0  0  0  0  0  0
   14.1534  -19.7450   26.3671 C   0  0  0  0  0  0  0  0  0  0  0  0
   15.6272  -19.6009   26.3216 C   0  0  0  0  0  0  0  0  0  0  0  0
   16.3922  -20.8281   26.6695 C   0  0  0  0  0  0  0  0  0  0  0  0
   17.8075  -20.6042   26.8140 N   0  0  0  0  0  0  0  0  0  0  0  0
   11.5314  -19.2078   27.4787 C   0  0  0  0  0  0  0  0  0  0  0  0
   11.0403  -18.3428   28.2585 O   0  0  0  0  0  0  0  0  0  0  0  0
   11.7329  -20.4790   27.9934 O   0  0  0  0  0  0  0  0  0  0  0  0
  2  3  2  0
  2  1  1  0
  4  2  1  0
  5  4  1  0
  5  6  1  0
  6  7  1  1
  8  9  2  0
  8  6  1  0
 10  8  1  0
 11 12  1  1
 11 10  1  0
 13 12  1  0
 13 14  2  0
 15 14  1  0
 16 15  1  0
 17 16  2  0
 18 17  1  0
 19 18  2  0
 19 20  1  0
 20 21  2  0
 21 16  1  0
 21 13  1  0
 22 11  1  0
 23 22  2  0
 24 22  1  0
 25 24  1  0
 25 26  1  1
 27 26  1  0
 28 29  1  0
 28 27  1  0
 30 29  1  0
 31 25  1  0
 31 33  1  0
 32 31  2  0
M  END
$$$$
