QWK.pdb
     RDKit          3D

 33 34  0  0  1  0  0  0  0  0999 V2000
    8.5869  -12.3897   16.9445 N   0  0  0  0  0  0  0  0  0  0  0  0
    7.9676  -13.5879   16.4495 C   0  0  0  0  0  0  0  0  0  0  0  0
    7.0997  -13.5060   15.5698 O   0  0  0  0  0  0  0  0  0  0  0  0
    8.3917  -14.8663   17.0168 C   0  0  0  0  0  0  0  0  0  0  0  0
    9.4165  -14.7053   18.0789 C   0  0  0  0  0  0  0  0  0  0  0  0
    9.6312  -15.9010   18.9421 C   0  0  2  0  0  0  0  0  0  0  0  0
    8.6732  -16.9604   18.7758 N   0  0  0  0  0  0  0  0  0  0  0  0
    9.5945  -15.5023   20.3921 C   0  0  0  0  0  0  0  0  0  0  0  0
   10.3948  -14.6457   20.8360 O   0  0  0  0  0  0  0  0  0  0  0  0
    8.6531  -16.0906   21.2763 N   0  0  0  0  0  0  0  0  0  0  0  0
    8.5105  -15.7227   22.6605 C   0  0  1  0  0  0  0  0  0  0  0  0
    7.1485  -15.2547   23.0469 C   0  0  0  0  0  0  0  0  0  0  0  0
    6.9740  -14.8962   24.4664 C   0  0  0  0  0  0  0  0  0  0  0  0
    6.6292  -15.7510   25.5053 C   0  0  0  0  0  0  0  0  0  0  0  0
    6.5488  -15.0512   26.6425 N   0  0  0  0  0  0  0  0  0  0  0  0
    6.8313  -13.7534   26.3889 C   0  0  0  0  0  0  0  0  0  0  0  0
    6.9000  -12.6250   27.1793 C   0  0  0  0  0  0  0  0  0  0  0  0
    7.2301  -11.4015   26.6386 C   0  0  0  0  0  0  0  0  0  0  0  0
    7.4988  -11.2699   25.3052 C   0  0  0  0  0  0  0  0  0  0  0  0
    7.4265  -12.4076   24.5225 C   0  0  0  0  0  0  0  0  0  0  0  0
    7.0965  -13.6501   25.0398 C   0  0  0  0  0  0  0  0  0  0  0  0
    9.0515  -16.8034   23.5255 C   0  0  0  0  0  0  0  0  0  0  0  0
    8.6454  -17.9945   23.3775 O   0  0  0  0  0  0  0  0  0  0  0  0
   10.0223  -16.5970   24.5376 N   0  0  0  0  0  0  0  0  0  0  0  0
   10.5727  -17.7062   25.2709 C   0  0  1  0  0  0  0  0  0  0  0  0
   12.0227  -17.8871   24.8131 C   0  0  0  0  0  0  0  0  0  0  0  0
   12.6329  -19.0250   25.5596 C   0  0  0  0  0  0  0  0  0  0  0  0
   14.0296  -19.3648   25.2010 C   0  0  0  0  0  0  0  0  0  0  0  0
   14.6056  -20.5229   25.9353 C   0  0  0  0  0  0  0  0  0  0  0  0
   15.8777  -20.9585   25.4191 N   0  0  0  0  0  0  0  0  0  0  0  0
   10.5165  -17.3891   26.7175 C   0  0  0  0  0  0  0  0  0  0  0  0
   10.9604  -18.2016   27.5779 O   0  0  0  0  0  0  0  0  0  0  0  0
    9.9813  -16.2006   27.1895 O   0  0  0  0  0  0  0  0  0  0  0  0
  2  3  2  0
  2  1  1  0
  4  2  1  0
  5  4  1  0
  5  6  1  0
  6  7  1  1
  8  9  2  0
  8  6  1  0
 10  8  1  0
 11 12  1  1
 11 10  1  0
 13 12  1  0
 13 14  2  0
 15 14  1  0
 16 15  1  0
 17 16  2  0
 18 17  1  0
 19 18  2  0
 19 20  1  0
 20 21  2  0
 21 16  1  0
 21 13  1  0
 22 11  1  0
 23 22  2  0
 24 22  1  0
 25 24  1  0
 25 26  1  6
 27 26  1  0
 28 29  1  0
 28 27  1  0
 30 29  1  0
 31 25  1  0
 31 33  1  0
 32 31  2  0
M  END
$$$$
