HIA.pdb
     RDKit          3D

 24 24  0  0  1  0  0  0  0  0999 V2000
   28.2645  -20.9124  -15.4623 N   0  0  0  0  0  0  0  0  0  0  0  0
   27.2928  -20.0313  -14.8852 C   0  0  1  0  0  0  0  0  0  0  0  0
   26.6092  -19.1541  -15.8824 C   0  0  0  0  0  0  0  0  0  0  0  0
   27.5870  -18.2662  -16.5314 C   0  0  0  0  0  0  0  0  0  0  0  0
   28.1138  -17.0731  -16.0277 C   0  0  0  0  0  0  0  0  0  0  0  0
   28.9705  -16.5717  -16.9264 N   0  0  0  0  0  0  0  0  0  0  0  0
   28.9908  -17.4141  -17.9680 C   0  0  0  0  0  0  0  0  0  0  0  0
   28.1547  -18.4459  -17.7386 N   0  0  0  0  0  0  0  0  0  0  0  0
   26.2905  -20.7770  -14.0570 C   0  0  0  0  0  0  0  0  0  0  0  0
   25.7834  -21.8552  -14.4578 O   0  0  0  0  0  0  0  0  0  0  0  0
   26.3240  -20.6259   -8.5671 C   0  0  0  0  0  0  0  0  0  0  0  0
   26.2057  -21.2045   -9.9675 C   0  0  0  0  0  0  0  0  0  0  0  0
   24.9369  -20.6748  -10.5624 C   0  0  2  0  0  0  0  0  0  0  0  0
   23.7804  -21.3690   -9.8690 C   0  0  0  0  0  0  0  0  0  0  0  0
   24.8072  -20.9504  -12.0353 C   0  0  2  0  0  0  0  0  0  0  0  0
   25.8614  -20.3089  -12.7816 N   0  0  0  0  0  0  0  0  0  0  0  0
   23.5048  -20.5825  -12.5950 C   0  0  0  0  0  0  0  0  0  0  0  0
   23.1366  -19.3594  -12.6106 O   0  0  0  0  0  0  0  0  0  0  0  0
   20.8613  -22.1784  -14.6593 C   0  0  0  0  0  0  0  0  0  0  0  0
   21.2672  -21.1394  -13.6341 C   0  0  2  0  0  0  0  0  0  0  0  0
   22.5773  -21.5035  -13.1443 N   0  0  0  0  0  0  0  0  0  0  0  0
   20.2499  -21.1158  -12.5592 C   0  0  0  0  0  0  0  0  0  0  0  0
   20.4356  -21.8773  -11.5774 O   0  0  0  0  0  0  0  0  0  0  0  0
   19.1279  -20.3170  -12.5760 O   0  0  0  0  0  0  0  0  0  0  0  0
  2  1  1  6
  3  2  1  0
  4  3  1  0
  5  4  2  0
  6  5  1  0
  7  6  1  0
  7  8  2  0
  8  4  1  0
  9 10  2  0
  9  2  1  0
 11 12  1  0
 12 13  1  0
 13 15  1  0
 13 14  1  1
 15 16  1  6
 16  9  1  0
 17 15  1  0
 18 17  2  0
 20 19  1  6
 20 21  1  0
 21 17  1  0
 22 20  1  0
 23 22  2  0
 24 22  1  0
M  END
$$$$
