HIA.pdb
     RDKit          3D

 24 24  0  0  1  0  0  0  0  0999 V2000
   33.6035  -29.2604  -18.6341 N   0  0  0  0  0  0  0  0  0  0  0  0
   33.1944  -28.2725  -17.6799 C   0  0  1  0  0  0  0  0  0  0  0  0
   34.2456  -27.2545  -17.3799 C   0  0  0  0  0  0  0  0  0  0  0  0
   35.3909  -27.8904  -16.7094 C   0  0  0  0  0  0  0  0  0  0  0  0
   35.3688  -28.6649  -15.5456 C   0  0  0  0  0  0  0  0  0  0  0  0
   36.6194  -29.0550  -15.2687 N   0  0  0  0  0  0  0  0  0  0  0  0
   37.4133  -28.5480  -16.2215 C   0  0  0  0  0  0  0  0  0  0  0  0
   36.6778  -27.8395  -17.1009 N   0  0  0  0  0  0  0  0  0  0  0  0
   31.9117  -27.6100  -18.0828 C   0  0  0  0  0  0  0  0  0  0  0  0
   31.5467  -27.5680  -19.2850 O   0  0  0  0  0  0  0  0  0  0  0  0
   26.2597  -27.7717  -16.7899 C   0  0  0  0  0  0  0  0  0  0  0  0
   27.2794  -26.7618  -17.2900 C   0  0  0  0  0  0  0  0  0  0  0  0
   28.6383  -27.3448  -17.0496 C   0  0  2  0  0  0  0  0  0  0  0  0
   28.7923  -27.5481  -15.5546 C   0  0  0  0  0  0  0  0  0  0  0  0
   29.7604  -26.4493  -17.4982 C   0  0  2  0  0  0  0  0  0  0  0  0
   31.0436  -26.9971  -17.1337 N   0  0  0  0  0  0  0  0  0  0  0  0
   29.6499  -25.0720  -17.0129 C   0  0  0  0  0  0  0  0  0  0  0  0
   29.8111  -24.8151  -15.7720 O   0  0  0  0  0  0  0  0  0  0  0  0
   29.6972  -21.6943  -18.5370 C   0  0  0  0  0  0  0  0  0  0  0  0
   29.3492  -22.5850  -17.3619 C   0  0  2  0  0  0  0  0  0  0  0  0
   29.3678  -23.9509  -17.8340 N   0  0  0  0  0  0  0  0  0  0  0  0
   28.0212  -22.1853  -16.8449 C   0  0  0  0  0  0  0  0  0  0  0  0
   27.0316  -22.8602  -17.2237 O   0  0  0  0  0  0  0  0  0  0  0  0
   27.8138  -21.1300  -15.9843 O   0  0  0  0  0  0  0  0  0  0  0  0
  2  1  1  6
  3  2  1  0
  4  3  1  0
  5  4  2  0
  6  5  1  0
  7  6  1  0
  7  8  2  0
  8  4  1  0
  9 10  2  0
  9  2  1  0
 11 12  1  0
 12 13  1  0
 13 15  1  0
 13 14  1  1
 15 16  1  1
 16  9  1  0
 17 15  1  0
 18 17  2  0
 20 19  1  6
 20 21  1  0
 21 17  1  0
 22 20  1  0
 23 22  2  0
 24 22  1  0
M  END
$$$$
