HIA.pdb
     RDKit          3D

 24 24  0  0  1  0  0  0  0  0999 V2000
   14.9989  -25.6660   -6.0390 N   0  0  0  0  0  0  0  0  0  0  0  0
   16.0680  -25.7365   -5.0872 C   0  0  1  0  0  0  0  0  0  0  0  0
   17.2155  -24.8341   -5.4039 C   0  0  0  0  0  0  0  0  0  0  0  0
   17.7941  -25.1885   -6.7097 C   0  0  0  0  0  0  0  0  0  0  0  0
   17.8193  -24.4041   -7.8667 C   0  0  0  0  0  0  0  0  0  0  0  0
   18.4372  -25.0919   -8.8354 N   0  0  0  0  0  0  0  0  0  0  0  0
   18.7945  -26.2743   -8.3163 C   0  0  0  0  0  0  0  0  0  0  0  0
   18.4090  -26.3432   -7.0268 N   0  0  0  0  0  0  0  0  0  0  0  0
   15.5811  -25.5073   -3.6882 C   0  0  0  0  0  0  0  0  0  0  0  0
   14.6653  -24.6824   -3.4414 O   0  0  0  0  0  0  0  0  0  0  0  0
   15.9034  -29.7496   -0.9391 C   0  0  0  0  0  0  0  0  0  0  0  0
   15.0023  -28.5299   -1.0399 C   0  0  0  0  0  0  0  0  0  0  0  0
   15.7581  -27.3696   -0.4683 C   0  0  2  0  0  0  0  0  0  0  0  0
   15.2332  -27.1261    0.9336 C   0  0  0  0  0  0  0  0  0  0  0  0
   15.5719  -26.0947   -1.2445 C   0  0  2  0  0  0  0  0  0  0  0  0
   16.1248  -26.2057   -2.5717 N   0  0  0  0  0  0  0  0  0  0  0  0
   16.1130  -24.9093   -0.5762 C   0  0  0  0  0  0  0  0  0  0  0  0
   17.3764  -24.7589   -0.4621 O   0  0  0  0  0  0  0  0  0  0  0  0
   14.7949  -21.6197    0.5723 C   0  0  0  0  0  0  0  0  0  0  0  0
   15.8688  -22.6878    0.6081 C   0  0  2  0  0  0  0  0  0  0  0  0
   15.3246  -23.8696   -0.0212 N   0  0  0  0  0  0  0  0  0  0  0  0
   16.2502  -22.9250    2.0184 C   0  0  0  0  0  0  0  0  0  0  0  0
   15.8179  -23.9726    2.5608 O   0  0  0  0  0  0  0  0  0  0  0  0
   17.0411  -22.0734    2.7577 O   0  0  0  0  0  0  0  0  0  0  0  0
  2  1  1  6
  3  2  1  0
  4  3  1  0
  5  4  2  0
  6  5  1  0
  7  6  1  0
  7  8  2  0
  8  4  1  0
  9 10  2  0
  9  2  1  0
 11 12  1  0
 12 13  1  0
 13 15  1  0
 13 14  1  1
 15 16  1  6
 16  9  1  0
 17 15  1  0
 18 17  2  0
 20 19  1  1
 20 21  1  0
 21 17  1  0
 22 20  1  0
 23 22  2  0
 24 22  1  0
M  END
$$$$
