HIA.pdb
     RDKit          3D

 24 24  0  0  1  0  0  0  0  0999 V2000
   26.9060  -24.2494  -15.9018 N   0  0  0  0  0  0  0  0  0  0  0  0
   26.6529  -22.8593  -15.6619 C   0  0  1  0  0  0  0  0  0  0  0  0
   26.4214  -22.0667  -16.9067 C   0  0  0  0  0  0  0  0  0  0  0  0
   27.6427  -22.0430  -17.7274 C   0  0  0  0  0  0  0  0  0  0  0  0
   28.8834  -21.4966  -17.3854 C   0  0  0  0  0  0  0  0  0  0  0  0
   29.7280  -21.6823  -18.4078 N   0  0  0  0  0  0  0  0  0  0  0  0
   29.0516  -22.3247  -19.3695 C   0  0  0  0  0  0  0  0  0  0  0  0
   27.7850  -22.5484  -18.9668 N   0  0  0  0  0  0  0  0  0  0  0  0
   25.5313  -22.6599  -14.6878 C   0  0  0  0  0  0  0  0  0  0  0  0
   24.5301  -23.4201  -14.6785 O   0  0  0  0  0  0  0  0  0  0  0  0
   26.6668  -20.6467   -9.7435 C   0  0  0  0  0  0  0  0  0  0  0  0
   26.0986  -21.5383  -10.8353 C   0  0  0  0  0  0  0  0  0  0  0  0
   24.9998  -20.7736  -11.5077 C   0  0  2  0  0  0  0  0  0  0  0  0
   23.8406  -20.6842  -10.5338 C   0  0  0  0  0  0  0  0  0  0  0  0
   24.4866  -21.4381  -12.7557 C   0  0  2  0  0  0  0  0  0  0  0  0
   25.5384  -21.6073  -13.7277 N   0  0  0  0  0  0  0  0  0  0  0  0
   23.3475  -20.7509  -13.3679 C   0  0  0  0  0  0  0  0  0  0  0  0
   23.4403  -19.5180  -13.6892 O   0  0  0  0  0  0  0  0  0  0  0  0
   20.1253  -21.7030  -14.9460 C   0  0  0  0  0  0  0  0  0  0  0  0
   20.9733  -20.6677  -14.2359 C   0  0  2  0  0  0  0  0  0  0  0  0
   22.0976  -21.3593  -13.6472 N   0  0  0  0  0  0  0  0  0  0  0  0
   20.1360  -19.9880  -13.2222 C   0  0  0  0  0  0  0  0  0  0  0  0
   19.3439  -19.1034  -13.6325 O   0  0  0  0  0  0  0  0  0  0  0  0
   20.1768  -20.2678  -11.8741 O   0  0  0  0  0  0  0  0  0  0  0  0
  2  1  1  6
  3  2  1  0
  4  3  1  0
  5  4  2  0
  6  5  1  0
  7  6  1  0
  7  8  2  0
  8  4  1  0
  9 10  2  0
  9  2  1  0
 11 12  1  0
 12 13  1  0
 13 15  1  0
 13 14  1  1
 15 16  1  6
 16  9  1  0
 17 15  1  0
 18 17  2  0
 20 19  1  1
 20 21  1  0
 21 17  1  0
 22 20  1  0
 23 22  2  0
 24 22  1  0
M  END
$$$$
