HIA.pdb
     RDKit          3D

 24 24  0  0  1  0  0  0  0  0999 V2000
   27.9110  -19.5217  -17.6751 N   0  0  0  0  0  0  0  0  0  0  0  0
   26.9628  -18.7951  -16.8833 C   0  0  1  0  0  0  0  0  0  0  0  0
   26.0385  -17.9398  -17.6866 C   0  0  0  0  0  0  0  0  0  0  0  0
   26.8036  -16.9286  -18.4334 C   0  0  0  0  0  0  0  0  0  0  0  0
   26.8839  -16.7807  -19.8213 C   0  0  0  0  0  0  0  0  0  0  0  0
   27.6825  -15.7411  -20.0944 N   0  0  0  0  0  0  0  0  0  0  0  0
   28.0982  -15.2418  -18.9226 C   0  0  0  0  0  0  0  0  0  0  0  0
   27.5706  -15.9551  -17.9082 N   0  0  0  0  0  0  0  0  0  0  0  0
   26.1920  -19.7010  -15.9713 C   0  0  0  0  0  0  0  0  0  0  0  0
   25.4865  -20.6381  -16.4235 O   0  0  0  0  0  0  0  0  0  0  0  0
   28.2481  -20.8269  -11.0680 C   0  0  0  0  0  0  0  0  0  0  0  0
   27.6072  -21.0305  -12.4309 C   0  0  0  0  0  0  0  0  0  0  0  0
   26.1934  -20.5445  -12.3353 C   0  0  2  0  0  0  0  0  0  0  0  0
   25.4183  -21.5490  -11.5045 C   0  0  0  0  0  0  0  0  0  0  0  0
   25.5061  -20.4404  -13.6691 C   0  0  2  0  0  0  0  0  0  0  0  0
   26.2163  -19.5510  -14.5547 N   0  0  0  0  0  0  0  0  0  0  0  0
   24.1002  -20.0397  -13.5820 C   0  0  0  0  0  0  0  0  0  0  0  0
   23.7837  -18.9259  -13.0424 O   0  0  0  0  0  0  0  0  0  0  0  0
   20.8690  -20.9486  -15.1028 C   0  0  0  0  0  0  0  0  0  0  0  0
   21.6239  -20.4563  -13.8851 C   0  0  2  0  0  0  0  0  0  0  0  0
   23.0133  -20.8120  -14.0643 N   0  0  0  0  0  0  0  0  0  0  0  0
   21.0331  -21.0809  -12.6803 C   0  0  0  0  0  0  0  0  0  0  0  0
   21.5488  -22.1540  -12.2794 O   0  0  0  0  0  0  0  0  0  0  0  0
   19.9651  -20.5581  -11.9850 O   0  0  0  0  0  0  0  0  0  0  0  0
  2  1  1  6
  3  2  1  0
  4  3  1  0
  5  4  2  0
  6  5  1  0
  7  6  1  0
  7  8  2  0
  8  4  1  0
  9 10  2  0
  9  2  1  0
 11 12  1  0
 12 13  1  0
 13 15  1  0
 13 14  1  1
 15 16  1  6
 16  9  1  0
 17 15  1  0
 18 17  2  0
 20 19  1  6
 20 21  1  0
 21 17  1  0
 22 20  1  0
 23 22  2  0
 24 22  1  0
M  END
$$$$
