HIA.pdb
     RDKit          3D

 24 24  0  0  1  0  0  0  0  0999 V2000
   24.7636  -31.8824  -10.1161 N   0  0  0  0  0  0  0  0  0  0  0  0
   25.6233  -32.9678  -10.4858 C   0  0  1  0  0  0  0  0  0  0  0  0
   25.5423  -34.1401   -9.5637 C   0  0  0  0  0  0  0  0  0  0  0  0
   26.0138  -33.7633   -8.2215 C   0  0  0  0  0  0  0  0  0  0  0  0
   25.2337  -33.3934   -7.1218 C   0  0  0  0  0  0  0  0  0  0  0  0
   26.0469  -33.1278   -6.0916 N   0  0  0  0  0  0  0  0  0  0  0  0
   27.3025  -33.3210   -6.5173 C   0  0  0  0  0  0  0  0  0  0  0  0
   27.2937  -33.7068   -7.8086 N   0  0  0  0  0  0  0  0  0  0  0  0
   25.4016  -33.3918  -11.9063 C   0  0  0  0  0  0  0  0  0  0  0  0
   24.3177  -33.1558  -12.4977 O   0  0  0  0  0  0  0  0  0  0  0  0
   28.9143  -31.8695  -15.3571 C   0  0  0  0  0  0  0  0  0  0  0  0
   27.5993  -32.2596  -14.7025 C   0  0  0  0  0  0  0  0  0  0  0  0
   27.4706  -33.7480  -14.8145 C   0  0  2  0  0  0  0  0  0  0  0  0
   27.2887  -34.0835  -16.2823 C   0  0  0  0  0  0  0  0  0  0  0  0
   26.2822  -34.3018  -14.0773 C   0  0  2  0  0  0  0  0  0  0  0  0
   26.3982  -34.0793  -12.6572 N   0  0  0  0  0  0  0  0  0  0  0  0
   26.0292  -35.7200  -14.3410 C   0  0  0  0  0  0  0  0  0  0  0  0
   26.8376  -36.6071  -13.9035 O   0  0  0  0  0  0  0  0  0  0  0  0
   23.2086  -37.7668  -15.6746 C   0  0  0  0  0  0  0  0  0  0  0  0
   24.6735  -37.6187  -15.3179 C   0  0  2  0  0  0  0  0  0  0  0  0
   24.9188  -36.2161  -15.0700 N   0  0  0  0  0  0  0  0  0  0  0  0
   25.4864  -38.1438  -16.4378 C   0  0  0  0  0  0  0  0  0  0  0  0
   25.8324  -37.3268  -17.3274 O   0  0  0  0  0  0  0  0  0  0  0  0
   25.8784  -39.4589  -16.5566 O   0  0  0  0  0  0  0  0  0  0  0  0
  2  1  1  1
  3  2  1  0
  4  3  1  0
  5  4  2  0
  6  5  1  0
  7  6  1  0
  7  8  2  0
  8  4  1  0
  9 10  2  0
  9  2  1  0
 11 12  1  0
 12 13  1  0
 13 15  1  0
 13 14  1  6
 15 16  1  1
 16  9  1  0
 17 15  1  0
 18 17  2  0
 20 19  1  6
 20 21  1  0
 21 17  1  0
 22 20  1  0
 23 22  2  0
 24 22  1  0
M  END
$$$$
