HIA.pdb
     RDKit          3D

 24 24  0  0  1  0  0  0  0  0999 V2000
   28.0151  -21.7025  -15.9734 N   0  0  0  0  0  0  0  0  0  0  0  0
   27.1323  -20.6543  -15.5542 C   0  0  1  0  0  0  0  0  0  0  0  0
   26.5564  -19.8652  -16.6843 C   0  0  0  0  0  0  0  0  0  0  0  0
   27.6301  -19.1887  -17.4295 C   0  0  0  0  0  0  0  0  0  0  0  0
   27.9928  -19.3911  -18.7645 C   0  0  0  0  0  0  0  0  0  0  0  0
   29.0169  -18.5791  -19.0563 N   0  0  0  0  0  0  0  0  0  0  0  0
   29.2990  -17.8822  -17.9474 C   0  0  0  0  0  0  0  0  0  0  0  0
   28.4633  -18.2445  -16.9541 N   0  0  0  0  0  0  0  0  0  0  0  0
   26.0472  -21.1686  -14.6570 C   0  0  0  0  0  0  0  0  0  0  0  0
   25.3648  -22.1774  -14.9680 O   0  0  0  0  0  0  0  0  0  0  0  0
   26.3435  -20.5208   -9.1759 C   0  0  0  0  0  0  0  0  0  0  0  0
   26.1658  -21.1556  -10.5453 C   0  0  0  0  0  0  0  0  0  0  0  0
   24.9004  -20.6066  -11.1297 C   0  0  2  0  0  0  0  0  0  0  0  0
   23.7442  -21.1495  -10.3121 C   0  0  0  0  0  0  0  0  0  0  0  0
   24.6731  -21.0207  -12.5577 C   0  0  2  0  0  0  0  0  0  0  0  0
   25.7329  -20.5477  -13.4138 N   0  0  0  0  0  0  0  0  0  0  0  0
   23.3753  -20.6073  -13.0956 C   0  0  0  0  0  0  0  0  0  0  0  0
   23.0686  -19.3683  -13.1475 O   0  0  0  0  0  0  0  0  0  0  0  0
   20.6329  -22.1020  -15.0858 C   0  0  0  0  0  0  0  0  0  0  0  0
   21.0855  -21.0858  -14.0574 C   0  0  2  0  0  0  0  0  0  0  0  0
   22.3872  -21.4990  -13.5846 N   0  0  0  0  0  0  0  0  0  0  0  0
   20.0811  -21.0354  -12.9714 C   0  0  0  0  0  0  0  0  0  0  0  0
   20.3072  -21.7294  -11.9488 O   0  0  0  0  0  0  0  0  0  0  0  0
   18.9297  -20.2809  -13.0194 O   0  0  0  0  0  0  0  0  0  0  0  0
  2  1  1  6
  3  2  1  0
  4  3  1  0
  5  4  2  0
  6  5  1  0
  7  6  1  0
  7  8  2  0
  8  4  1  0
  9 10  2  0
  9  2  1  0
 11 12  1  0
 12 13  1  0
 13 15  1  0
 13 14  1  1
 15 16  1  6
 16  9  1  0
 17 15  1  0
 18 17  2  0
 20 19  1  6
 20 21  1  0
 21 17  1  0
 22 20  1  0
 23 22  2  0
 24 22  1  0
M  END
$$$$
