HIA.pdb
     RDKit          3D

 24 24  0  0  1  0  0  0  0  0999 V2000
   21.9645  -15.6799  -16.5625 N   0  0  0  0  0  0  0  0  0  0  0  0
   21.7544  -14.4178  -17.2081 C   0  0  1  0  0  0  0  0  0  0  0  0
   20.3542  -14.2127  -17.6864 C   0  0  0  0  0  0  0  0  0  0  0  0
   20.0144  -15.2174  -18.7066 C   0  0  0  0  0  0  0  0  0  0  0  0
   20.2017  -16.6007  -18.6295 C   0  0  0  0  0  0  0  0  0  0  0  0
   19.7607  -17.1551  -19.7658 N   0  0  0  0  0  0  0  0  0  0  0  0
   19.3074  -16.1617  -20.5421 C   0  0  0  0  0  0  0  0  0  0  0  0
   19.4568  -14.9815  -19.9088 N   0  0  0  0  0  0  0  0  0  0  0  0
   22.1952  -13.2736  -16.3459 C   0  0  0  0  0  0  0  0  0  0  0  0
   21.8432  -13.1884  -15.1421 O   0  0  0  0  0  0  0  0  0  0  0  0
   27.1230  -12.0920  -15.4839 C   0  0  0  0  0  0  0  0  0  0  0  0
   25.6187  -12.2650  -15.3540 C   0  0  0  0  0  0  0  0  0  0  0  0
   24.9771  -11.0601  -15.9711 C   0  0  2  0  0  0  0  0  0  0  0  0
   25.3464   -9.8586  -15.1225 C   0  0  0  0  0  0  0  0  0  0  0  0
   23.4755  -11.1370  -16.0100 C   0  0  2  0  0  0  0  0  0  0  0  0
   23.0297  -12.2295  -16.8391 N   0  0  0  0  0  0  0  0  0  0  0  0
   22.8288   -9.8932  -16.4337 C   0  0  0  0  0  0  0  0  0  0  0  0
   22.8137   -9.5674  -17.6688 O   0  0  0  0  0  0  0  0  0  0  0  0
   20.0660   -8.1314  -16.2343 C   0  0  0  0  0  0  0  0  0  0  0  0
   21.5181   -7.7762  -15.9890 C   0  0  2  0  0  0  0  0  0  0  0  0
   22.1909   -8.9800  -15.5564 N   0  0  0  0  0  0  0  0  0  0  0  0
   21.5750   -6.7022  -14.9722 C   0  0  0  0  0  0  0  0  0  0  0  0
   21.8074   -7.0469  -13.7866 O   0  0  0  0  0  0  0  0  0  0  0  0
   21.3900   -5.3658  -15.2501 O   0  0  0  0  0  0  0  0  0  0  0  0
  2  1  1  1
  3  2  1  0
  4  3  1  0
  5  4  2  0
  6  5  1  0
  7  6  1  0
  7  8  2  0
  8  4  1  0
  9 10  2  0
  9  2  1  0
 11 12  1  0
 12 13  1  0
 13 15  1  0
 13 14  1  1
 15 16  1  6
 16  9  1  0
 17 15  1  0
 18 17  2  0
 20 19  1  1
 20 21  1  0
 21 17  1  0
 22 20  1  0
 23 22  2  0
 24 22  1  0
M  END
$$$$
