HIA.pdb
     RDKit          3D

 24 24  0  0  1  0  0  0  0  0999 V2000
   28.4865  -20.9881  -15.6737 N   0  0  0  0  0  0  0  0  0  0  0  0
   27.5776  -20.0667  -15.0583 C   0  0  1  0  0  0  0  0  0  0  0  0
   26.9093  -19.1449  -16.0253 C   0  0  0  0  0  0  0  0  0  0  0  0
   27.9037  -18.2596  -16.6522 C   0  0  0  0  0  0  0  0  0  0  0  0
   29.2522  -18.1226  -16.3095 C   0  0  0  0  0  0  0  0  0  0  0  0
   29.8091  -17.2154  -17.1220 N   0  0  0  0  0  0  0  0  0  0  0  0
   28.8507  -16.7874  -17.9547 C   0  0  0  0  0  0  0  0  0  0  0  0
   27.6904  -17.4148  -17.6782 N   0  0  0  0  0  0  0  0  0  0  0  0
   26.5644  -20.7715  -14.2078 C   0  0  0  0  0  0  0  0  0  0  0  0
   26.1074  -21.8968  -14.5321 O   0  0  0  0  0  0  0  0  0  0  0  0
   26.6099  -20.5768   -8.7650 C   0  0  0  0  0  0  0  0  0  0  0  0
   26.4734  -21.1165  -10.1791 C   0  0  0  0  0  0  0  0  0  0  0  0
   25.2061  -20.5566  -10.7490 C   0  0  2  0  0  0  0  0  0  0  0  0
   24.0475  -21.2112  -10.0216 C   0  0  0  0  0  0  0  0  0  0  0  0
   25.0335  -20.8420  -12.2157 C   0  0  2  0  0  0  0  0  0  0  0  0
   26.0682  -20.2096  -12.9963 N   0  0  0  0  0  0  0  0  0  0  0  0
   23.7170  -20.4733  -12.7406 C   0  0  0  0  0  0  0  0  0  0  0  0
   23.3173  -19.2618  -12.6745 O   0  0  0  0  0  0  0  0  0  0  0  0
   21.0115  -22.1276  -14.7227 C   0  0  0  0  0  0  0  0  0  0  0  0
   21.4902  -21.0178  -13.8093 C   0  0  2  0  0  0  0  0  0  0  0  0
   22.8083  -21.3813  -13.3410 N   0  0  0  0  0  0  0  0  0  0  0  0
   20.5199  -20.8681  -12.7016 C   0  0  0  0  0  0  0  0  0  0  0  0
   20.6926  -21.5884  -11.6869 O   0  0  0  0  0  0  0  0  0  0  0  0
   19.4542  -19.9956  -12.7219 O   0  0  0  0  0  0  0  0  0  0  0  0
  2  1  1  6
  3  2  1  0
  4  3  1  0
  5  4  2  0
  6  5  1  0
  7  6  1  0
  7  8  2  0
  8  4  1  0
  9 10  2  0
  9  2  1  0
 11 12  1  0
 12 13  1  0
 13 15  1  0
 13 14  1  1
 15 16  1  6
 16  9  1  0
 17 15  1  0
 18 17  2  0
 20 19  1  6
 20 21  1  0
 21 17  1  0
 22 20  1  0
 23 22  2  0
 24 22  1  0
M  END
$$$$
