WPN.pdb
     RDKit          3D

 30 32  0  0  1  0  0  0  0  0999 V2000
    6.5604  -16.7638   23.8519 N   0  0  0  0  0  0  0  0  0  0  0  0
    7.1383  -15.5678   23.3389 C   0  0  1  0  0  0  0  0  0  0  0  0
    8.2195  -15.0651   24.2429 C   0  0  0  0  0  0  0  0  0  0  0  0
    7.7776  -14.5017   25.5215 C   0  0  0  0  0  0  0  0  0  0  0  0
    7.6489  -15.2320   26.6858 C   0  0  0  0  0  0  0  0  0  0  0  0
    7.2623  -14.4173   27.6564 N   0  0  0  0  0  0  0  0  0  0  0  0
    7.1239  -13.1620   27.1919 C   0  0  0  0  0  0  0  0  0  0  0  0
    6.7428  -11.9933   27.8082 C   0  0  0  0  0  0  0  0  0  0  0  0
    6.6797  -10.8262   27.0555 C   0  0  0  0  0  0  0  0  0  0  0  0
    6.9916  -10.8457   25.7277 C   0  0  0  0  0  0  0  0  0  0  0  0
    7.3705  -12.0425   25.1470 C   0  0  0  0  0  0  0  0  0  0  0  0
    7.4507  -13.2128   25.8333 C   0  0  0  0  0  0  0  0  0  0  0  0
    7.6864  -15.6720   21.9634 C   0  0  0  0  0  0  0  0  0  0  0  0
    7.9612  -16.8576   21.5482 O   0  0  0  0  0  0  0  0  0  0  0  0
    7.9350  -14.6206   21.0762 N   0  0  0  0  0  0  0  0  0  0  0  0
    7.6261  -13.2283   21.2874 C   0  0  0  0  0  0  0  0  0  0  0  0
    8.3297  -12.4528   20.1779 C   0  0  0  0  0  0  0  0  0  0  0  0
    8.1907  -13.4575   19.0354 C   0  0  0  0  0  0  0  0  0  0  0  0
    8.5494  -14.7397   19.7787 C   0  0  1  0  0  0  0  0  0  0  0  0
   10.0299  -14.8532   19.8730 C   0  0  0  0  0  0  0  0  0  0  0  0
   10.6295  -14.2886   20.8228 O   0  0  0  0  0  0  0  0  0  0  0  0
   15.1626  -14.3455   18.3850 N   0  0  0  0  0  0  0  0  0  0  0  0
   14.3656  -14.4338   19.5550 C   0  0  0  0  0  0  0  0  0  0  0  0
   14.9331  -14.5476   20.6676 O   0  0  0  0  0  0  0  0  0  0  0  0
   12.8940  -14.3965   19.5120 C   0  0  0  0  0  0  0  0  0  0  0  0
   12.2605  -15.6549   18.9853 C   0  0  2  0  0  0  0  0  0  0  0  0
   10.8185  -15.5718   18.9422 N   0  0  0  0  0  0  0  0  0  0  0  0
   12.7492  -16.8645   19.6459 C   0  0  0  0  0  0  0  0  0  0  0  0
   13.3105  -16.9091   20.7528 O   0  0  0  0  0  0  0  0  0  0  0  0
   12.5699  -18.0886   18.9718 O   0  0  0  0  0  0  0  0  0  0  0  0
  2  1  1  1
  2  3  1  0
  3  4  1  0
  4 12  1  0
  4  5  2  0
  5  6  1  0
  7  8  2  0
  7  6  1  0
  9  8  1  0
 10  9  2  0
 11 10  1  0
 11 12  2  0
 12  7  1  0
 13 15  1  0
 13  2  1  0
 14 13  2  0
 15 19  1  0
 16 17  1  0
 16 15  1  0
 17 18  1  0
 18 19  1  0
 19 20  1  1
 20 21  2  0
 22 23  1  0
 23 24  2  0
 23 25  1  0
 26 25  1  1
 26 28  1  0
 27 26  1  0
 27 20  1  0
 28 29  2  0
 28 30  1  0
M  END
$$$$
