WPN.pdb
     RDKit          3D

 30 32  0  0  1  0  0  0  0  0999 V2000
    6.4249  -18.2288   25.0598 N   0  0  0  0  0  0  0  0  0  0  0  0
    6.8417  -16.9991   24.4753 C   0  0  1  0  0  0  0  0  0  0  0  0
    7.6168  -16.1761   25.4554 C   0  0  0  0  0  0  0  0  0  0  0  0
    6.8822  -15.0840   26.1000 C   0  0  0  0  0  0  0  0  0  0  0  0
    5.6167  -15.2132   26.6359 C   0  0  0  0  0  0  0  0  0  0  0  0
    5.2604  -14.0522   27.1657 N   0  0  0  0  0  0  0  0  0  0  0  0
    6.2382  -13.1414   27.0077 C   0  0  0  0  0  0  0  0  0  0  0  0
    6.3282  -11.8198   27.3765 C   0  0  0  0  0  0  0  0  0  0  0  0
    7.4830  -11.1118   27.0635 C   0  0  0  0  0  0  0  0  0  0  0  0
    8.5069  -11.7231   26.4011 C   0  0  0  0  0  0  0  0  0  0  0  0
    8.3756  -13.0541   26.0488 C   0  0  0  0  0  0  0  0  0  0  0  0
    7.2715  -13.7951   26.3293 C   0  0  0  0  0  0  0  0  0  0  0  0
    7.6445  -17.1311   23.2338 C   0  0  0  0  0  0  0  0  0  0  0  0
    8.1218  -18.2992   22.9860 O   0  0  0  0  0  0  0  0  0  0  0  0
    7.9355  -16.1229   22.3103 N   0  0  0  0  0  0  0  0  0  0  0  0
    7.4724  -14.7583   22.3551 C   0  0  0  0  0  0  0  0  0  0  0  0
    8.2712  -13.9925   21.3049 C   0  0  0  0  0  0  0  0  0  0  0  0
    8.4076  -15.0817   20.2424 C   0  0  0  0  0  0  0  0  0  0  0  0
    8.7575  -16.2668   21.1359 C   0  0  1  0  0  0  0  0  0  0  0  0
   10.2080  -16.2216   21.4637 C   0  0  0  0  0  0  0  0  0  0  0  0
   10.6419  -15.3018   22.2029 O   0  0  0  0  0  0  0  0  0  0  0  0
   12.8062  -18.2525   24.5166 N   0  0  0  0  0  0  0  0  0  0  0  0
   12.2987  -18.7186   23.2768 C   0  0  0  0  0  0  0  0  0  0  0  0
   11.2347  -19.3826   23.2687 O   0  0  0  0  0  0  0  0  0  0  0  0
   12.9755  -18.4515   21.9965 C   0  0  0  0  0  0  0  0  0  0  0  0
   12.5497  -17.1726   21.3291 C   0  0  2  0  0  0  0  0  0  0  0  0
   11.1459  -17.1685   20.9862 N   0  0  0  0  0  0  0  0  0  0  0  0
   13.4167  -16.7891   20.2156 C   0  0  0  0  0  0  0  0  0  0  0  0
   14.6259  -16.5189   20.2986 O   0  0  0  0  0  0  0  0  0  0  0  0
   12.8339  -16.7187   18.9349 O   0  0  0  0  0  0  0  0  0  0  0  0
  2  1  1  1
  2  3  1  0
  3  4  1  0
  4 12  1  0
  4  5  2  0
  5  6  1  0
  7  8  2  0
  7  6  1  0
  9  8  1  0
 10  9  2  0
 11 10  1  0
 11 12  2  0
 12  7  1  0
 13 15  1  0
 13  2  1  0
 14 13  2  0
 15 19  1  0
 16 17  1  0
 16 15  1  0
 17 18  1  0
 18 19  1  0
 19 20  1  1
 20 21  2  0
 22 23  1  0
 23 24  2  0
 23 25  1  0
 26 25  1  6
 26 28  1  0
 27 26  1  0
 27 20  1  0
 28 29  2  0
 28 30  1  0
M  END
$$$$
