WPN.pdb
     RDKit          3D

 30 32  0  0  1  0  0  0  0  0999 V2000
    6.6930  -17.4028   24.0805 N   0  0  0  0  0  0  0  0  0  0  0  0
    7.0748  -16.1382   23.5490 C   0  0  1  0  0  0  0  0  0  0  0  0
    7.8992  -15.3704   24.5337 C   0  0  0  0  0  0  0  0  0  0  0  0
    7.1545  -14.6286   25.5549 C   0  0  0  0  0  0  0  0  0  0  0  0
    6.2040  -15.1925   26.3820 C   0  0  0  0  0  0  0  0  0  0  0  0
    5.7502  -14.2583   27.2045 N   0  0  0  0  0  0  0  0  0  0  0  0
    6.3581  -13.0822   26.9644 C   0  0  0  0  0  0  0  0  0  0  0  0
    6.2188  -11.8430   27.5441 C   0  0  0  0  0  0  0  0  0  0  0  0
    6.9909  -10.7886   27.0699 C   0  0  0  0  0  0  0  0  0  0  0  0
    7.8705  -10.9855   26.0461 C   0  0  0  0  0  0  0  0  0  0  0  0
    7.9798  -12.2478   25.4915 C   0  0  0  0  0  0  0  0  0  0  0  0
    7.2522  -13.3147   25.9147 C   0  0  0  0  0  0  0  0  0  0  0  0
    7.8103  -16.1917   22.2609 C   0  0  0  0  0  0  0  0  0  0  0  0
    8.4230  -17.2919   22.0003 O   0  0  0  0  0  0  0  0  0  0  0  0
    7.9073  -15.1755   21.3059 N   0  0  0  0  0  0  0  0  0  0  0  0
    7.2483  -13.8938   21.3467 C   0  0  0  0  0  0  0  0  0  0  0  0
    7.8774  -13.0453   20.2459 C   0  0  0  0  0  0  0  0  0  0  0  0
    8.1282  -14.1291   19.1988 C   0  0  0  0  0  0  0  0  0  0  0  0
    8.6894  -15.2261   20.0971 C   0  0  1  0  0  0  0  0  0  0  0  0
   10.1299  -14.9583   20.3555 C   0  0  0  0  0  0  0  0  0  0  0  0
   10.4612  -13.8977   20.9439 O   0  0  0  0  0  0  0  0  0  0  0  0
   13.5945  -16.4568   24.0598 N   0  0  0  0  0  0  0  0  0  0  0  0
   13.0262  -17.1686   22.9724 C   0  0  0  0  0  0  0  0  0  0  0  0
   13.4871  -18.2978   22.6803 O   0  0  0  0  0  0  0  0  0  0  0  0
   11.9132  -16.6302   22.1724 C   0  0  0  0  0  0  0  0  0  0  0  0
   12.3100  -16.1657   20.7980 C   0  0  2  0  0  0  0  0  0  0  0  0
   11.1687  -15.8410   19.9732 N   0  0  0  0  0  0  0  0  0  0  0  0
   13.2607  -17.0616   20.1407 C   0  0  0  0  0  0  0  0  0  0  0  0
   14.4928  -16.9110   20.1056 O   0  0  0  0  0  0  0  0  0  0  0  0
   12.7379  -18.1961   19.4890 O   0  0  0  0  0  0  0  0  0  0  0  0
  2  1  1  1
  2  3  1  0
  3  4  1  0
  4 12  1  0
  4  5  2  0
  5  6  1  0
  7  8  2  0
  7  6  1  0
  9  8  1  0
 10  9  2  0
 11 10  1  0
 11 12  2  0
 12  7  1  0
 13 15  1  0
 13  2  1  0
 14 13  2  0
 15 19  1  0
 16 17  1  0
 16 15  1  0
 17 18  1  0
 18 19  1  0
 19 20  1  1
 20 21  2  0
 22 23  1  0
 23 24  2  0
 23 25  1  0
 26 25  1  1
 26 28  1  0
 27 26  1  0
 27 20  1  0
 28 29  2  0
 28 30  1  0
M  END
$$$$
