WPN.pdb
     RDKit          3D

 30 32  0  0  1  0  0  0  0  0999 V2000
    6.7233  -18.2909   25.0048 N   0  0  0  0  0  0  0  0  0  0  0  0
    7.0564  -16.9973   24.5116 C   0  0  1  0  0  0  0  0  0  0  0  0
    7.7146  -16.1729   25.5726 C   0  0  0  0  0  0  0  0  0  0  0  0
    6.8918  -15.1166   26.1682 C   0  0  0  0  0  0  0  0  0  0  0  0
    5.6211  -15.3155   26.6695 C   0  0  0  0  0  0  0  0  0  0  0  0
    5.1747  -14.1684   27.1598 N   0  0  0  0  0  0  0  0  0  0  0  0
    6.0964  -13.1998   27.0084 C   0  0  0  0  0  0  0  0  0  0  0  0
    6.0899  -11.8671   27.3471 C   0  0  0  0  0  0  0  0  0  0  0  0
    7.2060  -11.0929   27.0510 C   0  0  0  0  0  0  0  0  0  0  0  0
    8.2871  -11.6512   26.4344 C   0  0  0  0  0  0  0  0  0  0  0  0
    8.2526  -12.9956   26.1112 C   0  0  0  0  0  0  0  0  0  0  0  0
    7.1902  -13.8003   26.3771 C   0  0  0  0  0  0  0  0  0  0  0  0
    7.9200  -16.9860   23.3043 C   0  0  0  0  0  0  0  0  0  0  0  0
    8.6664  -18.0182   23.1285 O   0  0  0  0  0  0  0  0  0  0  0  0
    8.0072  -15.9746   22.3432 N   0  0  0  0  0  0  0  0  0  0  0  0
    7.2351  -14.7576   22.3055 C   0  0  0  0  0  0  0  0  0  0  0  0
    7.8778  -13.8665   21.2471 C   0  0  0  0  0  0  0  0  0  0  0  0
    8.3137  -14.9335   20.2443 C   0  0  0  0  0  0  0  0  0  0  0  0
    8.8916  -15.9661   21.2061 C   0  0  1  0  0  0  0  0  0  0  0  0
   10.2748  -15.5662   21.5807 C   0  0  0  0  0  0  0  0  0  0  0  0
   10.4473  -14.7958   22.5591 O   0  0  0  0  0  0  0  0  0  0  0  0
   13.2506  -16.1558   24.2761 N   0  0  0  0  0  0  0  0  0  0  0  0
   12.6119  -17.3650   23.8994 C   0  0  0  0  0  0  0  0  0  0  0  0
   12.3461  -18.2116   24.7858 O   0  0  0  0  0  0  0  0  0  0  0  0
   12.2485  -17.6640   22.5040 C   0  0  0  0  0  0  0  0  0  0  0  0
   12.5964  -16.5729   21.5289 C   0  0  2  0  0  0  0  0  0  0  0  0
   11.4291  -16.0088   20.8907 N   0  0  0  0  0  0  0  0  0  0  0  0
   13.6413  -16.9602   20.5819 C   0  0  0  0  0  0  0  0  0  0  0  0
   14.7843  -16.4780   20.5269 O   0  0  0  0  0  0  0  0  0  0  0  0
   13.3287  -17.9681   19.6484 O   0  0  0  0  0  0  0  0  0  0  0  0
  2  1  1  1
  2  3  1  0
  3  4  1  0
  4 12  1  0
  4  5  2  0
  5  6  1  0
  7  8  2  0
  7  6  1  0
  9  8  1  0
 10  9  2  0
 11 10  1  0
 11 12  2  0
 12  7  1  0
 13 15  1  0
 13  2  1  0
 14 13  2  0
 15 19  1  0
 16 17  1  0
 16 15  1  0
 17 18  1  0
 18 19  1  0
 19 20  1  1
 20 21  2  0
 22 23  1  0
 23 24  2  0
 23 25  1  0
 26 25  1  6
 26 28  1  0
 27 26  1  0
 27 20  1  0
 28 29  2  0
 28 30  1  0
M  END
$$$$
