WPN.pdb
     RDKit          3D

 30 32  0  0  1  0  0  0  0  0999 V2000
    6.1293  -17.4521   24.1507 N   0  0  0  0  0  0  0  0  0  0  0  0
    6.7075  -16.2625   23.6234 C   0  0  1  0  0  0  0  0  0  0  0  0
    7.5802  -15.5955   24.6393 C   0  0  0  0  0  0  0  0  0  0  0  0
    6.9241  -14.6079   25.5006 C   0  0  0  0  0  0  0  0  0  0  0  0
    5.7559  -14.8433   26.1973 C   0  0  0  0  0  0  0  0  0  0  0  0
    5.4550  -13.7600   26.8983 N   0  0  0  0  0  0  0  0  0  0  0  0
    6.3764  -12.7994   26.7014 C   0  0  0  0  0  0  0  0  0  0  0  0
    6.4889  -11.5217   27.1968 C   0  0  0  0  0  0  0  0  0  0  0  0
    7.5671  -10.7391   26.7994 C   0  0  0  0  0  0  0  0  0  0  0  0
    8.4951  -11.2356   25.9317 C   0  0  0  0  0  0  0  0  0  0  0  0
    8.3445  -12.5261   25.4573 C   0  0  0  0  0  0  0  0  0  0  0  0
    7.3124  -13.3360   25.8119 C   0  0  0  0  0  0  0  0  0  0  0  0
    7.4914  -16.4419   22.3757 C   0  0  0  0  0  0  0  0  0  0  0  0
    7.8226  -17.6487   22.0798 O   0  0  0  0  0  0  0  0  0  0  0  0
    7.9063  -15.4405   21.4929 N   0  0  0  0  0  0  0  0  0  0  0  0
    7.6631  -14.0256   21.6246 C   0  0  0  0  0  0  0  0  0  0  0  0
    8.5374  -13.3344   20.5828 C   0  0  0  0  0  0  0  0  0  0  0  0
    8.4684  -14.3707   19.4624 C   0  0  0  0  0  0  0  0  0  0  0  0
    8.6577  -15.6435   20.2807 C   0  0  1  0  0  0  0  0  0  0  0  0
   10.1073  -15.8404   20.5517 C   0  0  0  0  0  0  0  0  0  0  0  0
   10.7767  -14.8904   21.0313 O   0  0  0  0  0  0  0  0  0  0  0  0
   10.7245  -19.7149   22.5032 N   0  0  0  0  0  0  0  0  0  0  0  0
   11.8603  -18.8735   22.3849 C   0  0  0  0  0  0  0  0  0  0  0  0
   12.3260  -18.3354   23.4176 O   0  0  0  0  0  0  0  0  0  0  0  0
   12.5142  -18.6077   21.0925 C   0  0  0  0  0  0  0  0  0  0  0  0
   12.2059  -17.2549   20.5119 C   0  0  2  0  0  0  0  0  0  0  0  0
   10.7908  -17.0542   20.2986 N   0  0  0  0  0  0  0  0  0  0  0  0
   13.0174  -16.9345   19.3384 C   0  0  0  0  0  0  0  0  0  0  0  0
   12.5806  -16.6415   18.2134 O   0  0  0  0  0  0  0  0  0  0  0  0
   14.4176  -16.9590   19.4924 O   0  0  0  0  0  0  0  0  0  0  0  0
  2  1  1  1
  2  3  1  0
  3  4  1  0
  4 12  1  0
  4  5  2  0
  5  6  1  0
  7  8  2  0
  7  6  1  0
  9  8  1  0
 10  9  2  0
 11 10  1  0
 11 12  2  0
 12  7  1  0
 13 15  1  0
 13  2  1  0
 14 13  2  0
 15 19  1  0
 16 17  1  0
 16 15  1  0
 17 18  1  0
 18 19  1  0
 19 20  1  1
 20 21  2  0
 22 23  1  0
 23 24  2  0
 23 25  1  0
 26 25  1  6
 26 28  1  0
 27 26  1  0
 27 20  1  0
 28 29  2  0
 28 30  1  0
M  END
$$$$
