WPN.pdb
     RDKit          3D

 30 32  0  0  1  0  0  0  0  0999 V2000
    6.2507  -18.5146   24.5912 N   0  0  0  0  0  0  0  0  0  0  0  0
    6.7120  -17.2155   24.2344 C   0  0  1  0  0  0  0  0  0  0  0  0
    7.4517  -16.5798   25.3690 C   0  0  0  0  0  0  0  0  0  0  0  0
    6.8448  -15.3719   25.9350 C   0  0  0  0  0  0  0  0  0  0  0  0
    5.5348  -15.2916   26.3627 C   0  0  0  0  0  0  0  0  0  0  0  0
    5.3205  -14.0766   26.8457 N   0  0  0  0  0  0  0  0  0  0  0  0
    6.4373  -13.3309   26.7602 C   0  0  0  0  0  0  0  0  0  0  0  0
    6.7005  -12.0298   27.1187 C   0  0  0  0  0  0  0  0  0  0  0  0
    7.9729  -11.5156   26.8964 C   0  0  0  0  0  0  0  0  0  0  0  0
    8.9406  -12.2934   26.3314 C   0  0  0  0  0  0  0  0  0  0  0  0
    8.6340  -13.5971   25.9858 C   0  0  0  0  0  0  0  0  0  0  0  0
    7.4091  -14.1525   26.1805 C   0  0  0  0  0  0  0  0  0  0  0  0
    7.5704  -17.1614   23.0247 C   0  0  0  0  0  0  0  0  0  0  0  0
    8.2509  -18.2204   22.7616 O   0  0  0  0  0  0  0  0  0  0  0  0
    7.7166  -16.0843   22.1457 N   0  0  0  0  0  0  0  0  0  0  0  0
    7.0011  -14.8336   22.1945 C   0  0  0  0  0  0  0  0  0  0  0  0
    7.6981  -13.8944   21.2150 C   0  0  0  0  0  0  0  0  0  0  0  0
    8.0988  -14.9001   20.1370 C   0  0  0  0  0  0  0  0  0  0  0  0
    8.6161  -16.0293   21.0218 C   0  0  1  0  0  0  0  0  0  0  0  0
   10.0107  -15.7239   21.4403 C   0  0  0  0  0  0  0  0  0  0  0  0
   10.2043  -15.0259   22.4679 O   0  0  0  0  0  0  0  0  0  0  0  0
   14.1156  -18.7728   22.4575 N   0  0  0  0  0  0  0  0  0  0  0  0
   12.7366  -18.9780   22.7187 C   0  0  0  0  0  0  0  0  0  0  0  0
   12.3959  -19.9247   23.4675 O   0  0  0  0  0  0  0  0  0  0  0  0
   11.6881  -18.1193   22.1426 C   0  0  0  0  0  0  0  0  0  0  0  0
   12.2120  -16.9681   21.3288 C   0  0  2  0  0  0  0  0  0  0  0  0
   11.1534  -16.1801   20.7400 N   0  0  0  0  0  0  0  0  0  0  0  0
   13.2394  -17.3648   20.3667 C   0  0  0  0  0  0  0  0  0  0  0  0
   13.0768  -18.1427   19.4125 O   0  0  0  0  0  0  0  0  0  0  0  0
   14.5278  -16.8195   20.5326 O   0  0  0  0  0  0  0  0  0  0  0  0
  2  1  1  1
  2  3  1  0
  3  4  1  0
  4 12  1  0
  4  5  2  0
  5  6  1  0
  7  8  2  0
  7  6  1  0
  9  8  1  0
 10  9  2  0
 11 10  1  0
 11 12  2  0
 12  7  1  0
 13 15  1  0
 13  2  1  0
 14 13  2  0
 15 19  1  0
 16 17  1  0
 16 15  1  0
 17 18  1  0
 18 19  1  0
 19 20  1  1
 20 21  2  0
 22 23  1  0
 23 24  2  0
 23 25  1  0
 26 25  1  6
 26 28  1  0
 27 26  1  0
 27 20  1  0
 28 29  2  0
 28 30  1  0
M  END
$$$$
