WPN.pdb
     RDKit          3D

 30 32  0  0  1  0  0  0  0  0999 V2000
    6.1444  -17.7029   24.2579 N   0  0  0  0  0  0  0  0  0  0  0  0
    6.6585  -16.4890   23.7196 C   0  0  1  0  0  0  0  0  0  0  0  0
    7.5306  -15.7893   24.7139 C   0  0  0  0  0  0  0  0  0  0  0  0
    6.8679  -14.7947   25.5619 C   0  0  0  0  0  0  0  0  0  0  0  0
    5.6636  -15.0037   26.2033 C   0  0  0  0  0  0  0  0  0  0  0  0
    5.3656  -13.9222   26.9081 N   0  0  0  0  0  0  0  0  0  0  0  0
    6.3238  -12.9881   26.7671 C   0  0  0  0  0  0  0  0  0  0  0  0
    6.4536  -11.7220   27.2878 C   0  0  0  0  0  0  0  0  0  0  0  0
    7.5716  -10.9678   26.9504 C   0  0  0  0  0  0  0  0  0  0  0  0
    8.5212  -11.4801   26.1158 C   0  0  0  0  0  0  0  0  0  0  0  0
    8.3521  -12.7580   25.6143 C   0  0  0  0  0  0  0  0  0  0  0  0
    7.2811  -13.5404   25.9104 C   0  0  0  0  0  0  0  0  0  0  0  0
    7.4146  -16.6325   22.4503 C   0  0  0  0  0  0  0  0  0  0  0  0
    7.7871  -17.8238   22.1409 O   0  0  0  0  0  0  0  0  0  0  0  0
    7.7634  -15.6125   21.5602 N   0  0  0  0  0  0  0  0  0  0  0  0
    7.4649  -14.2093   21.7034 C   0  0  0  0  0  0  0  0  0  0  0  0
    8.2813  -13.4796   20.6411 C   0  0  0  0  0  0  0  0  0  0  0  0
    8.2259  -14.5153   19.5193 C   0  0  0  0  0  0  0  0  0  0  0  0
    8.4901  -15.7809   20.3278 C   0  0  1  0  0  0  0  0  0  0  0  0
    9.9534  -15.9175   20.5594 C   0  0  0  0  0  0  0  0  0  0  0  0
   10.4799  -15.3168   21.5303 O   0  0  0  0  0  0  0  0  0  0  0  0
   12.9356  -20.7488   20.9664 N   0  0  0  0  0  0  0  0  0  0  0  0
   13.0015  -19.7549   19.9565 C   0  0  0  0  0  0  0  0  0  0  0  0
   14.0817  -19.5862   19.3419 O   0  0  0  0  0  0  0  0  0  0  0  0
   11.8469  -18.9125   19.6020 C   0  0  0  0  0  0  0  0  0  0  0  0
   11.8619  -17.5479   20.2344 C   0  0  2  0  0  0  0  0  0  0  0  0
   10.8040  -16.6972   19.7390 N   0  0  0  0  0  0  0  0  0  0  0  0
   13.1783  -16.9121   20.1981 C   0  0  0  0  0  0  0  0  0  0  0  0
   14.1104  -17.1304   20.9891 O   0  0  0  0  0  0  0  0  0  0  0  0
   13.4145  -15.9688   19.1787 O   0  0  0  0  0  0  0  0  0  0  0  0
  2  1  1  1
  2  3  1  0
  3  4  1  0
  4 12  1  0
  4  5  2  0
  5  6  1  0
  7  8  2  0
  7  6  1  0
  9  8  1  0
 10  9  2  0
 11 10  1  0
 11 12  2  0
 12  7  1  0
 13 15  1  0
 13  2  1  0
 14 13  2  0
 15 19  1  0
 16 17  1  0
 16 15  1  0
 17 18  1  0
 18 19  1  0
 19 20  1  1
 20 21  2  0
 22 23  1  0
 23 24  2  0
 23 25  1  0
 26 25  1  6
 26 28  1  0
 27 26  1  0
 27 20  1  0
 28 29  2  0
 28 30  1  0
M  END
$$$$
