WPN.pdb
     RDKit          3D

 30 32  0  0  1  0  0  0  0  0999 V2000
    7.0508  -17.2396   23.0573 N   0  0  0  0  0  0  0  0  0  0  0  0
    7.4197  -15.9135   22.6928 C   0  0  1  0  0  0  0  0  0  0  0  0
    8.1620  -15.2398   23.8036 C   0  0  0  0  0  0  0  0  0  0  0  0
    7.3407  -14.7029   24.8922 C   0  0  0  0  0  0  0  0  0  0  0  0
    6.4319  -15.4483   25.6159 C   0  0  0  0  0  0  0  0  0  0  0  0
    5.8862  -14.6708   26.5395 N   0  0  0  0  0  0  0  0  0  0  0  0
    6.3917  -13.4259   26.4673 C   0  0  0  0  0  0  0  0  0  0  0  0
    6.1359  -12.2888   27.1970 C   0  0  0  0  0  0  0  0  0  0  0  0
    6.8189  -11.1198   26.8813 C   0  0  0  0  0  0  0  0  0  0  0  0
    7.7268  -11.1065   25.8633 C   0  0  0  0  0  0  0  0  0  0  0  0
    7.9544  -12.2722   25.1547 C   0  0  0  0  0  0  0  0  0  0  0  0
    7.3174  -13.4432   25.4194 C   0  0  0  0  0  0  0  0  0  0  0  0
    8.2274  -15.8021   21.4525 C   0  0  0  0  0  0  0  0  0  0  0  0
    8.8130  -16.8761   21.0560 O   0  0  0  0  0  0  0  0  0  0  0  0
    8.4182  -14.6567   20.6741 N   0  0  0  0  0  0  0  0  0  0  0  0
    7.8229  -13.3619   20.8923 C   0  0  0  0  0  0  0  0  0  0  0  0
    8.5429  -12.3892   19.9634 C   0  0  0  0  0  0  0  0  0  0  0  0
    8.7867  -13.3093   18.7684 C   0  0  0  0  0  0  0  0  0  0  0  0
    9.2511  -14.5626   19.5024 C   0  0  1  0  0  0  0  0  0  0  0  0
   10.6899  -14.4199   19.8531 C   0  0  0  0  0  0  0  0  0  0  0  0
   11.0077  -13.8066   20.9036 O   0  0  0  0  0  0  0  0  0  0  0  0
   15.7994  -15.6577   20.2616 N   0  0  0  0  0  0  0  0  0  0  0  0
   14.7357  -16.3963   20.8403 C   0  0  0  0  0  0  0  0  0  0  0  0
   15.0010  -17.2639   21.7063 O   0  0  0  0  0  0  0  0  0  0  0  0
   13.3287  -16.1820   20.4618 C   0  0  0  0  0  0  0  0  0  0  0  0
   13.1157  -15.0482   19.4967 C   0  0  2  0  0  0  0  0  0  0  0  0
   11.7415  -14.9426   19.0623 N   0  0  0  0  0  0  0  0  0  0  0  0
   14.0721  -15.0475   18.3906 C   0  0  0  0  0  0  0  0  0  0  0  0
   15.2500  -14.6589   18.4514 O   0  0  0  0  0  0  0  0  0  0  0  0
   13.6228  -15.5289   17.1450 O   0  0  0  0  0  0  0  0  0  0  0  0
  2  1  1  1
  2  3  1  0
  3  4  1  0
  4 12  1  0
  4  5  2  0
  5  6  1  0
  7  8  2  0
  7  6  1  0
  9  8  1  0
 10  9  2  0
 11 10  1  0
 11 12  2  0
 12  7  1  0
 13 15  1  0
 13  2  1  0
 14 13  2  0
 15 19  1  0
 16 17  1  0
 16 15  1  0
 17 18  1  0
 18 19  1  0
 19 20  1  1
 20 21  2  0
 22 23  1  0
 23 24  2  0
 23 25  1  0
 26 25  1  6
 26 28  1  0
 27 26  1  0
 27 20  1  0
 28 29  2  0
 28 30  1  0
M  END
$$$$
