WPN.pdb
     RDKit          3D

 30 32  0  0  1  0  0  0  0  0999 V2000
    6.5390  -18.7359   24.9699 N   0  0  0  0  0  0  0  0  0  0  0  0
    6.8953  -17.3986   24.6349 C   0  0  1  0  0  0  0  0  0  0  0  0
    7.6092  -16.7344   25.7697 C   0  0  0  0  0  0  0  0  0  0  0  0
    7.0508  -15.4564   26.2199 C   0  0  0  0  0  0  0  0  0  0  0  0
    5.7444  -15.2847   26.6312 C   0  0  0  0  0  0  0  0  0  0  0  0
    5.5787  -14.0230   27.0002 N   0  0  0  0  0  0  0  0  0  0  0  0
    6.7251  -13.3339   26.8534 C   0  0  0  0  0  0  0  0  0  0  0  0
    7.0402  -12.0171   27.0932 C   0  0  0  0  0  0  0  0  0  0  0  0
    8.3329  -11.5771   26.8321 C   0  0  0  0  0  0  0  0  0  0  0  0
    9.2692  -12.4416   26.3457 C   0  0  0  0  0  0  0  0  0  0  0  0
    8.9105  -13.7579   26.1187 C   0  0  0  0  0  0  0  0  0  0  0  0
    7.6637  -14.2435   26.3564 C   0  0  0  0  0  0  0  0  0  0  0  0
    7.7222  -17.2544   23.4107 C   0  0  0  0  0  0  0  0  0  0  0  0
    8.4988  -18.2398   23.1287 O   0  0  0  0  0  0  0  0  0  0  0  0
    7.7459  -16.1638   22.5365 N   0  0  0  0  0  0  0  0  0  0  0  0
    6.8444  -15.0388   22.5433 C   0  0  0  0  0  0  0  0  0  0  0  0
    7.4380  -13.9990   21.5978 C   0  0  0  0  0  0  0  0  0  0  0  0
    8.0446  -14.9262   20.5459 C   0  0  0  0  0  0  0  0  0  0  0  0
    8.6833  -15.9658   21.4606 C   0  0  1  0  0  0  0  0  0  0  0  0
    9.9904  -15.4505   21.9500 C   0  0  0  0  0  0  0  0  0  0  0  0
   10.0101  -14.6443   22.9145 O   0  0  0  0  0  0  0  0  0  0  0  0
   13.7734  -17.0864   24.9612 N   0  0  0  0  0  0  0  0  0  0  0  0
   13.2365  -17.8291   23.8785 C   0  0  0  0  0  0  0  0  0  0  0  0
   13.7651  -18.9250   23.5742 O   0  0  0  0  0  0  0  0  0  0  0  0
   12.0793  -17.3608   23.0973 C   0  0  0  0  0  0  0  0  0  0  0  0
   12.3892  -16.2322   22.1526 C   0  0  2  0  0  0  0  0  0  0  0  0
   11.2355  -15.8200   21.3863 N   0  0  0  0  0  0  0  0  0  0  0  0
   13.5708  -16.4810   21.3278 C   0  0  0  0  0  0  0  0  0  0  0  0
   14.6793  -15.9389   21.4676 O   0  0  0  0  0  0  0  0  0  0  0  0
   13.4458  -17.4167   20.2820 O   0  0  0  0  0  0  0  0  0  0  0  0
  2  1  1  1
  2  3  1  0
  3  4  1  0
  4 12  1  0
  4  5  2  0
  5  6  1  0
  7  8  2  0
  7  6  1  0
  9  8  1  0
 10  9  2  0
 11 10  1  0
 11 12  2  0
 12  7  1  0
 13 15  1  0
 13  2  1  0
 14 13  2  0
 15 19  1  0
 16 17  1  0
 16 15  1  0
 17 18  1  0
 18 19  1  0
 19 20  1  1
 20 21  2  0
 22 23  1  0
 23 24  2  0
 23 25  1  0
 26 25  1  6
 26 28  1  0
 27 26  1  0
 27 20  1  0
 28 29  2  0
 28 30  1  0
M  END
$$$$
