WPN.pdb
     RDKit          3D

 30 32  0  0  1  0  0  0  0  0999 V2000
    6.8914  -18.3034   25.0318 N   0  0  0  0  0  0  0  0  0  0  0  0
    7.1765  -16.9984   24.5386 C   0  0  1  0  0  0  0  0  0  0  0  0
    7.7968  -16.1479   25.6019 C   0  0  0  0  0  0  0  0  0  0  0  0
    6.9264  -15.1329   26.2018 C   0  0  0  0  0  0  0  0  0  0  0  0
    5.7134  -15.4093   26.7999 C   0  0  0  0  0  0  0  0  0  0  0  0
    5.2025  -14.2784   27.2641 N   0  0  0  0  0  0  0  0  0  0  0  0
    6.0249  -13.2462   27.0018 C   0  0  0  0  0  0  0  0  0  0  0  0
    5.9251  -11.9023   27.2751 C   0  0  0  0  0  0  0  0  0  0  0  0
    6.9481  -11.0552   26.8644 C   0  0  0  0  0  0  0  0  0  0  0  0
    8.0307  -11.5542   26.2013 C   0  0  0  0  0  0  0  0  0  0  0  0
    8.0916  -12.9124   25.9469 C   0  0  0  0  0  0  0  0  0  0  0  0
    7.1227  -13.7870   26.3253 C   0  0  0  0  0  0  0  0  0  0  0  0
    8.0450  -16.9548   23.3357 C   0  0  0  0  0  0  0  0  0  0  0  0
    8.8308  -17.9582   23.1641 O   0  0  0  0  0  0  0  0  0  0  0  0
    8.0988  -15.9412   22.3746 N   0  0  0  0  0  0  0  0  0  0  0  0
    7.2762  -14.7580   22.3282 C   0  0  0  0  0  0  0  0  0  0  0  0
    7.8910  -13.8410   21.2753 C   0  0  0  0  0  0  0  0  0  0  0  0
    8.3814  -14.8891   20.2778 C   0  0  0  0  0  0  0  0  0  0  0  0
    8.9931  -15.8958   21.2461 C   0  0  1  0  0  0  0  0  0  0  0  0
   10.3544  -15.4375   21.6339 C   0  0  0  0  0  0  0  0  0  0  0  0
   10.4804  -14.6198   22.5805 O   0  0  0  0  0  0  0  0  0  0  0  0
   15.0247  -17.2323   23.0977 N   0  0  0  0  0  0  0  0  0  0  0  0
   13.7310  -17.6657   23.4853 C   0  0  0  0  0  0  0  0  0  0  0  0
   13.6238  -18.4874   24.4267 O   0  0  0  0  0  0  0  0  0  0  0  0
   12.5066  -17.1861   22.8224 C   0  0  0  0  0  0  0  0  0  0  0  0
   12.7543  -16.2403   21.6793 C   0  0  2  0  0  0  0  0  0  0  0  0
   11.5377  -15.8744   20.9908 N   0  0  0  0  0  0  0  0  0  0  0  0
   13.8134  -16.6929   20.7782 C   0  0  0  0  0  0  0  0  0  0  0  0
   14.9341  -16.1717   20.6577 O   0  0  0  0  0  0  0  0  0  0  0  0
   13.5436  -17.8181   19.9745 O   0  0  0  0  0  0  0  0  0  0  0  0
  2  1  1  1
  2  3  1  0
  3  4  1  0
  4 12  1  0
  4  5  2  0
  5  6  1  0
  7  8  2  0
  7  6  1  0
  9  8  1  0
 10  9  2  0
 11 10  1  0
 11 12  2  0
 12  7  1  0
 13 15  1  0
 13  2  1  0
 14 13  2  0
 15 19  1  0
 16 17  1  0
 16 15  1  0
 17 18  1  0
 18 19  1  0
 19 20  1  1
 20 21  2  0
 22 23  1  0
 23 24  2  0
 23 25  1  0
 26 25  1  1
 26 28  1  0
 27 26  1  0
 27 20  1  0
 28 29  2  0
 28 30  1  0
M  END
$$$$
