CGE.pdb
     RDKit          3D

 20 19  0  0  1  0  0  0  0  0999 V2000
   22.7377  -31.6287  -10.1522 N   0  0  0  0  0  0  0  0  0  0  0  0
   23.2677  -32.9717  -10.2940 C   0  0  1  0  0  0  0  0  0  0  0  0
   23.5076  -33.1956  -11.7721 C   0  0  0  0  0  0  0  0  0  0  0  0
   22.0892  -32.7140  -12.7794 S   0  0  0  0  0  0  0  0  0  0  0  0
   24.4917  -33.1437   -9.4959 C   0  0  0  0  0  0  0  0  0  0  0  0
   25.1412  -34.2045   -9.4818 O   0  0  0  0  0  0  0  0  0  0  0  0
   24.9546  -32.0569   -8.7076 N   0  0  0  0  0  0  0  0  0  0  0  0
   26.1723  -32.1405   -7.9568 C   0  0  0  0  0  0  0  0  0  0  0  0
   25.8921  -32.8959   -6.6899 C   0  0  0  0  0  0  0  0  0  0  0  0
   24.7101  -33.1040   -6.2890 O   0  0  0  0  0  0  0  0  0  0  0  0
   26.9488  -33.3947   -5.9116 N   0  0  0  0  0  0  0  0  0  0  0  0
   26.6729  -34.1642   -4.6815 C   0  0  1  0  0  0  0  0  0  0  0  0
   27.9756  -34.7166   -4.1692 C   0  0  0  0  0  0  0  0  0  0  0  0
   27.8490  -35.5639   -2.9320 C   0  0  0  0  0  0  0  0  0  0  0  0
   29.2033  -36.0381   -2.5010 C   0  0  0  0  0  0  0  0  0  0  0  0
   29.3145  -36.6914   -1.4311 O   0  0  0  0  0  0  0  0  0  0  0  0
   25.9880  -33.3055   -3.6905 C   0  0  0  0  0  0  0  0  0  0  0  0
   26.1193  -32.0834   -3.6790 O   0  0  0  0  0  0  0  0  0  0  0  0
   30.3242  -35.7781   -3.2427 O   0  0  0  0  0  0  0  0  0  0  0  0
   25.1620  -33.9265   -2.7362 O   0  0  0  0  0  0  0  0  0  0  0  0
  2  3  1  0
  2  1  1  6
  4  3  1  0
  5  2  1  0
  5  6  2  0
  7  5  1  0
  8  7  1  0
  9  8  1  0
 10  9  2  0
 11  9  1  0
 12 13  1  1
 12 11  1  0
 13 14  1  0
 15 14  1  0
 15 19  1  0
 16 15  2  0
 17 20  1  0
 17 12  1  0
 18 17  2  0
M  END
$$$$
