CGE.pdb
     RDKit          3D

 20 19  0  0  1  0  0  0  0  0999 V2000
   21.7929  -11.6593  -17.7376 N   0  0  0  0  0  0  0  0  0  0  0  0
   20.4705  -11.2957  -17.2649 C   0  0  1  0  0  0  0  0  0  0  0  0
   19.7442  -12.5876  -16.9546 C   0  0  0  0  0  0  0  0  0  0  0  0
   19.6031  -13.6608  -18.3990 S   0  0  0  0  0  0  0  0  0  0  0  0
   20.5532  -10.4054  -16.0964 C   0  0  0  0  0  0  0  0  0  0  0  0
   19.5459   -9.9707  -15.5101 O   0  0  0  0  0  0  0  0  0  0  0  0
   21.8334  -10.0239  -15.6145 N   0  0  0  0  0  0  0  0  0  0  0  0
   21.9807   -9.1599  -14.4808 C   0  0  0  0  0  0  0  0  0  0  0  0
   21.9898   -7.7405  -14.9698 C   0  0  0  0  0  0  0  0  0  0  0  0
   22.5755   -7.4119  -16.0424 O   0  0  0  0  0  0  0  0  0  0  0  0
   21.3405   -6.7329  -14.2389 N   0  0  0  0  0  0  0  0  0  0  0  0
   21.3502   -5.3363  -14.7193 C   0  0  1  0  0  0  0  0  0  0  0  0
   19.9257   -4.8602  -14.8127 C   0  0  0  0  0  0  0  0  0  0  0  0
   19.7767   -3.4140  -15.2013 C   0  0  0  0  0  0  0  0  0  0  0  0
   18.3239   -3.0564  -15.2785 C   0  0  0  0  0  0  0  0  0  0  0  0
   17.4596   -3.9388  -15.0378 O   0  0  0  0  0  0  0  0  0  0  0  0
   22.1744   -4.4981  -13.8212 C   0  0  0  0  0  0  0  0  0  0  0  0
   22.3703   -4.7935  -12.6442 O   0  0  0  0  0  0  0  0  0  0  0  0
   17.9125   -1.7920  -15.6046 O   0  0  0  0  0  0  0  0  0  0  0  0
   22.7457   -3.3265  -14.3499 O   0  0  0  0  0  0  0  0  0  0  0  0
  2  3  1  0
  2  1  1  1
  4  3  1  0
  5  2  1  0
  5  6  2  0
  7  5  1  0
  8  7  1  0
  9  8  1  0
 10  9  2  0
 11  9  1  0
 12 13  1  1
 12 11  1  0
 13 14  1  0
 15 14  1  0
 15 19  1  0
 16 15  2  0
 17 20  1  0
 17 12  1  0
 18 17  2  0
M  END
$$$$
