CGE.pdb
     RDKit          3D

 20 19  0  0  1  0  0  0  0  0999 V2000
   18.8537  -11.4235  -16.5782 N   0  0  0  0  0  0  0  0  0  0  0  0
   18.6740  -11.3710  -15.1397 C   0  0  1  0  0  0  0  0  0  0  0  0
   19.0655  -12.7297  -14.5981 C   0  0  0  0  0  0  0  0  0  0  0  0
   17.7429  -13.9459  -14.7712 S   0  0  0  0  0  0  0  0  0  0  0  0
   19.4671  -10.2826  -14.5473 C   0  0  0  0  0  0  0  0  0  0  0  0
   19.3910   -9.9729  -13.3450 O   0  0  0  0  0  0  0  0  0  0  0  0
   20.3577   -9.5525  -15.3784 N   0  0  0  0  0  0  0  0  0  0  0  0
   21.1195   -8.4488  -14.8736 C   0  0  0  0  0  0  0  0  0  0  0  0
   20.7832   -7.2338  -15.6889 C   0  0  0  0  0  0  0  0  0  0  0  0
   20.1887   -7.3254  -16.8022 O   0  0  0  0  0  0  0  0  0  0  0  0
   21.1251   -5.9523  -15.2286 N   0  0  0  0  0  0  0  0  0  0  0  0
   20.7602   -4.7544  -16.0118 C   0  0  1  0  0  0  0  0  0  0  0  0
   20.5872   -3.6029  -15.0584 C   0  0  0  0  0  0  0  0  0  0  0  0
   20.1758   -2.3108  -15.7110 C   0  0  0  0  0  0  0  0  0  0  0  0
   20.0564   -1.2348  -14.6753 C   0  0  0  0  0  0  0  0  0  0  0  0
   20.2832   -1.5140  -13.4694 O   0  0  0  0  0  0  0  0  0  0  0  0
   21.7876   -4.4920  -17.0433 C   0  0  0  0  0  0  0  0  0  0  0  0
   22.9803   -4.7218  -16.8550 O   0  0  0  0  0  0  0  0  0  0  0  0
   19.7065    0.0461  -15.0084 O   0  0  0  0  0  0  0  0  0  0  0  0
   21.3664   -3.9612  -18.2760 O   0  0  0  0  0  0  0  0  0  0  0  0
  2  3  1  0
  2  1  1  6
  4  3  1  0
  5  2  1  0
  5  6  2  0
  7  5  1  0
  8  7  1  0
  9  8  1  0
 10  9  2  0
 11  9  1  0
 12 13  1  1
 12 11  1  0
 13 14  1  0
 15 14  1  0
 15 19  1  0
 16 15  2  0
 17 20  1  0
 17 12  1  0
 18 17  2  0
M  END
$$$$
