CGE.pdb
     RDKit          3D

 20 19  0  0  1  0  0  0  0  0999 V2000
   19.1763  -11.4909  -17.6474 N   0  0  0  0  0  0  0  0  0  0  0  0
   18.4787  -12.0214  -16.4914 C   0  0  1  0  0  0  0  0  0  0  0  0
   19.0636  -13.3905  -16.2153 C   0  0  0  0  0  0  0  0  0  0  0  0
   19.1776  -14.4025  -17.7057 S   0  0  0  0  0  0  0  0  0  0  0  0
   18.6030  -11.1166  -15.3379 C   0  0  0  0  0  0  0  0  0  0  0  0
   18.1664  -11.4031  -14.2089 O   0  0  0  0  0  0  0  0  0  0  0  0
   19.2472   -9.8636  -15.5158 N   0  0  0  0  0  0  0  0  0  0  0  0
   19.4244   -8.9503  -14.4258 C   0  0  0  0  0  0  0  0  0  0  0  0
   20.2549   -7.7969  -14.9095 C   0  0  0  0  0  0  0  0  0  0  0  0
   20.7572   -7.7819  -16.0709 O   0  0  0  0  0  0  0  0  0  0  0  0
   20.4960   -6.6950  -14.0736 N   0  0  0  0  0  0  0  0  0  0  0  0
   21.0872   -5.4569  -14.6204 C   0  0  1  0  0  0  0  0  0  0  0  0
   20.0050   -4.4144  -14.7025 C   0  0  0  0  0  0  0  0  0  0  0  0
   20.4553   -3.0923  -15.2629 C   0  0  0  0  0  0  0  0  0  0  0  0
   19.3077   -2.1291  -15.2752 C   0  0  0  0  0  0  0  0  0  0  0  0
   19.3322   -1.1333  -14.5061 O   0  0  0  0  0  0  0  0  0  0  0  0
   22.2295   -5.0291  -13.7834 C   0  0  0  0  0  0  0  0  0  0  0  0
   22.2713   -5.2395  -12.5730 O   0  0  0  0  0  0  0  0  0  0  0  0
   18.2319   -2.3053  -16.1033 O   0  0  0  0  0  0  0  0  0  0  0  0
   23.2955   -4.3600  -14.4115 O   0  0  0  0  0  0  0  0  0  0  0  0
  2  3  1  0
  2  1  1  6
  4  3  1  0
  5  2  1  0
  5  6  2  0
  7  5  1  0
  8  7  1  0
  9  8  1  0
 10  9  2  0
 11  9  1  0
 12 13  1  1
 12 11  1  0
 13 14  1  0
 15 14  1  0
 15 19  1  0
 16 15  2  0
 17 20  1  0
 17 12  1  0
 18 17  2  0
M  END
$$$$
