FNK.pdb
     RDKit          3D

 29 29  0  0  1  0  0  0  0  0999 V2000
   26.4885  -22.7183  -10.3611 N   0  0  0  0  0  0  0  0  0  0  0  0
   26.1115  -21.3806  -10.6869 C   0  0  1  0  0  0  0  0  0  0  0  0
   27.3064  -20.4158  -10.6236 C   0  0  0  0  0  0  0  0  0  0  0  0
   27.7074  -20.2107   -9.2108 C   0  0  0  0  0  0  0  0  0  0  0  0
   28.8930  -20.7856   -8.7714 C   0  0  0  0  0  0  0  0  0  0  0  0
   29.3189  -20.6283   -7.4625 C   0  0  0  0  0  0  0  0  0  0  0  0
   28.5663  -19.8939   -6.5736 C   0  0  0  0  0  0  0  0  0  0  0  0
   27.3779  -19.3206   -7.0232 C   0  0  0  0  0  0  0  0  0  0  0  0
   26.9557  -19.4820   -8.3364 C   0  0  0  0  0  0  0  0  0  0  0  0
   25.5420  -21.2495  -12.0510 C   0  0  0  0  0  0  0  0  0  0  0  0
   26.0595  -21.8099  -13.0464 O   0  0  0  0  0  0  0  0  0  0  0  0
   22.0237  -21.3039  -11.8965 N   0  0  0  0  0  0  0  0  0  0  0  0
   21.5791  -20.2114  -12.6748 C   0  0  0  0  0  0  0  0  0  0  0  0
   20.4026  -19.7985  -12.5114 O   0  0  0  0  0  0  0  0  0  0  0  0
   22.5070  -19.5743  -13.6623 C   0  0  0  0  0  0  0  0  0  0  0  0
   23.8539  -20.2399  -13.6225 C   0  0  2  0  0  0  0  0  0  0  0  0
   24.3702  -20.4816  -12.3272 N   0  0  0  0  0  0  0  0  0  0  0  0
   24.7899  -19.3671  -14.3698 C   0  0  0  0  0  0  0  0  0  0  0  0
   25.7239  -18.7820  -13.7579 O   0  0  0  0  0  0  0  0  0  0  0  0
   24.7014  -19.1401  -15.7657 N   0  0  0  0  0  0  0  0  0  0  0  0
   25.7550  -19.5746  -16.6574 C   0  0  1  0  0  0  0  0  0  0  0  0
   26.1349  -21.0198  -16.4176 C   0  0  0  0  0  0  0  0  0  0  0  0
   27.6544  -21.0989  -16.4734 C   0  0  0  0  0  0  0  0  0  0  0  0
   28.0965  -22.5303  -16.2301 C   0  0  0  0  0  0  0  0  0  0  0  0
   29.5964  -22.6099  -16.2959 C   0  0  0  0  0  0  0  0  0  0  0  0
   30.0299  -23.9405  -15.8910 N   0  0  0  0  0  0  0  0  0  0  0  0
   25.2865  -19.3691  -18.0487 C   0  0  0  0  0  0  0  0  0  0  0  0
   26.0678  -18.6922  -18.9989 O   0  0  0  0  0  0  0  0  0  0  0  0
   24.1800  -19.7931  -18.4174 O   0  0  0  0  0  0  0  0  0  0  0  0
  2  1  1  6
  2  3  1  0
  2 10  1  0
  3  4  1  0
  4  9  2  0
  5  6  2  0
  5  4  1  0
  6  7  1  0
  7  8  2  0
  9  8  1  0
 10 17  1  0
 10 11  2  0
 13 15  1  0
 13 12  1  0
 14 13  2  0
 16 15  1  1
 16 18  1  0
 17 16  1  0
 18 19  2  0
 20 18  1  0
 20 21  1  0
 21 27  1  0
 21 22  1  6
 23 22  1  0
 24 23  1  0
 25 24  1  0
 26 25  1  0
 27 29  2  0
 27 28  1  0
M  END
$$$$
