FNK.pdb
     RDKit          3D

 29 29  0  0  1  0  0  0  0  0999 V2000
   31.6456  -10.9770  -17.6964 N   0  0  0  0  0  0  0  0  0  0  0  0
   30.5703  -10.0627  -17.4835 C   0  0  1  0  0  0  0  0  0  0  0  0
   30.8498   -8.6903  -18.1166 C   0  0  0  0  0  0  0  0  0  0  0  0
   32.0354   -8.0759  -17.4719 C   0  0  0  0  0  0  0  0  0  0  0  0
   31.8310   -7.2007  -16.4128 C   0  0  0  0  0  0  0  0  0  0  0  0
   32.9000   -6.5964  -15.7714 C   0  0  0  0  0  0  0  0  0  0  0  0
   34.1890   -6.8581  -16.1788 C   0  0  0  0  0  0  0  0  0  0  0  0
   34.3847   -7.7375  -17.2425 C   0  0  0  0  0  0  0  0  0  0  0  0
   33.3092   -8.3401  -17.8820 C   0  0  0  0  0  0  0  0  0  0  0  0
   29.2831  -10.5308  -18.0548 C   0  0  0  0  0  0  0  0  0  0  0  0
   29.2317  -11.3867  -18.9700 O   0  0  0  0  0  0  0  0  0  0  0  0
   26.8967  -12.9593  -15.3831 N   0  0  0  0  0  0  0  0  0  0  0  0
   26.3646  -12.5939  -16.6402 C   0  0  0  0  0  0  0  0  0  0  0  0
   26.2517  -13.4813  -17.5241 O   0  0  0  0  0  0  0  0  0  0  0  0
   25.9487  -11.1772  -16.8894 C   0  0  0  0  0  0  0  0  0  0  0  0
   26.7665  -10.5770  -17.9984 C   0  0  2  0  0  0  0  0  0  0  0  0
   28.0177  -10.0445  -17.6061 N   0  0  0  0  0  0  0  0  0  0  0  0
   25.9459   -9.5050  -18.6095 C   0  0  0  0  0  0  0  0  0  0  0  0
   26.2782   -8.2985  -18.4573 O   0  0  0  0  0  0  0  0  0  0  0  0
   24.7793   -9.7536  -19.3746 N   0  0  0  0  0  0  0  0  0  0  0  0
   24.1379   -8.6907  -20.1181 C   0  0  1  0  0  0  0  0  0  0  0  0
   25.0901   -8.0314  -21.0923 C   0  0  0  0  0  0  0  0  0  0  0  0
   24.2879   -7.0012  -21.8754 C   0  0  0  0  0  0  0  0  0  0  0  0
   24.4265   -5.6420  -21.2144 C   0  0  0  0  0  0  0  0  0  0  0  0
   23.6931   -4.6118  -22.0275 C   0  0  0  0  0  0  0  0  0  0  0  0
   23.8647   -3.3001  -21.4174 N   0  0  0  0  0  0  0  0  0  0  0  0
   22.9691   -9.2700  -20.8224 C   0  0  0  0  0  0  0  0  0  0  0  0
   21.8080   -8.5196  -21.0675 O   0  0  0  0  0  0  0  0  0  0  0  0
   22.9831  -10.4457  -21.2193 O   0  0  0  0  0  0  0  0  0  0  0  0
  2  1  1  6
  2  3  1  0
  2 10  1  0
  3  4  1  0
  4  9  2  0
  5  6  2  0
  5  4  1  0
  6  7  1  0
  7  8  2  0
  9  8  1  0
 10 17  1  0
 10 11  2  0
 13 15  1  0
 13 12  1  0
 14 13  2  0
 16 15  1  1
 16 18  1  0
 17 16  1  0
 18 19  2  0
 20 18  1  0
 20 21  1  0
 21 27  1  0
 21 22  1  6
 23 22  1  0
 24 23  1  0
 25 24  1  0
 26 25  1  0
 27 29  2  0
 27 28  1  0
M  END
$$$$
