FNK.pdb
     RDKit          3D

 29 29  0  0  1  0  0  0  0  0999 V2000
   33.5451   -7.9747  -16.3892 N   0  0  0  0  0  0  0  0  0  0  0  0
   32.8799   -8.8398  -17.3094 C   0  0  1  0  0  0  0  0  0  0  0  0
   33.0354  -10.3190  -16.9216 C   0  0  0  0  0  0  0  0  0  0  0  0
   34.3735  -10.8052  -17.3364 C   0  0  0  0  0  0  0  0  0  0  0  0
   34.6148  -10.9977  -18.6907 C   0  0  0  0  0  0  0  0  0  0  0  0
   35.8455  -11.4502  -19.1379 C   0  0  0  0  0  0  0  0  0  0  0  0
   36.8531  -11.7168  -18.2383 C   0  0  0  0  0  0  0  0  0  0  0  0
   36.6021  -11.5210  -16.8811 C   0  0  0  0  0  0  0  0  0  0  0  0
   35.3662  -11.0675  -16.4386 C   0  0  0  0  0  0  0  0  0  0  0  0
   31.4210   -8.5845  -17.4017 C   0  0  0  0  0  0  0  0  0  0  0  0
   30.7667   -8.1015  -16.4470 O   0  0  0  0  0  0  0  0  0  0  0  0
   26.6431   -7.8993  -18.9002 N   0  0  0  0  0  0  0  0  0  0  0  0
   27.5509   -6.8570  -19.1943 C   0  0  0  0  0  0  0  0  0  0  0  0
   27.0897   -5.7171  -19.4579 O   0  0  0  0  0  0  0  0  0  0  0  0
   29.0236   -7.1269  -19.1826 C   0  0  0  0  0  0  0  0  0  0  0  0
   29.2951   -8.5404  -18.7498 C   0  0  2  0  0  0  0  0  0  0  0  0
   30.6612   -8.8674  -18.5772 N   0  0  0  0  0  0  0  0  0  0  0  0
   28.7031   -9.4287  -19.7777 C   0  0  0  0  0  0  0  0  0  0  0  0
   29.2535   -9.5331  -20.9070 O   0  0  0  0  0  0  0  0  0  0  0  0
   27.5258  -10.1894  -19.5692 N   0  0  0  0  0  0  0  0  0  0  0  0
   27.0681  -11.1372  -20.5623 C   0  0  1  0  0  0  0  0  0  0  0  0
   26.3879  -12.3316  -19.9288 C   0  0  0  0  0  0  0  0  0  0  0  0
   26.0675  -13.3113  -21.0494 C   0  0  0  0  0  0  0  0  0  0  0  0
   25.4421  -14.5640  -20.4637 C   0  0  0  0  0  0  0  0  0  0  0  0
   25.1852  -15.5571  -21.5627 C   0  0  0  0  0  0  0  0  0  0  0  0
   24.6867  -16.7993  -20.9875 N   0  0  0  0  0  0  0  0  0  0  0  0
   26.1492  -10.4243  -21.4815 C   0  0  0  0  0  0  0  0  0  0  0  0
   25.0749   -9.6569  -21.0036 O   0  0  0  0  0  0  0  0  0  0  0  0
   26.3043  -10.4855  -22.7112 O   0  0  0  0  0  0  0  0  0  0  0  0
  2  1  1  1
  2  3  1  0
  2 10  1  0
  3  4  1  0
  4  9  2  0
  5  6  2  0
  5  4  1  0
  6  7  1  0
  7  8  2  0
  9  8  1  0
 10 17  1  0
 10 11  2  0
 13 15  1  0
 13 12  1  0
 14 13  2  0
 16 15  1  6
 16 18  1  0
 17 16  1  0
 18 19  2  0
 20 18  1  0
 20 21  1  0
 21 27  1  0
 21 22  1  1
 23 22  1  0
 24 23  1  0
 25 24  1  0
 26 25  1  0
 27 29  2  0
 27 28  1  0
M  END
$$$$
