FNK.pdb
     RDKit          3D

 29 29  0  0  1  0  0  0  0  0999 V2000
   23.8712  -19.3551  -16.7608 N   0  0  0  0  0  0  0  0  0  0  0  0
   22.6837  -18.8291  -16.1684 C   0  0  1  0  0  0  0  0  0  0  0  0
   21.5141  -18.7897  -17.1649 C   0  0  0  0  0  0  0  0  0  0  0  0
   21.8457  -17.8793  -18.2874 C   0  0  0  0  0  0  0  0  0  0  0  0
   21.6984  -16.5118  -18.0935 C   0  0  0  0  0  0  0  0  0  0  0  0
   21.9929  -15.6128  -19.1056 C   0  0  0  0  0  0  0  0  0  0  0  0
   22.4392  -16.0672  -20.3263 C   0  0  0  0  0  0  0  0  0  0  0  0
   22.5840  -17.4411  -20.5122 C   0  0  0  0  0  0  0  0  0  0  0  0
   22.2868  -18.3377  -19.4940 C   0  0  0  0  0  0  0  0  0  0  0  0
   22.2123  -19.6184  -15.0036 C   0  0  0  0  0  0  0  0  0  0  0  0
   22.2480  -20.8720  -14.9891 O   0  0  0  0  0  0  0  0  0  0  0  0
   21.4485  -20.5729   -9.5083 N   0  0  0  0  0  0  0  0  0  0  0  0
   20.5805  -19.8102  -10.3217 C   0  0  0  0  0  0  0  0  0  0  0  0
   19.3445  -19.8661  -10.0964 O   0  0  0  0  0  0  0  0  0  0  0  0
   21.1431  -18.9598  -11.4182 C   0  0  0  0  0  0  0  0  0  0  0  0
   21.1756  -19.7244  -12.7117 C   0  0  2  0  0  0  0  0  0  0  0  0
   21.6883  -19.0119  -13.8218 N   0  0  0  0  0  0  0  0  0  0  0  0
   19.7848  -20.1477  -12.9991 C   0  0  0  0  0  0  0  0  0  0  0  0
   19.0883  -19.4929  -13.8209 O   0  0  0  0  0  0  0  0  0  0  0  0
   19.1687  -21.2710  -12.3936 N   0  0  0  0  0  0  0  0  0  0  0  0
   18.8874  -22.4665  -13.1590 C   0  0  1  0  0  0  0  0  0  0  0  0
   20.0578  -23.4261  -13.1542 C   0  0  0  0  0  0  0  0  0  0  0  0
   19.6426  -24.6433  -13.9691 C   0  0  0  0  0  0  0  0  0  0  0  0
   20.8208  -25.5909  -14.1005 C   0  0  0  0  0  0  0  0  0  0  0  0
   20.4107  -26.7922  -14.9063 C   0  0  0  0  0  0  0  0  0  0  0  0
   21.5787  -27.6224  -15.1682 N   0  0  0  0  0  0  0  0  0  0  0  0
   17.6756  -23.0989  -12.5851 C   0  0  0  0  0  0  0  0  0  0  0  0
   17.6501  -23.5873  -11.2690 O   0  0  0  0  0  0  0  0  0  0  0  0
   16.6391  -23.2159  -13.2575 O   0  0  0  0  0  0  0  0  0  0  0  0
  2  1  1  6
  2  3  1  0
  2 10  1  0
  3  4  1  0
  4  9  2  0
  5  6  2  0
  5  4  1  0
  6  7  1  0
  7  8  2  0
  9  8  1  0
 10 17  1  0
 10 11  2  0
 13 15  1  0
 13 12  1  0
 14 13  2  0
 16 15  1  1
 16 18  1  0
 17 16  1  0
 18 19  2  0
 20 18  1  0
 20 21  1  0
 21 27  1  0
 21 22  1  1
 23 22  1  0
 24 23  1  0
 25 24  1  0
 26 25  1  0
 27 29  2  0
 27 28  1  0
M  END
$$$$
