FNK.pdb
     RDKit          3D

 29 29  0  0  1  0  0  0  0  0999 V2000
   18.3536   -9.7605  -13.3644 N   0  0  0  0  0  0  0  0  0  0  0  0
   18.6325   -8.8830  -12.2736 C   0  0  1  0  0  0  0  0  0  0  0  0
   19.6649   -7.8086  -12.6506 C   0  0  0  0  0  0  0  0  0  0  0  0
   20.9344   -8.4578  -13.0575 C   0  0  0  0  0  0  0  0  0  0  0  0
   21.5777   -9.2807  -12.1419 C   0  0  0  0  0  0  0  0  0  0  0  0
   22.7665   -9.9141  -12.4654 C   0  0  0  0  0  0  0  0  0  0  0  0
   23.3300   -9.7347  -13.7088 C   0  0  0  0  0  0  0  0  0  0  0  0
   22.6777   -8.9071  -14.6214 C   0  0  0  0  0  0  0  0  0  0  0  0
   21.4862   -8.2743  -14.2914 C   0  0  0  0  0  0  0  0  0  0  0  0
   17.4337   -8.1564  -11.7866 C   0  0  0  0  0  0  0  0  0  0  0  0
   16.4083   -8.0119  -12.4941 O   0  0  0  0  0  0  0  0  0  0  0  0
   13.6246   -7.2090   -8.2278 N   0  0  0  0  0  0  0  0  0  0  0  0
   14.7885   -6.4411   -7.9980 C   0  0  0  0  0  0  0  0  0  0  0  0
   14.6702   -5.3336   -7.4142 O   0  0  0  0  0  0  0  0  0  0  0  0
   16.1211   -6.9569   -8.4454 C   0  0  0  0  0  0  0  0  0  0  0  0
   16.2095   -6.9518   -9.9457 C   0  0  2  0  0  0  0  0  0  0  0  0
   17.3608   -7.5736  -10.4850 N   0  0  0  0  0  0  0  0  0  0  0  0
   16.1689   -5.5344  -10.3765 C   0  0  0  0  0  0  0  0  0  0  0  0
   17.2141   -4.8321  -10.3178 O   0  0  0  0  0  0  0  0  0  0  0  0
   14.9997   -4.8986  -10.8633 N   0  0  0  0  0  0  0  0  0  0  0  0
   15.0464   -3.5431  -11.3679 C   0  0  1  0  0  0  0  0  0  0  0  0
   13.8073   -3.1963  -12.1646 C   0  0  0  0  0  0  0  0  0  0  0  0
   13.9410   -3.8768  -13.5200 C   0  0  0  0  0  0  0  0  0  0  0  0
   12.7284   -3.5507  -14.3725 C   0  0  0  0  0  0  0  0  0  0  0  0
   12.8687   -4.2093  -15.7167 C   0  0  0  0  0  0  0  0  0  0  0  0
   14.1318   -3.8105  -16.3230 N   0  0  0  0  0  0  0  0  0  0  0  0
   15.2093   -2.6324  -10.2096 C   0  0  0  0  0  0  0  0  0  0  0  0
   16.1383   -1.5797  -10.2226 O   0  0  0  0  0  0  0  0  0  0  0  0
   14.5232   -2.7753   -9.1855 O   0  0  0  0  0  0  0  0  0  0  0  0
  2  1  1  6
  2  3  1  0
  2 10  1  0
  3  4  1  0
  4  9  2  0
  5  6  2  0
  5  4  1  0
  6  7  1  0
  7  8  2  0
  9  8  1  0
 10 17  1  0
 10 11  2  0
 13 15  1  0
 13 12  1  0
 14 13  2  0
 16 15  1  1
 16 18  1  0
 17 16  1  0
 18 19  2  0
 20 18  1  0
 20 21  1  0
 21 27  1  0
 21 22  1  1
 23 22  1  0
 24 23  1  0
 25 24  1  0
 26 25  1  0
 27 29  2  0
 27 28  1  0
M  END
$$$$
