FNK.pdb
     RDKit          3D

 29 29  0  0  1  0  0  0  0  0999 V2000
   32.3686   -8.5425  -19.1567 N   0  0  0  0  0  0  0  0  0  0  0  0
   31.3633   -8.0251  -18.2853 C   0  0  1  0  0  0  0  0  0  0  0  0
   31.6463   -6.5689  -17.8830 C   0  0  0  0  0  0  0  0  0  0  0  0
   32.8862   -6.5076  -17.0720 C   0  0  0  0  0  0  0  0  0  0  0  0
   34.1042   -6.4229  -17.7342 C   0  0  0  0  0  0  0  0  0  0  0  0
   35.2956   -6.3627  -17.0297 C   0  0  0  0  0  0  0  0  0  0  0  0
   35.2872   -6.3860  -15.6530 C   0  0  0  0  0  0  0  0  0  0  0  0
   34.0604   -6.4713  -14.9967 C   0  0  0  0  0  0  0  0  0  0  0  0
   32.8691   -6.5318  -15.7083 C   0  0  0  0  0  0  0  0  0  0  0  0
   30.0067   -8.0351  -18.8868 C   0  0  0  0  0  0  0  0  0  0  0  0
   29.8195   -7.8504  -20.1131 O   0  0  0  0  0  0  0  0  0  0  0  0
   24.3888  -10.2470  -18.6430 N   0  0  0  0  0  0  0  0  0  0  0  0
   25.5603   -9.7280  -19.2390 C   0  0  0  0  0  0  0  0  0  0  0  0
   25.4984   -9.3211  -20.4273 O   0  0  0  0  0  0  0  0  0  0  0  0
   26.8332   -9.6708  -18.4526 C   0  0  0  0  0  0  0  0  0  0  0  0
   27.5192   -8.3496  -18.6590 C   0  0  2  0  0  0  0  0  0  0  0  0
   28.8236   -8.2553  -18.1182 N   0  0  0  0  0  0  0  0  0  0  0  0
   26.6561   -7.3135  -18.0443 C   0  0  0  0  0  0  0  0  0  0  0  0
   26.6490   -7.1668  -16.7923 O   0  0  0  0  0  0  0  0  0  0  0  0
   25.8144   -6.4530  -18.7921 N   0  0  0  0  0  0  0  0  0  0  0  0
   24.9896   -5.4634  -18.1329 C   0  0  1  0  0  0  0  0  0  0  0  0
   24.4953   -4.4088  -19.0993 C   0  0  0  0  0  0  0  0  0  0  0  0
   23.7630   -3.3564  -18.2780 C   0  0  0  0  0  0  0  0  0  0  0  0
   23.2692   -2.2519  -19.1943 C   0  0  0  0  0  0  0  0  0  0  0  0
   22.5825   -1.1925  -18.3779 C   0  0  0  0  0  0  0  0  0  0  0  0
   22.1774   -0.0963  -19.2476 N   0  0  0  0  0  0  0  0  0  0  0  0
   23.8573   -6.1713  -17.4893 C   0  0  0  0  0  0  0  0  0  0  0  0
   23.4502   -5.8753  -16.1785 O   0  0  0  0  0  0  0  0  0  0  0  0
   23.2305   -7.0541  -18.0958 O   0  0  0  0  0  0  0  0  0  0  0  0
  2  1  1  6
  2  3  1  0
  2 10  1  0
  3  4  1  0
  4  9  2  0
  5  6  2  0
  5  4  1  0
  6  7  1  0
  7  8  2  0
  9  8  1  0
 10 17  1  0
 10 11  2  0
 13 15  1  0
 13 12  1  0
 14 13  2  0
 16 15  1  1
 16 18  1  0
 17 16  1  0
 18 19  2  0
 20 18  1  0
 20 21  1  0
 21 27  1  0
 21 22  1  6
 23 22  1  0
 24 23  1  0
 25 24  1  0
 26 25  1  0
 27 29  2  0
 27 28  1  0
M  END
$$$$
