FNK.pdb
     RDKit          3D

 29 29  0  0  1  0  0  0  0  0999 V2000
   27.5425  -20.0847  -17.7967 N   0  0  0  0  0  0  0  0  0  0  0  0
   27.5286  -19.4704  -16.5083 C   0  0  1  0  0  0  0  0  0  0  0  0
   27.0096  -18.0248  -16.5672 C   0  0  0  0  0  0  0  0  0  0  0  0
   27.8144  -17.2452  -17.5384 C   0  0  0  0  0  0  0  0  0  0  0  0
   27.1495  -16.5639  -18.5498 C   0  0  0  0  0  0  0  0  0  0  0  0
   27.8481  -15.8191  -19.4860 C   0  0  0  0  0  0  0  0  0  0  0  0
   29.2216  -15.7440  -19.4250 C   0  0  0  0  0  0  0  0  0  0  0  0
   29.8807  -16.4309  -18.4067 C   0  0  0  0  0  0  0  0  0  0  0  0
   29.1750  -17.1764  -17.4712 C   0  0  0  0  0  0  0  0  0  0  0  0
   26.6688  -20.1823  -15.5305 C   0  0  0  0  0  0  0  0  0  0  0  0
   25.7784  -20.9895  -15.8889 O   0  0  0  0  0  0  0  0  0  0  0  0
   25.3092  -20.9049   -9.7125 N   0  0  0  0  0  0  0  0  0  0  0  0
   25.7429  -21.5800  -10.8757 C   0  0  0  0  0  0  0  0  0  0  0  0
   25.3228  -22.7470  -11.0832 O   0  0  0  0  0  0  0  0  0  0  0  0
   26.6786  -20.8995  -11.8262 C   0  0  0  0  0  0  0  0  0  0  0  0
   26.0067  -20.6706  -13.1510 C   0  0  2  0  0  0  0  0  0  0  0  0
   26.7928  -20.0019  -14.1194 N   0  0  0  0  0  0  0  0  0  0  0  0
   24.7805  -19.8824  -12.8837 C   0  0  0  0  0  0  0  0  0  0  0  0
   24.8396  -18.6235  -12.8544 O   0  0  0  0  0  0  0  0  0  0  0  0
   23.5107  -20.4669  -12.6517 N   0  0  0  0  0  0  0  0  0  0  0  0
   22.2959  -19.7834  -13.0405 C   0  0  1  0  0  0  0  0  0  0  0  0
   22.4117  -19.1709  -14.4196 C   0  0  0  0  0  0  0  0  0  0  0  0
   21.7486  -20.1340  -15.3948 C   0  0  0  0  0  0  0  0  0  0  0  0
   22.3676  -19.9680  -16.7706 C   0  0  0  0  0  0  0  0  0  0  0  0
   21.6116  -20.8049  -17.7648 C   0  0  0  0  0  0  0  0  0  0  0  0
   22.2352  -20.6823  -19.0757 N   0  0  0  0  0  0  0  0  0  0  0  0
   21.1847  -20.7630  -12.9824 C   0  0  0  0  0  0  0  0  0  0  0  0
   19.8486  -20.3566  -12.8377 O   0  0  0  0  0  0  0  0  0  0  0  0
   21.4053  -21.9817  -13.0606 O   0  0  0  0  0  0  0  0  0  0  0  0
  2  1  1  6
  2  3  1  0
  2 10  1  0
  3  4  1  0
  4  9  2  0
  5  6  2  0
  5  4  1  0
  6  7  1  0
  7  8  2  0
  9  8  1  0
 10 17  1  0
 10 11  2  0
 13 15  1  0
 13 12  1  0
 14 13  2  0
 16 15  1  1
 16 18  1  0
 17 16  1  0
 18 19  2  0
 20 18  1  0
 20 21  1  0
 21 27  1  0
 21 22  1  6
 23 22  1  0
 24 23  1  0
 25 24  1  0
 26 25  1  0
 27 29  2  0
 27 28  1  0
M  END
$$$$
