FNK.pdb
     RDKit          3D

 29 29  0  0  1  0  0  0  0  0999 V2000
   27.6382  -22.4466  -10.6980 N   0  0  0  0  0  0  0  0  0  0  0  0
   26.7554  -21.3263  -10.7541 C   0  0  1  0  0  0  0  0  0  0  0  0
   27.4831  -20.0064  -10.4522 C   0  0  0  0  0  0  0  0  0  0  0  0
   27.7941  -19.9283   -9.0044 C   0  0  0  0  0  0  0  0  0  0  0  0
   29.0712  -20.2771   -8.5842 C   0  0  0  0  0  0  0  0  0  0  0  0
   29.4198  -20.2238   -7.2445 C   0  0  0  0  0  0  0  0  0  0  0  0
   28.4974  -19.8209   -6.3050 C   0  0  0  0  0  0  0  0  0  0  0  0
   27.2181  -19.4728   -6.7356 C   0  0  0  0  0  0  0  0  0  0  0  0
   26.8741  -19.5286   -8.0800 C   0  0  0  0  0  0  0  0  0  0  0  0
   26.1132  -21.1539  -12.0807 C   0  0  0  0  0  0  0  0  0  0  0  0
   26.7572  -21.2570  -13.1519 O   0  0  0  0  0  0  0  0  0  0  0  0
   25.6714  -23.1163  -14.3779 N   0  0  0  0  0  0  0  0  0  0  0  0
   24.4835  -23.6570  -13.8362 C   0  0  0  0  0  0  0  0  0  0  0  0
   24.3084  -24.9008  -13.8983 O   0  0  0  0  0  0  0  0  0  0  0  0
   23.4730  -22.7503  -13.2048 C   0  0  0  0  0  0  0  0  0  0  0  0
   23.9183  -21.3182  -13.3032 C   0  0  2  0  0  0  0  0  0  0  0  0
   24.7238  -20.8613  -12.2330 N   0  0  0  0  0  0  0  0  0  0  0  0
   22.6929  -20.4889  -13.3849 C   0  0  0  0  0  0  0  0  0  0  0  0
   21.9489  -20.3700  -12.3743 O   0  0  0  0  0  0  0  0  0  0  0  0
   22.2907  -19.8020  -14.5573 N   0  0  0  0  0  0  0  0  0  0  0  0
   21.0398  -19.0758  -14.6008 C   0  0  1  0  0  0  0  0  0  0  0  0
   20.8425  -18.3736  -15.9269 C   0  0  0  0  0  0  0  0  0  0  0  0
   19.6064  -17.4954  -15.7893 C   0  0  0  0  0  0  0  0  0  0  0  0
   19.3459  -16.7782  -17.1013 C   0  0  0  0  0  0  0  0  0  0  0  0
   18.2453  -15.7715  -16.9126 C   0  0  0  0  0  0  0  0  0  0  0  0
   18.0277  -15.0511  -18.1600 N   0  0  0  0  0  0  0  0  0  0  0  0
   19.9450  -20.0404  -14.3388 C   0  0  0  0  0  0  0  0  0  0  0  0
   19.9555  -21.3350  -14.8821 O   0  0  0  0  0  0  0  0  0  0  0  0
   18.9787  -19.7289  -13.6252 O   0  0  0  0  0  0  0  0  0  0  0  0
  2  1  1  6
  2  3  1  0
  2 10  1  0
  3  4  1  0
  4  9  2  0
  5  6  2  0
  5  4  1  0
  6  7  1  0
  7  8  2  0
  9  8  1  0
 10 17  1  0
 10 11  2  0
 13 15  1  0
 13 12  1  0
 14 13  2  0
 16 15  1  1
 16 18  1  0
 17 16  1  0
 18 19  2  0
 20 18  1  0
 20 21  1  0
 21 27  1  0
 21 22  1  6
 23 22  1  0
 24 23  1  0
 25 24  1  0
 26 25  1  0
 27 29  2  0
 27 28  1  0
M  END
$$$$
