FNK.pdb
     RDKit          3D

 29 29  0  0  1  0  0  0  0  0999 V2000
   25.8737  -19.8371  -10.0202 N   0  0  0  0  0  0  0  0  0  0  0  0
   25.8504  -20.3681  -11.3450 C   0  0  1  0  0  0  0  0  0  0  0  0
   26.4210  -21.7941  -11.4020 C   0  0  0  0  0  0  0  0  0  0  0  0
   27.8621  -21.7689  -11.0538 C   0  0  0  0  0  0  0  0  0  0  0  0
   28.7862  -21.6169  -12.0796 C   0  0  0  0  0  0  0  0  0  0  0  0
   30.1457  -21.5860  -11.8152 C   0  0  0  0  0  0  0  0  0  0  0  0
   30.6018  -21.7064  -10.5216 C   0  0  0  0  0  0  0  0  0  0  0  0
   29.6675  -21.8587   -9.4984 C   0  0  0  0  0  0  0  0  0  0  0  0
   28.3057  -21.8894   -9.7695 C   0  0  0  0  0  0  0  0  0  0  0  0
   24.4848  -20.4423  -11.9211 C   0  0  0  0  0  0  0  0  0  0  0  0
   23.4675  -20.6064  -11.2063 O   0  0  0  0  0  0  0  0  0  0  0  0
   21.6030  -18.3195  -16.9416 N   0  0  0  0  0  0  0  0  0  0  0  0
   21.9492  -18.3781  -15.5728 C   0  0  0  0  0  0  0  0  0  0  0  0
   21.1547  -17.8849  -14.7320 O   0  0  0  0  0  0  0  0  0  0  0  0
   23.2360  -19.0208  -15.1571 C   0  0  0  0  0  0  0  0  0  0  0  0
   23.0474  -19.7998  -13.8857 C   0  0  2  0  0  0  0  0  0  0  0  0
   24.2315  -20.3319  -13.3221 N   0  0  0  0  0  0  0  0  0  0  0  0
   22.1085  -20.9050  -14.1909 C   0  0  0  0  0  0  0  0  0  0  0  0
   22.5334  -21.9499  -14.7539 O   0  0  0  0  0  0  0  0  0  0  0  0
   20.7258  -20.8634  -13.8835 N   0  0  0  0  0  0  0  0  0  0  0  0
   19.8667  -21.9921  -14.1700 C   0  0  1  0  0  0  0  0  0  0  0  0
   18.8237  -22.1933  -13.0919 C   0  0  0  0  0  0  0  0  0  0  0  0
   19.4312  -23.1208  -12.0484 C   0  0  0  0  0  0  0  0  0  0  0  0
   18.4821  -23.2493  -10.8710 C   0  0  0  0  0  0  0  0  0  0  0  0
   19.1031  -24.1265   -9.8197 C   0  0  0  0  0  0  0  0  0  0  0  0
   18.1676  -24.2979   -8.7162 N   0  0  0  0  0  0  0  0  0  0  0  0
   19.2330  -21.7574  -15.4895 C   0  0  0  0  0  0  0  0  0  0  0  0
   19.7614  -22.3035  -16.6701 O   0  0  0  0  0  0  0  0  0  0  0  0
   18.2079  -21.0652  -15.5897 O   0  0  0  0  0  0  0  0  0  0  0  0
  2  1  1  1
  2  3  1  0
  2 10  1  0
  3  4  1  0
  4  9  2  0
  5  6  2  0
  5  4  1  0
  6  7  1  0
  7  8  2  0
  9  8  1  0
 10 17  1  0
 10 11  2  0
 13 15  1  0
 13 12  1  0
 14 13  2  0
 16 15  1  6
 16 18  1  0
 17 16  1  0
 18 19  2  0
 20 18  1  0
 20 21  1  0
 21 27  1  0
 21 22  1  1
 23 22  1  0
 24 23  1  0
 25 24  1  0
 26 25  1  0
 27 29  2  0
 27 28  1  0
M  END
$$$$
