FNK.pdb
     RDKit          3D

 29 29  0  0  1  0  0  0  0  0999 V2000
   15.2816  -14.7426    4.5254 N   0  0  0  0  0  0  0  0  0  0  0  0
   16.1735  -15.7780    4.1131 C   0  0  1  0  0  0  0  0  0  0  0  0
   17.6071  -15.5322    4.6101 C   0  0  0  0  0  0  0  0  0  0  0  0
   18.2037  -14.3948    3.8690 C   0  0  0  0  0  0  0  0  0  0  0  0
   18.7589  -14.6399    2.6196 C   0  0  0  0  0  0  0  0  0  0  0  0
   19.3305  -13.6168    1.8808 C   0  0  0  0  0  0  0  0  0  0  0  0
   19.3554  -12.3337    2.3796 C   0  0  0  0  0  0  0  0  0  0  0  0
   18.7961  -12.0968    3.6342 C   0  0  0  0  0  0  0  0  0  0  0  0
   18.2248  -13.1265    4.3707 C   0  0  0  0  0  0  0  0  0  0  0  0
   15.7833  -17.1194    4.6135 C   0  0  0  0  0  0  0  0  0  0  0  0
   14.8854  -17.2745    5.4753 O   0  0  0  0  0  0  0  0  0  0  0  0
   14.0607  -20.4242    2.8290 N   0  0  0  0  0  0  0  0  0  0  0  0
   15.3152  -21.0579    2.6824 C   0  0  0  0  0  0  0  0  0  0  0  0
   15.4628  -21.8858    1.7474 O   0  0  0  0  0  0  0  0  0  0  0  0
   16.4289  -20.7322    3.6286 C   0  0  0  0  0  0  0  0  0  0  0  0
   16.0203  -19.6253    4.5597 C   0  0  2  0  0  0  0  0  0  0  0  0
   16.3971  -18.3234    4.1523 N   0  0  0  0  0  0  0  0  0  0  0  0
   16.6278  -19.9229    5.8783 C   0  0  0  0  0  0  0  0  0  0  0  0
   17.8007  -19.5349    6.1290 O   0  0  0  0  0  0  0  0  0  0  0  0
   15.9585  -20.6353    6.9043 N   0  0  0  0  0  0  0  0  0  0  0  0
   16.6016  -20.8852    8.1763 C   0  0  1  0  0  0  0  0  0  0  0  0
   15.5955  -21.1877    9.2657 C   0  0  0  0  0  0  0  0  0  0  0  0
   16.3827  -21.4495   10.5424 C   0  0  0  0  0  0  0  0  0  0  0  0
   15.4244  -21.8050   11.6644 C   0  0  0  0  0  0  0  0  0  0  0  0
   16.1961  -22.0008   12.9398 C   0  0  0  0  0  0  0  0  0  0  0  0
   15.2831  -22.3973   14.0034 N   0  0  0  0  0  0  0  0  0  0  0  0
   17.5470  -22.0124    7.9939 C   0  0  0  0  0  0  0  0  0  0  0  0
   17.2545  -23.0916    7.1447 O   0  0  0  0  0  0  0  0  0  0  0  0
   18.6342  -22.0351    8.5918 O   0  0  0  0  0  0  0  0  0  0  0  0
  2  1  1  1
  2  3  1  0
  2 10  1  0
  3  4  1  0
  4  9  2  0
  5  6  2  0
  5  4  1  0
  6  7  1  0
  7  8  2  0
  9  8  1  0
 10 17  1  0
 10 11  2  0
 13 15  1  0
 13 12  1  0
 14 13  2  0
 16 15  1  6
 16 18  1  0
 17 16  1  0
 18 19  2  0
 20 18  1  0
 20 21  1  0
 21 27  1  0
 21 22  1  1
 23 22  1  0
 24 23  1  0
 25 24  1  0
 26 25  1  0
 27 29  2  0
 27 28  1  0
M  END
$$$$
