FNK.pdb
     RDKit          3D

 29 29  0  0  1  0  0  0  0  0999 V2000
   27.4782  -22.5335  -11.5477 N   0  0  0  0  0  0  0  0  0  0  0  0
   26.5177  -21.7046  -10.8934 C   0  0  1  0  0  0  0  0  0  0  0  0
   27.0649  -20.2933  -10.6257 C   0  0  0  0  0  0  0  0  0  0  0  0
   27.5461  -20.2023   -9.2261 C   0  0  0  0  0  0  0  0  0  0  0  0
   28.7965  -20.7259   -8.9230 C   0  0  0  0  0  0  0  0  0  0  0  0
   29.2988  -20.6698   -7.6331 C   0  0  0  0  0  0  0  0  0  0  0  0
   28.5591  -20.0895   -6.6272 C   0  0  0  0  0  0  0  0  0  0  0  0
   27.3054  -19.5668   -6.9403 C   0  0  0  0  0  0  0  0  0  0  0  0
   26.8067  -19.6262   -8.2352 C   0  0  0  0  0  0  0  0  0  0  0  0
   25.2697  -21.5260  -11.6762 C   0  0  0  0  0  0  0  0  0  0  0  0
   25.2233  -21.7293  -12.9129 O   0  0  0  0  0  0  0  0  0  0  0  0
   19.8233  -22.3256  -11.9065 N   0  0  0  0  0  0  0  0  0  0  0  0
   20.3202  -21.0364  -11.6098 C   0  0  0  0  0  0  0  0  0  0  0  0
   19.6669  -20.0369  -12.0042 O   0  0  0  0  0  0  0  0  0  0  0  0
   21.5956  -20.8892  -10.8393 C   0  0  0  0  0  0  0  0  0  0  0  0
   22.7788  -21.1633  -11.7247 C   0  0  2  0  0  0  0  0  0  0  0  0
   24.0386  -21.1134  -11.0819 N   0  0  0  0  0  0  0  0  0  0  0  0
   22.7437  -20.1613  -12.8160 C   0  0  0  0  0  0  0  0  0  0  0  0
   23.1494  -18.9872  -12.6011 O   0  0  0  0  0  0  0  0  0  0  0  0
   22.2705  -20.4436  -14.1215 N   0  0  0  0  0  0  0  0  0  0  0  0
   22.2986  -19.4329  -15.1567 C   0  0  1  0  0  0  0  0  0  0  0  0
   23.3908  -19.6961  -16.1707 C   0  0  0  0  0  0  0  0  0  0  0  0
   23.3430  -18.5619  -17.1854 C   0  0  0  0  0  0  0  0  0  0  0  0
   24.3512  -18.8263  -18.2886 C   0  0  0  0  0  0  0  0  0  0  0  0
   25.4758  -17.8336  -18.1887 C   0  0  0  0  0  0  0  0  0  0  0  0
   26.4656  -18.1164  -19.2196 N   0  0  0  0  0  0  0  0  0  0  0  0
   20.9645  -19.4068  -15.8028 C   0  0  0  0  0  0  0  0  0  0  0  0
   20.4371  -18.2316  -16.3613 O   0  0  0  0  0  0  0  0  0  0  0  0
   20.2689  -20.4324  -15.8693 O   0  0  0  0  0  0  0  0  0  0  0  0
  2  1  1  6
  2  3  1  0
  2 10  1  0
  3  4  1  0
  4  9  2  0
  5  6  2  0
  5  4  1  0
  6  7  1  0
  7  8  2  0
  9  8  1  0
 10 17  1  0
 10 11  2  0
 13 15  1  0
 13 12  1  0
 14 13  2  0
 16 15  1  1
 16 18  1  0
 17 16  1  0
 18 19  2  0
 20 18  1  0
 20 21  1  0
 21 27  1  0
 21 22  1  6
 23 22  1  0
 24 23  1  0
 25 24  1  0
 26 25  1  0
 27 29  2  0
 27 28  1  0
M  END
$$$$
