FNK.pdb
     RDKit          3D

 29 29  0  0  1  0  0  0  0  0999 V2000
   22.6293  -17.2521  -15.1127 N   0  0  0  0  0  0  0  0  0  0  0  0
   22.2956  -16.5126  -16.2872 C   0  0  1  0  0  0  0  0  0  0  0  0
   20.7771  -16.3268  -16.4364 C   0  0  0  0  0  0  0  0  0  0  0  0
   20.1270  -17.6490  -16.6041 C   0  0  0  0  0  0  0  0  0  0  0  0
   20.2867  -18.3141  -17.8130 C   0  0  0  0  0  0  0  0  0  0  0  0
   19.7031  -19.5520  -18.0277 C   0  0  0  0  0  0  0  0  0  0  0  0
   18.9515  -20.1437  -17.0372 C   0  0  0  0  0  0  0  0  0  0  0  0
   18.7965  -19.4691  -15.8273 C   0  0  0  0  0  0  0  0  0  0  0  0
   19.3836  -18.2280  -15.6179 C   0  0  0  0  0  0  0  0  0  0  0  0
   22.8860  -15.1513  -16.3085 C   0  0  0  0  0  0  0  0  0  0  0  0
   22.9521  -14.4369  -15.2798 O   0  0  0  0  0  0  0  0  0  0  0  0
   25.8277  -13.7578  -15.4942 N   0  0  0  0  0  0  0  0  0  0  0  0
   26.3810  -13.7041  -16.7934 C   0  0  0  0  0  0  0  0  0  0  0  0
   27.6024  -13.9674  -16.9359 O   0  0  0  0  0  0  0  0  0  0  0  0
   25.5123  -13.3432  -17.9582 C   0  0  0  0  0  0  0  0  0  0  0  0
   24.0681  -13.3034  -17.5440 C   0  0  2  0  0  0  0  0  0  0  0  0
   23.4192  -14.5601  -17.4939 N   0  0  0  0  0  0  0  0  0  0  0  0
   23.3653  -12.4255  -18.5091 C   0  0  0  0  0  0  0  0  0  0  0  0
   22.9537  -12.8999  -19.6021 O   0  0  0  0  0  0  0  0  0  0  0  0
   23.1192  -11.0492  -18.2782 N   0  0  0  0  0  0  0  0  0  0  0  0
   22.3952  -10.2515  -19.2445 C   0  0  1  0  0  0  0  0  0  0  0  0
   22.0147   -8.8979  -18.6847 C   0  0  0  0  0  0  0  0  0  0  0  0
   21.0745   -8.2458  -19.6892 C   0  0  0  0  0  0  0  0  0  0  0  0
   20.5454   -6.9437  -19.1166 C   0  0  0  0  0  0  0  0  0  0  0  0
   19.5009   -6.3783  -20.0385 C   0  0  0  0  0  0  0  0  0  0  0  0
   18.9335   -5.1735  -19.4479 N   0  0  0  0  0  0  0  0  0  0  0  0
   23.2486  -10.1113  -20.4485 C   0  0  0  0  0  0  0  0  0  0  0  0
   22.7206  -10.2209  -21.7449 O   0  0  0  0  0  0  0  0  0  0  0  0
   24.4655   -9.8909  -20.3447 O   0  0  0  0  0  0  0  0  0  0  0  0
  2  1  1  1
  2  3  1  0
  2 10  1  0
  3  4  1  0
  4  9  2  0
  5  6  2  0
  5  4  1  0
  6  7  1  0
  7  8  2  0
  9  8  1  0
 10 17  1  0
 10 11  2  0
 13 15  1  0
 13 12  1  0
 14 13  2  0
 16 15  1  6
 16 18  1  0
 17 16  1  0
 18 19  2  0
 20 18  1  0
 20 21  1  0
 21 27  1  0
 21 22  1  1
 23 22  1  0
 24 23  1  0
 25 24  1  0
 26 25  1  0
 27 29  2  0
 27 28  1  0
M  END
$$$$
