YEC.pdb
     RDKit          3D

 28 28  0  0  1  0  0  0  0  0999 V2000
   30.8393  -13.8212  -17.4997 O   0  0  0  0  0  0  0  0  0  0  0  0
   29.7635  -12.9555  -17.3258 C   0  0  0  0  0  0  0  0  0  0  0  0
   28.7514  -13.2299  -16.4170 C   0  0  0  0  0  0  0  0  0  0  0  0
   27.6935  -12.3571  -16.2606 C   0  0  0  0  0  0  0  0  0  0  0  0
   27.6625  -11.2107  -17.0230 C   0  0  0  0  0  0  0  0  0  0  0  0
   26.5319  -10.2604  -16.8679 C   0  0  0  0  0  0  0  0  0  0  0  0
   25.2797  -10.8424  -17.4439 C   0  0  2  0  0  0  0  0  0  0  0  0
   25.4676  -11.1745  -18.8268 N   0  0  0  0  0  0  0  0  0  0  0  0
   24.1736   -9.8817  -17.2298 C   0  0  0  0  0  0  0  0  0  0  0  0
   23.9391   -9.0529  -18.1467 O   0  0  0  0  0  0  0  0  0  0  0  0
   28.6752  -10.9564  -17.9184 C   0  0  0  0  0  0  0  0  0  0  0  0
   29.7436  -11.8186  -18.0895 C   0  0  0  0  0  0  0  0  0  0  0  0
   23.4117   -9.8941  -16.0449 N   0  0  0  0  0  0  0  0  0  0  0  0
   22.2821   -9.0175  -15.9043 C   0  0  1  0  0  0  0  0  0  0  0  0
   21.2091   -9.7666  -15.1147 C   0  0  0  0  0  0  0  0  0  0  0  0
   20.5166  -10.7804  -16.0243 C   0  0  0  0  0  0  0  0  0  0  0  0
   19.4941  -11.5460  -15.2692 C   0  0  0  0  0  0  0  0  0  0  0  0
   18.3166  -11.1007  -15.1886 O   0  0  0  0  0  0  0  0  0  0  0  0
   22.7201   -7.8039  -15.2033 C   0  0  0  0  0  0  0  0  0  0  0  0
   23.8709   -7.6548  -14.6952 O   0  0  0  0  0  0  0  0  0  0  0  0
   19.7730  -12.7441  -14.6384 O   0  0  0  0  0  0  0  0  0  0  0  0
   21.8274   -6.6831  -15.0549 N   0  0  0  0  0  0  0  0  0  0  0  0
   22.2723   -5.4314  -14.5270 C   0  0  1  0  0  0  0  0  0  0  0  0
   23.3702   -4.9089  -15.4358 C   0  0  0  0  0  0  0  0  0  0  0  0
   22.6478   -4.6613  -17.0779 S   0  0  0  0  0  0  0  0  0  0  0  0
   21.1829   -4.4590  -14.3482 C   0  0  0  0  0  0  0  0  0  0  0  0
   21.3590   -3.2568  -13.6789 O   0  0  0  0  0  0  0  0  0  0  0  0
   20.0397   -4.7023  -14.8097 O   0  0  0  0  0  0  0  0  0  0  0  0
  2  1  1  0
  2 12  2  0
  3  2  1  0
  4  3  2  0
  4  5  1  0
  5 11  2  0
  6  7  1  0
  6  5  1  0
  7  8  1  6
  9 13  1  0
  9  7  1  0
 10  9  2  0
 11 12  1  0
 14 19  1  0
 14 13  1  0
 14 15  1  1
 16 15  1  0
 16 17  1  0
 17 18  2  0
 19 22  1  0
 20 19  2  0
 21 17  1  0
 22 23  1  0
 23 26  1  0
 23 24  1  6
 25 24  1  0
 26 28  2  0
 26 27  1  0
M  END
$$$$
