YEC.pdb
     RDKit          3D

 28 28  0  0  1  0  0  0  0  0999 V2000
   30.9763  -14.7296  -19.5409 O   0  0  0  0  0  0  0  0  0  0  0  0
   30.0917  -15.3111  -18.6374 C   0  0  0  0  0  0  0  0  0  0  0  0
   30.3173  -16.5762  -18.1136 C   0  0  0  0  0  0  0  0  0  0  0  0
   29.4265  -17.1339  -17.2187 C   0  0  0  0  0  0  0  0  0  0  0  0
   28.3115  -16.4113  -16.8567 C   0  0  0  0  0  0  0  0  0  0  0  0
   27.3425  -16.9959  -15.8950 C   0  0  0  0  0  0  0  0  0  0  0  0
   26.7969  -18.2846  -16.4240 C   0  0  2  0  0  0  0  0  0  0  0  0
   26.0604  -18.0613  -17.6347 N   0  0  0  0  0  0  0  0  0  0  0  0
   25.9800  -18.9189  -15.3644 C   0  0  0  0  0  0  0  0  0  0  0  0
   24.8280  -18.4550  -15.1638 O   0  0  0  0  0  0  0  0  0  0  0  0
   28.1054  -15.1589  -17.3869 C   0  0  0  0  0  0  0  0  0  0  0  0
   28.9864  -14.5830  -18.2849 C   0  0  0  0  0  0  0  0  0  0  0  0
   26.4729  -20.0009  -14.6088 N   0  0  0  0  0  0  0  0  0  0  0  0
   25.6112  -20.6899  -13.6884 C   0  0  1  0  0  0  0  0  0  0  0  0
   25.4057  -22.1085  -14.2186 C   0  0  0  0  0  0  0  0  0  0  0  0
   24.4504  -22.8669  -13.2983 C   0  0  0  0  0  0  0  0  0  0  0  0
   24.2203  -24.2426  -13.8045 C   0  0  0  0  0  0  0  0  0  0  0  0
   23.4066  -24.9983  -13.2061 O   0  0  0  0  0  0  0  0  0  0  0  0
   26.2516  -20.6947  -12.3670 C   0  0  0  0  0  0  0  0  0  0  0  0
   27.4437  -21.0691  -12.1581 O   0  0  0  0  0  0  0  0  0  0  0  0
   24.8649  -24.7460  -14.9191 O   0  0  0  0  0  0  0  0  0  0  0  0
   25.5265  -20.2572  -11.2018 N   0  0  0  0  0  0  0  0  0  0  0  0
   25.8960  -20.6735   -9.8852 C   0  0  1  0  0  0  0  0  0  0  0  0
   26.4234  -19.4574   -9.1453 C   0  0  0  0  0  0  0  0  0  0  0  0
   27.1272  -18.3319  -10.3772 S   0  0  0  0  0  0  0  0  0  0  0  0
   24.8023  -21.3392   -9.1607 C   0  0  0  0  0  0  0  0  0  0  0  0
   24.9583  -21.8498   -7.8803 O   0  0  0  0  0  0  0  0  0  0  0  0
   23.6739  -21.4633   -9.6995 O   0  0  0  0  0  0  0  0  0  0  0  0
  2  1  1  0
  2 12  2  0
  3  2  1  0
  4  3  2  0
  4  5  1  0
  5 11  2  0
  6  7  1  0
  6  5  1  0
  7  8  1  6
  9 13  1  0
  9  7  1  0
 10  9  2  0
 11 12  1  0
 14 19  1  0
 14 13  1  0
 14 15  1  6
 16 15  1  0
 16 17  1  0
 17 18  2  0
 19 22  1  0
 20 19  2  0
 21 17  1  0
 22 23  1  0
 23 26  1  0
 23 24  1  1
 25 24  1  0
 26 28  2  0
 26 27  1  0
M  END
$$$$
