YEC.pdb
     RDKit          3D

 28 28  0  0  1  0  0  0  0  0999 V2000
   29.2754  -29.5236  -18.1047 O   0  0  0  0  0  0  0  0  0  0  0  0
   28.9359  -28.2711  -17.6016 C   0  0  0  0  0  0  0  0  0  0  0  0
   27.8210  -28.0914  -16.7951 C   0  0  0  0  0  0  0  0  0  0  0  0
   27.5028  -26.8401  -16.3069 C   0  0  0  0  0  0  0  0  0  0  0  0
   28.3123  -25.7755  -16.6354 C   0  0  0  0  0  0  0  0  0  0  0  0
   27.9849  -24.4221  -16.1190 C   0  0  0  0  0  0  0  0  0  0  0  0
   26.7853  -23.8719  -16.8236 C   0  0  2  0  0  0  0  0  0  0  0  0
   27.1275  -23.4584  -18.1541 N   0  0  0  0  0  0  0  0  0  0  0  0
   26.2248  -22.7713  -16.0072 C   0  0  0  0  0  0  0  0  0  0  0  0
   26.8245  -21.6657  -16.0334 O   0  0  0  0  0  0  0  0  0  0  0  0
   29.4130  -25.9739  -17.4361 C   0  0  0  0  0  0  0  0  0  0  0  0
   29.7484  -27.2200  -17.9351 C   0  0  0  0  0  0  0  0  0  0  0  0
   25.0640  -22.9537  -15.2300 N   0  0  0  0  0  0  0  0  0  0  0  0
   24.5202  -21.8574  -14.4772 C   0  0  1  0  0  0  0  0  0  0  0  0
   23.0002  -21.8978  -14.6311 C   0  0  0  0  0  0  0  0  0  0  0  0
   22.4016  -20.5724  -14.1623 C   0  0  0  0  0  0  0  0  0  0  0  0
   22.4935  -19.5503  -15.2340 C   0  0  0  0  0  0  0  0  0  0  0  0
   21.9843  -19.7854  -16.3640 O   0  0  0  0  0  0  0  0  0  0  0  0
   24.9254  -22.0108  -13.0742 C   0  0  0  0  0  0  0  0  0  0  0  0
   24.8285  -23.0928  -12.4224 O   0  0  0  0  0  0  0  0  0  0  0  0
   23.1205  -18.3317  -15.0524 O   0  0  0  0  0  0  0  0  0  0  0  0
   25.4728  -20.8954  -12.3454 N   0  0  0  0  0  0  0  0  0  0  0  0
   25.5814  -20.9082  -10.9201 C   0  0  1  0  0  0  0  0  0  0  0  0
   26.3896  -19.6917  -10.5058 C   0  0  0  0  0  0  0  0  0  0  0  0
   26.3764  -19.6179   -8.6964 S   0  0  0  0  0  0  0  0  0  0  0  0
   24.2779  -20.9725  -10.2412 C   0  0  0  0  0  0  0  0  0  0  0  0
   24.0952  -21.6412   -9.0395 O   0  0  0  0  0  0  0  0  0  0  0  0
   23.2756  -20.4087  -10.7477 O   0  0  0  0  0  0  0  0  0  0  0  0
  2  1  1  0
  2 12  2  0
  3  2  1  0
  4  3  2  0
  4  5  1  0
  5 11  2  0
  6  7  1  0
  6  5  1  0
  7  8  1  6
  9 13  1  0
  9  7  1  0
 10  9  2  0
 11 12  1  0
 14 19  1  0
 14 13  1  0
 14 15  1  1
 16 15  1  0
 16 17  1  0
 17 18  2  0
 19 22  1  0
 20 19  2  0
 21 17  1  0
 22 23  1  0
 23 26  1  0
 23 24  1  1
 25 24  1  0
 26 28  2  0
 26 27  1  0
M  END
$$$$
