YEC.pdb
     RDKit          3D

 28 28  0  0  1  0  0  0  0  0999 V2000
   30.9334  -12.7355  -16.9415 O   0  0  0  0  0  0  0  0  0  0  0  0
   29.7661  -11.9849  -16.8363 C   0  0  0  0  0  0  0  0  0  0  0  0
   29.6703  -10.7128  -17.3821 C   0  0  0  0  0  0  0  0  0  0  0  0
   28.5027   -9.9857  -17.2660 C   0  0  0  0  0  0  0  0  0  0  0  0
   27.4366  -10.5470  -16.5989 C   0  0  0  0  0  0  0  0  0  0  0  0
   26.1726   -9.7791  -16.4645 C   0  0  0  0  0  0  0  0  0  0  0  0
   25.1170  -10.3536  -17.3555 C   0  0  2  0  0  0  0  0  0  0  0  0
   25.5706  -10.3904  -18.7160 N   0  0  0  0  0  0  0  0  0  0  0  0
   23.8772   -9.5623  -17.1854 C   0  0  0  0  0  0  0  0  0  0  0  0
   23.6664   -8.6306  -18.0041 O   0  0  0  0  0  0  0  0  0  0  0  0
   27.5511  -11.8094  -16.0648 C   0  0  0  0  0  0  0  0  0  0  0  0
   28.7127  -12.5536  -16.1707 C   0  0  0  0  0  0  0  0  0  0  0  0
   22.9672   -9.8410  -16.1467 N   0  0  0  0  0  0  0  0  0  0  0  0
   21.7260   -9.1220  -16.0628 C   0  0  1  0  0  0  0  0  0  0  0  0
   20.6835  -10.0649  -15.4628 C   0  0  0  0  0  0  0  0  0  0  0  0
   19.2864   -9.6357  -15.9088 C   0  0  0  0  0  0  0  0  0  0  0  0
   18.4318   -9.3382  -14.7329 C   0  0  0  0  0  0  0  0  0  0  0  0
   18.0091  -10.2853  -14.0148 O   0  0  0  0  0  0  0  0  0  0  0  0
   21.9314   -7.9373  -15.2200 C   0  0  0  0  0  0  0  0  0  0  0  0
   22.9230   -7.7798  -14.4475 O   0  0  0  0  0  0  0  0  0  0  0  0
   18.0694   -8.0519  -14.3790 O   0  0  0  0  0  0  0  0  0  0  0  0
   20.9782   -6.8573  -15.2325 N   0  0  0  0  0  0  0  0  0  0  0  0
   21.2407   -5.6143  -14.5772 C   0  0  1  0  0  0  0  0  0  0  0  0
   22.5245   -5.0472  -15.1557 C   0  0  0  0  0  0  0  0  0  0  0  0
   22.8400   -3.4637  -14.3355 S   0  0  0  0  0  0  0  0  0  0  0  0
   20.1196   -4.6659  -14.6653 C   0  0  0  0  0  0  0  0  0  0  0  0
   19.7538   -3.8436  -13.6095 O   0  0  0  0  0  0  0  0  0  0  0  0
   19.4515   -4.5774  -15.7259 O   0  0  0  0  0  0  0  0  0  0  0  0
  2  1  1  0
  2 12  2  0
  3  2  1  0
  4  3  2  0
  4  5  1  0
  5 11  2  0
  6  7  1  0
  6  5  1  0
  7  8  1  6
  9 13  1  0
  9  7  1  0
 10  9  2  0
 11 12  1  0
 14 19  1  0
 14 13  1  0
 14 15  1  1
 16 15  1  0
 16 17  1  0
 17 18  2  0
 19 22  1  0
 20 19  2  0
 21 17  1  0
 22 23  1  0
 23 26  1  0
 23 24  1  6
 25 24  1  0
 26 28  2  0
 26 27  1  0
M  END
$$$$
