YEC.pdb
     RDKit          3D

 28 28  0  0  1  0  0  0  0  0999 V2000
   16.0881  -25.7268  -11.8063 O   0  0  0  0  0  0  0  0  0  0  0  0
   16.8661  -24.6528  -12.2287 C   0  0  0  0  0  0  0  0  0  0  0  0
   16.5148  -23.3430  -11.9349 C   0  0  0  0  0  0  0  0  0  0  0  0
   17.3011  -22.2927  -12.3640 C   0  0  0  0  0  0  0  0  0  0  0  0
   18.4392  -22.5702  -13.0880 C   0  0  0  0  0  0  0  0  0  0  0  0
   19.2970  -21.4526  -13.5577 C   0  0  0  0  0  0  0  0  0  0  0  0
   20.4957  -21.3093  -12.6739 C   0  0  2  0  0  0  0  0  0  0  0  0
   20.1013  -20.9394  -11.3451 N   0  0  0  0  0  0  0  0  0  0  0  0
   21.4200  -20.3311  -13.2912 C   0  0  0  0  0  0  0  0  0  0  0  0
   21.2799  -19.1213  -12.9760 O   0  0  0  0  0  0  0  0  0  0  0  0
   18.7706  -23.8753  -13.3691 C   0  0  0  0  0  0  0  0  0  0  0  0
   17.9955  -24.9412  -12.9480 C   0  0  0  0  0  0  0  0  0  0  0  0
   22.4191  -20.7383  -14.1971 N   0  0  0  0  0  0  0  0  0  0  0  0
   23.3092  -19.7686  -14.7732 C   0  0  1  0  0  0  0  0  0  0  0  0
   24.6087  -20.4880  -15.1331 C   0  0  0  0  0  0  0  0  0  0  0  0
   25.5872  -19.4964  -15.7608 C   0  0  0  0  0  0  0  0  0  0  0  0
   26.8323  -20.1863  -16.1799 C   0  0  0  0  0  0  0  0  0  0  0  0
   27.7646  -19.5215  -16.7092 O   0  0  0  0  0  0  0  0  0  0  0  0
   22.6640  -19.1929  -15.9600 C   0  0  0  0  0  0  0  0  0  0  0  0
   21.9146  -19.8449  -16.7462 O   0  0  0  0  0  0  0  0  0  0  0  0
   27.0245  -21.5455  -16.0161 O   0  0  0  0  0  0  0  0  0  0  0  0
   22.8606  -17.8066  -16.2986 N   0  0  0  0  0  0  0  0  0  0  0  0
   22.2535  -17.2204  -17.4524 C   0  0  1  0  0  0  0  0  0  0  0  0
   21.7928  -15.8241  -17.0749 C   0  0  0  0  0  0  0  0  0  0  0  0
   20.9055  -15.1389  -18.4971 S   0  0  0  0  0  0  0  0  0  0  0  0
   23.1329  -17.2205  -18.6318 C   0  0  0  0  0  0  0  0  0  0  0  0
   22.6407  -17.2293  -19.9288 O   0  0  0  0  0  0  0  0  0  0  0  0
   24.3810  -17.2123  -18.4866 O   0  0  0  0  0  0  0  0  0  0  0  0
  2  1  1  0
  2 12  2  0
  3  2  1  0
  4  3  2  0
  4  5  1  0
  5 11  2  0
  6  7  1  0
  6  5  1  0
  7  8  1  1
  9 13  1  0
  9  7  1  0
 10  9  2  0
 11 12  1  0
 14 19  1  0
 14 13  1  0
 14 15  1  6
 16 15  1  0
 16 17  1  0
 17 18  2  0
 19 22  1  0
 20 19  2  0
 21 17  1  0
 22 23  1  0
 23 26  1  0
 23 24  1  1
 25 24  1  0
 26 28  2  0
 26 27  1  0
M  END
$$$$
