YEC.pdb
     RDKit          3D

 28 28  0  0  1  0  0  0  0  0999 V2000
   27.9470  -19.0975   -5.3229 O   0  0  0  0  0  0  0  0  0  0  0  0
   27.6670  -19.4378   -6.6430 C   0  0  0  0  0  0  0  0  0  0  0  0
   28.2298  -20.5578   -7.2382 C   0  0  0  0  0  0  0  0  0  0  0  0
   27.9381  -20.8767   -8.5492 C   0  0  0  0  0  0  0  0  0  0  0  0
   27.0790  -20.0627   -9.2534 C   0  0  0  0  0  0  0  0  0  0  0  0
   26.7541  -20.3908  -10.6649 C   0  0  0  0  0  0  0  0  0  0  0  0
   25.2767  -20.5556  -10.8344 C   0  0  2  0  0  0  0  0  0  0  0  0
   24.7983  -21.6549  -10.0466 N   0  0  0  0  0  0  0  0  0  0  0  0
   24.9843  -20.7135  -12.2772 C   0  0  0  0  0  0  0  0  0  0  0  0
   25.2329  -21.8300  -12.8009 O   0  0  0  0  0  0  0  0  0  0  0  0
   26.5312  -18.9570   -8.6458 C   0  0  0  0  0  0  0  0  0  0  0  0
   26.8112  -18.6208   -7.3332 C   0  0  0  0  0  0  0  0  0  0  0  0
   24.4479  -19.6547  -13.0360 N   0  0  0  0  0  0  0  0  0  0  0  0
   24.0855  -19.8635  -14.4105 C   0  0  1  0  0  0  0  0  0  0  0  0
   23.0518  -18.8016  -14.7842 C   0  0  0  0  0  0  0  0  0  0  0  0
   21.7715  -19.0269  -13.9811 C   0  0  0  0  0  0  0  0  0  0  0  0
   21.0940  -20.2726  -14.4179 C   0  0  0  0  0  0  0  0  0  0  0  0
   21.1068  -20.5935  -15.6378 O   0  0  0  0  0  0  0  0  0  0  0  0
   25.2969  -19.7509  -15.2327 C   0  0  0  0  0  0  0  0  0  0  0  0
   25.8209  -18.6498  -15.5764 O   0  0  0  0  0  0  0  0  0  0  0  0
   20.4378  -21.1138  -13.5387 O   0  0  0  0  0  0  0  0  0  0  0  0
   25.9721  -20.9324  -15.7051 N   0  0  0  0  0  0  0  0  0  0  0  0
   27.1715  -20.8551  -16.4789 C   0  0  1  0  0  0  0  0  0  0  0  0
   28.2383  -21.6635  -15.7625 C   0  0  0  0  0  0  0  0  0  0  0  0
   27.6123  -23.3530  -15.5802 S   0  0  0  0  0  0  0  0  0  0  0  0
   26.9880  -21.2822  -17.8747 C   0  0  0  0  0  0  0  0  0  0  0  0
   25.7790  -21.7649  -18.3539 O   0  0  0  0  0  0  0  0  0  0  0  0
   27.9469  -21.2174  -18.6842 O   0  0  0  0  0  0  0  0  0  0  0  0
  2  1  1  0
  2 12  2  0
  3  2  1  0
  4  3  2  0
  4  5  1  0
  5 11  2  0
  6  7  1  0
  6  5  1  0
  7  8  1  1
  9 13  1  0
  9  7  1  0
 10  9  2  0
 11 12  1  0
 14 19  1  0
 14 13  1  0
 14 15  1  6
 16 15  1  0
 16 17  1  0
 17 18  2  0
 19 22  1  0
 20 19  2  0
 21 17  1  0
 22 23  1  0
 23 26  1  0
 23 24  1  1
 25 24  1  0
 26 28  2  0
 26 27  1  0
M  END
$$$$
