YEC.pdb
     RDKit          3D

 28 28  0  0  1  0  0  0  0  0999 V2000
   15.4165  -15.3276  -16.6414 O   0  0  0  0  0  0  0  0  0  0  0  0
   16.3518  -14.3163  -16.4427 C   0  0  0  0  0  0  0  0  0  0  0  0
   16.5756  -13.3371  -17.4001 C   0  0  0  0  0  0  0  0  0  0  0  0
   17.5083  -12.3431  -17.1821 C   0  0  0  0  0  0  0  0  0  0  0  0
   18.2113  -12.3427  -15.9979 C   0  0  0  0  0  0  0  0  0  0  0  0
   19.2187  -11.2809  -15.7467 C   0  0  0  0  0  0  0  0  0  0  0  0
   20.4112  -11.4752  -16.6290 C   0  0  2  0  0  0  0  0  0  0  0  0
   21.0818  -12.7020  -16.3077 N   0  0  0  0  0  0  0  0  0  0  0  0
   21.2895  -10.2903  -16.4993 C   0  0  0  0  0  0  0  0  0  0  0  0
   22.0275  -10.2235  -15.4827 O   0  0  0  0  0  0  0  0  0  0  0  0
   17.9752  -13.3221  -15.0613 C   0  0  0  0  0  0  0  0  0  0  0  0
   17.0448  -14.3263  -15.2612 C   0  0  0  0  0  0  0  0  0  0  0  0
   21.2994   -9.2755  -17.4764 N   0  0  0  0  0  0  0  0  0  0  0  0
   22.1728   -8.1438  -17.3322 C   0  0  1  0  0  0  0  0  0  0  0  0
   22.7423   -7.8186  -18.7127 C   0  0  0  0  0  0  0  0  0  0  0  0
   23.7530   -8.8912  -19.1165 C   0  0  0  0  0  0  0  0  0  0  0  0
   24.2889   -8.6189  -20.4731 C   0  0  0  0  0  0  0  0  0  0  0  0
   24.9703   -7.5769  -20.6758 O   0  0  0  0  0  0  0  0  0  0  0  0
   21.3947   -7.0222  -16.7911 C   0  0  0  0  0  0  0  0  0  0  0  0
   20.1402   -6.9017  -16.9206 O   0  0  0  0  0  0  0  0  0  0  0  0
   24.0746   -9.4656  -21.5447 O   0  0  0  0  0  0  0  0  0  0  0  0
   22.0463   -5.9662  -16.0597 N   0  0  0  0  0  0  0  0  0  0  0  0
   21.3109   -4.8819  -15.4879 C   0  0  1  0  0  0  0  0  0  0  0  0
   20.3700   -5.4586  -14.4455 C   0  0  0  0  0  0  0  0  0  0  0  0
   19.5835   -4.0687  -13.5916 S   0  0  0  0  0  0  0  0  0  0  0  0
   22.1731   -3.8234  -14.9399 C   0  0  0  0  0  0  0  0  0  0  0  0
   21.7938   -2.4892  -14.9185 O   0  0  0  0  0  0  0  0  0  0  0  0
   23.3011   -4.1119  -14.4671 O   0  0  0  0  0  0  0  0  0  0  0  0
  2  1  1  0
  2 12  2  0
  3  2  1  0
  4  3  2  0
  4  5  1  0
  5 11  2  0
  6  7  1  0
  6  5  1  0
  7  8  1  1
  9 13  1  0
  9  7  1  0
 10  9  2  0
 11 12  1  0
 14 19  1  0
 14 13  1  0
 14 15  1  6
 16 15  1  0
 16 17  1  0
 17 18  2  0
 19 22  1  0
 20 19  2  0
 21 17  1  0
 22 23  1  0
 23 26  1  0
 23 24  1  1
 25 24  1  0
 26 28  2  0
 26 27  1  0
M  END
$$$$
