YEC.pdb
     RDKit          3D

 28 28  0  0  1  0  0  0  0  0999 V2000
   29.1349  -29.0056  -17.5298 O   0  0  0  0  0  0  0  0  0  0  0  0
   28.4443  -27.8248  -17.2730 C   0  0  0  0  0  0  0  0  0  0  0  0
   27.6396  -27.2314  -18.2352 C   0  0  0  0  0  0  0  0  0  0  0  0
   26.9636  -26.0600  -17.9590 C   0  0  0  0  0  0  0  0  0  0  0  0
   27.1033  -25.4931  -16.7117 C   0  0  0  0  0  0  0  0  0  0  0  0
   26.3833  -24.2329  -16.3972 C   0  0  0  0  0  0  0  0  0  0  0  0
   25.3310  -24.4787  -15.3625 C   0  0  2  0  0  0  0  0  0  0  0  0
   24.3582  -25.4160  -15.8453 N   0  0  0  0  0  0  0  0  0  0  0  0
   24.7346  -23.1783  -14.9810 C   0  0  0  0  0  0  0  0  0  0  0  0
   23.7324  -22.7860  -15.6323 O   0  0  0  0  0  0  0  0  0  0  0  0
   27.9056  -26.0965  -15.7714 C   0  0  0  0  0  0  0  0  0  0  0  0
   28.5911  -27.2703  -16.0291 C   0  0  0  0  0  0  0  0  0  0  0  0
   25.2681  -22.4085  -13.9287 N   0  0  0  0  0  0  0  0  0  0  0  0
   24.6869  -21.1366  -13.5986 C   0  0  1  0  0  0  0  0  0  0  0  0
   25.1967  -20.7390  -12.2138 C   0  0  0  0  0  0  0  0  0  0  0  0
   24.4090  -21.4906  -11.1417 C   0  0  0  0  0  0  0  0  0  0  0  0
   24.9054  -21.1405   -9.7879 C   0  0  0  0  0  0  0  0  0  0  0  0
   25.8292  -20.2904   -9.6640 O   0  0  0  0  0  0  0  0  0  0  0  0
   25.0878  -20.1629  -14.6220 C   0  0  0  0  0  0  0  0  0  0  0  0
   26.2107  -20.1723  -15.2085 O   0  0  0  0  0  0  0  0  0  0  0  0
   24.3969  -21.7100   -8.6354 O   0  0  0  0  0  0  0  0  0  0  0  0
   24.1887  -19.1111  -15.0222 N   0  0  0  0  0  0  0  0  0  0  0  0
   24.2667  -18.5056  -16.3148 C   0  0  1  0  0  0  0  0  0  0  0  0
   24.1820  -19.6119  -17.3509 C   0  0  0  0  0  0  0  0  0  0  0  0
   25.2588  -19.1499  -18.7317 S   0  0  0  0  0  0  0  0  0  0  0  0
   23.2527  -17.4610  -16.5264 C   0  0  0  0  0  0  0  0  0  0  0  0
   23.5529  -16.2368  -17.1057 O   0  0  0  0  0  0  0  0  0  0  0  0
   22.0617  -17.6598  -16.1782 O   0  0  0  0  0  0  0  0  0  0  0  0
  2  1  1  0
  2 12  2  0
  3  2  1  0
  4  3  2  0
  4  5  1  0
  5 11  2  0
  6  7  1  0
  6  5  1  0
  7  8  1  6
  9 13  1  0
  9  7  1  0
 10  9  2  0
 11 12  1  0
 14 19  1  0
 14 13  1  0
 14 15  1  1
 16 15  1  0
 16 17  1  0
 17 18  2  0
 19 22  1  0
 20 19  2  0
 21 17  1  0
 22 23  1  0
 23 26  1  0
 23 24  1  6
 25 24  1  0
 26 28  2  0
 26 27  1  0
M  END
$$$$
