GNF.pdb
     RDKit          3D

 24 24  0  0  1  0  0  0  0  0999 V2000
    7.7675  -17.9964   18.9354 N   0  0  0  0  0  0  0  0  0  0  0  0
    7.3261  -16.6949   19.3467 C   0  0  0  0  0  0  0  0  0  0  0  0
    7.1640  -16.5426   20.8153 C   0  0  0  0  0  0  0  0  0  0  0  0
    6.8792  -15.3971   21.2662 O   0  0  0  0  0  0  0  0  0  0  0  0
    5.1278  -20.4023   22.2952 N   0  0  0  0  0  0  0  0  0  0  0  0
    5.2991  -19.2296   23.0936 C   0  0  0  0  0  0  0  0  0  0  0  0
    4.2894  -18.4847   23.3265 O   0  0  0  0  0  0  0  0  0  0  0  0
    6.6265  -18.8776   23.6447 C   0  0  0  0  0  0  0  0  0  0  0  0
    7.1324  -17.6074   23.0508 C   0  0  2  0  0  0  0  0  0  0  0  0
    7.3364  -17.6902   21.6283 N   0  0  0  0  0  0  0  0  0  0  0  0
    8.3424  -17.1637   23.7796 C   0  0  0  0  0  0  0  0  0  0  0  0
    9.4537  -17.7445   23.5255 O   0  0  0  0  0  0  0  0  0  0  0  0
    8.2554  -16.1225   24.7297 N   0  0  0  0  0  0  0  0  0  0  0  0
    9.4914  -15.7037   25.3981 C   0  0  1  0  0  0  0  0  0  0  0  0
    9.6776  -14.2271   25.2933 C   0  0  0  0  0  0  0  0  0  0  0  0
    8.4996  -13.5121   25.7978 C   0  0  0  0  0  0  0  0  0  0  0  0
    7.3810  -13.3350   24.9953 C   0  0  0  0  0  0  0  0  0  0  0  0
    6.2571  -12.6880   25.4633 C   0  0  0  0  0  0  0  0  0  0  0  0
    6.2043  -12.1887   26.7606 C   0  0  0  0  0  0  0  0  0  0  0  0
    7.3069  -12.3617   27.5581 C   0  0  0  0  0  0  0  0  0  0  0  0
    8.4340  -13.0144   27.0781 C   0  0  0  0  0  0  0  0  0  0  0  0
    9.3721  -16.1236   26.8023 C   0  0  0  0  0  0  0  0  0  0  0  0
   10.4149  -16.0427   27.6903 O   0  0  0  0  0  0  0  0  0  0  0  0
    8.2863  -16.5783   27.2339 O   0  0  0  0  0  0  0  0  0  0  0  0
  2  1  1  0
  3  2  1  0
  4  3  2  0
  6  5  1  0
  7  6  2  0
  9  8  1  1
  8  6  1  0
  9 10  1  0
 10  3  1  0
 11  9  1  0
 11 12  2  0
 13 11  1  0
 14 13  1  0
 14 15  1  1
 16 21  2  0
 16 15  1  0
 17 16  1  0
 18 19  1  0
 18 17  2  0
 19 20  2  0
 20 21  1  0
 22 14  1  0
 23 22  1  0
 24 22  2  0
M  END
$$$$
