GNF.pdb
     RDKit          3D

 24 24  0  0  1  0  0  0  0  0999 V2000
    7.4668  -12.4992   19.6354 N   0  0  0  0  0  0  0  0  0  0  0  0
    8.2124  -13.6848   19.9454 C   0  0  0  0  0  0  0  0  0  0  0  0
    7.6505  -14.4824   21.0653 C   0  0  0  0  0  0  0  0  0  0  0  0
    6.6129  -14.0490   21.6417 O   0  0  0  0  0  0  0  0  0  0  0  0
    5.8109  -18.8786   23.4329 N   0  0  0  0  0  0  0  0  0  0  0  0
    7.2272  -18.7119   23.3397 C   0  0  0  0  0  0  0  0  0  0  0  0
    7.9735  -19.2341   24.2335 O   0  0  0  0  0  0  0  0  0  0  0  0
    7.8262  -17.9444   22.2254 C   0  0  0  0  0  0  0  0  0  0  0  0
    7.8152  -16.4825   22.5162 C   0  0  2  0  0  0  0  0  0  0  0  0
    8.3084  -15.6849   21.4241 N   0  0  0  0  0  0  0  0  0  0  0  0
    8.5302  -16.2216   23.7862 C   0  0  0  0  0  0  0  0  0  0  0  0
    9.7996  -16.0665   23.7499 O   0  0  0  0  0  0  0  0  0  0  0  0
    7.8133  -16.1486   25.0008 N   0  0  0  0  0  0  0  0  0  0  0  0
    8.5598  -15.8001   26.2138 C   0  0  1  0  0  0  0  0  0  0  0  0
    7.6778  -15.1116   27.2006 C   0  0  0  0  0  0  0  0  0  0  0  0
    7.3409  -13.7568   26.7485 C   0  0  0  0  0  0  0  0  0  0  0  0
    6.0451  -13.4395   26.3657 C   0  0  0  0  0  0  0  0  0  0  0  0
    5.7073  -12.1650   25.9630 C   0  0  0  0  0  0  0  0  0  0  0  0
    6.6565  -11.1486   25.9266 C   0  0  0  0  0  0  0  0  0  0  0  0
    7.9385  -11.4567   26.3046 C   0  0  0  0  0  0  0  0  0  0  0  0
    8.2691  -12.7429   26.7085 C   0  0  0  0  0  0  0  0  0  0  0  0
    9.0830  -17.0608   26.7610 C   0  0  0  0  0  0  0  0  0  0  0  0
   10.0385  -17.1006   27.7449 O   0  0  0  0  0  0  0  0  0  0  0  0
    8.6581  -18.1590   26.3304 O   0  0  0  0  0  0  0  0  0  0  0  0
  2  1  1  0
  3  2  1  0
  4  3  2  0
  6  5  1  0
  7  6  2  0
  9  8  1  6
  8  6  1  0
  9 10  1  0
 10  3  1  0
 11  9  1  0
 11 12  2  0
 13 11  1  0
 14 13  1  0
 14 15  1  1
 16 21  2  0
 16 15  1  0
 17 16  1  0
 18 19  1  0
 18 17  2  0
 19 20  2  0
 20 21  1  0
 22 14  1  0
 23 22  1  0
 24 22  2  0
M  END
$$$$
