GNF.pdb
     RDKit          3D

 24 24  0  0  1  0  0  0  0  0999 V2000
    6.1230  -18.1197   21.0968 N   0  0  0  0  0  0  0  0  0  0  0  0
    7.4067  -18.3069   20.4846 C   0  0  0  0  0  0  0  0  0  0  0  0
    8.3460  -17.1730   20.6800 C   0  0  0  0  0  0  0  0  0  0  0  0
    9.5444  -17.3231   20.3089 O   0  0  0  0  0  0  0  0  0  0  0  0
    8.5437  -12.5076   18.8739 N   0  0  0  0  0  0  0  0  0  0  0  0
    7.9274  -13.5145   19.6793 C   0  0  0  0  0  0  0  0  0  0  0  0
    7.1650  -14.3735   19.1230 O   0  0  0  0  0  0  0  0  0  0  0  0
    8.1652  -13.5652   21.1389 C   0  0  0  0  0  0  0  0  0  0  0  0
    8.7304  -14.8839   21.5432 C   0  0  2  0  0  0  0  0  0  0  0  0
    7.8455  -15.9860   21.2703 N   0  0  0  0  0  0  0  0  0  0  0  0
    9.1595  -14.8293   22.9593 C   0  0  0  0  0  0  0  0  0  0  0  0
   10.0710  -13.9939   23.2877 O   0  0  0  0  0  0  0  0  0  0  0  0
    8.5668  -15.6861   23.9128 N   0  0  0  0  0  0  0  0  0  0  0  0
    9.0614  -15.6184   25.2914 C   0  0  1  0  0  0  0  0  0  0  0  0
    7.9280  -15.5767   26.2607 C   0  0  0  0  0  0  0  0  0  0  0  0
    7.2929  -14.2537   26.2696 C   0  0  0  0  0  0  0  0  0  0  0  0
    8.0210  -13.1208   26.6056 C   0  0  0  0  0  0  0  0  0  0  0  0
    7.4453  -11.8681   26.5939 C   0  0  0  0  0  0  0  0  0  0  0  0
    6.1104  -11.6950   26.2431 C   0  0  0  0  0  0  0  0  0  0  0  0
    5.3865  -12.8113   25.9095 C   0  0  0  0  0  0  0  0  0  0  0  0
    5.9747  -14.0685   25.9243 C   0  0  0  0  0  0  0  0  0  0  0  0
    9.8910  -16.8148   25.4987 C   0  0  0  0  0  0  0  0  0  0  0  0
   10.6627  -16.9955   26.6186 O   0  0  0  0  0  0  0  0  0  0  0  0
    9.9146  -17.7226   24.6343 O   0  0  0  0  0  0  0  0  0  0  0  0
  2  1  1  0
  3  2  1  0
  4  3  2  0
  6  5  1  0
  7  6  2  0
  9  8  1  1
  8  6  1  0
  9 10  1  0
 10  3  1  0
 11  9  1  0
 11 12  2  0
 13 11  1  0
 14 13  1  0
 14 15  1  1
 16 21  2  0
 16 15  1  0
 17 16  1  0
 18 19  1  0
 18 17  2  0
 19 20  2  0
 20 21  1  0
 22 14  1  0
 23 22  1  0
 24 22  2  0
M  END
$$$$
