GNF.pdb
     RDKit          3D

 24 24  0  0  1  0  0  0  0  0999 V2000
    5.4577  -20.2398   21.7999 N   0  0  0  0  0  0  0  0  0  0  0  0
    5.4750  -18.8539   22.1696 C   0  0  0  0  0  0  0  0  0  0  0  0
    6.8234  -18.2318   22.1385 C   0  0  0  0  0  0  0  0  0  0  0  0
    7.8074  -18.9263   22.5207 O   0  0  0  0  0  0  0  0  0  0  0  0
    9.4667  -15.9462   18.5083 N   0  0  0  0  0  0  0  0  0  0  0  0
    8.2704  -15.7719   19.2704 C   0  0  0  0  0  0  0  0  0  0  0  0
    7.1554  -16.1342   18.7664 O   0  0  0  0  0  0  0  0  0  0  0  0
    8.3170  -15.1790   20.6253 C   0  0  0  0  0  0  0  0  0  0  0  0
    8.2093  -16.2328   21.6741 C   0  0  2  0  0  0  0  0  0  0  0  0
    6.9313  -16.8951   21.6811 N   0  0  0  0  0  0  0  0  0  0  0  0
    8.5673  -15.6622   22.9926 C   0  0  0  0  0  0  0  0  0  0  0  0
    8.5429  -14.3908   23.1331 O   0  0  0  0  0  0  0  0  0  0  0  0
    8.9252  -16.5148   24.0601 N   0  0  0  0  0  0  0  0  0  0  0  0
    8.8024  -15.9895   25.4235 C   0  0  1  0  0  0  0  0  0  0  0  0
    7.3977  -15.5752   25.7082 C   0  0  0  0  0  0  0  0  0  0  0  0
    7.3109  -14.1263   25.9241 C   0  0  0  0  0  0  0  0  0  0  0  0
    7.1628  -13.2579   24.8515 C   0  0  0  0  0  0  0  0  0  0  0  0
    7.0541  -11.8965   25.0399 C   0  0  0  0  0  0  0  0  0  0  0  0
    7.0886  -11.3435   26.3160 C   0  0  0  0  0  0  0  0  0  0  0  0
    7.2341  -12.1974   27.3795 C   0  0  0  0  0  0  0  0  0  0  0  0
    7.3429  -13.5667   27.1799 C   0  0  0  0  0  0  0  0  0  0  0  0
    9.2300  -17.0670   26.3283 C   0  0  0  0  0  0  0  0  0  0  0  0
    9.6515  -16.8314   27.6126 O   0  0  0  0  0  0  0  0  0  0  0  0
    9.2201  -18.2584   25.9382 O   0  0  0  0  0  0  0  0  0  0  0  0
  2  1  1  0
  3  2  1  0
  4  3  2  0
  6  5  1  0
  7  6  2  0
  9  8  1  6
  8  6  1  0
  9 10  1  0
 10  3  1  0
 11  9  1  0
 11 12  2  0
 13 11  1  0
 14 13  1  0
 14 15  1  1
 16 21  2  0
 16 15  1  0
 17 16  1  0
 18 19  1  0
 18 17  2  0
 19 20  2  0
 20 21  1  0
 22 14  1  0
 23 22  1  0
 24 22  2  0
M  END
$$$$
