GNF.pdb
     RDKit          3D

 24 24  0  0  1  0  0  0  0  0999 V2000
    5.3804  -18.3008   22.2043 N   0  0  0  0  0  0  0  0  0  0  0  0
    6.4766  -18.5567   21.3151 C   0  0  0  0  0  0  0  0  0  0  0  0
    7.6275  -17.6333   21.4853 C   0  0  0  0  0  0  0  0  0  0  0  0
    8.7862  -18.0777   21.2480 O   0  0  0  0  0  0  0  0  0  0  0  0
    8.4428  -15.0695   19.2930 N   0  0  0  0  0  0  0  0  0  0  0  0
    8.0583  -13.9347   20.0719 C   0  0  0  0  0  0  0  0  0  0  0  0
    7.7011  -12.8647   19.4751 O   0  0  0  0  0  0  0  0  0  0  0  0
    8.0730  -13.9927   21.5504 C   0  0  0  0  0  0  0  0  0  0  0  0
    8.4370  -15.3568   22.0285 C   0  0  2  0  0  0  0  0  0  0  0  0
    7.3617  -16.3057   21.9030 N   0  0  0  0  0  0  0  0  0  0  0  0
    8.9731  -15.2757   23.4062 C   0  0  0  0  0  0  0  0  0  0  0  0
   10.0271  -14.5798   23.6096 O   0  0  0  0  0  0  0  0  0  0  0  0
    8.3245  -15.9562   24.4602 N   0  0  0  0  0  0  0  0  0  0  0  0
    8.9437  -15.9052   25.7883 C   0  0  1  0  0  0  0  0  0  0  0  0
    7.9284  -15.5918   26.8356 C   0  0  0  0  0  0  0  0  0  0  0  0
    7.5090  -14.1877   26.7571 C   0  0  0  0  0  0  0  0  0  0  0  0
    8.4154  -13.1635   26.9933 C   0  0  0  0  0  0  0  0  0  0  0  0
    8.0430  -11.8394   26.8983 C   0  0  0  0  0  0  0  0  0  0  0  0
    6.7415  -11.4824   26.5608 C   0  0  0  0  0  0  0  0  0  0  0  0
    5.8419  -12.4908   26.3256 C   0  0  0  0  0  0  0  0  0  0  0  0
    6.2262  -13.8210   26.4238 C   0  0  0  0  0  0  0  0  0  0  0  0
    9.5517  -17.2242   26.0187 C   0  0  0  0  0  0  0  0  0  0  0  0
    9.4872  -18.2399   25.0986 O   0  0  0  0  0  0  0  0  0  0  0  0
   10.1594  -17.4594   27.0898 O   0  0  0  0  0  0  0  0  0  0  0  0
  2  1  1  0
  3  2  1  0
  4  3  2  0
  6  5  1  0
  7  6  2  0
  9  8  1  1
  8  6  1  0
  9 10  1  0
 10  3  1  0
 11  9  1  0
 11 12  2  0
 13 11  1  0
 14 13  1  0
 14 15  1  1
 16 21  2  0
 16 15  1  0
 17 16  1  0
 18 19  1  0
 18 17  2  0
 19 20  2  0
 20 21  1  0
 22 14  1  0
 23 22  1  0
 24 22  2  0
M  END
$$$$
