GNF.pdb
     RDKit          3D

 24 24  0  0  1  0  0  0  0  0999 V2000
    5.1896  -18.7441   20.5123 N   0  0  0  0  0  0  0  0  0  0  0  0
    5.2983  -17.4149   21.0408 C   0  0  0  0  0  0  0  0  0  0  0  0
    6.6949  -16.9362   21.2033 C   0  0  0  0  0  0  0  0  0  0  0  0
    7.6251  -17.7903   21.1584 O   0  0  0  0  0  0  0  0  0  0  0  0
    7.0079  -12.5580   19.3593 N   0  0  0  0  0  0  0  0  0  0  0  0
    8.0323  -13.4752   19.7488 C   0  0  0  0  0  0  0  0  0  0  0  0
    8.6233  -14.1631   18.8510 O   0  0  0  0  0  0  0  0  0  0  0  0
    8.4063  -13.6307   21.1720 C   0  0  0  0  0  0  0  0  0  0  0  0
    8.2359  -15.0426   21.6185 C   0  0  2  0  0  0  0  0  0  0  0  0
    6.9064  -15.5488   21.3983 N   0  0  0  0  0  0  0  0  0  0  0  0
    8.6754  -15.1768   23.0260 C   0  0  0  0  0  0  0  0  0  0  0  0
    9.8456  -14.7665   23.3404 O   0  0  0  0  0  0  0  0  0  0  0  0
    7.8113  -15.7466   23.9869 N   0  0  0  0  0  0  0  0  0  0  0  0
    8.2792  -15.8057   25.3752 C   0  0  1  0  0  0  0  0  0  0  0  0
    7.1827  -15.4454   26.3207 C   0  0  0  0  0  0  0  0  0  0  0  0
    7.0206  -13.9894   26.4068 C   0  0  0  0  0  0  0  0  0  0  0  0
    5.7941  -13.3964   26.1415 C   0  0  0  0  0  0  0  0  0  0  0  0
    5.6193  -12.0326   26.2430 C   0  0  0  0  0  0  0  0  0  0  0  0
    6.6695  -11.2003   26.6166 C   0  0  0  0  0  0  0  0  0  0  0  0
    7.8836  -11.7814   26.8807 C   0  0  0  0  0  0  0  0  0  0  0  0
    8.0500  -13.1554   26.7757 C   0  0  0  0  0  0  0  0  0  0  0  0
    8.7434  -17.1822   25.6033 C   0  0  0  0  0  0  0  0  0  0  0  0
    9.5446  -17.5273   26.6623 O   0  0  0  0  0  0  0  0  0  0  0  0
    8.4103  -18.0983   24.8147 O   0  0  0  0  0  0  0  0  0  0  0  0
  2  1  1  0
  3  2  1  0
  4  3  2  0
  6  5  1  0
  7  6  2  0
  9  8  1  1
  8  6  1  0
  9 10  1  0
 10  3  1  0
 11  9  1  0
 11 12  2  0
 13 11  1  0
 14 13  1  0
 14 15  1  1
 16 21  2  0
 16 15  1  0
 17 16  1  0
 18 19  1  0
 18 17  2  0
 19 20  2  0
 20 21  1  0
 22 14  1  0
 23 22  1  0
 24 22  2  0
M  END
$$$$
