GNF.pdb
     RDKit          3D

 24 24  0  0  1  0  0  0  0  0999 V2000
    3.9154  -18.0229   19.5565 N   0  0  0  0  0  0  0  0  0  0  0  0
    5.1497  -17.6275   20.1712 C   0  0  0  0  0  0  0  0  0  0  0  0
    5.2906  -18.0571   21.5860 C   0  0  0  0  0  0  0  0  0  0  0  0
    4.2376  -18.2927   22.2435 O   0  0  0  0  0  0  0  0  0  0  0  0
    5.8774  -20.9751   25.5858 N   0  0  0  0  0  0  0  0  0  0  0  0
    7.0607  -20.3066   25.1440 C   0  0  0  0  0  0  0  0  0  0  0  0
    7.9808  -20.0496   25.9901 O   0  0  0  0  0  0  0  0  0  0  0  0
    7.2223  -19.9139   23.7265 C   0  0  0  0  0  0  0  0  0  0  0  0
    6.7857  -18.5054   23.5087 C   0  0  2  0  0  0  0  0  0  0  0  0
    6.5977  -18.1801   22.1191 N   0  0  0  0  0  0  0  0  0  0  0  0
    7.7196  -17.5825   24.1931 C   0  0  0  0  0  0  0  0  0  0  0  0
    8.8501  -17.3425   23.6444 O   0  0  0  0  0  0  0  0  0  0  0  0
    7.3561  -16.9893   25.4221 N   0  0  0  0  0  0  0  0  0  0  0  0
    8.2737  -16.0033   26.0015 C   0  0  1  0  0  0  0  0  0  0  0  0
    7.5581  -15.1104   26.9588 C   0  0  0  0  0  0  0  0  0  0  0  0
    7.1722  -13.8501   26.3135 C   0  0  0  0  0  0  0  0  0  0  0  0
    8.0266  -13.2224   25.4178 C   0  0  0  0  0  0  0  0  0  0  0  0
    7.6681  -12.0516   24.7841 C   0  0  0  0  0  0  0  0  0  0  0  0
    6.4330  -11.4567   25.0205 C   0  0  0  0  0  0  0  0  0  0  0  0
    5.5845  -12.0734   25.9044 C   0  0  0  0  0  0  0  0  0  0  0  0
    5.9544  -13.2519   26.5377 C   0  0  0  0  0  0  0  0  0  0  0  0
    9.3339  -16.7643   26.6793 C   0  0  0  0  0  0  0  0  0  0  0  0
    9.1625  -18.0591   27.0994 O   0  0  0  0  0  0  0  0  0  0  0  0
   10.4494  -16.2346   26.8960 O   0  0  0  0  0  0  0  0  0  0  0  0
  2  1  1  0
  3  2  1  0
  4  3  2  0
  6  5  1  0
  7  6  2  0
  9  8  1  6
  8  6  1  0
  9 10  1  0
 10  3  1  0
 11  9  1  0
 11 12  2  0
 13 11  1  0
 14 13  1  0
 14 15  1  1
 16 21  2  0
 16 15  1  0
 17 16  1  0
 18 19  1  0
 18 17  2  0
 19 20  2  0
 20 21  1  0
 22 14  1  0
 23 22  1  0
 24 22  2  0
M  END
$$$$
