REK.pdb
     RDKit          3D

 30 29  0  0  1  0  0  0  0  0999 V2000
   27.6652  -25.9659  -16.3660 N   0  0  0  0  0  0  0  0  0  0  0  0
   26.8115  -25.2947  -17.2815 C   0  0  0  0  0  0  0  0  0  0  0  0
   26.4157  -25.9009  -18.3446 N   0  0  0  0  0  0  0  0  0  0  0  0
   26.3916  -23.9636  -17.0377 N   0  0  0  0  0  0  0  0  0  0  0  0
   25.1634  -23.6546  -16.3429 C   0  0  0  0  0  0  0  0  0  0  0  0
   25.0709  -24.4434  -15.0655 C   0  0  0  0  0  0  0  0  0  0  0  0
   24.1460  -23.8115  -14.0770 C   0  0  0  0  0  0  0  0  0  0  0  0
   24.3394  -22.3276  -14.0577 C   0  0  2  0  0  0  0  0  0  0  0  0
   25.5373  -21.9825  -13.3646 N   0  0  0  0  0  0  0  0  0  0  0  0
   23.1439  -21.6022  -13.5555 C   0  0  0  0  0  0  0  0  0  0  0  0
   23.0128  -21.4966  -12.3134 O   0  0  0  0  0  0  0  0  0  0  0  0
   25.8896  -25.3816  -19.0602 N   0  0  0  0  0  0  0  0  0  0  0  0
   22.1537  -21.0290  -14.3992 C   0  0  2  0  0  0  0  0  0  0  0  0
   20.9958  -20.3183  -13.9032 C   0  0  0  0  0  0  0  0  0  0  0  0
   20.5783  -19.1639  -14.7521 C   0  0  0  0  0  0  0  0  0  0  0  0
   19.3222  -18.4963  -14.2894 C   0  0  0  0  0  0  0  0  0  0  0  0
   18.9667  -17.4044  -15.2366 O   0  0  0  0  0  0  0  0  0  0  0  0
   17.7561  -17.0714  -15.3282 C   0  0  0  0  0  0  0  0  0  0  0  0
   19.8586  -21.2879  -13.8558 O   0  0  0  0  0  0  0  0  0  0  0  0
   19.6456  -22.1000  -14.7960 O   0  0  0  0  0  0  0  0  0  0  0  0
   19.8830  -16.7437  -16.0124 N   0  0  0  0  0  0  0  0  0  0  0  0
   18.9622  -21.3473  -12.7570 C   0  0  2  0  0  0  0  0  0  0  0  0
   17.7941  -22.2010  -12.7203 C   0  0  0  0  0  0  0  0  0  0  0  0
   17.4011  -22.3832  -11.2475 C   0  0  0  0  0  0  0  0  0  0  0  0
   17.9812  -23.6513  -10.7078 C   0  0  0  0  0  0  0  0  0  0  0  0
   17.6448  -23.9683   -9.3030 C   0  0  0  0  0  0  0  0  0  0  0  0
   18.0686  -25.3077   -8.7991 N   0  0  0  0  0  0  0  0  0  0  0  0
   17.6249  -25.6329   -7.4872 C   0  0  0  0  0  0  0  0  0  0  0  0
   16.6430  -21.5710  -13.4403 O   0  0  0  0  0  0  0  0  0  0  0  0
   16.4663  -20.3502  -13.2972 O   0  0  0  0  0  0  0  0  0  0  0  0
  1  2  1  0
  2  3  2  0
  4  2  1  0
  4  5  1  0
  5  6  1  0
  7  6  1  0
  8  9  1  1
  8  7  1  0
 10  8  1  0
 11 10  2  0
 12 10  1  0
 13 18  1  0
 13 12  1  0
 13 14  1  6
 15 14  1  0
 16 15  1  0
 17 16  2  0
 18 19  2  0
 20 16  1  0
 21 22  1  0
 21 18  1  0
 22 23  1  1
 23 24  1  0
 24 25  1  0
 25 26  1  0
 26 27  1  0
 28 30  1  0
 28 22  1  0
 29 28  2  0
M  END
$$$$
