REK.pdb
     RDKit          3D

 30 29  0  0  1  0  0  0  0  0999 V2000
   25.8796  -16.0848  -17.9607 N   0  0  0  0  0  0  0  0  0  0  0  0
   24.9504  -16.8388  -17.1956 C   0  0  0  0  0  0  0  0  0  0  0  0
   23.6921  -16.5933  -17.2999 N   0  0  0  0  0  0  0  0  0  0  0  0
   25.3938  -17.8581  -16.3170 N   0  0  0  0  0  0  0  0  0  0  0  0
   26.6629  -18.5273  -16.4859 C   0  0  0  0  0  0  0  0  0  0  0  0
   26.6492  -19.3707  -17.7313 C   0  0  0  0  0  0  0  0  0  0  0  0
   26.7608  -20.8291  -17.4273 C   0  0  0  0  0  0  0  0  0  0  0  0
   27.3895  -21.0345  -16.0848 C   0  0  2  0  0  0  0  0  0  0  0  0
   28.5246  -21.8925  -16.1837 N   0  0  0  0  0  0  0  0  0  0  0  0
   26.4111  -21.4756  -15.0574 C   0  0  0  0  0  0  0  0  0  0  0  0
   25.9554  -22.6390  -15.1566 O   0  0  0  0  0  0  0  0  0  0  0  0
   23.0173  -17.1624  -16.7715 N   0  0  0  0  0  0  0  0  0  0  0  0
   25.9705  -20.6577  -13.9813 C   0  0  2  0  0  0  0  0  0  0  0  0
   25.0574  -21.1110  -12.9554 C   0  0  0  0  0  0  0  0  0  0  0  0
   25.4874  -20.7787  -11.5653 C   0  0  0  0  0  0  0  0  0  0  0  0
   24.5535  -21.2769  -10.5083 C   0  0  0  0  0  0  0  0  0  0  0  0
   25.0998  -20.9341   -9.1668 O   0  0  0  0  0  0  0  0  0  0  0  0
   26.0332  -20.0916   -9.1055 C   0  0  0  0  0  0  0  0  0  0  0  0
   23.7404  -20.4465  -13.1995 O   0  0  0  0  0  0  0  0  0  0  0  0
   23.6272  -19.1911  -13.2076 O   0  0  0  0  0  0  0  0  0  0  0  0
   24.6432  -21.4843   -7.9976 N   0  0  0  0  0  0  0  0  0  0  0  0
   22.5527  -21.1874  -13.4341 C   0  0  2  0  0  0  0  0  0  0  0  0
   21.2609  -20.5786  -13.6691 C   0  0  0  0  0  0  0  0  0  0  0  0
   20.5536  -21.4005  -14.7557 C   0  0  0  0  0  0  0  0  0  0  0  0
   20.2149  -20.5331  -15.9258 C   0  0  0  0  0  0  0  0  0  0  0  0
   19.3923  -21.1642  -16.9803 C   0  0  0  0  0  0  0  0  0  0  0  0
   19.2052  -20.3850  -18.2394 N   0  0  0  0  0  0  0  0  0  0  0  0
   18.4440  -21.0350  -19.2501 C   0  0  0  0  0  0  0  0  0  0  0  0
   20.4179  -20.6083  -12.4327 O   0  0  0  0  0  0  0  0  0  0  0  0
   20.4703  -21.6225  -11.7181 O   0  0  0  0  0  0  0  0  0  0  0  0
  1  2  1  0
  2  3  2  0
  4  2  1  0
  4  5  1  0
  5  6  1  0
  7  6  1  0
  8  9  1  6
  8  7  1  0
 10  8  1  0
 11 10  2  0
 12 10  1  0
 13 18  1  0
 13 12  1  0
 13 14  1  6
 15 14  1  0
 16 15  1  0
 17 16  2  0
 18 19  2  0
 20 16  1  0
 21 22  1  0
 21 18  1  0
 22 23  1  6
 23 24  1  0
 24 25  1  0
 25 26  1  0
 26 27  1  0
 28 30  1  0
 28 22  1  0
 29 28  2  0
M  END
$$$$
