REK.pdb
     RDKit          3D

 30 29  0  0  1  0  0  0  0  0999 V2000
   31.2229  -24.5522  -15.0426 N   0  0  0  0  0  0  0  0  0  0  0  0
   31.8531  -25.1369  -16.1733 C   0  0  0  0  0  0  0  0  0  0  0  0
   32.8632  -25.9157  -16.0073 N   0  0  0  0  0  0  0  0  0  0  0  0
   31.3824  -24.8709  -17.4830 N   0  0  0  0  0  0  0  0  0  0  0  0
   30.0315  -24.4317  -17.7455 C   0  0  0  0  0  0  0  0  0  0  0  0
   30.0404  -23.1259  -18.4920 C   0  0  0  0  0  0  0  0  0  0  0  0
   28.6622  -22.5968  -18.7215 C   0  0  0  0  0  0  0  0  0  0  0  0
   27.8038  -22.8419  -17.5204 C   0  0  2  0  0  0  0  0  0  0  0  0
   27.9529  -24.1825  -17.0569 N   0  0  0  0  0  0  0  0  0  0  0  0
   26.3867  -22.4545  -17.7425 C   0  0  0  0  0  0  0  0  0  0  0  0
   26.1691  -21.3317  -18.2554 O   0  0  0  0  0  0  0  0  0  0  0  0
   33.3468  -26.3035  -16.8285 N   0  0  0  0  0  0  0  0  0  0  0  0
   25.2787  -23.2802  -17.4080 C   0  0  2  0  0  0  0  0  0  0  0  0
   23.9069  -22.9377  -17.7119 C   0  0  0  0  0  0  0  0  0  0  0  0
   23.2379  -23.8791  -18.6574 C   0  0  0  0  0  0  0  0  0  0  0  0
   23.6342  -23.6838  -20.0865 C   0  0  0  0  0  0  0  0  0  0  0  0
   23.0245  -22.4265  -20.5996 O   0  0  0  0  0  0  0  0  0  0  0  0
   23.6414  -21.7921  -21.4950 C   0  0  0  0  0  0  0  0  0  0  0  0
   23.1426  -22.9577  -16.4270 O   0  0  0  0  0  0  0  0  0  0  0  0
   23.4028  -23.7919  -15.5185 O   0  0  0  0  0  0  0  0  0  0  0  0
   21.8312  -21.9231  -20.1514 N   0  0  0  0  0  0  0  0  0  0  0  0
   22.0891  -22.0447  -16.1606 C   0  0  2  0  0  0  0  0  0  0  0  0
   21.3249  -22.0383  -14.9316 C   0  0  0  0  0  0  0  0  0  0  0  0
   20.2321  -20.9694  -15.0726 C   0  0  0  0  0  0  0  0  0  0  0  0
   20.8312  -19.6010  -15.0026 C   0  0  0  0  0  0  0  0  0  0  0  0
   19.8769  -18.4739  -15.0797 C   0  0  0  0  0  0  0  0  0  0  0  0
   20.4631  -17.1021  -15.1216 N   0  0  0  0  0  0  0  0  0  0  0  0
   19.5287  -16.0462  -15.3097 C   0  0  0  0  0  0  0  0  0  0  0  0
   20.6630  -23.3608  -14.7014 O   0  0  0  0  0  0  0  0  0  0  0  0
   19.7950  -23.7248  -15.5114 O   0  0  0  0  0  0  0  0  0  0  0  0
  1  2  1  0
  2  3  2  0
  4  2  1  0
  4  5  1  0
  5  6  1  0
  7  6  1  0
  8  9  1  6
  8  7  1  0
 10  8  1  0
 11 10  2  0
 12 10  1  0
 13 18  1  0
 13 12  1  0
 13 14  1  1
 15 14  1  0
 16 15  1  0
 17 16  2  0
 18 19  2  0
 20 16  1  0
 21 22  1  0
 21 18  1  0
 22 23  1  6
 23 24  1  0
 24 25  1  0
 25 26  1  0
 26 27  1  0
 28 30  1  0
 28 22  1  0
 29 28  2  0
M  END
$$$$
