REK.pdb
     RDKit          3D

 30 29  0  0  1  0  0  0  0  0999 V2000
   28.3934  -21.5713  -10.4376 N   0  0  0  0  0  0  0  0  0  0  0  0
   29.5049  -21.5178  -11.3204 C   0  0  0  0  0  0  0  0  0  0  0  0
   30.3086  -22.5193  -11.3936 N   0  0  0  0  0  0  0  0  0  0  0  0
   29.7395  -20.3725  -12.1209 N   0  0  0  0  0  0  0  0  0  0  0  0
   28.6651  -19.5616  -12.6453 C   0  0  0  0  0  0  0  0  0  0  0  0
   28.0921  -20.1894  -13.8863 C   0  0  0  0  0  0  0  0  0  0  0  0
   26.6053  -20.0581  -13.9511 C   0  0  0  0  0  0  0  0  0  0  0  0
   25.9683  -20.7826  -12.8070 C   0  0  2  0  0  0  0  0  0  0  0  0
   26.7580  -21.9039  -12.4156 N   0  0  0  0  0  0  0  0  0  0  0  0
   24.5484  -21.1314  -13.0713 C   0  0  0  0  0  0  0  0  0  0  0  0
   24.3234  -22.1748  -13.7285 O   0  0  0  0  0  0  0  0  0  0  0  0
   31.1998  -22.4205  -11.8981 N   0  0  0  0  0  0  0  0  0  0  0  0
   23.4458  -20.3536  -12.6237 C   0  0  1  0  0  0  0  0  0  0  0  0
   22.0675  -20.7709  -12.7571 C   0  0  0  0  0  0  0  0  0  0  0  0
   21.1136  -20.0107  -11.8969 C   0  0  0  0  0  0  0  0  0  0  0  0
   19.7000  -20.4906  -11.9916 C   0  0  0  0  0  0  0  0  0  0  0  0
   18.8461  -19.6934  -11.0691 O   0  0  0  0  0  0  0  0  0  0  0  0
   19.3890  -18.7663  -10.4129 C   0  0  0  0  0  0  0  0  0  0  0  0
   21.6690  -20.5587  -14.1825 O   0  0  0  0  0  0  0  0  0  0  0  0
   22.0601  -19.5525  -14.8333 O   0  0  0  0  0  0  0  0  0  0  0  0
   17.5045  -19.9130  -10.8957 N   0  0  0  0  0  0  0  0  0  0  0  0
   20.8340  -21.4723  -14.8772 C   0  0  2  0  0  0  0  0  0  0  0  0
   20.4747  -21.3294  -16.2719 C   0  0  0  0  0  0  0  0  0  0  0  0
   20.0704  -22.7170  -16.7894 C   0  0  0  0  0  0  0  0  0  0  0  0
   19.7841  -22.6618  -18.2560 C   0  0  0  0  0  0  0  0  0  0  0  0
   19.3249  -23.9255  -18.8720 C   0  0  0  0  0  0  0  0  0  0  0  0
   19.0466  -23.8932  -20.3379 N   0  0  0  0  0  0  0  0  0  0  0  0
   18.6627  -25.1367  -20.9121 C   0  0  0  0  0  0  0  0  0  0  0  0
   19.3075  -20.4071  -16.4363 O   0  0  0  0  0  0  0  0  0  0  0  0
   18.4360  -20.4096  -15.5516 O   0  0  0  0  0  0  0  0  0  0  0  0
  1  2  1  0
  2  3  2  0
  4  2  1  0
  4  5  1  0
  5  6  1  0
  7  6  1  0
  8  9  1  6
  8  7  1  0
 10  8  1  0
 11 10  2  0
 12 10  1  0
 13 18  1  0
 13 12  1  0
 13 14  1  1
 15 14  1  0
 16 15  1  0
 17 16  2  0
 18 19  2  0
 20 16  1  0
 21 22  1  0
 21 18  1  0
 22 23  1  1
 23 24  1  0
 24 25  1  0
 25 26  1  0
 26 27  1  0
 28 30  1  0
 28 22  1  0
 29 28  2  0
M  END
$$$$
