REK.pdb
     RDKit          3D

 30 29  0  0  1  0  0  0  0  0999 V2000
   13.3076  -11.4603  -18.3721 N   0  0  0  0  0  0  0  0  0  0  0  0
   12.6822  -12.4810  -17.6074 C   0  0  0  0  0  0  0  0  0  0  0  0
   12.1056  -13.4623  -18.2063 N   0  0  0  0  0  0  0  0  0  0  0  0
   12.6851  -12.4298  -16.1915 N   0  0  0  0  0  0  0  0  0  0  0  0
   13.2910  -11.3430  -15.4576 C   0  0  0  0  0  0  0  0  0  0  0  0
   14.7600  -11.5989  -15.2595 C   0  0  0  0  0  0  0  0  0  0  0  0
   15.4341  -10.4840  -14.5284 C   0  0  0  0  0  0  0  0  0  0  0  0
   16.9140  -10.7042  -14.4933 C   0  0  2  0  0  0  0  0  0  0  0  0
   17.2183  -12.0976  -14.4930 N   0  0  0  0  0  0  0  0  0  0  0  0
   17.5760   -9.9610  -13.3901 C   0  0  0  0  0  0  0  0  0  0  0  0
   17.4868  -10.4415  -12.2359 O   0  0  0  0  0  0  0  0  0  0  0  0
   11.7013  -14.2293  -17.6525 N   0  0  0  0  0  0  0  0  0  0  0  0
   18.2963   -8.7490  -13.5729 C   0  0  2  0  0  0  0  0  0  0  0  0
   18.8716   -7.9900  -12.4845 C   0  0  0  0  0  0  0  0  0  0  0  0
   20.0203   -7.1248  -12.8840 C   0  0  0  0  0  0  0  0  0  0  0  0
   20.5721   -6.2984  -11.7659 C   0  0  0  0  0  0  0  0  0  0  0  0
   21.6918   -5.4616  -12.2777 O   0  0  0  0  0  0  0  0  0  0  0  0
   21.7177   -4.2454  -11.9536 C   0  0  0  0  0  0  0  0  0  0  0  0
   17.7987   -7.1041  -11.9370 O   0  0  0  0  0  0  0  0  0  0  0  0
   17.0924   -6.3816  -12.6907 O   0  0  0  0  0  0  0  0  0  0  0  0
   22.6934   -5.9418  -13.0803 N   0  0  0  0  0  0  0  0  0  0  0  0
   17.5177   -7.0283  -10.5479 C   0  0  2  0  0  0  0  0  0  0  0  0
   16.5684   -6.1005   -9.9711 C   0  0  0  0  0  0  0  0  0  0  0  0
   15.5154   -6.9254   -9.2179 C   0  0  0  0  0  0  0  0  0  0  0  0
   14.4364   -6.0343   -8.6908 C   0  0  0  0  0  0  0  0  0  0  0  0
   13.3301   -6.7111   -7.9802 C   0  0  0  0  0  0  0  0  0  0  0  0
   12.2288   -5.8409   -7.4728 N   0  0  0  0  0  0  0  0  0  0  0  0
   11.0956   -6.5305   -6.9592 C   0  0  0  0  0  0  0  0  0  0  0  0
   17.2358   -5.1839   -8.9940 O   0  0  0  0  0  0  0  0  0  0  0  0
   18.3160   -5.5475   -8.5009 O   0  0  0  0  0  0  0  0  0  0  0  0
  1  2  1  0
  2  3  2  0
  4  2  1  0
  4  5  1  0
  5  6  1  0
  7  6  1  0
  8  9  1  1
  8  7  1  0
 10  8  1  0
 11 10  2  0
 12 10  1  0
 13 18  1  0
 13 12  1  0
 13 14  1  6
 15 14  1  0
 16 15  1  0
 17 16  2  0
 18 19  2  0
 20 16  1  0
 21 22  1  0
 21 18  1  0
 22 23  1  1
 23 24  1  0
 24 25  1  0
 25 26  1  0
 26 27  1  0
 28 30  1  0
 28 22  1  0
 29 28  2  0
M  END
$$$$
