REK.pdb
     RDKit          3D

 30 29  0  0  1  0  0  0  0  0999 V2000
   25.8707  -23.7931  -15.3876 N   0  0  0  0  0  0  0  0  0  0  0  0
   25.3710  -23.4716  -16.6777 C   0  0  0  0  0  0  0  0  0  0  0  0
   24.6644  -24.3334  -17.3198 N   0  0  0  0  0  0  0  0  0  0  0  0
   25.6433  -22.2119  -17.2665 N   0  0  0  0  0  0  0  0  0  0  0  0
   26.0401  -21.0626  -16.4865 C   0  0  0  0  0  0  0  0  0  0  0  0
   24.8923  -20.1000  -16.3499 C   0  0  0  0  0  0  0  0  0  0  0  0
   24.5769  -19.7960  -14.9216 C   0  0  0  0  0  0  0  0  0  0  0  0
   23.3618  -20.5522  -14.4843 C   0  0  2  0  0  0  0  0  0  0  0  0
   23.6613  -21.9363  -14.3144 N   0  0  0  0  0  0  0  0  0  0  0  0
   22.1910  -20.3117  -15.3669 C   0  0  0  0  0  0  0  0  0  0  0  0
   22.0903  -21.0184  -16.3972 O   0  0  0  0  0  0  0  0  0  0  0  0
   24.4268  -24.1628  -18.3062 N   0  0  0  0  0  0  0  0  0  0  0  0
   21.1917  -19.3344  -15.1073 C   0  0  1  0  0  0  0  0  0  0  0  0
   19.9811  -19.2031  -15.8877 C   0  0  0  0  0  0  0  0  0  0  0  0
   18.7698  -18.8668  -15.0831 C   0  0  0  0  0  0  0  0  0  0  0  0
   17.5200  -18.7420  -15.8956 C   0  0  0  0  0  0  0  0  0  0  0  0
   16.4058  -18.2880  -15.0192 O   0  0  0  0  0  0  0  0  0  0  0  0
   16.6649  -18.0425  -13.8120 C   0  0  0  0  0  0  0  0  0  0  0  0
   20.1983  -18.0996  -16.8730 O   0  0  0  0  0  0  0  0  0  0  0  0
   20.7712  -17.0260  -16.5443 O   0  0  0  0  0  0  0  0  0  0  0  0
   15.1166  -18.1230  -15.4538 N   0  0  0  0  0  0  0  0  0  0  0  0
   19.7745  -18.1993  -18.2239 C   0  0  2  0  0  0  0  0  0  0  0  0
   19.9660  -17.1517  -19.2039 C   0  0  0  0  0  0  0  0  0  0  0  0
   20.3418  -17.8243  -20.5317 C   0  0  0  0  0  0  0  0  0  0  0  0
   21.8284  -17.8875  -20.6801 C   0  0  0  0  0  0  0  0  0  0  0  0
   22.3268  -18.4990  -21.9310 C   0  0  0  0  0  0  0  0  0  0  0  0
   23.8046  -18.6703  -22.0498 N   0  0  0  0  0  0  0  0  0  0  0  0
   24.2524  -19.2725  -23.2583 C   0  0  0  0  0  0  0  0  0  0  0  0
   18.7062  -16.3707  -19.4117 O   0  0  0  0  0  0  0  0  0  0  0  0
   18.7121  -15.4775  -20.2744 O   0  0  0  0  0  0  0  0  0  0  0  0
  1  2  1  0
  2  3  2  0
  4  2  1  0
  4  5  1  0
  5  6  1  0
  7  6  1  0
  8  9  1  6
  8  7  1  0
 10  8  1  0
 11 10  2  0
 12 10  1  0
 13 18  1  0
 13 12  1  0
 13 14  1  6
 15 14  1  0
 16 15  1  0
 17 16  2  0
 18 19  2  0
 20 16  1  0
 21 22  1  0
 21 18  1  0
 22 23  1  1
 23 24  1  0
 24 25  1  0
 25 26  1  0
 26 27  1  0
 28 30  1  0
 28 22  1  0
 29 28  2  0
M  END
$$$$
