REK.pdb
     RDKit          3D

 30 29  0  0  1  0  0  0  0  0999 V2000
   27.8913  -23.2608  -16.7259 N   0  0  0  0  0  0  0  0  0  0  0  0
   26.7960  -23.7092  -17.5113 C   0  0  0  0  0  0  0  0  0  0  0  0
   26.7161  -23.3647  -18.7479 N   0  0  0  0  0  0  0  0  0  0  0  0
   25.7891  -24.5313  -16.9475 N   0  0  0  0  0  0  0  0  0  0  0  0
   25.7226  -24.8130  -15.5323 C   0  0  0  0  0  0  0  0  0  0  0  0
   24.3069  -25.1152  -15.1237 C   0  0  0  0  0  0  0  0  0  0  0  0
   23.5513  -23.8819  -14.7497 C   0  0  0  0  0  0  0  0  0  0  0  0
   24.4657  -22.8851  -14.1094 C   0  0  2  0  0  0  0  0  0  0  0  0
   24.5004  -23.0659  -12.6951 N   0  0  0  0  0  0  0  0  0  0  0  0
   24.1601  -21.4882  -14.5128 C   0  0  0  0  0  0  0  0  0  0  0  0
   23.3287  -20.8563  -13.8195 O   0  0  0  0  0  0  0  0  0  0  0  0
   25.9184  -23.6834  -19.3142 N   0  0  0  0  0  0  0  0  0  0  0  0
   24.7538  -20.8390  -15.6296 C   0  0  2  0  0  0  0  0  0  0  0  0
   24.3599  -19.5268  -16.0929 C   0  0  0  0  0  0  0  0  0  0  0  0
   25.2667  -18.9470  -17.1269 C   0  0  0  0  0  0  0  0  0  0  0  0
   24.9149  -17.5482  -17.5235 C   0  0  0  0  0  0  0  0  0  0  0  0
   25.9513  -17.0247  -18.4549 O   0  0  0  0  0  0  0  0  0  0  0  0
   26.3227  -15.8299  -18.3157 C   0  0  0  0  0  0  0  0  0  0  0  0
   22.9975  -19.6525  -16.6959 O   0  0  0  0  0  0  0  0  0  0  0  0
   22.6519  -20.6832  -17.3340 O   0  0  0  0  0  0  0  0  0  0  0  0
   26.5218  -17.7705  -19.4532 N   0  0  0  0  0  0  0  0  0  0  0  0
   22.0243  -18.6254  -16.5839 C   0  0  1  0  0  0  0  0  0  0  0  0
   20.7251  -18.6789  -17.2193 C   0  0  0  0  0  0  0  0  0  0  0  0
   19.6686  -18.7321  -16.1068 C   0  0  0  0  0  0  0  0  0  0  0  0
   18.2995  -18.8548  -16.6954 C   0  0  0  0  0  0  0  0  0  0  0  0
   17.1972  -19.0537  -15.7298 C   0  0  0  0  0  0  0  0  0  0  0  0
   15.8436  -19.3116  -16.3029 N   0  0  0  0  0  0  0  0  0  0  0  0
   14.8317  -19.6298  -15.3550 C   0  0  0  0  0  0  0  0  0  0  0  0
   20.4779  -17.4554  -18.0452 O   0  0  0  0  0  0  0  0  0  0  0  0
   21.2120  -16.4711  -17.8594 O   0  0  0  0  0  0  0  0  0  0  0  0
  1  2  1  0
  2  3  2  0
  4  2  1  0
  4  5  1  0
  5  6  1  0
  7  6  1  0
  8  9  1  1
  8  7  1  0
 10  8  1  0
 11 10  2  0
 12 10  1  0
 13 18  1  0
 13 12  1  0
 13 14  1  1
 15 14  1  0
 16 15  1  0
 17 16  2  0
 18 19  2  0
 20 16  1  0
 21 22  1  0
 21 18  1  0
 22 23  1  1
 23 24  1  0
 24 25  1  0
 25 26  1  0
 26 27  1  0
 28 30  1  0
 28 22  1  0
 29 28  2  0
M  END
$$$$
