REK.pdb
     RDKit          3D

 30 29  0  0  1  0  0  0  0  0999 V2000
   27.5477  -24.6123  -16.8626 N   0  0  0  0  0  0  0  0  0  0  0  0
   27.7606  -23.6906  -17.9221 C   0  0  0  0  0  0  0  0  0  0  0  0
   28.7019  -23.9041  -18.7722 N   0  0  0  0  0  0  0  0  0  0  0  0
   26.9482  -22.5371  -18.0529 N   0  0  0  0  0  0  0  0  0  0  0  0
   25.8057  -22.2949  -17.2027 C   0  0  0  0  0  0  0  0  0  0  0  0
   25.1016  -21.0321  -17.6177 C   0  0  0  0  0  0  0  0  0  0  0  0
   23.9557  -20.7021  -16.7177 C   0  0  0  0  0  0  0  0  0  0  0  0
   23.4018  -21.9485  -16.1017 C   0  0  2  0  0  0  0  0  0  0  0  0
   23.1272  -22.9280  -17.1014 N   0  0  0  0  0  0  0  0  0  0  0  0
   22.2421  -21.6796  -15.2127 C   0  0  0  0  0  0  0  0  0  0  0  0
   22.3668  -20.7678  -14.3617 O   0  0  0  0  0  0  0  0  0  0  0  0
   28.8099  -23.2760  -19.5799 N   0  0  0  0  0  0  0  0  0  0  0  0
   21.0142  -22.3931  -15.2761 C   0  0  1  0  0  0  0  0  0  0  0  0
   19.8634  -22.0765  -14.4592 C   0  0  0  0  0  0  0  0  0  0  0  0
   18.6336  -21.7479  -15.2385 C   0  0  0  0  0  0  0  0  0  0  0  0
   17.4795  -21.3134  -14.3917 C   0  0  0  0  0  0  0  0  0  0  0  0
   16.3026  -21.0453  -15.2627 O   0  0  0  0  0  0  0  0  0  0  0  0
   16.5129  -20.7655  -16.4720 C   0  0  0  0  0  0  0  0  0  0  0  0
   19.5659  -23.2753  -13.6166 O   0  0  0  0  0  0  0  0  0  0  0  0
   19.5648  -24.4384  -14.1026 O   0  0  0  0  0  0  0  0  0  0  0  0
   15.0059  -21.0865  -14.8211 N   0  0  0  0  0  0  0  0  0  0  0  0
   19.2704  -23.1710  -12.2324 C   0  0  2  0  0  0  0  0  0  0  0  0
   19.0475  -24.3129  -11.3715 C   0  0  0  0  0  0  0  0  0  0  0  0
   18.7464  -23.7787   -9.9642 C   0  0  0  0  0  0  0  0  0  0  0  0
   18.5042  -24.9117   -9.0188 C   0  0  0  0  0  0  0  0  0  0  0  0
   18.2796  -24.5368   -7.6061 C   0  0  0  0  0  0  0  0  0  0  0  0
   18.0477  -25.6551   -6.6454 N   0  0  0  0  0  0  0  0  0  0  0  0
   18.1047  -25.2976   -5.2697 C   0  0  0  0  0  0  0  0  0  0  0  0
   17.8706  -25.1143  -11.8328 O   0  0  0  0  0  0  0  0  0  0  0  0
   18.0140  -26.3423  -11.9498 O   0  0  0  0  0  0  0  0  0  0  0  0
  1  2  1  0
  2  3  2  0
  4  2  1  0
  4  5  1  0
  5  6  1  0
  7  6  1  0
  8  9  1  6
  8  7  1  0
 10  8  1  0
 11 10  2  0
 12 10  1  0
 13 18  1  0
 13 12  1  0
 13 14  1  1
 15 14  1  0
 16 15  1  0
 17 16  2  0
 18 19  2  0
 20 16  1  0
 21 22  1  0
 21 18  1  0
 22 23  1  1
 23 24  1  0
 24 25  1  0
 25 26  1  0
 26 27  1  0
 28 30  1  0
 28 22  1  0
 29 28  2  0
M  END
$$$$
