REK.pdb
     RDKit          3D

 30 29  0  0  1  0  0  0  0  0999 V2000
   29.6752  -19.5048  -20.5875 N   0  0  0  0  0  0  0  0  0  0  0  0
   28.3189  -19.5938  -20.1753 C   0  0  0  0  0  0  0  0  0  0  0  0
   27.3912  -19.7086  -21.0588 N   0  0  0  0  0  0  0  0  0  0  0  0
   27.9756  -19.5563  -18.8011 N   0  0  0  0  0  0  0  0  0  0  0  0
   28.7951  -20.1695  -17.7817 C   0  0  0  0  0  0  0  0  0  0  0  0
   28.6175  -21.6631  -17.7943 C   0  0  0  0  0  0  0  0  0  0  0  0
   27.8210  -22.1472  -16.6268 C   0  0  0  0  0  0  0  0  0  0  0  0
   26.9546  -21.0484  -16.0960 C   0  0  2  0  0  0  0  0  0  0  0  0
   27.7266  -19.8786  -15.8313 N   0  0  0  0  0  0  0  0  0  0  0  0
   26.1310  -21.4797  -14.9371 C   0  0  0  0  0  0  0  0  0  0  0  0
   25.4323  -22.5109  -15.0778 O   0  0  0  0  0  0  0  0  0  0  0  0
   26.4075  -19.7520  -20.7607 N   0  0  0  0  0  0  0  0  0  0  0  0
   26.0943  -20.7929  -13.6928 C   0  0  2  0  0  0  0  0  0  0  0  0
   25.2541  -21.1914  -12.5851 C   0  0  0  0  0  0  0  0  0  0  0  0
   25.7363  -20.7207  -11.2533 C   0  0  0  0  0  0  0  0  0  0  0  0
   24.9133  -21.2114  -10.1045 C   0  0  0  0  0  0  0  0  0  0  0  0
   25.4800  -20.6859   -8.8324 O   0  0  0  0  0  0  0  0  0  0  0  0
   26.6831  -20.9460   -8.5685 C   0  0  0  0  0  0  0  0  0  0  0  0
   23.8979  -20.6057  -12.8153 O   0  0  0  0  0  0  0  0  0  0  0  0
   23.7240  -19.3602  -12.9016 O   0  0  0  0  0  0  0  0  0  0  0  0
   24.7652  -19.9363   -7.9350 N   0  0  0  0  0  0  0  0  0  0  0  0
   22.7389  -21.4140  -12.9486 C   0  0  1  0  0  0  0  0  0  0  0  0
   21.4141  -20.8832  -13.1889 C   0  0  0  0  0  0  0  0  0  0  0  0
   21.0350  -21.2253  -14.6366 C   0  0  0  0  0  0  0  0  0  0  0  0
   19.6764  -20.6897  -14.9587 C   0  0  0  0  0  0  0  0  0  0  0  0
   19.1907  -20.9455  -16.3319 C   0  0  0  0  0  0  0  0  0  0  0  0
   17.8637  -20.3649  -16.6916 N   0  0  0  0  0  0  0  0  0  0  0  0
   17.4472  -20.5837  -18.0340 C   0  0  0  0  0  0  0  0  0  0  0  0
   20.4075  -21.5123  -12.2773 O   0  0  0  0  0  0  0  0  0  0  0  0
   20.5313  -22.7211  -12.0211 O   0  0  0  0  0  0  0  0  0  0  0  0
  1  2  1  0
  2  3  2  0
  4  2  1  0
  4  5  1  0
  5  6  1  0
  7  6  1  0
  8  9  1  1
  8  7  1  0
 10  8  1  0
 11 10  2  0
 12 10  1  0
 13 18  1  0
 13 12  1  0
 13 14  1  6
 15 14  1  0
 16 15  1  0
 17 16  2  0
 18 19  2  0
 20 16  1  0
 21 22  1  0
 21 18  1  0
 22 23  1  1
 23 24  1  0
 24 25  1  0
 25 26  1  0
 26 27  1  0
 28 30  1  0
 28 22  1  0
 29 28  2  0
M  END
$$$$
