QVG.pdb
     RDKit          3D

 21 20  0  0  1  0  0  0  0  0999 V2000
   18.4923  -13.0413  -18.4986 N   0  0  0  0  0  0  0  0  0  0  0  0
   19.2665  -13.3821  -19.6388 C   0  0  0  0  0  0  0  0  0  0  0  0
   18.6283  -13.6661  -20.6973 O   0  0  0  0  0  0  0  0  0  0  0  0
   20.7325  -13.4186  -19.6442 C   0  0  0  0  0  0  0  0  0  0  0  0
   21.2711  -13.0003  -18.2945 C   0  0  0  0  0  0  0  0  0  0  0  0
   22.7829  -12.9545  -18.3058 C   0  0  2  0  0  0  0  0  0  0  0  0
   23.2919  -14.3039  -18.2016 N   0  0  0  0  0  0  0  0  0  0  0  0
   23.3254  -12.1327  -17.2079 C   0  0  0  0  0  0  0  0  0  0  0  0
   23.8514  -12.6230  -16.1724 O   0  0  0  0  0  0  0  0  0  0  0  0
   25.5606  -11.6153  -15.8471 C   0  0  0  0  0  0  0  0  0  0  0  0
   25.3288  -10.1818  -16.1328 C   0  0  2  0  0  0  0  0  0  0  0  0
   26.1046   -9.2546  -15.2315 C   0  0  0  0  0  0  0  0  0  0  0  0
   23.8868   -9.8385  -16.2684 C   0  0  2  0  0  0  0  0  0  0  0  0
   23.2668  -10.7175  -17.2927 N   0  0  0  0  0  0  0  0  0  0  0  0
   23.5432   -8.4434  -16.5363 C   0  0  0  0  0  0  0  0  0  0  0  0
   24.0290   -7.9056  -17.6048 O   0  0  0  0  0  0  0  0  0  0  0  0
   22.7347   -7.5876  -15.7733 N   0  0  0  0  0  0  0  0  0  0  0  0
   22.4472   -6.2279  -16.1670 C   0  0  0  0  0  0  0  0  0  0  0  0
   23.5260   -5.3207  -15.7085 C   0  0  0  0  0  0  0  0  0  0  0  0
   24.4791   -5.7243  -14.9941 O   0  0  0  0  0  0  0  0  0  0  0  0
   23.5195   -3.9776  -16.0572 O   0  0  0  0  0  0  0  0  0  0  0  0
  2  1  1  0
  2  3  2  0
  4  2  1  0
  5  4  1  0
  6  5  1  0
  6  7  1  1
  8  6  1  0
  8  9  2  0
 11 10  1  1
 11 13  1  0
 12 11  1  0
 13 14  1  6
 14  8  1  0
 15 13  1  0
 15 17  1  0
 16 15  2  0
 18 17  1  0
 18 19  1  0
 19 20  2  0
 19 21  1  0
M  END
$$$$
