QVG.pdb
     RDKit          3D

 21 20  0  0  1  0  0  0  0  0999 V2000
   24.0421  -13.7925  -19.8312 N   0  0  0  0  0  0  0  0  0  0  0  0
   23.0624  -14.5895  -19.1826 C   0  0  0  0  0  0  0  0  0  0  0  0
   23.1735  -15.8462  -19.3111 O   0  0  0  0  0  0  0  0  0  0  0  0
   21.9581  -14.0362  -18.3921 C   0  0  0  0  0  0  0  0  0  0  0  0
   21.9952  -12.5249  -18.4278 C   0  0  0  0  0  0  0  0  0  0  0  0
   20.8546  -11.9366  -17.6274 C   0  0  2  0  0  0  0  0  0  0  0  0
   19.6645  -12.7236  -17.8623 N   0  0  0  0  0  0  0  0  0  0  0  0
   20.5952  -10.5274  -17.9765 C   0  0  0  0  0  0  0  0  0  0  0  0
   20.3851  -10.1349  -19.1559 O   0  0  0  0  0  0  0  0  0  0  0  0
   18.3618   -8.1829  -15.5131 C   0  0  0  0  0  0  0  0  0  0  0  0
   18.7015   -8.0009  -16.9420 C   0  0  2  0  0  0  0  0  0  0  0  0
   17.8146   -8.7843  -17.8767 C   0  0  0  0  0  0  0  0  0  0  0  0
   20.1573   -8.1408  -17.2192 C   0  0  2  0  0  0  0  0  0  0  0  0
   20.5751   -9.5416  -16.9560 N   0  0  0  0  0  0  0  0  0  0  0  0
   21.0682   -7.2157  -16.5480 C   0  0  0  0  0  0  0  0  0  0  0  0
   20.9787   -5.9647  -16.8550 O   0  0  0  0  0  0  0  0  0  0  0  0
   22.0498   -7.5079  -15.5893 N   0  0  0  0  0  0  0  0  0  0  0  0
   22.8569   -6.4875  -14.9616 C   0  0  0  0  0  0  0  0  0  0  0  0
   22.2114   -6.0170  -13.7130 C   0  0  0  0  0  0  0  0  0  0  0  0
   21.0706   -6.4126  -13.3611 O   0  0  0  0  0  0  0  0  0  0  0  0
   22.8536   -5.1121  -12.8799 O   0  0  0  0  0  0  0  0  0  0  0  0
  2  1  1  0
  2  3  2  0
  4  2  1  0
  5  4  1  0
  6  5  1  0
  6  7  1  6
  8  6  1  0
  8  9  2  0
 11 10  1  1
 11 13  1  0
 12 11  1  0
 13 14  1  1
 14  8  1  0
 15 13  1  0
 15 17  1  0
 16 15  2  0
 18 17  1  0
 18 19  1  0
 19 20  2  0
 19 21  1  0
M  END
$$$$
