QVG.pdb
     RDKit          3D

 21 20  0  0  1  0  0  0  0  0999 V2000
   19.7788  -11.3020  -18.9809 N   0  0  0  0  0  0  0  0  0  0  0  0
   19.3356  -12.5216  -18.4050 C   0  0  0  0  0  0  0  0  0  0  0  0
   19.5535  -13.5788  -19.0706 O   0  0  0  0  0  0  0  0  0  0  0  0
   18.6554  -12.6082  -17.1087 C   0  0  0  0  0  0  0  0  0  0  0  0
   18.5315  -11.2339  -16.4901 C   0  0  0  0  0  0  0  0  0  0  0  0
   17.9104  -11.3142  -15.1134 C   0  0  2  0  0  0  0  0  0  0  0  0
   16.5768  -11.8600  -15.2337 N   0  0  0  0  0  0  0  0  0  0  0  0
   17.8507   -9.9986  -14.4495 C   0  0  0  0  0  0  0  0  0  0  0  0
   16.7706   -9.4442  -14.1099 O   0  0  0  0  0  0  0  0  0  0  0  0
   17.1029   -8.8262  -12.0394 C   0  0  0  0  0  0  0  0  0  0  0  0
   18.5090   -8.3669  -11.9928 C   0  0  2  0  0  0  0  0  0  0  0  0
   18.7590   -7.2949  -10.9622 C   0  0  0  0  0  0  0  0  0  0  0  0
   19.0702   -8.0650  -13.3381 C   0  0  2  0  0  0  0  0  0  0  0  0
   19.0516   -9.2980  -14.1660 N   0  0  0  0  0  0  0  0  0  0  0  0
   20.3922   -7.4450  -13.3988 C   0  0  0  0  0  0  0  0  0  0  0  0
   21.4031   -8.1623  -13.0372 O   0  0  0  0  0  0  0  0  0  0  0  0
   20.7221   -6.1447  -13.8093 N   0  0  0  0  0  0  0  0  0  0  0  0
   22.0856   -5.6763  -13.8994 C   0  0  0  0  0  0  0  0  0  0  0  0
   22.2645   -4.8444  -15.1130 C   0  0  0  0  0  0  0  0  0  0  0  0
   21.3866   -4.7762  -16.0111 O   0  0  0  0  0  0  0  0  0  0  0  0
   23.4225   -4.1033  -15.3007 O   0  0  0  0  0  0  0  0  0  0  0  0
  2  1  1  0
  2  3  2  0
  4  2  1  0
  5  4  1  0
  6  5  1  0
  6  7  1  6
  8  6  1  0
  8  9  2  0
 11 10  1  6
 11 13  1  0
 12 11  1  0
 13 14  1  6
 14  8  1  0
 15 13  1  0
 15 17  1  0
 16 15  2  0
 18 17  1  0
 18 19  1  0
 19 20  2  0
 19 21  1  0
M  END
$$$$
