QVG.pdb
     RDKit          3D

 21 20  0  0  1  0  0  0  0  0999 V2000
   19.4607   -8.5528  -20.0203 N   0  0  0  0  0  0  0  0  0  0  0  0
   18.6066   -9.6718  -20.2048 C   0  0  0  0  0  0  0  0  0  0  0  0
   18.4820  -10.1046  -21.3902 O   0  0  0  0  0  0  0  0  0  0  0  0
   17.8823  -10.3299  -19.1127 C   0  0  0  0  0  0  0  0  0  0  0  0
   18.1895   -9.6505  -17.7971 C   0  0  0  0  0  0  0  0  0  0  0  0
   19.2450  -10.4132  -17.0278 C   0  0  2  0  0  0  0  0  0  0  0  0
   18.7015  -11.6938  -16.6334 N   0  0  0  0  0  0  0  0  0  0  0  0
   19.7056   -9.6800  -15.8339 C   0  0  0  0  0  0  0  0  0  0  0  0
   19.0911   -9.6962  -14.7332 O   0  0  0  0  0  0  0  0  0  0  0  0
   23.7806   -9.1463  -15.0291 C   0  0  0  0  0  0  0  0  0  0  0  0
   22.5793   -9.1346  -14.1648 C   0  0  2  0  0  0  0  0  0  0  0  0
   22.1308  -10.5095  -13.7377 C   0  0  0  0  0  0  0  0  0  0  0  0
   21.4876   -8.2715  -14.6930 C   0  0  2  0  0  0  0  0  0  0  0  0
   20.8956   -8.9097  -15.8965 N   0  0  0  0  0  0  0  0  0  0  0  0
   21.8044   -6.8732  -14.9765 C   0  0  0  0  0  0  0  0  0  0  0  0
   22.6861   -6.6361  -15.8894 O   0  0  0  0  0  0  0  0  0  0  0  0
   21.2658   -5.7238  -14.3791 N   0  0  0  0  0  0  0  0  0  0  0  0
   21.6973   -4.3891  -14.7239 C   0  0  0  0  0  0  0  0  0  0  0  0
   20.9618   -3.3863  -13.9174 C   0  0  0  0  0  0  0  0  0  0  0  0
   20.0508   -3.7135  -13.1143 O   0  0  0  0  0  0  0  0  0  0  0  0
   21.2583   -2.0349  -14.0235 O   0  0  0  0  0  0  0  0  0  0  0  0
  2  1  1  0
  2  3  2  0
  4  2  1  0
  5  4  1  0
  6  5  1  0
  6  7  1  1
  8  6  1  0
  8  9  2  0
 11 10  1  6
 11 13  1  0
 12 11  1  0
 13 14  1  6
 14  8  1  0
 15 13  1  0
 15 17  1  0
 16 15  2  0
 18 17  1  0
 18 19  1  0
 19 20  2  0
 19 21  1  0
M  END
$$$$
