QVG.pdb
     RDKit          3D

 21 20  0  0  1  0  0  0  0  0999 V2000
   15.9916   -9.1809  -15.0274 N   0  0  0  0  0  0  0  0  0  0  0  0
   15.5643  -10.5283  -15.1607 C   0  0  0  0  0  0  0  0  0  0  0  0
   14.3270  -10.7164  -15.3655 O   0  0  0  0  0  0  0  0  0  0  0  0
   16.4682  -11.6797  -15.0740 C   0  0  0  0  0  0  0  0  0  0  0  0
   17.8898  -11.2134  -14.8537 C   0  0  0  0  0  0  0  0  0  0  0  0
   18.6935  -11.3051  -16.1317 C   0  0  2  0  0  0  0  0  0  0  0  0
   18.9880  -12.6951  -16.3996 N   0  0  0  0  0  0  0  0  0  0  0  0
   19.9498  -10.5362  -16.0582 C   0  0  0  0  0  0  0  0  0  0  0  0
   21.0770  -11.0700  -15.8741 O   0  0  0  0  0  0  0  0  0  0  0  0
   20.3557   -6.7955  -18.0383 C   0  0  0  0  0  0  0  0  0  0  0  0
   21.3601   -7.8059  -17.6378 C   0  0  2  0  0  0  0  0  0  0  0  0
   21.5695   -8.8882  -18.6667 C   0  0  0  0  0  0  0  0  0  0  0  0
   21.1614   -8.3100  -16.2513 C   0  0  2  0  0  0  0  0  0  0  0  0
   19.9205   -9.1245  -16.1980 N   0  0  0  0  0  0  0  0  0  0  0  0
   21.1606   -7.3308  -15.1664 C   0  0  0  0  0  0  0  0  0  0  0  0
   20.0622   -6.6893  -14.9445 O   0  0  0  0  0  0  0  0  0  0  0  0
   22.2162   -6.9854  -14.3093 N   0  0  0  0  0  0  0  0  0  0  0  0
   22.0605   -6.0580  -13.2129 C   0  0  0  0  0  0  0  0  0  0  0  0
   21.9643   -4.6697  -13.7232 C   0  0  0  0  0  0  0  0  0  0  0  0
   22.0087   -4.4056  -14.9521 O   0  0  0  0  0  0  0  0  0  0  0  0
   21.8203   -3.6012  -12.8498 O   0  0  0  0  0  0  0  0  0  0  0  0
  2  1  1  0
  2  3  2  0
  4  2  1  0
  5  4  1  0
  6  5  1  0
  6  7  1  1
  8  6  1  0
  8  9  2  0
 11 10  1  6
 11 13  1  0
 12 11  1  0
 13 14  1  6
 14  8  1  0
 15 13  1  0
 15 17  1  0
 16 15  2  0
 18 17  1  0
 18 19  1  0
 19 20  2  0
 19 21  1  0
M  END
$$$$
