QCW.pdb
     RDKit          3D

 30 31  0  0  1  0  0  0  0  0999 V2000
   27.8871  -16.7780  -15.0306 N   0  0  0  0  0  0  0  0  0  0  0  0
   28.4519  -17.5166  -16.0897 C   0  0  0  0  0  0  0  0  0  0  0  0
   29.6898  -17.4984  -16.2708 O   0  0  0  0  0  0  0  0  0  0  0  0
   27.5622  -18.3050  -16.9732 C   0  0  0  0  0  0  0  0  0  0  0  0
   26.6948  -19.2139  -16.1143 C   0  0  0  0  0  0  0  0  0  0  0  0
   27.5426  -20.1189  -15.2558 C   0  0  2  0  0  0  0  0  0  0  0  0
   28.4065  -20.9652  -16.0820 N   0  0  0  0  0  0  0  0  0  0  0  0
   26.7171  -20.9518  -14.3438 C   0  0  0  0  0  0  0  0  0  0  0  0
   26.0590  -21.9382  -14.7535 O   0  0  0  0  0  0  0  0  0  0  0  0
   26.6750  -20.6167  -12.9677 N   0  0  0  0  0  0  0  0  0  0  0  0
   25.6847  -21.1051  -12.0321 C   0  0  1  0  0  0  0  0  0  0  0  0
   25.9782  -20.6182  -10.6275 C   0  0  0  0  0  0  0  0  0  0  0  0
   24.6757  -21.0099   -9.4583 S   0  0  0  0  0  0  0  0  0  0  0  0
   24.3521  -20.6756  -12.5047 C   0  0  0  0  0  0  0  0  0  0  0  0
   24.1306  -19.4548  -12.8198 O   0  0  0  0  0  0  0  0  0  0  0  0
   23.2375  -21.5364  -12.6485 N   0  0  0  0  0  0  0  0  0  0  0  0
   21.9433  -21.0297  -13.1473 C   0  0  1  0  0  0  0  0  0  0  0  0
   22.1171  -20.9732  -14.6435 C   0  0  0  0  0  0  0  0  0  0  0  0
   20.8792  -20.5364  -15.3084 C   0  0  0  0  0  0  0  0  0  0  0  0
   20.3880  -19.2298  -15.3331 C   0  0  0  0  0  0  0  0  0  0  0  0
   19.2744  -19.1369  -16.0511 N   0  0  0  0  0  0  0  0  0  0  0  0
   19.0364  -20.3977  -16.4989 C   0  0  0  0  0  0  0  0  0  0  0  0
   17.9800  -20.8366  -17.2885 C   0  0  0  0  0  0  0  0  0  0  0  0
   17.9251  -22.1647  -17.6154 C   0  0  0  0  0  0  0  0  0  0  0  0
   18.8922  -23.0396  -17.1719 C   0  0  0  0  0  0  0  0  0  0  0  0
   19.9407  -22.6244  -16.3932 C   0  0  0  0  0  0  0  0  0  0  0  0
   20.0053  -21.2723  -16.0564 C   0  0  0  0  0  0  0  0  0  0  0  0
   20.8044  -21.8087  -12.6741 C   0  0  0  0  0  0  0  0  0  0  0  0
   19.6089  -21.1650  -12.3957 O   0  0  0  0  0  0  0  0  0  0  0  0
   20.8478  -23.0526  -12.4968 O   0  0  0  0  0  0  0  0  0  0  0  0
  2  3  2  0
  2  1  1  0
  4  2  1  0
  5  4  1  0
  6  5  1  0
  6  7  1  6
  8 10  1  0
  8  6  1  0
  9  8  2  0
 11 14  1  0
 11 10  1  0
 11 12  1  1
 13 12  1  0
 14 15  2  0
 16 17  1  0
 16 14  1  0
 17 28  1  0
 17 18  1  6
 19 18  1  0
 20 19  2  0
 21 22  1  0
 21 20  1  0
 22 27  2  0
 23 24  2  0
 23 22  1  0
 24 25  1  0
 25 26  2  0
 27 26  1  0
 27 19  1  0
 28 30  2  0
 28 29  1  0
M  END
$$$$
