QCW.pdb
     RDKit          3D

 30 31  0  0  1  0  0  0  0  0999 V2000
   29.9885  -23.6146  -19.6832 N   0  0  0  0  0  0  0  0  0  0  0  0
   29.9040  -22.4576  -20.4835 C   0  0  0  0  0  0  0  0  0  0  0  0
   30.7732  -22.2397  -21.3567 O   0  0  0  0  0  0  0  0  0  0  0  0
   28.7798  -21.5164  -20.2731 C   0  0  0  0  0  0  0  0  0  0  0  0
   27.9048  -22.0392  -19.1429 C   0  0  0  0  0  0  0  0  0  0  0  0
   27.4130  -20.9103  -18.2719 C   0  0  2  0  0  0  0  0  0  0  0  0
   27.5375  -19.6245  -18.9621 N   0  0  0  0  0  0  0  0  0  0  0  0
   28.1187  -20.8697  -16.9652 C   0  0  0  0  0  0  0  0  0  0  0  0
   29.3705  -20.8801  -16.8825 O   0  0  0  0  0  0  0  0  0  0  0  0
   27.3483  -20.8180  -15.7772 N   0  0  0  0  0  0  0  0  0  0  0  0
   27.8707  -20.4726  -14.4725 C   0  0  1  0  0  0  0  0  0  0  0  0
   28.1933  -18.9943  -14.3909 C   0  0  0  0  0  0  0  0  0  0  0  0
   26.7371  -17.9632  -14.2089 S   0  0  0  0  0  0  0  0  0  0  0  0
   26.8812  -20.8849  -13.4553 C   0  0  0  0  0  0  0  0  0  0  0  0
   25.6555  -21.0743  -13.7725 O   0  0  0  0  0  0  0  0  0  0  0  0
   27.1801  -21.1012  -12.0887 N   0  0  0  0  0  0  0  0  0  0  0  0
   26.1284  -21.5045  -11.1337 C   0  0  1  0  0  0  0  0  0  0  0  0
   26.8842  -21.8871   -9.8870 C   0  0  0  0  0  0  0  0  0  0  0  0
   26.9001  -20.7843   -8.9129 C   0  0  0  0  0  0  0  0  0  0  0  0
   25.9577  -19.7573   -8.8334 C   0  0  0  0  0  0  0  0  0  0  0  0
   26.2116  -18.9345   -7.8221 N   0  0  0  0  0  0  0  0  0  0  0  0
   27.3331  -19.4304   -7.2361 C   0  0  0  0  0  0  0  0  0  0  0  0
   28.0157  -18.9232   -6.1366 C   0  0  0  0  0  0  0  0  0  0  0  0
   29.1417  -19.5782   -5.7160 C   0  0  0  0  0  0  0  0  0  0  0  0
   29.5834  -20.7087   -6.3673 C   0  0  0  0  0  0  0  0  0  0  0  0
   28.9229  -21.2227   -7.4524 C   0  0  0  0  0  0  0  0  0  0  0  0
   27.7736  -20.5625   -7.8870 C   0  0  0  0  0  0  0  0  0  0  0  0
   25.0963  -20.4887  -10.9583 C   0  0  0  0  0  0  0  0  0  0  0  0
   23.8341  -20.8686  -10.5297 O   0  0  0  0  0  0  0  0  0  0  0  0
   25.2888  -19.2667  -11.1822 O   0  0  0  0  0  0  0  0  0  0  0  0
  2  3  2  0
  2  1  1  0
  4  2  1  0
  5  4  1  0
  6  5  1  0
  6  7  1  6
  8 10  1  0
  8  6  1  0
  9  8  2  0
 11 14  1  0
 11 10  1  0
 11 12  1  6
 13 12  1  0
 14 15  2  0
 16 17  1  0
 16 14  1  0
 17 28  1  0
 17 18  1  1
 19 18  1  0
 20 19  2  0
 21 22  1  0
 21 20  1  0
 22 27  2  0
 23 24  2  0
 23 22  1  0
 24 25  1  0
 25 26  2  0
 27 26  1  0
 27 19  1  0
 28 30  2  0
 28 29  1  0
M  END
$$$$
