QCW.pdb
     RDKit          3D

 30 31  0  0  1  0  0  0  0  0999 V2000
   23.1984  -19.2616  -19.0895 N   0  0  0  0  0  0  0  0  0  0  0  0
   23.0838  -17.9110  -18.7039 C   0  0  0  0  0  0  0  0  0  0  0  0
   23.5937  -17.0155  -19.4135 O   0  0  0  0  0  0  0  0  0  0  0  0
   22.3569  -17.5766  -17.4575 C   0  0  0  0  0  0  0  0  0  0  0  0
   21.7327  -18.8459  -16.8958 C   0  0  0  0  0  0  0  0  0  0  0  0
   22.2008  -19.1015  -15.4850 C   0  0  2  0  0  0  0  0  0  0  0  0
   23.5544  -19.6608  -15.4762 N   0  0  0  0  0  0  0  0  0  0  0  0
   21.2673  -19.9870  -14.7425 C   0  0  0  0  0  0  0  0  0  0  0  0
   21.1523  -21.2078  -15.0082 O   0  0  0  0  0  0  0  0  0  0  0  0
   20.4837  -19.4297  -13.7018 N   0  0  0  0  0  0  0  0  0  0  0  0
   19.6234  -20.1913  -12.8218 C   0  0  1  0  0  0  0  0  0  0  0  0
   19.8424  -19.7984  -11.3748 C   0  0  0  0  0  0  0  0  0  0  0  0
   21.4589  -20.2655  -10.7538 S   0  0  0  0  0  0  0  0  0  0  0  0
   18.2246  -19.9838  -13.2510 C   0  0  0  0  0  0  0  0  0  0  0  0
   17.7961  -18.8140  -13.5452 O   0  0  0  0  0  0  0  0  0  0  0  0
   17.2630  -21.0154  -13.3730 N   0  0  0  0  0  0  0  0  0  0  0  0
   15.8569  -20.7103  -13.7054 C   0  0  1  0  0  0  0  0  0  0  0  0
   15.3233  -21.9963  -14.2829 C   0  0  0  0  0  0  0  0  0  0  0  0
   13.9193  -21.8521  -14.6995 C   0  0  0  0  0  0  0  0  0  0  0  0
   13.4465  -20.9642  -15.6676 C   0  0  0  0  0  0  0  0  0  0  0  0
   12.1389  -21.0970  -15.8594 N   0  0  0  0  0  0  0  0  0  0  0  0
   11.7547  -22.0823  -15.0058 C   0  0  0  0  0  0  0  0  0  0  0  0
   10.4762  -22.5925  -14.8131 C   0  0  0  0  0  0  0  0  0  0  0  0
   10.3087  -23.5836  -13.8839 C   0  0  0  0  0  0  0  0  0  0  0  0
   11.3804  -24.0597  -13.1612 C   0  0  0  0  0  0  0  0  0  0  0  0
   12.6474  -23.5688  -13.3384 C   0  0  0  0  0  0  0  0  0  0  0  0
   12.8276  -22.5596  -14.2844 C   0  0  0  0  0  0  0  0  0  0  0  0
   15.1083  -20.1675  -12.5773 C   0  0  0  0  0  0  0  0  0  0  0  0
   14.1978  -19.1452  -12.7941 O   0  0  0  0  0  0  0  0  0  0  0  0
   15.2478  -20.5786  -11.3974 O   0  0  0  0  0  0  0  0  0  0  0  0
  2  3  2  0
  2  1  1  0
  4  2  1  0
  5  4  1  0
  6  5  1  0
  6  7  1  6
  8 10  1  0
  8  6  1  0
  9  8  2  0
 11 14  1  0
 11 10  1  0
 11 12  1  1
 13 12  1  0
 14 15  2  0
 16 17  1  0
 16 14  1  0
 17 28  1  0
 17 18  1  1
 19 18  1  0
 20 19  2  0
 21 22  1  0
 21 20  1  0
 22 27  2  0
 23 24  2  0
 23 22  1  0
 24 25  1  0
 25 26  2  0
 27 26  1  0
 27 19  1  0
 28 30  2  0
 28 29  1  0
M  END
$$$$
