QCW.pdb
     RDKit          3D

 30 31  0  0  1  0  0  0  0  0999 V2000
   23.3854  -15.6006  -15.7471 N   0  0  0  0  0  0  0  0  0  0  0  0
   23.7180  -15.5349  -17.1150 C   0  0  0  0  0  0  0  0  0  0  0  0
   23.8978  -14.4227  -17.6594 O   0  0  0  0  0  0  0  0  0  0  0  0
   23.8491  -16.7927  -17.8860 C   0  0  0  0  0  0  0  0  0  0  0  0
   23.6224  -17.9705  -16.9491 C   0  0  0  0  0  0  0  0  0  0  0  0
   24.9157  -18.6915  -16.6623 C   0  0  2  0  0  0  0  0  0  0  0  0
   25.7243  -18.8186  -17.8769 N   0  0  0  0  0  0  0  0  0  0  0  0
   24.6836  -20.0250  -16.0500 C   0  0  0  0  0  0  0  0  0  0  0  0
   23.5474  -20.5559  -16.0184 O   0  0  0  0  0  0  0  0  0  0  0  0
   25.7845  -20.7149  -15.4847 N   0  0  0  0  0  0  0  0  0  0  0  0
   25.6987  -21.9996  -14.8238 C   0  0  1  0  0  0  0  0  0  0  0  0
   26.7853  -22.9355  -15.3132 C   0  0  0  0  0  0  0  0  0  0  0  0
   28.4363  -22.2619  -15.1202 S   0  0  0  0  0  0  0  0  0  0  0  0
   25.7714  -21.7740  -13.3652 C   0  0  0  0  0  0  0  0  0  0  0  0
   26.8968  -21.7882  -12.7553 O   0  0  0  0  0  0  0  0  0  0  0  0
   24.6505  -21.5308  -12.5356 N   0  0  0  0  0  0  0  0  0  0  0  0
   24.8111  -21.3079  -11.0847 C   0  0  1  0  0  0  0  0  0  0  0  0
   25.8143  -20.1872  -10.9887 C   0  0  0  0  0  0  0  0  0  0  0  0
   27.0498  -20.6322  -10.3248 C   0  0  0  0  0  0  0  0  0  0  0  0
   28.1246  -21.2671  -10.9502 C   0  0  0  0  0  0  0  0  0  0  0  0
   29.1167  -21.5058  -10.1000 N   0  0  0  0  0  0  0  0  0  0  0  0
   28.6833  -21.0219   -8.9063 C   0  0  0  0  0  0  0  0  0  0  0  0
   29.3510  -21.0374   -7.6872 C   0  0  0  0  0  0  0  0  0  0  0  0
   28.7190  -20.5030   -6.5969 C   0  0  0  0  0  0  0  0  0  0  0  0
   27.4556  -19.9657   -6.7086 C   0  0  0  0  0  0  0  0  0  0  0  0
   26.7828  -19.9417   -7.9022 C   0  0  0  0  0  0  0  0  0  0  0  0
   27.4200  -20.4827   -9.0189 C   0  0  0  0  0  0  0  0  0  0  0  0
   23.5443  -21.0804  -10.3983 C   0  0  0  0  0  0  0  0  0  0  0  0
   22.3662  -21.0768  -11.1285 O   0  0  0  0  0  0  0  0  0  0  0  0
   23.4592  -20.8792   -9.1602 O   0  0  0  0  0  0  0  0  0  0  0  0
  2  3  2  0
  2  1  1  0
  4  2  1  0
  5  4  1  0
  6  5  1  0
  6  7  1  6
  8 10  1  0
  8  6  1  0
  9  8  2  0
 11 14  1  0
 11 10  1  0
 11 12  1  6
 13 12  1  0
 14 15  2  0
 16 17  1  0
 16 14  1  0
 17 28  1  0
 17 18  1  6
 19 18  1  0
 20 19  2  0
 21 22  1  0
 21 20  1  0
 22 27  2  0
 23 24  2  0
 23 22  1  0
 24 25  1  0
 25 26  2  0
 27 26  1  0
 27 19  1  0
 28 30  2  0
 28 29  1  0
M  END
$$$$
