QCW.pdb
     RDKit          3D

 30 31  0  0  1  0  0  0  0  0999 V2000
   18.0988  -13.3845  -14.3567 N   0  0  0  0  0  0  0  0  0  0  0  0
   18.1145  -13.1626  -15.7484 C   0  0  0  0  0  0  0  0  0  0  0  0
   17.5935  -13.9999  -16.5183 O   0  0  0  0  0  0  0  0  0  0  0  0
   18.7520  -11.9336  -16.2749 C   0  0  0  0  0  0  0  0  0  0  0  0
   19.2501  -11.0972  -15.1050 C   0  0  0  0  0  0  0  0  0  0  0  0
   20.0112   -9.8883  -15.5886 C   0  0  2  0  0  0  0  0  0  0  0  0
   21.2919  -10.2792  -16.1820 N   0  0  0  0  0  0  0  0  0  0  0  0
   20.2220   -8.8950  -14.5042 C   0  0  0  0  0  0  0  0  0  0  0  0
   20.1772   -9.2121  -13.2911 O   0  0  0  0  0  0  0  0  0  0  0  0
   20.4813   -7.5474  -14.8568 N   0  0  0  0  0  0  0  0  0  0  0  0
   20.5582   -6.4510  -13.9153 C   0  0  1  0  0  0  0  0  0  0  0  0
   21.7904   -5.6055  -14.1660 C   0  0  0  0  0  0  0  0  0  0  0  0
   21.8454   -4.1223  -13.1591 S   0  0  0  0  0  0  0  0  0  0  0  0
   19.3112   -5.6649  -14.0197 C   0  0  0  0  0  0  0  0  0  0  0  0
   18.8083   -5.3826  -15.1626 O   0  0  0  0  0  0  0  0  0  0  0  0
   18.5825   -5.1683  -12.9124 N   0  0  0  0  0  0  0  0  0  0  0  0
   17.4292   -4.2659  -13.1026 C   0  0  1  0  0  0  0  0  0  0  0  0
   16.2267   -5.1426  -12.8633 C   0  0  0  0  0  0  0  0  0  0  0  0
   16.2305   -5.6928  -11.4985 C   0  0  0  0  0  0  0  0  0  0  0  0
   16.8584   -5.1170  -10.3924 C   0  0  0  0  0  0  0  0  0  0  0  0
   16.6470   -5.8206   -9.2859 N   0  0  0  0  0  0  0  0  0  0  0  0
   15.8732   -6.8678   -9.6753 C   0  0  0  0  0  0  0  0  0  0  0  0
   15.3839   -7.9046   -8.8894 C   0  0  0  0  0  0  0  0  0  0  0  0
   14.6279   -8.8728   -9.4936 C   0  0  0  0  0  0  0  0  0  0  0  0
   14.3618   -8.8178  -10.8440 C   0  0  0  0  0  0  0  0  0  0  0  0
   14.8357   -7.8031  -11.6338 C   0  0  0  0  0  0  0  0  0  0  0  0
   15.6056   -6.8113  -11.0261 C   0  0  0  0  0  0  0  0  0  0  0  0
   17.5048   -3.0620  -12.2823 C   0  0  0  0  0  0  0  0  0  0  0  0
   16.4998   -2.1119  -12.3748 O   0  0  0  0  0  0  0  0  0  0  0  0
   18.4490   -2.8310  -11.4851 O   0  0  0  0  0  0  0  0  0  0  0  0
  2  3  2  0
  2  1  1  0
  4  2  1  0
  5  4  1  0
  6  5  1  0
  6  7  1  1
  8 10  1  0
  8  6  1  0
  9  8  2  0
 11 14  1  0
 11 10  1  0
 11 12  1  6
 13 12  1  0
 14 15  2  0
 16 17  1  0
 16 14  1  0
 17 28  1  0
 17 18  1  1
 19 18  1  0
 20 19  2  0
 21 22  1  0
 21 20  1  0
 22 27  2  0
 23 24  2  0
 23 22  1  0
 24 25  1  0
 25 26  2  0
 27 26  1  0
 27 19  1  0
 28 30  2  0
 28 29  1  0
M  END
$$$$
