QCW.pdb
     RDKit          3D

 30 31  0  0  1  0  0  0  0  0999 V2000
   23.9424  -19.5825  -19.4579 N   0  0  0  0  0  0  0  0  0  0  0  0
   22.7463  -19.4055  -20.1818 C   0  0  0  0  0  0  0  0  0  0  0  0
   22.6578  -19.8362  -21.3532 O   0  0  0  0  0  0  0  0  0  0  0  0
   21.6100  -18.7082  -19.5365 C   0  0  0  0  0  0  0  0  0  0  0  0
   22.0333  -18.2599  -18.1451 C   0  0  0  0  0  0  0  0  0  0  0  0
   21.9916  -19.4094  -17.1694 C   0  0  2  0  0  0  0  0  0  0  0  0
   20.6760  -20.0531  -17.1753 N   0  0  0  0  0  0  0  0  0  0  0  0
   22.3559  -18.9830  -15.7938 C   0  0  0  0  0  0  0  0  0  0  0  0
   23.1985  -18.0792  -15.5767 O   0  0  0  0  0  0  0  0  0  0  0  0
   21.7287  -19.6211  -14.6952 N   0  0  0  0  0  0  0  0  0  0  0  0
   21.9347  -19.2623  -13.3083 C   0  0  1  0  0  0  0  0  0  0  0  0
   20.6127  -19.1301  -12.5797 C   0  0  0  0  0  0  0  0  0  0  0  0
   19.3079  -18.4474  -13.6035 S   0  0  0  0  0  0  0  0  0  0  0  0
   22.8115  -20.2806  -12.6936 C   0  0  0  0  0  0  0  0  0  0  0  0
   22.8507  -21.4749  -13.1528 O   0  0  0  0  0  0  0  0  0  0  0  0
   23.6574  -20.0443  -11.5835 N   0  0  0  0  0  0  0  0  0  0  0  0
   24.4879  -21.1250  -11.0152 C   0  0  1  0  0  0  0  0  0  0  0  0
   25.2213  -21.6946  -12.2023 C   0  0  0  0  0  0  0  0  0  0  0  0
   26.4219  -20.9042  -12.5175 C   0  0  0  0  0  0  0  0  0  0  0  0
   27.6371  -20.9648  -11.8327 C   0  0  0  0  0  0  0  0  0  0  0  0
   28.5489  -20.1678  -12.3782 N   0  0  0  0  0  0  0  0  0  0  0  0
   27.9205  -19.5801  -13.4302 C   0  0  0  0  0  0  0  0  0  0  0  0
   28.4407  -18.6493  -14.3219 C   0  0  0  0  0  0  0  0  0  0  0  0
   27.6218  -18.1723  -15.3098 C   0  0  0  0  0  0  0  0  0  0  0  0
   26.3183  -18.6051  -15.4139 C   0  0  0  0  0  0  0  0  0  0  0  0
   25.7891  -19.5223  -14.5441 C   0  0  0  0  0  0  0  0  0  0  0  0
   26.6169  -20.0149  -13.5352 C   0  0  0  0  0  0  0  0  0  0  0  0
   25.3285  -20.6781   -9.9100 C   0  0  0  0  0  0  0  0  0  0  0  0
   25.4087  -19.3250   -9.6205 O   0  0  0  0  0  0  0  0  0  0  0  0
   26.0001  -21.4645   -9.1950 O   0  0  0  0  0  0  0  0  0  0  0  0
  2  3  2  0
  2  1  1  0
  4  2  1  0
  5  4  1  0
  6  5  1  0
  6  7  1  1
  8 10  1  0
  8  6  1  0
  9  8  2  0
 11 14  1  0
 11 10  1  0
 11 12  1  1
 13 12  1  0
 14 15  2  0
 16 17  1  0
 16 14  1  0
 17 28  1  0
 17 18  1  6
 19 18  1  0
 20 19  2  0
 21 22  1  0
 21 20  1  0
 22 27  2  0
 23 24  2  0
 23 22  1  0
 24 25  1  0
 25 26  2  0
 27 26  1  0
 27 19  1  0
 28 30  2  0
 28 29  1  0
M  END
$$$$
