QCW.pdb
     RDKit          3D

 30 31  0  0  1  0  0  0  0  0999 V2000
   28.8670  -18.6315  -20.8419 N   0  0  0  0  0  0  0  0  0  0  0  0
   29.6780  -19.7274  -21.1991 C   0  0  0  0  0  0  0  0  0  0  0  0
   29.7484  -20.0860  -22.3957 O   0  0  0  0  0  0  0  0  0  0  0  0
   30.4358  -20.4375  -20.1430 C   0  0  0  0  0  0  0  0  0  0  0  0
   30.0909  -19.8251  -18.7931 C   0  0  0  0  0  0  0  0  0  0  0  0
   29.2565  -20.7712  -17.9663 C   0  0  2  0  0  0  0  0  0  0  0  0
   27.9445  -20.9852  -18.5809 N   0  0  0  0  0  0  0  0  0  0  0  0
   29.1042  -20.2979  -16.5664 C   0  0  0  0  0  0  0  0  0  0  0  0
   30.0890  -20.1354  -15.8062 O   0  0  0  0  0  0  0  0  0  0  0  0
   27.8025  -20.0230  -16.0790 N   0  0  0  0  0  0  0  0  0  0  0  0
   27.5135  -19.4595  -14.7776 C   0  0  1  0  0  0  0  0  0  0  0  0
   26.9161  -18.0730  -14.9068 C   0  0  0  0  0  0  0  0  0  0  0  0
   27.8675  -16.9915  -15.9754 S   0  0  0  0  0  0  0  0  0  0  0  0
   26.6160  -20.3895  -14.0612 C   0  0  0  0  0  0  0  0  0  0  0  0
   25.8355  -21.1736  -14.7052 O   0  0  0  0  0  0  0  0  0  0  0  0
   26.5353  -20.4987  -12.6521 N   0  0  0  0  0  0  0  0  0  0  0  0
   25.6016  -21.4484  -12.0141 C   0  0  1  0  0  0  0  0  0  0  0  0
   26.3918  -22.0389  -10.8746 C   0  0  0  0  0  0  0  0  0  0  0  0
   26.4857  -21.0987   -9.7465 C   0  0  0  0  0  0  0  0  0  0  0  0
   25.4809  -20.2211   -9.3349 C   0  0  0  0  0  0  0  0  0  0  0  0
   25.8415  -19.5312   -8.2587 N   0  0  0  0  0  0  0  0  0  0  0  0
   27.0963  -19.9633   -7.9659 C   0  0  0  0  0  0  0  0  0  0  0  0
   27.9230  -19.5422   -6.9308 C   0  0  0  0  0  0  0  0  0  0  0  0
   29.1662  -20.1056   -6.8261 C   0  0  0  0  0  0  0  0  0  0  0  0
   29.5833  -21.0632   -7.7241 C   0  0  0  0  0  0  0  0  0  0  0  0
   28.7816  -21.4903   -8.7502 C   0  0  0  0  0  0  0  0  0  0  0  0
   27.5125  -20.9228   -8.8636 C   0  0  0  0  0  0  0  0  0  0  0  0
   24.3279  -20.8385  -11.6486 C   0  0  0  0  0  0  0  0  0  0  0  0
   24.1974  -19.4593  -11.6908 O   0  0  0  0  0  0  0  0  0  0  0  0
   23.3251  -21.5047  -11.2865 O   0  0  0  0  0  0  0  0  0  0  0  0
  2  3  2  0
  2  1  1  0
  4  2  1  0
  5  4  1  0
  6  5  1  0
  6  7  1  6
  8 10  1  0
  8  6  1  0
  9  8  2  0
 11 14  1  0
 11 10  1  0
 11 12  1  6
 13 12  1  0
 14 15  2  0
 16 17  1  0
 16 14  1  0
 17 28  1  0
 17 18  1  1
 19 18  1  0
 20 19  2  0
 21 22  1  0
 21 20  1  0
 22 27  2  0
 23 24  2  0
 23 22  1  0
 24 25  1  0
 25 26  2  0
 27 26  1  0
 27 19  1  0
 28 30  2  0
 28 29  1  0
M  END
$$$$
