QCW.pdb
     RDKit          3D

 30 31  0  0  1  0  0  0  0  0999 V2000
   19.4751  -25.1135   -9.0588 N   0  0  0  0  0  0  0  0  0  0  0  0
   18.5527  -24.2514   -8.4326 C   0  0  0  0  0  0  0  0  0  0  0  0
   17.6095  -23.7625   -9.0936 O   0  0  0  0  0  0  0  0  0  0  0  0
   18.7197  -23.9394   -6.9944 C   0  0  0  0  0  0  0  0  0  0  0  0
   17.7470  -24.7895   -6.1898 C   0  0  0  0  0  0  0  0  0  0  0  0
   18.2342  -26.2126   -6.0796 C   0  0  2  0  0  0  0  0  0  0  0  0
   17.8815  -26.9804   -7.2760 N   0  0  0  0  0  0  0  0  0  0  0  0
   17.7162  -26.8835   -4.8595 C   0  0  0  0  0  0  0  0  0  0  0  0
   16.5727  -27.3980   -4.8156 O   0  0  0  0  0  0  0  0  0  0  0  0
   18.5443  -26.9412   -3.7113 N   0  0  0  0  0  0  0  0  0  0  0  0
   18.2585  -27.7265   -2.5296 C   0  0  1  0  0  0  0  0  0  0  0  0
   19.4739  -28.5229   -2.1000 C   0  0  0  0  0  0  0  0  0  0  0  0
   19.9638  -29.7642   -3.2983 S   0  0  0  0  0  0  0  0  0  0  0  0
   17.7880  -26.8106   -1.4697 C   0  0  0  0  0  0  0  0  0  0  0  0
   18.4447  -25.7505   -1.1807 O   0  0  0  0  0  0  0  0  0  0  0  0
   16.6147  -27.0086   -0.7029 N   0  0  0  0  0  0  0  0  0  0  0  0
   16.2398  -26.0682    0.3722 C   0  0  1  0  0  0  0  0  0  0  0  0
   14.7575  -25.8653    0.1894 C   0  0  0  0  0  0  0  0  0  0  0  0
   14.4757  -25.0036   -0.9697 C   0  0  0  0  0  0  0  0  0  0  0  0
   15.3186  -24.0068   -1.4647 C   0  0  0  0  0  0  0  0  0  0  0  0
   14.8133  -23.4296   -2.5490 N   0  0  0  0  0  0  0  0  0  0  0  0
   13.6268  -24.0568   -2.7628 C   0  0  0  0  0  0  0  0  0  0  0  0
   12.7034  -23.8125   -3.7726 C   0  0  0  0  0  0  0  0  0  0  0  0
   11.5560  -24.5587   -3.7942 C   0  0  0  0  0  0  0  0  0  0  0  0
   11.3260  -25.5243   -2.8391 C   0  0  0  0  0  0  0  0  0  0  0  0
   12.2253  -25.7787   -1.8368 C   0  0  0  0  0  0  0  0  0  0  0  0
   13.3980  -25.0241   -1.8081 C   0  0  0  0  0  0  0  0  0  0  0  0
   16.6558  -26.5188    1.6957 C   0  0  0  0  0  0  0  0  0  0  0  0
   17.4500  -27.6489    1.8108 O   0  0  0  0  0  0  0  0  0  0  0  0
   16.3253  -25.9322    2.7574 O   0  0  0  0  0  0  0  0  0  0  0  0
  2  3  2  0
  2  1  1  0
  4  2  1  0
  5  4  1  0
  6  5  1  0
  6  7  1  6
  8 10  1  0
  8  6  1  0
  9  8  2  0
 11 14  1  0
 11 10  1  0
 11 12  1  1
 13 12  1  0
 14 15  2  0
 16 17  1  0
 16 14  1  0
 17 28  1  0
 17 18  1  1
 19 18  1  0
 20 19  2  0
 21 22  1  0
 21 20  1  0
 22 27  2  0
 23 24  2  0
 23 22  1  0
 24 25  1  0
 25 26  2  0
 27 26  1  0
 27 19  1  0
 28 30  2  0
 28 29  1  0
M  END
$$$$
