QCW.pdb
     RDKit          3D

 30 31  0  0  1  0  0  0  0  0999 V2000
   25.3843  -11.4170  -18.6162 N   0  0  0  0  0  0  0  0  0  0  0  0
   25.2288  -12.7763  -18.2783 C   0  0  0  0  0  0  0  0  0  0  0  0
   25.4034  -13.6581  -19.1486 O   0  0  0  0  0  0  0  0  0  0  0  0
   24.8592  -13.1359  -16.8899 C   0  0  0  0  0  0  0  0  0  0  0  0
   24.7300  -11.8611  -16.0687 C   0  0  0  0  0  0  0  0  0  0  0  0
   23.2958  -11.6151  -15.6721 C   0  0  2  0  0  0  0  0  0  0  0  0
   22.3760  -12.1320  -16.6880 N   0  0  0  0  0  0  0  0  0  0  0  0
   23.0304  -10.1763  -15.4140 C   0  0  0  0  0  0  0  0  0  0  0  0
   23.7123   -9.5077  -14.6005 O   0  0  0  0  0  0  0  0  0  0  0  0
   21.9717   -9.5439  -16.1118 N   0  0  0  0  0  0  0  0  0  0  0  0
   21.6194   -8.1463  -15.9807 C   0  0  1  0  0  0  0  0  0  0  0  0
   21.4937   -7.4884  -17.3399 C   0  0  0  0  0  0  0  0  0  0  0  0
   20.7726   -5.8479  -17.2659 S   0  0  0  0  0  0  0  0  0  0  0  0
   20.3681   -8.0572  -15.1996 C   0  0  0  0  0  0  0  0  0  0  0  0
   19.4030   -8.8706  -15.4132 O   0  0  0  0  0  0  0  0  0  0  0  0
   20.1254   -7.1035  -14.1821 N   0  0  0  0  0  0  0  0  0  0  0  0
   18.8488   -7.0898  -13.4400 C   0  0  1  0  0  0  0  0  0  0  0  0
   19.0309   -8.1319  -12.3664 C   0  0  0  0  0  0  0  0  0  0  0  0
   17.8618   -8.1893  -11.4746 C   0  0  0  0  0  0  0  0  0  0  0  0
   17.7123   -7.4750  -10.2844 C   0  0  0  0  0  0  0  0  0  0  0  0
   16.5297   -7.6982   -9.7225 N   0  0  0  0  0  0  0  0  0  0  0  0
   15.9012   -8.5688  -10.5556 C   0  0  0  0  0  0  0  0  0  0  0  0
   14.6354   -9.1245  -10.4105 C   0  0  0  0  0  0  0  0  0  0  0  0
   14.1988   -9.9980  -11.3698 C   0  0  0  0  0  0  0  0  0  0  0  0
   14.9951  -10.3155  -12.4479 C   0  0  0  0  0  0  0  0  0  0  0  0
   16.2451   -9.7770  -12.6072 C   0  0  0  0  0  0  0  0  0  0  0  0
   16.6976   -8.8847  -11.6352 C   0  0  0  0  0  0  0  0  0  0  0  0
   18.4752   -5.7601  -12.9709 C   0  0  0  0  0  0  0  0  0  0  0  0
   17.1439   -5.4826  -12.7029 O   0  0  0  0  0  0  0  0  0  0  0  0
   19.3067   -4.8332  -12.7971 O   0  0  0  0  0  0  0  0  0  0  0  0
  2  3  2  0
  2  1  1  0
  4  2  1  0
  5  4  1  0
  6  5  1  0
  6  7  1  6
  8 10  1  0
  8  6  1  0
  9  8  2  0
 11 14  1  0
 11 10  1  0
 11 12  1  6
 13 12  1  0
 14 15  2  0
 16 17  1  0
 16 14  1  0
 17 28  1  0
 17 18  1  1
 19 18  1  0
 20 19  2  0
 21 22  1  0
 21 20  1  0
 22 27  2  0
 23 24  2  0
 23 22  1  0
 24 25  1  0
 25 26  2  0
 27 26  1  0
 27 19  1  0
 28 30  2  0
 28 29  1  0
M  END
$$$$
