DYF.pdb
     RDKit          3D

 32 33  0  0  1  0  0  0  0  0999 V2000
    7.0503  -16.6031   19.7552 N   0  0  0  0  0  0  0  0  0  0  0  0
    7.7968  -15.6598   20.5495 C   0  0  1  0  0  0  0  0  0  0  0  0
    7.5668  -14.2274   20.2005 C   0  0  0  0  0  0  0  0  0  0  0  0
    8.0911  -13.9244   18.8416 C   0  0  0  0  0  0  0  0  0  0  0  0
    8.6948  -14.8485   18.2348 O   0  0  0  0  0  0  0  0  0  0  0  0
    7.5743  -15.9749   21.9932 C   0  0  0  0  0  0  0  0  0  0  0  0
    6.5768  -15.5364   22.6397 O   0  0  0  0  0  0  0  0  0  0  0  0
    7.9252  -12.7016   18.2832 O   0  0  0  0  0  0  0  0  0  0  0  0
    8.1840  -21.0719   29.3384 O   0  0  0  0  0  0  0  0  0  0  0  0
    8.2702  -20.4743   28.0636 C   0  0  0  0  0  0  0  0  0  0  0  0
    7.1416  -20.1975   27.3296 C   0  0  0  0  0  0  0  0  0  0  0  0
    7.2340  -19.6156   26.0873 C   0  0  0  0  0  0  0  0  0  0  0  0
    8.4304  -19.2776   25.5050 C   0  0  0  0  0  0  0  0  0  0  0  0
    8.6062  -18.6769   24.1761 C   0  0  0  0  0  0  0  0  0  0  0  0
    8.2373  -17.2033   24.1057 C   0  0  2  0  0  0  0  0  0  0  0  0
    8.4839  -16.7941   22.7214 N   0  0  0  0  0  0  0  0  0  0  0  0
    8.9885  -16.4004   25.0826 C   0  0  0  0  0  0  0  0  0  0  0  0
   10.1465  -16.0028   24.7109 O   0  0  0  0  0  0  0  0  0  0  0  0
    9.5723  -19.5656   26.2673 C   0  0  0  0  0  0  0  0  0  0  0  0
    9.4951  -20.1512   27.5186 C   0  0  0  0  0  0  0  0  0  0  0  0
    8.5305  -16.0457   26.3742 N   0  0  0  0  0  0  0  0  0  0  0  0
    9.3418  -15.3424   27.3627 C   0  0  1  0  0  0  0  0  0  0  0  0
    8.5164  -14.3870   28.1676 C   0  0  0  0  0  0  0  0  0  0  0  0
    7.9193  -13.3602   27.3168 C   0  0  0  0  0  0  0  0  0  0  0  0
    6.6017  -13.4624   26.8773 C   0  0  0  0  0  0  0  0  0  0  0  0
    6.0175  -12.4848   26.0895 C   0  0  0  0  0  0  0  0  0  0  0  0
    6.7421  -11.3683   25.7160 C   0  0  0  0  0  0  0  0  0  0  0  0
    8.0264  -11.2636   26.1414 C   0  0  0  0  0  0  0  0  0  0  0  0
    8.6313  -12.2457   26.9406 C   0  0  0  0  0  0  0  0  0  0  0  0
    9.9496  -16.3388   28.2498 C   0  0  0  0  0  0  0  0  0  0  0  0
   10.8828  -15.9443   29.1872 O   0  0  0  0  0  0  0  0  0  0  0  0
    9.6461  -17.5464   28.1846 O   0  0  0  0  0  0  0  0  0  0  0  0
  2  1  1  6
  2  3  1  0
  3  4  1  0
  4  8  1  0
  5  4  2  0
  6  2  1  0
  6  7  2  0
  9 10  1  0
 10 20  2  0
 11 12  2  0
 11 10  1  0
 12 13  1  0
 13 14  1  0
 13 19  2  0
 15 16  1  0
 15 14  1  6
 16  6  1  0
 17 15  1  0
 18 17  2  0
 20 19  1  0
 21 17  1  0
 22 21  1  0
 23 24  1  0
 22 23  1  1
 24 25  2  0
 25 26  1  0
 27 26  2  0
 28 27  1  0
 29 28  2  0
 29 24  1  0
 30 22  1  0
 30 31  1  0
 32 30  2  0
M  END
$$$$
