DYF.pdb
     RDKit          3D

 32 33  0  0  1  0  0  0  0  0999 V2000
    8.0629  -18.5831   20.8297 N   0  0  0  0  0  0  0  0  0  0  0  0
    9.4474  -18.3069   20.5378 C   0  0  1  0  0  0  0  0  0  0  0  0
    9.7746  -18.2156   19.0850 C   0  0  0  0  0  0  0  0  0  0  0  0
    9.7507  -19.5620   18.4527 C   0  0  0  0  0  0  0  0  0  0  0  0
   10.1346  -19.6463   17.2560 O   0  0  0  0  0  0  0  0  0  0  0  0
    9.8699  -17.1126   21.3304 C   0  0  0  0  0  0  0  0  0  0  0  0
   11.0700  -16.7079   21.3639 O   0  0  0  0  0  0  0  0  0  0  0  0
    9.3306  -20.6513   19.1393 O   0  0  0  0  0  0  0  0  0  0  0  0
    7.1933  -13.6813   16.8152 O   0  0  0  0  0  0  0  0  0  0  0  0
    7.4450  -13.7732   18.2001 C   0  0  0  0  0  0  0  0  0  0  0  0
    8.3724  -12.9629   18.8103 C   0  0  0  0  0  0  0  0  0  0  0  0
    8.6127  -13.0592   20.1606 C   0  0  0  0  0  0  0  0  0  0  0  0
    7.9598  -13.9496   20.9765 C   0  0  0  0  0  0  0  0  0  0  0  0
    8.1809  -14.1240   22.4182 C   0  0  0  0  0  0  0  0  0  0  0  0
    9.2878  -15.1079   22.7633 C   0  0  2  0  0  0  0  0  0  0  0  0
    8.9322  -16.3618   22.0956 N   0  0  0  0  0  0  0  0  0  0  0  0
    9.4554  -15.2605   24.2165 C   0  0  0  0  0  0  0  0  0  0  0  0
   10.2495  -14.4308   24.7806 O   0  0  0  0  0  0  0  0  0  0  0  0
    7.0159  -14.7684   20.3388 C   0  0  0  0  0  0  0  0  0  0  0  0
    6.7636  -14.6832   18.9809 C   0  0  0  0  0  0  0  0  0  0  0  0
    8.8148  -16.2381   25.0152 N   0  0  0  0  0  0  0  0  0  0  0  0
    9.0078  -16.3688   26.4559 C   0  0  1  0  0  0  0  0  0  0  0  0
    7.7924  -15.9302   27.2124 C   0  0  0  0  0  0  0  0  0  0  0  0
    7.5414  -14.5031   27.0247 C   0  0  0  0  0  0  0  0  0  0  0  0
    6.3754  -14.0488   26.4131 C   0  0  0  0  0  0  0  0  0  0  0  0
    6.1157  -12.6984   26.2500 C   0  0  0  0  0  0  0  0  0  0  0  0
    7.0236  -11.7570   26.6977 C   0  0  0  0  0  0  0  0  0  0  0  0
    8.1614  -12.1940   27.2941 C   0  0  0  0  0  0  0  0  0  0  0  0
    8.4377  -13.5590   27.4671 C   0  0  0  0  0  0  0  0  0  0  0  0
    9.2946  -17.7751   26.7544 C   0  0  0  0  0  0  0  0  0  0  0  0
    9.5867  -18.1559   28.0486 O   0  0  0  0  0  0  0  0  0  0  0  0
    9.2820  -18.6496   25.8657 O   0  0  0  0  0  0  0  0  0  0  0  0
  2  1  1  6
  2  3  1  0
  3  4  1  0
  4  8  1  0
  5  4  2  0
  6  2  1  0
  6  7  2  0
  9 10  1  0
 10 20  2  0
 11 12  2  0
 11 10  1  0
 12 13  1  0
 13 14  1  0
 13 19  2  0
 15 16  1  0
 15 14  1  1
 16  6  1  0
 17 15  1  0
 18 17  2  0
 20 19  1  0
 21 17  1  0
 22 21  1  0
 23 24  1  0
 22 23  1  1
 24 25  2  0
 25 26  1  0
 27 26  2  0
 28 27  1  0
 29 28  2  0
 29 24  1  0
 30 22  1  0
 30 31  1  0
 32 30  2  0
M  END
$$$$
