DYF.pdb
     RDKit          3D

 32 33  0  0  1  0  0  0  0  0999 V2000
   11.9825  -16.5532   14.9022 N   0  0  0  0  0  0  0  0  0  0  0  0
   11.1739  -15.8905   15.8947 C   0  0  1  0  0  0  0  0  0  0  0  0
    9.7339  -16.2814   15.8917 C   0  0  0  0  0  0  0  0  0  0  0  0
    9.1128  -15.9988   14.5696 C   0  0  0  0  0  0  0  0  0  0  0  0
    9.8703  -15.5905   13.6498 O   0  0  0  0  0  0  0  0  0  0  0  0
   11.8392  -16.0389   17.2244 C   0  0  0  0  0  0  0  0  0  0  0  0
   12.3779  -17.1229   17.5988 O   0  0  0  0  0  0  0  0  0  0  0  0
    7.7850  -16.1732   14.3676 O   0  0  0  0  0  0  0  0  0  0  0  0
   18.2707  -14.8433   16.2923 O   0  0  0  0  0  0  0  0  0  0  0  0
   17.1084  -14.6270   17.0617 C   0  0  0  0  0  0  0  0  0  0  0  0
   15.8964  -14.3748   16.4646 C   0  0  0  0  0  0  0  0  0  0  0  0
   14.7680  -14.1641   17.2214 C   0  0  0  0  0  0  0  0  0  0  0  0
   14.7706  -14.1898   18.5941 C   0  0  0  0  0  0  0  0  0  0  0  0
   13.6125  -13.9512   19.4656 C   0  0  0  0  0  0  0  0  0  0  0  0
   12.5763  -15.0639   19.4419 C   0  0  2  0  0  0  0  0  0  0  0  0
   11.9012  -14.9554   18.1468 N   0  0  0  0  0  0  0  0  0  0  0  0
   11.6488  -14.9768   20.5801 C   0  0  0  0  0  0  0  0  0  0  0  0
   11.4484  -13.8049   21.0530 O   0  0  0  0  0  0  0  0  0  0  0  0
   16.0148  -14.4495   19.1879 C   0  0  0  0  0  0  0  0  0  0  0  0
   17.1589  -14.6631   18.4394 C   0  0  0  0  0  0  0  0  0  0  0  0
   10.9787  -16.0730   21.1745 N   0  0  0  0  0  0  0  0  0  0  0  0
   10.1900  -15.9804   22.3989 C   0  0  1  0  0  0  0  0  0  0  0  0
    8.7238  -15.9187   22.1013 C   0  0  0  0  0  0  0  0  0  0  0  0
    8.3724  -14.6635   21.4413 C   0  0  0  0  0  0  0  0  0  0  0  0
    8.1217  -14.6125   20.0722 C   0  0  0  0  0  0  0  0  0  0  0  0
    7.7656  -13.4335   19.4392 C   0  0  0  0  0  0  0  0  0  0  0  0
    7.6500  -12.2624   20.1647 C   0  0  0  0  0  0  0  0  0  0  0  0
    7.8933  -12.3063   21.4990 C   0  0  0  0  0  0  0  0  0  0  0  0
    8.2541  -13.4937   22.1542 C   0  0  0  0  0  0  0  0  0  0  0  0
   10.4780  -17.1599   23.2203 C   0  0  0  0  0  0  0  0  0  0  0  0
   11.2456  -18.1844   22.7042 O   0  0  0  0  0  0  0  0  0  0  0  0
   10.0473  -17.2685   24.3853 O   0  0  0  0  0  0  0  0  0  0  0  0
  2  1  1  6
  2  3  1  0
  3  4  1  0
  4  8  1  0
  5  4  2  0
  6  2  1  0
  6  7  2  0
  9 10  1  0
 10 20  2  0
 11 12  2  0
 11 10  1  0
 12 13  1  0
 13 14  1  0
 13 19  2  0
 15 16  1  0
 15 14  1  1
 16  6  1  0
 17 15  1  0
 18 17  2  0
 20 19  1  0
 21 17  1  0
 22 21  1  0
 23 24  1  0
 22 23  1  6
 24 25  2  0
 25 26  1  0
 27 26  2  0
 28 27  1  0
 29 28  2  0
 29 24  1  0
 30 22  1  0
 30 31  1  0
 32 30  2  0
M  END
$$$$
