DYF.pdb
     RDKit          3D

 32 33  0  0  1  0  0  0  0  0999 V2000
   11.9771  -16.6127   19.8818 N   0  0  0  0  0  0  0  0  0  0  0  0
   12.4535  -15.4991   20.6636 C   0  0  1  0  0  0  0  0  0  0  0  0
   12.9907  -14.3585   19.8656 C   0  0  0  0  0  0  0  0  0  0  0  0
   14.2245  -14.7587   19.1368 C   0  0  0  0  0  0  0  0  0  0  0  0
   14.7747  -15.8385   19.4799 O   0  0  0  0  0  0  0  0  0  0  0  0
   11.3861  -15.1100   21.6342 C   0  0  0  0  0  0  0  0  0  0  0  0
   11.5285  -14.1567   22.4564 O   0  0  0  0  0  0  0  0  0  0  0  0
   14.7335  -13.9889   18.1455 O   0  0  0  0  0  0  0  0  0  0  0  0
    7.6345  -12.8264   16.8282 O   0  0  0  0  0  0  0  0  0  0  0  0
    7.6607  -13.4951   18.0699 C   0  0  0  0  0  0  0  0  0  0  0  0
    7.5990  -12.8000   19.2540 C   0  0  0  0  0  0  0  0  0  0  0  0
    7.6260  -13.4590   20.4604 C   0  0  0  0  0  0  0  0  0  0  0  0
    7.7144  -14.8250   20.5665 C   0  0  0  0  0  0  0  0  0  0  0  0
    7.7716  -15.5933   21.8172 C   0  0  0  0  0  0  0  0  0  0  0  0
    9.0646  -15.4160   22.5976 C   0  0  2  0  0  0  0  0  0  0  0  0
   10.1412  -15.8004   21.6823 N   0  0  0  0  0  0  0  0  0  0  0  0
    9.0668  -16.1967   23.8441 C   0  0  0  0  0  0  0  0  0  0  0  0
    9.9505  -17.1182   23.9281 O   0  0  0  0  0  0  0  0  0  0  0  0
    7.7754  -15.5196   19.3492 C   0  0  0  0  0  0  0  0  0  0  0  0
    7.7496  -14.8701   18.1276 C   0  0  0  0  0  0  0  0  0  0  0  0
    8.1805  -16.0042   24.9310 N   0  0  0  0  0  0  0  0  0  0  0  0
    8.2774  -16.7199   26.1992 C   0  0  1  0  0  0  0  0  0  0  0  0
    7.4441  -16.0690   27.2593 C   0  0  0  0  0  0  0  0  0  0  0  0
    7.5160  -14.6127   27.1661 C   0  0  0  0  0  0  0  0  0  0  0  0
    8.6009  -13.9083   27.6827 C   0  0  0  0  0  0  0  0  0  0  0  0
    8.6914  -12.5302   27.5803 C   0  0  0  0  0  0  0  0  0  0  0  0
    7.6900  -11.8125   26.9533 C   0  0  0  0  0  0  0  0  0  0  0  0
    6.6307  -12.4938   26.4482 C   0  0  0  0  0  0  0  0  0  0  0  0
    6.5257  -13.8899   26.5437 C   0  0  0  0  0  0  0  0  0  0  0  0
    7.8186  -18.0957   25.9856 C   0  0  0  0  0  0  0  0  0  0  0  0
    7.9822  -19.0360   26.9827 O   0  0  0  0  0  0  0  0  0  0  0  0
    7.2776  -18.4481   24.9190 O   0  0  0  0  0  0  0  0  0  0  0  0
  2  1  1  6
  2  3  1  0
  3  4  1  0
  4  8  1  0
  5  4  2  0
  6  2  1  0
  6  7  2  0
  9 10  1  0
 10 20  2  0
 11 12  2  0
 11 10  1  0
 12 13  1  0
 13 14  1  0
 13 19  2  0
 15 16  1  0
 15 14  1  6
 16  6  1  0
 17 15  1  0
 18 17  2  0
 20 19  1  0
 21 17  1  0
 22 21  1  0
 23 24  1  0
 22 23  1  1
 24 25  2  0
 25 26  1  0
 27 26  2  0
 28 27  1  0
 29 28  2  0
 29 24  1  0
 30 22  1  0
 30 31  1  0
 32 30  2  0
M  END
$$$$
