DYF.pdb
     RDKit          3D

 32 33  0  0  1  0  0  0  0  0999 V2000
    7.3622  -16.8814   20.1217 N   0  0  0  0  0  0  0  0  0  0  0  0
    8.3208  -17.9569   20.0719 C   0  0  1  0  0  0  0  0  0  0  0  0
    8.4155  -18.6504   18.7542 C   0  0  0  0  0  0  0  0  0  0  0  0
    7.0982  -18.6525   18.0628 C   0  0  0  0  0  0  0  0  0  0  0  0
    6.3322  -17.6752   18.2740 O   0  0  0  0  0  0  0  0  0  0  0  0
    9.6294  -17.4497   20.5851 C   0  0  0  0  0  0  0  0  0  0  0  0
   10.6607  -18.1818   20.6606 O   0  0  0  0  0  0  0  0  0  0  0  0
    6.7398  -19.6676   17.2409 O   0  0  0  0  0  0  0  0  0  0  0  0
    9.2659  -13.9662   15.5941 O   0  0  0  0  0  0  0  0  0  0  0  0
    9.7846  -14.0392   16.9038 C   0  0  0  0  0  0  0  0  0  0  0  0
   11.0623  -14.4878   17.1393 C   0  0  0  0  0  0  0  0  0  0  0  0
   11.5603  -14.5570   18.4190 C   0  0  0  0  0  0  0  0  0  0  0  0
   10.8353  -14.1922   19.5263 C   0  0  0  0  0  0  0  0  0  0  0  0
   11.2924  -14.2614   20.9205 C   0  0  0  0  0  0  0  0  0  0  0  0
   11.0320  -15.5993   21.5949 C   0  0  2  0  0  0  0  0  0  0  0  0
    9.7827  -16.1019   21.0192 N   0  0  0  0  0  0  0  0  0  0  0  0
   10.9787  -15.4763   23.0596 C   0  0  0  0  0  0  0  0  0  0  0  0
   11.8298  -14.6802   23.5877 O   0  0  0  0  0  0  0  0  0  0  0  0
    9.5340  -13.7358   19.2689 C   0  0  0  0  0  0  0  0  0  0  0  0
    9.0189  -13.6609   17.9867 C   0  0  0  0  0  0  0  0  0  0  0  0
   10.0732  -16.1611   23.9052 N   0  0  0  0  0  0  0  0  0  0  0  0
    9.3647  -15.5367   25.0178 C   0  0  1  0  0  0  0  0  0  0  0  0
    8.4937  -14.4124   24.5493 C   0  0  0  0  0  0  0  0  0  0  0  0
    7.9012  -13.6991   25.6783 C   0  0  0  0  0  0  0  0  0  0  0  0
    8.6348  -12.7688   26.4106 C   0  0  0  0  0  0  0  0  0  0  0  0
    8.0777  -12.0698   27.4683 C   0  0  0  0  0  0  0  0  0  0  0  0
    6.7597  -12.2845   27.8259 C   0  0  0  0  0  0  0  0  0  0  0  0
    6.0403  -13.1898   27.1159 C   0  0  0  0  0  0  0  0  0  0  0  0
    6.5911  -13.9049   26.0413 C   0  0  0  0  0  0  0  0  0  0  0  0
    8.5421  -16.5600   25.6698 C   0  0  0  0  0  0  0  0  0  0  0  0
    8.3906  -16.5467   27.0417 O   0  0  0  0  0  0  0  0  0  0  0  0
    7.9669  -17.4528   25.0167 O   0  0  0  0  0  0  0  0  0  0  0  0
  2  1  1  6
  2  3  1  0
  3  4  1  0
  4  8  1  0
  5  4  2  0
  6  2  1  0
  6  7  2  0
  9 10  1  0
 10 20  2  0
 11 12  2  0
 11 10  1  0
 12 13  1  0
 13 14  1  0
 13 19  2  0
 15 16  1  0
 15 14  1  6
 16  6  1  0
 17 15  1  0
 18 17  2  0
 20 19  1  0
 21 17  1  0
 22 21  1  0
 23 24  1  0
 22 23  1  6
 24 25  2  0
 25 26  1  0
 27 26  2  0
 28 27  1  0
 29 28  2  0
 29 24  1  0
 30 22  1  0
 30 31  1  0
 32 30  2  0
M  END
$$$$
