DYF.pdb
     RDKit          3D

 32 33  0  0  1  0  0  0  0  0999 V2000
    7.4993  -17.8829   19.1702 N   0  0  0  0  0  0  0  0  0  0  0  0
    7.8442  -16.6002   19.7305 C   0  0  1  0  0  0  0  0  0  0  0  0
    7.5033  -15.4295   18.8705 C   0  0  0  0  0  0  0  0  0  0  0  0
    8.2785  -15.4632   17.6011 C   0  0  0  0  0  0  0  0  0  0  0  0
    8.1011  -14.5166   16.7894 O   0  0  0  0  0  0  0  0  0  0  0  0
    7.2828  -16.5204   21.1130 C   0  0  0  0  0  0  0  0  0  0  0  0
    6.5529  -15.5585   21.4967 O   0  0  0  0  0  0  0  0  0  0  0  0
    9.1386  -16.4743   17.3320 O   0  0  0  0  0  0  0  0  0  0  0  0
    1.4953  -19.4155   20.4448 O   0  0  0  0  0  0  0  0  0  0  0  0
    2.6796  -19.2865   21.2002 C   0  0  0  0  0  0  0  0  0  0  0  0
    3.8365  -19.9266   20.8247 C   0  0  0  0  0  0  0  0  0  0  0  0
    4.9866  -19.7967   21.5669 C   0  0  0  0  0  0  0  0  0  0  0  0
    5.0604  -19.0370   22.7081 C   0  0  0  0  0  0  0  0  0  0  0  0
    6.2444  -18.8714   23.5615 C   0  0  0  0  0  0  0  0  0  0  0  0
    6.9367  -17.5259   23.4109 C   0  0  2  0  0  0  0  0  0  0  0  0
    7.5440  -17.5346   22.0783 N   0  0  0  0  0  0  0  0  0  0  0  0
    7.9137  -17.2862   24.4838 C   0  0  0  0  0  0  0  0  0  0  0  0
    9.0688  -17.8116   24.3193 O   0  0  0  0  0  0  0  0  0  0  0  0
    3.8718  -18.3896   23.0769 C   0  0  0  0  0  0  0  0  0  0  0  0
    2.7067  -18.5112   22.3404 C   0  0  0  0  0  0  0  0  0  0  0  0
    7.6709  -16.5330   25.6576 N   0  0  0  0  0  0  0  0  0  0  0  0
    8.6866  -16.2406   26.6639 C   0  0  1  0  0  0  0  0  0  0  0  0
    8.1857  -15.2582   27.6768 C   0  0  0  0  0  0  0  0  0  0  0  0
    7.6742  -14.0510   27.0320 C   0  0  0  0  0  0  0  0  0  0  0  0
    6.3994  -13.5660   27.3140 C   0  0  0  0  0  0  0  0  0  0  0  0
    5.9120  -12.4105   26.7266 C   0  0  0  0  0  0  0  0  0  0  0  0
    6.6934  -11.7024   25.8327 C   0  0  0  0  0  0  0  0  0  0  0  0
    7.9362  -12.1705   25.5542 C   0  0  0  0  0  0  0  0  0  0  0  0
    8.4438  -13.3392   26.1423 C   0  0  0  0  0  0  0  0  0  0  0  0
    9.0473  -17.4959   27.3296 C   0  0  0  0  0  0  0  0  0  0  0  0
   10.1014  -17.5217   28.2204 O   0  0  0  0  0  0  0  0  0  0  0  0
    8.4241  -18.5542   27.1151 O   0  0  0  0  0  0  0  0  0  0  0  0
  2  1  1  6
  2  3  1  0
  3  4  1  0
  4  8  1  0
  5  4  2  0
  6  2  1  0
  6  7  2  0
  9 10  1  0
 10 20  2  0
 11 12  2  0
 11 10  1  0
 12 13  1  0
 13 14  1  0
 13 19  2  0
 15 16  1  0
 15 14  1  1
 16  6  1  0
 17 15  1  0
 18 17  2  0
 20 19  1  0
 21 17  1  0
 22 21  1  0
 23 24  1  0
 22 23  1  1
 24 25  2  0
 25 26  1  0
 27 26  2  0
 28 27  1  0
 29 28  2  0
 29 24  1  0
 30 22  1  0
 30 31  1  0
 32 30  2  0
M  END
$$$$
