DYF.pdb
     RDKit          3D

 32 33  0  0  1  0  0  0  0  0999 V2000
    8.0401  -17.2486   19.7101 N   0  0  0  0  0  0  0  0  0  0  0  0
    8.5294  -15.9019   19.8677 C   0  0  1  0  0  0  0  0  0  0  0  0
    8.0518  -14.9374   18.8343 C   0  0  0  0  0  0  0  0  0  0  0  0
    8.6175  -15.2708   17.4993 C   0  0  0  0  0  0  0  0  0  0  0  0
    9.7911  -14.8843   17.2551 O   0  0  0  0  0  0  0  0  0  0  0  0
    8.2679  -15.4638   21.2723 C   0  0  0  0  0  0  0  0  0  0  0  0
    8.9672  -14.5798   21.8509 O   0  0  0  0  0  0  0  0  0  0  0  0
    7.8953  -15.9614   16.5850 O   0  0  0  0  0  0  0  0  0  0  0  0
    3.3879  -21.0177   20.0635 O   0  0  0  0  0  0  0  0  0  0  0  0
    4.4968  -20.3440   20.6170 C   0  0  0  0  0  0  0  0  0  0  0  0
    5.7007  -20.2924   19.9559 C   0  0  0  0  0  0  0  0  0  0  0  0
    6.7772  -19.6345   20.5025 C   0  0  0  0  0  0  0  0  0  0  0  0
    6.7284  -18.9977   21.7178 C   0  0  0  0  0  0  0  0  0  0  0  0
    7.8413  -18.2974   22.3724 C   0  0  0  0  0  0  0  0  0  0  0  0
    7.4363  -17.0189   23.0892 C   0  0  2  0  0  0  0  0  0  0  0  0
    7.2064  -16.0255   22.0380 N   0  0  0  0  0  0  0  0  0  0  0  0
    8.4476  -16.5926   24.0684 C   0  0  0  0  0  0  0  0  0  0  0  0
    9.6671  -16.6832   23.6919 O   0  0  0  0  0  0  0  0  0  0  0  0
    5.4926  -19.0588   22.3790 C   0  0  0  0  0  0  0  0  0  0  0  0
    4.4006  -19.7174   21.8417 C   0  0  0  0  0  0  0  0  0  0  0  0
    8.1723  -16.1012   25.3671 N   0  0  0  0  0  0  0  0  0  0  0  0
    9.2005  -15.7525   26.3423 C   0  0  1  0  0  0  0  0  0  0  0  0
    8.6607  -14.8470   27.4057 C   0  0  0  0  0  0  0  0  0  0  0  0
    7.9904  -13.6881   26.8207 C   0  0  0  0  0  0  0  0  0  0  0  0
    8.7048  -12.7140   26.1274 C   0  0  0  0  0  0  0  0  0  0  0  0
    8.0780  -11.6230   25.5490 C   0  0  0  0  0  0  0  0  0  0  0  0
    6.7072  -11.4749   25.6496 C   0  0  0  0  0  0  0  0  0  0  0  0
    6.0063  -12.4210   26.3241 C   0  0  0  0  0  0  0  0  0  0  0  0
    6.6276  -13.5322   26.9145 C   0  0  0  0  0  0  0  0  0  0  0  0
    9.6933  -16.9913   26.9518 C   0  0  0  0  0  0  0  0  0  0  0  0
   10.7837  -16.9533   27.7972 O   0  0  0  0  0  0  0  0  0  0  0  0
    9.1518  -18.0921   26.7291 O   0  0  0  0  0  0  0  0  0  0  0  0
  2  1  1  6
  2  3  1  0
  3  4  1  0
  4  8  1  0
  5  4  2  0
  6  2  1  0
  6  7  2  0
  9 10  1  0
 10 20  2  0
 11 12  2  0
 11 10  1  0
 12 13  1  0
 13 14  1  0
 13 19  2  0
 15 16  1  0
 15 14  1  6
 16  6  1  0
 17 15  1  0
 18 17  2  0
 20 19  1  0
 21 17  1  0
 22 21  1  0
 23 24  1  0
 22 23  1  1
 24 25  2  0
 25 26  1  0
 27 26  2  0
 28 27  1  0
 29 28  2  0
 29 24  1  0
 30 22  1  0
 30 31  1  0
 32 30  2  0
M  END
$$$$
