DYF.pdb
     RDKit          3D

 32 33  0  0  1  0  0  0  0  0999 V2000
    9.1584  -18.6007   18.9267 N   0  0  0  0  0  0  0  0  0  0  0  0
   10.5436  -18.2045   18.9731 C   0  0  1  0  0  0  0  0  0  0  0  0
   11.1912  -18.0354   17.6396 C   0  0  0  0  0  0  0  0  0  0  0  0
   11.2113  -19.3233   16.8952 C   0  0  0  0  0  0  0  0  0  0  0  0
   10.6176  -20.3034   17.4183 O   0  0  0  0  0  0  0  0  0  0  0  0
   10.6654  -17.0093   19.8618 C   0  0  0  0  0  0  0  0  0  0  0  0
   11.6901  -16.2641   19.8637 O   0  0  0  0  0  0  0  0  0  0  0  0
   11.8451  -19.4340   15.7034 O   0  0  0  0  0  0  0  0  0  0  0  0
    6.7217  -12.5974   16.8657 O   0  0  0  0  0  0  0  0  0  0  0  0
    7.1408  -13.1457   18.0960 C   0  0  0  0  0  0  0  0  0  0  0  0
    7.8662  -12.4024   18.9962 C   0  0  0  0  0  0  0  0  0  0  0  0
    8.2719  -12.9443   20.1929 C   0  0  0  0  0  0  0  0  0  0  0  0
    7.9887  -14.2350   20.5656 C   0  0  0  0  0  0  0  0  0  0  0  0
    8.4080  -14.8865   21.8136 C   0  0  0  0  0  0  0  0  0  0  0  0
    9.7680  -15.5625   21.7360 C   0  0  2  0  0  0  0  0  0  0  0  0
    9.6223  -16.6452   20.7607 N   0  0  0  0  0  0  0  0  0  0  0  0
   10.2238  -16.0350   23.0521 C   0  0  0  0  0  0  0  0  0  0  0  0
    9.4688  -16.8877   23.6351 O   0  0  0  0  0  0  0  0  0  0  0  0
    7.2470  -14.9797   19.6365 C   0  0  0  0  0  0  0  0  0  0  0  0
    6.8321  -14.4481   18.4282 C   0  0  0  0  0  0  0  0  0  0  0  0
   11.4111  -15.6218   23.7030 N   0  0  0  0  0  0  0  0  0  0  0  0
   11.9158  -16.2187   24.9353 C   0  0  1  0  0  0  0  0  0  0  0  0
   12.1771  -17.6833   24.7663 C   0  0  0  0  0  0  0  0  0  0  0  0
   12.7140  -18.2679   25.9930 C   0  0  0  0  0  0  0  0  0  0  0  0
   14.0615  -18.6017   26.1048 C   0  0  0  0  0  0  0  0  0  0  0  0
   14.5868  -19.1350   27.2698 C   0  0  0  0  0  0  0  0  0  0  0  0
   13.7710  -19.3516   28.3646 C   0  0  0  0  0  0  0  0  0  0  0  0
   12.4572  -19.0283   28.2612 C   0  0  0  0  0  0  0  0  0  0  0  0
   11.9111  -18.4863   27.0876 C   0  0  0  0  0  0  0  0  0  0  0  0
   13.1596  -15.5341   25.3006 C   0  0  0  0  0  0  0  0  0  0  0  0
   13.5092  -15.4096   26.6300 O   0  0  0  0  0  0  0  0  0  0  0  0
   13.9220  -15.0553   24.4380 O   0  0  0  0  0  0  0  0  0  0  0  0
  2  1  1  6
  2  3  1  0
  3  4  1  0
  4  8  1  0
  5  4  2  0
  6  2  1  0
  6  7  2  0
  9 10  1  0
 10 20  2  0
 11 12  2  0
 11 10  1  0
 12 13  1  0
 13 14  1  0
 13 19  2  0
 15 16  1  0
 15 14  1  1
 16  6  1  0
 17 15  1  0
 18 17  2  0
 20 19  1  0
 21 17  1  0
 22 21  1  0
 23 24  1  0
 22 23  1  6
 24 25  2  0
 25 26  1  0
 27 26  2  0
 28 27  1  0
 29 28  2  0
 29 24  1  0
 30 22  1  0
 30 31  1  0
 32 30  2  0
M  END
$$$$
