WKV.pdb
     RDKit          3D

 31 32  0  0  1  0  0  0  0  0999 V2000
   26.0842  -18.4091   -8.8180 N   0  0  0  0  0  0  0  0  0  0  0  0
   26.7245  -19.6416   -9.1446 C   0  0  1  0  0  0  0  0  0  0  0  0
   26.7582  -20.6226   -7.9934 C   0  0  0  0  0  0  0  0  0  0  0  0
   27.3805  -19.9374   -6.8394 C   0  0  0  0  0  0  0  0  0  0  0  0
   26.8585  -18.8315   -6.1937 C   0  0  0  0  0  0  0  0  0  0  0  0
   27.6797  -18.4623   -5.1891 N   0  0  0  0  0  0  0  0  0  0  0  0
   28.7247  -19.3283   -5.1898 C   0  0  0  0  0  0  0  0  0  0  0  0
   29.8553  -19.4443   -4.3974 C   0  0  0  0  0  0  0  0  0  0  0  0
   30.8053  -20.4513   -4.6026 C   0  0  0  0  0  0  0  0  0  0  0  0
   30.5908  -21.3440   -5.6302 C   0  0  0  0  0  0  0  0  0  0  0  0
   29.4727  -21.2666   -6.4499 C   0  0  0  0  0  0  0  0  0  0  0  0
   28.5594  -20.2469   -6.2013 C   0  0  0  0  0  0  0  0  0  0  0  0
   26.0794  -20.2552  -10.3640 C   0  0  0  0  0  0  0  0  0  0  0  0
   24.8556  -20.2000  -10.3942 O   0  0  0  0  0  0  0  0  0  0  0  0
   26.8067  -20.8464  -11.3918 N   0  0  0  0  0  0  0  0  0  0  0  0
   26.5885  -21.0272  -12.7614 C   0  0  1  0  0  0  0  0  0  0  0  0
   27.6422  -21.3947  -13.7193 C   0  0  0  0  0  0  0  0  0  0  0  0
   27.3294  -21.4775  -15.1632 C   0  0  0  0  0  0  0  0  0  0  0  0
   28.6003  -21.1396  -15.9691 C   0  0  0  0  0  0  0  0  0  0  0  0
   28.2373  -21.0236  -17.4472 C   0  0  0  0  0  0  0  0  0  0  0  0
   29.4149  -20.9261  -18.2791 N   0  0  0  0  0  0  0  0  0  0  0  0
   25.3115  -21.7578  -13.0788 C   0  0  0  0  0  0  0  0  0  0  0  0
   25.2292  -23.0146  -12.8848 O   0  0  0  0  0  0  0  0  0  0  0  0
   21.7345  -19.7063  -14.3039 C   0  0  0  0  0  0  0  0  0  0  0  0
   21.7485  -20.9617  -13.4466 C   0  0  2  0  0  0  0  0  0  0  0  0
   21.7683  -20.6222  -11.9869 C   0  0  0  0  0  0  0  0  0  0  0  0
   22.9114  -21.8445  -13.8565 C   0  0  2  0  0  0  0  0  0  0  0  0
   24.1490  -21.1357  -13.5931 N   0  0  0  0  0  0  0  0  0  0  0  0
   22.8043  -22.3319  -15.2427 C   0  0  0  0  0  0  0  0  0  0  0  0
   23.4561  -21.7882  -16.1713 O   0  0  0  0  0  0  0  0  0  0  0  0
   21.9981  -23.4004  -15.6264 O   0  0  0  0  0  0  0  0  0  0  0  0
  2  1  1  1
  3  2  1  0
  4  3  1  0
  4  5  2  0
  6  5  1  0
  7  6  1  0
  8  7  2  0
  9  8  1  0
 10  9  2  0
 10 11  1  0
 11 12  2  0
 12  7  1  0
 12  4  1  0
 13  2  1  0
 14 13  2  0
 15 13  1  0
 16 22  1  0
 16 15  1  0
 16 17  1  1
 18 17  1  0
 19 18  1  0
 20 19  1  0
 21 20  1  0
 22 28  1  0
 23 22  2  0
 25 24  1  6
 25 27  1  0
 25 26  1  0
 27 29  1  0
 27 28  1  6
 29 30  2  0
 29 31  1  0
M  END
$$$$
