WKV.pdb
     RDKit          3D

 31 32  0  0  1  0  0  0  0  0999 V2000
   24.6427  -20.8780  -20.0883 N   0  0  0  0  0  0  0  0  0  0  0  0
   23.5140  -20.5914  -19.2638 C   0  0  1  0  0  0  0  0  0  0  0  0
   22.4745  -21.6906  -19.2681 C   0  0  0  0  0  0  0  0  0  0  0  0
   21.7683  -21.6337  -20.5668 C   0  0  0  0  0  0  0  0  0  0  0  0
   21.9954  -22.4827  -21.6345 C   0  0  0  0  0  0  0  0  0  0  0  0
   21.1835  -22.1510  -22.6595 N   0  0  0  0  0  0  0  0  0  0  0  0
   20.4378  -21.0931  -22.2510 C   0  0  0  0  0  0  0  0  0  0  0  0
   19.4487  -20.3419  -22.8649 C   0  0  0  0  0  0  0  0  0  0  0  0
   18.8134  -19.2779  -22.2146 C   0  0  0  0  0  0  0  0  0  0  0  0
   19.1991  -18.9847  -20.9246 C   0  0  0  0  0  0  0  0  0  0  0  0
   20.1855  -19.7097  -20.2694 C   0  0  0  0  0  0  0  0  0  0  0  0
   20.7836  -20.7578  -20.9617 C   0  0  0  0  0  0  0  0  0  0  0  0
   23.9646  -20.2739  -17.8582 C   0  0  0  0  0  0  0  0  0  0  0  0
   24.9929  -20.8342  -17.4974 O   0  0  0  0  0  0  0  0  0  0  0  0
   23.2739  -19.4082  -17.0164 N   0  0  0  0  0  0  0  0  0  0  0  0
   23.5148  -18.8915  -15.7392 C   0  0  1  0  0  0  0  0  0  0  0  0
   23.0270  -17.5834  -15.2773 C   0  0  0  0  0  0  0  0  0  0  0  0
   21.9113  -16.9200  -15.9878 C   0  0  0  0  0  0  0  0  0  0  0  0
   20.7602  -16.6754  -14.9908 C   0  0  0  0  0  0  0  0  0  0  0  0
   19.6443  -15.9087  -15.6958 C   0  0  0  0  0  0  0  0  0  0  0  0
   18.4905  -15.7418  -14.8420 N   0  0  0  0  0  0  0  0  0  0  0  0
   23.3968  -19.9142  -14.6413 C   0  0  0  0  0  0  0  0  0  0  0  0
   22.3912  -20.6959  -14.6015 O   0  0  0  0  0  0  0  0  0  0  0  0
   25.3851  -22.1124  -10.6372 C   0  0  0  0  0  0  0  0  0  0  0  0
   25.4333  -20.9801  -11.6504 C   0  0  2  0  0  0  0  0  0  0  0  0
   25.6374  -19.6568  -10.9767 C   0  0  0  0  0  0  0  0  0  0  0  0
   24.1831  -21.0117  -12.5083 C   0  0  2  0  0  0  0  0  0  0  0  0
   24.3521  -20.0851  -13.6111 N   0  0  0  0  0  0  0  0  0  0  0  0
   22.9493  -20.7793  -11.7374 C   0  0  0  0  0  0  0  0  0  0  0  0
   22.4443  -19.6299  -11.6568 O   0  0  0  0  0  0  0  0  0  0  0  0
   22.2629  -21.7812  -11.0562 O   0  0  0  0  0  0  0  0  0  0  0  0
  2  1  1  6
  3  2  1  0
  4  3  1  0
  4  5  2  0
  6  5  1  0
  7  6  1  0
  8  7  2  0
  9  8  1  0
 10  9  2  0
 10 11  1  0
 11 12  2  0
 12  7  1  0
 12  4  1  0
 13  2  1  0
 14 13  2  0
 15 13  1  0
 16 22  1  0
 16 15  1  0
 16 17  1  1
 18 17  1  0
 19 18  1  0
 20 19  1  0
 21 20  1  0
 22 28  1  0
 23 22  2  0
 25 24  1  1
 25 27  1  0
 25 26  1  0
 27 29  1  0
 27 28  1  6
 29 30  2  0
 29 31  1  0
M  END
$$$$
