WKV.pdb
     RDKit          3D

 31 32  0  0  1  0  0  0  0  0999 V2000
   25.7709  -22.2463  -12.4203 N   0  0  0  0  0  0  0  0  0  0  0  0
   26.4612  -21.1200  -11.8811 C   0  0  1  0  0  0  0  0  0  0  0  0
   25.5668  -19.9208  -11.6558 C   0  0  0  0  0  0  0  0  0  0  0  0
   25.1363  -19.4278  -12.9825 C   0  0  0  0  0  0  0  0  0  0  0  0
   23.8559  -19.5330  -13.4940 C   0  0  0  0  0  0  0  0  0  0  0  0
   23.8121  -18.9843  -14.7256 N   0  0  0  0  0  0  0  0  0  0  0  0
   25.0599  -18.5284  -15.0035 C   0  0  0  0  0  0  0  0  0  0  0  0
   25.6061  -17.8805  -16.0995 C   0  0  0  0  0  0  0  0  0  0  0  0
   26.9525  -17.5011  -16.1426 C   0  0  0  0  0  0  0  0  0  0  0  0
   27.7419  -17.7910  -15.0509 C   0  0  0  0  0  0  0  0  0  0  0  0
   27.2383  -18.4388  -13.9307 C   0  0  0  0  0  0  0  0  0  0  0  0
   25.8928  -18.7926  -13.9401 C   0  0  0  0  0  0  0  0  0  0  0  0
   27.1794  -21.5096  -10.6115 C   0  0  0  0  0  0  0  0  0  0  0  0
   26.4622  -21.9267   -9.7097 O   0  0  0  0  0  0  0  0  0  0  0  0
   28.5582  -21.4093  -10.4573 N   0  0  0  0  0  0  0  0  0  0  0  0
   29.4118  -21.3217   -9.3528 C   0  0  1  0  0  0  0  0  0  0  0  0
   30.8693  -21.1537   -9.4528 C   0  0  0  0  0  0  0  0  0  0  0  0
   31.6015  -21.7364  -10.5990 C   0  0  0  0  0  0  0  0  0  0  0  0
   32.5702  -22.8163  -10.0753 C   0  0  0  0  0  0  0  0  0  0  0  0
   33.3000  -23.4474  -11.2581 C   0  0  0  0  0  0  0  0  0  0  0  0
   34.2286  -24.4679  -10.8284 N   0  0  0  0  0  0  0  0  0  0  0  0
   28.8620  -20.4849   -8.2290 C   0  0  0  0  0  0  0  0  0  0  0  0
   28.4150  -19.3147   -8.4631 O   0  0  0  0  0  0  0  0  0  0  0  0
   26.2076  -21.2649   -5.6669 C   0  0  0  0  0  0  0  0  0  0  0  0
   27.4433  -20.8457   -4.8869 C   0  0  2  0  0  0  0  0  0  0  0  0
   27.0721  -20.0952   -3.6437 C   0  0  0  0  0  0  0  0  0  0  0  0
   28.3713  -20.0564   -5.7901 C   0  0  2  0  0  0  0  0  0  0  0  0
   28.7971  -20.9117   -6.8812 N   0  0  0  0  0  0  0  0  0  0  0  0
   29.4941  -19.4382   -5.0638 C   0  0  0  0  0  0  0  0  0  0  0  0
   30.6151  -20.0059   -5.0021 O   0  0  0  0  0  0  0  0  0  0  0  0
   29.4091  -18.2136   -4.4064 O   0  0  0  0  0  0  0  0  0  0  0  0
  2  1  1  1
  3  2  1  0
  4  3  1  0
  4  5  2  0
  6  5  1  0
  7  6  1  0
  8  7  2  0
  9  8  1  0
 10  9  2  0
 10 11  1  0
 11 12  2  0
 12  7  1  0
 12  4  1  0
 13  2  1  0
 14 13  2  0
 15 13  1  0
 16 22  1  0
 16 15  1  0
 16 17  1  6
 18 17  1  0
 19 18  1  0
 20 19  1  0
 21 20  1  0
 22 28  1  0
 23 22  2  0
 25 24  1  6
 25 27  1  0
 25 26  1  0
 27 29  1  0
 27 28  1  6
 29 30  2  0
 29 31  1  0
M  END
$$$$
