WKV.pdb
     RDKit          3D

 31 32  0  0  1  0  0  0  0  0999 V2000
   25.5279  -18.9261  -19.0215 N   0  0  0  0  0  0  0  0  0  0  0  0
   24.9448  -18.1645  -17.9652 C   0  0  1  0  0  0  0  0  0  0  0  0
   23.9144  -17.1660  -18.4447 C   0  0  0  0  0  0  0  0  0  0  0  0
   24.5728  -16.2825  -19.4319 C   0  0  0  0  0  0  0  0  0  0  0  0
   25.4425  -15.2526  -19.1235 C   0  0  0  0  0  0  0  0  0  0  0  0
   25.8548  -14.6509  -20.2583 N   0  0  0  0  0  0  0  0  0  0  0  0
   25.2521  -15.2925  -21.2913 C   0  0  0  0  0  0  0  0  0  0  0  0
   25.2989  -15.1213  -22.6654 C   0  0  0  0  0  0  0  0  0  0  0  0
   24.5705  -15.9356  -23.5400 C   0  0  0  0  0  0  0  0  0  0  0  0
   23.7885  -16.9319  -22.9970 C   0  0  0  0  0  0  0  0  0  0  0  0
   23.7105  -17.1406  -21.6265 C   0  0  0  0  0  0  0  0  0  0  0  0
   24.4559  -16.3032  -20.8026 C   0  0  0  0  0  0  0  0  0  0  0  0
   24.3644  -19.0859  -16.9194 C   0  0  0  0  0  0  0  0  0  0  0  0
   23.5161  -19.8718  -17.3249 O   0  0  0  0  0  0  0  0  0  0  0  0
   24.7528  -19.0597  -15.5840 N   0  0  0  0  0  0  0  0  0  0  0  0
   24.2999  -19.6971  -14.4243 C   0  0  1  0  0  0  0  0  0  0  0  0
   25.0094  -19.6604  -13.1367 C   0  0  0  0  0  0  0  0  0  0  0  0
   24.4781  -20.4158  -11.9806 C   0  0  0  0  0  0  0  0  0  0  0  0
   25.4296  -20.2270  -10.7815 C   0  0  0  0  0  0  0  0  0  0  0  0
   24.8165  -20.8876   -9.5495 C   0  0  0  0  0  0  0  0  0  0  0  0
   25.6950  -20.8009   -8.4055 N   0  0  0  0  0  0  0  0  0  0  0  0
   22.8149  -19.5783  -14.2099 C   0  0  0  0  0  0  0  0  0  0  0  0
   22.3061  -18.4611  -13.8679 O   0  0  0  0  0  0  0  0  0  0  0  0
   20.0719  -22.5894  -15.4862 C   0  0  0  0  0  0  0  0  0  0  0  0
   19.7701  -21.1022  -15.3956 C   0  0  2  0  0  0  0  0  0  0  0  0
   20.1277  -20.3969  -16.6689 C   0  0  0  0  0  0  0  0  0  0  0  0
   20.4705  -20.5139  -14.1859 C   0  0  2  0  0  0  0  0  0  0  0  0
   21.9031  -20.6493  -14.3663 N   0  0  0  0  0  0  0  0  0  0  0  0
   19.9893  -21.0754  -12.9117 C   0  0  0  0  0  0  0  0  0  0  0  0
   20.5848  -22.0388  -12.3640 O   0  0  0  0  0  0  0  0  0  0  0  0
   18.8709  -20.6012  -12.2311 O   0  0  0  0  0  0  0  0  0  0  0  0
  2  1  1  6
  3  2  1  0
  4  3  1  0
  4  5  2  0
  6  5  1  0
  7  6  1  0
  8  7  2  0
  9  8  1  0
 10  9  2  0
 10 11  1  0
 11 12  2  0
 12  7  1  0
 12  4  1  0
 13  2  1  0
 14 13  2  0
 15 13  1  0
 16 22  1  0
 16 15  1  0
 16 17  1  1
 18 17  1  0
 19 18  1  0
 20 19  1  0
 21 20  1  0
 22 28  1  0
 23 22  2  0
 25 24  1  6
 25 27  1  0
 25 26  1  0
 27 29  1  0
 27 28  1  6
 29 30  2  0
 29 31  1  0
M  END
$$$$
