WKV.pdb
     RDKit          3D

 31 32  0  0  1  0  0  0  0  0999 V2000
   26.9778  -19.0323  -10.9610 N   0  0  0  0  0  0  0  0  0  0  0  0
   26.3388  -20.2982  -11.1196 C   0  0  1  0  0  0  0  0  0  0  0  0
   26.0706  -21.0024   -9.8078 C   0  0  0  0  0  0  0  0  0  0  0  0
   27.2733  -20.8446   -8.9610 C   0  0  0  0  0  0  0  0  0  0  0  0
   27.3591  -20.0360   -7.8425 C   0  0  0  0  0  0  0  0  0  0  0  0
   28.5957  -20.1257   -7.3108 N   0  0  0  0  0  0  0  0  0  0  0  0
   29.3009  -20.9889   -8.0851 C   0  0  0  0  0  0  0  0  0  0  0  0
   30.6005  -21.4651   -8.0255 C   0  0  0  0  0  0  0  0  0  0  0  0
   31.1013  -22.3753   -8.9632 C   0  0  0  0  0  0  0  0  0  0  0  0
   30.2593  -22.7975   -9.9691 C   0  0  0  0  0  0  0  0  0  0  0  0
   28.9496  -22.3474  -10.0689 C   0  0  0  0  0  0  0  0  0  0  0  0
   28.5026  -21.4441   -9.1098 C   0  0  0  0  0  0  0  0  0  0  0  0
   25.0702  -20.1428  -11.9233 C   0  0  0  0  0  0  0  0  0  0  0  0
   24.1861  -19.4853  -11.3868 O   0  0  0  0  0  0  0  0  0  0  0  0
   24.8981  -20.6995  -13.1864 N   0  0  0  0  0  0  0  0  0  0  0  0
   23.8620  -20.6839  -14.1257 C   0  0  1  0  0  0  0  0  0  0  0  0
   24.0719  -20.7258  -15.5807 C   0  0  0  0  0  0  0  0  0  0  0  0
   22.9232  -20.5488  -16.4965 C   0  0  0  0  0  0  0  0  0  0  0  0
   23.4152  -20.7059  -17.9498 C   0  0  0  0  0  0  0  0  0  0  0  0
   22.2574  -20.4179  -18.9021 C   0  0  0  0  0  0  0  0  0  0  0  0
   22.6705  -20.5023  -20.2842 N   0  0  0  0  0  0  0  0  0  0  0  0
   22.6834  -21.5368  -13.7399 C   0  0  0  0  0  0  0  0  0  0  0  0
   22.8402  -22.7824  -13.5218 O   0  0  0  0  0  0  0  0  0  0  0  0
   20.3672  -20.4795  -11.0343 C   0  0  0  0  0  0  0  0  0  0  0  0
   19.4528  -21.0195  -12.1221 C   0  0  2  0  0  0  0  0  0  0  0  0
   18.3009  -21.7785  -11.5360 C   0  0  0  0  0  0  0  0  0  0  0  0
   20.2614  -21.8495  -13.1005 C   0  0  2  0  0  0  0  0  0  0  0  0
   21.3643  -21.0459  -13.5918 N   0  0  0  0  0  0  0  0  0  0  0  0
   19.4417  -22.4320  -14.1771 C   0  0  0  0  0  0  0  0  0  0  0  0
   18.9771  -21.7115  -15.0978 O   0  0  0  0  0  0  0  0  0  0  0  0
   19.1237  -23.7850  -14.2610 O   0  0  0  0  0  0  0  0  0  0  0  0
  2  1  1  1
  3  2  1  0
  4  3  1  0
  4  5  2  0
  6  5  1  0
  7  6  1  0
  8  7  2  0
  9  8  1  0
 10  9  2  0
 10 11  1  0
 11 12  2  0
 12  7  1  0
 12  4  1  0
 13  2  1  0
 14 13  2  0
 15 13  1  0
 16 22  1  0
 16 15  1  0
 16 17  1  6
 18 17  1  0
 19 18  1  0
 20 19  1  0
 21 20  1  0
 22 28  1  0
 23 22  2  0
 25 24  1  1
 25 27  1  0
 25 26  1  0
 27 29  1  0
 27 28  1  6
 29 30  2  0
 29 31  1  0
M  END
$$$$
