WKV.pdb
     RDKit          3D

 31 32  0  0  1  0  0  0  0  0999 V2000
   26.7034  -19.2834  -17.2695 N   0  0  0  0  0  0  0  0  0  0  0  0
   27.4921  -18.9210  -16.1370 C   0  0  1  0  0  0  0  0  0  0  0  0
   27.3496  -17.4658  -15.7488 C   0  0  0  0  0  0  0  0  0  0  0  0
   28.0125  -16.6564  -16.7949 C   0  0  0  0  0  0  0  0  0  0  0  0
   27.3867  -15.7096  -17.5849 C   0  0  0  0  0  0  0  0  0  0  0  0
   28.2814  -15.1630  -18.4338 N   0  0  0  0  0  0  0  0  0  0  0  0
   29.4771  -15.7568  -18.1893 C   0  0  0  0  0  0  0  0  0  0  0  0
   30.7389  -15.6007  -18.7398 C   0  0  0  0  0  0  0  0  0  0  0  0
   31.8380  -16.3473  -18.3003 C   0  0  0  0  0  0  0  0  0  0  0  0
   31.6370  -17.2609  -17.2884 C   0  0  0  0  0  0  0  0  0  0  0  0
   30.3906  -17.4516  -16.7069 C   0  0  0  0  0  0  0  0  0  0  0  0
   29.3327  -16.6823  -17.1809 C   0  0  0  0  0  0  0  0  0  0  0  0
   27.1767  -19.8284  -14.9723 C   0  0  0  0  0  0  0  0  0  0  0  0
   26.0352  -20.2731  -14.9475 O   0  0  0  0  0  0  0  0  0  0  0  0
   28.1041  -20.1491  -13.9864 N   0  0  0  0  0  0  0  0  0  0  0  0
   28.0181  -20.7449  -12.7239 C   0  0  1  0  0  0  0  0  0  0  0  0
   29.1846  -21.0889  -11.8971 C   0  0  0  0  0  0  0  0  0  0  0  0
   30.2721  -21.9165  -12.4647 C   0  0  0  0  0  0  0  0  0  0  0  0
   31.2899  -22.2351  -11.3506 C   0  0  0  0  0  0  0  0  0  0  0  0
   32.4744  -22.9834  -11.9564 C   0  0  0  0  0  0  0  0  0  0  0  0
   33.5642  -23.1071  -11.0155 N   0  0  0  0  0  0  0  0  0  0  0  0
   26.9121  -20.1894  -11.8674 C   0  0  0  0  0  0  0  0  0  0  0  0
   26.9409  -18.9701  -11.4983 O   0  0  0  0  0  0  0  0  0  0  0  0
   23.0991  -22.0857  -11.4480 C   0  0  0  0  0  0  0  0  0  0  0  0
   23.4118  -20.5991  -11.3917 C   0  0  2  0  0  0  0  0  0  0  0  0
   23.4269  -19.9951  -12.7634 C   0  0  0  0  0  0  0  0  0  0  0  0
   24.7127  -20.3810  -10.6434 C   0  0  2  0  0  0  0  0  0  0  0  0
   25.7983  -20.9419  -11.4245 N   0  0  0  0  0  0  0  0  0  0  0  0
   24.6724  -20.8834   -9.2591 C   0  0  0  0  0  0  0  0  0  0  0  0
   25.3576  -21.8801   -8.9129 O   0  0  0  0  0  0  0  0  0  0  0  0
   23.8968  -20.3144   -8.2523 O   0  0  0  0  0  0  0  0  0  0  0  0
  2  1  1  6
  3  2  1  0
  4  3  1  0
  4  5  2  0
  6  5  1  0
  7  6  1  0
  8  7  2  0
  9  8  1  0
 10  9  2  0
 10 11  1  0
 11 12  2  0
 12  7  1  0
 12  4  1  0
 13  2  1  0
 14 13  2  0
 15 13  1  0
 16 22  1  0
 16 15  1  0
 16 17  1  1
 18 17  1  0
 19 18  1  0
 20 19  1  0
 21 20  1  0
 22 28  1  0
 23 22  2  0
 25 24  1  6
 25 27  1  0
 25 26  1  0
 27 29  1  0
 27 28  1  6
 29 30  2  0
 29 31  1  0
M  END
$$$$
