WKV.pdb
     RDKit          3D

 31 32  0  0  1  0  0  0  0  0999 V2000
   27.4514  -18.6069   -9.2217 N   0  0  0  0  0  0  0  0  0  0  0  0
   27.0365  -19.9719   -9.2052 C   0  0  1  0  0  0  0  0  0  0  0  0
   26.3974  -20.3880   -7.8986 C   0  0  0  0  0  0  0  0  0  0  0  0
   27.2289  -19.8465   -6.8012 C   0  0  0  0  0  0  0  0  0  0  0  0
   27.0346  -18.6247   -6.1834 C   0  0  0  0  0  0  0  0  0  0  0  0
   27.9712  -18.4439   -5.2295 N   0  0  0  0  0  0  0  0  0  0  0  0
   28.7636  -19.5457   -5.2350 C   0  0  0  0  0  0  0  0  0  0  0  0
   29.8668  -19.9191   -4.4846 C   0  0  0  0  0  0  0  0  0  0  0  0
   30.5217  -21.1397   -4.6842 C   0  0  0  0  0  0  0  0  0  0  0  0
   30.0386  -21.9810   -5.6629 C   0  0  0  0  0  0  0  0  0  0  0  0
   28.9364  -21.6491   -6.4394 C   0  0  0  0  0  0  0  0  0  0  0  0
   28.3224  -20.4241   -6.1984 C   0  0  0  0  0  0  0  0  0  0  0  0
   26.1202  -20.2507  -10.3723 C   0  0  0  0  0  0  0  0  0  0  0  0
   25.0116  -19.7329  -10.3047 O   0  0  0  0  0  0  0  0  0  0  0  0
   26.4906  -21.0378  -11.4578 N   0  0  0  0  0  0  0  0  0  0  0  0
   25.8406  -21.4619  -12.6213 C   0  0  1  0  0  0  0  0  0  0  0  0
   26.3698  -22.4909  -13.5289 C   0  0  0  0  0  0  0  0  0  0  0  0
   25.8839  -22.5630  -14.9248 C   0  0  0  0  0  0  0  0  0  0  0  0
   26.1457  -21.2086  -15.6147 C   0  0  0  0  0  0  0  0  0  0  0  0
   25.6294  -21.2720  -17.0498 C   0  0  0  0  0  0  0  0  0  0  0  0
   25.8374  -20.0232  -17.7466 N   0  0  0  0  0  0  0  0  0  0  0  0
   24.3525  -21.6189  -12.4593 C   0  0  0  0  0  0  0  0  0  0  0  0
   23.8858  -22.4113  -11.5772 O   0  0  0  0  0  0  0  0  0  0  0  0
   21.7625  -18.7239  -12.4873 C   0  0  0  0  0  0  0  0  0  0  0  0
   21.2626  -19.8137  -13.4219 C   0  0  2  0  0  0  0  0  0  0  0  0
   19.7692  -19.9308  -13.3700 C   0  0  0  0  0  0  0  0  0  0  0  0
   21.9622  -21.1201  -13.0999 C   0  0  2  0  0  0  0  0  0  0  0  0
   23.3931  -20.9277  -13.2371 N   0  0  0  0  0  0  0  0  0  0  0  0
   21.4504  -22.2567  -13.8852 C   0  0  0  0  0  0  0  0  0  0  0  0
   21.8401  -22.4550  -15.0648 O   0  0  0  0  0  0  0  0  0  0  0  0
   20.5225  -23.1753  -13.4015 O   0  0  0  0  0  0  0  0  0  0  0  0
  2  1  1  1
  3  2  1  0
  4  3  1  0
  4  5  2  0
  6  5  1  0
  7  6  1  0
  8  7  2  0
  9  8  1  0
 10  9  2  0
 10 11  1  0
 11 12  2  0
 12  7  1  0
 12  4  1  0
 13  2  1  0
 14 13  2  0
 15 13  1  0
 16 22  1  0
 16 15  1  0
 16 17  1  1
 18 17  1  0
 19 18  1  0
 20 19  1  0
 21 20  1  0
 22 28  1  0
 23 22  2  0
 25 24  1  1
 25 27  1  0
 25 26  1  0
 27 29  1  0
 27 28  1  6
 29 30  2  0
 29 31  1  0
M  END
$$$$
