YDC.pdb
     RDKit          3D

 27 27  0  0  1  0  0  0  0  0999 V2000
    6.5068  -11.7114   27.5188 O   0  0  0  0  0  0  0  0  0  0  0  0
    6.7221  -12.4309   26.3524 C   0  0  0  0  0  0  0  0  0  0  0  0
    7.7691  -12.0445   25.5421 C   0  0  0  0  0  0  0  0  0  0  0  0
    8.0117  -12.7326   24.3805 C   0  0  0  0  0  0  0  0  0  0  0  0
    7.2231  -13.7897   24.0313 C   0  0  0  0  0  0  0  0  0  0  0  0
    7.5298  -14.5025   22.7521 C   0  0  0  0  0  0  0  0  0  0  0  0
    7.5497  -15.9727   23.0709 C   0  0  2  0  0  0  0  0  0  0  0  0
    6.4144  -16.3011   23.9102 N   0  0  0  0  0  0  0  0  0  0  0  0
    8.7969  -16.3849   23.7804 C   0  0  0  0  0  0  0  0  0  0  0  0
    8.7403  -16.9034   24.9469 O   0  0  0  0  0  0  0  0  0  0  0  0
    6.1796  -14.1971   24.8114 C   0  0  0  0  0  0  0  0  0  0  0  0
    5.9402  -13.5001   25.9805 C   0  0  0  0  0  0  0  0  0  0  0  0
   10.0917  -16.2365   23.2309 N   0  0  0  0  0  0  0  0  0  0  0  0
   11.2610  -16.7354   23.8872 C   0  0  1  0  0  0  0  0  0  0  0  0
   12.4810  -16.7853   23.0039 C   0  0  0  0  0  0  0  0  0  0  0  0
   13.4769  -17.7780   23.4219 C   0  0  0  0  0  0  0  0  0  0  0  0
   14.4715  -17.3982   24.1022 O   0  0  0  0  0  0  0  0  0  0  0  0
   11.5338  -16.0533   25.1769 C   0  0  0  0  0  0  0  0  0  0  0  0
   12.3541  -15.1027   25.1752 O   0  0  0  0  0  0  0  0  0  0  0  0
   13.4096  -19.1290   23.1222 O   0  0  0  0  0  0  0  0  0  0  0  0
   10.9173  -16.4305   26.3672 N   0  0  0  0  0  0  0  0  0  0  0  0
   11.3416  -16.0155   27.6951 C   0  0  1  0  0  0  0  0  0  0  0  0
   10.3489  -15.0547   28.3229 C   0  0  0  0  0  0  0  0  0  0  0  0
   10.2539  -13.6105   27.2191 S   0  0  0  0  0  0  0  0  0  0  0  0
   11.3892  -17.2318   28.5419 C   0  0  0  0  0  0  0  0  0  0  0  0
   11.8213  -17.1745   29.8570 O   0  0  0  0  0  0  0  0  0  0  0  0
   11.0441  -18.3704   28.1184 O   0  0  0  0  0  0  0  0  0  0  0  0
  2  1  1  0
  3  2  2  0
  4  3  1  0
  5 11  1  0
  5  4  2  0
  6  5  1  0
  7  6  1  0
  7  8  1  1
  9  7  1  0
  9 13  1  0
 10  9  2  0
 11 12  2  0
 12  2  1  0
 14 13  1  0
 14 18  1  0
 14 15  1  6
 16 17  2  0
 16 15  1  0
 18 19  2  0
 20 16  1  0
 21 18  1  0
 21 22  1  0
 22 23  1  1
 23 24  1  0
 25 22  1  0
 25 26  1  0
 27 25  2  0
M  END
$$$$
