YDC.pdb
     RDKit          3D

 27 27  0  0  1  0  0  0  0  0999 V2000
    7.0091  -11.9137   17.2785 O   0  0  0  0  0  0  0  0  0  0  0  0
    7.5138  -12.6629   18.3314 C   0  0  0  0  0  0  0  0  0  0  0  0
    6.6124  -13.3052   19.1542 C   0  0  0  0  0  0  0  0  0  0  0  0
    7.0752  -14.0547   20.2056 C   0  0  0  0  0  0  0  0  0  0  0  0
    8.4160  -14.1627   20.4341 C   0  0  0  0  0  0  0  0  0  0  0  0
    8.8660  -14.9897   21.5969 C   0  0  0  0  0  0  0  0  0  0  0  0
    9.4866  -16.2359   21.0262 C   0  0  2  0  0  0  0  0  0  0  0  0
    8.4629  -17.0347   20.3820 N   0  0  0  0  0  0  0  0  0  0  0  0
   10.1506  -17.0711   22.0703 C   0  0  0  0  0  0  0  0  0  0  0  0
    9.4591  -17.8208   22.8402 O   0  0  0  0  0  0  0  0  0  0  0  0
    9.3336  -13.5398   19.6384 C   0  0  0  0  0  0  0  0  0  0  0  0
    8.8613  -12.7861   18.5805 C   0  0  0  0  0  0  0  0  0  0  0  0
   11.5496  -17.0933   22.2775 N   0  0  0  0  0  0  0  0  0  0  0  0
   12.1455  -17.7653   23.3912 C   0  0  1  0  0  0  0  0  0  0  0  0
   13.6152  -18.0491   23.2163 C   0  0  0  0  0  0  0  0  0  0  0  0
   13.9652  -18.5750   21.8922 C   0  0  0  0  0  0  0  0  0  0  0  0
   14.9275  -18.0534   21.2613 O   0  0  0  0  0  0  0  0  0  0  0  0
   11.8559  -17.1023   24.6871 C   0  0  0  0  0  0  0  0  0  0  0  0
   12.4090  -15.9989   24.9175 O   0  0  0  0  0  0  0  0  0  0  0  0
   13.3081  -19.6222   21.2668 O   0  0  0  0  0  0  0  0  0  0  0  0
   11.0038  -17.6587   25.6377 N   0  0  0  0  0  0  0  0  0  0  0  0
   10.8588  -17.1879   27.0063 C   0  0  1  0  0  0  0  0  0  0  0  0
    9.5322  -16.4813   27.2152 C   0  0  0  0  0  0  0  0  0  0  0  0
    8.4348  -17.0270   25.8695 S   0  0  0  0  0  0  0  0  0  0  0  0
   10.8776  -18.3812   27.8863 C   0  0  0  0  0  0  0  0  0  0  0  0
   10.9770  -18.2567   29.2625 O   0  0  0  0  0  0  0  0  0  0  0  0
   10.8053  -19.5595   27.4376 O   0  0  0  0  0  0  0  0  0  0  0  0
  2  1  1  0
  3  2  2  0
  4  3  1  0
  5 11  1  0
  5  4  2  0
  6  5  1  0
  7  6  1  0
  7  8  1  1
  9  7  1  0
  9 13  1  0
 10  9  2  0
 11 12  2  0
 12  2  1  0
 14 13  1  0
 14 18  1  0
 14 15  1  6
 16 17  2  0
 16 15  1  0
 18 19  2  0
 20 16  1  0
 21 18  1  0
 21 22  1  0
 22 23  1  6
 23 24  1  0
 25 22  1  0
 25 26  1  0
 27 25  2  0
M  END
$$$$
