YDC.pdb
     RDKit          3D

 27 27  0  0  1  0  0  0  0  0999 V2000
    7.5209  -12.3171   17.0888 O   0  0  0  0  0  0  0  0  0  0  0  0
    7.5625  -12.9858   18.3036 C   0  0  0  0  0  0  0  0  0  0  0  0
    8.5150  -12.5948   19.2211 C   0  0  0  0  0  0  0  0  0  0  0  0
    8.5860  -13.2337   20.4327 C   0  0  0  0  0  0  0  0  0  0  0  0
    7.7209  -14.2472   20.7261 C   0  0  0  0  0  0  0  0  0  0  0  0
    7.8447  -14.9121   22.0607 C   0  0  0  0  0  0  0  0  0  0  0  0
    8.8210  -16.0441   21.8903 C   0  0  2  0  0  0  0  0  0  0  0  0
    8.3107  -16.9792   20.9073 N   0  0  0  0  0  0  0  0  0  0  0  0
    9.0639  -16.7834   23.1645 C   0  0  0  0  0  0  0  0  0  0  0  0
    8.6424  -17.9806   23.3121 O   0  0  0  0  0  0  0  0  0  0  0  0
    6.7671  -14.6576   19.8402 C   0  0  0  0  0  0  0  0  0  0  0  0
    6.7004  -14.0100   18.6210 C   0  0  0  0  0  0  0  0  0  0  0  0
    9.7564  -16.2304   24.2667 N   0  0  0  0  0  0  0  0  0  0  0  0
   10.4748  -17.0412   25.2014 C   0  0  1  0  0  0  0  0  0  0  0  0
   11.3271  -18.1039   24.5570 C   0  0  0  0  0  0  0  0  0  0  0  0
   12.5515  -17.5875   23.9354 C   0  0  0  0  0  0  0  0  0  0  0  0
   12.7346  -16.3382   23.8895 O   0  0  0  0  0  0  0  0  0  0  0  0
   11.2358  -16.2412   26.1932 C   0  0  0  0  0  0  0  0  0  0  0  0
   12.0076  -16.8533   26.9718 O   0  0  0  0  0  0  0  0  0  0  0  0
   13.5439  -18.3808   23.3830 O   0  0  0  0  0  0  0  0  0  0  0  0
   11.1205  -14.8564   26.2835 N   0  0  0  0  0  0  0  0  0  0  0  0
   10.3645  -14.1464   27.3033 C   0  0  1  0  0  0  0  0  0  0  0  0
    8.9399  -13.8772   26.8551 C   0  0  0  0  0  0  0  0  0  0  0  0
    8.1470  -12.9236   28.1874 S   0  0  0  0  0  0  0  0  0  0  0  0
   10.3034  -15.0243   28.4968 C   0  0  0  0  0  0  0  0  0  0  0  0
    9.8408  -16.3271   28.4066 O   0  0  0  0  0  0  0  0  0  0  0  0
   10.6638  -14.6396   29.6443 O   0  0  0  0  0  0  0  0  0  0  0  0
  2  1  1  0
  3  2  2  0
  4  3  1  0
  5 11  1  0
  5  4  2  0
  6  5  1  0
  7  6  1  0
  7  8  1  6
  9  7  1  0
  9 13  1  0
 10  9  2  0
 11 12  2  0
 12  2  1  0
 14 13  1  0
 14 18  1  0
 14 15  1  6
 16 17  2  0
 16 15  1  0
 18 19  2  0
 20 16  1  0
 21 18  1  0
 21 22  1  0
 22 23  1  6
 23 24  1  0
 25 22  1  0
 25 26  1  0
 27 25  2  0
M  END
$$$$
