YDC.pdb
     RDKit          3D

 27 27  0  0  1  0  0  0  0  0999 V2000
    7.5390  -12.7472   16.5201 O   0  0  0  0  0  0  0  0  0  0  0  0
    7.5447  -13.3529   17.7682 C   0  0  0  0  0  0  0  0  0  0  0  0
    8.1268  -12.6670   18.8136 C   0  0  0  0  0  0  0  0  0  0  0  0
    8.1511  -13.2352   20.0618 C   0  0  0  0  0  0  0  0  0  0  0  0
    7.6037  -14.4682   20.2657 C   0  0  0  0  0  0  0  0  0  0  0  0
    7.6608  -15.0425   21.6460 C   0  0  0  0  0  0  0  0  0  0  0  0
    9.1141  -15.2777   21.9562 C   0  0  2  0  0  0  0  0  0  0  0  0
    9.7062  -16.0905   20.9123 N   0  0  0  0  0  0  0  0  0  0  0  0
    9.3127  -15.9698   23.2640 C   0  0  0  0  0  0  0  0  0  0  0  0
    8.6906  -15.5768   24.3087 O   0  0  0  0  0  0  0  0  0  0  0  0
    7.0202  -15.1724   19.2524 C   0  0  0  0  0  0  0  0  0  0  0  0
    6.9986  -14.5948   17.9970 C   0  0  0  0  0  0  0  0  0  0  0  0
   10.1766  -17.0762   23.4373 N   0  0  0  0  0  0  0  0  0  0  0  0
   10.3338  -17.7313   24.6995 C   0  0  1  0  0  0  0  0  0  0  0  0
   11.1174  -19.0165   24.6255 C   0  0  0  0  0  0  0  0  0  0  0  0
   11.2390  -19.7130   25.9109 C   0  0  0  0  0  0  0  0  0  0  0  0
   12.3792  -20.1033   26.2900 O   0  0  0  0  0  0  0  0  0  0  0  0
   10.8452  -16.8265   25.7591 C   0  0  0  0  0  0  0  0  0  0  0  0
   11.9462  -16.2561   25.5616 O   0  0  0  0  0  0  0  0  0  0  0  0
   10.1773  -19.9814   26.7595 O   0  0  0  0  0  0  0  0  0  0  0  0
   10.1517  -16.5963   26.9445 N   0  0  0  0  0  0  0  0  0  0  0  0
   10.5698  -15.6769   27.9912 C   0  0  1  0  0  0  0  0  0  0  0  0
    9.5181  -14.6147   28.2532 C   0  0  0  0  0  0  0  0  0  0  0  0
   10.4154  -13.0759   28.6276 S   0  0  0  0  0  0  0  0  0  0  0  0
   10.7300  -16.4692   29.2344 C   0  0  0  0  0  0  0  0  0  0  0  0
   11.3101  -15.9196   30.3661 O   0  0  0  0  0  0  0  0  0  0  0  0
   10.3527  -17.6706   29.3296 O   0  0  0  0  0  0  0  0  0  0  0  0
  2  1  1  0
  3  2  2  0
  4  3  1  0
  5 11  1  0
  5  4  2  0
  6  5  1  0
  7  6  1  0
  7  8  1  6
  9  7  1  0
  9 13  1  0
 10  9  2  0
 11 12  2  0
 12  2  1  0
 14 13  1  0
 14 18  1  0
 14 15  1  6
 16 17  2  0
 16 15  1  0
 18 19  2  0
 20 16  1  0
 21 18  1  0
 21 22  1  0
 22 23  1  1
 23 24  1  0
 25 22  1  0
 25 26  1  0
 27 25  2  0
M  END
$$$$
