YDC.pdb
     RDKit          3D

 27 27  0  0  1  0  0  0  0  0999 V2000
    7.6181  -12.1258   23.3822 O   0  0  0  0  0  0  0  0  0  0  0  0
    7.5197  -12.7666   22.1557 C   0  0  0  0  0  0  0  0  0  0  0  0
    8.0078  -12.1097   21.0456 C   0  0  0  0  0  0  0  0  0  0  0  0
    7.9272  -12.7126   19.8162 C   0  0  0  0  0  0  0  0  0  0  0  0
    7.3685  -13.9514   19.6943 C   0  0  0  0  0  0  0  0  0  0  0  0
    7.3027  -14.5611   18.3297 C   0  0  0  0  0  0  0  0  0  0  0  0
    8.4917  -15.4748   18.2070 C   0  0  2  0  0  0  0  0  0  0  0  0
    8.4267  -16.1867   16.9461 N   0  0  0  0  0  0  0  0  0  0  0  0
    8.5570  -16.4761   19.3124 C   0  0  0  0  0  0  0  0  0  0  0  0
    8.1605  -17.6766   19.1265 O   0  0  0  0  0  0  0  0  0  0  0  0
    6.8766  -14.6277   20.7732 C   0  0  0  0  0  0  0  0  0  0  0  0
    6.9608  -14.0152   22.0093 C   0  0  0  0  0  0  0  0  0  0  0  0
    9.0469  -16.1790   20.6055 N   0  0  0  0  0  0  0  0  0  0  0  0
    9.6593  -17.1702   21.4359 C   0  0  1  0  0  0  0  0  0  0  0  0
   10.7685  -17.9325   20.7579 C   0  0  0  0  0  0  0  0  0  0  0  0
   11.4512  -18.8919   21.6329 C   0  0  0  0  0  0  0  0  0  0  0  0
   10.7826  -19.4957   22.5186 O   0  0  0  0  0  0  0  0  0  0  0  0
   10.0750  -16.6383   22.7577 C   0  0  0  0  0  0  0  0  0  0  0  0
   11.1222  -15.9475   22.8085 O   0  0  0  0  0  0  0  0  0  0  0  0
   12.8015  -19.1936   21.5614 O   0  0  0  0  0  0  0  0  0  0  0  0
    9.3503  -16.8792   23.9221 N   0  0  0  0  0  0  0  0  0  0  0  0
    9.5094  -16.1499   25.1705 C   0  0  1  0  0  0  0  0  0  0  0  0
    8.2193  -15.4674   25.5859 C   0  0  0  0  0  0  0  0  0  0  0  0
    6.8782  -16.6588   25.2776 S   0  0  0  0  0  0  0  0  0  0  0  0
    9.8529  -17.1411   26.2184 C   0  0  0  0  0  0  0  0  0  0  0  0
   10.2300  -16.7401   27.4898 O   0  0  0  0  0  0  0  0  0  0  0  0
    9.8215  -18.3869   26.0139 O   0  0  0  0  0  0  0  0  0  0  0  0
  2  1  1  0
  3  2  2  0
  4  3  1  0
  5 11  1  0
  5  4  2  0
  6  5  1  0
  7  6  1  0
  7  8  1  6
  9  7  1  0
  9 13  1  0
 10  9  2  0
 11 12  2  0
 12  2  1  0
 14 13  1  0
 14 18  1  0
 14 15  1  6
 16 17  2  0
 16 15  1  0
 18 19  2  0
 20 16  1  0
 21 18  1  0
 21 22  1  0
 22 23  1  1
 23 24  1  0
 25 22  1  0
 25 26  1  0
 27 25  2  0
M  END
$$$$
