YDC.pdb
     RDKit          3D

 27 27  0  0  1  0  0  0  0  0999 V2000
    7.6754  -12.3546   27.5834 O   0  0  0  0  0  0  0  0  0  0  0  0
    7.3918  -13.1469   26.4805 C   0  0  0  0  0  0  0  0  0  0  0  0
    8.1850  -13.0002   25.3619 C   0  0  0  0  0  0  0  0  0  0  0  0
    7.9339  -13.7667   24.2525 C   0  0  0  0  0  0  0  0  0  0  0  0
    6.9076  -14.6659   24.2572 C   0  0  0  0  0  0  0  0  0  0  0  0
    6.6757  -15.4734   23.0192 C   0  0  0  0  0  0  0  0  0  0  0  0
    7.0603  -16.8900   23.3493 C   0  0  2  0  0  0  0  0  0  0  0  0
    6.2012  -17.3914   24.4036 N   0  0  0  0  0  0  0  0  0  0  0  0
    8.4788  -17.0047   23.8007 C   0  0  0  0  0  0  0  0  0  0  0  0
    8.7589  -17.4985   24.9455 O   0  0  0  0  0  0  0  0  0  0  0  0
    6.1047  -14.8350   25.3480 C   0  0  0  0  0  0  0  0  0  0  0  0
    6.3627  -14.0600   26.4629 C   0  0  0  0  0  0  0  0  0  0  0  0
    9.5816  -16.5884   23.0192 N   0  0  0  0  0  0  0  0  0  0  0  0
   10.9343  -16.7930   23.4379 C   0  0  1  0  0  0  0  0  0  0  0  0
   11.9493  -16.5820   22.3441 C   0  0  0  0  0  0  0  0  0  0  0  0
   13.2266  -17.2642   22.5793 C   0  0  0  0  0  0  0  0  0  0  0  0
   13.8540  -17.0359   23.6519 O   0  0  0  0  0  0  0  0  0  0  0  0
   11.2769  -16.0393   24.6698 C   0  0  0  0  0  0  0  0  0  0  0  0
   11.5842  -14.8278   24.5493 O   0  0  0  0  0  0  0  0  0  0  0  0
   13.8105  -18.1587   21.6972 O   0  0  0  0  0  0  0  0  0  0  0  0
   11.2678  -16.6264   25.9324 N   0  0  0  0  0  0  0  0  0  0  0  0
   11.4130  -15.9075   27.1885 C   0  0  1  0  0  0  0  0  0  0  0  0
   10.2446  -14.9706   27.4331 C   0  0  0  0  0  0  0  0  0  0  0  0
   10.7994  -13.7607   28.6746 S   0  0  0  0  0  0  0  0  0  0  0  0
   11.4170  -16.9166   28.2750 C   0  0  0  0  0  0  0  0  0  0  0  0
   11.7725  -16.5757   29.5699 O   0  0  0  0  0  0  0  0  0  0  0  0
   11.1018  -18.1244   28.0838 O   0  0  0  0  0  0  0  0  0  0  0  0
  2  1  1  0
  3  2  2  0
  4  3  1  0
  5 11  1  0
  5  4  2  0
  6  5  1  0
  7  6  1  0
  7  8  1  1
  9  7  1  0
  9 13  1  0
 10  9  2  0
 11 12  2  0
 12  2  1  0
 14 13  1  0
 14 18  1  0
 14 15  1  6
 16 17  2  0
 16 15  1  0
 18 19  2  0
 20 16  1  0
 21 18  1  0
 21 22  1  0
 22 23  1  1
 23 24  1  0
 25 22  1  0
 25 26  1  0
 27 25  2  0
M  END
$$$$
