YDC.pdb
     RDKit          3D

 27 27  0  0  1  0  0  0  0  0999 V2000
    2.5405  -23.1143   19.4921 O   0  0  0  0  0  0  0  0  0  0  0  0
    3.6951  -22.6816   20.1278 C   0  0  0  0  0  0  0  0  0  0  0  0
    4.8370  -22.5468   19.3663 C   0  0  0  0  0  0  0  0  0  0  0  0
    5.9975  -22.1215   19.9611 C   0  0  0  0  0  0  0  0  0  0  0  0
    6.0202  -21.8348   21.2949 C   0  0  0  0  0  0  0  0  0  0  0  0
    7.3133  -21.3784   21.8932 C   0  0  0  0  0  0  0  0  0  0  0  0
    7.3409  -19.8792   21.7700 C   0  0  2  0  0  0  0  0  0  0  0  0
    7.2234  -19.5063   20.3742 N   0  0  0  0  0  0  0  0  0  0  0  0
    8.5985  -19.2860   22.3135 C   0  0  0  0  0  0  0  0  0  0  0  0
    9.0217  -19.6107   23.4747 O   0  0  0  0  0  0  0  0  0  0  0  0
    4.9075  -21.9577   22.0759 C   0  0  0  0  0  0  0  0  0  0  0  0
    3.7412  -22.3865   21.4709 C   0  0  0  0  0  0  0  0  0  0  0  0
    9.3889  -18.3509   21.6055 N   0  0  0  0  0  0  0  0  0  0  0  0
   10.5206  -17.7055   22.1968 C   0  0  1  0  0  0  0  0  0  0  0  0
   11.5326  -17.2117   21.1952 C   0  0  0  0  0  0  0  0  0  0  0  0
   12.0979  -18.2698   20.3509 C   0  0  0  0  0  0  0  0  0  0  0  0
   12.1201  -19.4551   20.7877 O   0  0  0  0  0  0  0  0  0  0  0  0
   10.1401  -16.6522   23.1708 C   0  0  0  0  0  0  0  0  0  0  0  0
    9.9903  -15.4823   22.7403 O   0  0  0  0  0  0  0  0  0  0  0  0
   12.6203  -18.0655   19.0841 O   0  0  0  0  0  0  0  0  0  0  0  0
    9.9480  -16.9193   24.5239 N   0  0  0  0  0  0  0  0  0  0  0  0
    9.5826  -15.9308   25.5264 C   0  0  1  0  0  0  0  0  0  0  0  0
    8.1750  -15.4081   25.3069 C   0  0  0  0  0  0  0  0  0  0  0  0
    7.0681  -16.8516   25.3729 S   0  0  0  0  0  0  0  0  0  0  0  0
    9.6111  -16.6095   26.8444 C   0  0  0  0  0  0  0  0  0  0  0  0
    9.4686  -15.8952   28.0229 O   0  0  0  0  0  0  0  0  0  0  0  0
    9.7648  -17.8572   26.9647 O   0  0  0  0  0  0  0  0  0  0  0  0
  2  1  1  0
  3  2  2  0
  4  3  1  0
  5 11  1  0
  5  4  2  0
  6  5  1  0
  7  6  1  0
  7  8  1  6
  9  7  1  0
  9 13  1  0
 10  9  2  0
 11 12  2  0
 12  2  1  0
 14 13  1  0
 14 18  1  0
 14 15  1  6
 16 17  2  0
 16 15  1  0
 18 19  2  0
 20 16  1  0
 21 18  1  0
 21 22  1  0
 22 23  1  6
 23 24  1  0
 25 22  1  0
 25 26  1  0
 27 25  2  0
M  END
$$$$
