YDC.pdb
     RDKit          3D

 27 27  0  0  1  0  0  0  0  0999 V2000
    7.6221  -12.6959   16.9823 O   0  0  0  0  0  0  0  0  0  0  0  0
    7.7447  -13.1922   18.2720 C   0  0  0  0  0  0  0  0  0  0  0  0
    9.0123  -13.4799   18.7329 C   0  0  0  0  0  0  0  0  0  0  0  0
    9.1718  -13.9726   20.0031 C   0  0  0  0  0  0  0  0  0  0  0  0
    8.0848  -14.1757   20.8022 C   0  0  0  0  0  0  0  0  0  0  0  0
    8.3155  -14.7182   22.1773 C   0  0  0  0  0  0  0  0  0  0  0  0
    8.5520  -16.1962   22.0244 C   0  0  2  0  0  0  0  0  0  0  0  0
    7.2980  -16.8582   21.7242 N   0  0  0  0  0  0  0  0  0  0  0  0
    9.1281  -16.8113   23.2568 C   0  0  0  0  0  0  0  0  0  0  0  0
    8.3814  -17.0846   24.2571 O   0  0  0  0  0  0  0  0  0  0  0  0
    6.8175  -13.9008   20.3760 C   0  0  0  0  0  0  0  0  0  0  0  0
    6.6631  -13.4045   19.0954 C   0  0  0  0  0  0  0  0  0  0  0  0
   10.4991  -17.1267   23.4029 N   0  0  0  0  0  0  0  0  0  0  0  0
   11.0510  -17.5746   24.6445 C   0  0  1  0  0  0  0  0  0  0  0  0
   12.3215  -18.3711   24.4945 C   0  0  0  0  0  0  0  0  0  0  0  0
   13.4220  -17.6231   23.8768 C   0  0  0  0  0  0  0  0  0  0  0  0
   14.3033  -17.1059   24.6197 O   0  0  0  0  0  0  0  0  0  0  0  0
   11.1912  -16.4831   25.6404 C   0  0  0  0  0  0  0  0  0  0  0  0
   11.5731  -15.3599   25.2292 O   0  0  0  0  0  0  0  0  0  0  0  0
   13.5731  -17.4364   22.5124 O   0  0  0  0  0  0  0  0  0  0  0  0
   10.9166  -16.6656   26.9934 N   0  0  0  0  0  0  0  0  0  0  0  0
   11.0149  -15.6320   28.0120 C   0  0  1  0  0  0  0  0  0  0  0  0
    9.7727  -14.7609   28.0443 C   0  0  0  0  0  0  0  0  0  0  0  0
   10.0372  -13.5265   29.3556 S   0  0  0  0  0  0  0  0  0  0  0  0
   11.1206  -16.3156   29.3236 C   0  0  0  0  0  0  0  0  0  0  0  0
   11.6587  -15.6729   30.4267 O   0  0  0  0  0  0  0  0  0  0  0  0
   10.7323  -17.5033   29.5057 O   0  0  0  0  0  0  0  0  0  0  0  0
  2  1  1  0
  3  2  2  0
  4  3  1  0
  5 11  1  0
  5  4  2  0
  6  5  1  0
  7  6  1  0
  7  8  1  1
  9  7  1  0
  9 13  1  0
 10  9  2  0
 11 12  2  0
 12  2  1  0
 14 13  1  0
 14 18  1  0
 14 15  1  6
 16 17  2  0
 16 15  1  0
 18 19  2  0
 20 16  1  0
 21 18  1  0
 21 22  1  0
 22 23  1  1
 23 24  1  0
 25 22  1  0
 25 26  1  0
 27 25  2  0
M  END
$$$$
