YDC.pdb
     RDKit          3D

 27 27  0  0  1  0  0  0  0  0999 V2000
    7.9823  -12.6823   16.8031 O   0  0  0  0  0  0  0  0  0  0  0  0
    7.9738  -13.2237   18.0803 C   0  0  0  0  0  0  0  0  0  0  0  0
    9.1173  -13.8589   18.5175 C   0  0  0  0  0  0  0  0  0  0  0  0
    9.1452  -14.4065   19.7749 C   0  0  0  0  0  0  0  0  0  0  0  0
    8.0503  -14.3227   20.5847 C   0  0  0  0  0  0  0  0  0  0  0  0
    8.1338  -14.9403   21.9448 C   0  0  0  0  0  0  0  0  0  0  0  0
    8.3819  -16.4097   21.7375 C   0  0  2  0  0  0  0  0  0  0  0  0
    7.2078  -17.0197   21.1455 N   0  0  0  0  0  0  0  0  0  0  0  0
    8.6917  -17.1206   23.0133 C   0  0  0  0  0  0  0  0  0  0  0  0
    7.7852  -17.7800   23.6268 O   0  0  0  0  0  0  0  0  0  0  0  0
    6.9039  -13.7009   20.1819 C   0  0  0  0  0  0  0  0  0  0  0  0
    6.8818  -13.1510   18.9141 C   0  0  0  0  0  0  0  0  0  0  0  0
    9.9706  -17.1167   23.6172 N   0  0  0  0  0  0  0  0  0  0  0  0
   10.2238  -17.7553   24.8723 C   0  0  1  0  0  0  0  0  0  0  0  0
   11.4677  -18.6059   24.8831 C   0  0  0  0  0  0  0  0  0  0  0  0
   11.7476  -19.2326   26.1797 C   0  0  0  0  0  0  0  0  0  0  0  0
   12.8224  -18.9458   26.7787 O   0  0  0  0  0  0  0  0  0  0  0  0
   10.1830  -16.8122   26.0177 C   0  0  0  0  0  0  0  0  0  0  0  0
   10.0052  -17.2907   27.1648 O   0  0  0  0  0  0  0  0  0  0  0  0
   10.9063  -20.1337   26.8118 O   0  0  0  0  0  0  0  0  0  0  0  0
   10.3335  -15.4369   25.8595 N   0  0  0  0  0  0  0  0  0  0  0  0
   10.1684  -14.4519   26.9169 C   0  0  1  0  0  0  0  0  0  0  0  0
    8.7141  -14.0527   27.0851 C   0  0  0  0  0  0  0  0  0  0  0  0
    8.6758  -12.7513   28.3571 S   0  0  0  0  0  0  0  0  0  0  0  0
   10.6110  -15.0863   28.1820 C   0  0  0  0  0  0  0  0  0  0  0  0
   10.8657  -14.3291   29.3139 O   0  0  0  0  0  0  0  0  0  0  0  0
   10.7782  -16.3327   28.2967 O   0  0  0  0  0  0  0  0  0  0  0  0
  2  1  1  0
  3  2  2  0
  4  3  1  0
  5 11  1  0
  5  4  2  0
  6  5  1  0
  7  6  1  0
  7  8  1  1
  9  7  1  0
  9 13  1  0
 10  9  2  0
 11 12  2  0
 12  2  1  0
 14 13  1  0
 14 18  1  0
 14 15  1  6
 16 17  2  0
 16 15  1  0
 18 19  2  0
 20 16  1  0
 21 18  1  0
 21 22  1  0
 22 23  1  1
 23 24  1  0
 25 22  1  0
 25 26  1  0
 27 25  2  0
M  END
$$$$
