YDC.pdb
     RDKit          3D

 27 27  0  0  1  0  0  0  0  0999 V2000
   14.6291  -14.1013   18.1706 O   0  0  0  0  0  0  0  0  0  0  0  0
   13.3333  -14.0986   18.6661 C   0  0  0  0  0  0  0  0  0  0  0  0
   13.1351  -14.5568   19.9517 C   0  0  0  0  0  0  0  0  0  0  0  0
   11.8672  -14.5690   20.4748 C   0  0  0  0  0  0  0  0  0  0  0  0
   10.8123  -14.1313   19.7283 C   0  0  0  0  0  0  0  0  0  0  0  0
    9.4504  -14.1698   20.3465 C   0  0  0  0  0  0  0  0  0  0  0  0
    9.0467  -15.6177   20.4124 C   0  0  2  0  0  0  0  0  0  0  0  0
    8.3267  -15.9746   19.2061 N   0  0  0  0  0  0  0  0  0  0  0  0
    8.1752  -15.9131   21.5880 C   0  0  0  0  0  0  0  0  0  0  0  0
    6.9077  -15.7706   21.5100 O   0  0  0  0  0  0  0  0  0  0  0  0
   10.9751  -13.6717   18.4534 C   0  0  0  0  0  0  0  0  0  0  0  0
   12.2549  -13.6617   17.9318 C   0  0  0  0  0  0  0  0  0  0  0  0
    8.6726  -16.3584   22.8349 N   0  0  0  0  0  0  0  0  0  0  0  0
    7.8907  -16.3042   24.0318 C   0  0  1  0  0  0  0  0  0  0  0  0
    7.9862  -17.5471   24.8787 C   0  0  0  0  0  0  0  0  0  0  0  0
    7.2386  -18.6900   24.3429 C   0  0  0  0  0  0  0  0  0  0  0  0
    6.5168  -18.5236   23.3195 O   0  0  0  0  0  0  0  0  0  0  0  0
    8.1306  -15.0710   24.8221 C   0  0  0  0  0  0  0  0  0  0  0  0
    9.3087  -14.8235   25.1790 O   0  0  0  0  0  0  0  0  0  0  0  0
    7.2638  -19.9652   24.8839 O   0  0  0  0  0  0  0  0  0  0  0  0
    7.1053  -14.1965   25.1729 N   0  0  0  0  0  0  0  0  0  0  0  0
    7.2191  -13.1261   26.1511 C   0  0  1  0  0  0  0  0  0  0  0  0
    5.8779  -12.4672   26.4153 C   0  0  0  0  0  0  0  0  0  0  0  0
    6.1684  -11.1816   27.6708 S   0  0  0  0  0  0  0  0  0  0  0  0
    7.6789  -13.7378   27.4212 C   0  0  0  0  0  0  0  0  0  0  0  0
    8.6666  -13.1421   28.1887 O   0  0  0  0  0  0  0  0  0  0  0  0
    7.2037  -14.8194   27.8673 O   0  0  0  0  0  0  0  0  0  0  0  0
  2  1  1  0
  3  2  2  0
  4  3  1  0
  5 11  1  0
  5  4  2  0
  6  5  1  0
  7  6  1  0
  7  8  1  6
  9  7  1  0
  9 13  1  0
 10  9  2  0
 11 12  2  0
 12  2  1  0
 14 13  1  0
 14 18  1  0
 14 15  1  1
 16 17  2  0
 16 15  1  0
 18 19  2  0
 20 16  1  0
 21 18  1  0
 21 22  1  0
 22 23  1  1
 23 24  1  0
 25 22  1  0
 25 26  1  0
 27 25  2  0
M  END
$$$$
