YDC.pdb
     RDKit          3D

 27 27  0  0  1  0  0  0  0  0999 V2000
    7.6806  -12.8934   16.3412 O   0  0  0  0  0  0  0  0  0  0  0  0
    7.7432  -13.2811   17.6717 C   0  0  0  0  0  0  0  0  0  0  0  0
    6.8971  -14.2871   18.0893 C   0  0  0  0  0  0  0  0  0  0  0  0
    6.9310  -14.6961   19.3981 C   0  0  0  0  0  0  0  0  0  0  0  0
    7.7947  -14.1118   20.2780 C   0  0  0  0  0  0  0  0  0  0  0  0
    7.7875  -14.5938   21.6943 C   0  0  0  0  0  0  0  0  0  0  0  0
    9.1738  -15.1009   21.9849 C   0  0  2  0  0  0  0  0  0  0  0  0
    9.5183  -16.1394   21.0341 N   0  0  0  0  0  0  0  0  0  0  0  0
    9.2979  -15.6617   23.3630 C   0  0  0  0  0  0  0  0  0  0  0  0
    8.7589  -15.0677   24.3577 O   0  0  0  0  0  0  0  0  0  0  0  0
    8.6446  -13.1142   19.8962 C   0  0  0  0  0  0  0  0  0  0  0  0
    8.6060  -12.7064   18.5763 C   0  0  0  0  0  0  0  0  0  0  0  0
    9.9990  -16.8539   23.6593 N   0  0  0  0  0  0  0  0  0  0  0  0
   10.1179  -17.3578   24.9931 C   0  0  1  0  0  0  0  0  0  0  0  0
   10.7309  -18.7322   25.0727 C   0  0  0  0  0  0  0  0  0  0  0  0
    9.7533  -19.8237   25.0010 C   0  0  0  0  0  0  0  0  0  0  0  0
   10.1395  -21.0066   25.2198 O   0  0  0  0  0  0  0  0  0  0  0  0
   10.7765  -16.3991   25.9151 C   0  0  0  0  0  0  0  0  0  0  0  0
   11.9373  -16.0147   25.6299 O   0  0  0  0  0  0  0  0  0  0  0  0
    8.4103  -19.6540   24.7059 O   0  0  0  0  0  0  0  0  0  0  0  0
   10.1554  -15.9225   27.0667 N   0  0  0  0  0  0  0  0  0  0  0  0
   10.8063  -15.1331   28.1006 C   0  0  1  0  0  0  0  0  0  0  0  0
   10.1622  -13.7669   28.2473 C   0  0  0  0  0  0  0  0  0  0  0  0
    8.5015  -13.8933   27.5130 S   0  0  0  0  0  0  0  0  0  0  0  0
   10.6284  -15.8555   29.3832 C   0  0  0  0  0  0  0  0  0  0  0  0
   11.2275  -15.4067   30.5489 O   0  0  0  0  0  0  0  0  0  0  0  0
    9.9319  -16.9042   29.4832 O   0  0  0  0  0  0  0  0  0  0  0  0
  2  1  1  0
  3  2  2  0
  4  3  1  0
  5 11  1  0
  5  4  2  0
  6  5  1  0
  7  6  1  0
  7  8  1  6
  9  7  1  0
  9 13  1  0
 10  9  2  0
 11 12  2  0
 12  2  1  0
 14 13  1  0
 14 18  1  0
 14 15  1  6
 16 17  2  0
 16 15  1  0
 18 19  2  0
 20 16  1  0
 21 18  1  0
 21 22  1  0
 22 23  1  1
 23 24  1  0
 25 22  1  0
 25 26  1  0
 27 25  2  0
M  END
$$$$
