GFQ.pdb
     RDKit          3D

 25 25  0  0  1  0  0  0  0  0999 V2000
   30.6954  -21.6363  -11.9714 N   0  0  0  0  0  0  0  0  0  0  0  0
   29.8440  -20.5165  -11.6729 C   0  0  0  0  0  0  0  0  0  0  0  0
   28.5516  -20.9777  -11.1202 C   0  0  0  0  0  0  0  0  0  0  0  0
   28.2262  -22.1887  -11.2075 O   0  0  0  0  0  0  0  0  0  0  0  0
   27.6308  -20.1023  -10.4772 N   0  0  0  0  0  0  0  0  0  0  0  0
   26.3264  -20.5634   -9.9982 C   0  0  1  0  0  0  0  0  0  0  0  0
   25.9295  -19.8354   -8.7274 C   0  0  0  0  0  0  0  0  0  0  0  0
   26.8754  -19.9827   -7.6235 C   0  0  0  0  0  0  0  0  0  0  0  0
   27.4032  -18.8536   -7.0095 C   0  0  0  0  0  0  0  0  0  0  0  0
   28.3006  -18.9366   -5.9707 C   0  0  0  0  0  0  0  0  0  0  0  0
   28.7306  -20.1600   -5.4755 C   0  0  0  0  0  0  0  0  0  0  0  0
   28.2063  -21.2901   -6.0853 C   0  0  0  0  0  0  0  0  0  0  0  0
   27.3088  -21.1914   -7.1243 C   0  0  0  0  0  0  0  0  0  0  0  0
   25.2939  -20.3887  -11.0612 C   0  0  0  0  0  0  0  0  0  0  0  0
   25.1391  -19.2595  -11.5960 O   0  0  0  0  0  0  0  0  0  0  0  0
   23.0606  -25.7878  -14.1496 N   0  0  0  0  0  0  0  0  0  0  0  0
   22.6761  -24.5158  -14.6406 C   0  0  0  0  0  0  0  0  0  0  0  0
   22.4744  -24.3861  -15.8960 O   0  0  0  0  0  0  0  0  0  0  0  0
   22.4942  -23.3481  -13.7725 C   0  0  0  0  0  0  0  0  0  0  0  0
   23.7054  -22.5450  -13.4754 C   0  0  0  0  0  0  0  0  0  0  0  0
   23.5578  -21.3006  -12.6779 C   0  0  2  0  0  0  0  0  0  0  0  0
   24.4677  -21.4397  -11.5058 N   0  0  0  0  0  0  0  0  0  0  0  0
   22.2225  -21.0668  -12.1621 C   0  0  0  0  0  0  0  0  0  0  0  0
   21.9863  -21.1530  -10.9298 O   0  0  0  0  0  0  0  0  0  0  0  0
   21.1592  -20.7413  -12.9926 O   0  0  0  0  0  0  0  0  0  0  0  0
  2  1  1  0
  3  2  1  0
  3  4  2  0
  5  3  1  0
  6  5  1  0
  6  7  1  1
  8  7  1  0
  8  9  2  0
 10  9  1  0
 11 10  2  0
 12 13  2  0
 12 11  1  0
 13  8  1  0
 14 22  1  0
 14  6  1  0
 15 14  2  0
 16 17  1  0
 17 19  1  0
 18 17  2  0
 20 19  1  0
 21 20  1  1
 21 22  1  0
 21 23  1  0
 23 25  1  0
 24 23  2  0
M  END
$$$$
