GFQ.pdb
     RDKit          3D

 25 25  0  0  1  0  0  0  0  0999 V2000
   24.9000   -0.8578   -1.2103 N   0  0  0  0  0  0  0  0  0  0  0  0
   24.5807    0.3590   -1.9067 C   0  0  0  0  0  0  0  0  0  0  0  0
   25.7749    0.8920   -2.5982 C   0  0  0  0  0  0  0  0  0  0  0  0
   26.8978    0.3566   -2.4177 O   0  0  0  0  0  0  0  0  0  0  0  0
   25.7218    2.0081   -3.4810 N   0  0  0  0  0  0  0  0  0  0  0  0
   26.8895    2.4490   -4.2461 C   0  0  1  0  0  0  0  0  0  0  0  0
   26.4862    2.8893   -5.6411 C   0  0  0  0  0  0  0  0  0  0  0  0
   26.2151    1.7931   -6.5684 C   0  0  0  0  0  0  0  0  0  0  0  0
   24.9212    1.3053   -6.7036 C   0  0  0  0  0  0  0  0  0  0  0  0
   24.6133    0.2723   -7.5575 C   0  0  0  0  0  0  0  0  0  0  0  0
   25.5837   -0.3434   -8.3360 C   0  0  0  0  0  0  0  0  0  0  0  0
   26.8771    0.1403   -8.2046 C   0  0  0  0  0  0  0  0  0  0  0  0
   27.1703    1.1751   -7.3456 C   0  0  0  0  0  0  0  0  0  0  0  0
   27.5987    3.5441   -3.5222 C   0  0  0  0  0  0  0  0  0  0  0  0
   26.9317    4.3960   -2.8786 O   0  0  0  0  0  0  0  0  0  0  0  0
   32.0113    4.0000    1.5711 N   0  0  0  0  0  0  0  0  0  0  0  0
   30.7688    4.3398    0.9817 C   0  0  0  0  0  0  0  0  0  0  0  0
   29.7018    4.1312    1.6537 O   0  0  0  0  0  0  0  0  0  0  0  0
   30.6556    4.9241   -0.3585 C   0  0  0  0  0  0  0  0  0  0  0  0
   29.8500    4.1678   -1.3481 C   0  0  0  0  0  0  0  0  0  0  0  0
   29.7047    4.7189   -2.7197 C   0  0  2  0  0  0  0  0  0  0  0  0
   29.0013    3.6777   -3.5210 N   0  0  0  0  0  0  0  0  0  0  0  0
   30.9571    5.0078   -3.3920 C   0  0  0  0  0  0  0  0  0  0  0  0
   31.3706    4.2703   -4.3230 O   0  0  0  0  0  0  0  0  0  0  0  0
   31.7452    6.0960   -3.0442 O   0  0  0  0  0  0  0  0  0  0  0  0
  2  1  1  0
  3  2  1  0
  3  4  2  0
  5  3  1  0
  6  5  1  0
  6  7  1  6
  8  7  1  0
  8  9  2  0
 10  9  1  0
 11 10  2  0
 12 13  2  0
 12 11  1  0
 13  8  1  0
 14 22  1  0
 14  6  1  0
 15 14  2  0
 16 17  1  0
 17 19  1  0
 18 17  2  0
 20 19  1  0
 21 20  1  1
 21 22  1  0
 21 23  1  0
 23 25  1  0
 24 23  2  0
M  END
$$$$
