GFQ.pdb
     RDKit          3D

 25 25  0  0  1  0  0  0  0  0999 V2000
   24.5201  -25.3410  -14.6951 N   0  0  0  0  0  0  0  0  0  0  0  0
   24.9832  -23.9907  -14.8679 C   0  0  0  0  0  0  0  0  0  0  0  0
   24.0042  -23.0295  -14.3148 C   0  0  0  0  0  0  0  0  0  0  0  0
   22.8786  -23.4316  -13.9257 O   0  0  0  0  0  0  0  0  0  0  0  0
   24.2733  -21.6363  -14.1952 N   0  0  0  0  0  0  0  0  0  0  0  0
   23.3148  -20.7096  -13.5903 C   0  0  1  0  0  0  0  0  0  0  0  0
   24.0312  -19.6380  -12.7897 C   0  0  0  0  0  0  0  0  0  0  0  0
   24.5271  -20.0824  -11.4892 C   0  0  0  0  0  0  0  0  0  0  0  0
   23.6886  -20.0518  -10.3817 C   0  0  0  0  0  0  0  0  0  0  0  0
   24.1068  -20.4535   -9.1348 C   0  0  0  0  0  0  0  0  0  0  0  0
   25.3971  -20.9145   -8.9127 C   0  0  0  0  0  0  0  0  0  0  0  0
   26.2380  -20.9471  -10.0154 C   0  0  0  0  0  0  0  0  0  0  0  0
   25.8053  -20.5417  -11.2576 C   0  0  0  0  0  0  0  0  0  0  0  0
   22.4474  -20.1034  -14.6421 C   0  0  0  0  0  0  0  0  0  0  0  0
   22.9774  -19.5690  -15.6513 O   0  0  0  0  0  0  0  0  0  0  0  0
   20.8500  -23.3658  -17.0697 N   0  0  0  0  0  0  0  0  0  0  0  0
   19.5757  -23.1052  -16.5085 C   0  0  0  0  0  0  0  0  0  0  0  0
   18.8388  -24.0996  -16.1895 O   0  0  0  0  0  0  0  0  0  0  0  0
   19.0709  -21.7487  -16.2730 C   0  0  0  0  0  0  0  0  0  0  0  0
   19.9776  -20.6303  -16.6298 C   0  0  0  0  0  0  0  0  0  0  0  0
   20.1822  -19.5367  -15.6458 C   0  0  2  0  0  0  0  0  0  0  0  0
   21.0407  -20.0969  -14.5640 N   0  0  0  0  0  0  0  0  0  0  0  0
   18.9671  -19.0476  -15.0227 C   0  0  0  0  0  0  0  0  0  0  0  0
   18.1002  -18.4368  -15.6988 O   0  0  0  0  0  0  0  0  0  0  0  0
   18.7085  -19.2292  -13.6713 O   0  0  0  0  0  0  0  0  0  0  0  0
  2  1  1  0
  3  2  1  0
  3  4  2  0
  5  3  1  0
  6  5  1  0
  6  7  1  6
  8  7  1  0
  8  9  2  0
 10  9  1  0
 11 10  2  0
 12 13  2  0
 12 11  1  0
 13  8  1  0
 14 22  1  0
 14  6  1  0
 15 14  2  0
 16 17  1  0
 17 19  1  0
 18 17  2  0
 20 19  1  0
 21 20  1  6
 21 22  1  0
 21 23  1  0
 23 25  1  0
 24 23  2  0
M  END
$$$$
