GFQ.pdb
     RDKit          3D

 25 25  0  0  1  0  0  0  0  0999 V2000
   37.1250   -6.0430  -18.0986 N   0  0  0  0  0  0  0  0  0  0  0  0
   37.1594   -7.3522  -18.6923 C   0  0  0  0  0  0  0  0  0  0  0  0
   35.9625   -8.1309  -18.3057 C   0  0  0  0  0  0  0  0  0  0  0  0
   35.7015   -9.2141  -18.8878 O   0  0  0  0  0  0  0  0  0  0  0  0
   35.0652   -7.7104  -17.2831 N   0  0  0  0  0  0  0  0  0  0  0  0
   33.9541   -8.5501  -16.8317 C   0  0  1  0  0  0  0  0  0  0  0  0
   33.9096   -8.6183  -15.3165 C   0  0  0  0  0  0  0  0  0  0  0  0
   35.0202   -9.3482  -14.7094 C   0  0  0  0  0  0  0  0  0  0  0  0
   35.9533   -8.6695  -13.9353 C   0  0  0  0  0  0  0  0  0  0  0  0
   37.0196   -9.3077  -13.3462 C   0  0  0  0  0  0  0  0  0  0  0  0
   37.2235  -10.6728  -13.4934 C   0  0  0  0  0  0  0  0  0  0  0  0
   36.2944  -11.3547  -14.2653 C   0  0  0  0  0  0  0  0  0  0  0  0
   35.2320  -10.7025  -14.8488 C   0  0  0  0  0  0  0  0  0  0  0  0
   32.6644   -8.0419  -17.3838 C   0  0  0  0  0  0  0  0  0  0  0  0
   32.3560   -6.8315  -17.2261 O   0  0  0  0  0  0  0  0  0  0  0  0
   27.6973   -9.7274  -22.6995 N   0  0  0  0  0  0  0  0  0  0  0  0
   28.9058   -9.6999  -21.9608 C   0  0  0  0  0  0  0  0  0  0  0  0
   29.8726  -10.4385  -22.3524 O   0  0  0  0  0  0  0  0  0  0  0  0
   29.0959   -8.8589  -20.7748 C   0  0  0  0  0  0  0  0  0  0  0  0
   30.2974   -9.1344  -19.9496 C   0  0  0  0  0  0  0  0  0  0  0  0
   30.5258   -8.3201  -18.7286 C   0  0  2  0  0  0  0  0  0  0  0  0
   31.7566   -8.8602  -18.0848 N   0  0  0  0  0  0  0  0  0  0  0  0
   29.4600   -8.3886  -17.7471 C   0  0  0  0  0  0  0  0  0  0  0  0
   29.5301   -9.1875  -16.7783 O   0  0  0  0  0  0  0  0  0  0  0  0
   28.3302   -7.5867  -17.8303 O   0  0  0  0  0  0  0  0  0  0  0  0
  2  1  1  0
  3  2  1  0
  3  4  2  0
  5  3  1  0
  6  5  1  0
  6  7  1  1
  8  7  1  0
  8  9  2  0
 10  9  1  0
 11 10  2  0
 12 13  2  0
 12 11  1  0
 13  8  1  0
 14 22  1  0
 14  6  1  0
 15 14  2  0
 16 17  1  0
 17 19  1  0
 18 17  2  0
 20 19  1  0
 21 20  1  6
 21 22  1  0
 21 23  1  0
 23 25  1  0
 24 23  2  0
M  END
$$$$
