GFQ.pdb
     RDKit          3D

 25 25  0  0  1  0  0  0  0  0999 V2000
   31.2842  -21.9754  -10.5870 N   0  0  0  0  0  0  0  0  0  0  0  0
   30.5230  -20.7667  -10.4215 C   0  0  0  0  0  0  0  0  0  0  0  0
   29.1710  -21.0696   -9.9031 C   0  0  0  0  0  0  0  0  0  0  0  0
   28.7992  -22.2635   -9.7747 O   0  0  0  0  0  0  0  0  0  0  0  0
   28.2421  -20.0564   -9.5311 N   0  0  0  0  0  0  0  0  0  0  0  0
   26.8723  -20.3715   -9.1215 C   0  0  1  0  0  0  0  0  0  0  0  0
   26.4717  -19.5576   -7.9051 C   0  0  0  0  0  0  0  0  0  0  0  0
   27.2422  -19.8506   -6.6987 C   0  0  0  0  0  0  0  0  0  0  0  0
   28.1441  -18.9138   -6.2093 C   0  0  0  0  0  0  0  0  0  0  0  0
   28.8975  -19.1418   -5.0817 C   0  0  0  0  0  0  0  0  0  0  0  0
   28.7976  -20.3270   -4.3661 C   0  0  0  0  0  0  0  0  0  0  0  0
   27.8983  -21.2654   -4.8507 C   0  0  0  0  0  0  0  0  0  0  0  0
   27.1509  -21.0231   -5.9810 C   0  0  0  0  0  0  0  0  0  0  0  0
   25.9283  -20.1432  -10.2542 C   0  0  0  0  0  0  0  0  0  0  0  0
   26.0153  -19.0850  -10.9306 O   0  0  0  0  0  0  0  0  0  0  0  0
   26.4575  -23.8461  -15.0284 N   0  0  0  0  0  0  0  0  0  0  0  0
   25.3906  -23.5365  -14.1494 C   0  0  0  0  0  0  0  0  0  0  0  0
   24.4515  -24.3923  -14.0107 O   0  0  0  0  0  0  0  0  0  0  0  0
   25.3215  -22.2840  -13.3900 C   0  0  0  0  0  0  0  0  0  0  0  0
   24.0794  -22.0432  -12.6157 C   0  0  0  0  0  0  0  0  0  0  0  0
   23.9981  -20.8347  -11.7560 C   0  0  2  0  0  0  0  0  0  0  0  0
   24.9262  -21.0661  -10.6131 N   0  0  0  0  0  0  0  0  0  0  0  0
   22.6842  -20.5751  -11.1992 C   0  0  0  0  0  0  0  0  0  0  0  0
   22.4460  -20.7997   -9.9849 O   0  0  0  0  0  0  0  0  0  0  0  0
   21.6444  -20.0734  -11.9695 O   0  0  0  0  0  0  0  0  0  0  0  0
  2  1  1  0
  3  2  1  0
  3  4  2  0
  5  3  1  0
  6  5  1  0
  6  7  1  1
  8  7  1  0
  8  9  2  0
 10  9  1  0
 11 10  2  0
 12 13  2  0
 12 11  1  0
 13  8  1  0
 14 22  1  0
 14  6  1  0
 15 14  2  0
 16 17  1  0
 17 19  1  0
 18 17  2  0
 20 19  1  0
 21 20  1  6
 21 22  1  0
 21 23  1  0
 23 25  1  0
 24 23  2  0
M  END
$$$$
