GFQ.pdb
     RDKit          3D

 25 25  0  0  1  0  0  0  0  0999 V2000
   27.9813  -23.6940  -17.5406 N   0  0  0  0  0  0  0  0  0  0  0  0
   27.8618  -22.3444  -17.0587 C   0  0  0  0  0  0  0  0  0  0  0  0
   27.0502  -22.3027  -15.8226 C   0  0  0  0  0  0  0  0  0  0  0  0
   26.1998  -23.2007  -15.5977 O   0  0  0  0  0  0  0  0  0  0  0  0
   27.1824  -21.2741  -14.8468 N   0  0  0  0  0  0  0  0  0  0  0  0
   26.3461  -21.2312  -13.6459 C   0  0  1  0  0  0  0  0  0  0  0  0
   27.0406  -20.4711  -12.5312 C   0  0  0  0  0  0  0  0  0  0  0  0
   26.2708  -20.3729  -11.2931 C   0  0  0  0  0  0  0  0  0  0  0  0
   26.5423  -21.2368  -10.2393 C   0  0  0  0  0  0  0  0  0  0  0  0
   25.8443  -21.1901   -9.0554 C   0  0  0  0  0  0  0  0  0  0  0  0
   24.8243  -20.2721   -8.8468 C   0  0  0  0  0  0  0  0  0  0  0  0
   24.5496  -19.4073   -9.8960 C   0  0  0  0  0  0  0  0  0  0  0  0
   25.2569  -19.4659  -11.0754 C   0  0  0  0  0  0  0  0  0  0  0  0
   25.0189  -20.6268  -13.9613 C   0  0  0  0  0  0  0  0  0  0  0  0
   24.9672  -19.5318  -14.5806 O   0  0  0  0  0  0  0  0  0  0  0  0
   19.6307  -22.8062  -14.1853 N   0  0  0  0  0  0  0  0  0  0  0  0
   19.4397  -21.6816  -15.0253 C   0  0  0  0  0  0  0  0  0  0  0  0
   18.2498  -21.3949  -15.3934 O   0  0  0  0  0  0  0  0  0  0  0  0
   20.5438  -20.8323  -15.4833 C   0  0  0  0  0  0  0  0  0  0  0  0
   21.9072  -21.2211  -15.0471 C   0  0  0  0  0  0  0  0  0  0  0  0
   22.4809  -20.5742  -13.8393 C   0  0  2  0  0  0  0  0  0  0  0  0
   23.7981  -21.2274  -13.5957 N   0  0  0  0  0  0  0  0  0  0  0  0
   21.6905  -20.7341  -12.6337 C   0  0  0  0  0  0  0  0  0  0  0  0
   21.8131  -21.7604  -11.9173 O   0  0  0  0  0  0  0  0  0  0  0  0
   20.7760  -19.7752  -12.2207 O   0  0  0  0  0  0  0  0  0  0  0  0
  2  1  1  0
  3  2  1  0
  3  4  2  0
  5  3  1  0
  6  5  1  0
  6  7  1  1
  8  7  1  0
  8  9  2  0
 10  9  1  0
 11 10  2  0
 12 13  2  0
 12 11  1  0
 13  8  1  0
 14 22  1  0
 14  6  1  0
 15 14  2  0
 16 17  1  0
 17 19  1  0
 18 17  2  0
 20 19  1  0
 21 20  1  6
 21 22  1  0
 21 23  1  0
 23 25  1  0
 24 23  2  0
M  END
$$$$
