GFQ.pdb
     RDKit          3D

 25 25  0  0  1  0  0  0  0  0999 V2000
   27.2890  -24.4798  -17.1446 N   0  0  0  0  0  0  0  0  0  0  0  0
   27.1733  -23.0764  -16.8534 C   0  0  0  0  0  0  0  0  0  0  0  0
   26.3207  -22.8599  -15.6640 C   0  0  0  0  0  0  0  0  0  0  0  0
   25.4856  -23.7345  -15.3208 O   0  0  0  0  0  0  0  0  0  0  0  0
   26.3956  -21.6841  -14.8643 N   0  0  0  0  0  0  0  0  0  0  0  0
   25.5287  -21.4788  -13.7025 C   0  0  1  0  0  0  0  0  0  0  0  0
   26.1893  -20.5604  -12.6912 C   0  0  0  0  0  0  0  0  0  0  0  0
   25.4829  -20.4537  -11.4167 C   0  0  0  0  0  0  0  0  0  0  0  0
   26.0252  -21.0301  -10.2747 C   0  0  0  0  0  0  0  0  0  0  0  0
   25.3988  -20.9633   -9.0523 C   0  0  0  0  0  0  0  0  0  0  0  0
   24.1834  -20.3125   -8.8911 C   0  0  0  0  0  0  0  0  0  0  0  0
   23.6380  -19.7353  -10.0284 C   0  0  0  0  0  0  0  0  0  0  0  0
   24.2766  -19.8103  -11.2454 C   0  0  0  0  0  0  0  0  0  0  0  0
   24.2059  -20.9393  -14.1332 C   0  0  0  0  0  0  0  0  0  0  0  0
   24.1559  -19.8540  -14.7694 O   0  0  0  0  0  0  0  0  0  0  0  0
   23.8025  -21.7624  -17.8428 N   0  0  0  0  0  0  0  0  0  0  0  0
   22.6085  -22.2882  -17.2907 C   0  0  0  0  0  0  0  0  0  0  0  0
   22.4444  -23.5557  -17.2970 O   0  0  0  0  0  0  0  0  0  0  0  0
   21.5602  -21.4440  -16.7087 C   0  0  0  0  0  0  0  0  0  0  0  0
   21.1223  -21.7813  -15.3322 C   0  0  0  0  0  0  0  0  0  0  0  0
   21.6657  -20.9917  -14.1976 C   0  0  2  0  0  0  0  0  0  0  0  0
   22.9875  -21.5918  -13.8601 N   0  0  0  0  0  0  0  0  0  0  0  0
   20.8567  -21.0253  -12.9942 C   0  0  0  0  0  0  0  0  0  0  0  0
   19.9707  -20.1559  -12.7921 O   0  0  0  0  0  0  0  0  0  0  0  0
   21.0203  -22.0046  -12.0244 O   0  0  0  0  0  0  0  0  0  0  0  0
  2  1  1  0
  3  2  1  0
  3  4  2  0
  5  3  1  0
  6  5  1  0
  6  7  1  1
  8  7  1  0
  8  9  2  0
 10  9  1  0
 11 10  2  0
 12 13  2  0
 12 11  1  0
 13  8  1  0
 14 22  1  0
 14  6  1  0
 15 14  2  0
 16 17  1  0
 17 19  1  0
 18 17  2  0
 20 19  1  0
 21 20  1  6
 21 22  1  0
 21 23  1  0
 23 25  1  0
 24 23  2  0
M  END
$$$$
