GFQ.pdb
     RDKit          3D

 25 25  0  0  1  0  0  0  0  0999 V2000
   31.2562  -22.7458  -10.1325 N   0  0  0  0  0  0  0  0  0  0  0  0
   30.6113  -21.4805  -10.3577 C   0  0  0  0  0  0  0  0  0  0  0  0
   29.2264  -21.5019   -9.8379 C   0  0  0  0  0  0  0  0  0  0  0  0
   28.5782  -22.5787   -9.8187 O   0  0  0  0  0  0  0  0  0  0  0  0
   28.5691  -20.3391   -9.3445 N   0  0  0  0  0  0  0  0  0  0  0  0
   27.1857  -20.3732   -8.8667 C   0  0  1  0  0  0  0  0  0  0  0  0
   26.9643  -19.3387   -7.7789 C   0  0  0  0  0  0  0  0  0  0  0  0
   27.7739  -19.5377   -6.5789 C   0  0  0  0  0  0  0  0  0  0  0  0
   27.5114  -20.6119   -5.7377 C   0  0  0  0  0  0  0  0  0  0  0  0
   28.2394  -20.8414   -4.5937 C   0  0  0  0  0  0  0  0  0  0  0  0
   29.2825  -20.0079   -4.2145 C   0  0  0  0  0  0  0  0  0  0  0  0
   29.5484  -18.9341   -5.0513 C   0  0  0  0  0  0  0  0  0  0  0  0
   28.8111  -18.7170   -6.1932 C   0  0  0  0  0  0  0  0  0  0  0  0
   26.2409  -20.1671  -10.0030 C   0  0  0  0  0  0  0  0  0  0  0  0
   26.5941  -19.4603  -10.9831 O   0  0  0  0  0  0  0  0  0  0  0  0
   25.5362  -24.0355  -13.7746 N   0  0  0  0  0  0  0  0  0  0  0  0
   24.6209  -23.0860  -14.2917 C   0  0  0  0  0  0  0  0  0  0  0  0
   24.2105  -23.2315  -15.4933 O   0  0  0  0  0  0  0  0  0  0  0  0
   24.1215  -21.9516  -13.5081 C   0  0  0  0  0  0  0  0  0  0  0  0
   24.5656  -21.8724  -12.0950 C   0  0  0  0  0  0  0  0  0  0  0  0
   24.1083  -20.7271  -11.2671 C   0  0  2  0  0  0  0  0  0  0  0  0
   24.9506  -20.7318  -10.0376 N   0  0  0  0  0  0  0  0  0  0  0  0
   22.7236  -20.8023  -10.8417 C   0  0  0  0  0  0  0  0  0  0  0  0
   22.4255  -21.2406   -9.7013 O   0  0  0  0  0  0  0  0  0  0  0  0
   21.6789  -20.3991  -11.6617 O   0  0  0  0  0  0  0  0  0  0  0  0
  2  1  1  0
  3  2  1  0
  3  4  2  0
  5  3  1  0
  6  5  1  0
  6  7  1  1
  8  7  1  0
  8  9  2  0
 10  9  1  0
 11 10  2  0
 12 13  2  0
 12 11  1  0
 13  8  1  0
 14 22  1  0
 14  6  1  0
 15 14  2  0
 16 17  1  0
 17 19  1  0
 18 17  2  0
 20 19  1  0
 21 20  1  6
 21 22  1  0
 21 23  1  0
 23 25  1  0
 24 23  2  0
M  END
$$$$
