GFY.pdb
     RDKit          3D

 28 29  0  0  1  0  0  0  0  0999 V2000
    8.4044  -12.9335   17.9184 N   0  0  0  0  0  0  0  0  0  0  0  0
    8.2028  -14.2279   18.5380 C   0  0  0  0  0  0  0  0  0  0  0  0
    8.4934  -14.1785   19.9894 C   0  0  0  0  0  0  0  0  0  0  0  0
    9.5745  -13.6483   20.3533 O   0  0  0  0  0  0  0  0  0  0  0  0
    7.6070  -14.7012   20.9704 N   0  0  0  0  0  0  0  0  0  0  0  0
    7.8944  -14.6040   22.3668 C   0  0  1  0  0  0  0  0  0  0  0  0
    6.6350  -14.5254   23.2096 C   0  0  0  0  0  0  0  0  0  0  0  0
    6.8708  -13.8458   24.4928 C   0  0  0  0  0  0  0  0  0  0  0  0
    6.6116  -14.5162   25.6857 C   0  0  0  0  0  0  0  0  0  0  0  0
    6.8215  -13.9134   26.9084 C   0  0  0  0  0  0  0  0  0  0  0  0
    7.2965  -12.6230   26.9900 C   0  0  0  0  0  0  0  0  0  0  0  0
    7.5547  -11.9550   25.8112 C   0  0  0  0  0  0  0  0  0  0  0  0
    7.3437  -12.5608   24.5891 C   0  0  0  0  0  0  0  0  0  0  0  0
    8.7804  -15.6648   22.8954 C   0  0  0  0  0  0  0  0  0  0  0  0
    8.7961  -16.8500   22.4755 O   0  0  0  0  0  0  0  0  0  0  0  0
    9.4298  -15.5784   30.5248 O   0  0  0  0  0  0  0  0  0  0  0  0
    9.9669  -15.5102   29.2466 C   0  0  0  0  0  0  0  0  0  0  0  0
   10.6180  -16.5997   28.7094 C   0  0  0  0  0  0  0  0  0  0  0  0
   11.1702  -16.5981   27.4540 C   0  0  0  0  0  0  0  0  0  0  0  0
   11.0895  -15.4551   26.6500 C   0  0  0  0  0  0  0  0  0  0  0  0
   11.6967  -15.4237   25.3071 C   0  0  0  0  0  0  0  0  0  0  0  0
   10.8177  -16.1420   24.3037 C   0  0  2  0  0  0  0  0  0  0  0  0
    9.6733  -15.3029   23.9501 N   0  0  0  0  0  0  0  0  0  0  0  0
   10.3364  -17.3921   24.9087 C   0  0  0  0  0  0  0  0  0  0  0  0
   11.0524  -18.3546   25.2817 O   0  0  0  0  0  0  0  0  0  0  0  0
   10.4386  -14.3760   27.1966 C   0  0  0  0  0  0  0  0  0  0  0  0
    9.8797  -14.3786   28.4677 C   0  0  0  0  0  0  0  0  0  0  0  0
    8.9739  -17.5701   25.1067 O   0  0  0  0  0  0  0  0  0  0  0  0
  2  1  1  0
  2  3  1  0
  3  4  2  0
  5  3  1  0
  5  6  1  0
  6  7  1  1
  8  7  1  0
  9  8  2  0
 10  9  1  0
 11 12  1  0
 11 10  2  0
 12 13  2  0
 13  8  1  0
 14  6  1  0
 14 15  2  0
 16 17  1  0
 17 27  2  0
 17 18  1  0
 18 19  2  0
 19 20  1  0
 20 21  1  0
 22 21  1  1
 22 23  1  0
 23 14  1  0
 24 28  1  0
 24 22  1  0
 25 24  2  0
 26 20  2  0
 27 26  1  0
M  END
$$$$
