GFY.pdb
     RDKit          3D

 28 29  0  0  1  0  0  0  0  0999 V2000
    8.7127  -19.2664   19.6023 N   0  0  0  0  0  0  0  0  0  0  0  0
    8.0526  -18.5395   20.6682 C   0  0  0  0  0  0  0  0  0  0  0  0
    8.9264  -17.4742   21.2115 C   0  0  0  0  0  0  0  0  0  0  0  0
   10.1196  -17.4355   20.8152 O   0  0  0  0  0  0  0  0  0  0  0  0
    8.4708  -16.5089   22.1506 N   0  0  0  0  0  0  0  0  0  0  0  0
    9.3445  -15.5106   22.6816 C   0  0  1  0  0  0  0  0  0  0  0  0
    8.7513  -14.1172   22.5868 C   0  0  0  0  0  0  0  0  0  0  0  0
    8.1043  -13.8796   21.2873 C   0  0  0  0  0  0  0  0  0  0  0  0
    6.8119  -14.3483   21.0647 C   0  0  0  0  0  0  0  0  0  0  0  0
    6.1714  -14.1440   19.8604 C   0  0  0  0  0  0  0  0  0  0  0  0
    6.7917  -13.4668   18.8339 C   0  0  0  0  0  0  0  0  0  0  0  0
    8.0718  -13.0006   19.0495 C   0  0  0  0  0  0  0  0  0  0  0  0
    8.7103  -13.2066   20.2558 C   0  0  0  0  0  0  0  0  0  0  0  0
    9.8075  -15.7604   24.0647 C   0  0  0  0  0  0  0  0  0  0  0  0
   10.8658  -15.2895   24.5540 O   0  0  0  0  0  0  0  0  0  0  0  0
    6.4226  -11.0450   26.4276 O   0  0  0  0  0  0  0  0  0  0  0  0
    6.8509  -12.3533   26.6062 C   0  0  0  0  0  0  0  0  0  0  0  0
    6.0176  -13.4047   26.2901 C   0  0  0  0  0  0  0  0  0  0  0  0
    6.3791  -14.7189   26.4425 C   0  0  0  0  0  0  0  0  0  0  0  0
    7.6455  -15.0483   26.9396 C   0  0  0  0  0  0  0  0  0  0  0  0
    8.0458  -16.4537   27.1337 C   0  0  0  0  0  0  0  0  0  0  0  0
    9.2735  -16.7810   26.3085 C   0  0  2  0  0  0  0  0  0  0  0  0
    8.9863  -16.5908   24.8872 N   0  0  0  0  0  0  0  0  0  0  0  0
    9.6416  -18.1838   26.5474 C   0  0  0  0  0  0  0  0  0  0  0  0
    9.6072  -19.1102   25.6996 O   0  0  0  0  0  0  0  0  0  0  0  0
    8.4664  -13.9920   27.2512 C   0  0  0  0  0  0  0  0  0  0  0  0
    8.0996  -12.6617   27.0964 C   0  0  0  0  0  0  0  0  0  0  0  0
   10.0737  -18.5668   27.8100 O   0  0  0  0  0  0  0  0  0  0  0  0
  2  1  1  0
  2  3  1  0
  3  4  2  0
  5  3  1  0
  5  6  1  0
  6  7  1  1
  8  7  1  0
  9  8  2  0
 10  9  1  0
 11 12  1  0
 11 10  2  0
 12 13  2  0
 13  8  1  0
 14  6  1  0
 14 15  2  0
 16 17  1  0
 17 27  2  0
 17 18  1  0
 18 19  2  0
 19 20  1  0
 20 21  1  0
 22 21  1  1
 22 23  1  0
 23 14  1  0
 24 28  1  0
 24 22  1  0
 25 24  2  0
 26 20  2  0
 27 26  1  0
M  END
$$$$
