GFY.pdb
     RDKit          3D

 28 29  0  0  1  0  0  0  0  0999 V2000
   10.6369  -16.0570   18.6097 N   0  0  0  0  0  0  0  0  0  0  0  0
    9.8485  -16.7839   19.5845 C   0  0  0  0  0  0  0  0  0  0  0  0
    9.7115  -16.0159   20.8433 C   0  0  0  0  0  0  0  0  0  0  0  0
   10.7652  -15.6439   21.4210 O   0  0  0  0  0  0  0  0  0  0  0  0
    8.4504  -15.6894   21.4129 N   0  0  0  0  0  0  0  0  0  0  0  0
    8.3483  -14.9952   22.6577 C   0  0  1  0  0  0  0  0  0  0  0  0
    6.9590  -14.4308   22.8897 C   0  0  0  0  0  0  0  0  0  0  0  0
    6.8874  -13.6286   24.1208 C   0  0  0  0  0  0  0  0  0  0  0  0
    7.3186  -12.3044   24.1067 C   0  0  0  0  0  0  0  0  0  0  0  0
    7.2658  -11.5200   25.2400 C   0  0  0  0  0  0  0  0  0  0  0  0
    6.7827  -12.0229   26.4279 C   0  0  0  0  0  0  0  0  0  0  0  0
    6.3545  -13.3338   26.4468 C   0  0  0  0  0  0  0  0  0  0  0  0
    6.4085  -14.1164   25.3110 C   0  0  0  0  0  0  0  0  0  0  0  0
    8.7719  -15.7749   23.8418 C   0  0  0  0  0  0  0  0  0  0  0  0
    8.4676  -16.9780   24.0445 O   0  0  0  0  0  0  0  0  0  0  0  0
   12.1993  -17.3433   31.8091 O   0  0  0  0  0  0  0  0  0  0  0  0
   11.8789  -16.7447   30.5984 C   0  0  0  0  0  0  0  0  0  0  0  0
   11.0031  -15.6811   30.5614 C   0  0  0  0  0  0  0  0  0  0  0  0
   10.6451  -15.0456   29.4000 C   0  0  0  0  0  0  0  0  0  0  0  0
   11.1730  -15.4678   28.1742 C   0  0  0  0  0  0  0  0  0  0  0  0
   10.7836  -14.8144   26.9114 C   0  0  0  0  0  0  0  0  0  0  0  0
   10.1012  -15.8002   25.9851 C   0  0  2  0  0  0  0  0  0  0  0  0
    9.5819  -15.1040   24.8085 N   0  0  0  0  0  0  0  0  0  0  0  0
    8.9883  -16.4326   26.7074 C   0  0  0  0  0  0  0  0  0  0  0  0
    7.8644  -15.9168   26.9286 O   0  0  0  0  0  0  0  0  0  0  0  0
   12.0442  -16.5286   28.2241 C   0  0  0  0  0  0  0  0  0  0  0  0
   12.4061  -17.1713   29.4005 C   0  0  0  0  0  0  0  0  0  0  0  0
    9.1470  -17.7177   27.2083 O   0  0  0  0  0  0  0  0  0  0  0  0
  2  1  1  0
  2  3  1  0
  3  4  2  0
  5  3  1  0
  5  6  1  0
  6  7  1  1
  8  7  1  0
  9  8  2  0
 10  9  1  0
 11 12  1  0
 11 10  2  0
 12 13  2  0
 13  8  1  0
 14  6  1  0
 14 15  2  0
 16 17  1  0
 17 27  2  0
 17 18  1  0
 18 19  2  0
 19 20  1  0
 20 21  1  0
 22 21  1  1
 22 23  1  0
 23 14  1  0
 24 28  1  0
 24 22  1  0
 25 24  2  0
 26 20  2  0
 27 26  1  0
M  END
$$$$
