GFY.pdb
     RDKit          3D

 28 29  0  0  1  0  0  0  0  0999 V2000
   10.4001  -16.2507   18.3555 N   0  0  0  0  0  0  0  0  0  0  0  0
    9.2205  -16.5454   19.1441 C   0  0  0  0  0  0  0  0  0  0  0  0
    9.2457  -15.8230   20.4367 C   0  0  0  0  0  0  0  0  0  0  0  0
   10.3642  -15.4609   20.8844 O   0  0  0  0  0  0  0  0  0  0  0  0
    8.0685  -15.5290   21.1777 N   0  0  0  0  0  0  0  0  0  0  0  0
    8.1206  -14.8100   22.4115 C   0  0  1  0  0  0  0  0  0  0  0  0
    6.8080  -14.1187   22.7307 C   0  0  0  0  0  0  0  0  0  0  0  0
    6.8669  -13.3820   24.0026 C   0  0  0  0  0  0  0  0  0  0  0  0
    6.3086  -13.9411   25.1495 C   0  0  0  0  0  0  0  0  0  0  0  0
    6.3453  -13.2822   26.3606 C   0  0  0  0  0  0  0  0  0  0  0  0
    6.9378  -12.0440   26.4759 C   0  0  0  0  0  0  0  0  0  0  0  0
    7.4921  -11.4862   25.3428 C   0  0  0  0  0  0  0  0  0  0  0  0
    7.4540  -12.1481   24.1322 C   0  0  0  0  0  0  0  0  0  0  0  0
    8.5588  -15.6072   23.5786 C   0  0  0  0  0  0  0  0  0  0  0  0
    8.1938  -16.7885   23.8078 O   0  0  0  0  0  0  0  0  0  0  0  0
   11.7767  -17.2981   31.5800 O   0  0  0  0  0  0  0  0  0  0  0  0
   11.4821  -16.6864   30.3693 C   0  0  0  0  0  0  0  0  0  0  0  0
   10.8483  -15.4627   30.3471 C   0  0  0  0  0  0  0  0  0  0  0  0
   10.5292  -14.8053   29.1865 C   0  0  0  0  0  0  0  0  0  0  0  0
   10.8458  -15.3715   27.9461 C   0  0  0  0  0  0  0  0  0  0  0  0
   10.4908  -14.6933   26.6862 C   0  0  0  0  0  0  0  0  0  0  0  0
    9.9641  -15.6874   25.6715 C   0  0  2  0  0  0  0  0  0  0  0  0
    9.4580  -14.9811   24.4951 N   0  0  0  0  0  0  0  0  0  0  0  0
    8.8714  -16.4543   26.2865 C   0  0  0  0  0  0  0  0  0  0  0  0
    7.7223  -16.0200   26.5495 O   0  0  0  0  0  0  0  0  0  0  0  0
   11.4769  -16.5911   27.9813 C   0  0  0  0  0  0  0  0  0  0  0  0
   11.7996  -17.2558   29.1569 C   0  0  0  0  0  0  0  0  0  0  0  0
    9.0815  -17.7845   26.6241 O   0  0  0  0  0  0  0  0  0  0  0  0
  2  1  1  0
  2  3  1  0
  3  4  2  0
  5  3  1  0
  5  6  1  0
  6  7  1  1
  8  7  1  0
  9  8  2  0
 10  9  1  0
 11 12  1  0
 11 10  2  0
 12 13  2  0
 13  8  1  0
 14  6  1  0
 14 15  2  0
 16 17  1  0
 17 27  2  0
 17 18  1  0
 18 19  2  0
 19 20  1  0
 20 21  1  0
 22 21  1  1
 22 23  1  0
 23 14  1  0
 24 28  1  0
 24 22  1  0
 25 24  2  0
 26 20  2  0
 27 26  1  0
M  END
$$$$
