GFY.pdb
     RDKit          3D

 28 29  0  0  1  0  0  0  0  0999 V2000
   10.4193  -16.5730   18.5013 N   0  0  0  0  0  0  0  0  0  0  0  0
    9.3111  -16.8555   19.3915 C   0  0  0  0  0  0  0  0  0  0  0  0
    9.2857  -15.9112   20.5321 C   0  0  0  0  0  0  0  0  0  0  0  0
   10.3788  -15.4131   20.9055 O   0  0  0  0  0  0  0  0  0  0  0  0
    8.0879  -15.5536   21.2093 N   0  0  0  0  0  0  0  0  0  0  0  0
    8.1124  -14.8549   22.4555 C   0  0  1  0  0  0  0  0  0  0  0  0
    6.7618  -14.2603   22.8088 C   0  0  0  0  0  0  0  0  0  0  0  0
    6.8019  -13.5122   24.0748 C   0  0  0  0  0  0  0  0  0  0  0  0
    7.3987  -12.2545   24.1137 C   0  0  0  0  0  0  0  0  0  0  0  0
    7.4544  -11.5219   25.2810 C   0  0  0  0  0  0  0  0  0  0  0  0
    6.9193  -12.0125   26.4516 C   0  0  0  0  0  0  0  0  0  0  0  0
    6.3272  -13.2577   26.4181 C   0  0  0  0  0  0  0  0  0  0  0  0
    6.2728  -13.9885   25.2484 C   0  0  0  0  0  0  0  0  0  0  0  0
    8.6237  -15.6411   23.6001 C   0  0  0  0  0  0  0  0  0  0  0  0
    8.2518  -16.8091   23.8806 O   0  0  0  0  0  0  0  0  0  0  0  0
   11.8322  -17.0691   31.6125 O   0  0  0  0  0  0  0  0  0  0  0  0
   11.5508  -16.4644   30.3951 C   0  0  0  0  0  0  0  0  0  0  0  0
   11.8913  -17.0901   29.2152 C   0  0  0  0  0  0  0  0  0  0  0  0
   11.6416  -16.5478   27.9805 C   0  0  0  0  0  0  0  0  0  0  0  0
   11.0131  -15.3016   27.8723 C   0  0  0  0  0  0  0  0  0  0  0  0
   10.7567  -14.6895   26.5559 C   0  0  0  0  0  0  0  0  0  0  0  0
   10.1585  -15.7019   25.6006 C   0  0  2  0  0  0  0  0  0  0  0  0
    9.6063  -15.0203   24.4305 N   0  0  0  0  0  0  0  0  0  0  0  0
    9.0842  -16.4266   26.2941 C   0  0  0  0  0  0  0  0  0  0  0  0
    7.9578  -15.9613   26.5988 O   0  0  0  0  0  0  0  0  0  0  0  0
   10.6791  -14.6880   29.0549 C   0  0  0  0  0  0  0  0  0  0  0  0
   10.9322  -15.2380   30.3045 C   0  0  0  0  0  0  0  0  0  0  0  0
    9.2867  -17.7490   26.6650 O   0  0  0  0  0  0  0  0  0  0  0  0
  2  1  1  0
  2  3  1  0
  3  4  2  0
  5  3  1  0
  5  6  1  0
  6  7  1  1
  8  7  1  0
  9  8  2  0
 10  9  1  0
 11 12  1  0
 11 10  2  0
 12 13  2  0
 13  8  1  0
 14  6  1  0
 14 15  2  0
 16 17  1  0
 17 27  2  0
 17 18  1  0
 18 19  2  0
 19 20  1  0
 20 21  1  0
 22 21  1  1
 22 23  1  0
 23 14  1  0
 24 28  1  0
 24 22  1  0
 25 24  2  0
 26 20  2  0
 27 26  1  0
M  END
$$$$
