GFY.pdb
     RDKit          3D

 28 29  0  0  1  0  0  0  0  0999 V2000
    5.7892  -20.3710   21.9474 N   0  0  0  0  0  0  0  0  0  0  0  0
    6.5614  -20.1299   23.1498 C   0  0  0  0  0  0  0  0  0  0  0  0
    6.9393  -18.7027   23.2669 C   0  0  0  0  0  0  0  0  0  0  0  0
    7.7005  -18.2236   22.3874 O   0  0  0  0  0  0  0  0  0  0  0  0
    6.4793  -17.8684   24.3221 N   0  0  0  0  0  0  0  0  0  0  0  0
    7.0178  -16.5616   24.5323 C   0  0  1  0  0  0  0  0  0  0  0  0
    6.1914  -15.7491   25.5118 C   0  0  0  0  0  0  0  0  0  0  0  0
    6.6070  -14.3385   25.5479 C   0  0  0  0  0  0  0  0  0  0  0  0
    6.8520  -13.7231   26.7729 C   0  0  0  0  0  0  0  0  0  0  0  0
    7.2447  -12.4030   26.8477 C   0  0  0  0  0  0  0  0  0  0  0  0
    7.4082  -11.6468   25.7080 C   0  0  0  0  0  0  0  0  0  0  0  0
    7.1668  -12.2519   24.4923 C   0  0  0  0  0  0  0  0  0  0  0  0
    6.7739  -13.5732   24.4207 C   0  0  0  0  0  0  0  0  0  0  0  0
    8.4403  -16.5324   24.9386 C   0  0  0  0  0  0  0  0  0  0  0  0
    8.9399  -17.2715   25.8249 O   0  0  0  0  0  0  0  0  0  0  0  0
   10.5936  -14.3466   30.8112 O   0  0  0  0  0  0  0  0  0  0  0  0
   10.7273  -14.9179   29.5532 C   0  0  0  0  0  0  0  0  0  0  0  0
   10.5924  -14.1424   28.4218 C   0  0  0  0  0  0  0  0  0  0  0  0
   10.7127  -14.6442   27.1511 C   0  0  0  0  0  0  0  0  0  0  0  0
   10.9849  -16.0029   26.9528 C   0  0  0  0  0  0  0  0  0  0  0  0
   11.0947  -16.5677   25.5956 C   0  0  0  0  0  0  0  0  0  0  0  0
   10.7238  -15.5335   24.5523 C   0  0  2  0  0  0  0  0  0  0  0  0
    9.2906  -15.5999   24.2693 N   0  0  0  0  0  0  0  0  0  0  0  0
   11.4767  -15.8147   23.3217 C   0  0  0  0  0  0  0  0  0  0  0  0
   12.7279  -15.8397   23.2118 O   0  0  0  0  0  0  0  0  0  0  0  0
   11.1168  -16.7652   28.0878 C   0  0  0  0  0  0  0  0  0  0  0  0
   10.9950  -16.2562   29.3740 C   0  0  0  0  0  0  0  0  0  0  0  0
   10.7845  -16.0841   22.1488 O   0  0  0  0  0  0  0  0  0  0  0  0
  2  1  1  0
  2  3  1  0
  3  4  2  0
  5  3  1  0
  5  6  1  0
  6  7  1  1
  8  7  1  0
  9  8  2  0
 10  9  1  0
 11 12  1  0
 11 10  2  0
 12 13  2  0
 13  8  1  0
 14  6  1  0
 14 15  2  0
 16 17  1  0
 17 27  2  0
 17 18  1  0
 18 19  2  0
 19 20  1  0
 20 21  1  0
 22 21  1  1
 22 23  1  0
 23 14  1  0
 24 28  1  0
 24 22  1  0
 25 24  2  0
 26 20  2  0
 27 26  1  0
M  END
$$$$
