GFY.pdb
     RDKit          3D

 28 29  0  0  1  0  0  0  0  0999 V2000
    5.5459  -17.7423   21.6337 N   0  0  0  0  0  0  0  0  0  0  0  0
    5.5443  -17.8811   23.0762 C   0  0  0  0  0  0  0  0  0  0  0  0
    6.7589  -17.2803   23.6739 C   0  0  0  0  0  0  0  0  0  0  0  0
    7.8193  -17.3059   22.9977 O   0  0  0  0  0  0  0  0  0  0  0  0
    6.7681  -16.6850   24.9649 N   0  0  0  0  0  0  0  0  0  0  0  0
    7.9888  -16.4242   25.6604 C   0  0  1  0  0  0  0  0  0  0  0  0
    7.8089  -15.4175   26.7814 C   0  0  0  0  0  0  0  0  0  0  0  0
    7.4559  -14.0827   26.2735 C   0  0  0  0  0  0  0  0  0  0  0  0
    8.4033  -13.3380   25.5755 C   0  0  0  0  0  0  0  0  0  0  0  0
    8.1098  -12.0837   25.0826 C   0  0  0  0  0  0  0  0  0  0  0  0
    6.8645  -11.5242   25.2654 C   0  0  0  0  0  0  0  0  0  0  0  0
    5.9227  -12.2579   25.9561 C   0  0  0  0  0  0  0  0  0  0  0  0
    6.2194  -13.5130   26.4482 C   0  0  0  0  0  0  0  0  0  0  0  0
    8.6793  -17.6261   26.1782 C   0  0  0  0  0  0  0  0  0  0  0  0
    8.1102  -18.5561   26.8046 O   0  0  0  0  0  0  0  0  0  0  0  0
   15.0996  -15.3545   23.1973 O   0  0  0  0  0  0  0  0  0  0  0  0
   14.2851  -16.3632   23.6935 C   0  0  0  0  0  0  0  0  0  0  0  0
   12.9826  -16.4793   23.2582 C   0  0  0  0  0  0  0  0  0  0  0  0
   12.1265  -17.4520   23.7077 C   0  0  0  0  0  0  0  0  0  0  0  0
   12.5591  -18.3894   24.6531 C   0  0  0  0  0  0  0  0  0  0  0  0
   11.6486  -19.4285   25.1674 C   0  0  0  0  0  0  0  0  0  0  0  0
   10.8466  -18.9058   26.3417 C   0  0  2  0  0  0  0  0  0  0  0  0
   10.0845  -17.7238   25.9407 N   0  0  0  0  0  0  0  0  0  0  0  0
   11.7747  -18.5434   27.4222 C   0  0  0  0  0  0  0  0  0  0  0  0
   11.9566  -17.3886   27.8821 O   0  0  0  0  0  0  0  0  0  0  0  0
   13.8588  -18.2630   25.0792 C   0  0  0  0  0  0  0  0  0  0  0  0
   14.7248  -17.2779   24.6233 C   0  0  0  0  0  0  0  0  0  0  0  0
   12.5408  -19.5348   28.0204 O   0  0  0  0  0  0  0  0  0  0  0  0
  2  1  1  0
  2  3  1  0
  3  4  2  0
  5  3  1  0
  5  6  1  0
  6  7  1  1
  8  7  1  0
  9  8  2  0
 10  9  1  0
 11 12  1  0
 11 10  2  0
 12 13  2  0
 13  8  1  0
 14  6  1  0
 14 15  2  0
 16 17  1  0
 17 27  2  0
 17 18  1  0
 18 19  2  0
 19 20  1  0
 20 21  1  0
 22 21  1  6
 22 23  1  0
 23 14  1  0
 24 28  1  0
 24 22  1  0
 25 24  2  0
 26 20  2  0
 27 26  1  0
M  END
$$$$
