GFY.pdb
     RDKit          3D

 28 29  0  0  1  0  0  0  0  0999 V2000
    7.0406  -20.2541   22.3124 N   0  0  0  0  0  0  0  0  0  0  0  0
    6.0724  -19.4723   23.0550 C   0  0  0  0  0  0  0  0  0  0  0  0
    6.5744  -18.1033   23.3143 C   0  0  0  0  0  0  0  0  0  0  0  0
    7.1900  -17.5188   22.3859 O   0  0  0  0  0  0  0  0  0  0  0  0
    6.3879  -17.4370   24.5562 N   0  0  0  0  0  0  0  0  0  0  0  0
    6.9037  -16.1244   24.7865 C   0  0  1  0  0  0  0  0  0  0  0  0
    6.0445  -15.3296   25.7523 C   0  0  0  0  0  0  0  0  0  0  0  0
    6.5126  -13.9423   25.8947 C   0  0  0  0  0  0  0  0  0  0  0  0
    6.7246  -13.1663   24.7579 C   0  0  0  0  0  0  0  0  0  0  0  0
    7.1615  -11.8613   24.8505 C   0  0  0  0  0  0  0  0  0  0  0  0
    7.4036  -11.2804   26.0758 C   0  0  0  0  0  0  0  0  0  0  0  0
    7.1950  -12.0451   27.2046 C   0  0  0  0  0  0  0  0  0  0  0  0
    6.7577  -13.3508   27.1088 C   0  0  0  0  0  0  0  0  0  0  0  0
    8.3162  -16.0786   25.2248 C   0  0  0  0  0  0  0  0  0  0  0  0
    8.6858  -15.8382   26.4024 O   0  0  0  0  0  0  0  0  0  0  0  0
   10.2026  -18.6341   30.4571 O   0  0  0  0  0  0  0  0  0  0  0  0
   10.4820  -18.3492   29.1276 C   0  0  0  0  0  0  0  0  0  0  0  0
    9.8542  -19.0514   28.1215 C   0  0  0  0  0  0  0  0  0  0  0  0
   10.0849  -18.8196   26.7896 C   0  0  0  0  0  0  0  0  0  0  0  0
   10.9938  -17.8314   26.3935 C   0  0  0  0  0  0  0  0  0  0  0  0
   11.2745  -17.5819   24.9679 C   0  0  0  0  0  0  0  0  0  0  0  0
   10.7403  -16.2288   24.5445 C   0  0  2  0  0  0  0  0  0  0  0  0
    9.3146  -16.3285   24.2342 N   0  0  0  0  0  0  0  0  0  0  0  0
   11.4696  -15.7880   23.3470 C   0  0  0  0  0  0  0  0  0  0  0  0
   10.9779  -15.6230   22.2029 O   0  0  0  0  0  0  0  0  0  0  0  0
   11.6132  -17.1388   27.4051 C   0  0  0  0  0  0  0  0  0  0  0  0
   11.3788  -17.3742   28.7534 C   0  0  0  0  0  0  0  0  0  0  0  0
   12.8279  -15.5162   23.4409 O   0  0  0  0  0  0  0  0  0  0  0  0
  2  1  1  0
  2  3  1  0
  3  4  2  0
  5  3  1  0
  5  6  1  0
  6  7  1  1
  8  7  1  0
  9  8  2  0
 10  9  1  0
 11 12  1  0
 11 10  2  0
 12 13  2  0
 13  8  1  0
 14  6  1  0
 14 15  2  0
 16 17  1  0
 17 27  2  0
 17 18  1  0
 18 19  2  0
 19 20  1  0
 20 21  1  0
 22 21  1  6
 22 23  1  0
 23 14  1  0
 24 28  1  0
 24 22  1  0
 25 24  2  0
 26 20  2  0
 27 26  1  0
M  END
$$$$
