EMS.pdb
     RDKit          3D

 24 23  0  0  1  0  0  0  0  0999 V2000
    8.7095  -15.3522   18.6791 N   0  0  0  0  0  0  0  0  0  0  0  0
    7.7353  -15.4617   19.7294 C   0  0  1  0  0  0  0  0  0  0  0  0
    7.1062  -16.8407   19.6974 C   0  0  0  0  0  0  0  0  0  0  0  0
    8.1322  -17.8826   20.1100 C   0  0  0  0  0  0  0  0  0  0  0  0
    7.5513  -19.2310   20.1231 C   0  0  0  0  0  0  0  0  0  0  0  0
    8.0837  -20.1427   20.8013 O   0  0  0  0  0  0  0  0  0  0  0  0
    8.3747  -15.2572   21.0675 C   0  0  0  0  0  0  0  0  0  0  0  0
    9.5897  -15.5060   21.2424 O   0  0  0  0  0  0  0  0  0  0  0  0
    6.4201  -19.4961   19.3898 O   0  0  0  0  0  0  0  0  0  0  0  0
    6.9325  -12.1261   28.2871 C   0  0  0  0  0  0  0  0  0  0  0  0
    6.2489  -12.4427   26.6193 S   0  0  0  0  0  0  0  0  0  0  0  0
    7.4859  -13.4458   25.7096 C   0  0  0  0  0  0  0  0  0  0  0  0
    7.0387  -13.6905   24.3068 C   0  0  0  0  0  0  0  0  0  0  0  0
    8.0108  -14.4864   23.4642 C   0  0  2  0  0  0  0  0  0  0  0  0
    7.6122  -14.7830   22.1375 N   0  0  0  0  0  0  0  0  0  0  0  0
    8.5540  -15.6030   24.2033 C   0  0  0  0  0  0  0  0  0  0  0  0
    7.8490  -16.6620   24.2801 O   0  0  0  0  0  0  0  0  0  0  0  0
   12.3400  -18.1029   25.6609 O   0  0  0  0  0  0  0  0  0  0  0  0
   11.8054  -16.9474   25.0675 C   0  0  0  0  0  0  0  0  0  0  0  0
   10.3129  -16.8763   25.4063 C   0  0  2  0  0  0  0  0  0  0  0  0
    9.8145  -15.6095   24.8508 N   0  0  0  0  0  0  0  0  0  0  0  0
   10.1328  -16.8609   26.8692 C   0  0  0  0  0  0  0  0  0  0  0  0
    9.6689  -15.8375   27.4407 O   0  0  0  0  0  0  0  0  0  0  0  0
   10.4790  -17.9870   27.6211 O   0  0  0  0  0  0  0  0  0  0  0  0
  2  1  1  6
  2  3  1  0
  4  5  1  0
  4  3  1  0
  5  6  2  0
  7 15  1  0
  7  2  1  0
  8  7  2  0
  9  5  1  0
 10 11  1  0
 11 12  1  0
 12 13  1  0
 14 13  1  1
 14 15  1  0
 16 21  1  0
 16 14  1  0
 17 16  2  0
 20 19  1  1
 19 18  1  0
 20 21  1  0
 20 22  1  0
 22 24  1  0
 23 22  2  0
M  END
$$$$
