EMS.pdb
     RDKit          3D

 24 23  0  0  1  0  0  0  0  0999 V2000
    8.3444  -14.2697   19.5462 N   0  0  0  0  0  0  0  0  0  0  0  0
    7.4673  -14.6339   20.6243 C   0  0  1  0  0  0  0  0  0  0  0  0
    6.7887  -15.9513   20.3045 C   0  0  0  0  0  0  0  0  0  0  0  0
    7.7542  -16.8588   19.5610 C   0  0  0  0  0  0  0  0  0  0  0  0
    7.1121  -18.1206   19.1719 C   0  0  0  0  0  0  0  0  0  0  0  0
    7.1395  -19.1090   19.9446 O   0  0  0  0  0  0  0  0  0  0  0  0
    8.2337  -14.7867   21.9012 C   0  0  0  0  0  0  0  0  0  0  0  0
    9.4570  -15.0553   21.8867 O   0  0  0  0  0  0  0  0  0  0  0  0
    6.4784  -18.2200   17.9570 O   0  0  0  0  0  0  0  0  0  0  0  0
    5.4482  -11.4964   26.5824 C   0  0  0  0  0  0  0  0  0  0  0  0
    7.1099  -11.7716   27.2981 S   0  0  0  0  0  0  0  0  0  0  0  0
    8.1098  -12.6357   26.0264 C   0  0  0  0  0  0  0  0  0  0  0  0
    7.3638  -13.8035   25.4718 C   0  0  0  0  0  0  0  0  0  0  0  0
    8.1226  -14.6031   24.4359 C   0  0  2  0  0  0  0  0  0  0  0  0
    7.5822  -14.6285   23.1266 N   0  0  0  0  0  0  0  0  0  0  0  0
    8.5238  -15.8899   24.9567 C   0  0  0  0  0  0  0  0  0  0  0  0
    7.6233  -16.7818   25.0907 O   0  0  0  0  0  0  0  0  0  0  0  0
   12.2606  -17.1999   24.9030 O   0  0  0  0  0  0  0  0  0  0  0  0
   11.2450  -18.1666   24.9883 C   0  0  0  0  0  0  0  0  0  0  0  0
   10.1021  -17.5940   25.8328 C   0  0  2  0  0  0  0  0  0  0  0  0
    9.8462  -16.2361   25.3304 N   0  0  0  0  0  0  0  0  0  0  0  0
   10.5169  -17.5114   27.2448 C   0  0  0  0  0  0  0  0  0  0  0  0
   10.5348  -16.3987   27.8369 O   0  0  0  0  0  0  0  0  0  0  0  0
   10.8911  -18.6734   27.9254 O   0  0  0  0  0  0  0  0  0  0  0  0
  2  1  1  6
  2  3  1  0
  4  5  1  0
  4  3  1  0
  5  6  2  0
  7 15  1  0
  7  2  1  0
  8  7  2  0
  9  5  1  0
 10 11  1  0
 11 12  1  0
 12 13  1  0
 14 13  1  1
 14 15  1  0
 16 21  1  0
 16 14  1  0
 17 16  2  0
 20 19  1  6
 19 18  1  0
 20 21  1  0
 20 22  1  0
 22 24  1  0
 23 22  2  0
M  END
$$$$
