EMS.pdb
     RDKit          3D

 24 23  0  0  1  0  0  0  0  0999 V2000
    7.8914  -16.7437   20.2850 N   0  0  0  0  0  0  0  0  0  0  0  0
    9.2159  -17.1146   20.7001 C   0  0  1  0  0  0  0  0  0  0  0  0
   10.2111  -16.7388   19.6199 C   0  0  0  0  0  0  0  0  0  0  0  0
    9.4825  -16.5186   18.3049 C   0  0  0  0  0  0  0  0  0  0  0  0
   10.1531  -17.2119   17.1979 C   0  0  0  0  0  0  0  0  0  0  0  0
    9.8210  -18.3824   16.8907 O   0  0  0  0  0  0  0  0  0  0  0  0
    9.5913  -16.4075   21.9651 C   0  0  0  0  0  0  0  0  0  0  0  0
   10.7921  -16.2867   22.3003 O   0  0  0  0  0  0  0  0  0  0  0  0
   11.1484  -16.5769   16.4953 O   0  0  0  0  0  0  0  0  0  0  0  0
    6.9348  -11.7063   27.8058 C   0  0  0  0  0  0  0  0  0  0  0  0
    6.5979  -12.3820   26.1387 S   0  0  0  0  0  0  0  0  0  0  0  0
    7.8382  -13.6969   25.8278 C   0  0  0  0  0  0  0  0  0  0  0  0
    7.6969  -14.2395   24.4446 C   0  0  0  0  0  0  0  0  0  0  0  0
    8.7023  -15.3097   24.0806 C   0  0  2  0  0  0  0  0  0  0  0  0
    8.5948  -15.8734   22.7854 N   0  0  0  0  0  0  0  0  0  0  0  0
    8.8621  -16.2659   25.1521 C   0  0  0  0  0  0  0  0  0  0  0  0
    7.8551  -16.9837   25.4608 O   0  0  0  0  0  0  0  0  0  0  0  0
   12.2063  -18.0114   25.9158 O   0  0  0  0  0  0  0  0  0  0  0  0
   11.0217  -18.6222   26.3593 C   0  0  0  0  0  0  0  0  0  0  0  0
   10.0889  -17.5331   26.8989 C   0  0  2  0  0  0  0  0  0  0  0  0
   10.0568  -16.4666   25.8874 N   0  0  0  0  0  0  0  0  0  0  0  0
   10.6338  -16.9855   28.1543 C   0  0  0  0  0  0  0  0  0  0  0  0
   10.9709  -15.7728   28.2242 O   0  0  0  0  0  0  0  0  0  0  0  0
   10.7755  -17.8175   29.2684 O   0  0  0  0  0  0  0  0  0  0  0  0
  2  1  1  6
  2  3  1  0
  4  5  1  0
  4  3  1  0
  5  6  2  0
  7 15  1  0
  7  2  1  0
  8  7  2  0
  9  5  1  0
 10 11  1  0
 11 12  1  0
 12 13  1  0
 14 13  1  1
 14 15  1  0
 16 21  1  0
 16 14  1  0
 17 16  2  0
 20 19  1  6
 19 18  1  0
 20 21  1  0
 20 22  1  0
 22 24  1  0
 23 22  2  0
M  END
$$$$
