EMS.pdb
     RDKit          3D

 24 23  0  0  1  0  0  0  0  0999 V2000
    8.3402  -13.5376   19.1332 N   0  0  0  0  0  0  0  0  0  0  0  0
    7.4663  -14.0018   20.1748 C   0  0  1  0  0  0  0  0  0  0  0  0
    6.8566  -15.3302   19.7724 C   0  0  0  0  0  0  0  0  0  0  0  0
    7.9589  -16.3423   19.5095 C   0  0  0  0  0  0  0  0  0  0  0  0
    7.4071  -17.6554   19.1533 C   0  0  0  0  0  0  0  0  0  0  0  0
    6.8573  -18.3688   20.0270 O   0  0  0  0  0  0  0  0  0  0  0  0
    8.2208  -14.1883   21.4543 C   0  0  0  0  0  0  0  0  0  0  0  0
    9.4275  -14.5238   21.4442 O   0  0  0  0  0  0  0  0  0  0  0  0
    7.4927  -18.1054   17.8580 O   0  0  0  0  0  0  0  0  0  0  0  0
    5.7131  -11.3850   26.6144 C   0  0  0  0  0  0  0  0  0  0  0  0
    7.0362  -12.2093   27.5731 S   0  0  0  0  0  0  0  0  0  0  0  0
    7.9950  -13.2389   26.3964 C   0  0  0  0  0  0  0  0  0  0  0  0
    7.4003  -13.1706   25.0291 C   0  0  0  0  0  0  0  0  0  0  0  0
    8.1105  -14.0090   23.9893 C   0  0  2  0  0  0  0  0  0  0  0  0
    7.5767  -13.9869   22.6773 N   0  0  0  0  0  0  0  0  0  0  0  0
    8.4231  -15.3242   24.4999 C   0  0  0  0  0  0  0  0  0  0  0  0
    7.4780  -16.1772   24.5585 O   0  0  0  0  0  0  0  0  0  0  0  0
   11.4144  -18.9364   25.2692 O   0  0  0  0  0  0  0  0  0  0  0  0
   11.2006  -17.6219   24.8227 C   0  0  0  0  0  0  0  0  0  0  0  0
    9.8745  -17.1229   25.4057 C   0  0  2  0  0  0  0  0  0  0  0  0
    9.7045  -15.7383   24.9414 N   0  0  0  0  0  0  0  0  0  0  0  0
    9.9422  -17.1289   26.8781 C   0  0  0  0  0  0  0  0  0  0  0  0
    9.9866  -16.0423   27.5157 O   0  0  0  0  0  0  0  0  0  0  0  0
    9.9573  -18.3457   27.5654 O   0  0  0  0  0  0  0  0  0  0  0  0
  2  1  1  6
  2  3  1  0
  4  5  1  0
  4  3  1  0
  5  6  2  0
  7 15  1  0
  7  2  1  0
  8  7  2  0
  9  5  1  0
 10 11  1  0
 11 12  1  0
 12 13  1  0
 14 13  1  1
 14 15  1  0
 16 21  1  0
 16 14  1  0
 17 16  2  0
 20 19  1  6
 19 18  1  0
 20 21  1  0
 20 22  1  0
 22 24  1  0
 23 22  2  0
M  END
$$$$
