EMS.pdb
     RDKit          3D

 24 23  0  0  1  0  0  0  0  0999 V2000
    9.7582  -15.3051   19.9925 N   0  0  0  0  0  0  0  0  0  0  0  0
    8.8128  -15.9204   20.8823 C   0  0  1  0  0  0  0  0  0  0  0  0
    8.7286  -17.4051   20.5869 C   0  0  0  0  0  0  0  0  0  0  0  0
    9.2531  -17.6805   19.1877 C   0  0  0  0  0  0  0  0  0  0  0  0
    9.5528  -19.1053   18.9985 C   0  0  0  0  0  0  0  0  0  0  0  0
   10.4549  -19.6572   19.6741 O   0  0  0  0  0  0  0  0  0  0  0  0
    9.2321  -15.7382   22.3079 C   0  0  0  0  0  0  0  0  0  0  0  0
   10.4407  -15.7899   22.6325 O   0  0  0  0  0  0  0  0  0  0  0  0
    8.8429  -19.8378   18.0782 O   0  0  0  0  0  0  0  0  0  0  0  0
    7.0365  -11.2808   27.2025 C   0  0  0  0  0  0  0  0  0  0  0  0
    6.0754  -12.1894   25.9376 S   0  0  0  0  0  0  0  0  0  0  0  0
    7.2755  -13.1344   24.9224 C   0  0  0  0  0  0  0  0  0  0  0  0
    7.4009  -14.5356   25.4211 C   0  0  0  0  0  0  0  0  0  0  0  0
    8.4279  -15.3750   24.6936 C   0  0  2  0  0  0  0  0  0  0  0  0
    8.2684  -15.5070   23.2922 N   0  0  0  0  0  0  0  0  0  0  0  0
    8.6911  -16.6090   25.3979 C   0  0  0  0  0  0  0  0  0  0  0  0
    8.0951  -17.6606   24.9938 O   0  0  0  0  0  0  0  0  0  0  0  0
   12.0959  -19.1818   25.5728 O   0  0  0  0  0  0  0  0  0  0  0  0
   11.2652  -18.0585   25.4271 C   0  0  0  0  0  0  0  0  0  0  0  0
   10.3422  -17.9782   26.6473 C   0  0  2  0  0  0  0  0  0  0  0  0
    9.5642  -16.7387   26.5065 N   0  0  0  0  0  0  0  0  0  0  0  0
   11.1480  -17.9000   27.8791 C   0  0  0  0  0  0  0  0  0  0  0  0
   11.8611  -18.8770   28.2340 O   0  0  0  0  0  0  0  0  0  0  0  0
   11.1179  -16.7367   28.6532 O   0  0  0  0  0  0  0  0  0  0  0  0
  2  1  1  6
  2  3  1  0
  4  5  1  0
  4  3  1  0
  5  6  2  0
  7 15  1  0
  7  2  1  0
  8  7  2  0
  9  5  1  0
 10 11  1  0
 11 12  1  0
 12 13  1  0
 14 13  1  1
 14 15  1  0
 16 21  1  0
 16 14  1  0
 17 16  2  0
 20 19  1  6
 19 18  1  0
 20 21  1  0
 20 22  1  0
 22 24  1  0
 23 22  2  0
M  END
$$$$
