EMS.pdb
     RDKit          3D

 24 23  0  0  1  0  0  0  0  0999 V2000
    8.3721  -14.2254   19.8206 N   0  0  0  0  0  0  0  0  0  0  0  0
    7.6186  -14.9483   20.8074 C   0  0  1  0  0  0  0  0  0  0  0  0
    7.3389  -16.3515   20.3059 C   0  0  0  0  0  0  0  0  0  0  0  0
    8.1841  -16.6347   19.0754 C   0  0  0  0  0  0  0  0  0  0  0  0
    7.9274  -17.9803   18.5470 C   0  0  0  0  0  0  0  0  0  0  0  0
    7.3094  -18.1279   17.4650 O   0  0  0  0  0  0  0  0  0  0  0  0
    8.3816  -15.0413   22.0921 C   0  0  0  0  0  0  0  0  0  0  0  0
    9.6278  -15.1663   22.0902 O   0  0  0  0  0  0  0  0  0  0  0  0
    8.3657  -19.0828   19.2399 O   0  0  0  0  0  0  0  0  0  0  0  0
    6.3347  -10.2128   26.5150 C   0  0  0  0  0  0  0  0  0  0  0  0
    6.1707  -12.0288   26.6713 S   0  0  0  0  0  0  0  0  0  0  0  0
    7.3859  -12.7822   25.5226 C   0  0  0  0  0  0  0  0  0  0  0  0
    7.4139  -14.2659   25.6822 C   0  0  0  0  0  0  0  0  0  0  0  0
    8.2165  -14.9989   24.6301 C   0  0  2  0  0  0  0  0  0  0  0  0
    7.7009  -14.9883   23.3106 N   0  0  0  0  0  0  0  0  0  0  0  0
    8.6491  -16.2926   25.1069 C   0  0  0  0  0  0  0  0  0  0  0  0
    7.7984  -17.2417   25.0995 O   0  0  0  0  0  0  0  0  0  0  0  0
   12.4184  -17.4498   25.2634 O   0  0  0  0  0  0  0  0  0  0  0  0
   11.4383  -18.4559   25.2758 C   0  0  0  0  0  0  0  0  0  0  0  0
   10.2314  -17.9454   26.0697 C   0  0  2  0  0  0  0  0  0  0  0  0
    9.9510  -16.5867   25.5831 N   0  0  0  0  0  0  0  0  0  0  0  0
   10.5676  -17.8803   27.5034 C   0  0  0  0  0  0  0  0  0  0  0  0
   10.5452  -16.7759   28.1109 O   0  0  0  0  0  0  0  0  0  0  0  0
   10.9120  -19.0494   28.1873 O   0  0  0  0  0  0  0  0  0  0  0  0
  2  1  1  6
  2  3  1  0
  4  5  1  0
  4  3  1  0
  5  6  2  0
  7 15  1  0
  7  2  1  0
  8  7  2  0
  9  5  1  0
 10 11  1  0
 11 12  1  0
 12 13  1  0
 14 13  1  1
 14 15  1  0
 16 21  1  0
 16 14  1  0
 17 16  2  0
 20 19  1  6
 19 18  1  0
 20 21  1  0
 20 22  1  0
 22 24  1  0
 23 22  2  0
M  END
$$$$
