EMS.pdb
     RDKit          3D

 24 23  0  0  1  0  0  0  0  0999 V2000
    8.5812  -12.8753   18.7341 N   0  0  0  0  0  0  0  0  0  0  0  0
    7.6139  -13.4443   19.6313 C   0  0  1  0  0  0  0  0  0  0  0  0
    7.0723  -14.7328   19.0442 C   0  0  0  0  0  0  0  0  0  0  0  0
    8.1940  -15.7496   18.9154 C   0  0  0  0  0  0  0  0  0  0  0  0
    7.6812  -17.0654   18.5136 C   0  0  0  0  0  0  0  0  0  0  0  0
    6.4632  -17.2169   18.2525 O   0  0  0  0  0  0  0  0  0  0  0  0
    8.2371  -13.7467   20.9585 C   0  0  0  0  0  0  0  0  0  0  0  0
    9.4547  -14.0265   21.0464 O   0  0  0  0  0  0  0  0  0  0  0  0
    8.5382  -18.1354   18.4228 O   0  0  0  0  0  0  0  0  0  0  0  0
    7.4265  -12.1417   28.6105 C   0  0  0  0  0  0  0  0  0  0  0  0
    6.4707  -12.3167   27.0597 S   0  0  0  0  0  0  0  0  0  0  0  0
    7.4826  -13.3284   25.9123 C   0  0  0  0  0  0  0  0  0  0  0  0
    6.9907  -13.1876   24.5102 C   0  0  0  0  0  0  0  0  0  0  0  0
    7.8471  -13.8737   23.4689 C   0  0  2  0  0  0  0  0  0  0  0  0
    7.4562  -13.7174   22.1163 N   0  0  0  0  0  0  0  0  0  0  0  0
    8.1656  -15.2277   23.8606 C   0  0  0  0  0  0  0  0  0  0  0  0
    7.2371  -16.0981   23.7931 O   0  0  0  0  0  0  0  0  0  0  0  0
   11.7201  -16.8235   23.6631 O   0  0  0  0  0  0  0  0  0  0  0  0
   10.6144  -17.6852   23.7518 C   0  0  0  0  0  0  0  0  0  0  0  0
    9.5961  -17.0675   24.7155 C   0  0  2  0  0  0  0  0  0  0  0  0
    9.4356  -15.6620   24.3152 N   0  0  0  0  0  0  0  0  0  0  0  0
   10.1186  -17.1159   26.0930 C   0  0  0  0  0  0  0  0  0  0  0  0
   10.4266  -18.2206   26.6164 O   0  0  0  0  0  0  0  0  0  0  0  0
   10.2712  -15.9305   26.8175 O   0  0  0  0  0  0  0  0  0  0  0  0
  2  1  1  6
  2  3  1  0
  4  5  1  0
  4  3  1  0
  5  6  2  0
  7 15  1  0
  7  2  1  0
  8  7  2  0
  9  5  1  0
 10 11  1  0
 11 12  1  0
 12 13  1  0
 14 13  1  1
 14 15  1  0
 16 21  1  0
 16 14  1  0
 17 16  2  0
 20 19  1  6
 19 18  1  0
 20 21  1  0
 20 22  1  0
 22 24  1  0
 23 22  2  0
M  END
$$$$
