EMS.pdb
     RDKit          3D

 24 23  0  0  1  0  0  0  0  0999 V2000
    8.4592  -14.4811   19.3895 N   0  0  0  0  0  0  0  0  0  0  0  0
    7.5738  -14.9265   20.4296 C   0  0  1  0  0  0  0  0  0  0  0  0
    6.9492  -16.2499   20.0333 C   0  0  0  0  0  0  0  0  0  0  0  0
    7.9934  -17.3515   20.1026 C   0  0  0  0  0  0  0  0  0  0  0  0
    7.4480  -18.6363   19.6469 C   0  0  0  0  0  0  0  0  0  0  0  0
    6.3499  -18.6783   19.0412 O   0  0  0  0  0  0  0  0  0  0  0  0
    8.3189  -15.1136   21.7145 C   0  0  0  0  0  0  0  0  0  0  0  0
    9.5288  -15.4377   21.7130 O   0  0  0  0  0  0  0  0  0  0  0  0
    8.1427  -19.7976   19.8844 O   0  0  0  0  0  0  0  0  0  0  0  0
    6.5429  -10.5315   26.8201 C   0  0  0  0  0  0  0  0  0  0  0  0
    6.4102  -12.3566   26.8450 S   0  0  0  0  0  0  0  0  0  0  0  0
    7.3095  -12.9840   25.3748 C   0  0  0  0  0  0  0  0  0  0  0  0
    7.3296  -14.4764   25.3653 C   0  0  0  0  0  0  0  0  0  0  0  0
    8.1509  -15.0895   24.2526 C   0  0  2  0  0  0  0  0  0  0  0  0
    7.6624  -14.9253   22.9330 N   0  0  0  0  0  0  0  0  0  0  0  0
    8.5687  -16.4318   24.5872 C   0  0  0  0  0  0  0  0  0  0  0  0
    7.9346  -17.4001   24.0536 O   0  0  0  0  0  0  0  0  0  0  0  0
   11.8452  -19.0900   23.7613 O   0  0  0  0  0  0  0  0  0  0  0  0
   11.1117  -17.9078   23.9552 C   0  0  0  0  0  0  0  0  0  0  0  0
   10.3418  -18.0274   25.2744 C   0  0  2  0  0  0  0  0  0  0  0  0
    9.6330  -16.7536   25.4657 N   0  0  0  0  0  0  0  0  0  0  0  0
   11.2869  -18.2211   26.3888 C   0  0  0  0  0  0  0  0  0  0  0  0
   12.0087  -19.2535   26.4365 O   0  0  0  0  0  0  0  0  0  0  0  0
   11.3796  -17.2542   27.3938 O   0  0  0  0  0  0  0  0  0  0  0  0
  2  1  1  6
  2  3  1  0
  4  5  1  0
  4  3  1  0
  5  6  2  0
  7 15  1  0
  7  2  1  0
  8  7  2  0
  9  5  1  0
 10 11  1  0
 11 12  1  0
 12 13  1  0
 14 13  1  1
 14 15  1  0
 16 21  1  0
 16 14  1  0
 17 16  2  0
 20 19  1  6
 19 18  1  0
 20 21  1  0
 20 22  1  0
 22 24  1  0
 23 22  2  0
M  END
$$$$
