FFC.pdb
     RDKit          3D

 29 30  0  0  1  0  0  0  0  0999 V2000
   21.9651  -24.6927  -18.8968 N   0  0  0  0  0  0  0  0  0  0  0  0
   21.5061  -23.7526  -17.8949 C   0  0  1  0  0  0  0  0  0  0  0  0
   20.4718  -22.8684  -18.5584 C   0  0  0  0  0  0  0  0  0  0  0  0
   21.1450  -21.9931  -19.5309 C   0  0  0  0  0  0  0  0  0  0  0  0
   21.8645  -20.8725  -19.1208 C   0  0  0  0  0  0  0  0  0  0  0  0
   22.4894  -20.0628  -20.0450 C   0  0  0  0  0  0  0  0  0  0  0  0
   22.4083  -20.3557  -21.3958 C   0  0  0  0  0  0  0  0  0  0  0  0
   21.6991  -21.4633  -21.8232 C   0  0  0  0  0  0  0  0  0  0  0  0
   21.0751  -22.2673  -20.8651 C   0  0  0  0  0  0  0  0  0  0  0  0
   20.9773  -24.4786  -16.7392 C   0  0  0  0  0  0  0  0  0  0  0  0
   20.4473  -25.6018  -16.9075 O   0  0  0  0  0  0  0  0  0  0  0  0
   21.0261  -23.9812  -15.4023 N   0  0  0  0  0  0  0  0  0  0  0  0
   20.5583  -24.7591  -14.2576 C   0  0  1  0  0  0  0  0  0  0  0  0
   21.2045  -24.2711  -12.9793 C   0  0  0  0  0  0  0  0  0  0  0  0
   20.7210  -24.9734  -11.7682 C   0  0  0  0  0  0  0  0  0  0  0  0
   21.1830  -26.2585  -11.4792 C   0  0  0  0  0  0  0  0  0  0  0  0
   20.7248  -26.8687  -10.3575 C   0  0  0  0  0  0  0  0  0  0  0  0
   19.8272  -26.2665   -9.5036 C   0  0  0  0  0  0  0  0  0  0  0  0
   19.3638  -24.9957   -9.7797 C   0  0  0  0  0  0  0  0  0  0  0  0
   19.8114  -24.3494  -10.9126 C   0  0  0  0  0  0  0  0  0  0  0  0
   19.0779  -24.6670  -14.2169 C   0  0  0  0  0  0  0  0  0  0  0  0
   18.4637  -23.5787  -14.3761 O   0  0  0  0  0  0  0  0  0  0  0  0
   18.2794  -25.8271  -13.9920 N   0  0  0  0  0  0  0  0  0  0  0  0
   16.8625  -25.6958  -13.7856 C   0  0  1  0  0  0  0  0  0  0  0  0
   16.1060  -25.4575  -15.0712 C   0  0  0  0  0  0  0  0  0  0  0  0
   16.6988  -26.6789  -16.2780 S   0  0  0  0  0  0  0  0  0  0  0  0
   16.3531  -26.9329  -13.1471 C   0  0  0  0  0  0  0  0  0  0  0  0
   17.1347  -27.9084  -12.9462 O   0  0  0  0  0  0  0  0  0  0  0  0
   15.0444  -27.0572  -12.7614 O   0  0  0  0  0  0  0  0  0  0  0  0
  2  1  1  6
  2 10  1  0
  3  2  1  0
  3  4  1  0
  4  9  1  0
  4  5  2  0
  5  6  1  0
  6  7  2  0
  8  7  1  0
  9  8  2  0
 10 11  2  0
 12 10  1  0
 12 13  1  0
 13 21  1  0
 13 14  1  1
 14 15  1  0
 15 16  2  0
 16 17  1  0
 18 17  2  0
 19 18  1  0
 20 15  1  0
 20 19  2  0
 21 22  2  0
 23 24  1  0
 23 21  1  0
 24 27  1  0
 24 25  1  6
 26 25  1  0
 27 28  2  0
 27 29  1  0
M  END
$$$$
