FFC.pdb
     RDKit          3D

 29 30  0  0  1  0  0  0  0  0999 V2000
   25.3767  -19.2927   -7.5370 N   0  0  0  0  0  0  0  0  0  0  0  0
   26.4983  -19.8628   -8.2548 C   0  0  1  0  0  0  0  0  0  0  0  0
   26.9355  -21.0928   -7.4883 C   0  0  0  0  0  0  0  0  0  0  0  0
   27.6455  -20.6694   -6.2710 C   0  0  0  0  0  0  0  0  0  0  0  0
   26.9777  -20.5208   -5.0571 C   0  0  0  0  0  0  0  0  0  0  0  0
   27.6580  -20.1234   -3.9259 C   0  0  0  0  0  0  0  0  0  0  0  0
   29.0172  -19.8666   -3.9843 C   0  0  0  0  0  0  0  0  0  0  0  0
   29.6983  -20.0081   -5.1795 C   0  0  0  0  0  0  0  0  0  0  0  0
   28.9844  -20.4124   -6.3112 C   0  0  0  0  0  0  0  0  0  0  0  0
   26.1051  -20.1608   -9.6329 C   0  0  0  0  0  0  0  0  0  0  0  0
   24.9003  -20.3865   -9.8943 O   0  0  0  0  0  0  0  0  0  0  0  0
   27.0236  -20.2126  -10.7242 N   0  0  0  0  0  0  0  0  0  0  0  0
   26.7063  -19.6718  -12.0438 C   0  0  1  0  0  0  0  0  0  0  0  0
   27.9680  -19.2597  -12.7703 C   0  0  0  0  0  0  0  0  0  0  0  0
   27.7296  -18.8216  -14.1650 C   0  0  0  0  0  0  0  0  0  0  0  0
   27.9797  -19.6993  -15.2213 C   0  0  0  0  0  0  0  0  0  0  0  0
   27.7428  -19.2671  -16.4853 C   0  0  0  0  0  0  0  0  0  0  0  0
   27.2682  -18.0027  -16.7564 C   0  0  0  0  0  0  0  0  0  0  0  0
   27.0174  -17.1267  -15.7194 C   0  0  0  0  0  0  0  0  0  0  0  0
   27.2484  -17.5370  -14.4234 C   0  0  0  0  0  0  0  0  0  0  0  0
   25.9337  -20.6992  -12.7849 C   0  0  0  0  0  0  0  0  0  0  0  0
   26.2141  -21.9262  -12.7297 O   0  0  0  0  0  0  0  0  0  0  0  0
   24.8248  -20.3309  -13.6026 N   0  0  0  0  0  0  0  0  0  0  0  0
   24.0709  -21.3439  -14.2904 C   0  0  1  0  0  0  0  0  0  0  0  0
   23.1670  -22.1257  -13.3664 C   0  0  0  0  0  0  0  0  0  0  0  0
   21.9937  -20.9460  -12.6373 S   0  0  0  0  0  0  0  0  0  0  0  0
   23.2474  -20.6996  -15.3412 C   0  0  0  0  0  0  0  0  0  0  0  0
   23.1670  -19.4373  -15.3960 O   0  0  0  0  0  0  0  0  0  0  0  0
   22.5599  -21.4365  -16.2693 O   0  0  0  0  0  0  0  0  0  0  0  0
  2  1  1  1
  2 10  1  0
  3  2  1  0
  3  4  1  0
  4  9  1  0
  4  5  2  0
  5  6  1  0
  6  7  2  0
  8  7  1  0
  9  8  2  0
 10 11  2  0
 12 10  1  0
 12 13  1  0
 13 21  1  0
 13 14  1  6
 14 15  1  0
 15 16  2  0
 16 17  1  0
 18 17  2  0
 19 18  1  0
 20 15  1  0
 20 19  2  0
 21 22  2  0
 23 24  1  0
 23 21  1  0
 24 27  1  0
 24 25  1  1
 26 25  1  0
 27 28  2  0
 27 29  1  0
M  END
$$$$
