FFC.pdb
     RDKit          3D

 29 30  0  0  1  0  0  0  0  0999 V2000
   26.5427  -16.6661  -17.9100 N   0  0  0  0  0  0  0  0  0  0  0  0
   27.1210  -17.6814  -17.0539 C   0  0  1  0  0  0  0  0  0  0  0  0
   28.3853  -17.0948  -16.4630 C   0  0  0  0  0  0  0  0  0  0  0  0
   29.3985  -16.9781  -17.5236 C   0  0  0  0  0  0  0  0  0  0  0  0
   29.9937  -18.1062  -18.0846 C   0  0  0  0  0  0  0  0  0  0  0  0
   30.9414  -17.9792  -19.0776 C   0  0  0  0  0  0  0  0  0  0  0  0
   31.3133  -16.7245  -19.5297 C   0  0  0  0  0  0  0  0  0  0  0  0
   30.7344  -15.5925  -18.9858 C   0  0  0  0  0  0  0  0  0  0  0  0
   29.7762  -15.7497  -17.9803 C   0  0  0  0  0  0  0  0  0  0  0  0
   26.1496  -18.0829  -16.0352 C   0  0  0  0  0  0  0  0  0  0  0  0
   25.5568  -17.2025  -15.3686 O   0  0  0  0  0  0  0  0  0  0  0  0
   25.8248  -19.4418  -15.7436 N   0  0  0  0  0  0  0  0  0  0  0  0
   24.8409  -19.8138  -14.7297 C   0  0  1  0  0  0  0  0  0  0  0  0
   23.7444  -20.6631  -15.3348 C   0  0  0  0  0  0  0  0  0  0  0  0
   22.7549  -21.1436  -14.3430 C   0  0  0  0  0  0  0  0  0  0  0  0
   21.6879  -20.3234  -13.9725 C   0  0  0  0  0  0  0  0  0  0  0  0
   20.7963  -20.7989  -13.0672 C   0  0  0  0  0  0  0  0  0  0  0  0
   20.9096  -22.0526  -12.5078 C   0  0  0  0  0  0  0  0  0  0  0  0
   21.9608  -22.8721  -12.8672 C   0  0  0  0  0  0  0  0  0  0  0  0
   22.8834  -22.4168  -13.7852 C   0  0  0  0  0  0  0  0  0  0  0  0
   25.5569  -20.5086  -13.6314 C   0  0  0  0  0  0  0  0  0  0  0  0
   26.4111  -21.4095  -13.8449 O   0  0  0  0  0  0  0  0  0  0  0  0
   25.3012  -20.1774  -12.2679 N   0  0  0  0  0  0  0  0  0  0  0  0
   25.8033  -21.0205  -11.2170 C   0  0  1  0  0  0  0  0  0  0  0  0
   26.9233  -20.3740  -10.4362 C   0  0  0  0  0  0  0  0  0  0  0  0
   27.2503  -21.4276   -8.9931 S   0  0  0  0  0  0  0  0  0  0  0  0
   24.6930  -21.3459  -10.2901 C   0  0  0  0  0  0  0  0  0  0  0  0
   23.7142  -20.5516  -10.1728 O   0  0  0  0  0  0  0  0  0  0  0  0
   24.6914  -22.4955   -9.5449 O   0  0  0  0  0  0  0  0  0  0  0  0
  2  1  1  6
  2 10  1  0
  3  2  1  0
  3  4  1  0
  4  9  1  0
  4  5  2  0
  5  6  1  0
  6  7  2  0
  8  7  1  0
  9  8  2  0
 10 11  2  0
 12 10  1  0
 12 13  1  0
 13 21  1  0
 13 14  1  6
 14 15  1  0
 15 16  2  0
 16 17  1  0
 18 17  2  0
 19 18  1  0
 20 15  1  0
 20 19  2  0
 21 22  2  0
 23 24  1  0
 23 21  1  0
 24 27  1  0
 24 25  1  1
 26 25  1  0
 27 28  2  0
 27 29  1  0
M  END
$$$$
