FFC.pdb
     RDKit          3D

 29 30  0  0  1  0  0  0  0  0999 V2000
   34.6879  -30.3867  -18.1749 N   0  0  0  0  0  0  0  0  0  0  0  0
   33.4359  -30.2851  -18.8962 C   0  0  1  0  0  0  0  0  0  0  0  0
   33.6621  -30.8940  -20.2636 C   0  0  0  0  0  0  0  0  0  0  0  0
   34.5785  -30.0307  -21.0251 C   0  0  0  0  0  0  0  0  0  0  0  0
   34.1238  -28.8837  -21.6725 C   0  0  0  0  0  0  0  0  0  0  0  0
   34.9958  -28.0857  -22.3818 C   0  0  0  0  0  0  0  0  0  0  0  0
   36.3379  -28.4169  -22.4587 C   0  0  0  0  0  0  0  0  0  0  0  0
   36.8092  -29.5512  -21.8232 C   0  0  0  0  0  0  0  0  0  0  0  0
   35.9035  -30.3425  -21.1108 C   0  0  0  0  0  0  0  0  0  0  0  0
   32.3743  -30.9548  -18.1433 C   0  0  0  0  0  0  0  0  0  0  0  0
   32.5677  -31.2573  -16.9425 O   0  0  0  0  0  0  0  0  0  0  0  0
   31.1038  -31.2942  -18.6983 N   0  0  0  0  0  0  0  0  0  0  0  0
   30.0456  -31.9224  -17.9109 C   0  0  1  0  0  0  0  0  0  0  0  0
   29.6028  -31.0114  -16.7868 C   0  0  0  0  0  0  0  0  0  0  0  0
   28.5217  -31.5855  -15.9529 C   0  0  0  0  0  0  0  0  0  0  0  0
   28.8418  -32.3866  -14.8554 C   0  0  0  0  0  0  0  0  0  0  0  0
   27.8264  -32.8895  -14.1093 C   0  0  0  0  0  0  0  0  0  0  0  0
   26.5033  -32.6372  -14.3976 C   0  0  0  0  0  0  0  0  0  0  0  0
   26.1755  -31.8462  -15.4804 C   0  0  0  0  0  0  0  0  0  0  0  0
   27.1856  -31.3204  -16.2579 C   0  0  0  0  0  0  0  0  0  0  0  0
   28.9352  -32.2689  -18.8322 C   0  0  0  0  0  0  0  0  0  0  0  0
   28.4214  -31.4287  -19.6177 O   0  0  0  0  0  0  0  0  0  0  0  0
   28.3975  -33.5894  -18.8644 N   0  0  0  0  0  0  0  0  0  0  0  0
   27.3405  -33.9131  -19.7838 C   0  0  1  0  0  0  0  0  0  0  0  0
   26.8760  -35.3449  -19.6571 C   0  0  0  0  0  0  0  0  0  0  0  0
   28.3329  -36.4050  -19.8883 S   0  0  0  0  0  0  0  0  0  0  0  0
   26.1927  -33.0087  -19.5343 C   0  0  0  0  0  0  0  0  0  0  0  0
   25.6351  -32.9939  -18.3977 O   0  0  0  0  0  0  0  0  0  0  0  0
   25.7081  -32.1756  -20.5080 O   0  0  0  0  0  0  0  0  0  0  0  0
  2  1  1  1
  2 10  1  0
  3  2  1  0
  3  4  1  0
  4  9  1  0
  4  5  2  0
  5  6  1  0
  6  7  2  0
  8  7  1  0
  9  8  2  0
 10 11  2  0
 12 10  1  0
 12 13  1  0
 13 21  1  0
 13 14  1  1
 14 15  1  0
 15 16  2  0
 16 17  1  0
 18 17  2  0
 19 18  1  0
 20 15  1  0
 20 19  2  0
 21 22  2  0
 23 24  1  0
 23 21  1  0
 24 27  1  0
 24 25  1  1
 26 25  1  0
 27 28  2  0
 27 29  1  0
M  END
$$$$
