FFC.pdb
     RDKit          3D

 29 30  0  0  1  0  0  0  0  0999 V2000
   25.8301  -20.8001  -14.5993 N   0  0  0  0  0  0  0  0  0  0  0  0
   24.6345  -21.5550  -14.9137 C   0  0  1  0  0  0  0  0  0  0  0  0
   25.0637  -22.9882  -15.1442 C   0  0  0  0  0  0  0  0  0  0  0  0
   25.8983  -23.0480  -16.3545 C   0  0  0  0  0  0  0  0  0  0  0  0
   27.2632  -23.3188  -16.2811 C   0  0  0  0  0  0  0  0  0  0  0  0
   28.0308  -23.3712  -17.4249 C   0  0  0  0  0  0  0  0  0  0  0  0
   27.4514  -23.1545  -18.6635 C   0  0  0  0  0  0  0  0  0  0  0  0
   26.0984  -22.8842  -18.7578 C   0  0  0  0  0  0  0  0  0  0  0  0
   25.3434  -22.8369  -17.5824 C   0  0  0  0  0  0  0  0  0  0  0  0
   23.6627  -21.4193  -13.8276 C   0  0  0  0  0  0  0  0  0  0  0  0
   24.0654  -21.1558  -12.6703 O   0  0  0  0  0  0  0  0  0  0  0  0
   22.2543  -21.5707  -14.0025 N   0  0  0  0  0  0  0  0  0  0  0  0
   21.2953  -21.2799  -12.9393 C   0  0  1  0  0  0  0  0  0  0  0  0
   21.1676  -19.7871  -12.7278 C   0  0  0  0  0  0  0  0  0  0  0  0
   20.9377  -19.0311  -13.9806 C   0  0  0  0  0  0  0  0  0  0  0  0
   22.0235  -18.5149  -14.6899 C   0  0  0  0  0  0  0  0  0  0  0  0
   21.7763  -17.8344  -15.8372 C   0  0  0  0  0  0  0  0  0  0  0  0
   20.5009  -17.6386  -16.3193 C   0  0  0  0  0  0  0  0  0  0  0  0
   19.4198  -18.1448  -15.6259 C   0  0  0  0  0  0  0  0  0  0  0  0
   19.6391  -18.8413  -14.4562 C   0  0  0  0  0  0  0  0  0  0  0  0
   20.0042  -21.9148  -13.3025 C   0  0  0  0  0  0  0  0  0  0  0  0
   19.6187  -22.0277  -14.4965 O   0  0  0  0  0  0  0  0  0  0  0  0
   19.1349  -22.4304  -12.2964 N   0  0  0  0  0  0  0  0  0  0  0  0
   17.8957  -23.0573  -12.6692 C   0  0  1  0  0  0  0  0  0  0  0  0
   17.4902  -24.1582  -11.7177 C   0  0  0  0  0  0  0  0  0  0  0  0
   18.8610  -25.3485  -11.6574 S   0  0  0  0  0  0  0  0  0  0  0  0
   16.8281  -22.0294  -12.7024 C   0  0  0  0  0  0  0  0  0  0  0  0
   17.0826  -20.8419  -12.3447 O   0  0  0  0  0  0  0  0  0  0  0  0
   15.5555  -22.3268  -13.1137 O   0  0  0  0  0  0  0  0  0  0  0  0
  2  1  1  1
  2 10  1  0
  3  2  1  0
  3  4  1  0
  4  9  1  0
  4  5  2  0
  5  6  1  0
  6  7  2  0
  8  7  1  0
  9  8  2  0
 10 11  2  0
 12 10  1  0
 12 13  1  0
 13 21  1  0
 13 14  1  6
 14 15  1  0
 15 16  2  0
 16 17  1  0
 18 17  2  0
 19 18  1  0
 20 15  1  0
 20 19  2  0
 21 22  2  0
 23 24  1  0
 23 21  1  0
 24 27  1  0
 24 25  1  1
 26 25  1  0
 27 28  2  0
 27 29  1  0
M  END
$$$$
