FFC.pdb
     RDKit          3D

 29 30  0  0  1  0  0  0  0  0999 V2000
   25.5463  -21.9280  -13.2515 N   0  0  0  0  0  0  0  0  0  0  0  0
   25.2153  -20.8376  -12.3572 C   0  0  1  0  0  0  0  0  0  0  0  0
   23.7100  -20.6805  -12.3889 C   0  0  0  0  0  0  0  0  0  0  0  0
   23.3259  -20.0133  -13.6429 C   0  0  0  0  0  0  0  0  0  0  0  0
   23.6143  -18.6686  -13.8663 C   0  0  0  0  0  0  0  0  0  0  0  0
   23.2474  -18.0588  -15.0469 C   0  0  0  0  0  0  0  0  0  0  0  0
   22.5857  -18.7790  -16.0269 C   0  0  0  0  0  0  0  0  0  0  0  0
   22.2902  -20.1148  -15.8246 C   0  0  0  0  0  0  0  0  0  0  0  0
   22.6736  -20.7083  -14.6185 C   0  0  0  0  0  0  0  0  0  0  0  0
   25.7299  -21.1222  -11.0168 C   0  0  0  0  0  0  0  0  0  0  0  0
   25.5893  -22.2703  -10.5342 O   0  0  0  0  0  0  0  0  0  0  0  0
   26.3966  -20.1570  -10.2037 N   0  0  0  0  0  0  0  0  0  0  0  0
   26.8507  -20.4526   -8.8470 C   0  0  1  0  0  0  0  0  0  0  0  0
   27.9332  -19.4842   -8.4225 C   0  0  0  0  0  0  0  0  0  0  0  0
   28.3344  -19.6322   -7.0044 C   0  0  0  0  0  0  0  0  0  0  0  0
   27.9388  -18.6764   -6.0671 C   0  0  0  0  0  0  0  0  0  0  0  0
   28.3178  -18.8478   -4.7758 C   0  0  0  0  0  0  0  0  0  0  0  0
   29.0729  -19.9240   -4.3646 C   0  0  0  0  0  0  0  0  0  0  0  0
   29.4694  -20.8752   -5.2831 C   0  0  0  0  0  0  0  0  0  0  0  0
   29.0996  -20.7286   -6.6034 C   0  0  0  0  0  0  0  0  0  0  0  0
   25.6689  -20.4121   -7.9506 C   0  0  0  0  0  0  0  0  0  0  0  0
   24.8608  -19.4457   -7.9407 O   0  0  0  0  0  0  0  0  0  0  0  0
   25.3976  -21.4843   -7.0502 N   0  0  0  0  0  0  0  0  0  0  0  0
   24.3249  -21.3707   -6.0995 C   0  0  1  0  0  0  0  0  0  0  0  0
   23.4774  -22.6190   -6.0254 C   0  0  0  0  0  0  0  0  0  0  0  0
   22.3213  -22.4023   -4.6411 S   0  0  0  0  0  0  0  0  0  0  0  0
   24.8970  -21.0947   -4.7601 C   0  0  0  0  0  0  0  0  0  0  0  0
   26.0075  -21.6051   -4.4296 O   0  0  0  0  0  0  0  0  0  0  0  0
   24.2537  -20.2932   -3.8541 O   0  0  0  0  0  0  0  0  0  0  0  0
  2  1  1  6
  2 10  1  0
  3  2  1  0
  3  4  1  0
  4  9  1  0
  4  5  2  0
  5  6  1  0
  6  7  2  0
  8  7  1  0
  9  8  2  0
 10 11  2  0
 12 10  1  0
 12 13  1  0
 13 21  1  0
 13 14  1  1
 14 15  1  0
 15 16  2  0
 16 17  1  0
 18 17  2  0
 19 18  1  0
 20 15  1  0
 20 19  2  0
 21 22  2  0
 23 24  1  0
 23 21  1  0
 24 27  1  0
 24 25  1  1
 26 25  1  0
 27 28  2  0
 27 29  1  0
M  END
$$$$
