FFC.pdb
     RDKit          3D

 29 30  0  0  1  0  0  0  0  0999 V2000
   28.3502  -21.3425  -15.2410 N   0  0  0  0  0  0  0  0  0  0  0  0
   27.4133  -20.3351  -14.7876 C   0  0  1  0  0  0  0  0  0  0  0  0
   26.7420  -19.7680  -16.0202 C   0  0  0  0  0  0  0  0  0  0  0  0
   27.5690  -18.6741  -16.5537 C   0  0  0  0  0  0  0  0  0  0  0  0
   28.4599  -18.8850  -17.6041 C   0  0  0  0  0  0  0  0  0  0  0  0
   29.2274  -17.8491  -18.0922 C   0  0  0  0  0  0  0  0  0  0  0  0
   29.1208  -16.5833  -17.5415 C   0  0  0  0  0  0  0  0  0  0  0  0
   28.2424  -16.3533  -16.4983 C   0  0  0  0  0  0  0  0  0  0  0  0
   27.4762  -17.4213  -16.0227 C   0  0  0  0  0  0  0  0  0  0  0  0
   26.4641  -20.9293  -13.8450 C   0  0  0  0  0  0  0  0  0  0  0  0
   26.2249  -22.1582  -13.9044 O   0  0  0  0  0  0  0  0  0  0  0  0
   25.7768  -20.1854  -12.8393 N   0  0  0  0  0  0  0  0  0  0  0  0
   24.8902  -20.8161  -11.8643 C   0  0  1  0  0  0  0  0  0  0  0  0
   24.9137  -20.0611  -10.5532 C   0  0  0  0  0  0  0  0  0  0  0  0
   26.1000  -20.3631   -9.7194 C   0  0  0  0  0  0  0  0  0  0  0  0
   27.1266  -21.1571  -10.2335 C   0  0  0  0  0  0  0  0  0  0  0  0
   28.2018  -21.4070   -9.4447 C   0  0  0  0  0  0  0  0  0  0  0  0
   28.3113  -20.9071   -8.1658 C   0  0  0  0  0  0  0  0  0  0  0  0
   27.3019  -20.1207   -7.6475 C   0  0  0  0  0  0  0  0  0  0  0  0
   26.1962  -19.8489   -8.4253 C   0  0  0  0  0  0  0  0  0  0  0  0
   23.5318  -20.8821  -12.4577 C   0  0  0  0  0  0  0  0  0  0  0  0
   23.0066  -19.9047  -13.0544 O   0  0  0  0  0  0  0  0  0  0  0  0
   22.7549  -22.0752  -12.3741 N   0  0  0  0  0  0  0  0  0  0  0  0
   21.4799  -22.1507  -13.0344 C   0  0  1  0  0  0  0  0  0  0  0  0
   21.0375  -23.5730  -13.2863 C   0  0  0  0  0  0  0  0  0  0  0  0
   19.3568  -23.4996  -13.9716 S   0  0  0  0  0  0  0  0  0  0  0  0
   20.4639  -21.4695  -12.1971 C   0  0  0  0  0  0  0  0  0  0  0  0
   20.5459  -21.5234  -10.9348 O   0  0  0  0  0  0  0  0  0  0  0  0
   19.4232  -20.7729  -12.7527 O   0  0  0  0  0  0  0  0  0  0  0  0
  2  1  1  6
  2 10  1  0
  3  2  1  0
  3  4  1  0
  4  9  1  0
  4  5  2  0
  5  6  1  0
  6  7  2  0
  8  7  1  0
  9  8  2  0
 10 11  2  0
 12 10  1  0
 12 13  1  0
 13 21  1  0
 13 14  1  1
 14 15  1  0
 15 16  2  0
 16 17  1  0
 18 17  2  0
 19 18  1  0
 20 15  1  0
 20 19  2  0
 21 22  2  0
 23 24  1  0
 23 21  1  0
 24 27  1  0
 24 25  1  1
 26 25  1  0
 27 28  2  0
 27 29  1  0
M  END
$$$$
