FFC.pdb
     RDKit          3D

 29 30  0  0  1  0  0  0  0  0999 V2000
   21.4954  -16.8840  -18.1905 N   0  0  0  0  0  0  0  0  0  0  0  0
   20.9265  -15.5522  -18.2216 C   0  0  1  0  0  0  0  0  0  0  0  0
   19.4932  -15.6719  -17.7492 C   0  0  0  0  0  0  0  0  0  0  0  0
   18.7167  -16.4056  -18.7611 C   0  0  0  0  0  0  0  0  0  0  0  0
   18.4837  -17.7744  -18.6437 C   0  0  0  0  0  0  0  0  0  0  0  0
   17.7541  -18.4467  -19.6007 C   0  0  0  0  0  0  0  0  0  0  0  0
   17.2431  -17.7663  -20.6930 C   0  0  0  0  0  0  0  0  0  0  0  0
   17.4633  -16.4077  -20.8278 C   0  0  0  0  0  0  0  0  0  0  0  0
   18.2064  -15.7505  -19.8430 C   0  0  0  0  0  0  0  0  0  0  0  0
   21.7266  -14.6519  -17.3900 C   0  0  0  0  0  0  0  0  0  0  0  0
   22.3946  -15.1223  -16.4395 O   0  0  0  0  0  0  0  0  0  0  0  0
   21.7986  -13.2410  -17.5939 N   0  0  0  0  0  0  0  0  0  0  0  0
   22.6962  -12.3814  -16.8260 C   0  0  1  0  0  0  0  0  0  0  0  0
   23.9842  -12.1413  -17.5829 C   0  0  0  0  0  0  0  0  0  0  0  0
   24.9355  -11.2618  -16.8648 C   0  0  0  0  0  0  0  0  0  0  0  0
   25.0587   -9.9218  -17.2362 C   0  0  0  0  0  0  0  0  0  0  0  0
   25.9341   -9.1435  -16.5517 C   0  0  0  0  0  0  0  0  0  0  0  0
   26.6972   -9.6287  -15.5126 C   0  0  0  0  0  0  0  0  0  0  0  0
   26.5832  -10.9523  -15.1370 C   0  0  0  0  0  0  0  0  0  0  0  0
   25.7017  -11.7685  -15.8138 C   0  0  0  0  0  0  0  0  0  0  0  0
   21.9730  -11.1221  -16.5212 C   0  0  0  0  0  0  0  0  0  0  0  0
   21.2899  -10.5090  -17.3842 O   0  0  0  0  0  0  0  0  0  0  0  0
   22.0242  -10.5472  -15.2171 N   0  0  0  0  0  0  0  0  0  0  0  0
   21.4228   -9.2642  -14.9728 C   0  0  1  0  0  0  0  0  0  0  0  0
   21.2237   -8.9846  -13.5017 C   0  0  0  0  0  0  0  0  0  0  0  0
   20.4927   -7.3274  -13.3637 S   0  0  0  0  0  0  0  0  0  0  0  0
   22.2882   -8.2095  -15.5526 C   0  0  0  0  0  0  0  0  0  0  0  0
   21.8024   -7.3695  -16.3658 O   0  0  0  0  0  0  0  0  0  0  0  0
   23.6168   -8.1124  -15.2324 O   0  0  0  0  0  0  0  0  0  0  0  0
  2  1  1  1
  2 10  1  0
  3  2  1  0
  3  4  1  0
  4  9  1  0
  4  5  2  0
  5  6  1  0
  6  7  2  0
  8  7  1  0
  9  8  2  0
 10 11  2  0
 12 10  1  0
 12 13  1  0
 13 21  1  0
 13 14  1  6
 14 15  1  0
 15 16  2  0
 16 17  1  0
 18 17  2  0
 19 18  1  0
 20 15  1  0
 20 19  2  0
 21 22  2  0
 23 24  1  0
 23 21  1  0
 24 27  1  0
 24 25  1  1
 26 25  1  0
 27 28  2  0
 27 29  1  0
M  END
$$$$
