FFC.pdb
     RDKit          3D

 29 30  0  0  1  0  0  0  0  0999 V2000
   25.6425  -14.7949  -18.9748 N   0  0  0  0  0  0  0  0  0  0  0  0
   25.6823  -13.3521  -19.0966 C   0  0  1  0  0  0  0  0  0  0  0  0
   24.8314  -12.9852  -20.2937 C   0  0  0  0  0  0  0  0  0  0  0  0
   25.4988  -13.4581  -21.5168 C   0  0  0  0  0  0  0  0  0  0  0  0
   24.8321  -14.2566  -22.4438 C   0  0  0  0  0  0  0  0  0  0  0  0
   25.4721  -14.6911  -23.5848 C   0  0  0  0  0  0  0  0  0  0  0  0
   26.7894  -14.3373  -23.8226 C   0  0  0  0  0  0  0  0  0  0  0  0
   27.4687  -13.5455  -22.9148 C   0  0  0  0  0  0  0  0  0  0  0  0
   26.7961  -13.1187  -21.7662 C   0  0  0  0  0  0  0  0  0  0  0  0
   25.2128  -12.7366  -17.8544 C   0  0  0  0  0  0  0  0  0  0  0  0
   24.4599  -13.3863  -17.0915 O   0  0  0  0  0  0  0  0  0  0  0  0
   25.5633  -11.4152  -17.4442 N   0  0  0  0  0  0  0  0  0  0  0  0
   25.1012  -10.8352  -16.1855 C   0  0  1  0  0  0  0  0  0  0  0  0
   26.2503  -10.6838  -15.2127 C   0  0  0  0  0  0  0  0  0  0  0  0
   27.5786  -10.9062  -15.8292 C   0  0  0  0  0  0  0  0  0  0  0  0
   28.1721  -12.1680  -15.7644 C   0  0  0  0  0  0  0  0  0  0  0  0
   29.3858  -12.3376  -16.3466 C   0  0  0  0  0  0  0  0  0  0  0  0
   30.0440  -11.3146  -16.9928 C   0  0  0  0  0  0  0  0  0  0  0  0
   29.4661  -10.0628  -17.0629 C   0  0  0  0  0  0  0  0  0  0  0  0
   28.2328   -9.8593  -16.4807 C   0  0  0  0  0  0  0  0  0  0  0  0
   24.4429   -9.5414  -16.4930 C   0  0  0  0  0  0  0  0  0  0  0  0
   24.9794   -8.6669  -17.2240 O   0  0  0  0  0  0  0  0  0  0  0  0
   23.1551   -9.2327  -15.9636 N   0  0  0  0  0  0  0  0  0  0  0  0
   22.5531   -7.9556  -16.2359 C   0  0  1  0  0  0  0  0  0  0  0  0
   21.3648   -8.0574  -17.1629 C   0  0  0  0  0  0  0  0  0  0  0  0
   21.9808   -8.6597  -18.7622 S   0  0  0  0  0  0  0  0  0  0  0  0
   22.1173   -7.3472  -14.9563 C   0  0  0  0  0  0  0  0  0  0  0  0
   22.2778   -7.9770  -13.8698 O   0  0  0  0  0  0  0  0  0  0  0  0
   21.5377   -6.1066  -14.9101 O   0  0  0  0  0  0  0  0  0  0  0  0
  2  1  1  1
  2 10  1  0
  3  2  1  0
  3  4  1  0
  4  9  1  0
  4  5  2  0
  5  6  1  0
  6  7  2  0
  8  7  1  0
  9  8  2  0
 10 11  2  0
 12 10  1  0
 12 13  1  0
 13 21  1  0
 13 14  1  1
 14 15  1  0
 15 16  2  0
 16 17  1  0
 18 17  2  0
 19 18  1  0
 20 15  1  0
 20 19  2  0
 21 22  2  0
 23 24  1  0
 23 21  1  0
 24 27  1  0
 24 25  1  6
 26 25  1  0
 27 28  2  0
 27 29  1  0
M  END
$$$$
