HMS.pdb
     RDKit          3D

 25 25  0  0  1  0  0  0  0  0999 V2000
   26.2661  -11.8582  -18.4887 N   0  0  0  0  0  0  0  0  0  0  0  0
   25.2145  -11.4919  -17.5566 C   0  0  1  0  0  0  0  0  0  0  0  0
   25.7446  -11.5913  -16.1366 C   0  0  0  0  0  0  0  0  0  0  0  0
   26.0411  -13.0277  -15.8090 C   0  0  0  0  0  0  0  0  0  0  0  0
   27.3086  -13.5326  -15.6793 C   0  0  0  0  0  0  0  0  0  0  0  0
   27.1477  -14.8389  -15.3888 N   0  0  0  0  0  0  0  0  0  0  0  0
   25.8377  -15.1139  -15.3443 C   0  0  0  0  0  0  0  0  0  0  0  0
   25.1265  -13.9905  -15.6053 N   0  0  0  0  0  0  0  0  0  0  0  0
   24.7568  -10.1109  -17.7764 C   0  0  0  0  0  0  0  0  0  0  0  0
   25.5864   -9.2350  -18.1098 O   0  0  0  0  0  0  0  0  0  0  0  0
   21.9652   -5.4803  -21.2549 C   0  0  0  0  0  0  0  0  0  0  0  0
   21.0013   -6.9827  -20.9222 S   0  0  0  0  0  0  0  0  0  0  0  0
   20.9908   -7.3175  -19.1176 C   0  0  0  0  0  0  0  0  0  0  0  0
   21.7350   -8.5945  -18.8319 C   0  0  0  0  0  0  0  0  0  0  0  0
   22.8720   -8.4512  -17.8773 C   0  0  2  0  0  0  0  0  0  0  0  0
   23.3988   -9.7896  -17.6113 N   0  0  0  0  0  0  0  0  0  0  0  0
   22.5361   -7.8370  -16.5832 C   0  0  0  0  0  0  0  0  0  0  0  0
   22.0587   -8.5793  -15.6862 O   0  0  0  0  0  0  0  0  0  0  0  0
   22.6424   -4.0474  -13.6638 O   0  0  0  0  0  0  0  0  0  0  0  0
   22.8593   -4.4501  -14.9826 C   0  0  0  0  0  0  0  0  0  0  0  0
   22.4378   -5.9243  -15.0378 C   0  0  2  0  0  0  0  0  0  0  0  0
   22.7391   -6.4635  -16.3477 N   0  0  0  0  0  0  0  0  0  0  0  0
   21.0037   -6.0207  -14.7126 C   0  0  0  0  0  0  0  0  0  0  0  0
   20.1549   -5.7339  -15.5791 O   0  0  0  0  0  0  0  0  0  0  0  0
   20.5928   -6.4210  -13.4712 O   0  0  0  0  0  0  0  0  0  0  0  0
  2  1  1  6
  3  2  1  0
  4  3  1  0
  5  4  2  0
  6  5  1  0
  7  6  1  0
  7  8  2  0
  8  4  1  0
  9  2  1  0
  9 10  2  0
 12 11  1  0
 12 13  1  0
 13 14  1  0
 15 14  1  6
 15 17  1  0
 16 15  1  0
 16  9  1  0
 17 22  1  0
 18 17  2  0
 20 19  1  0
 21 22  1  0
 21 20  1  6
 23 21  1  0
 24 23  2  0
 25 23  1  0
M  END
$$$$
