HMS.pdb
     RDKit          3D

 25 25  0  0  1  0  0  0  0  0999 V2000
   26.3746  -19.5631  -17.8428 N   0  0  0  0  0  0  0  0  0  0  0  0
   25.6537  -18.8724  -16.7883 C   0  0  1  0  0  0  0  0  0  0  0  0
   24.5476  -18.0322  -17.4030 C   0  0  0  0  0  0  0  0  0  0  0  0
   25.1513  -16.9180  -18.2109 C   0  0  0  0  0  0  0  0  0  0  0  0
   25.1301  -16.8734  -19.5805 C   0  0  0  0  0  0  0  0  0  0  0  0
   25.7669  -15.7331  -19.9134 N   0  0  0  0  0  0  0  0  0  0  0  0
   26.1576  -15.1129  -18.7924 C   0  0  0  0  0  0  0  0  0  0  0  0
   25.7807  -15.8404  -17.7133 N   0  0  0  0  0  0  0  0  0  0  0  0
   25.0363  -19.8206  -15.8476 C   0  0  0  0  0  0  0  0  0  0  0  0
   24.6851  -20.9502  -16.2565 O   0  0  0  0  0  0  0  0  0  0  0  0
   24.8469  -21.3242   -8.0964 C   0  0  0  0  0  0  0  0  0  0  0  0
   25.3886  -20.3070   -9.4995 S   0  0  0  0  0  0  0  0  0  0  0  0
   24.5321  -20.8609  -11.0254 C   0  0  0  0  0  0  0  0  0  0  0  0
   24.9633  -20.0093  -12.1895 C   0  0  0  0  0  0  0  0  0  0  0  0
   24.3521  -20.3874  -13.4965 C   0  0  2  0  0  0  0  0  0  0  0  0
   24.8479  -19.4511  -14.5050 N   0  0  0  0  0  0  0  0  0  0  0  0
   22.8818  -20.3537  -13.5389 C   0  0  0  0  0  0  0  0  0  0  0  0
   22.3155  -19.2359  -13.4237 O   0  0  0  0  0  0  0  0  0  0  0  0
   20.7419  -23.7674  -13.5583 O   0  0  0  0  0  0  0  0  0  0  0  0
   20.0889  -22.7480  -14.2532 C   0  0  0  0  0  0  0  0  0  0  0  0
   20.6797  -21.4383  -13.7146 C   0  0  2  0  0  0  0  0  0  0  0  0
   22.1250  -21.5300  -13.7029 N   0  0  0  0  0  0  0  0  0  0  0  0
   20.1270  -21.1846  -12.3723 C   0  0  0  0  0  0  0  0  0  0  0  0
   18.9100  -20.9489  -12.2417 O   0  0  0  0  0  0  0  0  0  0  0  0
   20.9333  -21.2048  -11.2680 O   0  0  0  0  0  0  0  0  0  0  0  0
  2  1  1  6
  3  2  1  0
  4  3  1  0
  5  4  2  0
  6  5  1  0
  7  6  1  0
  7  8  2  0
  8  4  1  0
  9  2  1  0
  9 10  2  0
 12 11  1  0
 12 13  1  0
 13 14  1  0
 15 14  1  1
 15 17  1  0
 16 15  1  0
 16  9  1  0
 17 22  1  0
 18 17  2  0
 20 19  1  0
 21 22  1  0
 21 20  1  1
 23 21  1  0
 24 23  2  0
 25 23  1  0
M  END
$$$$
