HMS.pdb
     RDKit          3D

 25 25  0  0  1  0  0  0  0  0999 V2000
   17.1015  -10.9425  -17.3883 N   0  0  0  0  0  0  0  0  0  0  0  0
   17.0512  -10.1908  -16.1468 C   0  0  1  0  0  0  0  0  0  0  0  0
   17.6727  -11.0169  -15.0338 C   0  0  0  0  0  0  0  0  0  0  0  0
   16.8683  -12.2692  -14.8267 C   0  0  0  0  0  0  0  0  0  0  0  0
   15.5969  -12.2810  -14.3152 C   0  0  0  0  0  0  0  0  0  0  0  0
   15.2320  -13.5782  -14.2873 N   0  0  0  0  0  0  0  0  0  0  0  0
   16.2402  -14.3213  -14.7620 C   0  0  0  0  0  0  0  0  0  0  0  0
   17.2762  -13.5185  -15.1059 N   0  0  0  0  0  0  0  0  0  0  0  0
   17.8005   -8.9287  -16.2504 C   0  0  0  0  0  0  0  0  0  0  0  0
   18.9091   -8.9189  -16.8315 O   0  0  0  0  0  0  0  0  0  0  0  0
   16.4830   -1.1507  -16.3129 C   0  0  0  0  0  0  0  0  0  0  0  0
   15.8855   -2.8630  -16.2231 S   0  0  0  0  0  0  0  0  0  0  0  0
   17.3109   -3.9997  -16.0114 C   0  0  0  0  0  0  0  0  0  0  0  0
   16.8253   -5.4241  -15.9717 C   0  0  0  0  0  0  0  0  0  0  0  0
   17.9061   -6.4467  -15.8688 C   0  0  2  0  0  0  0  0  0  0  0  0
   17.2671   -7.7515  -15.6990 N   0  0  0  0  0  0  0  0  0  0  0  0
   18.8471   -6.2606  -14.7530 C   0  0  0  0  0  0  0  0  0  0  0  0
   18.4574   -6.5699  -13.5972 O   0  0  0  0  0  0  0  0  0  0  0  0
   22.6917   -6.5892  -15.1521 O   0  0  0  0  0  0  0  0  0  0  0  0
   22.1121   -6.7019  -13.8873 C   0  0  0  0  0  0  0  0  0  0  0  0
   21.0339   -5.6117  -13.8296 C   0  0  2  0  0  0  0  0  0  0  0  0
   20.1438   -5.7531  -14.9632 N   0  0  0  0  0  0  0  0  0  0  0  0
   21.6924   -4.2936  -13.7999 C   0  0  0  0  0  0  0  0  0  0  0  0
   21.6174   -3.5450  -14.7936 O   0  0  0  0  0  0  0  0  0  0  0  0
   22.3849   -3.8819  -12.6949 O   0  0  0  0  0  0  0  0  0  0  0  0
  2  1  1  6
  3  2  1  0
  4  3  1  0
  5  4  2  0
  6  5  1  0
  7  6  1  0
  7  8  2  0
  8  4  1  0
  9  2  1  0
  9 10  2  0
 12 11  1  0
 12 13  1  0
 13 14  1  0
 15 14  1  1
 15 17  1  0
 16 15  1  0
 16  9  1  0
 17 22  1  0
 18 17  2  0
 20 19  1  0
 21 22  1  0
 21 20  1  6
 23 21  1  0
 24 23  2  0
 25 23  1  0
M  END
$$$$
