HMS.pdb
     RDKit          3D

 25 25  0  0  1  0  0  0  0  0999 V2000
   20.7918  -13.3307  -16.9995 N   0  0  0  0  0  0  0  0  0  0  0  0
   20.8690  -11.9643  -17.4851 C   0  0  1  0  0  0  0  0  0  0  0  0
   19.4841  -11.5007  -17.9031 C   0  0  0  0  0  0  0  0  0  0  0  0
   18.9943  -12.3441  -19.0463 C   0  0  0  0  0  0  0  0  0  0  0  0
   17.8874  -13.1493  -18.9781 C   0  0  0  0  0  0  0  0  0  0  0  0
   17.7890  -13.7294  -20.1908 N   0  0  0  0  0  0  0  0  0  0  0  0
   18.7942  -13.2939  -20.9613 C   0  0  0  0  0  0  0  0  0  0  0  0
   19.5617  -12.4238  -20.2615 N   0  0  0  0  0  0  0  0  0  0  0  0
   21.3606  -11.0492  -16.4430 C   0  0  0  0  0  0  0  0  0  0  0  0
   20.8975  -11.1339  -15.2833 O   0  0  0  0  0  0  0  0  0  0  0  0
   27.4253  -12.4173  -14.8613 C   0  0  0  0  0  0  0  0  0  0  0  0
   26.7927  -10.8906  -15.6138 S   0  0  0  0  0  0  0  0  0  0  0  0
   24.9822  -10.7745  -15.3359 C   0  0  0  0  0  0  0  0  0  0  0  0
   24.4666   -9.4673  -15.8758 C   0  0  0  0  0  0  0  0  0  0  0  0
   22.9942   -9.2745  -15.7364 C   0  0  2  0  0  0  0  0  0  0  0  0
   22.3413  -10.0932  -16.7577 N   0  0  0  0  0  0  0  0  0  0  0  0
   22.5202   -7.8914  -15.9012 C   0  0  0  0  0  0  0  0  0  0  0  0
   22.4762   -7.4197  -17.0670 O   0  0  0  0  0  0  0  0  0  0  0  0
   19.8897   -4.2855  -15.0142 O   0  0  0  0  0  0  0  0  0  0  0  0
   20.2267   -5.5951  -14.6681 C   0  0  0  0  0  0  0  0  0  0  0  0
   21.7146   -5.7424  -15.0130 C   0  0  2  0  0  0  0  0  0  0  0  0
   22.1268   -7.1135  -14.7952 N   0  0  0  0  0  0  0  0  0  0  0  0
   22.4881   -4.7918  -14.1947 C   0  0  0  0  0  0  0  0  0  0  0  0
   22.8976   -5.1385  -13.0696 O   0  0  0  0  0  0  0  0  0  0  0  0
   22.7623   -3.5336  -14.6549 O   0  0  0  0  0  0  0  0  0  0  0  0
  2  1  1  1
  3  2  1  0
  4  3  1  0
  5  4  2  0
  6  5  1  0
  7  6  1  0
  7  8  2  0
  8  4  1  0
  9  2  1  0
  9 10  2  0
 12 11  1  0
 12 13  1  0
 13 14  1  0
 15 14  1  6
 15 17  1  0
 16 15  1  0
 16  9  1  0
 17 22  1  0
 18 17  2  0
 20 19  1  0
 21 22  1  0
 21 20  1  1
 23 21  1  0
 24 23  2  0
 25 23  1  0
M  END
$$$$
