HMS.pdb
     RDKit          3D

 25 25  0  0  1  0  0  0  0  0999 V2000
   27.0103  -33.4959   -3.5826 N   0  0  0  0  0  0  0  0  0  0  0  0
   27.4626  -34.0691   -2.3272 C   0  0  1  0  0  0  0  0  0  0  0  0
   28.9428  -34.3948   -2.4281 C   0  0  0  0  0  0  0  0  0  0  0  0
   29.1434  -35.5360   -3.3850 C   0  0  0  0  0  0  0  0  0  0  0  0
   28.1253  -36.3270   -3.8500 C   0  0  0  0  0  0  0  0  0  0  0  0
   28.7107  -37.2215   -4.6709 N   0  0  0  0  0  0  0  0  0  0  0  0
   30.0281  -36.9824   -4.7021 C   0  0  0  0  0  0  0  0  0  0  0  0
   30.3198  -35.9287   -3.9018 N   0  0  0  0  0  0  0  0  0  0  0  0
   27.2777  -33.1307   -1.2090 C   0  0  0  0  0  0  0  0  0  0  0  0
   27.5473  -31.9195   -1.3730 O   0  0  0  0  0  0  0  0  0  0  0  0
   22.3282  -30.0231    3.4390 C   0  0  0  0  0  0  0  0  0  0  0  0
   22.8211  -31.2608    2.2052 S   0  0  0  0  0  0  0  0  0  0  0  0
   24.6227  -31.5823    2.3448 C   0  0  0  0  0  0  0  0  0  0  0  0
   25.0696  -32.4761    1.2189 C   0  0  0  0  0  0  0  0  0  0  0  0
   26.5415  -32.7092    1.1569 C   0  0  2  0  0  0  0  0  0  0  0  0
   26.8018  -33.6007    0.0268 N   0  0  0  0  0  0  0  0  0  0  0  0
   27.1347  -33.3215    2.3560 C   0  0  0  0  0  0  0  0  0  0  0  0
   26.9882  -34.5609    2.5172 O   0  0  0  0  0  0  0  0  0  0  0  0
   30.2566  -31.8986    4.4698 O   0  0  0  0  0  0  0  0  0  0  0  0
   29.1797  -32.2010    5.3048 C   0  0  0  0  0  0  0  0  0  0  0  0
   28.3096  -33.1870    4.5141 C   0  0  2  0  0  0  0  0  0  0  0  0
   27.8450  -32.5526    3.2980 N   0  0  0  0  0  0  0  0  0  0  0  0
   27.1959  -33.6305    5.3713 C   0  0  0  0  0  0  0  0  0  0  0  0
   26.0309  -33.2826    5.0966 O   0  0  0  0  0  0  0  0  0  0  0  0
   27.4252  -34.4193    6.4645 O   0  0  0  0  0  0  0  0  0  0  0  0
  2  1  1  6
  3  2  1  0
  4  3  1  0
  5  4  2  0
  6  5  1  0
  7  6  1  0
  7  8  2  0
  8  4  1  0
  9  2  1  0
  9 10  2  0
 12 11  1  0
 12 13  1  0
 13 14  1  0
 15 14  1  1
 15 17  1  0
 16 15  1  0
 16  9  1  0
 17 22  1  0
 18 17  2  0
 20 19  1  0
 21 22  1  0
 21 20  1  1
 23 21  1  0
 24 23  2  0
 25 23  1  0
M  END
$$$$
