HMS.pdb
     RDKit          3D

 25 25  0  0  1  0  0  0  0  0999 V2000
   20.5200  -14.4945  -16.6214 N   0  0  0  0  0  0  0  0  0  0  0  0
   20.6367  -13.2729  -17.3979 C   0  0  1  0  0  0  0  0  0  0  0  0
   19.2655  -12.6349  -17.5398 C   0  0  0  0  0  0  0  0  0  0  0  0
   18.4532  -13.4047  -18.5427 C   0  0  0  0  0  0  0  0  0  0  0  0
   18.5891  -14.7511  -18.7595 C   0  0  0  0  0  0  0  0  0  0  0  0
   17.6960  -15.0525  -19.7229 N   0  0  0  0  0  0  0  0  0  0  0  0
   17.0462  -13.9356  -20.0751 C   0  0  0  0  0  0  0  0  0  0  0  0
   17.5068  -12.8906  -19.3460 N   0  0  0  0  0  0  0  0  0  0  0  0
   21.5259  -12.3009  -16.7424 C   0  0  0  0  0  0  0  0  0  0  0  0
   21.4788  -12.1672  -15.4988 O   0  0  0  0  0  0  0  0  0  0  0  0
   26.2463  -10.1919  -14.3126 C   0  0  0  0  0  0  0  0  0  0  0  0
   26.7242  -10.5203  -16.0333 S   0  0  0  0  0  0  0  0  0  0  0  0
   25.6201   -9.5882  -17.1651 C   0  0  0  0  0  0  0  0  0  0  0  0
   24.5574  -10.5049  -17.7097 C   0  0  0  0  0  0  0  0  0  0  0  0
   23.2870  -10.5174  -16.9283 C   0  0  2  0  0  0  0  0  0  0  0  0
   22.4158  -11.5355  -17.5148 N   0  0  0  0  0  0  0  0  0  0  0  0
   22.5437   -9.2477  -16.9117 C   0  0  0  0  0  0  0  0  0  0  0  0
   21.9210   -8.9171  -17.9540 O   0  0  0  0  0  0  0  0  0  0  0  0
   20.5962   -7.6993  -13.8886 O   0  0  0  0  0  0  0  0  0  0  0  0
   21.4547   -6.7218  -14.3944 C   0  0  0  0  0  0  0  0  0  0  0  0
   21.7968   -7.1721  -15.8208 C   0  0  2  0  0  0  0  0  0  0  0  0
   22.5246   -8.4231  -15.7703 N   0  0  0  0  0  0  0  0  0  0  0  0
   22.5683   -6.1055  -16.4833 C   0  0  0  0  0  0  0  0  0  0  0  0
   23.7449   -6.3225  -16.8326 O   0  0  0  0  0  0  0  0  0  0  0  0
   22.0087   -4.8803  -16.7195 O   0  0  0  0  0  0  0  0  0  0  0  0
  2  1  1  1
  3  2  1  0
  4  3  1  0
  5  4  2  0
  6  5  1  0
  7  6  1  0
  7  8  2  0
  8  4  1  0
  9  2  1  0
  9 10  2  0
 12 11  1  0
 12 13  1  0
 13 14  1  0
 15 14  1  6
 15 17  1  0
 16 15  1  0
 16  9  1  0
 17 22  1  0
 18 17  2  0
 20 19  1  0
 21 22  1  0
 21 20  1  1
 23 21  1  0
 24 23  2  0
 25 23  1  0
M  END
$$$$
