HMS.pdb
     RDKit          3D

 25 25  0  0  1  0  0  0  0  0999 V2000
   18.7661   -9.2015  -12.3545 N   0  0  0  0  0  0  0  0  0  0  0  0
   18.7726   -8.5999  -11.0328 C   0  0  1  0  0  0  0  0  0  0  0  0
   20.0990   -7.8945  -10.8085 C   0  0  0  0  0  0  0  0  0  0  0  0
   20.4146   -7.0262  -11.9937 C   0  0  0  0  0  0  0  0  0  0  0  0
   19.6020   -6.9126  -13.0915 C   0  0  0  0  0  0  0  0  0  0  0  0
   20.2315   -6.0538  -13.9179 N   0  0  0  0  0  0  0  0  0  0  0  0
   21.3774   -5.6634  -13.3448 C   0  0  0  0  0  0  0  0  0  0  0  0
   21.5106   -6.2624  -12.1368 N   0  0  0  0  0  0  0  0  0  0  0  0
   17.6976   -7.6056  -10.8882 C   0  0  0  0  0  0  0  0  0  0  0  0
   17.2377   -7.0459  -11.9090 O   0  0  0  0  0  0  0  0  0  0  0  0
   13.3386  -10.4514   -8.0328 C   0  0  0  0  0  0  0  0  0  0  0  0
   12.9565   -8.6886   -7.8239 S   0  0  0  0  0  0  0  0  0  0  0  0
   13.8764   -7.7093   -9.0743 C   0  0  0  0  0  0  0  0  0  0  0  0
   15.1206   -7.1315   -8.4543 C   0  0  0  0  0  0  0  0  0  0  0  0
   16.0294   -6.4397   -9.4135 C   0  0  2  0  0  0  0  0  0  0  0  0
   17.1991   -7.2954   -9.6116 N   0  0  0  0  0  0  0  0  0  0  0  0
   16.5101   -5.1166   -8.9853 C   0  0  0  0  0  0  0  0  0  0  0  0
   17.3534   -5.0709   -8.0524 O   0  0  0  0  0  0  0  0  0  0  0  0
   15.5670   -1.9049  -11.1129 O   0  0  0  0  0  0  0  0  0  0  0  0
   16.7171   -1.7166  -10.3445 C   0  0  0  0  0  0  0  0  0  0  0  0
   16.5702   -2.6616   -9.1446 C   0  0  2  0  0  0  0  0  0  0  0  0
   16.0464   -3.9347   -9.5945 N   0  0  0  0  0  0  0  0  0  0  0  0
   15.6986   -2.0240   -8.1419 C   0  0  0  0  0  0  0  0  0  0  0  0
   14.6166   -2.5614   -7.8354 O   0  0  0  0  0  0  0  0  0  0  0  0
   16.0628   -0.8495   -7.5435 O   0  0  0  0  0  0  0  0  0  0  0  0
  2  1  1  6
  3  2  1  0
  4  3  1  0
  5  4  2  0
  6  5  1  0
  7  6  1  0
  7  8  2  0
  8  4  1  0
  9  2  1  0
  9 10  2  0
 12 11  1  0
 12 13  1  0
 13 14  1  0
 15 14  1  1
 15 17  1  0
 16 15  1  0
 16  9  1  0
 17 22  1  0
 18 17  2  0
 20 19  1  0
 21 22  1  0
 21 20  1  6
 23 21  1  0
 24 23  2  0
 25 23  1  0
M  END
$$$$
