YNQ.pdb
     RDKit          3D

 30 30  0  0  1  0  0  0  0  0999 V2000
   27.9976  -17.7402  -15.3452 O   0  0  0  0  0  0  0  0  0  0  0  0
   27.0773  -16.7744  -15.6974 C   0  0  0  0  0  0  0  0  0  0  0  0
   26.4191  -16.8335  -16.9078 C   0  0  0  0  0  0  0  0  0  0  0  0
   25.5024  -15.8546  -17.2371 C   0  0  0  0  0  0  0  0  0  0  0  0
   25.2623  -14.8268  -16.3372 C   0  0  0  0  0  0  0  0  0  0  0  0
   24.2812  -13.8022  -16.7192 C   0  0  0  0  0  0  0  0  0  0  0  0
   22.9055  -14.1187  -16.1713 C   0  0  2  0  0  0  0  0  0  0  0  0
   22.5368  -15.4221  -16.6697 N   0  0  0  0  0  0  0  0  0  0  0  0
   21.9668  -13.1080  -16.6707 C   0  0  0  0  0  0  0  0  0  0  0  0
   21.1731  -13.3922  -17.6048 O   0  0  0  0  0  0  0  0  0  0  0  0
   25.9169  -14.7614  -15.1252 C   0  0  0  0  0  0  0  0  0  0  0  0
   26.8360  -15.7485  -14.8022 C   0  0  0  0  0  0  0  0  0  0  0  0
   17.9248  -10.2497  -17.8848 N   0  0  0  0  0  0  0  0  0  0  0  0
   18.4240  -10.3473  -16.5632 C   0  0  0  0  0  0  0  0  0  0  0  0
   17.9500   -9.5564  -15.7008 O   0  0  0  0  0  0  0  0  0  0  0  0
   19.4544  -11.3533  -16.2750 C   0  0  0  0  0  0  0  0  0  0  0  0
   20.8507  -10.8650  -16.5177 C   0  0  2  0  0  0  0  0  0  0  0  0
   21.8772  -11.7856  -16.1674 N   0  0  0  0  0  0  0  0  0  0  0  0
   21.1159   -9.5816  -15.8177 C   0  0  0  0  0  0  0  0  0  0  0  0
   21.2447   -9.5085  -14.5683 O   0  0  0  0  0  0  0  0  0  0  0  0
   25.0413   -6.3337  -19.4848 N   0  0  0  0  0  0  0  0  0  0  0  0
   23.9411   -5.9112  -18.7062 C   0  0  0  0  0  0  0  0  0  0  0  0
   23.4147   -4.8044  -18.8878 O   0  0  0  0  0  0  0  0  0  0  0  0
   23.4109   -6.8107  -17.6552 C   0  0  0  0  0  0  0  0  0  0  0  0
   22.2488   -6.1755  -16.9477 C   0  0  0  0  0  0  0  0  0  0  0  0
   21.7228   -7.1395  -15.9124 C   0  0  2  0  0  0  0  0  0  0  0  0
   21.2430   -8.3334  -16.5287 N   0  0  0  0  0  0  0  0  0  0  0  0
   20.6952   -6.4384  -15.1107 C   0  0  0  0  0  0  0  0  0  0  0  0
   19.4851   -6.7369  -15.0978 O   0  0  0  0  0  0  0  0  0  0  0  0
   21.1159   -5.3774  -14.3224 O   0  0  0  0  0  0  0  0  0  0  0  0
  2  1  1  0
  3  2  2  0
  4  3  1  0
  5  4  2  0
  5 11  1  0
  6  5  1  0
  7  9  1  0
  7  6  1  0
  7  8  1  6
  9 10  2  0
 11 12  2  0
 12  2  1  0
 13 14  1  0
 14 16  1  0
 14 15  2  0
 17 16  1  1
 18 17  1  0
 18  9  1  0
 19 17  1  0
 19 20  2  0
 21 22  1  0
 22 24  1  0
 22 23  2  0
 24 25  1  0
 26 25  1  6
 26 27  1  0
 26 28  1  0
 27 19  1  0
 28 29  2  0
 28 30  1  0
M  END
$$$$
