YNQ.pdb
     RDKit          3D

 30 30  0  0  1  0  0  0  0  0999 V2000
   18.0928  -17.4543  -17.8982 O   0  0  0  0  0  0  0  0  0  0  0  0
   17.4583  -18.4736  -17.2183 C   0  0  0  0  0  0  0  0  0  0  0  0
   16.5878  -18.1988  -16.1847 C   0  0  0  0  0  0  0  0  0  0  0  0
   15.9651  -19.2366  -15.5197 C   0  0  0  0  0  0  0  0  0  0  0  0
   16.2308  -20.5411  -15.9088 C   0  0  0  0  0  0  0  0  0  0  0  0
   15.5515  -21.6210  -15.1803 C   0  0  0  0  0  0  0  0  0  0  0  0
   16.4215  -22.1770  -14.0727 C   0  0  2  0  0  0  0  0  0  0  0  0
   17.1333  -23.3090  -14.6162 N   0  0  0  0  0  0  0  0  0  0  0  0
   15.5495  -22.6134  -12.9767 C   0  0  0  0  0  0  0  0  0  0  0  0
   15.4515  -23.8366  -12.6984 O   0  0  0  0  0  0  0  0  0  0  0  0
   17.1001  -20.8233  -16.9415 C   0  0  0  0  0  0  0  0  0  0  0  0
   17.7213  -19.7752  -17.6041 C   0  0  0  0  0  0  0  0  0  0  0  0
   13.9048  -22.5459   -7.6566 N   0  0  0  0  0  0  0  0  0  0  0  0
   13.8499  -23.2757   -8.8689 C   0  0  0  0  0  0  0  0  0  0  0  0
   13.0554  -24.2552   -8.9247 O   0  0  0  0  0  0  0  0  0  0  0  0
   14.7123  -22.8549   -9.9807 C   0  0  0  0  0  0  0  0  0  0  0  0
   13.9715  -22.1542  -11.0795 C   0  0  2  0  0  0  0  0  0  0  0  0
   14.7780  -21.7355  -12.1741 N   0  0  0  0  0  0  0  0  0  0  0  0
   13.2213  -20.9755  -10.5747 C   0  0  0  0  0  0  0  0  0  0  0  0
   13.7922  -19.9069  -10.2353 O   0  0  0  0  0  0  0  0  0  0  0  0
    9.8534  -19.3918   -6.6108 N   0  0  0  0  0  0  0  0  0  0  0  0
    9.4844  -18.3126   -7.4440 C   0  0  0  0  0  0  0  0  0  0  0  0
    8.5622  -17.5470   -7.1305 O   0  0  0  0  0  0  0  0  0  0  0  0
   10.2160  -18.0964   -8.7140 C   0  0  0  0  0  0  0  0  0  0  0  0
   11.2373  -19.1756   -8.9301 C   0  0  0  0  0  0  0  0  0  0  0  0
   11.0191  -19.7870  -10.2927 C   0  0  2  0  0  0  0  0  0  0  0  0
   11.7853  -20.9813  -10.4411 N   0  0  0  0  0  0  0  0  0  0  0  0
   11.3282  -18.7602  -11.3127 C   0  0  0  0  0  0  0  0  0  0  0  0
   12.4774  -18.4788  -11.7052 O   0  0  0  0  0  0  0  0  0  0  0  0
   10.2604  -18.0681  -11.8647 O   0  0  0  0  0  0  0  0  0  0  0  0
  2  1  1  0
  3  2  2  0
  4  3  1  0
  5  4  2  0
  5 11  1  0
  6  5  1  0
  7  9  1  0
  7  6  1  0
  7  8  1  6
  9 10  2  0
 11 12  2  0
 12  2  1  0
 13 14  1  0
 14 16  1  0
 14 15  2  0
 17 16  1  1
 18 17  1  0
 18  9  1  0
 19 17  1  0
 19 20  2  0
 21 22  1  0
 22 24  1  0
 22 23  2  0
 24 25  1  0
 26 25  1  1
 26 27  1  0
 26 28  1  0
 27 19  1  0
 28 29  2  0
 28 30  1  0
M  END
$$$$
