YNQ.pdb
     RDKit          3D

 30 30  0  0  1  0  0  0  0  0999 V2000
   16.3631  -14.1854  -21.0110 O   0  0  0  0  0  0  0  0  0  0  0  0
   16.6565  -13.4979  -19.8512 C   0  0  0  0  0  0  0  0  0  0  0  0
   16.6024  -14.1259  -18.6247 C   0  0  0  0  0  0  0  0  0  0  0  0
   16.9005  -13.4160  -17.4783 C   0  0  0  0  0  0  0  0  0  0  0  0
   17.2501  -12.0782  -17.5867 C   0  0  0  0  0  0  0  0  0  0  0  0
   17.5612  -11.3529  -16.3475 C   0  0  0  0  0  0  0  0  0  0  0  0
   19.0554  -11.2214  -16.1409 C   0  0  2  0  0  0  0  0  0  0  0  0
   19.5574  -12.5327  -15.8067 N   0  0  0  0  0  0  0  0  0  0  0  0
   19.2868  -10.2976  -15.0249 C   0  0  0  0  0  0  0  0  0  0  0  0
   19.0202  -10.6526  -13.8475 O   0  0  0  0  0  0  0  0  0  0  0  0
   17.3063  -11.4438  -18.8098 C   0  0  0  0  0  0  0  0  0  0  0  0
   17.0054  -12.1640  -19.9563 C   0  0  0  0  0  0  0  0  0  0  0  0
   21.8927   -4.9850  -13.3485 N   0  0  0  0  0  0  0  0  0  0  0  0
   21.5057   -6.3281  -13.1206 C   0  0  0  0  0  0  0  0  0  0  0  0
   21.4158   -6.7138  -11.9219 O   0  0  0  0  0  0  0  0  0  0  0  0
   21.2338   -7.1863  -14.2809 C   0  0  0  0  0  0  0  0  0  0  0  0
   20.0655   -8.1047  -14.0842 C   0  0  2  0  0  0  0  0  0  0  0  0
   19.8065   -8.9865  -15.1701 N   0  0  0  0  0  0  0  0  0  0  0  0
   18.8185   -7.3547  -13.7844 C   0  0  0  0  0  0  0  0  0  0  0  0
   18.1509   -6.7711  -14.6770 O   0  0  0  0  0  0  0  0  0  0  0  0
   15.4056   -7.3641   -8.4094 N   0  0  0  0  0  0  0  0  0  0  0  0
   14.7590   -6.4014   -9.2157 C   0  0  0  0  0  0  0  0  0  0  0  0
   13.6924   -5.8803   -8.8611 O   0  0  0  0  0  0  0  0  0  0  0  0
   15.3708   -6.0112  -10.5073 C   0  0  0  0  0  0  0  0  0  0  0  0
   16.6475   -6.7661  -10.7409 C   0  0  0  0  0  0  0  0  0  0  0  0
   17.1566   -6.4457  -12.1252 C   0  0  2  0  0  0  0  0  0  0  0  0
   18.2921   -7.2476  -12.4460 N   0  0  0  0  0  0  0  0  0  0  0  0
   17.4263   -4.9920  -12.1914 C   0  0  0  0  0  0  0  0  0  0  0  0
   18.5426   -4.4719  -11.9993 O   0  0  0  0  0  0  0  0  0  0  0  0
   16.3582   -4.1583  -12.4880 O   0  0  0  0  0  0  0  0  0  0  0  0
  2  1  1  0
  3  2  2  0
  4  3  1  0
  5  4  2  0
  5 11  1  0
  6  5  1  0
  7  9  1  0
  7  6  1  0
  7  8  1  1
  9 10  2  0
 11 12  2  0
 12  2  1  0
 13 14  1  0
 14 16  1  0
 14 15  2  0
 17 16  1  6
 18 17  1  0
 18  9  1  0
 19 17  1  0
 19 20  2  0
 21 22  1  0
 22 24  1  0
 22 23  2  0
 24 25  1  0
 26 25  1  1
 26 27  1  0
 26 28  1  0
 27 19  1  0
 28 29  2  0
 28 30  1  0
M  END
$$$$
