YNQ.pdb
     RDKit          3D

 30 30  0  0  1  0  0  0  0  0999 V2000
   25.5628  -22.0073   -6.9630 O   0  0  0  0  0  0  0  0  0  0  0  0
   25.6748  -21.3098   -8.1482 C   0  0  0  0  0  0  0  0  0  0  0  0
   26.4509  -20.1727   -8.2283 C   0  0  0  0  0  0  0  0  0  0  0  0
   26.5468  -19.4923   -9.4261 C   0  0  0  0  0  0  0  0  0  0  0  0
   25.8559  -19.9708  -10.5295 C   0  0  0  0  0  0  0  0  0  0  0  0
   25.9801  -19.2229  -11.7879 C   0  0  0  0  0  0  0  0  0  0  0  0
   26.6788  -20.0407  -12.8536 C   0  0  2  0  0  0  0  0  0  0  0  0
   28.0492  -20.2087  -12.4331 N   0  0  0  0  0  0  0  0  0  0  0  0
   26.6303  -19.2923  -14.1145 C   0  0  0  0  0  0  0  0  0  0  0  0
   27.4387  -18.3500  -14.3193 O   0  0  0  0  0  0  0  0  0  0  0  0
   25.0780  -21.1071  -10.4566 C   0  0  0  0  0  0  0  0  0  0  0  0
   24.9870  -21.7846   -9.2499 C   0  0  0  0  0  0  0  0  0  0  0  0
   27.3841  -16.7547  -16.8943 N   0  0  0  0  0  0  0  0  0  0  0  0
   27.5582  -17.9628  -17.6124 C   0  0  0  0  0  0  0  0  0  0  0  0
   28.5460  -18.0391  -18.3949 O   0  0  0  0  0  0  0  0  0  0  0  0
   26.5887  -19.0467  -17.4073 C   0  0  0  0  0  0  0  0  0  0  0  0
   25.5852  -18.7554  -16.3325 C   0  0  2  0  0  0  0  0  0  0  0  0
   25.7115  -19.5541  -15.1620 N   0  0  0  0  0  0  0  0  0  0  0  0
   24.1911  -18.8762  -16.8318 C   0  0  0  0  0  0  0  0  0  0  0  0
   23.3306  -19.5966  -16.2630 O   0  0  0  0  0  0  0  0  0  0  0  0
   19.9333  -16.5293  -14.1359 N   0  0  0  0  0  0  0  0  0  0  0  0
   20.0309  -16.5943  -15.5434 C   0  0  0  0  0  0  0  0  0  0  0  0
   19.3381  -15.8668  -16.2684 O   0  0  0  0  0  0  0  0  0  0  0  0
   20.9800  -17.5509  -16.1591 C   0  0  0  0  0  0  0  0  0  0  0  0
   21.9992  -16.8279  -16.9917 C   0  0  0  0  0  0  0  0  0  0  0  0
   22.3931  -17.7084  -18.1526 C   0  0  2  0  0  0  0  0  0  0  0  0
   23.7340  -18.1725  -18.0047 N   0  0  0  0  0  0  0  0  0  0  0  0
   22.1687  -16.9491  -19.4030 C   0  0  0  0  0  0  0  0  0  0  0  0
   22.6729  -15.8370  -19.6535 O   0  0  0  0  0  0  0  0  0  0  0  0
   21.3392  -17.5212  -20.3561 O   0  0  0  0  0  0  0  0  0  0  0  0
  2  1  1  0
  3  2  2  0
  4  3  1  0
  5  4  2  0
  5 11  1  0
  6  5  1  0
  7  9  1  0
  7  6  1  0
  7  8  1  1
  9 10  2  0
 11 12  2  0
 12  2  1  0
 13 14  1  0
 14 16  1  0
 14 15  2  0
 17 16  1  6
 18 17  1  0
 18  9  1  0
 19 17  1  0
 19 20  2  0
 21 22  1  0
 22 24  1  0
 22 23  2  0
 24 25  1  0
 26 25  1  1
 26 27  1  0
 26 28  1  0
 27 19  1  0
 28 29  2  0
 28 30  1  0
M  END
$$$$
