YNQ.pdb
     RDKit          3D

 30 30  0  0  1  0  0  0  0  0999 V2000
   30.1950  -20.9648   -9.4827 O   0  0  0  0  0  0  0  0  0  0  0  0
   29.2072  -20.6489  -10.3927 C   0  0  0  0  0  0  0  0  0  0  0  0
   27.8924  -20.5273   -9.9946 C   0  0  0  0  0  0  0  0  0  0  0  0
   26.9221  -20.2102  -10.9245 C   0  0  0  0  0  0  0  0  0  0  0  0
   27.2937  -20.0199  -12.2472 C   0  0  0  0  0  0  0  0  0  0  0  0
   26.2364  -19.6837  -13.2103 C   0  0  0  0  0  0  0  0  0  0  0  0
   25.2600  -20.8277  -13.3852 C   0  0  2  0  0  0  0  0  0  0  0  0
   25.9967  -21.9365  -13.9431 N   0  0  0  0  0  0  0  0  0  0  0  0
   24.2132  -20.4013  -14.3204 C   0  0  0  0  0  0  0  0  0  0  0  0
   24.3923  -20.5140  -15.5607 O   0  0  0  0  0  0  0  0  0  0  0  0
   28.6064  -20.1399  -12.6523 C   0  0  0  0  0  0  0  0  0  0  0  0
   29.5748  -20.4586  -11.7120 C   0  0  0  0  0  0  0  0  0  0  0  0
   19.8884  -22.2509  -14.0264 N   0  0  0  0  0  0  0  0  0  0  0  0
   20.4182  -21.3378  -14.9703 C   0  0  0  0  0  0  0  0  0  0  0  0
   20.7141  -21.7858  -16.1129 O   0  0  0  0  0  0  0  0  0  0  0  0
   20.5912  -19.9356  -14.5692 C   0  0  0  0  0  0  0  0  0  0  0  0
   21.9677  -19.4039  -14.8334 C   0  0  2  0  0  0  0  0  0  0  0  0
   22.9676  -19.8510  -13.9256 N   0  0  0  0  0  0  0  0  0  0  0  0
   21.9901  -17.9186  -14.8581 C   0  0  0  0  0  0  0  0  0  0  0  0
   22.4853  -17.2356  -13.9247 O   0  0  0  0  0  0  0  0  0  0  0  0
   24.9174  -13.5426  -14.9481 N   0  0  0  0  0  0  0  0  0  0  0  0
   24.9419  -14.0378  -16.2707 C   0  0  0  0  0  0  0  0  0  0  0  0
   25.8058  -13.6676  -17.0779 O   0  0  0  0  0  0  0  0  0  0  0  0
   23.9144  -15.0168  -16.6956 C   0  0  0  0  0  0  0  0  0  0  0  0
   22.9995  -15.3570  -15.5545 C   0  0  0  0  0  0  0  0  0  0  0  0
   21.6558  -15.7601  -16.1111 C   0  0  2  0  0  0  0  0  0  0  0  0
   21.4435  -17.1625  -15.9578 N   0  0  0  0  0  0  0  0  0  0  0  0
   21.5851  -15.3055  -17.5178 C   0  0  0  0  0  0  0  0  0  0  0  0
   21.5304  -14.1116  -17.8718 O   0  0  0  0  0  0  0  0  0  0  0  0
   21.5799  -16.2813  -18.5036 O   0  0  0  0  0  0  0  0  0  0  0  0
  2  1  1  0
  3  2  2  0
  4  3  1  0
  5  4  2  0
  5 11  1  0
  6  5  1  0
  7  9  1  0
  7  6  1  0
  7  8  1  6
  9 10  2  0
 11 12  2  0
 12  2  1  0
 13 14  1  0
 14 16  1  0
 14 15  2  0
 17 16  1  1
 18 17  1  0
 18  9  1  0
 19 17  1  0
 19 20  2  0
 21 22  1  0
 22 24  1  0
 22 23  2  0
 24 25  1  0
 26 25  1  6
 26 27  1  0
 26 28  1  0
 27 19  1  0
 28 29  2  0
 28 30  1  0
M  END
$$$$
