YNQ.pdb
     RDKit          3D

 30 30  0  0  1  0  0  0  0  0999 V2000
   30.4748  -16.4380  -19.5586 O   0  0  0  0  0  0  0  0  0  0  0  0
   29.5896  -17.1065  -18.7381 C   0  0  0  0  0  0  0  0  0  0  0  0
   29.9025  -17.3607  -17.4193 C   0  0  0  0  0  0  0  0  0  0  0  0
   28.9995  -18.0315  -16.6184 C   0  0  0  0  0  0  0  0  0  0  0  0
   27.7896  -18.4376  -17.1617 C   0  0  0  0  0  0  0  0  0  0  0  0
   26.8522  -19.1488  -16.2820 C   0  0  0  0  0  0  0  0  0  0  0  0
   27.4800  -20.3938  -15.6916 C   0  0  2  0  0  0  0  0  0  0  0  0
   27.6376  -21.3437  -16.7669 N   0  0  0  0  0  0  0  0  0  0  0  0
   26.5678  -20.9331  -14.6771 C   0  0  0  0  0  0  0  0  0  0  0  0
   25.7944  -21.8827  -14.9662 O   0  0  0  0  0  0  0  0  0  0  0  0
   27.4701  -18.1869  -18.4796 C   0  0  0  0  0  0  0  0  0  0  0  0
   28.3826  -17.5125  -19.2772 C   0  0  0  0  0  0  0  0  0  0  0  0
   25.0234  -20.7925   -8.6507 N   0  0  0  0  0  0  0  0  0  0  0  0
   24.9235  -21.1989  -10.0036 C   0  0  0  0  0  0  0  0  0  0  0  0
   23.9725  -21.9698  -10.3124 O   0  0  0  0  0  0  0  0  0  0  0  0
   25.9224  -20.7048  -10.9601 C   0  0  0  0  0  0  0  0  0  0  0  0
   25.5286  -20.9055  -12.3925 C   0  0  2  0  0  0  0  0  0  0  0  0
   26.4830  -20.4533  -13.3457 N   0  0  0  0  0  0  0  0  0  0  0  0
   24.2229  -20.2671  -12.7004 C   0  0  0  0  0  0  0  0  0  0  0  0
   24.0292  -19.0306  -12.5714 O   0  0  0  0  0  0  0  0  0  0  0  0
   22.3147  -18.8306  -16.5712 N   0  0  0  0  0  0  0  0  0  0  0  0
   22.8383  -20.1411  -16.5132 C   0  0  0  0  0  0  0  0  0  0  0  0
   23.7586  -20.4975  -17.2622 O   0  0  0  0  0  0  0  0  0  0  0  0
   22.2739  -21.1030  -15.5378 C   0  0  0  0  0  0  0  0  0  0  0  0
   21.2720  -20.4293  -14.6452 C   0  0  0  0  0  0  0  0  0  0  0  0
   21.7694  -20.4904  -13.2215 C   0  0  2  0  0  0  0  0  0  0  0  0
   23.0901  -21.0271  -13.1685 N   0  0  0  0  0  0  0  0  0  0  0  0
   20.7894  -21.2615  -12.4243 C   0  0  0  0  0  0  0  0  0  0  0  0
   20.9801  -22.4169  -11.9972 O   0  0  0  0  0  0  0  0  0  0  0  0
   19.5784  -20.6493  -12.1372 O   0  0  0  0  0  0  0  0  0  0  0  0
  2  1  1  0
  3  2  2  0
  4  3  1  0
  5  4  2  0
  5 11  1  0
  6  5  1  0
  7  9  1  0
  7  6  1  0
  7  8  1  6
  9 10  2  0
 11 12  2  0
 12  2  1  0
 13 14  1  0
 14 16  1  0
 14 15  2  0
 17 16  1  1
 18 17  1  0
 18  9  1  0
 19 17  1  0
 19 20  2  0
 21 22  1  0
 22 24  1  0
 22 23  2  0
 24 25  1  0
 26 25  1  6
 26 27  1  0
 26 28  1  0
 27 19  1  0
 28 29  2  0
 28 30  1  0
M  END
$$$$
