YNQ.pdb
     RDKit          3D

 30 30  0  0  1  0  0  0  0  0999 V2000
   20.1643  -23.0951   -6.4220 O   0  0  0  0  0  0  0  0  0  0  0  0
   20.8821  -22.4603   -7.4148 C   0  0  0  0  0  0  0  0  0  0  0  0
   20.7756  -22.8610   -8.7300 C   0  0  0  0  0  0  0  0  0  0  0  0
   21.5045  -22.2096   -9.7053 C   0  0  0  0  0  0  0  0  0  0  0  0
   22.3331  -21.1596   -9.3381 C   0  0  0  0  0  0  0  0  0  0  0  0
   23.0941  -20.4886  -10.4006 C   0  0  0  0  0  0  0  0  0  0  0  0
   24.2964  -21.3059  -10.8238 C   0  0  2  0  0  0  0  0  0  0  0  0
   25.2814  -21.1912   -9.7750 N   0  0  0  0  0  0  0  0  0  0  0  0
   24.8238  -20.7388  -12.0697 C   0  0  0  0  0  0  0  0  0  0  0  0
   25.4028  -19.6217  -12.0581 O   0  0  0  0  0  0  0  0  0  0  0  0
   22.4444  -20.7536   -8.0249 C   0  0  0  0  0  0  0  0  0  0  0  0
   21.7090  -21.4132   -7.0515 C   0  0  0  0  0  0  0  0  0  0  0  0
   28.2693  -20.8398  -16.3498 N   0  0  0  0  0  0  0  0  0  0  0  0
   26.9025  -21.2068  -16.4033 C   0  0  0  0  0  0  0  0  0  0  0  0
   26.2892  -21.0152  -17.4900 O   0  0  0  0  0  0  0  0  0  0  0  0
   26.2835  -21.7835  -15.2029 C   0  0  0  0  0  0  0  0  0  0  0  0
   25.3138  -20.8606  -14.5285 C   0  0  2  0  0  0  0  0  0  0  0  0
   24.7309  -21.3711  -13.3354 N   0  0  0  0  0  0  0  0  0  0  0  0
   24.2185  -20.4469  -15.4431 C   0  0  0  0  0  0  0  0  0  0  0  0
   23.0339  -20.8465  -15.3015 O   0  0  0  0  0  0  0  0  0  0  0  0
   21.0634  -17.6473  -14.3110 N   0  0  0  0  0  0  0  0  0  0  0  0
   21.0950  -16.6612  -15.3217 C   0  0  0  0  0  0  0  0  0  0  0  0
   20.1376  -15.8955  -15.5005 O   0  0  0  0  0  0  0  0  0  0  0  0
   22.2965  -16.5444  -16.1807 C   0  0  0  0  0  0  0  0  0  0  0  0
   23.3347  -17.5538  -15.7836 C   0  0  0  0  0  0  0  0  0  0  0  0
   23.5263  -18.5284  -16.9200 C   0  0  2  0  0  0  0  0  0  0  0  0
   24.4446  -19.5577  -16.5558 N   0  0  0  0  0  0  0  0  0  0  0  0
   23.9449  -17.7640  -18.1162 C   0  0  0  0  0  0  0  0  0  0  0  0
   25.1275  -17.4954  -18.4040 O   0  0  0  0  0  0  0  0  0  0  0  0
   22.9464  -17.3197  -18.9704 O   0  0  0  0  0  0  0  0  0  0  0  0
  2  1  1  0
  3  2  2  0
  4  3  1  0
  5  4  2  0
  5 11  1  0
  6  5  1  0
  7  9  1  0
  7  6  1  0
  7  8  1  1
  9 10  2  0
 11 12  2  0
 12  2  1  0
 13 14  1  0
 14 16  1  0
 14 15  2  0
 17 16  1  6
 18 17  1  0
 18  9  1  0
 19 17  1  0
 19 20  2  0
 21 22  1  0
 22 24  1  0
 22 23  2  0
 24 25  1  0
 26 25  1  1
 26 27  1  0
 26 28  1  0
 27 19  1  0
 28 29  2  0
 28 30  1  0
M  END
$$$$
