YNQ.pdb
     RDKit          3D

 30 30  0  0  1  0  0  0  0  0999 V2000
   36.6086  -14.0939  -20.8333 O   0  0  0  0  0  0  0  0  0  0  0  0
   35.3526  -13.6108  -20.5285 C   0  0  0  0  0  0  0  0  0  0  0  0
   34.8918  -12.4377  -21.0881 C   0  0  0  0  0  0  0  0  0  0  0  0
   33.6310  -11.9750  -20.7671 C   0  0  0  0  0  0  0  0  0  0  0  0
   32.8507  -12.7053  -19.8829 C   0  0  0  0  0  0  0  0  0  0  0  0
   31.5146  -12.1847  -19.5633 C   0  0  0  0  0  0  0  0  0  0  0  0
   31.5808  -11.0842  -18.5253 C   0  0  2  0  0  0  0  0  0  0  0  0
   32.0729  -11.6772  -17.3049 N   0  0  0  0  0  0  0  0  0  0  0  0
   30.2249  -10.5642  -18.3178 C   0  0  0  0  0  0  0  0  0  0  0  0
   29.5715  -10.8984  -17.2957 O   0  0  0  0  0  0  0  0  0  0  0  0
   33.3051  -13.8791  -19.3196 C   0  0  0  0  0  0  0  0  0  0  0  0
   34.5726  -14.3368  -19.6473 C   0  0  0  0  0  0  0  0  0  0  0  0
   25.7941   -8.0939  -18.4062 N   0  0  0  0  0  0  0  0  0  0  0  0
   26.9043   -7.2952  -18.0387 C   0  0  0  0  0  0  0  0  0  0  0  0
   26.6689   -6.2098  -17.4386 O   0  0  0  0  0  0  0  0  0  0  0  0
   28.2526   -7.7714  -18.3738 C   0  0  0  0  0  0  0  0  0  0  0  0
   28.2683   -9.1403  -18.9845 C   0  0  2  0  0  0  0  0  0  0  0  0
   29.5645   -9.6816  -19.2095 N   0  0  0  0  0  0  0  0  0  0  0  0
   27.5164   -9.1817  -20.2652 C   0  0  0  0  0  0  0  0  0  0  0  0
   28.0889   -9.1511  -21.3852 O   0  0  0  0  0  0  0  0  0  0  0  0
   24.6898  -12.3888  -25.4117 N   0  0  0  0  0  0  0  0  0  0  0  0
   25.4145  -12.0266  -24.2547 C   0  0  0  0  0  0  0  0  0  0  0  0
   26.3131  -12.7529  -23.8076 O   0  0  0  0  0  0  0  0  0  0  0  0
   25.0908  -10.7548  -23.5672 C   0  0  0  0  0  0  0  0  0  0  0  0
   25.8627  -10.6316  -22.2852 C   0  0  0  0  0  0  0  0  0  0  0  0
   25.3478   -9.4372  -21.5195 C   0  0  2  0  0  0  0  0  0  0  0  0
   26.0769   -9.2601  -20.3061 N   0  0  0  0  0  0  0  0  0  0  0  0
   23.8937   -9.6166  -21.3103 C   0  0  0  0  0  0  0  0  0  0  0  0
   23.3619   -9.8402  -20.2053 O   0  0  0  0  0  0  0  0  0  0  0  0
   23.0735   -9.5284  -22.4254 O   0  0  0  0  0  0  0  0  0  0  0  0
  2  1  1  0
  3  2  2  0
  4  3  1  0
  5  4  2  0
  5 11  1  0
  6  5  1  0
  7  9  1  0
  7  6  1  0
  7  8  1  1
  9 10  2  0
 11 12  2  0
 12  2  1  0
 13 14  1  0
 14 16  1  0
 14 15  2  0
 17 16  1  6
 18 17  1  0
 18  9  1  0
 19 17  1  0
 19 20  2  0
 21 22  1  0
 22 24  1  0
 22 23  2  0
 24 25  1  0
 26 25  1  1
 26 27  1  0
 26 28  1  0
 27 19  1  0
 28 29  2  0
 28 30  1  0
M  END
$$$$
