YNQ.pdb
     RDKit          3D

 30 30  0  0  1  0  0  0  0  0999 V2000
   28.8622  -19.8141   -2.9306 O   0  0  0  0  0  0  0  0  0  0  0  0
   28.4569  -19.7538   -4.2481 C   0  0  0  0  0  0  0  0  0  0  0  0
   27.1294  -19.9110   -4.5869 C   0  0  0  0  0  0  0  0  0  0  0  0
   26.7489  -19.8464   -5.9128 C   0  0  0  0  0  0  0  0  0  0  0  0
   27.7168  -19.6234   -6.8809 C   0  0  0  0  0  0  0  0  0  0  0  0
   27.2777  -19.5604   -8.2815 C   0  0  0  0  0  0  0  0  0  0  0  0
   27.4738  -20.8866   -8.9854 C   0  0  2  0  0  0  0  0  0  0  0  0
   28.8945  -21.1350   -9.0404 N   0  0  0  0  0  0  0  0  0  0  0  0
   26.9329  -20.7714  -10.3443 C   0  0  0  0  0  0  0  0  0  0  0  0
   27.7130  -20.6666  -11.3261 O   0  0  0  0  0  0  0  0  0  0  0  0
   29.0460  -19.4653   -6.5493 C   0  0  0  0  0  0  0  0  0  0  0  0
   29.4198  -19.5316   -5.2154 C   0  0  0  0  0  0  0  0  0  0  0  0
   24.5031  -23.8906  -14.2237 N   0  0  0  0  0  0  0  0  0  0  0  0
   24.9034  -22.5734  -13.8916 C   0  0  0  0  0  0  0  0  0  0  0  0
   24.7478  -21.6780  -14.7679 O   0  0  0  0  0  0  0  0  0  0  0  0
   25.4709  -22.3275  -12.5596 C   0  0  0  0  0  0  0  0  0  0  0  0
   25.0191  -21.0364  -11.9466 C   0  0  2  0  0  0  0  0  0  0  0  0
   25.5494  -20.7685  -10.6539 N   0  0  0  0  0  0  0  0  0  0  0  0
   23.5379  -20.9503  -11.8705 C   0  0  0  0  0  0  0  0  0  0  0  0
   22.8193  -21.9369  -11.5651 O   0  0  0  0  0  0  0  0  0  0  0  0
   20.0726  -16.8523  -15.1229 N   0  0  0  0  0  0  0  0  0  0  0  0
   19.0974  -17.4904  -14.3249 C   0  0  0  0  0  0  0  0  0  0  0  0
   17.8927  -17.2330  -14.4566 O   0  0  0  0  0  0  0  0  0  0  0  0
   19.5276  -18.4844  -13.3139 C   0  0  0  0  0  0  0  0  0  0  0  0
   21.0179  -18.6646  -13.3456 C   0  0  0  0  0  0  0  0  0  0  0  0
   21.4090  -19.6732  -12.2931 C   0  0  2  0  0  0  0  0  0  0  0  0
   22.8268  -19.7255  -12.1430 N   0  0  0  0  0  0  0  0  0  0  0  0
   20.8085  -20.9757  -12.6580 C   0  0  0  0  0  0  0  0  0  0  0  0
   21.1723  -21.6749  -13.6237 O   0  0  0  0  0  0  0  0  0  0  0  0
   19.7702  -21.4433  -11.8660 O   0  0  0  0  0  0  0  0  0  0  0  0
  2  1  1  0
  3  2  2  0
  4  3  1  0
  5  4  2  0
  5 11  1  0
  6  5  1  0
  7  9  1  0
  7  6  1  0
  7  8  1  6
  9 10  2  0
 11 12  2  0
 12  2  1  0
 13 14  1  0
 14 16  1  0
 14 15  2  0
 17 16  1  1
 18 17  1  0
 18  9  1  0
 19 17  1  0
 19 20  2  0
 21 22  1  0
 22 24  1  0
 22 23  2  0
 24 25  1  0
 26 25  1  6
 26 27  1  0
 26 28  1  0
 27 19  1  0
 28 29  2  0
 28 30  1  0
M  END
$$$$
