AKE.pdb
     RDKit          3D

 24 23  0  0  1  0  0  0  0  0999 V2000
    8.9880  -21.2591   18.3585 C   0  0  0  0  0  0  0  0  0  0  0  0
    8.2324  -20.0609   17.8360 C   0  0  2  0  0  0  0  0  0  0  0  0
    8.4679  -19.9784   16.4020 N   0  0  0  0  0  0  0  0  0  0  0  0
    8.6996  -18.7973   18.4600 C   0  0  0  0  0  0  0  0  0  0  0  0
    9.8524  -18.3132   18.2000 O   0  0  0  0  0  0  0  0  0  0  0  0
    7.9211  -18.0528   19.3679 N   0  0  0  0  0  0  0  0  0  0  0  0
    8.3599  -16.9221   20.1200 C   0  0  1  0  0  0  0  0  0  0  0  0
    7.2245  -16.0813   20.6471 C   0  0  0  0  0  0  0  0  0  0  0  0
    7.6541  -14.8671   21.3848 C   0  0  0  0  0  0  0  0  0  0  0  0
    7.8627  -13.7454   20.3917 C   0  0  0  0  0  0  0  0  0  0  0  0
    8.1880  -12.4309   21.0264 C   0  0  0  0  0  0  0  0  0  0  0  0
    8.2631  -11.4370   19.9451 N   0  0  0  0  0  0  0  0  0  0  0  0
    9.3878  -17.2332   21.1390 C   0  0  0  0  0  0  0  0  0  0  0  0
    9.2903  -18.1645   21.9821 O   0  0  0  0  0  0  0  0  0  0  0  0
   10.5861  -16.4704   21.2263 N   0  0  0  0  0  0  0  0  0  0  0  0
   11.6561  -16.7910   22.1419 C   0  0  1  0  0  0  0  0  0  0  0  0
   12.8800  -15.9933   21.8293 C   0  0  0  0  0  0  0  0  0  0  0  0
   14.0217  -16.1578   22.7675 C   0  0  0  0  0  0  0  0  0  0  0  0
   15.1939  -15.3223   22.4196 C   0  0  0  0  0  0  0  0  0  0  0  0
   15.2487  -14.6433   21.3644 O   0  0  0  0  0  0  0  0  0  0  0  0
   11.2455  -16.4277   23.5252 C   0  0  0  0  0  0  0  0  0  0  0  0
   11.8692  -16.9150   24.6512 O   0  0  0  0  0  0  0  0  0  0  0  0
   16.2870  -15.2672   23.2704 O   0  0  0  0  0  0  0  0  0  0  0  0
   10.2853  -15.6398   23.6815 O   0  0  0  0  0  0  0  0  0  0  0  0
  2  1  1  1
  2  3  1  0
  4  5  2  0
  4  2  1  0
  6  4  1  0
  7  6  1  0
  7  8  1  1
  9 10  1  0
  9  8  1  0
 10 11  1  0
 11 12  1  0
 13  7  1  0
 13 15  1  0
 14 13  2  0
 16 15  1  0
 16 21  1  0
 16 17  1  6
 18 17  1  0
 19 20  2  0
 19 18  1  0
 21 24  2  0
 21 22  1  0
 23 19  1  0
M  END
$$$$
