AKE.pdb
     RDKit          3D

 24 23  0  0  1  0  0  0  0  0999 V2000
    8.6773  -19.8705   17.9380 C   0  0  0  0  0  0  0  0  0  0  0  0
    7.7963  -18.6642   18.1582 C   0  0  2  0  0  0  0  0  0  0  0  0
    8.6369  -17.4790   18.0716 N   0  0  0  0  0  0  0  0  0  0  0  0
    7.1542  -18.6852   19.4966 C   0  0  0  0  0  0  0  0  0  0  0  0
    7.7473  -18.2181   20.5267 O   0  0  0  0  0  0  0  0  0  0  0  0
    5.8678  -19.2117   19.7257 N   0  0  0  0  0  0  0  0  0  0  0  0
    5.2212  -19.3278   20.9926 C   0  0  1  0  0  0  0  0  0  0  0  0
    3.7167  -19.3536   20.8925 C   0  0  0  0  0  0  0  0  0  0  0  0
    3.0230  -19.6198   22.1773 C   0  0  0  0  0  0  0  0  0  0  0  0
    1.5335  -19.6782   21.9205 C   0  0  0  0  0  0  0  0  0  0  0  0
    0.7220  -19.9690   23.1427 C   0  0  0  0  0  0  0  0  0  0  0  0
   -0.6851  -20.0350   22.7200 N   0  0  0  0  0  0  0  0  0  0  0  0
    5.7742  -20.3920   21.8606 C   0  0  0  0  0  0  0  0  0  0  0  0
    5.6471  -21.6256   21.6374 O   0  0  0  0  0  0  0  0  0  0  0  0
    6.5064  -20.0695   23.0376 N   0  0  0  0  0  0  0  0  0  0  0  0
    7.0861  -21.0717   23.9011 C   0  0  1  0  0  0  0  0  0  0  0  0
    8.5633  -21.1598   23.6960 C   0  0  0  0  0  0  0  0  0  0  0  0
    9.3602  -20.0089   24.1973 C   0  0  0  0  0  0  0  0  0  0  0  0
   10.8213  -20.1922   24.0399 C   0  0  0  0  0  0  0  0  0  0  0  0
   11.5865  -20.3817   25.0176 O   0  0  0  0  0  0  0  0  0  0  0  0
    6.8697  -20.6827   25.3209 C   0  0  0  0  0  0  0  0  0  0  0  0
    6.3364  -19.4717   25.6998 O   0  0  0  0  0  0  0  0  0  0  0  0
   11.3955  -20.1584   22.7785 O   0  0  0  0  0  0  0  0  0  0  0  0
    7.1858  -21.4918   26.2224 O   0  0  0  0  0  0  0  0  0  0  0  0
  2  1  1  1
  2  3  1  0
  4  5  2  0
  4  2  1  0
  6  4  1  0
  7  6  1  0
  7  8  1  6
  9 10  1  0
  9  8  1  0
 10 11  1  0
 11 12  1  0
 13  7  1  0
 13 15  1  0
 14 13  2  0
 16 15  1  0
 16 21  1  0
 16 17  1  6
 18 17  1  0
 19 20  2  0
 19 18  1  0
 21 24  2  0
 21 22  1  0
 23 19  1  0
M  END
$$$$
