AKE.pdb
     RDKit          3D

 24 23  0  0  1  0  0  0  0  0999 V2000
    9.2648  -12.7121   19.4261 C   0  0  0  0  0  0  0  0  0  0  0  0
    8.0311  -13.5815   19.4700 C   0  0  2  0  0  0  0  0  0  0  0  0
    6.8701  -12.7106   19.3582 N   0  0  0  0  0  0  0  0  0  0  0  0
    7.9300  -14.3340   20.7458 C   0  0  0  0  0  0  0  0  0  0  0  0
    7.7317  -13.7365   21.8569 O   0  0  0  0  0  0  0  0  0  0  0  0
    8.0431  -15.7361   20.8242 N   0  0  0  0  0  0  0  0  0  0  0  0
    7.9956  -16.5170   22.0177 C   0  0  1  0  0  0  0  0  0  0  0  0
    7.6188  -17.9564   21.7722 C   0  0  0  0  0  0  0  0  0  0  0  0
    7.6030  -18.8009   22.9926 C   0  0  0  0  0  0  0  0  0  0  0  0
    7.3374  -20.2337   22.5867 C   0  0  0  0  0  0  0  0  0  0  0  0
    7.2270  -21.1770   23.7421 C   0  0  0  0  0  0  0  0  0  0  0  0
    5.8770  -21.0155   24.3027 N   0  0  0  0  0  0  0  0  0  0  0  0
    9.1772  -16.3566   22.8950 C   0  0  0  0  0  0  0  0  0  0  0  0
   10.3702  -16.4042   22.4923 O   0  0  0  0  0  0  0  0  0  0  0  0
    9.0261  -16.1316   24.2921 N   0  0  0  0  0  0  0  0  0  0  0  0
   10.1436  -15.8835   25.1729 C   0  0  1  0  0  0  0  0  0  0  0  0
    9.6998  -15.1643   26.4049 C   0  0  0  0  0  0  0  0  0  0  0  0
   10.2404  -15.6801   27.6904 C   0  0  0  0  0  0  0  0  0  0  0  0
   10.1898  -14.6889   28.7897 C   0  0  0  0  0  0  0  0  0  0  0  0
    9.6154  -13.5784   28.6704 O   0  0  0  0  0  0  0  0  0  0  0  0
   10.7196  -17.1823   25.6149 C   0  0  0  0  0  0  0  0  0  0  0  0
   12.0606  -17.3692   25.8620 O   0  0  0  0  0  0  0  0  0  0  0  0
   10.7898  -14.9685   30.0077 O   0  0  0  0  0  0  0  0  0  0  0  0
    9.9528  -18.1592   25.7724 O   0  0  0  0  0  0  0  0  0  0  0  0
  2  1  1  1
  2  3  1  0
  4  5  2  0
  4  2  1  0
  6  4  1  0
  7  6  1  0
  7  8  1  6
  9 10  1  0
  9  8  1  0
 10 11  1  0
 11 12  1  0
 13  7  1  0
 13 15  1  0
 14 13  2  0
 16 15  1  0
 16 21  1  0
 16 17  1  1
 18 17  1  0
 19 20  2  0
 19 18  1  0
 21 24  2  0
 21 22  1  0
 23 19  1  0
M  END
$$$$
