AKE.pdb
     RDKit          3D

 24 23  0  0  1  0  0  0  0  0999 V2000
    7.4165  -12.4412   19.6181 C   0  0  0  0  0  0  0  0  0  0  0  0
    8.4665  -13.5116   19.7956 C   0  0  2  0  0  0  0  0  0  0  0  0
    8.3340  -14.4507   18.6914 N   0  0  0  0  0  0  0  0  0  0  0  0
    8.2871  -14.2568   21.0672 C   0  0  0  0  0  0  0  0  0  0  0  0
    8.3780  -13.6727   22.1993 O   0  0  0  0  0  0  0  0  0  0  0  0
    8.0086  -15.6367   21.1187 N   0  0  0  0  0  0  0  0  0  0  0  0
    7.8520  -16.4183   22.3024 C   0  0  1  0  0  0  0  0  0  0  0  0
    7.1874  -17.7488   22.0532 C   0  0  0  0  0  0  0  0  0  0  0  0
    7.0114  -18.5816   23.2691 C   0  0  0  0  0  0  0  0  0  0  0  0
    6.4330  -19.9183   22.8611 C   0  0  0  0  0  0  0  0  0  0  0  0
    6.2493  -20.8690   24.0009 C   0  0  0  0  0  0  0  0  0  0  0  0
    5.8092  -22.1496   23.4273 N   0  0  0  0  0  0  0  0  0  0  0  0
    9.0743  -16.5143   23.1321 C   0  0  0  0  0  0  0  0  0  0  0  0
   10.2135  -16.8119   22.6834 O   0  0  0  0  0  0  0  0  0  0  0  0
    9.0292  -16.2668   24.5329 N   0  0  0  0  0  0  0  0  0  0  0  0
   10.2124  -16.2133   25.3594 C   0  0  1  0  0  0  0  0  0  0  0  0
    9.9308  -15.5076   26.6457 C   0  0  0  0  0  0  0  0  0  0  0  0
    9.4932  -14.0913   26.5291 C   0  0  0  0  0  0  0  0  0  0  0  0
    9.1208  -13.4821   27.8266 C   0  0  0  0  0  0  0  0  0  0  0  0
    9.2650  -14.0832   28.9199 O   0  0  0  0  0  0  0  0  0  0  0  0
   10.6314  -17.5976   25.7090 C   0  0  0  0  0  0  0  0  0  0  0  0
   11.8142  -17.8901   26.3492 O   0  0  0  0  0  0  0  0  0  0  0  0
    8.5906  -12.2019   27.8683 O   0  0  0  0  0  0  0  0  0  0  0  0
    9.8759  -18.5498   25.4094 O   0  0  0  0  0  0  0  0  0  0  0  0
  2  1  1  6
  2  3  1  0
  4  5  2  0
  4  2  1  0
  6  4  1  0
  7  6  1  0
  7  8  1  6
  9 10  1  0
  9  8  1  0
 10 11  1  0
 11 12  1  0
 13  7  1  0
 13 15  1  0
 14 13  2  0
 16 15  1  0
 16 21  1  0
 16 17  1  1
 18 17  1  0
 19 20  2  0
 19 18  1  0
 21 24  2  0
 21 22  1  0
 23 19  1  0
M  END
$$$$
