TPE.pdb
     RDKit          3D

 24 24  0  0  1  0  0  0  0  0999 V2000
   21.7477  -10.1904  -19.2609 C   0  0  0  0  0  0  0  0  0  0  0  0
   20.5593  -11.0852  -19.1776 C   0  0  1  0  0  0  0  0  0  0  0  0
   20.3736  -11.8937  -20.2864 O   0  0  0  0  0  0  0  0  0  0  0  0
   20.6091  -11.8869  -17.8919 C   0  0  2  0  0  0  0  0  0  0  0  0
   19.5620  -12.8801  -17.8960 N   0  0  0  0  0  0  0  0  0  0  0  0
   20.5908  -11.0215  -16.6923 C   0  0  0  0  0  0  0  0  0  0  0  0
   19.5049  -10.4204  -16.4520 O   0  0  0  0  0  0  0  0  0  0  0  0
   21.7044  -10.8588  -15.8479 N   0  0  0  0  0  0  0  0  0  0  0  0
   22.9750  -11.5217  -15.9785 C   0  0  0  0  0  0  0  0  0  0  0  0
   23.8704  -10.9472  -14.8821 C   0  0  0  0  0  0  0  0  0  0  0  0
   22.8613  -10.5979  -13.8096 C   0  0  0  0  0  0  0  0  0  0  0  0
   21.7613   -9.9772  -14.6891 C   0  0  1  0  0  0  0  0  0  0  0  0
   22.2594   -8.6293  -15.0744 C   0  0  0  0  0  0  0  0  0  0  0  0
   23.0153   -8.4855  -16.0924 O   0  0  0  0  0  0  0  0  0  0  0  0
   21.9342   -7.4640  -14.3599 N   0  0  0  0  0  0  0  0  0  0  0  0
   22.1821   -6.0993  -14.9179 C   0  0  1  0  0  0  0  0  0  0  0  0
   21.0704   -5.7857  -15.8643 C   0  0  0  0  0  0  0  0  0  0  0  0
   19.7179   -5.7330  -15.2990 C   0  0  0  0  0  0  0  0  0  0  0  0
   18.6120   -5.3776  -16.2069 C   0  0  0  0  0  0  0  0  0  0  0  0
   18.7547   -4.6569  -17.2443 O   0  0  0  0  0  0  0  0  0  0  0  0
   22.3444   -5.1710  -13.8359 C   0  0  0  0  0  0  0  0  0  0  0  0
   22.7783   -4.0125  -14.0111 O   0  0  0  0  0  0  0  0  0  0  0  0
   17.3360   -5.8416  -15.9384 O   0  0  0  0  0  0  0  0  0  0  0  0
   22.0030   -5.5363  -12.5262 O   0  0  0  0  0  0  0  0  0  0  0  0
  2  1  1  6
  3  2  1  0
  4  6  1  0
  4  2  1  0
  4  5  1  1
  6  7  2  0
  8 12  1  0
  8  6  1  0
  9  8  1  0
 10  9  1  0
 10 11  1  0
 11 12  1  0
 12 13  1  6
 13 15  1  0
 13 14  2  0
 15 16  1  0
 16 21  1  0
 16 17  1  6
 18 17  1  0
 19 18  1  0
 20 19  2  0
 21 22  2  0
 21 24  1  0
 23 19  1  0
M  END
$$$$
