TPE.pdb
     RDKit          3D

 24 24  0  0  1  0  0  0  0  0999 V2000
   22.1202  -11.9977  -20.3484 C   0  0  0  0  0  0  0  0  0  0  0  0
   21.8943  -11.0711  -19.2037 C   0  0  1  0  0  0  0  0  0  0  0  0
   21.3213   -9.8599  -19.5532 O   0  0  0  0  0  0  0  0  0  0  0  0
   21.1087  -11.7788  -18.1173 C   0  0  2  0  0  0  0  0  0  0  0  0
   19.8558  -12.2542  -18.6530 N   0  0  0  0  0  0  0  0  0  0  0  0
   20.9489  -10.9422  -16.9078 C   0  0  0  0  0  0  0  0  0  0  0  0
   19.8738  -10.2829  -16.8210 O   0  0  0  0  0  0  0  0  0  0  0  0
   21.9221  -10.8667  -15.8944 N   0  0  0  0  0  0  0  0  0  0  0  0
   23.1474  -11.6190  -15.8340 C   0  0  0  0  0  0  0  0  0  0  0  0
   23.8945  -11.1186  -14.5990 C   0  0  0  0  0  0  0  0  0  0  0  0
   22.7542  -10.7047  -13.6939 C   0  0  0  0  0  0  0  0  0  0  0  0
   21.8552   -9.9998  -14.7252 C   0  0  1  0  0  0  0  0  0  0  0  0
   22.5020   -8.6888  -15.0014 C   0  0  0  0  0  0  0  0  0  0  0  0
   23.2317   -8.5327  -16.0367 O   0  0  0  0  0  0  0  0  0  0  0  0
   22.3505   -7.5725  -14.1617 N   0  0  0  0  0  0  0  0  0  0  0  0
   22.3932   -6.1743  -14.6896 C   0  0  1  0  0  0  0  0  0  0  0  0
   21.3758   -6.0672  -15.7772 C   0  0  0  0  0  0  0  0  0  0  0  0
   21.1564   -4.7331  -16.3463 C   0  0  0  0  0  0  0  0  0  0  0  0
   20.1805   -4.6117  -17.4447 C   0  0  0  0  0  0  0  0  0  0  0  0
   19.6268   -5.6066  -18.0098 O   0  0  0  0  0  0  0  0  0  0  0  0
   22.2239   -5.2552  -13.6009 C   0  0  0  0  0  0  0  0  0  0  0  0
   21.5261   -5.5277  -12.6009 O   0  0  0  0  0  0  0  0  0  0  0  0
   19.8292   -3.3550  -17.9062 O   0  0  0  0  0  0  0  0  0  0  0  0
   22.8577   -4.0048  -13.6186 O   0  0  0  0  0  0  0  0  0  0  0  0
  2  1  1  6
  3  2  1  0
  4  6  1  0
  4  2  1  0
  4  5  1  6
  6  7  2  0
  8 12  1  0
  8  6  1  0
  9  8  1  0
 10  9  1  0
 10 11  1  0
 11 12  1  0
 12 13  1  6
 13 15  1  0
 13 14  2  0
 15 16  1  0
 16 21  1  0
 16 17  1  6
 18 17  1  0
 19 18  1  0
 20 19  2  0
 21 22  2  0
 21 24  1  0
 23 19  1  0
M  END
$$$$
