TPE.pdb
     RDKit          3D

 24 24  0  0  1  0  0  0  0  0999 V2000
   16.1665  -10.0995  -16.5748 C   0  0  0  0  0  0  0  0  0  0  0  0
   16.1717  -11.1625  -15.5309 C   0  0  1  0  0  0  0  0  0  0  0  0
   14.9544  -11.7994  -15.3577 O   0  0  0  0  0  0  0  0  0  0  0  0
   17.2933  -12.1453  -15.8041 C   0  0  2  0  0  0  0  0  0  0  0  0
   17.1809  -13.2734  -14.9111 N   0  0  0  0  0  0  0  0  0  0  0  0
   18.6236  -11.4995  -15.7675 C   0  0  0  0  0  0  0  0  0  0  0  0
   19.0541  -11.1682  -14.6259 O   0  0  0  0  0  0  0  0  0  0  0  0
   19.3893  -11.2564  -16.9226 N   0  0  0  0  0  0  0  0  0  0  0  0
   19.0287  -11.6059  -18.2713 C   0  0  0  0  0  0  0  0  0  0  0  0
   20.1385  -11.0558  -19.1655 C   0  0  0  0  0  0  0  0  0  0  0  0
   21.3376  -11.1169  -18.2440 C   0  0  0  0  0  0  0  0  0  0  0  0
   20.6885  -10.5972  -16.9489 C   0  0  1  0  0  0  0  0  0  0  0  0
   20.5327   -9.1290  -17.1316 C   0  0  0  0  0  0  0  0  0  0  0  0
   19.4844   -8.6531  -17.6823 O   0  0  0  0  0  0  0  0  0  0  0  0
   21.5044   -8.2022  -16.7178 N   0  0  0  0  0  0  0  0  0  0  0  0
   21.2849   -6.7270  -16.8211 C   0  0  1  0  0  0  0  0  0  0  0  0
   21.0977   -6.1967  -15.4379 C   0  0  0  0  0  0  0  0  0  0  0  0
   22.2600   -6.2580  -14.5450 C   0  0  0  0  0  0  0  0  0  0  0  0
   22.1124   -5.6898  -13.1925 C   0  0  0  0  0  0  0  0  0  0  0  0
   21.7408   -4.4955  -12.9657 O   0  0  0  0  0  0  0  0  0  0  0  0
   22.3665   -6.1411  -17.5597 C   0  0  0  0  0  0  0  0  0  0  0  0
   23.4122   -6.7720  -17.8236 O   0  0  0  0  0  0  0  0  0  0  0  0
   22.3871   -6.4795  -12.0896 O   0  0  0  0  0  0  0  0  0  0  0  0
   22.2777   -4.8229  -18.0287 O   0  0  0  0  0  0  0  0  0  0  0  0
  2  1  1  6
  3  2  1  0
  4  6  1  0
  4  2  1  0
  4  5  1  1
  6  7  2  0
  8 12  1  0
  8  6  1  0
  9  8  1  0
 10  9  1  0
 10 11  1  0
 11 12  1  0
 12 13  1  6
 13 15  1  0
 13 14  2  0
 15 16  1  0
 16 21  1  0
 16 17  1  1
 18 17  1  0
 19 18  1  0
 20 19  2  0
 21 22  2  0
 21 24  1  0
 23 19  1  0
M  END
$$$$
