TPE.pdb
     RDKit          3D

 24 24  0  0  1  0  0  0  0  0999 V2000
   19.7923   -9.8770  -18.8525 C   0  0  0  0  0  0  0  0  0  0  0  0
   18.7485  -10.7296  -18.2174 C   0  0  1  0  0  0  0  0  0  0  0  0
   18.0307  -11.5120  -19.1062 O   0  0  0  0  0  0  0  0  0  0  0  0
   19.3657  -11.5542  -17.1050 C   0  0  2  0  0  0  0  0  0  0  0  0
   18.4173  -12.5402  -16.6455 N   0  0  0  0  0  0  0  0  0  0  0  0
   19.9062  -10.7099  -16.0172 C   0  0  0  0  0  0  0  0  0  0  0  0
   19.0559  -10.1260  -15.2863 O   0  0  0  0  0  0  0  0  0  0  0  0
   21.2847  -10.5487  -15.7854 N   0  0  0  0  0  0  0  0  0  0  0  0
   22.3505  -11.1594  -16.5352 C   0  0  0  0  0  0  0  0  0  0  0  0
   23.6511  -10.6068  -15.9548 C   0  0  0  0  0  0  0  0  0  0  0  0
   23.2616  -10.3451  -14.5159 C   0  0  0  0  0  0  0  0  0  0  0  0
   21.8719   -9.7222  -14.7389 C   0  0  1  0  0  0  0  0  0  0  0  0
   22.1188   -8.3406  -15.2325 C   0  0  0  0  0  0  0  0  0  0  0  0
   22.0694   -8.0811  -16.4811 O   0  0  0  0  0  0  0  0  0  0  0  0
   22.4118   -7.2663  -14.3756 N   0  0  0  0  0  0  0  0  0  0  0  0
   21.9588   -5.8726  -14.6716 C   0  0  1  0  0  0  0  0  0  0  0  0
   20.4917   -5.9194  -14.9459 C   0  0  0  0  0  0  0  0  0  0  0  0
   19.8199   -4.6336  -15.1634 C   0  0  0  0  0  0  0  0  0  0  0  0
   18.3725   -4.6585  -15.4428 C   0  0  0  0  0  0  0  0  0  0  0  0
   17.6769   -5.7222  -15.4680 O   0  0  0  0  0  0  0  0  0  0  0  0
   22.3523   -5.0112  -13.5936 C   0  0  0  0  0  0  0  0  0  0  0  0
   22.3443   -5.3881  -12.4024 O   0  0  0  0  0  0  0  0  0  0  0  0
   17.7083   -3.4709  -15.6952 O   0  0  0  0  0  0  0  0  0  0  0  0
   22.7785   -3.7001  -13.8482 O   0  0  0  0  0  0  0  0  0  0  0  0
  2  1  1  6
  3  2  1  0
  4  6  1  0
  4  2  1  0
  4  5  1  1
  6  7  2  0
  8 12  1  0
  8  6  1  0
  9  8  1  0
 10  9  1  0
 10 11  1  0
 11 12  1  0
 12 13  1  6
 13 15  1  0
 13 14  2  0
 15 16  1  0
 16 21  1  0
 16 17  1  1
 18 17  1  0
 19 18  1  0
 20 19  2  0
 21 22  2  0
 21 24  1  0
 23 19  1  0
M  END
$$$$
