TPE.pdb
     RDKit          3D

 24 24  0  0  1  0  0  0  0  0999 V2000
   20.3196  -10.1505  -18.8370 C   0  0  0  0  0  0  0  0  0  0  0  0
   19.4828  -11.2170  -18.2187 C   0  0  1  0  0  0  0  0  0  0  0  0
   18.9301  -12.1069  -19.1243 O   0  0  0  0  0  0  0  0  0  0  0  0
   20.2717  -11.9254  -17.1353 C   0  0  2  0  0  0  0  0  0  0  0  0
   19.5566  -13.1017  -16.7019 N   0  0  0  0  0  0  0  0  0  0  0  0
   20.6350  -11.0185  -16.0246 C   0  0  0  0  0  0  0  0  0  0  0  0
   19.6908  -10.6549  -15.2667 O   0  0  0  0  0  0  0  0  0  0  0  0
   21.9499  -10.5706  -15.8000 N   0  0  0  0  0  0  0  0  0  0  0  0
   23.1047  -10.8886  -16.5976 C   0  0  0  0  0  0  0  0  0  0  0  0
   24.2665  -10.0963  -16.0007 C   0  0  0  0  0  0  0  0  0  0  0  0
   23.8649  -10.0075  -14.5442 C   0  0  0  0  0  0  0  0  0  0  0  0
   22.3674   -9.6947  -14.7130 C   0  0  1  0  0  0  0  0  0  0  0  0
   22.2930   -8.2674  -15.1259 C   0  0  0  0  0  0  0  0  0  0  0  0
   22.5556   -7.9269  -16.3275 O   0  0  0  0  0  0  0  0  0  0  0  0
   21.9364   -7.2358  -14.2411 N   0  0  0  0  0  0  0  0  0  0  0  0
   21.7081   -5.8349  -14.7107 C   0  0  1  0  0  0  0  0  0  0  0  0
   20.2339   -5.5989  -14.7389 C   0  0  0  0  0  0  0  0  0  0  0  0
   19.7884   -4.2523  -15.1132 C   0  0  0  0  0  0  0  0  0  0  0  0
   18.3360   -4.0059  -15.1729 C   0  0  0  0  0  0  0  0  0  0  0  0
   17.4616   -4.9274  -15.1276 O   0  0  0  0  0  0  0  0  0  0  0  0
   22.4562   -4.9333  -13.8824 C   0  0  0  0  0  0  0  0  0  0  0  0
   22.7321   -5.1950  -12.6923 O   0  0  0  0  0  0  0  0  0  0  0  0
   17.8708   -2.7072  -15.2844 O   0  0  0  0  0  0  0  0  0  0  0  0
   22.9211   -3.7140  -14.3949 O   0  0  0  0  0  0  0  0  0  0  0  0
  2  1  1  6
  3  2  1  0
  4  6  1  0
  4  2  1  0
  4  5  1  1
  6  7  2  0
  8 12  1  0
  8  6  1  0
  9  8  1  0
 10  9  1  0
 10 11  1  0
 11 12  1  0
 12 13  1  6
 13 15  1  0
 13 14  2  0
 15 16  1  0
 16 21  1  0
 16 17  1  1
 18 17  1  0
 19 18  1  0
 20 19  2  0
 21 22  2  0
 21 24  1  0
 23 19  1  0
M  END
$$$$
