TPE.pdb
     RDKit          3D

 24 24  0  0  1  0  0  0  0  0999 V2000
   26.7810  -18.1782  -14.5004 C   0  0  0  0  0  0  0  0  0  0  0  0
   27.4170  -19.1113  -15.4722 C   0  0  1  0  0  0  0  0  0  0  0  0
   28.5567  -18.6132  -16.0810 O   0  0  0  0  0  0  0  0  0  0  0  0
   27.6667  -20.4517  -14.8093 C   0  0  2  0  0  0  0  0  0  0  0  0
   28.4414  -21.2936  -15.6890 N   0  0  0  0  0  0  0  0  0  0  0  0
   26.4146  -21.0867  -14.3432 C   0  0  0  0  0  0  0  0  0  0  0  0
   25.8022  -21.8025  -15.1863 O   0  0  0  0  0  0  0  0  0  0  0  0
   25.9108  -20.9215  -13.0399 N   0  0  0  0  0  0  0  0  0  0  0  0
   26.4804  -20.0986  -12.0057 C   0  0  0  0  0  0  0  0  0  0  0  0
   25.5250  -20.1859  -10.8168 C   0  0  0  0  0  0  0  0  0  0  0  0
   24.9387  -21.5703  -10.9916 C   0  0  0  0  0  0  0  0  0  0  0  0
   24.7106  -21.5584  -12.5136 C   0  0  1  0  0  0  0  0  0  0  0  0
   23.5152  -20.7021  -12.7401 C   0  0  0  0  0  0  0  0  0  0  0  0
   23.5654  -19.4475  -12.5122 O   0  0  0  0  0  0  0  0  0  0  0  0
   22.2916  -21.2102  -13.2080 N   0  0  0  0  0  0  0  0  0  0  0  0
   21.1454  -20.3157  -13.5563 C   0  0  1  0  0  0  0  0  0  0  0  0
   20.7714  -20.5870  -14.9762 C   0  0  0  0  0  0  0  0  0  0  0  0
   21.8204  -20.3938  -15.9832 C   0  0  0  0  0  0  0  0  0  0  0  0
   21.4544  -20.5946  -17.3972 C   0  0  0  0  0  0  0  0  0  0  0  0
   20.3208  -21.0255  -17.7783 O   0  0  0  0  0  0  0  0  0  0  0  0
   20.0930  -20.5056  -12.5996 C   0  0  0  0  0  0  0  0  0  0  0  0
   19.9920  -21.5478  -11.9179 O   0  0  0  0  0  0  0  0  0  0  0  0
   22.3783  -20.3053  -18.3863 O   0  0  0  0  0  0  0  0  0  0  0  0
   19.1349  -19.5046  -12.3859 O   0  0  0  0  0  0  0  0  0  0  0  0
  2  1  1  1
  3  2  1  0
  4  6  1  0
  4  2  1  0
  4  5  1  6
  6  7  2  0
  8 12  1  0
  8  6  1  0
  9  8  1  0
 10  9  1  0
 10 11  1  0
 11 12  1  0
 12 13  1  1
 13 15  1  0
 13 14  2  0
 15 16  1  0
 16 21  1  0
 16 17  1  6
 18 17  1  0
 19 18  1  0
 20 19  2  0
 21 22  2  0
 21 24  1  0
 23 19  1  0
M  END
$$$$
