TPE.pdb
     RDKit          3D

 24 24  0  0  1  0  0  0  0  0999 V2000
   24.7686  -19.1269  -14.5238 C   0  0  0  0  0  0  0  0  0  0  0  0
   24.1382  -19.8041  -13.3559 C   0  0  1  0  0  0  0  0  0  0  0  0
   22.8542  -20.2673  -13.5883 O   0  0  0  0  0  0  0  0  0  0  0  0
   25.0526  -20.8985  -12.8417 C   0  0  2  0  0  0  0  0  0  0  0  0
   25.3531  -21.8234  -13.9081 N   0  0  0  0  0  0  0  0  0  0  0  0
   24.5124  -21.5555  -11.6314 C   0  0  0  0  0  0  0  0  0  0  0  0
   23.9755  -22.6874  -11.8010 O   0  0  0  0  0  0  0  0  0  0  0  0
   24.5799  -20.9767  -10.3507 N   0  0  0  0  0  0  0  0  0  0  0  0
   25.1330  -19.6880  -10.0277 C   0  0  0  0  0  0  0  0  0  0  0  0
   24.8912  -19.4826   -8.5333 C   0  0  0  0  0  0  0  0  0  0  0  0
   24.9147  -20.9053   -8.0174 C   0  0  0  0  0  0  0  0  0  0  0  0
   24.0902  -21.5891   -9.1226 C   0  0  1  0  0  0  0  0  0  0  0  0
   22.6744  -21.2081   -8.8699 C   0  0  0  0  0  0  0  0  0  0  0  0
   22.2214  -20.0897   -9.2851 O   0  0  0  0  0  0  0  0  0  0  0  0
   21.7742  -22.0364   -8.1786 N   0  0  0  0  0  0  0  0  0  0  0  0
   20.3016  -21.7784   -8.1800 C   0  0  1  0  0  0  0  0  0  0  0  0
   19.8168  -21.9157   -9.5856 C   0  0  0  0  0  0  0  0  0  0  0  0
   19.4365  -23.2630  -10.0238 C   0  0  0  0  0  0  0  0  0  0  0  0
   18.8973  -23.4102  -11.3880 C   0  0  0  0  0  0  0  0  0  0  0  0
   18.7000  -22.4340  -12.1779 O   0  0  0  0  0  0  0  0  0  0  0  0
   19.6710  -22.6471   -7.2279 C   0  0  0  0  0  0  0  0  0  0  0  0
   20.2372  -23.6661   -6.7783 O   0  0  0  0  0  0  0  0  0  0  0  0
   18.5794  -24.6715  -11.8610 O   0  0  0  0  0  0  0  0  0  0  0  0
   18.3816  -22.3683   -6.7534 O   0  0  0  0  0  0  0  0  0  0  0  0
  2  1  1  6
  3  2  1  0
  4  6  1  0
  4  2  1  0
  4  5  1  6
  6  7  2  0
  8 12  1  0
  8  6  1  0
  9  8  1  0
 10  9  1  0
 10 11  1  0
 11 12  1  0
 12 13  1  1
 13 15  1  0
 13 14  2  0
 15 16  1  0
 16 21  1  0
 16 17  1  6
 18 17  1  0
 19 18  1  0
 20 19  2  0
 21 22  2  0
 21 24  1  0
 23 19  1  0
M  END
$$$$
