SGY.pdb
     RDKit          3D

 23 23  0  0  1  0  0  0  0  0999 V2000
   15.8167  -12.7510  -14.8657 O   0  0  0  0  0  0  0  0  0  0  0  0
   16.7674  -11.8067  -15.2541 C   0  0  0  0  0  0  0  0  0  0  0  0
   17.5722  -12.3867  -16.4003 C   0  0  2  0  0  0  0  0  0  0  0  0
   18.3215  -13.5438  -16.0135 N   0  0  0  0  0  0  0  0  0  0  0  0
   18.5370  -11.3198  -16.8266 C   0  0  0  0  0  0  0  0  0  0  0  0
   19.1327  -11.3800  -17.9285 O   0  0  0  0  0  0  0  0  0  0  0  0
   18.8034  -10.2048  -15.9874 N   0  0  0  0  0  0  0  0  0  0  0  0
   19.7503   -9.2027  -16.3908 C   0  0  0  0  0  0  0  0  0  0  0  0
   19.7210   -8.1063  -15.3675 C   0  0  0  0  0  0  0  0  0  0  0  0
   18.8586   -8.0572  -14.4476 O   0  0  0  0  0  0  0  0  0  0  0  0
   26.4423   -5.7950  -17.2231 O   0  0  0  0  0  0  0  0  0  0  0  0
   25.3711   -5.8498  -16.3323 C   0  0  0  0  0  0  0  0  0  0  0  0
   24.7953   -4.7229  -15.7839 C   0  0  0  0  0  0  0  0  0  0  0  0
   23.7391   -4.8420  -14.9094 C   0  0  0  0  0  0  0  0  0  0  0  0
   23.2161   -6.0820  -14.5475 C   0  0  0  0  0  0  0  0  0  0  0  0
   22.0955   -6.1740  -13.5961 C   0  0  0  0  0  0  0  0  0  0  0  0
   20.7888   -6.0673  -14.3103 C   0  0  2  0  0  0  0  0  0  0  0  0
   20.6761   -7.0526  -15.3820 N   0  0  0  0  0  0  0  0  0  0  0  0
   20.5106   -4.7313  -14.8603 C   0  0  0  0  0  0  0  0  0  0  0  0
   20.3471   -3.5680  -14.1311 O   0  0  0  0  0  0  0  0  0  0  0  0
   23.8067   -7.1956  -15.1073 C   0  0  0  0  0  0  0  0  0  0  0  0
   24.8514   -7.0704  -15.9718 C   0  0  0  0  0  0  0  0  0  0  0  0
   20.4006   -4.5861  -16.1204 O   0  0  0  0  0  0  0  0  0  0  0  0
  2  3  1  0
  2  1  1  0
  3  4  1  1
  5  7  1  0
  5  3  1  0
  6  5  2  0
  8  7  1  0
  9 18  1  0
  9  8  1  0
 10  9  2  0
 12 11  1  0
 12 22  2  0
 13 12  1  0
 14 13  2  0
 14 15  1  0
 15 21  2  0
 16 15  1  0
 17 16  1  6
 17 18  1  0
 19 20  1  0
 19 17  1  0
 21 22  1  0
 23 19  2  0
M  END
$$$$
