SGY.pdb
     RDKit          3D

 23 23  0  0  1  0  0  0  0  0999 V2000
   14.8395  -16.2067  -16.3881 O   0  0  0  0  0  0  0  0  0  0  0  0
   15.6569  -15.2611  -17.0077 C   0  0  0  0  0  0  0  0  0  0  0  0
   16.9393  -15.1448  -16.2079 C   0  0  2  0  0  0  0  0  0  0  0  0
   16.7001  -14.8335  -14.8310 N   0  0  0  0  0  0  0  0  0  0  0  0
   17.7217  -14.0192  -16.8177 C   0  0  0  0  0  0  0  0  0  0  0  0
   17.1605  -12.9641  -17.1976 O   0  0  0  0  0  0  0  0  0  0  0  0
   19.1293  -14.1194  -16.9823 N   0  0  0  0  0  0  0  0  0  0  0  0
   19.8617  -13.0644  -17.6258 C   0  0  0  0  0  0  0  0  0  0  0  0
   20.0222  -11.9485  -16.6364 C   0  0  0  0  0  0  0  0  0  0  0  0
   19.6363  -12.0406  -15.4384 O   0  0  0  0  0  0  0  0  0  0  0  0
   22.4160   -4.0809  -13.3645 O   0  0  0  0  0  0  0  0  0  0  0  0
   22.3366   -5.3517  -13.9327 C   0  0  0  0  0  0  0  0  0  0  0  0
   22.1853   -6.4989  -13.1822 C   0  0  0  0  0  0  0  0  0  0  0  0
   22.1131   -7.7259  -13.8018 C   0  0  0  0  0  0  0  0  0  0  0  0
   22.1883   -7.8593  -15.1870 C   0  0  0  0  0  0  0  0  0  0  0  0
   22.1240   -9.1894  -15.8164 C   0  0  0  0  0  0  0  0  0  0  0  0
   20.7083   -9.5704  -16.0979 C   0  0  2  0  0  0  0  0  0  0  0  0
   20.6254  -10.7137  -17.0026 N   0  0  0  0  0  0  0  0  0  0  0  0
   19.8860   -8.4759  -16.6369 C   0  0  0  0  0  0  0  0  0  0  0  0
   19.7495   -8.1404  -17.9712 O   0  0  0  0  0  0  0  0  0  0  0  0
   22.3397   -6.6997  -15.9182 C   0  0  0  0  0  0  0  0  0  0  0  0
   22.4104   -5.4890  -15.2985 C   0  0  0  0  0  0  0  0  0  0  0  0
   19.2218   -7.7420  -15.8359 O   0  0  0  0  0  0  0  0  0  0  0  0
  2  3  1  0
  2  1  1  0
  3  4  1  1
  5  7  1  0
  5  3  1  0
  6  5  2  0
  8  7  1  0
  9 18  1  0
  9  8  1  0
 10  9  2  0
 12 11  1  0
 12 22  2  0
 13 12  1  0
 14 13  2  0
 14 15  1  0
 15 21  2  0
 16 15  1  0
 17 16  1  6
 17 18  1  0
 19 20  1  0
 19 17  1  0
 21 22  1  0
 23 19  2  0
M  END
$$$$
