SGY.pdb
     RDKit          3D

 23 23  0  0  1  0  0  0  0  0999 V2000
   14.5254  -12.9979  -16.3542 O   0  0  0  0  0  0  0  0  0  0  0  0
   14.1604  -13.0689  -15.0096 C   0  0  0  0  0  0  0  0  0  0  0  0
   14.7040  -11.8420  -14.3046 C   0  0  2  0  0  0  0  0  0  0  0  0
   14.2202  -10.6219  -14.8765 N   0  0  0  0  0  0  0  0  0  0  0  0
   16.1948  -11.8818  -14.4680 C   0  0  0  0  0  0  0  0  0  0  0  0
   16.8678  -12.8690  -14.0870 O   0  0  0  0  0  0  0  0  0  0  0  0
   16.8890  -10.7944  -15.0630 N   0  0  0  0  0  0  0  0  0  0  0  0
   18.3158  -10.8443  -15.2226 C   0  0  0  0  0  0  0  0  0  0  0  0
   18.8079   -9.4369  -15.3870 C   0  0  0  0  0  0  0  0  0  0  0  0
   18.0825   -8.5117  -15.8454 O   0  0  0  0  0  0  0  0  0  0  0  0
   23.0860   -1.8716  -15.2164 O   0  0  0  0  0  0  0  0  0  0  0  0
   22.6650   -3.1717  -14.9399 C   0  0  0  0  0  0  0  0  0  0  0  0
   23.4768   -4.2735  -15.1102 C   0  0  0  0  0  0  0  0  0  0  0  0
   23.0033   -5.5328  -14.8195 C   0  0  0  0  0  0  0  0  0  0  0  0
   21.7085   -5.7447  -14.3497 C   0  0  0  0  0  0  0  0  0  0  0  0
   21.2285   -7.1076  -14.0640 C   0  0  0  0  0  0  0  0  0  0  0  0
   20.6930   -7.7472  -15.3021 C   0  0  2  0  0  0  0  0  0  0  0  0
   20.1345   -9.0687  -15.0300 N   0  0  0  0  0  0  0  0  0  0  0  0
   21.6728   -7.8597  -16.3938 C   0  0  0  0  0  0  0  0  0  0  0  0
   21.8757   -6.9383  -17.4045 O   0  0  0  0  0  0  0  0  0  0  0  0
   20.9136   -4.6294  -14.1868 C   0  0  0  0  0  0  0  0  0  0  0  0
   21.3887   -3.3864  -14.4763 C   0  0  0  0  0  0  0  0  0  0  0  0
   22.4246   -8.8856  -16.4539 O   0  0  0  0  0  0  0  0  0  0  0  0
  2  3  1  0
  2  1  1  0
  3  4  1  6
  5  7  1  0
  5  3  1  0
  6  5  2  0
  8  7  1  0
  9 18  1  0
  9  8  1  0
 10  9  2  0
 12 11  1  0
 12 22  2  0
 13 12  1  0
 14 13  2  0
 14 15  1  0
 15 21  2  0
 16 15  1  0
 17 16  1  1
 17 18  1  0
 19 20  1  0
 19 17  1  0
 21 22  1  0
 23 19  2  0
M  END
$$$$
