SGY.pdb
     RDKit          3D

 23 23  0  0  1  0  0  0  0  0999 V2000
   29.2743  -21.8867  -19.2470 O   0  0  0  0  0  0  0  0  0  0  0  0
   28.1833  -22.5646  -18.7024 C   0  0  0  0  0  0  0  0  0  0  0  0
   27.1536  -21.5388  -18.2718 C   0  0  2  0  0  0  0  0  0  0  0  0
   27.5937  -20.7550  -17.1574 N   0  0  0  0  0  0  0  0  0  0  0  0
   25.9339  -22.3074  -17.8564 C   0  0  0  0  0  0  0  0  0  0  0  0
   25.6826  -23.4406  -18.3312 O   0  0  0  0  0  0  0  0  0  0  0  0
   25.0246  -21.7682  -16.9073 N   0  0  0  0  0  0  0  0  0  0  0  0
   23.8574  -22.5095  -16.5179 C   0  0  0  0  0  0  0  0  0  0  0  0
   23.1780  -21.7497  -15.4175 C   0  0  0  0  0  0  0  0  0  0  0  0
   23.1320  -20.4889  -15.3891 O   0  0  0  0  0  0  0  0  0  0  0  0
   28.1192  -20.3480  -13.0697 O   0  0  0  0  0  0  0  0  0  0  0  0
   26.7883  -20.6594  -12.7941 C   0  0  0  0  0  0  0  0  0  0  0  0
   25.9088  -19.7562  -12.2348 C   0  0  0  0  0  0  0  0  0  0  0  0
   24.6057  -20.1234  -11.9862 C   0  0  0  0  0  0  0  0  0  0  0  0
   24.1283  -21.3986  -12.2831 C   0  0  0  0  0  0  0  0  0  0  0  0
   22.7319  -21.7634  -11.9888 C   0  0  0  0  0  0  0  0  0  0  0  0
   21.9027  -21.7144  -13.2293 C   0  0  2  0  0  0  0  0  0  0  0  0
   22.5427  -22.4201  -14.3360 N   0  0  0  0  0  0  0  0  0  0  0  0
   21.5565  -20.3535  -13.6688 C   0  0  0  0  0  0  0  0  0  0  0  0
   21.9775  -19.7424  -14.8354 O   0  0  0  0  0  0  0  0  0  0  0  0
   25.0245  -22.2859  -12.8416 C   0  0  0  0  0  0  0  0  0  0  0  0
   26.3122  -21.9158  -13.0849 C   0  0  0  0  0  0  0  0  0  0  0  0
   20.8023  -19.6347  -12.9369 O   0  0  0  0  0  0  0  0  0  0  0  0
  2  3  1  0
  2  1  1  0
  3  4  1  1
  5  7  1  0
  5  3  1  0
  6  5  2  0
  8  7  1  0
  9 18  1  0
  9  8  1  0
 10  9  2  0
 12 11  1  0
 12 22  2  0
 13 12  1  0
 14 13  2  0
 14 15  1  0
 15 21  2  0
 16 15  1  0
 17 16  1  1
 17 18  1  0
 19 20  1  0
 19 17  1  0
 21 22  1  0
 23 19  2  0
M  END
$$$$
