SGY.pdb
     RDKit          3D

 23 23  0  0  1  0  0  0  0  0999 V2000
   19.5842  -10.4989  -23.3874 O   0  0  0  0  0  0  0  0  0  0  0  0
   20.9009  -10.9440  -23.5078 C   0  0  0  0  0  0  0  0  0  0  0  0
   21.3905  -11.3563  -22.1337 C   0  0  2  0  0  0  0  0  0  0  0  0
   20.4437  -12.1738  -21.4372 N   0  0  0  0  0  0  0  0  0  0  0  0
   21.5858  -10.0900  -21.3531 C   0  0  0  0  0  0  0  0  0  0  0  0
   22.4618   -9.2525  -21.6750 O   0  0  0  0  0  0  0  0  0  0  0  0
   20.7778   -9.8040  -20.2200 N   0  0  0  0  0  0  0  0  0  0  0  0
   20.9152   -8.5528  -19.5279 C   0  0  0  0  0  0  0  0  0  0  0  0
   20.7564   -8.8209  -18.0606 C   0  0  0  0  0  0  0  0  0  0  0  0
   19.7286   -9.3706  -17.5768 O   0  0  0  0  0  0  0  0  0  0  0  0
   27.7706  -10.0156  -16.8084 O   0  0  0  0  0  0  0  0  0  0  0  0
   26.4155  -10.0125  -16.4800 C   0  0  0  0  0  0  0  0  0  0  0  0
   25.4250   -9.7145  -17.3923 C   0  0  0  0  0  0  0  0  0  0  0  0
   24.1036   -9.7282  -17.0073 C   0  0  0  0  0  0  0  0  0  0  0  0
   23.7170  -10.0377  -15.7047 C   0  0  0  0  0  0  0  0  0  0  0  0
   22.2947  -10.0271  -15.3223 C   0  0  0  0  0  0  0  0  0  0  0  0
   21.6591   -8.7288  -15.6958 C   0  0  2  0  0  0  0  0  0  0  0  0
   21.7692   -8.4649  -17.1278 N   0  0  0  0  0  0  0  0  0  0  0  0
   22.1801   -7.5686  -14.9561 C   0  0  0  0  0  0  0  0  0  0  0  0
   22.8992   -6.5165  -15.4925 O   0  0  0  0  0  0  0  0  0  0  0  0
   24.7234  -10.3323  -14.8086 C   0  0  0  0  0  0  0  0  0  0  0  0
   26.0287  -10.3170  -15.1965 C   0  0  0  0  0  0  0  0  0  0  0  0
   21.9743   -7.4846  -13.7024 O   0  0  0  0  0  0  0  0  0  0  0  0
  2  3  1  0
  2  1  1  0
  3  4  1  1
  5  7  1  0
  5  3  1  0
  6  5  2  0
  8  7  1  0
  9 18  1  0
  9  8  1  0
 10  9  2  0
 12 11  1  0
 12 22  2  0
 13 12  1  0
 14 13  2  0
 14 15  1  0
 15 21  2  0
 16 15  1  0
 17 16  1  6
 17 18  1  0
 19 20  1  0
 19 17  1  0
 21 22  1  0
 23 19  2  0
M  END
$$$$
