SGY.pdb
     RDKit          3D

 23 23  0  0  1  0  0  0  0  0999 V2000
   24.0160  -26.5671  -17.4676 O   0  0  0  0  0  0  0  0  0  0  0  0
   24.8164  -26.3998  -18.5979 C   0  0  0  0  0  0  0  0  0  0  0  0
   26.2293  -26.0979  -18.1390 C   0  0  2  0  0  0  0  0  0  0  0  0
   26.5600  -26.7585  -16.9125 N   0  0  0  0  0  0  0  0  0  0  0  0
   26.2961  -24.6166  -17.9107 C   0  0  0  0  0  0  0  0  0  0  0  0
   25.9790  -23.8020  -18.8098 O   0  0  0  0  0  0  0  0  0  0  0  0
   26.7235  -24.0935  -16.6608 N   0  0  0  0  0  0  0  0  0  0  0  0
   26.7167  -22.6762  -16.4267 C   0  0  0  0  0  0  0  0  0  0  0  0
   26.1938  -22.4433  -15.0402 C   0  0  0  0  0  0  0  0  0  0  0  0
   25.2767  -23.1457  -14.5321 O   0  0  0  0  0  0  0  0  0  0  0  0
   25.5596  -19.9086   -6.6702 O   0  0  0  0  0  0  0  0  0  0  0  0
   25.9516  -19.9875   -8.0060 C   0  0  0  0  0  0  0  0  0  0  0  0
   25.4508  -19.1533   -8.9834 C   0  0  0  0  0  0  0  0  0  0  0  0
   25.8773  -19.2804  -10.2859 C   0  0  0  0  0  0  0  0  0  0  0  0
   26.8152  -20.2386  -10.6658 C   0  0  0  0  0  0  0  0  0  0  0  0
   27.2376  -20.3580  -12.0717 C   0  0  0  0  0  0  0  0  0  0  0  0
   26.2603  -21.1783  -12.8469 C   0  0  2  0  0  0  0  0  0  0  0  0
   26.7114  -21.4056  -14.2169 N   0  0  0  0  0  0  0  0  0  0  0  0
   24.8990  -20.6211  -12.8798 C   0  0  0  0  0  0  0  0  0  0  0  0
   24.4446  -19.6304  -13.7305 O   0  0  0  0  0  0  0  0  0  0  0  0
   27.3028  -21.0624   -9.6727 C   0  0  0  0  0  0  0  0  0  0  0  0
   26.8764  -20.9310   -8.3861 C   0  0  0  0  0  0  0  0  0  0  0  0
   24.0248  -21.0617  -12.0656 O   0  0  0  0  0  0  0  0  0  0  0  0
  2  3  1  0
  2  1  1  0
  3  4  1  1
  5  7  1  0
  5  3  1  0
  6  5  2  0
  8  7  1  0
  9 18  1  0
  9  8  1  0
 10  9  2  0
 12 11  1  0
 12 22  2  0
 13 12  1  0
 14 13  2  0
 14 15  1  0
 15 21  2  0
 16 15  1  0
 17 16  1  6
 17 18  1  0
 19 20  1  0
 19 17  1  0
 21 22  1  0
 23 19  2  0
M  END
$$$$
