SGY.pdb
     RDKit          3D

 23 23  0  0  1  0  0  0  0  0999 V2000
   28.5511  -33.5770   -3.6358 O   0  0  0  0  0  0  0  0  0  0  0  0
   28.9646  -34.0674   -2.3969 C   0  0  0  0  0  0  0  0  0  0  0  0
   30.0894  -35.0567   -2.6290 C   0  0  2  0  0  0  0  0  0  0  0  0
   29.6805  -36.1745   -3.4249 N   0  0  0  0  0  0  0  0  0  0  0  0
   30.4974  -35.5635   -1.2771 C   0  0  0  0  0  0  0  0  0  0  0  0
   29.9654  -36.5809   -0.7728 O   0  0  0  0  0  0  0  0  0  0  0  0
   31.5046  -34.8994   -0.5268 N   0  0  0  0  0  0  0  0  0  0  0  0
   31.9216  -35.4177    0.7464 C   0  0  0  0  0  0  0  0  0  0  0  0
   31.0875  -34.7588    1.8048 C   0  0  0  0  0  0  0  0  0  0  0  0
   31.3543  -34.8483    3.0350 O   0  0  0  0  0  0  0  0  0  0  0  0
   25.2166  -29.8855    6.1026 O   0  0  0  0  0  0  0  0  0  0  0  0
   26.0541  -30.4005    5.1140 C   0  0  0  0  0  0  0  0  0  0  0  0
   25.5937  -30.8015    3.8773 C   0  0  0  0  0  0  0  0  0  0  0  0
   26.4707  -31.3023    2.9421 C   0  0  0  0  0  0  0  0  0  0  0  0
   27.8350  -31.4233    3.1994 C   0  0  0  0  0  0  0  0  0  0  0  0
   28.7433  -31.9788    2.1816 C   0  0  0  0  0  0  0  0  0  0  0  0
   29.0518  -33.4094    2.4763 C   0  0  2  0  0  0  0  0  0  0  0  0
   29.9386  -33.9896    1.4716 N   0  0  0  0  0  0  0  0  0  0  0  0
   27.8633  -34.2657    2.6140 C   0  0  0  0  0  0  0  0  0  0  0  0
   27.1729  -34.8732    1.5816 O   0  0  0  0  0  0  0  0  0  0  0  0
   28.2740  -31.0167    4.4421 C   0  0  0  0  0  0  0  0  0  0  0  0
   27.4007  -30.5221    5.3625 C   0  0  0  0  0  0  0  0  0  0  0  0
   27.3907  -34.4948    3.7739 O   0  0  0  0  0  0  0  0  0  0  0  0
  2  3  1  0
  2  1  1  0
  3  4  1  6
  5  7  1  0
  5  3  1  0
  6  5  2  0
  8  7  1  0
  9 18  1  0
  9  8  1  0
 10  9  2  0
 12 11  1  0
 12 22  2  0
 13 12  1  0
 14 13  2  0
 14 15  1  0
 15 21  2  0
 16 15  1  0
 17 16  1  6
 17 18  1  0
 19 20  1  0
 19 17  1  0
 21 22  1  0
 23 19  2  0
M  END
$$$$
