SGY.pdb
     RDKit          3D

 23 23  0  0  1  0  0  0  0  0999 V2000
   14.4252  -13.3883  -14.9762 O   0  0  0  0  0  0  0  0  0  0  0  0
   14.6076  -12.1604  -14.3395 C   0  0  0  0  0  0  0  0  0  0  0  0
   15.9979  -11.6555  -14.6708 C   0  0  2  0  0  0  0  0  0  0  0  0
   16.8279  -12.6717  -15.2438 N   0  0  0  0  0  0  0  0  0  0  0  0
   16.6132  -11.2187  -13.3740 C   0  0  0  0  0  0  0  0  0  0  0  0
   17.5013  -11.9008  -12.8096 O   0  0  0  0  0  0  0  0  0  0  0  0
   16.2031  -10.0119  -12.7462 N   0  0  0  0  0  0  0  0  0  0  0  0
   16.8032   -9.5972  -11.5088 C   0  0  0  0  0  0  0  0  0  0  0  0
   16.1358   -8.3243  -11.0798 C   0  0  0  0  0  0  0  0  0  0  0  0
   15.3179   -7.7040  -11.8139 O   0  0  0  0  0  0  0  0  0  0  0  0
   10.2764   -9.3686   -7.9967 O   0  0  0  0  0  0  0  0  0  0  0  0
   11.5113   -8.7214   -8.0050 C   0  0  0  0  0  0  0  0  0  0  0  0
   12.7006   -9.3813   -8.2335 C   0  0  0  0  0  0  0  0  0  0  0  0
   13.8887   -8.6864   -8.2293 C   0  0  0  0  0  0  0  0  0  0  0  0
   13.9403   -7.3130   -7.9984 C   0  0  0  0  0  0  0  0  0  0  0  0
   15.2308   -6.6032   -7.9847 C   0  0  0  0  0  0  0  0  0  0  0  0
   15.7849   -6.4920   -9.3665 C   0  0  2  0  0  0  0  0  0  0  0  0
   16.3940   -7.7438   -9.8074 N   0  0  0  0  0  0  0  0  0  0  0  0
   16.7580   -5.4021   -9.5391 C   0  0  0  0  0  0  0  0  0  0  0  0
   18.0958   -5.5471   -9.8567 O   0  0  0  0  0  0  0  0  0  0  0  0
   12.7397   -6.6730   -7.7721 C   0  0  0  0  0  0  0  0  0  0  0  0
   11.5678   -7.3667   -7.7778 C   0  0  0  0  0  0  0  0  0  0  0  0
   16.3769   -4.1963   -9.3901 O   0  0  0  0  0  0  0  0  0  0  0  0
  2  3  1  0
  2  1  1  0
  3  4  1  1
  5  7  1  0
  5  3  1  0
  6  5  2  0
  8  7  1  0
  9 18  1  0
  9  8  1  0
 10  9  2  0
 12 11  1  0
 12 22  2  0
 13 12  1  0
 14 13  2  0
 14 15  1  0
 15 21  2  0
 16 15  1  0
 17 16  1  1
 17 18  1  0
 19 20  1  0
 19 17  1  0
 21 22  1  0
 23 19  2  0
M  END
$$$$
