SGY.pdb
     RDKit          3D

 23 23  0  0  1  0  0  0  0  0999 V2000
   19.1124  -11.6336  -19.5656 O   0  0  0  0  0  0  0  0  0  0  0  0
   20.4943  -11.6293  -19.3739 C   0  0  0  0  0  0  0  0  0  0  0  0
   20.7894  -10.9328  -18.0603 C   0  0  2  0  0  0  0  0  0  0  0  0
   19.9920  -11.4351  -16.9824 N   0  0  0  0  0  0  0  0  0  0  0  0
   20.4539   -9.4843  -18.2609 C   0  0  0  0  0  0  0  0  0  0  0  0
   21.1173   -8.7621  -19.0424 O   0  0  0  0  0  0  0  0  0  0  0  0
   19.3678   -8.8878  -17.5657 N   0  0  0  0  0  0  0  0  0  0  0  0
   19.0422   -7.5049  -17.7777 C   0  0  0  0  0  0  0  0  0  0  0  0
   19.3898   -6.7552  -16.5259 C   0  0  0  0  0  0  0  0  0  0  0  0
   18.7556   -6.9045  -15.4451 O   0  0  0  0  0  0  0  0  0  0  0  0
   22.9406  -11.0744  -14.1893 O   0  0  0  0  0  0  0  0  0  0  0  0
   22.7979   -9.7038  -14.4020 C   0  0  0  0  0  0  0  0  0  0  0  0
   23.2843   -9.0660  -15.5239 C   0  0  0  0  0  0  0  0  0  0  0  0
   23.1119   -7.7090  -15.6771 C   0  0  0  0  0  0  0  0  0  0  0  0
   22.4514   -6.9362  -14.7239 C   0  0  0  0  0  0  0  0  0  0  0  0
   22.2987   -5.4833  -14.9117 C   0  0  0  0  0  0  0  0  0  0  0  0
   20.8903   -5.1446  -15.2728 C   0  0  2  0  0  0  0  0  0  0  0  0
   20.4658   -5.8258  -16.4927 N   0  0  0  0  0  0  0  0  0  0  0  0
   20.6364   -3.7028  -15.4193 C   0  0  0  0  0  0  0  0  0  0  0  0
   20.7162   -2.7554  -14.4154 O   0  0  0  0  0  0  0  0  0  0  0  0
   21.9732   -7.5940  -13.6098 C   0  0  0  0  0  0  0  0  0  0  0  0
   22.1473   -8.9369  -13.4649 C   0  0  0  0  0  0  0  0  0  0  0  0
   20.3083   -3.2400  -16.5592 O   0  0  0  0  0  0  0  0  0  0  0  0
  2  3  1  0
  2  1  1  0
  3  4  1  1
  5  7  1  0
  5  3  1  0
  6  5  2  0
  8  7  1  0
  9 18  1  0
  9  8  1  0
 10  9  2  0
 12 11  1  0
 12 22  2  0
 13 12  1  0
 14 13  2  0
 14 15  1  0
 15 21  2  0
 16 15  1  0
 17 16  1  6
 17 18  1  0
 19 20  1  0
 19 17  1  0
 21 22  1  0
 23 19  2  0
M  END
$$$$
