VAI.pdb
     RDKit          3D

 21 20  0  0  1  0  0  0  0  0999 V2000
   14.0729  -12.0111  -15.4405 C   0  0  0  0  0  0  0  0  0  0  0  0
   14.4828  -11.0705  -14.3059 C   0  0  2  0  0  0  0  0  0  0  0  0
   13.8881   -9.7322  -14.6063 C   0  0  0  0  0  0  0  0  0  0  0  0
   16.0023  -11.0641  -14.2491 C   0  0  2  0  0  0  0  0  0  0  0  0
   16.3773  -12.4268  -13.8302 N   0  0  0  0  0  0  0  0  0  0  0  0
   16.5295  -10.1233  -13.2345 C   0  0  0  0  0  0  0  0  0  0  0  0
   16.1167  -10.2211  -12.0462 O   0  0  0  0  0  0  0  0  0  0  0  0
   19.0627   -7.3202  -12.9251 C   0  0  0  0  0  0  0  0  0  0  0  0
   17.9292   -8.1896  -12.4268 C   0  0  2  0  0  0  0  0  0  0  0  0
   17.4803   -9.0999  -13.4904 N   0  0  0  0  0  0  0  0  0  0  0  0
   16.8061   -7.3196  -12.0363 C   0  0  0  0  0  0  0  0  0  0  0  0
   15.9470   -6.9561  -12.8765 O   0  0  0  0  0  0  0  0  0  0  0  0
   14.5445   -7.1254   -6.7933 C   0  0  0  0  0  0  0  0  0  0  0  0
   15.4350   -6.6909   -7.9197 C   0  0  0  0  0  0  0  0  0  0  0  0
   14.7298   -6.4530   -9.2075 C   0  0  2  0  0  0  0  0  0  0  0  0
   14.0361   -7.7500   -9.6229 C   0  0  0  0  0  0  0  0  0  0  0  0
   15.5738   -6.0087  -10.3548 C   0  0  2  0  0  0  0  0  0  0  0  0
   16.6626   -6.8676  -10.7002 N   0  0  0  0  0  0  0  0  0  0  0  0
   16.1556   -4.6746   -9.9614 C   0  0  0  0  0  0  0  0  0  0  0  0
   17.5212   -4.5778   -9.8151 O   0  0  0  0  0  0  0  0  0  0  0  0
   15.4420   -3.6822   -9.7708 O   0  0  0  0  0  0  0  0  0  0  0  0
  2  4  1  0
  2  1  1  6
  3  2  1  0
  4  5  1  1
  6  4  1  0
  7  6  2  0
  9  8  1  6
  9 11  1  0
  9 10  1  0
 10  6  1  0
 11 18  1  0
 12 11  2  0
 14 13  1  0
 15 17  1  0
 15 14  1  0
 15 16  1  6
 17 18  1  1
 19 20  1  0
 19 17  1  0
 21 19  2  0
M  END
$$$$
