VAI.pdb
     RDKit          3D

 21 20  0  0  1  0  0  0  0  0999 V2000
   15.9153  -10.1993  -10.5965 C   0  0  0  0  0  0  0  0  0  0  0  0
   14.4823  -10.1072  -11.1238 C   0  0  2  0  0  0  0  0  0  0  0  0
   13.6363  -10.9822  -10.2556 C   0  0  0  0  0  0  0  0  0  0  0  0
   14.5075  -10.5363  -12.5823 C   0  0  2  0  0  0  0  0  0  0  0  0
   15.0197  -11.9186  -12.5676 N   0  0  0  0  0  0  0  0  0  0  0  0
   15.4380   -9.7233  -13.3983 C   0  0  0  0  0  0  0  0  0  0  0  0
   16.5858  -10.1844  -13.6471 O   0  0  0  0  0  0  0  0  0  0  0  0
   15.3651   -6.6845  -15.6241 C   0  0  0  0  0  0  0  0  0  0  0  0
   16.0842   -7.7508  -14.8275 C   0  0  2  0  0  0  0  0  0  0  0  0
   15.1417   -8.4428  -13.9362 N   0  0  0  0  0  0  0  0  0  0  0  0
   17.1274   -7.1050  -14.0117 C   0  0  0  0  0  0  0  0  0  0  0  0
   17.0337   -7.0582  -12.7606 O   0  0  0  0  0  0  0  0  0  0  0  0
   22.5030   -5.3025  -13.6121 C   0  0  0  0  0  0  0  0  0  0  0  0
   21.6221   -6.2225  -12.8195 C   0  0  0  0  0  0  0  0  0  0  0  0
   20.5027   -6.8234  -13.5928 C   0  0  2  0  0  0  0  0  0  0  0  0
   21.0272   -7.2131  -14.9745 C   0  0  0  0  0  0  0  0  0  0  0  0
   19.2995   -5.9648  -13.7958 C   0  0  2  0  0  0  0  0  0  0  0  0
   18.2675   -6.5174  -14.6157 N   0  0  0  0  0  0  0  0  0  0  0  0
   19.7859   -4.7051  -14.4664 C   0  0  0  0  0  0  0  0  0  0  0  0
   20.2761   -3.6928  -13.6723 O   0  0  0  0  0  0  0  0  0  0  0  0
   19.7536   -4.5658  -15.6952 O   0  0  0  0  0  0  0  0  0  0  0  0
  2  4  1  0
  2  1  1  1
  3  2  1  0
  4  5  1  1
  6  4  1  0
  7  6  2  0
  9  8  1  1
  9 11  1  0
  9 10  1  0
 10  6  1  0
 11 18  1  0
 12 11  2  0
 14 13  1  0
 15 17  1  0
 15 14  1  0
 15 16  1  6
 17 18  1  6
 19 20  1  0
 19 17  1  0
 21 19  2  0
M  END
$$$$
