VAI.pdb
     RDKit          3D

 21 20  0  0  1  0  0  0  0  0999 V2000
   42.3368   -9.0235   -7.4359 C   0  0  0  0  0  0  0  0  0  0  0  0
   41.5187   -8.4751   -8.6064 C   0  0  2  0  0  0  0  0  0  0  0  0
   40.7365   -7.3104   -8.0899 C   0  0  0  0  0  0  0  0  0  0  0  0
   40.6511   -9.6112   -9.1245 C   0  0  2  0  0  0  0  0  0  0  0  0
   39.8559  -10.0485   -7.9627 N   0  0  0  0  0  0  0  0  0  0  0  0
   41.4480  -10.7718   -9.5833 C   0  0  0  0  0  0  0  0  0  0  0  0
   41.6747  -11.7097   -8.7702 O   0  0  0  0  0  0  0  0  0  0  0  0
   42.9069  -12.2313  -12.7410 C   0  0  0  0  0  0  0  0  0  0  0  0
   42.8309  -12.0757  -11.2380 C   0  0  2  0  0  0  0  0  0  0  0  0
   41.9893  -10.9222  -10.8875 N   0  0  0  0  0  0  0  0  0  0  0  0
   44.1914  -11.8502  -10.7193 C   0  0  0  0  0  0  0  0  0  0  0  0
   44.6351  -10.6878  -10.5509 O   0  0  0  0  0  0  0  0  0  0  0  0
   46.8092  -15.2540   -7.0830 C   0  0  0  0  0  0  0  0  0  0  0  0
   46.2313  -14.1022   -7.8510 C   0  0  0  0  0  0  0  0  0  0  0  0
   46.9810  -13.7449   -9.0850 C   0  0  2  0  0  0  0  0  0  0  0  0
   48.3728  -13.2610   -8.6791 C   0  0  0  0  0  0  0  0  0  0  0  0
   46.3742  -12.6908   -9.9491 C   0  0  2  0  0  0  0  0  0  0  0  0
   45.0393  -12.9391  -10.3952 N   0  0  0  0  0  0  0  0  0  0  0  0
   47.2498  -12.5895  -11.1722 C   0  0  0  0  0  0  0  0  0  0  0  0
   48.2104  -11.6037  -11.2051 O   0  0  0  0  0  0  0  0  0  0  0  0
   47.1239  -13.3617  -12.1306 O   0  0  0  0  0  0  0  0  0  0  0  0
  2  4  1  0
  2  1  1  1
  3  2  1  0
  4  5  1  1
  6  4  1  0
  7  6  2  0
  9  8  1  6
  9 11  1  0
  9 10  1  0
 10  6  1  0
 11 18  1  0
 12 11  2  0
 14 13  1  0
 15 17  1  0
 15 14  1  0
 15 16  1  1
 17 18  1  6
 19 20  1  0
 19 17  1  0
 21 19  2  0
M  END
$$$$
