VAI.pdb
     RDKit          3D

 21 20  0  0  1  0  0  0  0  0999 V2000
   18.6297  -14.2442  -16.3794 C   0  0  0  0  0  0  0  0  0  0  0  0
   17.4494  -14.1389  -17.3469 C   0  0  2  0  0  0  0  0  0  0  0  0
   16.8483  -15.5032  -17.4589 C   0  0  0  0  0  0  0  0  0  0  0  0
   17.9886  -13.6000  -18.6625 C   0  0  2  0  0  0  0  0  0  0  0  0
   18.8741  -14.6598  -19.1783 N   0  0  0  0  0  0  0  0  0  0  0  0
   18.8084  -12.3799  -18.4841 C   0  0  0  0  0  0  0  0  0  0  0  0
   20.0414  -12.5082  -18.2491 O   0  0  0  0  0  0  0  0  0  0  0  0
   18.5028   -8.6267  -18.8423 C   0  0  0  0  0  0  0  0  0  0  0  0
   19.2094   -9.8930  -18.4110 C   0  0  2  0  0  0  0  0  0  0  0  0
   18.3146  -11.0504  -18.5571 N   0  0  0  0  0  0  0  0  0  0  0  0
   19.5907   -9.7593  -16.9941 C   0  0  0  0  0  0  0  0  0  0  0  0
   18.8105  -10.1167  -16.0777 O   0  0  0  0  0  0  0  0  0  0  0  0
   24.2551  -11.3693  -14.8896 C   0  0  0  0  0  0  0  0  0  0  0  0
   22.8296  -10.9744  -15.1396 C   0  0  0  0  0  0  0  0  0  0  0  0
   22.5176   -9.5551  -14.8228 C   0  0  2  0  0  0  0  0  0  0  0  0
   22.6261   -9.3648  -13.3101 C   0  0  0  0  0  0  0  0  0  0  0  0
   21.1735   -9.0610  -15.2415 C   0  0  2  0  0  0  0  0  0  0  0  0
   20.8499   -9.2231  -16.6240 N   0  0  0  0  0  0  0  0  0  0  0  0
   21.1524   -7.5837  -14.9409 C   0  0  0  0  0  0  0  0  0  0  0  0
   21.1967   -6.7036  -15.9988 O   0  0  0  0  0  0  0  0  0  0  0  0
   21.0969   -7.1544  -13.7820 O   0  0  0  0  0  0  0  0  0  0  0  0
  2  4  1  0
  2  1  1  1
  3  2  1  0
  4  5  1  1
  6  4  1  0
  7  6  2  0
  9  8  1  1
  9 11  1  0
  9 10  1  0
 10  6  1  0
 11 18  1  0
 12 11  2  0
 14 13  1  0
 15 17  1  0
 15 14  1  0
 15 16  1  1
 17 18  1  6
 19 20  1  0
 19 17  1  0
 21 19  2  0
M  END
$$$$
