VAI.pdb
     RDKit          3D

 21 20  0  0  1  0  0  0  0  0999 V2000
   18.0061  -13.1888  -17.1763 C   0  0  0  0  0  0  0  0  0  0  0  0
   18.2422  -11.7265  -16.7940 C   0  0  2  0  0  0  0  0  0  0  0  0
   19.7199  -11.5001  -16.8093 C   0  0  0  0  0  0  0  0  0  0  0  0
   17.6053  -11.5059  -15.4311 C   0  0  2  0  0  0  0  0  0  0  0  0
   16.1661  -11.7513  -15.6349 N   0  0  0  0  0  0  0  0  0  0  0  0
   17.7579  -10.1136  -14.9507 C   0  0  0  0  0  0  0  0  0  0  0  0
   17.6825   -9.1727  -15.7880 O   0  0  0  0  0  0  0  0  0  0  0  0
   17.9143   -8.1567  -11.7343 C   0  0  0  0  0  0  0  0  0  0  0  0
   18.1663   -8.3320  -13.2157 C   0  0  2  0  0  0  0  0  0  0  0  0
   17.9859   -9.7397  -13.5998 N   0  0  0  0  0  0  0  0  0  0  0  0
   19.5537   -7.9308  -13.5074 C   0  0  0  0  0  0  0  0  0  0  0  0
   20.4936   -8.7610  -13.4463 O   0  0  0  0  0  0  0  0  0  0  0  0
   21.2642   -6.0653  -18.0254 C   0  0  0  0  0  0  0  0  0  0  0  0
   21.1808   -6.6752  -16.6574 C   0  0  0  0  0  0  0  0  0  0  0  0
   21.4741   -5.7345  -15.5432 C   0  0  2  0  0  0  0  0  0  0  0  0
   22.9483   -5.3388  -15.6232 C   0  0  0  0  0  0  0  0  0  0  0  0
   21.2199   -6.2400  -14.1627 C   0  0  2  0  0  0  0  0  0  0  0  0
   19.8680   -6.5955  -13.8655 N   0  0  0  0  0  0  0  0  0  0  0  0
   21.6129   -5.1271  -13.2247 C   0  0  0  0  0  0  0  0  0  0  0  0
   20.6269   -4.2808  -12.7695 O   0  0  0  0  0  0  0  0  0  0  0  0
   22.7842   -4.9623  -12.8622 O   0  0  0  0  0  0  0  0  0  0  0  0
  2  4  1  0
  2  1  1  1
  3  2  1  0
  4  5  1  6
  6  4  1  0
  7  6  2  0
  9  8  1  1
  9 11  1  0
  9 10  1  0
 10  6  1  0
 11 18  1  0
 12 11  2  0
 14 13  1  0
 15 17  1  0
 15 14  1  0
 15 16  1  1
 17 18  1  6
 19 20  1  0
 19 17  1  0
 21 19  2  0
M  END
$$$$
