VAI.pdb
     RDKit          3D

 21 20  0  0  1  0  0  0  0  0999 V2000
   28.6299  -20.8011  -15.6134 C   0  0  0  0  0  0  0  0  0  0  0  0
   28.1828  -20.2520  -14.2574 C   0  0  2  0  0  0  0  0  0  0  0  0
   28.7822  -21.1307  -13.2068 C   0  0  0  0  0  0  0  0  0  0  0  0
   26.6623  -20.2434  -14.2510 C   0  0  2  0  0  0  0  0  0  0  0  0
   26.2789  -19.2601  -15.2802 N   0  0  0  0  0  0  0  0  0  0  0  0
   26.1017  -19.7816  -12.9606 C   0  0  0  0  0  0  0  0  0  0  0  0
   26.2373  -18.5684  -12.6413 O   0  0  0  0  0  0  0  0  0  0  0  0
   23.4891  -20.4012  -10.5296 C   0  0  0  0  0  0  0  0  0  0  0  0
   24.9531  -20.0812  -10.7376 C   0  0  2  0  0  0  0  0  0  0  0  0
   25.4097  -20.6049  -12.0332 N   0  0  0  0  0  0  0  0  0  0  0  0
   25.7315  -20.7205   -9.6623 C   0  0  0  0  0  0  0  0  0  0  0  0
   26.0827  -21.9230   -9.7451 O   0  0  0  0  0  0  0  0  0  0  0  0
   29.6263  -19.5371   -4.9954 C   0  0  0  0  0  0  0  0  0  0  0  0
   28.6609  -20.4434   -5.7006 C   0  0  0  0  0  0  0  0  0  0  0  0
   27.8457  -19.7785   -6.7521 C   0  0  2  0  0  0  0  0  0  0  0  0
   27.0589  -18.6403   -6.1028 C   0  0  0  0  0  0  0  0  0  0  0  0
   26.8691  -20.6405   -7.4796 C   0  0  2  0  0  0  0  0  0  0  0  0
   26.1066  -19.9965   -8.5025 N   0  0  0  0  0  0  0  0  0  0  0  0
   25.8994  -21.1499   -6.4437 C   0  0  0  0  0  0  0  0  0  0  0  0
   26.3413  -22.0987   -5.5493 O   0  0  0  0  0  0  0  0  0  0  0  0
   24.7341  -20.7388   -6.3828 O   0  0  0  0  0  0  0  0  0  0  0  0
  2  4  1  0
  2  1  1  6
  3  2  1  0
  4  5  1  6
  6  4  1  0
  7  6  2  0
  9  8  1  1
  9 11  1  0
  9 10  1  0
 10  6  1  0
 11 18  1  0
 12 11  2  0
 14 13  1  0
 15 17  1  0
 15 14  1  0
 15 16  1  1
 17 18  1  6
 19 20  1  0
 19 17  1  0
 21 19  2  0
M  END
$$$$
