VAI.pdb
     RDKit          3D

 21 20  0  0  1  0  0  0  0  0999 V2000
   22.0458  -13.5256  -21.7608 C   0  0  0  0  0  0  0  0  0  0  0  0
   22.3680  -14.2652  -20.4610 C   0  0  2  0  0  0  0  0  0  0  0  0
   22.1593  -15.7227  -20.7199 C   0  0  0  0  0  0  0  0  0  0  0  0
   21.4584  -13.7010  -19.3811 C   0  0  2  0  0  0  0  0  0  0  0  0
   20.0896  -14.0206  -19.8255 N   0  0  0  0  0  0  0  0  0  0  0  0
   21.5585  -12.2282  -19.2655 C   0  0  0  0  0  0  0  0  0  0  0  0
   22.6250  -11.7277  -18.8136 O   0  0  0  0  0  0  0  0  0  0  0  0
   19.5755   -9.1018  -20.0556 C   0  0  0  0  0  0  0  0  0  0  0  0
   20.6517   -9.8777  -19.3285 C   0  0  2  0  0  0  0  0  0  0  0  0
   20.5354  -11.3124  -19.6280 N   0  0  0  0  0  0  0  0  0  0  0  0
   20.4788   -9.6762  -17.8792 C   0  0  0  0  0  0  0  0  0  0  0  0
   19.6180  -10.3237  -17.2343 O   0  0  0  0  0  0  0  0  0  0  0  0
   23.8090  -10.9069  -14.3012 C   0  0  0  0  0  0  0  0  0  0  0  0
   22.5267  -10.5129  -14.9730 C   0  0  0  0  0  0  0  0  0  0  0  0
   22.2108   -9.0615  -14.8972 C   0  0  2  0  0  0  0  0  0  0  0  0
   21.8491   -8.7228  -13.4513 C   0  0  0  0  0  0  0  0  0  0  0  0
   21.0960   -8.5782  -15.7631 C   0  0  2  0  0  0  0  0  0  0  0  0
   21.2794   -8.7452  -17.1706 N   0  0  0  0  0  0  0  0  0  0  0  0
   20.9612   -7.1007  -15.4954 C   0  0  0  0  0  0  0  0  0  0  0  0
   21.3944   -6.2218  -16.4626 O   0  0  0  0  0  0  0  0  0  0  0  0
   20.4773   -6.6700  -14.4414 O   0  0  0  0  0  0  0  0  0  0  0  0
  2  4  1  0
  2  1  1  6
  3  2  1  0
  4  5  1  6
  6  4  1  0
  7  6  2  0
  9  8  1  6
  9 11  1  0
  9 10  1  0
 10  6  1  0
 11 18  1  0
 12 11  2  0
 14 13  1  0
 15 17  1  0
 15 14  1  0
 15 16  1  1
 17 18  1  6
 19 20  1  0
 19 17  1  0
 21 19  2  0
M  END
$$$$
