GPR.pdb
     RDKit          3D

 23 23  0  0  1  0  0  0  0  0999 V2000
    8.3546  -17.6424   17.5155 N   0  0  0  0  0  0  0  0  0  0  0  0
    7.7077  -16.4296   18.0374 C   0  0  0  0  0  0  0  0  0  0  0  0
    8.4444  -15.9650   19.2291 C   0  0  0  0  0  0  0  0  0  0  0  0
    9.4418  -16.5961   19.6582 O   0  0  0  0  0  0  0  0  0  0  0  0
    8.0248  -14.7950   19.8992 N   0  0  0  0  0  0  0  0  0  0  0  0
    6.9026  -13.9182   19.5382 C   0  0  0  0  0  0  0  0  0  0  0  0
    7.4344  -12.5490   19.8993 C   0  0  0  0  0  0  0  0  0  0  0  0
    8.2050  -12.7966   21.1507 C   0  0  0  0  0  0  0  0  0  0  0  0
    8.6209  -14.2345   21.0674 C   0  0  1  0  0  0  0  0  0  0  0  0
    8.1729  -14.8943   22.3194 C   0  0  0  0  0  0  0  0  0  0  0  0
    6.9712  -15.0564   22.5971 O   0  0  0  0  0  0  0  0  0  0  0  0
    6.4612  -21.8978   24.4160 N   0  0  0  0  0  0  0  0  0  0  0  0
    5.6790  -21.1038   23.5439 C   0  0  0  0  0  0  0  0  0  0  0  0
    4.4449  -21.4323   23.2851 N   0  0  0  0  0  0  0  0  0  0  0  0
    6.1708  -19.9294   22.9121 N   0  0  0  0  0  0  0  0  0  0  0  0
    7.5411  -19.5230   23.1517 C   0  0  0  0  0  0  0  0  0  0  0  0
    7.5027  -18.1412   23.7694 C   0  0  0  0  0  0  0  0  0  0  0  0
    8.8785  -17.5757   23.9835 C   0  0  0  0  0  0  0  0  0  0  0  0
    8.8710  -16.1233   24.4000 C   0  0  2  0  0  0  0  0  0  0  0  0
    9.1811  -15.3443   23.2096 N   0  0  0  0  0  0  0  0  0  0  0  0
    9.8840  -15.8194   25.4186 C   0  0  0  0  0  0  0  0  0  0  0  0
    9.7264  -16.1491   26.6085 O   0  0  0  0  0  0  0  0  0  0  0  0
   11.0349  -15.1556   25.0545 O   0  0  0  0  0  0  0  0  0  0  0  0
  2  1  1  0
  3  2  1  0
  4  3  2  0
  5  9  1  0
  5  3  1  0
  6  5  1  0
  7  6  1  0
  7  8  1  0
  8  9  1  0
  9 10  1  1
 10 11  2  0
 10 20  1  0
 13 12  1  0
 13 14  2  0
 15 13  1  0
 16 15  1  0
 16 17  1  0
 18 17  1  0
 19 18  1  6
 20 19  1  0
 21 19  1  0
 21 23  1  0
 22 21  2  0
M  END
$$$$
