GPR.pdb
     RDKit          3D

 23 23  0  0  1  0  0  0  0  0999 V2000
    8.5663  -16.4021   15.9629 N   0  0  0  0  0  0  0  0  0  0  0  0
    7.8621  -15.6359   17.0016 C   0  0  0  0  0  0  0  0  0  0  0  0
    8.7867  -15.3824   18.1239 C   0  0  0  0  0  0  0  0  0  0  0  0
    9.9527  -15.8490   18.1177 O   0  0  0  0  0  0  0  0  0  0  0  0
    8.3580  -14.6050   19.2221 N   0  0  0  0  0  0  0  0  0  0  0  0
    7.0312  -14.0071   19.4234 C   0  0  0  0  0  0  0  0  0  0  0  0
    7.3673  -12.6992   20.1047 C   0  0  0  0  0  0  0  0  0  0  0  0
    8.4976  -13.0599   21.0067 C   0  0  0  0  0  0  0  0  0  0  0  0
    9.1435  -14.2466   20.3573 C   0  0  1  0  0  0  0  0  0  0  0  0
    9.2111  -15.3226   21.3775 C   0  0  0  0  0  0  0  0  0  0  0  0
    8.2496  -16.0727   21.6235 O   0  0  0  0  0  0  0  0  0  0  0  0
   16.6755  -19.7572   22.4504 N   0  0  0  0  0  0  0  0  0  0  0  0
   15.5018  -20.5271   22.6306 C   0  0  0  0  0  0  0  0  0  0  0  0
   15.5465  -21.8259   22.5347 N   0  0  0  0  0  0  0  0  0  0  0  0
   14.2341  -19.9537   22.9213 N   0  0  0  0  0  0  0  0  0  0  0  0
   14.1261  -18.5143   23.0500 C   0  0  0  0  0  0  0  0  0  0  0  0
   12.6778  -18.1937   23.3535 C   0  0  0  0  0  0  0  0  0  0  0  0
   12.1690  -17.0369   22.5403 C   0  0  0  0  0  0  0  0  0  0  0  0
   10.7395  -16.6644   22.8577 C   0  0  2  0  0  0  0  0  0  0  0  0
   10.4344  -15.4722   22.0795 N   0  0  0  0  0  0  0  0  0  0  0  0
   10.5375  -16.3449   24.2766 C   0  0  0  0  0  0  0  0  0  0  0  0
   10.4990  -17.2375   25.1432 O   0  0  0  0  0  0  0  0  0  0  0  0
   10.3870  -15.0308   24.6618 O   0  0  0  0  0  0  0  0  0  0  0  0
  2  1  1  0
  3  2  1  0
  4  3  2  0
  5  9  1  0
  5  3  1  0
  6  5  1  0
  7  6  1  0
  7  8  1  0
  8  9  1  0
  9 10  1  1
 10 11  2  0
 10 20  1  0
 13 12  1  0
 13 14  2  0
 15 13  1  0
 16 15  1  0
 16 17  1  0
 18 17  1  0
 19 18  1  1
 20 19  1  0
 21 19  1  0
 21 23  1  0
 22 21  2  0
M  END
$$$$
