GPR.pdb
     RDKit          3D

 23 23  0  0  1  0  0  0  0  0999 V2000
    8.2697  -17.5313   17.5895 N   0  0  0  0  0  0  0  0  0  0  0  0
    7.7558  -16.2165   18.0009 C   0  0  0  0  0  0  0  0  0  0  0  0
    8.4644  -15.7820   19.2206 C   0  0  0  0  0  0  0  0  0  0  0  0
    9.3080  -16.5275   19.7773 O   0  0  0  0  0  0  0  0  0  0  0  0
    8.1928  -14.5109   19.7726 N   0  0  0  0  0  0  0  0  0  0  0  0
    7.3372  -13.4601   19.2050 C   0  0  0  0  0  0  0  0  0  0  0  0
    8.0729  -12.1983   19.5981 C   0  0  0  0  0  0  0  0  0  0  0  0
    8.5806  -12.5061   20.9651 C   0  0  0  0  0  0  0  0  0  0  0  0
    8.7065  -13.9994   21.0008 C   0  0  1  0  0  0  0  0  0  0  0  0
    7.9518  -14.4754   22.1871 C   0  0  0  0  0  0  0  0  0  0  0  0
    6.7094  -14.5366   22.2091 O   0  0  0  0  0  0  0  0  0  0  0  0
    4.6844  -21.8348   24.0404 N   0  0  0  0  0  0  0  0  0  0  0  0
    6.0223  -21.6058   24.4409 C   0  0  0  0  0  0  0  0  0  0  0  0
    6.8867  -22.5809   24.4335 N   0  0  0  0  0  0  0  0  0  0  0  0
    6.4996  -20.3355   24.8634 N   0  0  0  0  0  0  0  0  0  0  0  0
    7.0275  -19.4176   23.8740 C   0  0  0  0  0  0  0  0  0  0  0  0
    7.4151  -18.1452   24.5971 C   0  0  0  0  0  0  0  0  0  0  0  0
    7.8361  -17.0580   23.6489 C   0  0  0  0  0  0  0  0  0  0  0  0
    8.1715  -15.7569   24.3402 C   0  0  2  0  0  0  0  0  0  0  0  0
    8.7087  -14.8670   23.3207 N   0  0  0  0  0  0  0  0  0  0  0  0
    9.1891  -15.9158   25.3868 C   0  0  0  0  0  0  0  0  0  0  0  0
    8.8729  -16.0727   26.5804 O   0  0  0  0  0  0  0  0  0  0  0  0
   10.5235  -15.8915   25.0453 O   0  0  0  0  0  0  0  0  0  0  0  0
  2  1  1  0
  3  2  1  0
  4  3  2  0
  5  9  1  0
  5  3  1  0
  6  5  1  0
  7  6  1  0
  7  8  1  0
  8  9  1  0
  9 10  1  1
 10 11  2  0
 10 20  1  0
 13 12  1  0
 13 14  2  0
 15 13  1  0
 16 15  1  0
 16 17  1  0
 18 17  1  0
 19 18  1  6
 20 19  1  0
 21 19  1  0
 21 23  1  0
 22 21  2  0
M  END
$$$$
