GPR.pdb
     RDKit          3D

 23 23  0  0  1  0  0  0  0  0999 V2000
    8.9076  -16.2642   15.8895 N   0  0  0  0  0  0  0  0  0  0  0  0
    8.0837  -15.5712   16.8909 C   0  0  0  0  0  0  0  0  0  0  0  0
    8.9043  -15.3025   18.0880 C   0  0  0  0  0  0  0  0  0  0  0  0
    9.9903  -15.9050   18.2748 O   0  0  0  0  0  0  0  0  0  0  0  0
    8.4655  -14.3557   19.0393 N   0  0  0  0  0  0  0  0  0  0  0  0
    7.2483  -13.5349   18.9799 C   0  0  0  0  0  0  0  0  0  0  0  0
    7.7067  -12.2337   19.6000 C   0  0  0  0  0  0  0  0  0  0  0  0
    8.6162  -12.6744   20.6953 C   0  0  0  0  0  0  0  0  0  0  0  0
    9.1312  -14.0108   20.2525 C   0  0  1  0  0  0  0  0  0  0  0  0
    8.8638  -14.9707   21.3527 C   0  0  0  0  0  0  0  0  0  0  0  0
    7.7607  -15.5261   21.5026 O   0  0  0  0  0  0  0  0  0  0  0  0
   12.2566  -21.1413   19.1526 N   0  0  0  0  0  0  0  0  0  0  0  0
   13.1444  -20.0887   19.4793 C   0  0  0  0  0  0  0  0  0  0  0  0
   14.3438  -20.0587   18.9708 N   0  0  0  0  0  0  0  0  0  0  0  0
   12.7980  -19.0247   20.3557 N   0  0  0  0  0  0  0  0  0  0  0  0
   11.4966  -19.0340   20.9934 C   0  0  0  0  0  0  0  0  0  0  0  0
   11.3867  -17.7688   21.8177 C   0  0  0  0  0  0  0  0  0  0  0  0
   10.0281  -17.6123   22.4408 C   0  0  0  0  0  0  0  0  0  0  0  0
    9.8700  -16.3260   23.2176 C   0  0  2  0  0  0  0  0  0  0  0  0
    9.9297  -15.2411   22.2483 N   0  0  0  0  0  0  0  0  0  0  0  0
   10.9433  -16.1191   24.1981 C   0  0  0  0  0  0  0  0  0  0  0  0
   11.7978  -15.2270   24.0456 O   0  0  0  0  0  0  0  0  0  0  0  0
   11.0100  -16.9268   25.3120 O   0  0  0  0  0  0  0  0  0  0  0  0
  2  1  1  0
  3  2  1  0
  4  3  2  0
  5  9  1  0
  5  3  1  0
  6  5  1  0
  7  6  1  0
  7  8  1  0
  8  9  1  0
  9 10  1  1
 10 11  2  0
 10 20  1  0
 13 12  1  0
 13 14  2  0
 15 13  1  0
 16 15  1  0
 16 17  1  0
 18 17  1  0
 19 18  1  6
 20 19  1  0
 21 19  1  0
 21 23  1  0
 22 21  2  0
M  END
$$$$
