GPR.pdb
     RDKit          3D

 23 23  0  0  1  0  0  0  0  0999 V2000
    8.8262  -15.5042   15.1418 N   0  0  0  0  0  0  0  0  0  0  0  0
    8.0569  -15.0783   16.3202 C   0  0  0  0  0  0  0  0  0  0  0  0
    8.9692  -14.9601   17.4745 C   0  0  0  0  0  0  0  0  0  0  0  0
   10.1040  -15.4978   17.4583 O   0  0  0  0  0  0  0  0  0  0  0  0
    8.5639  -14.2331   18.6153 N   0  0  0  0  0  0  0  0  0  0  0  0
    7.2761  -13.5587   18.8279 C   0  0  0  0  0  0  0  0  0  0  0  0
    7.6818  -12.3286   19.6091 C   0  0  0  0  0  0  0  0  0  0  0  0
    8.7586  -12.8303   20.5090 C   0  0  0  0  0  0  0  0  0  0  0  0
    9.3396  -14.0113   19.7914 C   0  0  1  0  0  0  0  0  0  0  0  0
    9.3043  -15.1581   20.7331 C   0  0  0  0  0  0  0  0  0  0  0  0
    8.2821  -15.8437   20.9144 O   0  0  0  0  0  0  0  0  0  0  0  0
   15.5627  -21.8285   24.1478 N   0  0  0  0  0  0  0  0  0  0  0  0
   15.3235  -20.5311   23.6353 C   0  0  0  0  0  0  0  0  0  0  0  0
   16.3154  -19.7957   23.2189 N   0  0  0  0  0  0  0  0  0  0  0  0
   14.0251  -19.9607   23.5413 N   0  0  0  0  0  0  0  0  0  0  0  0
   13.8706  -18.6624   22.9163 C   0  0  0  0  0  0  0  0  0  0  0  0
   12.3927  -18.3333   22.9142 C   0  0  0  0  0  0  0  0  0  0  0  0
   12.1016  -17.0294   22.2261 C   0  0  0  0  0  0  0  0  0  0  0  0
   10.6394  -16.6496   22.2562 C   0  0  2  0  0  0  0  0  0  0  0  0
   10.4998  -15.4546   21.4361 N   0  0  0  0  0  0  0  0  0  0  0  0
   10.1631  -16.3312   23.6081 C   0  0  0  0  0  0  0  0  0  0  0  0
   10.1502  -15.1612   24.0324 O   0  0  0  0  0  0  0  0  0  0  0  0
    9.7199  -17.3457   24.4281 O   0  0  0  0  0  0  0  0  0  0  0  0
  2  1  1  0
  3  2  1  0
  4  3  2  0
  5  9  1  0
  5  3  1  0
  6  5  1  0
  7  6  1  0
  7  8  1  0
  8  9  1  0
  9 10  1  1
 10 11  2  0
 10 20  1  0
 13 12  1  0
 13 14  2  0
 15 13  1  0
 16 15  1  0
 16 17  1  0
 18 17  1  0
 19 18  1  1
 20 19  1  0
 21 19  1  0
 21 23  1  0
 22 21  2  0
M  END
$$$$
