GPR.pdb
     RDKit          3D

 23 23  0  0  1  0  0  0  0  0999 V2000
    7.9500  -12.0873   19.4384 N   0  0  0  0  0  0  0  0  0  0  0  0
    8.3447  -13.4909   19.2483 C   0  0  0  0  0  0  0  0  0  0  0  0
    7.9026  -14.2783   20.4159 C   0  0  0  0  0  0  0  0  0  0  0  0
    7.3536  -13.7223   21.3992 O   0  0  0  0  0  0  0  0  0  0  0  0
    8.0982  -15.6768   20.4317 N   0  0  0  0  0  0  0  0  0  0  0  0
    8.6218  -16.5131   19.3431 C   0  0  0  0  0  0  0  0  0  0  0  0
    7.8149  -17.7833   19.4962 C   0  0  0  0  0  0  0  0  0  0  0  0
    7.7003  -17.9439   20.9734 C   0  0  0  0  0  0  0  0  0  0  0  0
    7.8184  -16.5535   21.5212 C   0  0  1  0  0  0  0  0  0  0  0  0
    8.8974  -16.5734   22.5403 C   0  0  0  0  0  0  0  0  0  0  0  0
   10.1036  -16.5316   22.2384 O   0  0  0  0  0  0  0  0  0  0  0  0
    5.2074  -13.1420   25.7976 N   0  0  0  0  0  0  0  0  0  0  0  0
    6.0275  -12.2434   26.5207 C   0  0  0  0  0  0  0  0  0  0  0  0
    5.6137  -11.0339   26.7736 N   0  0  0  0  0  0  0  0  0  0  0  0
    7.3176  -12.5893   27.0068 N   0  0  0  0  0  0  0  0  0  0  0  0
    7.6236  -13.9830   27.2600 C   0  0  0  0  0  0  0  0  0  0  0  0
    8.3886  -14.5040   26.0618 C   0  0  0  0  0  0  0  0  0  0  0  0
    8.6941  -15.9710   26.1763 C   0  0  0  0  0  0  0  0  0  0  0  0
    9.4565  -16.5183   24.9921 C   0  0  2  0  0  0  0  0  0  0  0  0
    8.5013  -16.6433   23.9003 N   0  0  0  0  0  0  0  0  0  0  0  0
   10.0288  -17.8458   25.2495 C   0  0  0  0  0  0  0  0  0  0  0  0
   11.2018  -17.9810   25.6432 O   0  0  0  0  0  0  0  0  0  0  0  0
    9.2550  -18.9684   25.0526 O   0  0  0  0  0  0  0  0  0  0  0  0
  2  1  1  0
  3  2  1  0
  4  3  2  0
  5  9  1  0
  5  3  1  0
  6  5  1  0
  7  6  1  0
  7  8  1  0
  8  9  1  0
  9 10  1  1
 10 11  2  0
 10 20  1  0
 13 12  1  0
 13 14  2  0
 15 13  1  0
 16 15  1  0
 16 17  1  0
 18 17  1  0
 19 18  1  1
 20 19  1  0
 21 19  1  0
 21 23  1  0
 22 21  2  0
M  END
$$$$
