GPR.pdb
     RDKit          3D

 23 23  0  0  1  0  0  0  0  0999 V2000
    5.1414  -20.7784   23.1340 N   0  0  0  0  0  0  0  0  0  0  0  0
    5.8596  -20.0846   24.2133 C   0  0  0  0  0  0  0  0  0  0  0  0
    6.2505  -18.7402   23.7456 C   0  0  0  0  0  0  0  0  0  0  0  0
    5.8816  -18.3146   22.6231 O   0  0  0  0  0  0  0  0  0  0  0  0
    7.0507  -17.9181   24.5688 N   0  0  0  0  0  0  0  0  0  0  0  0
    7.6014  -18.2505   25.8898 C   0  0  0  0  0  0  0  0  0  0  0  0
    7.5194  -16.9260   26.6155 C   0  0  0  0  0  0  0  0  0  0  0  0
    7.8653  -15.9318   25.5605 C   0  0  0  0  0  0  0  0  0  0  0  0
    7.4793  -16.5909   24.2705 C   0  0  1  0  0  0  0  0  0  0  0  0
    8.6696  -16.5523   23.3845 C   0  0  0  0  0  0  0  0  0  0  0  0
    9.5203  -17.4599   23.3670 O   0  0  0  0  0  0  0  0  0  0  0  0
    9.7166  -14.4504   16.6626 N   0  0  0  0  0  0  0  0  0  0  0  0
    8.3630  -14.0414   16.6025 C   0  0  0  0  0  0  0  0  0  0  0  0
    7.6420  -14.3078   15.5504 N   0  0  0  0  0  0  0  0  0  0  0  0
    7.7179  -13.3358   17.6542 N   0  0  0  0  0  0  0  0  0  0  0  0
    8.4781  -12.9879   18.8379 C   0  0  0  0  0  0  0  0  0  0  0  0
    8.8732  -14.2809   19.5192 C   0  0  0  0  0  0  0  0  0  0  0  0
    9.6447  -14.0430   20.7868 C   0  0  0  0  0  0  0  0  0  0  0  0
    9.8985  -15.3043   21.5792 C   0  0  2  0  0  0  0  0  0  0  0  0
    8.8102  -15.4222   22.5392 N   0  0  0  0  0  0  0  0  0  0  0  0
   11.1614  -15.2606   22.3270 C   0  0  0  0  0  0  0  0  0  0  0  0
   12.2442  -15.5561   21.7890 O   0  0  0  0  0  0  0  0  0  0  0  0
   11.1528  -14.8852   23.6524 O   0  0  0  0  0  0  0  0  0  0  0  0
  2  1  1  0
  3  2  1  0
  4  3  2  0
  5  9  1  0
  5  3  1  0
  6  5  1  0
  7  6  1  0
  7  8  1  0
  8  9  1  0
  9 10  1  6
 10 11  2  0
 10 20  1  0
 13 12  1  0
 13 14  2  0
 15 13  1  0
 16 15  1  0
 16 17  1  0
 18 17  1  0
 19 18  1  1
 20 19  1  0
 21 19  1  0
 21 23  1  0
 22 21  2  0
M  END
$$$$
