GPR.pdb
     RDKit          3D

 23 23  0  0  1  0  0  0  0  0999 V2000
    5.0748  -18.0879   20.4680 N   0  0  0  0  0  0  0  0  0  0  0  0
    5.3793  -16.6632   20.6671 C   0  0  0  0  0  0  0  0  0  0  0  0
    6.8363  -16.4601   20.5461 C   0  0  0  0  0  0  0  0  0  0  0  0
    7.6267  -17.4362   20.5498 O   0  0  0  0  0  0  0  0  0  0  0  0
    7.3529  -15.1515   20.4247 N   0  0  0  0  0  0  0  0  0  0  0  0
    6.5890  -13.9029   20.2981 C   0  0  0  0  0  0  0  0  0  0  0  0
    7.4511  -13.0920   19.3562 C   0  0  0  0  0  0  0  0  0  0  0  0
    8.8392  -13.4280   19.7824 C   0  0  0  0  0  0  0  0  0  0  0  0
    8.7323  -14.7902   20.3992 C   0  0  1  0  0  0  0  0  0  0  0  0
    9.3342  -14.7073   21.7535 C   0  0  0  0  0  0  0  0  0  0  0  0
    8.7896  -14.0982   22.6915 O   0  0  0  0  0  0  0  0  0  0  0  0
   10.6275  -15.6471   29.3364 N   0  0  0  0  0  0  0  0  0  0  0  0
    9.6785  -15.0431   28.4776 C   0  0  0  0  0  0  0  0  0  0  0  0
    9.3810  -13.7815   28.6104 N   0  0  0  0  0  0  0  0  0  0  0  0
    9.0078  -15.7496   27.4426 N   0  0  0  0  0  0  0  0  0  0  0  0
    9.7928  -16.4416   26.4401 C   0  0  0  0  0  0  0  0  0  0  0  0
    9.3826  -15.8976   25.0880 C   0  0  0  0  0  0  0  0  0  0  0  0
   10.1315  -16.5515   23.9610 C   0  0  0  0  0  0  0  0  0  0  0  0
   11.1117  -15.6269   23.2773 C   0  0  2  0  0  0  0  0  0  0  0  0
   10.5786  -15.3592   21.9491 N   0  0  0  0  0  0  0  0  0  0  0  0
   12.4429  -16.2263   23.1203 C   0  0  0  0  0  0  0  0  0  0  0  0
   12.6333  -17.1927   22.3594 O   0  0  0  0  0  0  0  0  0  0  0  0
   13.5068  -15.7116   23.8281 O   0  0  0  0  0  0  0  0  0  0  0  0
  2  1  1  0
  3  2  1  0
  4  3  2  0
  5  9  1  0
  5  3  1  0
  6  5  1  0
  7  6  1  0
  7  8  1  0
  8  9  1  0
  9 10  1  1
 10 11  2  0
 10 20  1  0
 13 12  1  0
 13 14  2  0
 15 13  1  0
 16 15  1  0
 16 17  1  0
 18 17  1  0
 19 18  1  6
 20 19  1  0
 21 19  1  0
 21 23  1  0
 22 21  2  0
M  END
$$$$
