GPR.pdb
     RDKit          3D

 23 23  0  0  1  0  0  0  0  0999 V2000
    7.8292  -17.7270   17.3399 N   0  0  0  0  0  0  0  0  0  0  0  0
    7.3333  -16.4913   17.9637 C   0  0  0  0  0  0  0  0  0  0  0  0
    8.4263  -15.8689   18.7361 C   0  0  0  0  0  0  0  0  0  0  0  0
    9.5503  -16.4222   18.8252 O   0  0  0  0  0  0  0  0  0  0  0  0
    8.2093  -14.6341   19.3858 N   0  0  0  0  0  0  0  0  0  0  0  0
    7.0160  -13.7815   19.2978 C   0  0  0  0  0  0  0  0  0  0  0  0
    7.6092  -12.3910   19.3480 C   0  0  0  0  0  0  0  0  0  0  0  0
    8.7256  -12.5266   20.3260 C   0  0  0  0  0  0  0  0  0  0  0  0
    9.1207  -13.9712   20.2598 C   0  0  1  0  0  0  0  0  0  0  0  0
    9.0824  -14.5008   21.6460 C   0  0  0  0  0  0  0  0  0  0  0  0
    8.0437  -14.5088   22.3306 O   0  0  0  0  0  0  0  0  0  0  0  0
    6.0749  -19.0610   23.6479 N   0  0  0  0  0  0  0  0  0  0  0  0
    6.8033  -19.0901   24.8610 C   0  0  0  0  0  0  0  0  0  0  0  0
    6.3020  -18.5617   25.9415 N   0  0  0  0  0  0  0  0  0  0  0  0
    8.0905  -19.6811   24.9797 N   0  0  0  0  0  0  0  0  0  0  0  0
    9.0957  -19.3847   23.9787 C   0  0  0  0  0  0  0  0  0  0  0  0
    9.6847  -18.0310   24.3146 C   0  0  0  0  0  0  0  0  0  0  0  0
    9.6756  -17.0986   23.1361 C   0  0  0  0  0  0  0  0  0  0  0  0
   10.3373  -15.7699   23.4184 C   0  0  2  0  0  0  0  0  0  0  0  0
   10.2951  -15.0088   22.1779 N   0  0  0  0  0  0  0  0  0  0  0  0
   11.7432  -15.9093   23.8184 C   0  0  0  0  0  0  0  0  0  0  0  0
   12.6706  -15.6304   23.0365 O   0  0  0  0  0  0  0  0  0  0  0  0
   12.0473  -16.3579   25.0849 O   0  0  0  0  0  0  0  0  0  0  0  0
  2  1  1  0
  3  2  1  0
  4  3  2  0
  5  9  1  0
  5  3  1  0
  6  5  1  0
  7  6  1  0
  7  8  1  0
  8  9  1  0
  9 10  1  1
 10 11  2  0
 10 20  1  0
 13 12  1  0
 13 14  2  0
 15 13  1  0
 16 15  1  0
 16 17  1  0
 18 17  1  0
 19 18  1  6
 20 19  1  0
 21 19  1  0
 21 23  1  0
 22 21  2  0
M  END
$$$$
