GPR.pdb
     RDKit          3D

 23 23  0  0  1  0  0  0  0  0999 V2000
    9.0180  -17.2076   17.4025 N   0  0  0  0  0  0  0  0  0  0  0  0
    8.0536  -16.2783   18.0094 C   0  0  0  0  0  0  0  0  0  0  0  0
    8.5692  -15.8365   19.3200 C   0  0  0  0  0  0  0  0  0  0  0  0
    9.4344  -16.5091   19.9336 O   0  0  0  0  0  0  0  0  0  0  0  0
    8.0853  -14.6413   19.8957 N   0  0  0  0  0  0  0  0  0  0  0  0
    7.1398  -13.6874   19.3001 C   0  0  0  0  0  0  0  0  0  0  0  0
    7.6643  -12.3595   19.7997 C   0  0  0  0  0  0  0  0  0  0  0  0
    8.1039  -12.6630   21.1911 C   0  0  0  0  0  0  0  0  0  0  0  0
    8.4295  -14.1263   21.1804 C   0  0  1  0  0  0  0  0  0  0  0  0
    7.6589  -14.7556   22.2819 C   0  0  0  0  0  0  0  0  0  0  0  0
    6.4641  -15.0807   22.1618 O   0  0  0  0  0  0  0  0  0  0  0  0
    5.1283  -21.1875   23.5259 N   0  0  0  0  0  0  0  0  0  0  0  0
    6.0580  -21.4706   24.5547 C   0  0  0  0  0  0  0  0  0  0  0  0
    5.7439  -22.2912   25.5169 N   0  0  0  0  0  0  0  0  0  0  0  0
    7.3579  -20.8981   24.6054 N   0  0  0  0  0  0  0  0  0  0  0  0
    7.6852  -19.8145   23.7005 C   0  0  0  0  0  0  0  0  0  0  0  0
    7.6477  -18.5293   24.4998 C   0  0  0  0  0  0  0  0  0  0  0  0
    8.0264  -17.3336   23.6720 C   0  0  0  0  0  0  0  0  0  0  0  0
    7.9468  -16.0297   24.4315 C   0  0  2  0  0  0  0  0  0  0  0  0
    8.3430  -14.9796   23.5039 N   0  0  0  0  0  0  0  0  0  0  0  0
    8.8574  -15.9866   25.5826 C   0  0  0  0  0  0  0  0  0  0  0  0
   10.0510  -15.6584   25.4534 O   0  0  0  0  0  0  0  0  0  0  0  0
    8.3851  -16.3153   26.8343 O   0  0  0  0  0  0  0  0  0  0  0  0
  2  1  1  0
  3  2  1  0
  4  3  2  0
  5  9  1  0
  5  3  1  0
  6  5  1  0
  7  6  1  0
  7  8  1  0
  8  9  1  0
  9 10  1  1
 10 11  2  0
 10 20  1  0
 13 12  1  0
 13 14  2  0
 15 13  1  0
 16 15  1  0
 16 17  1  0
 18 17  1  0
 19 18  1  6
 20 19  1  0
 21 19  1  0
 21 23  1  0
 22 21  2  0
M  END
$$$$
