VGK.pdb
     RDKit          3D

 21 20  0  0  1  0  0  0  0  0999 V2000
    9.3286  -12.2490   19.6428 C   0  0  0  0  0  0  0  0  0  0  0  0
    8.4746  -12.8495   18.5594 C   0  0  2  0  0  0  0  0  0  0  0  0
    7.0048  -12.8040   18.8994 C   0  0  0  0  0  0  0  0  0  0  0  0
    8.9559  -14.2912   18.3612 C   0  0  2  0  0  0  0  0  0  0  0  0
    8.5344  -15.0194   19.5392 N   0  0  0  0  0  0  0  0  0  0  0  0
   10.4361  -14.2439   18.2760 C   0  0  0  0  0  0  0  0  0  0  0  0
   11.0343  -13.8219   17.2677 O   0  0  0  0  0  0  0  0  0  0  0  0
   11.2018  -14.6970   19.3865 N   0  0  0  0  0  0  0  0  0  0  0  0
   12.5944  -14.3658   19.5499 C   0  0  0  0  0  0  0  0  0  0  0  0
   13.1141  -14.9963   20.7825 C   0  0  0  0  0  0  0  0  0  0  0  0
   14.2891  -14.7682   21.1339 O   0  0  0  0  0  0  0  0  0  0  0  0
   12.3322  -15.8507   21.5838 N   0  0  0  0  0  0  0  0  0  0  0  0
   12.9009  -16.3477   22.8164 C   0  0  1  0  0  0  0  0  0  0  0  0
   11.7096  -16.7692   23.6589 C   0  0  0  0  0  0  0  0  0  0  0  0
   10.6378  -15.7486   23.7761 C   0  0  0  0  0  0  0  0  0  0  0  0
    9.4389  -16.1228   24.5682 C   0  0  0  0  0  0  0  0  0  0  0  0
    8.3825  -15.0623   24.5356 C   0  0  0  0  0  0  0  0  0  0  0  0
    7.1854  -15.3613   25.2472 N   0  0  0  0  0  0  0  0  0  0  0  0
   13.7352  -17.5511   22.5622 C   0  0  0  0  0  0  0  0  0  0  0  0
   14.3226  -18.1344   23.5005 O   0  0  0  0  0  0  0  0  0  0  0  0
   13.8809  -18.0539   21.2804 O   0  0  0  0  0  0  0  0  0  0  0  0
  2  4  1  0
  2  1  1  1
  3  2  1  0
  4  6  1  0
  4  5  1  1
  6  7  2  0
  8  6  1  0
  8  9  1  0
  9 10  1  0
 10 12  1  0
 10 11  2  0
 12 13  1  0
 13 19  1  0
 13 14  1  1
 14 15  1  0
 15 16  1  0
 16 17  1  0
 17 18  1  0
 19 21  1  0
 20 19  2  0
M  END
$$$$
