VGK.pdb
     RDKit          3D

 21 20  0  0  1  0  0  0  0  0999 V2000
    7.7428  -13.0037   21.9877 C   0  0  0  0  0  0  0  0  0  0  0  0
    8.3896  -13.4111   20.6918 C   0  0  2  0  0  0  0  0  0  0  0  0
    8.0132  -12.4952   19.5527 C   0  0  0  0  0  0  0  0  0  0  0  0
    7.9555  -14.8544   20.4125 C   0  0  2  0  0  0  0  0  0  0  0  0
    6.5374  -14.7977   20.1272 N   0  0  0  0  0  0  0  0  0  0  0  0
    8.2103  -15.6289   21.6516 C   0  0  0  0  0  0  0  0  0  0  0  0
    7.3772  -15.7056   22.5750 O   0  0  0  0  0  0  0  0  0  0  0  0
    9.4519  -16.3099   21.7916 N   0  0  0  0  0  0  0  0  0  0  0  0
    9.7757  -17.0917   22.9576 C   0  0  0  0  0  0  0  0  0  0  0  0
   10.0551  -16.1921   24.0976 C   0  0  0  0  0  0  0  0  0  0  0  0
   11.0370  -15.4249   24.0409 O   0  0  0  0  0  0  0  0  0  0  0  0
    9.2527  -16.1643   25.2547 N   0  0  0  0  0  0  0  0  0  0  0  0
    9.7989  -15.5726   26.4554 C   0  0  1  0  0  0  0  0  0  0  0  0
    8.6694  -14.7372   27.0326 C   0  0  0  0  0  0  0  0  0  0  0  0
    8.0854  -13.7464   26.0937 C   0  0  0  0  0  0  0  0  0  0  0  0
    6.9775  -12.9040   26.6112 C   0  0  0  0  0  0  0  0  0  0  0  0
    6.4577  -11.9520   25.5790 C   0  0  0  0  0  0  0  0  0  0  0  0
    5.3085  -11.1997   25.9562 N   0  0  0  0  0  0  0  0  0  0  0  0
   10.1486  -16.6235   27.4465 C   0  0  0  0  0  0  0  0  0  0  0  0
    9.7525  -17.8013   27.2993 O   0  0  0  0  0  0  0  0  0  0  0  0
   10.9210  -16.3222   28.5554 O   0  0  0  0  0  0  0  0  0  0  0  0
  2  4  1  0
  2  1  1  1
  3  2  1  0
  4  6  1  0
  4  5  1  1
  6  7  2  0
  8  6  1  0
  8  9  1  0
  9 10  1  0
 10 12  1  0
 10 11  2  0
 12 13  1  0
 13 19  1  0
 13 14  1  1
 14 15  1  0
 15 16  1  0
 16 17  1  0
 17 18  1  0
 19 21  1  0
 20 19  2  0
M  END
$$$$
