VGK.pdb
     RDKit          3D

 21 20  0  0  1  0  0  0  0  0999 V2000
    8.3496  -16.0851   18.7879 C   0  0  0  0  0  0  0  0  0  0  0  0
    8.7946  -17.2816   19.5843 C   0  0  2  0  0  0  0  0  0  0  0  0
    8.7378  -18.5570   18.7793 C   0  0  0  0  0  0  0  0  0  0  0  0
    7.8854  -17.3595   20.8158 C   0  0  2  0  0  0  0  0  0  0  0  0
    6.5349  -17.4821   20.3092 N   0  0  0  0  0  0  0  0  0  0  0  0
    8.0534  -16.0857   21.5573 C   0  0  0  0  0  0  0  0  0  0  0  0
    9.1230  -15.7731   22.1148 O   0  0  0  0  0  0  0  0  0  0  0  0
    6.9528  -15.1872   21.6351 N   0  0  0  0  0  0  0  0  0  0  0  0
    7.0719  -13.8690   22.2040 C   0  0  0  0  0  0  0  0  0  0  0  0
    6.8037  -13.9285   23.6571 C   0  0  0  0  0  0  0  0  0  0  0  0
    5.7072  -14.3697   24.0560 O   0  0  0  0  0  0  0  0  0  0  0  0
    7.7416  -13.5045   24.6183 N   0  0  0  0  0  0  0  0  0  0  0  0
    7.3590  -13.5358   26.0121 C   0  0  1  0  0  0  0  0  0  0  0  0
    8.4343  -14.3604   26.6981 C   0  0  0  0  0  0  0  0  0  0  0  0
    8.3544  -15.8213   26.4454 C   0  0  0  0  0  0  0  0  0  0  0  0
    9.3656  -16.6747   27.1192 C   0  0  0  0  0  0  0  0  0  0  0  0
    9.2677  -18.1092   26.7013 C   0  0  0  0  0  0  0  0  0  0  0  0
   10.2385  -18.9846   27.2671 N   0  0  0  0  0  0  0  0  0  0  0  0
    7.3842  -12.1687   26.5944 C   0  0  0  0  0  0  0  0  0  0  0  0
    8.1069  -11.2744   26.1007 O   0  0  0  0  0  0  0  0  0  0  0  0
    6.6080  -11.8541   27.6969 O   0  0  0  0  0  0  0  0  0  0  0  0
  2  4  1  0
  2  1  1  6
  3  2  1  0
  4  6  1  0
  4  5  1  6
  6  7  2  0
  8  6  1  0
  8  9  1  0
  9 10  1  0
 10 12  1  0
 10 11  2  0
 12 13  1  0
 13 19  1  0
 13 14  1  1
 14 15  1  0
 15 16  1  0
 16 17  1  0
 17 18  1  0
 19 21  1  0
 20 19  2  0
M  END
$$$$
