VGK.pdb
     RDKit          3D

 21 20  0  0  1  0  0  0  0  0999 V2000
    8.2698  -12.6147   18.1797 C   0  0  0  0  0  0  0  0  0  0  0  0
    8.1048  -13.2669   19.5255 C   0  0  2  0  0  0  0  0  0  0  0  0
    9.0113  -12.6610   20.5691 C   0  0  0  0  0  0  0  0  0  0  0  0
    8.3950  -14.7599   19.3349 C   0  0  2  0  0  0  0  0  0  0  0  0
    7.5113  -15.2078   18.2794 N   0  0  0  0  0  0  0  0  0  0  0  0
    8.0637  -15.4306   20.6158 C   0  0  0  0  0  0  0  0  0  0  0  0
    6.9085  -15.4467   21.0825 O   0  0  0  0  0  0  0  0  0  0  0  0
    9.1032  -16.0800   21.3387 N   0  0  0  0  0  0  0  0  0  0  0  0
    8.8521  -16.8351   22.5398 C   0  0  0  0  0  0  0  0  0  0  0  0
    9.3146  -16.0669   23.7158 C   0  0  0  0  0  0  0  0  0  0  0  0
   10.3148  -15.3295   23.6060 O   0  0  0  0  0  0  0  0  0  0  0  0
    8.6685  -16.1330   24.9654 N   0  0  0  0  0  0  0  0  0  0  0  0
    9.2907  -15.4811   26.0959 C   0  0  1  0  0  0  0  0  0  0  0  0
    8.1460  -14.8384   26.8599 C   0  0  0  0  0  0  0  0  0  0  0  0
    7.6334  -13.5769   26.2681 C   0  0  0  0  0  0  0  0  0  0  0  0
    6.5108  -12.9116   26.9763 C   0  0  0  0  0  0  0  0  0  0  0  0
    6.0521  -11.6708   26.2749 C   0  0  0  0  0  0  0  0  0  0  0  0
    4.9197  -11.0218   26.8455 N   0  0  0  0  0  0  0  0  0  0  0  0
    9.9373  -16.4792   26.9871 C   0  0  0  0  0  0  0  0  0  0  0  0
    9.6601  -17.6960   26.8953 O   0  0  0  0  0  0  0  0  0  0  0  0
   10.8616  -16.0845   27.9395 O   0  0  0  0  0  0  0  0  0  0  0  0
  2  4  1  0
  2  1  1  6
  3  2  1  0
  4  6  1  0
  4  5  1  6
  6  7  2  0
  8  6  1  0
  8  9  1  0
  9 10  1  0
 10 12  1  0
 10 11  2  0
 12 13  1  0
 13 19  1  0
 13 14  1  1
 14 15  1  0
 15 16  1  0
 16 17  1  0
 17 18  1  0
 19 21  1  0
 20 19  2  0
M  END
$$$$
