VGK.pdb
     RDKit          3D

 21 20  0  0  1  0  0  0  0  0999 V2000
    8.0907  -12.5768   18.1509 C   0  0  0  0  0  0  0  0  0  0  0  0
    7.8254  -13.4168   19.3707 C   0  0  2  0  0  0  0  0  0  0  0  0
    8.2058  -12.7070   20.6471 C   0  0  0  0  0  0  0  0  0  0  0  0
    8.6205  -14.7158   19.1977 C   0  0  2  0  0  0  0  0  0  0  0  0
    8.1628  -15.3028   17.9560 N   0  0  0  0  0  0  0  0  0  0  0  0
    8.2774  -15.5879   20.3475 C   0  0  0  0  0  0  0  0  0  0  0  0
    7.1224  -16.0128   20.5427 O   0  0  0  0  0  0  0  0  0  0  0  0
    9.3048  -15.9531   21.2617 N   0  0  0  0  0  0  0  0  0  0  0  0
    9.0447  -16.7396   22.4405 C   0  0  0  0  0  0  0  0  0  0  0  0
    9.3767  -15.9516   23.6471 C   0  0  0  0  0  0  0  0  0  0  0  0
   10.2402  -15.0548   23.5697 O   0  0  0  0  0  0  0  0  0  0  0  0
    8.7541  -16.1726   24.8909 N   0  0  0  0  0  0  0  0  0  0  0  0
    9.2353  -15.4392   26.0401 C   0  0  1  0  0  0  0  0  0  0  0  0
    7.9963  -14.8120   26.6551 C   0  0  0  0  0  0  0  0  0  0  0  0
    7.7385  -13.4093   26.2424 C   0  0  0  0  0  0  0  0  0  0  0  0
    6.5531  -12.7421   26.8377 C   0  0  0  0  0  0  0  0  0  0  0  0
    6.3491  -11.3597   26.2997 C   0  0  0  0  0  0  0  0  0  0  0  0
    5.1725  -10.6915   26.7447 N   0  0  0  0  0  0  0  0  0  0  0  0
    9.8302  -16.3627   27.0410 C   0  0  0  0  0  0  0  0  0  0  0  0
    9.5813  -17.5887   27.0102 O   0  0  0  0  0  0  0  0  0  0  0  0
   10.6736  -15.8867   28.0304 O   0  0  0  0  0  0  0  0  0  0  0  0
  2  4  1  0
  2  1  1  6
  3  2  1  0
  4  6  1  0
  4  5  1  6
  6  7  2  0
  8  6  1  0
  8  9  1  0
  9 10  1  0
 10 12  1  0
 10 11  2  0
 12 13  1  0
 13 19  1  0
 13 14  1  1
 14 15  1  0
 15 16  1  0
 16 17  1  0
 17 18  1  0
 19 21  1  0
 20 19  2  0
M  END
$$$$
