VGK.pdb
     RDKit          3D

 21 20  0  0  1  0  0  0  0  0999 V2000
    9.2027  -12.6740   20.1418 C   0  0  0  0  0  0  0  0  0  0  0  0
    8.1352  -13.2475   19.2499 C   0  0  2  0  0  0  0  0  0  0  0  0
    6.8002  -12.5724   19.4498 C   0  0  0  0  0  0  0  0  0  0  0  0
    8.0535  -14.7461   19.5610 C   0  0  2  0  0  0  0  0  0  0  0  0
    7.5506  -14.8471   20.9147 N   0  0  0  0  0  0  0  0  0  0  0  0
    9.4344  -15.2808   19.4736 C   0  0  0  0  0  0  0  0  0  0  0  0
   10.0254  -15.4309   18.3870 O   0  0  0  0  0  0  0  0  0  0  0  0
   10.1098  -15.6354   20.6749 N   0  0  0  0  0  0  0  0  0  0  0  0
   11.4878  -16.0556   20.6898 C   0  0  0  0  0  0  0  0  0  0  0  0
   11.9089  -16.3296   22.0807 C   0  0  0  0  0  0  0  0  0  0  0  0
   13.0677  -16.7381   22.2964 O   0  0  0  0  0  0  0  0  0  0  0  0
   11.0501  -16.1475   23.1819 N   0  0  0  0  0  0  0  0  0  0  0  0
   11.6023  -16.2730   24.5120 C   0  0  1  0  0  0  0  0  0  0  0  0
   10.6602  -15.4858   25.4062 C   0  0  0  0  0  0  0  0  0  0  0  0
   11.0200  -15.4905   26.8466 C   0  0  0  0  0  0  0  0  0  0  0  0
   10.0919  -14.7926   27.7720 C   0  0  0  0  0  0  0  0  0  0  0  0
   10.5645  -14.8381   29.1921 C   0  0  0  0  0  0  0  0  0  0  0  0
    9.6758  -14.2822   30.1565 N   0  0  0  0  0  0  0  0  0  0  0  0
   11.5835  -17.6910   24.9568 C   0  0  0  0  0  0  0  0  0  0  0  0
   10.7593  -18.5023   24.4789 O   0  0  0  0  0  0  0  0  0  0  0  0
   12.4782  -18.1459   25.9104 O   0  0  0  0  0  0  0  0  0  0  0  0
  2  4  1  0
  2  1  1  1
  3  2  1  0
  4  6  1  0
  4  5  1  1
  6  7  2  0
  8  6  1  0
  8  9  1  0
  9 10  1  0
 10 12  1  0
 10 11  2  0
 12 13  1  0
 13 19  1  0
 13 14  1  1
 14 15  1  0
 15 16  1  0
 16 17  1  0
 17 18  1  0
 19 21  1  0
 20 19  2  0
M  END
$$$$
