VGK.pdb
     RDKit          3D

 21 20  0  0  1  0  0  0  0  0999 V2000
    7.9275  -12.9613   20.7966 C   0  0  0  0  0  0  0  0  0  0  0  0
    8.6863  -13.4010   19.5740 C   0  0  2  0  0  0  0  0  0  0  0  0
    8.3646  -12.5541   18.3668 C   0  0  0  0  0  0  0  0  0  0  0  0
    8.3287  -14.8719   19.3336 C   0  0  2  0  0  0  0  0  0  0  0  0
    7.0570  -14.8668   18.6419 N   0  0  0  0  0  0  0  0  0  0  0  0
    8.1972  -15.5075   20.6675 C   0  0  0  0  0  0  0  0  0  0  0  0
    7.1900  -15.3536   21.3847 O   0  0  0  0  0  0  0  0  0  0  0  0
    9.2604  -16.3231   21.1462 N   0  0  0  0  0  0  0  0  0  0  0  0
    9.1871  -17.0281   22.4006 C   0  0  0  0  0  0  0  0  0  0  0  0
    9.6784  -16.1570   23.4899 C   0  0  0  0  0  0  0  0  0  0  0  0
   10.6501  -15.4045   23.2761 O   0  0  0  0  0  0  0  0  0  0  0  0
    9.0910  -16.1405   24.7698 N   0  0  0  0  0  0  0  0  0  0  0  0
    9.7436  -15.3852   25.8156 C   0  0  1  0  0  0  0  0  0  0  0  0
    9.1122  -14.0051   25.7583 C   0  0  0  0  0  0  0  0  0  0  0  0
    7.7495  -13.9193   26.3415 C   0  0  0  0  0  0  0  0  0  0  0  0
    7.0860  -12.5915   26.3032 C   0  0  0  0  0  0  0  0  0  0  0  0
    5.6616  -12.6546   26.7604 C   0  0  0  0  0  0  0  0  0  0  0  0
    5.0240  -11.3981   26.9690 N   0  0  0  0  0  0  0  0  0  0  0  0
    9.4494  -15.9722   27.1489 C   0  0  0  0  0  0  0  0  0  0  0  0
    9.9522  -15.4886   28.1878 O   0  0  0  0  0  0  0  0  0  0  0  0
    8.6120  -17.0680   27.2712 O   0  0  0  0  0  0  0  0  0  0  0  0
  2  4  1  0
  2  1  1  1
  3  2  1  0
  4  6  1  0
  4  5  1  1
  6  7  2  0
  8  6  1  0
  8  9  1  0
  9 10  1  0
 10 12  1  0
 10 11  2  0
 12 13  1  0
 13 19  1  0
 13 14  1  1
 14 15  1  0
 15 16  1  0
 16 17  1  0
 17 18  1  0
 19 21  1  0
 20 19  2  0
M  END
$$$$
