VGK.pdb
     RDKit          3D

 21 20  0  0  1  0  0  0  0  0999 V2000
    2.4758  -21.3131   20.1661 C   0  0  0  0  0  0  0  0  0  0  0  0
    1.9196  -20.0767   19.5135 C   0  0  2  0  0  0  0  0  0  0  0  0
    1.7812  -20.2327   18.0187 C   0  0  0  0  0  0  0  0  0  0  0  0
    2.8648  -18.9232   19.8679 C   0  0  2  0  0  0  0  0  0  0  0  0
    4.1080  -19.1984   19.1791 N   0  0  0  0  0  0  0  0  0  0  0  0
    3.0603  -18.9617   21.3378 C   0  0  0  0  0  0  0  0  0  0  0  0
    2.1638  -18.6372   22.1399 O   0  0  0  0  0  0  0  0  0  0  0  0
    4.3181  -19.3849   21.8514 N   0  0  0  0  0  0  0  0  0  0  0  0
    4.5695  -19.5168   23.2639 C   0  0  0  0  0  0  0  0  0  0  0  0
    5.8007  -18.7793   23.6207 C   0  0  0  0  0  0  0  0  0  0  0  0
    6.4757  -18.2482   22.7161 O   0  0  0  0  0  0  0  0  0  0  0  0
    6.2476  -18.6499   24.9500 N   0  0  0  0  0  0  0  0  0  0  0  0
    7.4697  -17.9177   25.1958 C   0  0  1  0  0  0  0  0  0  0  0  0
    7.6026  -17.8682   26.7080 C   0  0  0  0  0  0  0  0  0  0  0  0
    8.8830  -17.3018   27.2021 C   0  0  0  0  0  0  0  0  0  0  0  0
    9.0686  -17.2477   28.6743 C   0  0  0  0  0  0  0  0  0  0  0  0
   10.4128  -16.7112   29.0582 C   0  0  0  0  0  0  0  0  0  0  0  0
   10.7062  -16.7210   30.4520 N   0  0  0  0  0  0  0  0  0  0  0  0
    8.6411  -18.6541   24.6535 C   0  0  0  0  0  0  0  0  0  0  0  0
    9.6564  -18.0405   24.2553 O   0  0  0  0  0  0  0  0  0  0  0  0
    8.6351  -20.0365   24.5769 O   0  0  0  0  0  0  0  0  0  0  0  0
  2  4  1  0
  2  1  1  6
  3  2  1  0
  4  6  1  0
  4  5  1  6
  6  7  2  0
  8  6  1  0
  8  9  1  0
  9 10  1  0
 10 12  1  0
 10 11  2  0
 12 13  1  0
 13 19  1  0
 13 14  1  1
 14 15  1  0
 15 16  1  0
 16 17  1  0
 17 18  1  0
 19 21  1  0
 20 19  2  0
M  END
$$$$
