VGK.pdb
     RDKit          3D

 21 20  0  0  1  0  0  0  0  0999 V2000
    8.3666  -12.1136   19.3622 C   0  0  0  0  0  0  0  0  0  0  0  0
    7.9881  -13.4395   18.7599 C   0  0  2  0  0  0  0  0  0  0  0  0
    6.5251  -13.7571   18.9513 C   0  0  0  0  0  0  0  0  0  0  0  0
    8.8787  -14.4982   19.4198 C   0  0  2  0  0  0  0  0  0  0  0  0
    8.4971  -15.7649   18.8320 N   0  0  0  0  0  0  0  0  0  0  0  0
    8.5691  -14.4791   20.8704 C   0  0  0  0  0  0  0  0  0  0  0  0
    8.9938  -13.5896   21.6326 O   0  0  0  0  0  0  0  0  0  0  0  0
    7.7571  -15.5145   21.4120 N   0  0  0  0  0  0  0  0  0  0  0  0
    7.3448  -15.5292   22.7924 C   0  0  0  0  0  0  0  0  0  0  0  0
    8.5342  -15.6305   23.6654 C   0  0  0  0  0  0  0  0  0  0  0  0
    9.6339  -15.9370   23.1626 O   0  0  0  0  0  0  0  0  0  0  0  0
    8.4778  -15.3937   25.0526 N   0  0  0  0  0  0  0  0  0  0  0  0
    9.6702  -15.6218   25.8376 C   0  0  1  0  0  0  0  0  0  0  0  0
    9.4663  -14.8154   27.1083 C   0  0  0  0  0  0  0  0  0  0  0  0
   10.5677  -14.9241   28.0980 C   0  0  0  0  0  0  0  0  0  0  0  0
   10.2104  -14.7183   29.5244 C   0  0  0  0  0  0  0  0  0  0  0  0
   11.4049  -14.7844   30.4248 C   0  0  0  0  0  0  0  0  0  0  0  0
   11.1698  -14.4461   31.7882 N   0  0  0  0  0  0  0  0  0  0  0  0
    9.7848  -17.0550   26.2139 C   0  0  0  0  0  0  0  0  0  0  0  0
    8.7637  -17.7626   26.3636 O   0  0  0  0  0  0  0  0  0  0  0  0
   11.0250  -17.6393   26.4075 O   0  0  0  0  0  0  0  0  0  0  0  0
  2  4  1  0
  2  1  1  1
  3  2  1  0
  4  6  1  0
  4  5  1  6
  6  7  2  0
  8  6  1  0
  8  9  1  0
  9 10  1  0
 10 12  1  0
 10 11  2  0
 12 13  1  0
 13 19  1  0
 13 14  1  1
 14 15  1  0
 15 16  1  0
 16 17  1  0
 17 18  1  0
 19 21  1  0
 20 19  2  0
M  END
$$$$
