VGK.pdb
     RDKit          3D

 21 20  0  0  1  0  0  0  0  0999 V2000
    9.2603  -14.4877   21.1939 C   0  0  0  0  0  0  0  0  0  0  0  0
    8.0543  -14.2073   20.3390 C   0  0  2  0  0  0  0  0  0  0  0  0
    7.9376  -12.7467   19.9770 C   0  0  0  0  0  0  0  0  0  0  0  0
    6.8295  -14.6852   21.1271 C   0  0  2  0  0  0  0  0  0  0  0  0
    6.8861  -14.0068   22.4047 N   0  0  0  0  0  0  0  0  0  0  0  0
    6.9759  -16.1506   21.3049 C   0  0  0  0  0  0  0  0  0  0  0  0
    6.9372  -16.9470   20.3475 O   0  0  0  0  0  0  0  0  0  0  0  0
    7.1675  -16.6664   22.6172 N   0  0  0  0  0  0  0  0  0  0  0  0
    7.1809  -18.0799   22.8960 C   0  0  0  0  0  0  0  0  0  0  0  0
    8.5594  -18.5109   23.2137 C   0  0  0  0  0  0  0  0  0  0  0  0
    8.7673  -19.6988   23.5326 O   0  0  0  0  0  0  0  0  0  0  0  0
    9.6572  -17.6297   23.1712 N   0  0  0  0  0  0  0  0  0  0  0  0
   10.9866  -18.1811   23.3085 C   0  0  1  0  0  0  0  0  0  0  0  0
   11.7646  -17.6348   22.1241 C   0  0  0  0  0  0  0  0  0  0  0  0
   11.4082  -18.2362   20.8143 C   0  0  0  0  0  0  0  0  0  0  0  0
   12.1150  -17.7091   19.6196 C   0  0  0  0  0  0  0  0  0  0  0  0
   11.5552  -18.2535   18.3420 C   0  0  0  0  0  0  0  0  0  0  0  0
   12.0727  -17.6776   17.1465 N   0  0  0  0  0  0  0  0  0  0  0  0
   11.6335  -17.6883   24.5525 C   0  0  0  0  0  0  0  0  0  0  0  0
   11.0945  -16.7972   25.2462 O   0  0  0  0  0  0  0  0  0  0  0  0
   12.8478  -18.2048   24.9716 O   0  0  0  0  0  0  0  0  0  0  0  0
  2  4  1  0
  2  1  1  1
  3  2  1  0
  4  6  1  0
  4  5  1  1
  6  7  2  0
  8  6  1  0
  8  9  1  0
  9 10  1  0
 10 12  1  0
 10 11  2  0
 12 13  1  0
 13 19  1  0
 13 14  1  6
 14 15  1  0
 15 16  1  0
 16 17  1  0
 17 18  1  0
 19 21  1  0
 20 19  2  0
M  END
$$$$
