EQK.pdb
     RDKit          3D

 28 27  0  0  1  0  0  0  0  0999 V2000
   21.6170   -9.5205  -19.1267 N   0  0  0  0  0  0  0  0  0  0  0  0
   21.3307  -10.4278  -18.0272 C   0  0  1  0  0  0  0  0  0  0  0  0
   22.5903  -11.1615  -17.7062 C   0  0  0  0  0  0  0  0  0  0  0  0
   22.9818  -12.0788  -18.8280 C   0  0  0  0  0  0  0  0  0  0  0  0
   22.3368  -13.3935  -18.7827 C   0  0  0  0  0  0  0  0  0  0  0  0
   21.8000  -13.8919  -17.7645 O   0  0  0  0  0  0  0  0  0  0  0  0
   20.8390   -9.6581  -16.8322 C   0  0  0  0  0  0  0  0  0  0  0  0
   20.5429  -10.2978  -15.8161 O   0  0  0  0  0  0  0  0  0  0  0  0
   22.2842  -14.2007  -19.9289 O   0  0  0  0  0  0  0  0  0  0  0  0
   23.2184   -4.3894  -15.0203 N   0  0  0  0  0  0  0  0  0  0  0  0
   22.4431   -4.8949  -13.9229 C   0  0  0  0  0  0  0  0  0  0  0  0
   22.7316   -4.4297  -12.7958 O   0  0  0  0  0  0  0  0  0  0  0  0
   21.3821   -5.9031  -14.1695 C   0  0  0  0  0  0  0  0  0  0  0  0
   21.2394   -6.3361  -15.5736 C   0  0  0  0  0  0  0  0  0  0  0  0
   20.2506   -7.4581  -15.7520 C   0  0  2  0  0  0  0  0  0  0  0  0
   20.7343   -8.2664  -16.9075 N   0  0  0  0  0  0  0  0  0  0  0  0
   18.9067   -6.9320  -16.0905 C   0  0  0  0  0  0  0  0  0  0  0  0
   18.6855   -6.4815  -17.2765 O   0  0  0  0  0  0  0  0  0  0  0  0
   17.8104   -6.8762  -15.2254 N   0  0  0  0  0  0  0  0  0  0  0  0
   16.5232   -6.2959  -15.6283 C   0  0  1  0  0  0  0  0  0  0  0  0
   15.4305   -7.3246  -15.3774 C   0  0  0  0  0  0  0  0  0  0  0  0
   14.1129   -6.7805  -15.7748 C   0  0  0  0  0  0  0  0  0  0  0  0
   12.9556   -7.7454  -15.6251 C   0  0  0  0  0  0  0  0  0  0  0  0
   11.6427   -7.2435  -16.0949 C   0  0  0  0  0  0  0  0  0  0  0  0
   10.5589   -8.1753  -16.0758 N   0  0  0  0  0  0  0  0  0  0  0  0
   16.2903   -5.0157  -14.9749 C   0  0  0  0  0  0  0  0  0  0  0  0
   15.6607   -3.9687  -15.6778 O   0  0  0  0  0  0  0  0  0  0  0  0
   16.6052   -4.7374  -13.8026 O   0  0  0  0  0  0  0  0  0  0  0  0
  2  3  1  0
  2  1  1  6
  2  7  1  0
  3  4  1  0
  4  5  1  0
  5  6  2  0
  7 16  1  0
  8  7  2  0
  9  5  1  0
 11 10  1  0
 12 11  2  0
 13 11  1  0
 14 13  1  0
 15 14  1  6
 16 15  1  0
 17 19  1  0
 17 15  1  0
 18 17  2  0
 20 19  1  0
 20 26  1  0
 21 22  1  0
 20 21  1  1
 22 23  1  0
 24 23  1  0
 24 25  1  0
 26 27  1  0
 28 26  2  0
M  END
$$$$
