EQK.pdb
     RDKit          3D

 28 27  0  0  1  0  0  0  0  0999 V2000
   24.0179  -12.0766  -16.7500 N   0  0  0  0  0  0  0  0  0  0  0  0
   23.8299  -11.3651  -18.0040 C   0  0  1  0  0  0  0  0  0  0  0  0
   23.4303  -12.3658  -19.0367 C   0  0  0  0  0  0  0  0  0  0  0  0
   24.4633  -13.4468  -19.1694 C   0  0  0  0  0  0  0  0  0  0  0  0
   24.1067  -14.5063  -20.1164 C   0  0  0  0  0  0  0  0  0  0  0  0
   23.0198  -14.5728  -20.7391 O   0  0  0  0  0  0  0  0  0  0  0  0
   22.7742  -10.3052  -17.8475 C   0  0  0  0  0  0  0  0  0  0  0  0
   22.5271   -9.5885  -18.8245 O   0  0  0  0  0  0  0  0  0  0  0  0
   25.0037  -15.5502  -20.3880 O   0  0  0  0  0  0  0  0  0  0  0  0
   18.3124  -10.4880  -13.3656 N   0  0  0  0  0  0  0  0  0  0  0  0
   18.1173   -9.1984  -13.9653 C   0  0  0  0  0  0  0  0  0  0  0  0
   17.1400   -8.5429  -13.5349 O   0  0  0  0  0  0  0  0  0  0  0  0
   19.0457   -8.7264  -15.0229 C   0  0  0  0  0  0  0  0  0  0  0  0
   20.1220   -9.6706  -15.3827 C   0  0  0  0  0  0  0  0  0  0  0  0
   21.0760   -9.1206  -16.4103 C   0  0  2  0  0  0  0  0  0  0  0  0
   22.1165  -10.1669  -16.6219 N   0  0  0  0  0  0  0  0  0  0  0  0
   21.7491   -7.8987  -15.9087 C   0  0  0  0  0  0  0  0  0  0  0  0
   22.5588   -7.9884  -14.9112 O   0  0  0  0  0  0  0  0  0  0  0  0
   21.5954   -6.6105  -16.4284 N   0  0  0  0  0  0  0  0  0  0  0  0
   22.1767   -5.4290  -15.7787 C   0  0  1  0  0  0  0  0  0  0  0  0
   21.9279   -4.2188  -16.6667 C   0  0  0  0  0  0  0  0  0  0  0  0
   23.1353   -3.3645  -16.7194 C   0  0  0  0  0  0  0  0  0  0  0  0
   23.0346   -2.1792  -17.6561 C   0  0  0  0  0  0  0  0  0  0  0  0
   24.2139   -1.2819  -17.6774 C   0  0  0  0  0  0  0  0  0  0  0  0
   24.2060   -0.2400  -18.6559 N   0  0  0  0  0  0  0  0  0  0  0  0
   21.6827   -5.2745  -14.4179 C   0  0  0  0  0  0  0  0  0  0  0  0
   22.5505   -4.8363  -13.3974 O   0  0  0  0  0  0  0  0  0  0  0  0
   20.5161   -5.5005  -14.0450 O   0  0  0  0  0  0  0  0  0  0  0  0
  2  3  1  0
  2  1  1  1
  2  7  1  0
  3  4  1  0
  4  5  1  0
  5  6  2  0
  7 16  1  0
  8  7  2  0
  9  5  1  0
 11 10  1  0
 12 11  2  0
 13 11  1  0
 14 13  1  0
 15 14  1  1
 16 15  1  0
 17 19  1  0
 17 15  1  0
 18 17  2  0
 20 19  1  0
 20 26  1  0
 21 22  1  0
 20 21  1  6
 22 23  1  0
 24 23  1  0
 24 25  1  0
 26 27  1  0
 28 26  2  0
M  END
$$$$
