EQK.pdb
     RDKit          3D

 28 27  0  0  1  0  0  0  0  0999 V2000
   27.6979  -22.0593  -16.0421 N   0  0  0  0  0  0  0  0  0  0  0  0
   27.3653  -20.9827  -15.1231 C   0  0  1  0  0  0  0  0  0  0  0  0
   27.0305  -19.7785  -15.9389 C   0  0  0  0  0  0  0  0  0  0  0  0
   28.2392  -19.2658  -16.6664 C   0  0  0  0  0  0  0  0  0  0  0  0
   27.9973  -18.0559  -17.4565 C   0  0  0  0  0  0  0  0  0  0  0  0
   27.5777  -18.0459  -18.6385 O   0  0  0  0  0  0  0  0  0  0  0  0
   26.2046  -21.3810  -14.2534 C   0  0  0  0  0  0  0  0  0  0  0  0
   25.4038  -22.2088  -14.7038 O   0  0  0  0  0  0  0  0  0  0  0  0
   28.2337  -16.7872  -16.9066 O   0  0  0  0  0  0  0  0  0  0  0  0
   25.8398  -20.0469   -8.0229 N   0  0  0  0  0  0  0  0  0  0  0  0
   26.7291  -20.9171   -8.7389 C   0  0  0  0  0  0  0  0  0  0  0  0
   27.7295  -21.3159   -8.0983 O   0  0  0  0  0  0  0  0  0  0  0  0
   26.4306  -21.2849  -10.1456 C   0  0  0  0  0  0  0  0  0  0  0  0
   25.2550  -20.6146  -10.7354 C   0  0  0  0  0  0  0  0  0  0  0  0
   24.9059  -21.1261  -12.1084 C   0  0  2  0  0  0  0  0  0  0  0  0
   26.0709  -20.8118  -12.9839 N   0  0  0  0  0  0  0  0  0  0  0  0
   23.7203  -20.4211  -12.6514 C   0  0  0  0  0  0  0  0  0  0  0  0
   23.8321  -19.1939  -13.0257 O   0  0  0  0  0  0  0  0  0  0  0  0
   22.4456  -20.9717  -12.8110 N   0  0  0  0  0  0  0  0  0  0  0  0
   21.3136  -20.1905  -13.3252 C   0  0  1  0  0  0  0  0  0  0  0  0
   21.2625  -20.3531  -14.8371 C   0  0  0  0  0  0  0  0  0  0  0  0
   20.8131  -21.7180  -15.1913 C   0  0  0  0  0  0  0  0  0  0  0  0
   20.7962  -22.0163  -16.6757 C   0  0  0  0  0  0  0  0  0  0  0  0
   20.4105  -23.3992  -17.0433 C   0  0  0  0  0  0  0  0  0  0  0  0
   20.4351  -23.7201  -18.4360 N   0  0  0  0  0  0  0  0  0  0  0  0
   20.0733  -20.5462  -12.6507 C   0  0  0  0  0  0  0  0  0  0  0  0
   20.0361  -21.6535  -11.7793 O   0  0  0  0  0  0  0  0  0  0  0  0
   18.9899  -19.9437  -12.7701 O   0  0  0  0  0  0  0  0  0  0  0  0
  2  3  1  0
  2  1  1  6
  2  7  1  0
  3  4  1  0
  4  5  1  0
  5  6  2  0
  7 16  1  0
  8  7  2  0
  9  5  1  0
 11 10  1  0
 12 11  2  0
 13 11  1  0
 14 13  1  0
 15 14  1  1
 16 15  1  0
 17 19  1  0
 17 15  1  0
 18 17  2  0
 20 19  1  0
 20 26  1  0
 21 22  1  0
 20 21  1  6
 22 23  1  0
 24 23  1  0
 24 25  1  0
 26 27  1  0
 28 26  2  0
M  END
$$$$
