EQK.pdb
     RDKit          3D

 28 27  0  0  1  0  0  0  0  0999 V2000
   18.5231  -10.0548  -14.5705 N   0  0  0  0  0  0  0  0  0  0  0  0
   18.5510   -9.6409  -13.1770 C   0  0  1  0  0  0  0  0  0  0  0  0
   19.7094   -8.7159  -13.0027 C   0  0  0  0  0  0  0  0  0  0  0  0
   20.1650   -8.1662  -14.3230 C   0  0  0  0  0  0  0  0  0  0  0  0
   21.3256   -7.2762  -14.2356 C   0  0  0  0  0  0  0  0  0  0  0  0
   22.4044   -7.4453  -14.8528 O   0  0  0  0  0  0  0  0  0  0  0  0
   17.2610   -8.9598  -12.8106 C   0  0  0  0  0  0  0  0  0  0  0  0
   16.6435   -8.3733  -13.7073 O   0  0  0  0  0  0  0  0  0  0  0  0
   21.2888   -6.1362  -13.4189 O   0  0  0  0  0  0  0  0  0  0  0  0
   13.2675  -11.5170   -8.9661 N   0  0  0  0  0  0  0  0  0  0  0  0
   12.6860  -10.2153   -9.1338 C   0  0  0  0  0  0  0  0  0  0  0  0
   11.5510  -10.0592   -8.6264 O   0  0  0  0  0  0  0  0  0  0  0  0
   13.4291   -9.1627   -9.8708 C   0  0  0  0  0  0  0  0  0  0  0  0
   14.7896   -9.5385  -10.3032 C   0  0  0  0  0  0  0  0  0  0  0  0
   15.4789   -8.4615  -11.0992 C   0  0  2  0  0  0  0  0  0  0  0  0
   16.8086   -9.0114  -11.4891 N   0  0  0  0  0  0  0  0  0  0  0  0
   15.7067   -7.2534  -10.2709 C   0  0  0  0  0  0  0  0  0  0  0  0
   16.5634   -7.2990   -9.3104 O   0  0  0  0  0  0  0  0  0  0  0  0
   15.0685   -6.0206  -10.4328 N   0  0  0  0  0  0  0  0  0  0  0  0
   15.3650   -4.8663   -9.5751 C   0  0  1  0  0  0  0  0  0  0  0  0
   15.0928   -3.5952  -10.3658 C   0  0  0  0  0  0  0  0  0  0  0  0
   16.0478   -3.4761  -11.4901 C   0  0  0  0  0  0  0  0  0  0  0  0
   15.7959   -2.3052  -12.4164 C   0  0  0  0  0  0  0  0  0  0  0  0
   16.6605   -2.2465  -13.6188 C   0  0  0  0  0  0  0  0  0  0  0  0
   16.4094   -1.1780  -14.5343 N   0  0  0  0  0  0  0  0  0  0  0  0
   14.6425   -4.9430   -8.3134 C   0  0  0  0  0  0  0  0  0  0  0  0
   15.0124   -4.1123   -7.2365 O   0  0  0  0  0  0  0  0  0  0  0  0
   13.6852   -5.7036   -8.0764 O   0  0  0  0  0  0  0  0  0  0  0  0
  2  3  1  0
  2  1  1  6
  2  7  1  0
  3  4  1  0
  4  5  1  0
  5  6  2  0
  7 16  1  0
  8  7  2  0
  9  5  1  0
 11 10  1  0
 12 11  2  0
 13 11  1  0
 14 13  1  0
 15 14  1  1
 16 15  1  0
 17 19  1  0
 17 15  1  0
 18 17  2  0
 20 19  1  0
 20 26  1  0
 21 22  1  0
 20 21  1  6
 22 23  1  0
 24 23  1  0
 24 25  1  0
 26 27  1  0
 28 26  2  0
M  END
$$$$
