MIY.pdb
     RDKit          3D

 29 29  0  0  1  0  0  0  0  0999 V2000
   20.8167  -23.3118  -18.1604 C   0  0  0  0  0  0  0  0  0  0  0  0
   21.0589  -23.7188  -19.8974 S   0  0  0  0  0  0  0  0  0  0  0  0
   22.8398  -23.7187  -20.3437 C   0  0  0  0  0  0  0  0  0  0  0  0
   23.6772  -23.3642  -19.1529 C   0  0  0  0  0  0  0  0  0  0  0  0
   25.1250  -23.3668  -19.4948 C   0  0  2  0  0  0  0  0  0  0  0  0
   25.6196  -24.6717  -19.8902 N   0  0  0  0  0  0  0  0  0  0  0  0
   26.0014  -22.7620  -18.4474 C   0  0  0  0  0  0  0  0  0  0  0  0
   26.8836  -23.4621  -17.8514 O   0  0  0  0  0  0  0  0  0  0  0  0
   28.5537  -18.0239  -18.9339 C   0  0  0  0  0  0  0  0  0  0  0  0
   28.1028  -19.4342  -18.6201 C   0  0  0  0  0  0  0  0  0  0  0  0
   27.2684  -19.4685  -17.3454 C   0  0  2  0  0  0  0  0  0  0  0  0
   28.0258  -18.8753  -16.1809 C   0  0  0  0  0  0  0  0  0  0  0  0
   26.8010  -20.8614  -17.0293 C   0  0  2  0  0  0  0  0  0  0  0  0
   25.9288  -21.4041  -18.0395 N   0  0  0  0  0  0  0  0  0  0  0  0
   26.1076  -20.8601  -15.7149 C   0  0  0  0  0  0  0  0  0  0  0  0
   24.9060  -20.4755  -15.6989 O   0  0  0  0  0  0  0  0  0  0  0  0
   24.5411  -20.4710   -7.0198 O   0  0  0  0  0  0  0  0  0  0  0  0
   25.1358  -20.6747   -8.2460 C   0  0  0  0  0  0  0  0  0  0  0  0
   25.9048  -19.7183   -8.8759 C   0  0  0  0  0  0  0  0  0  0  0  0
   26.4810  -19.9613  -10.0994 C   0  0  0  0  0  0  0  0  0  0  0  0
   26.3143  -21.1783  -10.7536 C   0  0  0  0  0  0  0  0  0  0  0  0
   26.9203  -21.4262  -12.0757 C   0  0  0  0  0  0  0  0  0  0  0  0
   25.9881  -21.1039  -13.2150 C   0  0  2  0  0  0  0  0  0  0  0  0
   26.6978  -21.2564  -14.4955 N   0  0  0  0  0  0  0  0  0  0  0  0
   25.4795  -19.7286  -13.1191 C   0  0  0  0  0  0  0  0  0  0  0  0
   26.2218  -18.7458  -13.3676 O   0  0  0  0  0  0  0  0  0  0  0  0
   25.5491  -22.1327  -10.1293 C   0  0  0  0  0  0  0  0  0  0  0  0
   24.9727  -21.8871   -8.9030 C   0  0  0  0  0  0  0  0  0  0  0  0
   24.1716  -19.4717  -12.7558 O   0  0  0  0  0  0  0  0  0  0  0  0
  1  2  1  0
  3  4  1  0
  3  2  1  0
  5  4  1  0
  5  6  1  1
  7  5  1  0
  8  7  2  0
  9 10  1  0
 10 11  1  0
 11 12  1  1
 11 13  1  0
 13 14  1  6
 14  7  1  0
 15 24  1  0
 15 13  1  0
 16 15  2  0
 18 17  1  0
 19 18  2  0
 20 19  1  0
 21 27  1  0
 21 20  2  0
 23 22  1  1
 22 21  1  0
 23 24  1  0
 23 25  1  0
 25 29  1  0
 26 25  2  0
 27 28  2  0
 28 18  1  0
M  END
$$$$
