MIY.pdb
     RDKit          3D

 29 29  0  0  1  0  0  0  0  0999 V2000
   15.1456  -14.3330  -21.3616 C   0  0  0  0  0  0  0  0  0  0  0  0
   15.5392  -13.0629  -20.1478 S   0  0  0  0  0  0  0  0  0  0  0  0
   17.1359  -13.4085  -19.3099 C   0  0  0  0  0  0  0  0  0  0  0  0
   17.4683  -12.3114  -18.3452 C   0  0  0  0  0  0  0  0  0  0  0  0
   18.7853  -12.5485  -17.6955 C   0  0  2  0  0  0  0  0  0  0  0  0
   18.9278  -13.8879  -17.1578 N   0  0  0  0  0  0  0  0  0  0  0  0
   19.1561  -11.5240  -16.6739 C   0  0  0  0  0  0  0  0  0  0  0  0
   18.4504  -11.3639  -15.6251 O   0  0  0  0  0  0  0  0  0  0  0  0
   23.8832  -10.9860  -14.3830 C   0  0  0  0  0  0  0  0  0  0  0  0
   22.4452  -11.0169  -14.8539 C   0  0  0  0  0  0  0  0  0  0  0  0
   22.0093   -9.6484  -15.3635 C   0  0  2  0  0  0  0  0  0  0  0  0
   22.2559   -8.5764  -14.3283 C   0  0  0  0  0  0  0  0  0  0  0  0
   20.5710   -9.6544  -15.7992 C   0  0  2  0  0  0  0  0  0  0  0  0
   20.2854  -10.6703  -16.7801 N   0  0  0  0  0  0  0  0  0  0  0  0
   20.2173   -8.3174  -16.3432 C   0  0  0  0  0  0  0  0  0  0  0  0
   20.7800   -7.9659  -17.4164 O   0  0  0  0  0  0  0  0  0  0  0  0
   16.2396   -8.8144  -21.4547 O   0  0  0  0  0  0  0  0  0  0  0  0
   16.5599   -8.1645  -20.2826 C   0  0  0  0  0  0  0  0  0  0  0  0
   16.6029   -8.7998  -19.0590 C   0  0  0  0  0  0  0  0  0  0  0  0
   16.9272   -8.1150  -17.9128 C   0  0  0  0  0  0  0  0  0  0  0  0
   17.2250   -6.7557  -17.9367 C   0  0  0  0  0  0  0  0  0  0  0  0
   17.5542   -6.0222  -16.6996 C   0  0  0  0  0  0  0  0  0  0  0  0
   19.0151   -6.1088  -16.3407 C   0  0  2  0  0  0  0  0  0  0  0  0
   19.3030   -7.4237  -15.7451 N   0  0  0  0  0  0  0  0  0  0  0  0
   19.3942   -5.0634  -15.3800 C   0  0  0  0  0  0  0  0  0  0  0  0
   19.8239   -5.3602  -14.2374 O   0  0  0  0  0  0  0  0  0  0  0  0
   17.1829   -6.1200  -19.1532 C   0  0  0  0  0  0  0  0  0  0  0  0
   16.8578   -6.8084  -20.3009 C   0  0  0  0  0  0  0  0  0  0  0  0
   19.2927   -3.7236  -15.7014 O   0  0  0  0  0  0  0  0  0  0  0  0
  1  2  1  0
  3  4  1  0
  3  2  1  0
  5  4  1  0
  5  6  1  1
  7  5  1  0
  8  7  2  0
  9 10  1  0
 10 11  1  0
 11 12  1  1
 11 13  1  0
 13 14  1  6
 14  7  1  0
 15 24  1  0
 15 13  1  0
 16 15  2  0
 18 17  1  0
 19 18  2  0
 20 19  1  0
 21 27  1  0
 21 20  2  0
 23 22  1  1
 22 21  1  0
 23 24  1  0
 23 25  1  0
 25 29  1  0
 26 25  2  0
 27 28  2  0
 28 18  1  0
M  END
$$$$
