MIY.pdb
     RDKit          3D

 29 29  0  0  1  0  0  0  0  0999 V2000
   31.0340  -19.1372    8.6589 C   0  0  0  0  0  0  0  0  0  0  0  0
   30.0939  -19.2324   10.1914 S   0  0  0  0  0  0  0  0  0  0  0  0
   28.8908  -20.6188   10.1545 C   0  0  0  0  0  0  0  0  0  0  0  0
   29.5933  -21.9263   10.3589 C   0  0  0  0  0  0  0  0  0  0  0  0
   28.6441  -23.0672   10.2585 C   0  0  2  0  0  0  0  0  0  0  0  0
   27.5335  -22.9741   11.1867 N   0  0  0  0  0  0  0  0  0  0  0  0
   29.2922  -24.4104   10.3392 C   0  0  0  0  0  0  0  0  0  0  0  0
   30.4324  -24.6172    9.8093 O   0  0  0  0  0  0  0  0  0  0  0  0
   31.0768  -27.4512   14.0671 C   0  0  0  0  0  0  0  0  0  0  0  0
   29.9046  -26.6905   13.4858 C   0  0  0  0  0  0  0  0  0  0  0  0
   29.2331  -27.4897   12.3755 C   0  0  2  0  0  0  0  0  0  0  0  0
   29.7641  -28.9028   12.3221 C   0  0  0  0  0  0  0  0  0  0  0  0
   29.3768  -26.8106   11.0426 C   0  0  2  0  0  0  0  0  0  0  0  0
   28.7139  -25.5325   10.9888 N   0  0  0  0  0  0  0  0  0  0  0  0
   28.8412  -27.6993    9.9786 C   0  0  0  0  0  0  0  0  0  0  0  0
   27.6422  -27.5200    9.6291 O   0  0  0  0  0  0  0  0  0  0  0  0
   26.3356  -31.3920    2.7379 O   0  0  0  0  0  0  0  0  0  0  0  0
   26.9439  -30.7278    3.7807 C   0  0  0  0  0  0  0  0  0  0  0  0
   28.2610  -30.9328    4.1355 C   0  0  0  0  0  0  0  0  0  0  0  0
   28.8303  -30.2494    5.1828 C   0  0  0  0  0  0  0  0  0  0  0  0
   28.1054  -29.3244    5.9282 C   0  0  0  0  0  0  0  0  0  0  0  0
   28.7173  -28.6077    7.0633 C   0  0  0  0  0  0  0  0  0  0  0  0
   28.9993  -29.5077    8.2385 C   0  0  2  0  0  0  0  0  0  0  0  0
   29.5772  -28.7202    9.3397 N   0  0  0  0  0  0  0  0  0  0  0  0
   29.9403  -30.5782    7.8805 C   0  0  0  0  0  0  0  0  0  0  0  0
   29.5352  -31.7449    7.6499 O   0  0  0  0  0  0  0  0  0  0  0  0
   26.7937  -29.1180    5.5778 C   0  0  0  0  0  0  0  0  0  0  0  0
   26.2251  -29.8038    4.5276 C   0  0  0  0  0  0  0  0  0  0  0  0
   31.2972  -30.3371    7.7841 O   0  0  0  0  0  0  0  0  0  0  0  0
  1  2  1  0
  3  4  1  0
  3  2  1  0
  5  4  1  0
  5  6  1  1
  7  5  1  0
  8  7  2  0
  9 10  1  0
 10 11  1  0
 11 12  1  6
 11 13  1  0
 13 14  1  1
 14  7  1  0
 15 24  1  0
 15 13  1  0
 16 15  2  0
 18 17  1  0
 19 18  2  0
 20 19  1  0
 21 27  1  0
 21 20  2  0
 23 22  1  6
 22 21  1  0
 23 24  1  0
 23 25  1  0
 25 29  1  0
 26 25  2  0
 27 28  2  0
 28 18  1  0
M  END
$$$$
