MIY.pdb
     RDKit          3D

 29 29  0  0  1  0  0  0  0  0999 V2000
   25.8055  -27.9379  -18.1162 C   0  0  0  0  0  0  0  0  0  0  0  0
   26.8304  -28.2355  -16.6662 S   0  0  0  0  0  0  0  0  0  0  0  0
   28.2574  -27.0818  -16.6060 C   0  0  0  0  0  0  0  0  0  0  0  0
   28.0737  -25.9709  -17.5944 C   0  0  0  0  0  0  0  0  0  0  0  0
   29.2332  -25.0391  -17.5764 C   0  0  2  0  0  0  0  0  0  0  0  0
   30.4833  -25.6841  -17.2233 N   0  0  0  0  0  0  0  0  0  0  0  0
   29.0181  -23.8116  -16.7531 C   0  0  0  0  0  0  0  0  0  0  0  0
   29.5333  -23.7065  -15.5925 O   0  0  0  0  0  0  0  0  0  0  0  0
   28.9404  -18.7104  -18.6553 C   0  0  0  0  0  0  0  0  0  0  0  0
   29.0730  -20.0230  -17.9136 C   0  0  0  0  0  0  0  0  0  0  0  0
   27.8535  -20.2787  -17.0363 C   0  0  2  0  0  0  0  0  0  0  0  0
   27.6247  -19.1377  -16.0732 C   0  0  0  0  0  0  0  0  0  0  0  0
   27.9651  -21.5863  -16.3040 C   0  0  2  0  0  0  0  0  0  0  0  0
   28.2479  -22.6969  -17.1770 N   0  0  0  0  0  0  0  0  0  0  0  0
   26.7044  -21.8411  -15.5594 C   0  0  0  0  0  0  0  0  0  0  0  0
   26.3832  -23.0461  -15.3677 O   0  0  0  0  0  0  0  0  0  0  0  0
   25.2820  -20.2793   -7.2750 O   0  0  0  0  0  0  0  0  0  0  0  0
   25.6182  -20.3144   -8.6108 C   0  0  0  0  0  0  0  0  0  0  0  0
   25.8278  -19.1771   -9.3628 C   0  0  0  0  0  0  0  0  0  0  0  0
   26.1619  -19.2554  -10.6932 C   0  0  0  0  0  0  0  0  0  0  0  0
   26.3028  -20.4810  -11.3373 C   0  0  0  0  0  0  0  0  0  0  0  0
   26.6436  -20.5579  -12.7708 C   0  0  0  0  0  0  0  0  0  0  0  0
   25.4419  -20.8116  -13.6438 C   0  0  2  0  0  0  0  0  0  0  0  0
   25.8512  -20.8349  -15.0575 N   0  0  0  0  0  0  0  0  0  0  0  0
   24.4205  -19.7700  -13.4663 C   0  0  0  0  0  0  0  0  0  0  0  0
   23.4794  -19.9200  -12.6475 O   0  0  0  0  0  0  0  0  0  0  0  0
   26.0947  -21.6153  -10.5917 C   0  0  0  0  0  0  0  0  0  0  0  0
   25.7600  -21.5346   -9.2583 C   0  0  0  0  0  0  0  0  0  0  0  0
   24.4626  -18.5941  -14.1901 O   0  0  0  0  0  0  0  0  0  0  0  0
  1  2  1  0
  3  4  1  0
  3  2  1  0
  5  4  1  0
  5  6  1  1
  7  5  1  0
  8  7  2  0
  9 10  1  0
 10 11  1  0
 11 12  1  1
 11 13  1  0
 13 14  1  6
 14  7  1  0
 15 24  1  0
 15 13  1  0
 16 15  2  0
 18 17  1  0
 19 18  2  0
 20 19  1  0
 21 27  1  0
 21 20  2  0
 23 22  1  1
 22 21  1  0
 23 24  1  0
 23 25  1  0
 25 29  1  0
 26 25  2  0
 27 28  2  0
 28 18  1  0
M  END
$$$$
