MIY.pdb
     RDKit          3D

 29 29  0  0  1  0  0  0  0  0999 V2000
   18.9697  -14.6273  -19.5614 C   0  0  0  0  0  0  0  0  0  0  0  0
   19.9710  -13.5142  -20.5613 S   0  0  0  0  0  0  0  0  0  0  0  0
   21.6314  -14.2233  -20.8946 C   0  0  0  0  0  0  0  0  0  0  0  0
   21.8495  -15.4545  -20.0692 C   0  0  0  0  0  0  0  0  0  0  0  0
   23.1875  -16.0482  -20.3337 C   0  0  2  0  0  0  0  0  0  0  0  0
   23.4039  -16.3783  -21.7294 N   0  0  0  0  0  0  0  0  0  0  0  0
   23.5262  -17.2078  -19.4554 C   0  0  0  0  0  0  0  0  0  0  0  0
   23.0351  -18.3618  -19.6807 O   0  0  0  0  0  0  0  0  0  0  0  0
   28.5523  -18.0361  -17.4274 C   0  0  0  0  0  0  0  0  0  0  0  0
   27.1698  -18.1430  -18.0339 C   0  0  0  0  0  0  0  0  0  0  0  0
   26.1025  -18.2129  -16.9484 C   0  0  2  0  0  0  0  0  0  0  0  0
   26.3498  -19.3732  -16.0134 C   0  0  0  0  0  0  0  0  0  0  0  0
   24.7212  -18.2811  -17.5364 C   0  0  2  0  0  0  0  0  0  0  0  0
   24.3922  -17.1269  -18.3334 N   0  0  0  0  0  0  0  0  0  0  0  0
   23.7285  -18.4347  -16.4412 C   0  0  0  0  0  0  0  0  0  0  0  0
   24.0353  -17.9548  -15.3153 O   0  0  0  0  0  0  0  0  0  0  0  0
   16.9718  -15.5068  -18.0144 O   0  0  0  0  0  0  0  0  0  0  0  0
   17.9672  -16.0740  -17.2488 C   0  0  0  0  0  0  0  0  0  0  0  0
   17.7807  -16.4540  -15.9359 C   0  0  0  0  0  0  0  0  0  0  0  0
   18.8001  -17.0167  -15.2065 C   0  0  0  0  0  0  0  0  0  0  0  0
   20.0602  -17.2268  -15.7586 C   0  0  0  0  0  0  0  0  0  0  0  0
   21.1559  -17.8143  -14.9642 C   0  0  0  0  0  0  0  0  0  0  0  0
   21.5491  -19.1893  -15.4391 C   0  0  2  0  0  0  0  0  0  0  0  0
   22.4780  -19.0755  -16.5752 N   0  0  0  0  0  0  0  0  0  0  0  0
   20.3762  -19.9652  -15.8655 C   0  0  0  0  0  0  0  0  0  0  0  0
   19.4627  -20.2553  -15.0532 O   0  0  0  0  0  0  0  0  0  0  0  0
   20.2494  -16.8494  -17.0654 C   0  0  0  0  0  0  0  0  0  0  0  0
   19.2263  -16.2858  -17.7948 C   0  0  0  0  0  0  0  0  0  0  0  0
   20.2388  -20.3980  -17.1702 O   0  0  0  0  0  0  0  0  0  0  0  0
  1  2  1  0
  3  4  1  0
  3  2  1  0
  5  4  1  0
  5  6  1  6
  7  5  1  0
  8  7  2  0
  9 10  1  0
 10 11  1  0
 11 12  1  6
 11 13  1  0
 13 14  1  1
 14  7  1  0
 15 24  1  0
 15 13  1  0
 16 15  2  0
 18 17  1  0
 19 18  2  0
 20 19  1  0
 21 27  1  0
 21 20  2  0
 23 22  1  6
 22 21  1  0
 23 24  1  0
 23 25  1  0
 25 29  1  0
 26 25  2  0
 27 28  2  0
 28 18  1  0
M  END
$$$$
