MIY.pdb
     RDKit          3D

 29 29  0  0  1  0  0  0  0  0999 V2000
   12.8297  -21.6748  -11.0423 C   0  0  0  0  0  0  0  0  0  0  0  0
   13.3645  -21.2964  -12.7192 S   0  0  0  0  0  0  0  0  0  0  0  0
   14.2601  -22.7112  -13.4724 C   0  0  0  0  0  0  0  0  0  0  0  0
   15.1407  -23.3730  -12.4567 C   0  0  0  0  0  0  0  0  0  0  0  0
   16.5722  -23.2914  -12.8528 C   0  0  2  0  0  0  0  0  0  0  0  0
   16.8748  -24.0231  -14.0679 N   0  0  0  0  0  0  0  0  0  0  0  0
   17.5291  -23.6516  -11.7640 C   0  0  0  0  0  0  0  0  0  0  0  0
   17.8506  -24.8666  -11.5541 O   0  0  0  0  0  0  0  0  0  0  0  0
   20.8732  -19.7861   -9.1042 C   0  0  0  0  0  0  0  0  0  0  0  0
   19.7241  -20.7602   -9.2507 C   0  0  0  0  0  0  0  0  0  0  0  0
   20.2190  -22.1175   -9.7357 C   0  0  2  0  0  0  0  0  0  0  0  0
   20.9962  -21.9867  -11.0243 C   0  0  0  0  0  0  0  0  0  0  0  0
   19.0878  -23.0952   -9.8869 C   0  0  2  0  0  0  0  0  0  0  0  0
   18.1398  -22.7056  -10.8994 N   0  0  0  0  0  0  0  0  0  0  0  0
   18.3939  -23.2488   -8.5817 C   0  0  0  0  0  0  0  0  0  0  0  0
   17.5100  -22.3948   -8.2962 O   0  0  0  0  0  0  0  0  0  0  0  0
   13.7591  -24.5376   -1.5305 O   0  0  0  0  0  0  0  0  0  0  0  0
   14.4294  -24.4663   -2.7323 C   0  0  0  0  0  0  0  0  0  0  0  0
   14.6011  -23.2875   -3.4278 C   0  0  0  0  0  0  0  0  0  0  0  0
   15.2765  -23.2591   -4.6240 C   0  0  0  0  0  0  0  0  0  0  0  0
   15.8144  -24.4142   -5.1836 C   0  0  0  0  0  0  0  0  0  0  0  0
   16.5223  -24.3800   -6.4777 C   0  0  0  0  0  0  0  0  0  0  0  0
   18.0183  -24.2874   -6.3226 C   0  0  2  0  0  0  0  0  0  0  0  0
   18.6553  -24.2759   -7.6495 N   0  0  0  0  0  0  0  0  0  0  0  0
   18.5492  -25.4226   -5.5550 C   0  0  0  0  0  0  0  0  0  0  0  0
   19.0260  -26.4294   -6.1359 O   0  0  0  0  0  0  0  0  0  0  0  0
   15.6451  -25.5896   -4.4940 C   0  0  0  0  0  0  0  0  0  0  0  0
   14.9680  -25.6158   -3.2951 C   0  0  0  0  0  0  0  0  0  0  0  0
   18.5435  -25.4191   -4.1736 O   0  0  0  0  0  0  0  0  0  0  0  0
  1  2  1  0
  3  4  1  0
  3  2  1  0
  5  4  1  0
  5  6  1  6
  7  5  1  0
  8  7  2  0
  9 10  1  0
 10 11  1  0
 11 12  1  6
 11 13  1  0
 13 14  1  6
 14  7  1  0
 15 24  1  0
 15 13  1  0
 16 15  2  0
 18 17  1  0
 19 18  2  0
 20 19  1  0
 21 27  1  0
 21 20  2  0
 23 22  1  6
 22 21  1  0
 23 24  1  0
 23 25  1  0
 25 29  1  0
 26 25  2  0
 27 28  2  0
 28 18  1  0
M  END
$$$$
