MIY.pdb
     RDKit          3D

 29 29  0  0  1  0  0  0  0  0999 V2000
   26.2800  -21.0567   -3.6501 C   0  0  0  0  0  0  0  0  0  0  0  0
   28.0473  -20.8406   -3.9167 S   0  0  0  0  0  0  0  0  0  0  0  0
   28.3829  -19.9063   -5.4612 C   0  0  0  0  0  0  0  0  0  0  0  0
   27.3408  -20.2113   -6.4936 C   0  0  0  0  0  0  0  0  0  0  0  0
   27.5914  -19.4541   -7.7493 C   0  0  2  0  0  0  0  0  0  0  0  0
   27.7461  -18.0275   -7.5389 N   0  0  0  0  0  0  0  0  0  0  0  0
   26.6024  -19.7265   -8.8350 C   0  0  0  0  0  0  0  0  0  0  0  0
   25.5368  -19.0350   -8.9347 O   0  0  0  0  0  0  0  0  0  0  0  0
   29.5597  -20.7616  -13.0480 C   0  0  0  0  0  0  0  0  0  0  0  0
   28.5182  -20.2289  -12.0877 C   0  0  0  0  0  0  0  0  0  0  0  0
   27.2148  -21.0090  -12.2099 C   0  0  2  0  0  0  0  0  0  0  0  0
   26.6144  -20.8567  -13.5876 C   0  0  0  0  0  0  0  0  0  0  0  0
   26.2306  -20.6087  -11.1471 C   0  0  2  0  0  0  0  0  0  0  0  0
   26.7582  -20.7434   -9.8132 N   0  0  0  0  0  0  0  0  0  0  0  0
   24.9986  -21.4284  -11.2851 C   0  0  0  0  0  0  0  0  0  0  0  0
   24.8604  -22.3974  -10.4890 O   0  0  0  0  0  0  0  0  0  0  0  0
   16.7637  -22.8640   -9.7231 O   0  0  0  0  0  0  0  0  0  0  0  0
   18.0401  -22.4178   -9.9881 C   0  0  0  0  0  0  0  0  0  0  0  0
   18.3115  -21.4104  -10.8904 C   0  0  0  0  0  0  0  0  0  0  0  0
   19.5996  -20.9943  -11.1261 C   0  0  0  0  0  0  0  0  0  0  0  0
   20.6823  -21.5693  -10.4672 C   0  0  0  0  0  0  0  0  0  0  0  0
   22.0646  -21.1308  -10.7386 C   0  0  0  0  0  0  0  0  0  0  0  0
   22.6103  -21.6853  -12.0291 C   0  0  2  0  0  0  0  0  0  0  0  0
   23.9832  -21.1973  -12.2380 N   0  0  0  0  0  0  0  0  0  0  0  0
   21.7870  -21.2811  -13.1773 C   0  0  0  0  0  0  0  0  0  0  0  0
   20.9362  -22.0632  -13.6701 O   0  0  0  0  0  0  0  0  0  0  0  0
   20.4157  -22.5728   -9.5684 C   0  0  0  0  0  0  0  0  0  0  0  0
   19.1239  -22.9882   -9.3336 C   0  0  0  0  0  0  0  0  0  0  0  0
   21.9194  -20.0307  -13.7495 O   0  0  0  0  0  0  0  0  0  0  0  0
  1  2  1  0
  3  4  1  0
  3  2  1  0
  5  4  1  0
  5  6  1  1
  7  5  1  0
  8  7  2  0
  9 10  1  0
 10 11  1  0
 11 12  1  6
 11 13  1  0
 13 14  1  1
 14  7  1  0
 15 24  1  0
 15 13  1  0
 16 15  2  0
 18 17  1  0
 19 18  2  0
 20 19  1  0
 21 27  1  0
 21 20  2  0
 23 22  1  1
 22 21  1  0
 23 24  1  0
 23 25  1  0
 25 29  1  0
 26 25  2  0
 27 28  2  0
 28 18  1  0
M  END
$$$$
