MIY.pdb
     RDKit          3D

 29 29  0  0  1  0  0  0  0  0999 V2000
   26.2969  -16.1596  -16.7543 C   0  0  0  0  0  0  0  0  0  0  0  0
   28.0286  -16.4810  -17.1274 S   0  0  0  0  0  0  0  0  0  0  0  0
   28.5771  -18.0886  -16.4306 C   0  0  0  0  0  0  0  0  0  0  0  0
   27.4140  -18.8277  -15.8425 C   0  0  0  0  0  0  0  0  0  0  0  0
   27.8617  -20.0565  -15.1337 C   0  0  2  0  0  0  0  0  0  0  0  0
   28.5947  -20.9752  -15.9836 N   0  0  0  0  0  0  0  0  0  0  0  0
   26.7742  -20.7676  -14.3970 C   0  0  0  0  0  0  0  0  0  0  0  0
   26.1346  -21.7248  -14.9432 O   0  0  0  0  0  0  0  0  0  0  0  0
   25.5348  -19.9385   -8.7793 C   0  0  0  0  0  0  0  0  0  0  0  0
   25.3532  -19.8343  -10.2782 C   0  0  0  0  0  0  0  0  0  0  0  0
   25.4388  -21.2072  -10.9341 C   0  0  2  0  0  0  0  0  0  0  0  0
   26.7294  -21.9047  -10.5742 C   0  0  0  0  0  0  0  0  0  0  0  0
   25.2737  -21.1175  -12.4252 C   0  0  2  0  0  0  0  0  0  0  0  0
   26.3732  -20.4490  -13.0730 N   0  0  0  0  0  0  0  0  0  0  0  0
   24.0032  -20.4124  -12.7368 C   0  0  0  0  0  0  0  0  0  0  0  0
   24.0791  -19.1818  -13.0048 O   0  0  0  0  0  0  0  0  0  0  0  0
   17.4858  -17.5250  -17.3879 O   0  0  0  0  0  0  0  0  0  0  0  0
   18.5389  -18.1646  -16.7711 C   0  0  0  0  0  0  0  0  0  0  0  0
   18.6443  -19.5380  -16.6973 C   0  0  0  0  0  0  0  0  0  0  0  0
   19.7115  -20.1371  -16.0728 C   0  0  0  0  0  0  0  0  0  0  0  0
   20.7285  -19.3870  -15.4899 C   0  0  0  0  0  0  0  0  0  0  0  0
   21.8623  -20.0363  -14.8045 C   0  0  0  0  0  0  0  0  0  0  0  0
   21.5680  -20.3536  -13.3612 C   0  0  2  0  0  0  0  0  0  0  0  0
   22.7300  -21.0215  -12.7526 N   0  0  0  0  0  0  0  0  0  0  0  0
   20.3983  -21.2340  -13.2333 C   0  0  0  0  0  0  0  0  0  0  0  0
   19.3098  -20.8012  -12.7790 O   0  0  0  0  0  0  0  0  0  0  0  0
   20.6267  -18.0194  -15.5614 C   0  0  0  0  0  0  0  0  0  0  0  0
   19.5563  -17.4209  -16.1879 C   0  0  0  0  0  0  0  0  0  0  0  0
   20.4562  -22.5620  -13.6094 O   0  0  0  0  0  0  0  0  0  0  0  0
  1  2  1  0
  3  4  1  0
  3  2  1  0
  5  4  1  0
  5  6  1  6
  7  5  1  0
  8  7  2  0
  9 10  1  0
 10 11  1  0
 11 12  1  6
 11 13  1  0
 13 14  1  6
 14  7  1  0
 15 24  1  0
 15 13  1  0
 16 15  2  0
 18 17  1  0
 19 18  2  0
 20 19  1  0
 21 27  1  0
 21 20  2  0
 23 22  1  6
 22 21  1  0
 23 24  1  0
 23 25  1  0
 25 29  1  0
 26 25  2  0
 27 28  2  0
 28 18  1  0
M  END
$$$$
