MIY.pdb
     RDKit          3D

 29 29  0  0  1  0  0  0  0  0999 V2000
   22.7310  -21.6254  -20.4512 C   0  0  0  0  0  0  0  0  0  0  0  0
   23.6544  -21.4544  -21.9873 S   0  0  0  0  0  0  0  0  0  0  0  0
   25.4225  -21.0768  -21.6678 C   0  0  0  0  0  0  0  0  0  0  0  0
   25.7657  -21.3531  -20.2358 C   0  0  0  0  0  0  0  0  0  0  0  0
   26.8079  -20.4133  -19.7425 C   0  0  2  0  0  0  0  0  0  0  0  0
   28.1264  -20.6818  -20.2840 N   0  0  0  0  0  0  0  0  0  0  0  0
   26.8609  -20.2851  -18.2554 C   0  0  0  0  0  0  0  0  0  0  0  0
   27.7432  -20.9070  -17.5783 O   0  0  0  0  0  0  0  0  0  0  0  0
   26.6429  -16.1146  -13.9361 C   0  0  0  0  0  0  0  0  0  0  0  0
   26.4267  -17.5802  -14.2460 C   0  0  0  0  0  0  0  0  0  0  0  0
   26.1882  -17.7926  -15.7361 C   0  0  2  0  0  0  0  0  0  0  0  0
   24.9255  -17.0997  -16.1912 C   0  0  0  0  0  0  0  0  0  0  0  0
   26.1563  -19.2535  -16.0870 C   0  0  2  0  0  0  0  0  0  0  0  0
   25.9642  -19.4891  -17.4953 N   0  0  0  0  0  0  0  0  0  0  0  0
   25.0762  -19.9204  -15.3142 C   0  0  0  0  0  0  0  0  0  0  0  0
   23.9083  -19.8594  -15.7879 O   0  0  0  0  0  0  0  0  0  0  0  0
   26.6780  -19.0637   -7.9517 O   0  0  0  0  0  0  0  0  0  0  0  0
   26.2216  -19.8118   -9.0150 C   0  0  0  0  0  0  0  0  0  0  0  0
   27.0413  -20.2413  -10.0380 C   0  0  0  0  0  0  0  0  0  0  0  0
   26.5464  -20.9862  -11.0811 C   0  0  0  0  0  0  0  0  0  0  0  0
   25.2017  -21.3381  -11.1505 C   0  0  0  0  0  0  0  0  0  0  0  0
   24.6731  -22.1223  -12.2830 C   0  0  0  0  0  0  0  0  0  0  0  0
   24.1458  -21.2560  -13.3975 C   0  0  2  0  0  0  0  0  0  0  0  0
   25.2680  -20.6105  -14.0980 N   0  0  0  0  0  0  0  0  0  0  0  0
   23.2468  -20.2121  -12.8859 C   0  0  0  0  0  0  0  0  0  0  0  0
   23.6614  -19.0432  -12.6850 O   0  0  0  0  0  0  0  0  0  0  0  0
   24.3828  -20.9119  -10.1339 C   0  0  0  0  0  0  0  0  0  0  0  0
   24.8809  -20.1656   -9.0892 C   0  0  0  0  0  0  0  0  0  0  0  0
   21.9197  -20.4803  -12.6117 O   0  0  0  0  0  0  0  0  0  0  0  0
  1  2  1  0
  3  4  1  0
  3  2  1  0
  5  4  1  0
  5  6  1  1
  7  5  1  0
  8  7  2  0
  9 10  1  0
 10 11  1  0
 11 12  1  1
 11 13  1  0
 13 14  1  6
 14  7  1  0
 15 24  1  0
 15 13  1  0
 16 15  2  0
 18 17  1  0
 19 18  2  0
 20 19  1  0
 21 27  1  0
 21 20  2  0
 23 22  1  1
 22 21  1  0
 23 24  1  0
 23 25  1  0
 25 29  1  0
 26 25  2  0
 27 28  2  0
 28 18  1  0
M  END
$$$$
