MIY.pdb
     RDKit          3D

 29 29  0  0  1  0  0  0  0  0999 V2000
   20.3347  -17.7634  -17.1205 C   0  0  0  0  0  0  0  0  0  0  0  0
   21.2018  -16.3124  -17.7401 S   0  0  0  0  0  0  0  0  0  0  0  0
   22.9949  -16.6439  -17.9545 C   0  0  0  0  0  0  0  0  0  0  0  0
   23.4400  -17.7325  -17.0261 C   0  0  0  0  0  0  0  0  0  0  0  0
   24.9027  -17.9754  -17.1457 C   0  0  2  0  0  0  0  0  0  0  0  0
   25.3845  -17.9194  -18.5126 N   0  0  0  0  0  0  0  0  0  0  0  0
   25.3730  -19.2203  -16.4676 C   0  0  0  0  0  0  0  0  0  0  0  0
   25.6175  -20.2756  -17.1385 O   0  0  0  0  0  0  0  0  0  0  0  0
   29.3510  -19.1398  -12.9096 C   0  0  0  0  0  0  0  0  0  0  0  0
   28.3549  -19.4907  -13.9938 C   0  0  0  0  0  0  0  0  0  0  0  0
   27.1546  -20.2283  -13.4128 C   0  0  2  0  0  0  0  0  0  0  0  0
   27.5809  -21.4935  -12.7061 C   0  0  0  0  0  0  0  0  0  0  0  0
   26.1246  -20.5222  -14.4670 C   0  0  2  0  0  0  0  0  0  0  0  0
   25.5796  -19.3314  -15.0675 N   0  0  0  0  0  0  0  0  0  0  0  0
   25.0292  -21.3307  -13.8710 C   0  0  0  0  0  0  0  0  0  0  0  0
   25.3635  -22.3390  -13.1902 O   0  0  0  0  0  0  0  0  0  0  0  0
   19.5949  -21.9647   -7.3845 O   0  0  0  0  0  0  0  0  0  0  0  0
   20.4072  -21.6391   -8.4488 C   0  0  0  0  0  0  0  0  0  0  0  0
   19.9176  -21.3371   -9.7026 C   0  0  0  0  0  0  0  0  0  0  0  0
   20.7622  -21.0172  -10.7381 C   0  0  0  0  0  0  0  0  0  0  0  0
   22.1430  -20.9843  -10.5675 C   0  0  0  0  0  0  0  0  0  0  0  0
   23.0454  -20.6583  -11.6883 C   0  0  0  0  0  0  0  0  0  0  0  0
   22.6870  -21.3873  -12.9574 C   0  0  2  0  0  0  0  0  0  0  0  0
   23.6536  -21.0484  -14.0145 N   0  0  0  0  0  0  0  0  0  0  0  0
   21.3388  -21.0289  -13.4194 C   0  0  0  0  0  0  0  0  0  0  0  0
   21.1392  -19.9779  -14.0783 O   0  0  0  0  0  0  0  0  0  0  0  0
   22.6339  -21.2848   -9.3206 C   0  0  0  0  0  0  0  0  0  0  0  0
   21.7855  -21.6049   -8.2841 C   0  0  0  0  0  0  0  0  0  0  0  0
   20.2501  -21.8344  -13.1471 O   0  0  0  0  0  0  0  0  0  0  0  0
  1  2  1  0
  3  4  1  0
  3  2  1  0
  5  4  1  0
  5  6  1  6
  7  5  1  0
  8  7  2  0
  9 10  1  0
 10 11  1  0
 11 12  1  6
 11 13  1  0
 13 14  1  1
 14  7  1  0
 15 24  1  0
 15 13  1  0
 16 15  2  0
 18 17  1  0
 19 18  2  0
 20 19  1  0
 21 27  1  0
 21 20  2  0
 23 22  1  1
 22 21  1  0
 23 24  1  0
 23 25  1  0
 25 29  1  0
 26 25  2  0
 27 28  2  0
 28 18  1  0
M  END
$$$$
