WPM.pdb
     RDKit          3D

 30 32  0  0  1  0  0  0  0  0999 V2000
    5.9849  -17.7403   23.7367 N   0  0  0  0  0  0  0  0  0  0  0  0
    6.6557  -16.5413   24.1951 C   0  0  1  0  0  0  0  0  0  0  0  0
    6.6390  -16.4708   25.7153 C   0  0  0  0  0  0  0  0  0  0  0  0
    6.1842  -15.1092   26.0935 C   0  0  0  0  0  0  0  0  0  0  0  0
    4.8986  -14.8419   26.5846 C   0  0  0  0  0  0  0  0  0  0  0  0
    4.7802  -13.5412   26.8757 N   0  0  0  0  0  0  0  0  0  0  0  0
    5.9406  -12.9581   26.5905 C   0  0  0  0  0  0  0  0  0  0  0  0
    6.3234  -11.6357   26.7059 C   0  0  0  0  0  0  0  0  0  0  0  0
    7.6032  -11.2874   26.3251 C   0  0  0  0  0  0  0  0  0  0  0  0
    8.4885  -12.2235   25.8399 C   0  0  0  0  0  0  0  0  0  0  0  0
    8.1041  -13.5619   25.7222 C   0  0  0  0  0  0  0  0  0  0  0  0
    6.8283  -13.9089   26.1030 C   0  0  0  0  0  0  0  0  0  0  0  0
    8.0888  -16.5265   23.7075 C   0  0  0  0  0  0  0  0  0  0  0  0
    8.9212  -16.7658   24.6182 O   0  0  0  0  0  0  0  0  0  0  0  0
    8.4179  -16.2696   22.3728 N   0  0  0  0  0  0  0  0  0  0  0  0
    7.4469  -16.3795   21.2576 C   0  0  0  0  0  0  0  0  0  0  0  0
    7.6218  -14.9679   20.6845 C   0  0  0  0  0  0  0  0  0  0  0  0
    9.0463  -14.5313   21.0890 C   0  0  0  0  0  0  0  0  0  0  0  0
    9.5706  -15.8443   21.6352 C   0  0  1  0  0  0  0  0  0  0  0  0
   10.8590  -15.7851   22.2613 C   0  0  0  0  0  0  0  0  0  0  0  0
   11.5343  -14.7149   22.0258 O   0  0  0  0  0  0  0  0  0  0  0  0
    9.8959  -15.1150   28.5479 C   0  0  0  0  0  0  0  0  0  0  0  0
   11.5162  -14.7538   27.7782 S   0  0  0  0  0  0  0  0  0  0  0  0
   11.8240  -16.0835   26.5450 C   0  0  0  0  0  0  0  0  0  0  0  0
   11.8116  -15.5114   25.1550 C   0  0  0  0  0  0  0  0  0  0  0  0
   12.3959  -16.4540   24.1718 C   0  0  2  0  0  0  0  0  0  0  0  0
   11.4533  -16.7443   23.0784 N   0  0  0  0  0  0  0  0  0  0  0  0
   12.7009  -17.7531   24.8022 C   0  0  0  0  0  0  0  0  0  0  0  0
   13.5993  -17.8665   25.6579 O   0  0  0  0  0  0  0  0  0  0  0  0
   12.0112  -18.9405   24.4887 O   0  0  0  0  0  0  0  0  0  0  0  0
  2  1  1  1
  2  3  1  0
  3  4  1  0
  4 12  1  0
  4  5  2  0
  5  6  1  0
  7  8  2  0
  7  6  1  0
  9  8  1  0
 10  9  2  0
 11 10  1  0
 11 12  2  0
 12  7  1  0
 13 15  1  0
 13  2  1  0
 14 13  2  0
 15 19  1  0
 16 17  1  0
 16 15  1  0
 17 18  1  0
 19 18  1  0
 19 20  1  1
 20 21  2  0
 22 23  1  0
 24 23  1  0
 24 25  1  0
 26 25  1  1
 26 27  1  0
 26 28  1  0
 27 20  1  0
 28 30  1  0
 29 28  2  0
M  END
$$$$
