WPM.pdb
     RDKit          3D

 30 32  0  0  1  0  0  0  0  0999 V2000
    6.5571  -17.9954   24.6298 N   0  0  0  0  0  0  0  0  0  0  0  0
    7.1649  -16.7240   24.2951 C   0  0  1  0  0  0  0  0  0  0  0  0
    7.7825  -16.0878   25.5321 C   0  0  0  0  0  0  0  0  0  0  0  0
    6.8935  -14.9755   25.9523 C   0  0  0  0  0  0  0  0  0  0  0  0
    5.6043  -15.1793   26.4637 C   0  0  0  0  0  0  0  0  0  0  0  0
    5.0504  -14.0061   26.7917 N   0  0  0  0  0  0  0  0  0  0  0  0
    5.9330  -13.0522   26.5108 C   0  0  0  0  0  0  0  0  0  0  0  0
    5.8387  -11.6819   26.6587 C   0  0  0  0  0  0  0  0  0  0  0  0
    6.9125  -10.9050   26.2745 C   0  0  0  0  0  0  0  0  0  0  0  0
    8.0568  -11.4671   25.7546 C   0  0  0  0  0  0  0  0  0  0  0  0
    8.1550  -12.8528   25.6041 C   0  0  0  0  0  0  0  0  0  0  0  0
    7.0846  -13.6272   25.9882 C   0  0  0  0  0  0  0  0  0  0  0  0
    8.2358  -16.9188   23.2429 C   0  0  0  0  0  0  0  0  0  0  0  0
    9.0623  -17.8170   23.5420 O   0  0  0  0  0  0  0  0  0  0  0  0
    8.2720  -16.1597   22.0689 N   0  0  0  0  0  0  0  0  0  0  0  0
    7.0859  -15.9298   21.2094 C   0  0  0  0  0  0  0  0  0  0  0  0
    7.1305  -14.3970   21.1923 C   0  0  0  0  0  0  0  0  0  0  0  0
    8.6072  -14.0237   21.4442 C   0  0  0  0  0  0  0  0  0  0  0  0
    9.2397  -15.3969   21.3372 C   0  0  1  0  0  0  0  0  0  0  0  0
   10.6319  -15.4662   21.6731 C   0  0  0  0  0  0  0  0  0  0  0  0
   11.3550  -14.5054   21.2140 O   0  0  0  0  0  0  0  0  0  0  0  0
    9.8352  -14.2152   27.8420 C   0  0  0  0  0  0  0  0  0  0  0  0
   10.1784  -15.9728   27.4660 S   0  0  0  0  0  0  0  0  0  0  0  0
   11.4843  -15.9913   26.1707 C   0  0  0  0  0  0  0  0  0  0  0  0
   10.8617  -16.1539   24.8122 C   0  0  0  0  0  0  0  0  0  0  0  0
   11.8891  -16.2274   23.7465 C   0  0  2  0  0  0  0  0  0  0  0  0
   11.2786  -16.4451   22.4244 N   0  0  0  0  0  0  0  0  0  0  0  0
   12.7991  -17.3681   23.9678 C   0  0  0  0  0  0  0  0  0  0  0  0
   13.9991  -17.1973   24.2553 O   0  0  0  0  0  0  0  0  0  0  0  0
   12.3856  -18.7111   23.8719 O   0  0  0  0  0  0  0  0  0  0  0  0
  2  1  1  1
  2  3  1  0
  3  4  1  0
  4 12  1  0
  4  5  2  0
  5  6  1  0
  7  8  2  0
  7  6  1  0
  9  8  1  0
 10  9  2  0
 11 10  1  0
 11 12  2  0
 12  7  1  0
 13 15  1  0
 13  2  1  0
 14 13  2  0
 15 19  1  0
 16 17  1  0
 16 15  1  0
 17 18  1  0
 19 18  1  0
 19 20  1  1
 20 21  2  0
 22 23  1  0
 24 23  1  0
 24 25  1  0
 26 25  1  1
 26 27  1  0
 26 28  1  0
 27 20  1  0
 28 30  1  0
 29 28  2  0
M  END
$$$$
