WPM.pdb
     RDKit          3D

 30 32  0  0  1  0  0  0  0  0999 V2000
    6.4703  -17.6848   24.8370 N   0  0  0  0  0  0  0  0  0  0  0  0
    7.1104  -16.5214   24.2585 C   0  0  1  0  0  0  0  0  0  0  0  0
    7.8679  -15.7452   25.3263 C   0  0  0  0  0  0  0  0  0  0  0  0
    6.9385  -14.7303   25.8832 C   0  0  0  0  0  0  0  0  0  0  0  0
    5.7014  -15.0591   26.4547 C   0  0  0  0  0  0  0  0  0  0  0  0
    5.0957  -13.9538   26.9042 N   0  0  0  0  0  0  0  0  0  0  0  0
    5.8946  -12.9233   26.6439 C   0  0  0  0  0  0  0  0  0  0  0  0
    5.7220  -11.5770   26.9014 C   0  0  0  0  0  0  0  0  0  0  0  0
    6.7160  -10.7020   26.5132 C   0  0  0  0  0  0  0  0  0  0  0  0
    7.8575  -11.1447   25.8836 C   0  0  0  0  0  0  0  0  0  0  0  0
    8.0349  -12.5058   25.6221 C   0  0  0  0  0  0  0  0  0  0  0  0
    7.0441  -13.3781   26.0102 C   0  0  0  0  0  0  0  0  0  0  0  0
    8.0716  -16.9433   23.1676 C   0  0  0  0  0  0  0  0  0  0  0  0
    8.6736  -18.0150   23.4294 O   0  0  0  0  0  0  0  0  0  0  0  0
    8.2471  -16.1938   22.0001 N   0  0  0  0  0  0  0  0  0  0  0  0
    7.1557  -15.9209   21.0342 C   0  0  0  0  0  0  0  0  0  0  0  0
    7.2652  -14.3914   21.0174 C   0  0  0  0  0  0  0  0  0  0  0  0
    8.7266  -14.0774   21.4035 C   0  0  0  0  0  0  0  0  0  0  0  0
    9.3088  -15.4761   21.3589 C   0  0  1  0  0  0  0  0  0  0  0  0
   10.6601  -15.6003   21.8218 C   0  0  0  0  0  0  0  0  0  0  0  0
   11.4762  -14.7103   21.3763 O   0  0  0  0  0  0  0  0  0  0  0  0
    9.2242  -15.1815   27.6046 C   0  0  0  0  0  0  0  0  0  0  0  0
   10.5607  -16.4142   27.8110 S   0  0  0  0  0  0  0  0  0  0  0  0
   11.7168  -16.1822   26.3992 C   0  0  0  0  0  0  0  0  0  0  0  0
   10.9705  -16.2861   25.0985 C   0  0  0  0  0  0  0  0  0  0  0  0
   11.8928  -16.2788   23.9383 C   0  0  2  0  0  0  0  0  0  0  0  0
   11.1798  -16.5650   22.6822 N   0  0  0  0  0  0  0  0  0  0  0  0
   12.9193  -17.3306   24.0728 C   0  0  0  0  0  0  0  0  0  0  0  0
   13.8822  -17.2045   24.8532 O   0  0  0  0  0  0  0  0  0  0  0  0
   12.8872  -18.5340   23.3417 O   0  0  0  0  0  0  0  0  0  0  0  0
  2  1  1  1
  2  3  1  0
  3  4  1  0
  4 12  1  0
  4  5  2  0
  5  6  1  0
  7  8  2  0
  7  6  1  0
  9  8  1  0
 10  9  2  0
 11 10  1  0
 11 12  2  0
 12  7  1  0
 13 15  1  0
 13  2  1  0
 14 13  2  0
 15 19  1  0
 16 17  1  0
 16 15  1  0
 17 18  1  0
 19 18  1  0
 19 20  1  1
 20 21  2  0
 22 23  1  0
 24 23  1  0
 24 25  1  0
 26 25  1  1
 26 27  1  0
 26 28  1  0
 27 20  1  0
 28 30  1  0
 29 28  2  0
M  END
$$$$
