WPM.pdb
     RDKit          3D

 30 32  0  0  1  0  0  0  0  0999 V2000
    6.0180  -18.0061   24.4685 N   0  0  0  0  0  0  0  0  0  0  0  0
    6.7829  -16.7938   24.2615 C   0  0  1  0  0  0  0  0  0  0  0  0
    7.3155  -16.2682   25.5868 C   0  0  0  0  0  0  0  0  0  0  0  0
    6.5709  -15.0238   25.9045 C   0  0  0  0  0  0  0  0  0  0  0  0
    5.2410  -15.0212   26.3479 C   0  0  0  0  0  0  0  0  0  0  0  0
    4.8410  -13.7674   26.5906 N   0  0  0  0  0  0  0  0  0  0  0  0
    5.8622  -12.9601   26.3199 C   0  0  0  0  0  0  0  0  0  0  0  0
    5.9537  -11.5840   26.4011 C   0  0  0  0  0  0  0  0  0  0  0  0
    7.1445  -10.9835   26.0466 C   0  0  0  0  0  0  0  0  0  0  0  0
    8.2239  -11.7241   25.6201 C   0  0  0  0  0  0  0  0  0  0  0  0
    8.1343  -13.1161   25.5371 C   0  0  0  0  0  0  0  0  0  0  0  0
    6.9472  -13.7146   25.8918 C   0  0  0  0  0  0  0  0  0  0  0  0
    7.9421  -17.0618   23.3254 C   0  0  0  0  0  0  0  0  0  0  0  0
    8.6311  -18.0558   23.6671 O   0  0  0  0  0  0  0  0  0  0  0  0
    8.1919  -16.2651   22.2035 N   0  0  0  0  0  0  0  0  0  0  0  0
    7.1700  -15.9659   21.1717 C   0  0  0  0  0  0  0  0  0  0  0  0
    7.2598  -14.4358   21.2218 C   0  0  0  0  0  0  0  0  0  0  0  0
    8.6850  -14.1219   21.7255 C   0  0  0  0  0  0  0  0  0  0  0  0
    9.2877  -15.5116   21.6697 C   0  0  1  0  0  0  0  0  0  0  0  0
   10.6033  -15.6396   22.2250 C   0  0  0  0  0  0  0  0  0  0  0  0
   11.5300  -15.0115   21.5899 O   0  0  0  0  0  0  0  0  0  0  0  0
   10.5805  -14.3174   28.1842 C   0  0  0  0  0  0  0  0  0  0  0  0
    9.9197  -15.9812   27.8053 S   0  0  0  0  0  0  0  0  0  0  0  0
   10.8949  -16.6267   26.3854 C   0  0  0  0  0  0  0  0  0  0  0  0
   11.4567  -15.4859   25.5839 C   0  0  0  0  0  0  0  0  0  0  0  0
   12.0348  -15.9528   24.3016 C   0  0  2  0  0  0  0  0  0  0  0  0
   10.9840  -16.3611   23.3544 N   0  0  0  0  0  0  0  0  0  0  0  0
   12.8831  -17.1429   24.5067 C   0  0  0  0  0  0  0  0  0  0  0  0
   13.9592  -17.0756   25.1308 O   0  0  0  0  0  0  0  0  0  0  0  0
   12.5451  -18.4209   24.0205 O   0  0  0  0  0  0  0  0  0  0  0  0
  2  1  1  1
  2  3  1  0
  3  4  1  0
  4 12  1  0
  4  5  2  0
  5  6  1  0
  7  8  2  0
  7  6  1  0
  9  8  1  0
 10  9  2  0
 11 10  1  0
 11 12  2  0
 12  7  1  0
 13 15  1  0
 13  2  1  0
 14 13  2  0
 15 19  1  0
 16 17  1  0
 16 15  1  0
 17 18  1  0
 19 18  1  0
 19 20  1  1
 20 21  2  0
 22 23  1  0
 24 23  1  0
 24 25  1  0
 26 25  1  1
 26 27  1  0
 26 28  1  0
 27 20  1  0
 28 30  1  0
 29 28  2  0
M  END
$$$$
