WPM.pdb
     RDKit          3D

 30 32  0  0  1  0  0  0  0  0999 V2000
    6.1421  -17.6203   24.4817 N   0  0  0  0  0  0  0  0  0  0  0  0
    6.9953  -16.4793   24.2206 C   0  0  1  0  0  0  0  0  0  0  0  0
    7.5749  -15.9402   25.5205 C   0  0  0  0  0  0  0  0  0  0  0  0
    6.6180  -14.9383   26.0537 C   0  0  0  0  0  0  0  0  0  0  0  0
    5.3461  -15.2775   26.5358 C   0  0  0  0  0  0  0  0  0  0  0  0
    4.7194  -14.1839   26.9850 N   0  0  0  0  0  0  0  0  0  0  0  0
    5.5382  -13.1509   26.8105 C   0  0  0  0  0  0  0  0  0  0  0  0
    5.3568  -11.8130   27.1033 C   0  0  0  0  0  0  0  0  0  0  0  0
    6.3774  -10.9324   26.8079 C   0  0  0  0  0  0  0  0  0  0  0  0
    7.5536  -11.3615   26.2351 C   0  0  0  0  0  0  0  0  0  0  0  0
    7.7399  -12.7142   25.9381 C   0  0  0  0  0  0  0  0  0  0  0  0
    6.7225  -13.5921   26.2338 C   0  0  0  0  0  0  0  0  0  0  0  0
    8.1245  -16.8739   23.2927 C   0  0  0  0  0  0  0  0  0  0  0  0
    8.7184  -17.9198   23.6571 O   0  0  0  0  0  0  0  0  0  0  0  0
    8.4471  -16.1282   22.1545 N   0  0  0  0  0  0  0  0  0  0  0  0
    7.4403  -15.6709   21.1667 C   0  0  0  0  0  0  0  0  0  0  0  0
    7.7747  -14.1746   21.2004 C   0  0  0  0  0  0  0  0  0  0  0  0
    9.2530  -14.0914   21.6378 C   0  0  0  0  0  0  0  0  0  0  0  0
    9.6236  -15.5594   21.5665 C   0  0  1  0  0  0  0  0  0  0  0  0
   10.9258  -15.8949   22.0639 C   0  0  0  0  0  0  0  0  0  0  0  0
   11.9000  -15.2406   21.5353 O   0  0  0  0  0  0  0  0  0  0  0  0
   10.7463  -13.3007   26.8958 C   0  0  0  0  0  0  0  0  0  0  0  0
   12.0913  -14.5278   27.0795 S   0  0  0  0  0  0  0  0  0  0  0  0
   11.7502  -15.8712   25.8701 C   0  0  0  0  0  0  0  0  0  0  0  0
   12.6760  -15.7523   24.6918 C   0  0  0  0  0  0  0  0  0  0  0  0
   12.5273  -16.8980   23.7634 C   0  0  2  0  0  0  0  0  0  0  0  0
   11.2483  -16.8391   23.0363 N   0  0  0  0  0  0  0  0  0  0  0  0
   12.5186  -18.1770   24.4998 C   0  0  0  0  0  0  0  0  0  0  0  0
   13.4934  -18.5401   25.1854 O   0  0  0  0  0  0  0  0  0  0  0  0
   11.4269  -19.0667   24.4824 O   0  0  0  0  0  0  0  0  0  0  0  0
  2  1  1  1
  2  3  1  0
  3  4  1  0
  4 12  1  0
  4  5  2  0
  5  6  1  0
  7  8  2  0
  7  6  1  0
  9  8  1  0
 10  9  2  0
 11 10  1  0
 11 12  2  0
 12  7  1  0
 13 15  1  0
 13  2  1  0
 14 13  2  0
 15 19  1  0
 16 17  1  0
 16 15  1  0
 17 18  1  0
 19 18  1  0
 19 20  1  1
 20 21  2  0
 22 23  1  0
 24 23  1  0
 24 25  1  0
 26 25  1  1
 26 27  1  0
 26 28  1  0
 27 20  1  0
 28 30  1  0
 29 28  2  0
M  END
$$$$
