WPM.pdb
     RDKit          3D

 30 32  0  0  1  0  0  0  0  0999 V2000
    6.0844  -17.9417   24.9092 N   0  0  0  0  0  0  0  0  0  0  0  0
    6.8142  -16.7481   24.5345 C   0  0  1  0  0  0  0  0  0  0  0  0
    7.3963  -16.0718   25.7674 C   0  0  0  0  0  0  0  0  0  0  0  0
    6.5955  -14.8485   26.0247 C   0  0  0  0  0  0  0  0  0  0  0  0
    5.2141  -14.8755   26.2621 C   0  0  0  0  0  0  0  0  0  0  0  0
    4.7651  -13.6371   26.4978 N   0  0  0  0  0  0  0  0  0  0  0  0
    5.8043  -12.8112   26.4209 C   0  0  0  0  0  0  0  0  0  0  0  0
    5.8637  -11.4398   26.5769 C   0  0  0  0  0  0  0  0  0  0  0  0
    7.0859  -10.8154   26.4335 C   0  0  0  0  0  0  0  0  0  0  0  0
    8.2272  -11.5281   26.1418 C   0  0  0  0  0  0  0  0  0  0  0  0
    8.1702  -12.9153   25.9837 C   0  0  0  0  0  0  0  0  0  0  0  0
    6.9515  -13.5377   26.1279 C   0  0  0  0  0  0  0  0  0  0  0  0
    7.9344  -17.1001   23.5789 C   0  0  0  0  0  0  0  0  0  0  0  0
    8.5741  -18.1246   23.9262 O   0  0  0  0  0  0  0  0  0  0  0  0
    8.2025  -16.3413   22.4352 N   0  0  0  0  0  0  0  0  0  0  0  0
    7.1936  -16.0659   21.3841 C   0  0  0  0  0  0  0  0  0  0  0  0
    7.2967  -14.5358   21.3871 C   0  0  0  0  0  0  0  0  0  0  0  0
    8.7196  -14.2186   21.8952 C   0  0  0  0  0  0  0  0  0  0  0  0
    9.3103  -15.6145   21.8892 C   0  0  1  0  0  0  0  0  0  0  0  0
   10.6191  -15.7364   22.4617 C   0  0  0  0  0  0  0  0  0  0  0  0
   11.5845  -15.3288   21.7144 O   0  0  0  0  0  0  0  0  0  0  0  0
    9.9233  -15.5825   28.4846 C   0  0  0  0  0  0  0  0  0  0  0  0
   10.5969  -14.0736   27.6985 S   0  0  0  0  0  0  0  0  0  0  0  0
   10.9120  -14.4917   25.9351 C   0  0  0  0  0  0  0  0  0  0  0  0
   11.9540  -15.5708   25.8387 C   0  0  0  0  0  0  0  0  0  0  0  0
   12.2103  -15.9574   24.4311 C   0  0  2  0  0  0  0  0  0  0  0  0
   10.9562  -16.2438   23.7146 N   0  0  0  0  0  0  0  0  0  0  0  0
   13.0114  -17.1950   24.3606 C   0  0  0  0  0  0  0  0  0  0  0  0
   14.1973  -17.2253   24.7409 O   0  0  0  0  0  0  0  0  0  0  0  0
   12.5035  -18.4123   23.8667 O   0  0  0  0  0  0  0  0  0  0  0  0
  2  1  1  1
  2  3  1  0
  3  4  1  0
  4 12  1  0
  4  5  2  0
  5  6  1  0
  7  8  2  0
  7  6  1  0
  9  8  1  0
 10  9  2  0
 11 10  1  0
 11 12  2  0
 12  7  1  0
 13 15  1  0
 13  2  1  0
 14 13  2  0
 15 19  1  0
 16 17  1  0
 16 15  1  0
 17 18  1  0
 19 18  1  0
 19 20  1  1
 20 21  2  0
 22 23  1  0
 24 23  1  0
 24 25  1  0
 26 25  1  1
 26 27  1  0
 26 28  1  0
 27 20  1  0
 28 30  1  0
 29 28  2  0
M  END
$$$$
