SLD.pdb
     RDKit          3D

 23 22  0  0  1  0  0  0  0  0999 V2000
   18.9270  -11.7332  -19.3149 O   0  0  0  0  0  0  0  0  0  0  0  0
   19.3641  -11.1443  -18.1521 C   0  0  0  0  0  0  0  0  0  0  0  0
   20.7054  -11.7242  -17.6908 C   0  0  2  0  0  0  0  0  0  0  0  0
   20.4324  -13.0602  -17.1928 N   0  0  0  0  0  0  0  0  0  0  0  0
   21.2953  -10.8962  -16.6129 C   0  0  0  0  0  0  0  0  0  0  0  0
   20.8938  -10.9480  -15.4140 O   0  0  0  0  0  0  0  0  0  0  0  0
   24.9160  -10.6644  -14.1110 C   0  0  0  0  0  0  0  0  0  0  0  0
   25.1014  -10.3435  -15.5637 C   0  0  2  0  0  0  0  0  0  0  0  0
   26.5882  -10.1646  -15.7992 C   0  0  0  0  0  0  0  0  0  0  0  0
   24.4253   -9.0709  -15.9798 C   0  0  0  0  0  0  0  0  0  0  0  0
   22.9136   -9.1427  -15.8505 C   0  0  2  0  0  0  0  0  0  0  0  0
   22.3574   -9.9966  -16.9032 N   0  0  0  0  0  0  0  0  0  0  0  0
   22.3926   -7.7525  -16.0746 C   0  0  0  0  0  0  0  0  0  0  0  0
   22.4355   -7.2197  -17.2122 O   0  0  0  0  0  0  0  0  0  0  0  0
   21.8336   -6.9895  -15.0171 N   0  0  0  0  0  0  0  0  0  0  0  0
   21.3469   -5.6489  -15.2114 C   0  0  1  0  0  0  0  0  0  0  0  0
   20.1495   -5.3518  -14.3404 C   0  0  0  0  0  0  0  0  0  0  0  0
   19.5545   -4.0323  -14.5981 C   0  0  0  0  0  0  0  0  0  0  0  0
   20.1042   -2.9863  -14.1911 O   0  0  0  0  0  0  0  0  0  0  0  0
   22.4384   -4.6381  -15.0286 C   0  0  0  0  0  0  0  0  0  0  0  0
   23.2779   -4.7599  -14.1185 O   0  0  0  0  0  0  0  0  0  0  0  0
   18.3675   -3.9261  -15.3001 O   0  0  0  0  0  0  0  0  0  0  0  0
   22.5548   -3.5375  -15.8584 O   0  0  0  0  0  0  0  0  0  0  0  0
  2  1  1  0
  3  4  1  1
  3  2  1  0
  5  3  1  0
  6  5  2  0
  8  7  1  1
  8 10  1  0
  9  8  1  0
 11 10  1  6
 11 13  1  0
 11 12  1  0
 12  5  1  0
 13 15  1  0
 14 13  2  0
 15 16  1  0
 16 17  1  1
 16 20  1  0
 18 17  1  0
 19 18  2  0
 20 21  2  0
 20 23  1  0
 22 18  1  0
M  END
$$$$
