SLD.pdb
     RDKit          3D

 23 22  0  0  1  0  0  0  0  0999 V2000
   19.8736  -15.1126  -13.7525 O   0  0  0  0  0  0  0  0  0  0  0  0
   18.9213  -14.1385  -13.9379 C   0  0  0  0  0  0  0  0  0  0  0  0
   17.5228  -14.6297  -13.5494 C   0  0  2  0  0  0  0  0  0  0  0  0
   17.1299  -15.6035  -14.5519 N   0  0  0  0  0  0  0  0  0  0  0  0
   16.5556  -13.5075  -13.5317 C   0  0  0  0  0  0  0  0  0  0  0  0
   16.0660  -13.0106  -14.5875 O   0  0  0  0  0  0  0  0  0  0  0  0
   12.1863  -12.4075  -12.0952 C   0  0  0  0  0  0  0  0  0  0  0  0
   13.1769  -12.8101  -11.0442 C   0  0  2  0  0  0  0  0  0  0  0  0
   12.4681  -12.7377   -9.7061 C   0  0  0  0  0  0  0  0  0  0  0  0
   14.3660  -11.8989  -10.9715 C   0  0  0  0  0  0  0  0  0  0  0  0
   15.1527  -11.8597  -12.2702 C   0  0  2  0  0  0  0  0  0  0  0  0
   16.1392  -12.9427  -12.2951 N   0  0  0  0  0  0  0  0  0  0  0  0
   15.9071  -10.5616  -12.2813 C   0  0  0  0  0  0  0  0  0  0  0  0
   16.8114  -10.3302  -11.4395 O   0  0  0  0  0  0  0  0  0  0  0  0
   15.6313   -9.5505  -13.2376 N   0  0  0  0  0  0  0  0  0  0  0  0
   16.3676   -8.3145  -13.2825 C   0  0  1  0  0  0  0  0  0  0  0  0
   17.0851   -8.1330  -14.5989 C   0  0  0  0  0  0  0  0  0  0  0  0
   17.7900   -6.8472  -14.7059 C   0  0  0  0  0  0  0  0  0  0  0  0
   18.8337   -6.6278  -14.0543 O   0  0  0  0  0  0  0  0  0  0  0  0
   15.4921   -7.1431  -12.9544 C   0  0  0  0  0  0  0  0  0  0  0  0
   14.2620   -7.1929  -13.1343 O   0  0  0  0  0  0  0  0  0  0  0  0
   17.3060   -5.8518  -15.5352 O   0  0  0  0  0  0  0  0  0  0  0  0
   16.0131   -5.9684  -12.4425 O   0  0  0  0  0  0  0  0  0  0  0  0
  2  1  1  0
  3  4  1  6
  3  2  1  0
  5  3  1  0
  6  5  2  0
  8  7  1  6
  8 10  1  0
  9  8  1  0
 11 10  1  1
 11 13  1  0
 11 12  1  0
 12  5  1  0
 13 15  1  0
 14 13  2  0
 15 16  1  0
 16 17  1  6
 16 20  1  0
 18 17  1  0
 19 18  2  0
 20 21  2  0
 20 23  1  0
 22 18  1  0
M  END
$$$$
