SLD.pdb
     RDKit          3D

 23 22  0  0  1  0  0  0  0  0999 V2000
   27.4920  -23.8744  -15.8505 O   0  0  0  0  0  0  0  0  0  0  0  0
   26.5282  -24.5688  -16.5425 C   0  0  0  0  0  0  0  0  0  0  0  0
   25.2121  -23.7880  -16.6218 C   0  0  2  0  0  0  0  0  0  0  0  0
   25.4944  -22.5698  -17.3593 N   0  0  0  0  0  0  0  0  0  0  0  0
   24.7154  -23.4523  -15.2669 C   0  0  0  0  0  0  0  0  0  0  0  0
   24.3602  -24.3339  -14.4315 O   0  0  0  0  0  0  0  0  0  0  0  0
   26.8519  -22.0483  -11.8273 C   0  0  0  0  0  0  0  0  0  0  0  0
   26.5392  -21.0387  -12.8907 C   0  0  2  0  0  0  0  0  0  0  0  0
   27.3302  -19.7862  -12.5689 C   0  0  0  0  0  0  0  0  0  0  0  0
   25.0899  -20.6547  -12.9345 C   0  0  0  0  0  0  0  0  0  0  0  0
   24.2090  -21.7598  -13.4910 C   0  0  2  0  0  0  0  0  0  0  0  0
   24.6216  -22.0943  -14.8565 N   0  0  0  0  0  0  0  0  0  0  0  0
   22.8145  -21.2078  -13.5633 C   0  0  0  0  0  0  0  0  0  0  0  0
   22.2119  -20.8313  -12.5265 O   0  0  0  0  0  0  0  0  0  0  0  0
   22.1259  -21.0892  -14.7980 N   0  0  0  0  0  0  0  0  0  0  0  0
   20.7664  -20.6228  -14.8774 C   0  0  1  0  0  0  0  0  0  0  0  0
   20.4757  -19.9547  -16.2002 C   0  0  0  0  0  0  0  0  0  0  0  0
   19.0776  -19.5219  -16.3395 C   0  0  0  0  0  0  0  0  0  0  0  0
   18.6173  -18.5932  -15.6410 O   0  0  0  0  0  0  0  0  0  0  0  0
   19.7921  -21.7215  -14.5775 C   0  0  0  0  0  0  0  0  0  0  0  0
   20.0415  -22.9005  -14.8867 O   0  0  0  0  0  0  0  0  0  0  0  0
   18.2423  -20.1400  -17.2523 O   0  0  0  0  0  0  0  0  0  0  0  0
   18.5854  -21.4701  -13.9497 O   0  0  0  0  0  0  0  0  0  0  0  0
  2  1  1  0
  3  4  1  6
  3  2  1  0
  5  3  1  0
  6  5  2  0
  8  7  1  1
  8 10  1  0
  9  8  1  0
 11 10  1  6
 11 13  1  0
 11 12  1  0
 12  5  1  0
 13 15  1  0
 14 13  2  0
 15 16  1  0
 16 17  1  6
 16 20  1  0
 18 17  1  0
 19 18  2  0
 20 21  2  0
 20 23  1  0
 22 18  1  0
M  END
$$$$
