SLD.pdb
     RDKit          3D

 23 22  0  0  1  0  0  0  0  0999 V2000
   16.1306   -9.1293  -19.7242 O   0  0  0  0  0  0  0  0  0  0  0  0
   16.4998   -9.0166  -18.4048 C   0  0  0  0  0  0  0  0  0  0  0  0
   17.4205  -10.1627  -17.9725 C   0  0  2  0  0  0  0  0  0  0  0  0
   16.5667  -11.3078  -17.7131 N   0  0  0  0  0  0  0  0  0  0  0  0
   18.1682   -9.8042  -16.7445 C   0  0  0  0  0  0  0  0  0  0  0  0
   17.6240   -9.7545  -15.6032 O   0  0  0  0  0  0  0  0  0  0  0  0
   23.7466  -10.3147  -14.3162 C   0  0  0  0  0  0  0  0  0  0  0  0
   22.4310   -9.5964  -14.3477 C   0  0  2  0  0  0  0  0  0  0  0  0
   21.6628  -10.0092  -13.1077 C   0  0  0  0  0  0  0  0  0  0  0  0
   21.5893   -9.9546  -15.5364 C   0  0  0  0  0  0  0  0  0  0  0  0
   20.3009   -9.1531  -15.6033 C   0  0  2  0  0  0  0  0  0  0  0  0
   19.5548   -9.4980  -16.8161 N   0  0  0  0  0  0  0  0  0  0  0  0
   20.6941   -7.7081  -15.7108 C   0  0  0  0  0  0  0  0  0  0  0  0
   21.3499   -7.2863  -16.6967 O   0  0  0  0  0  0  0  0  0  0  0  0
   20.3422   -6.7662  -14.7097 N   0  0  0  0  0  0  0  0  0  0  0  0
   20.6979   -5.3748  -14.8055 C   0  0  1  0  0  0  0  0  0  0  0  0
   19.5199   -4.4712  -14.5291 C   0  0  0  0  0  0  0  0  0  0  0  0
   19.8528   -3.0410  -14.6019 C   0  0  0  0  0  0  0  0  0  0  0  0
   20.9512   -2.6569  -15.0580 O   0  0  0  0  0  0  0  0  0  0  0  0
   21.8723   -5.0484  -13.9333 C   0  0  0  0  0  0  0  0  0  0  0  0
   22.4090   -3.9267  -13.9755 O   0  0  0  0  0  0  0  0  0  0  0  0
   18.9494   -2.0900  -14.1632 O   0  0  0  0  0  0  0  0  0  0  0  0
   22.4025   -5.9746  -13.0532 O   0  0  0  0  0  0  0  0  0  0  0  0
  2  1  1  0
  3  4  1  1
  3  2  1  0
  5  3  1  0
  6  5  2  0
  8  7  1  6
  8 10  1  0
  9  8  1  0
 11 10  1  6
 11 13  1  0
 11 12  1  0
 12  5  1  0
 13 15  1  0
 14 13  2  0
 15 16  1  0
 16 17  1  1
 16 20  1  0
 18 17  1  0
 19 18  2  0
 20 21  2  0
 20 23  1  0
 22 18  1  0
M  END
$$$$
