SLD.pdb
     RDKit          3D

 23 22  0  0  1  0  0  0  0  0999 V2000
   21.5785   -8.0278  -20.8361 O   0  0  0  0  0  0  0  0  0  0  0  0
   22.3453   -9.1688  -20.8346 C   0  0  0  0  0  0  0  0  0  0  0  0
   21.6607  -10.3127  -20.0790 C   0  0  2  0  0  0  0  0  0  0  0  0
   20.3925  -10.5510  -20.7441 N   0  0  0  0  0  0  0  0  0  0  0  0
   21.4249   -9.9433  -18.6636 C   0  0  0  0  0  0  0  0  0  0  0  0
   20.2818   -9.6301  -18.2204 O   0  0  0  0  0  0  0  0  0  0  0  0
   22.0442  -12.3002  -14.8467 C   0  0  0  0  0  0  0  0  0  0  0  0
   23.2750  -11.7396  -15.4938 C   0  0  2  0  0  0  0  0  0  0  0  0
   24.4684  -12.2576  -14.7156 C   0  0  0  0  0  0  0  0  0  0  0  0
   23.3325  -10.2413  -15.4579 C   0  0  0  0  0  0  0  0  0  0  0  0
   22.2722   -9.5945  -16.3322 C   0  0  2  0  0  0  0  0  0  0  0  0
   22.5052   -9.9303  -17.7393 N   0  0  0  0  0  0  0  0  0  0  0  0
   22.4389   -8.1092  -16.1891 C   0  0  0  0  0  0  0  0  0  0  0  0
   23.3873   -7.5061  -16.7518 O   0  0  0  0  0  0  0  0  0  0  0  0
   21.5369   -7.3317  -15.4178 N   0  0  0  0  0  0  0  0  0  0  0  0
   21.6271   -5.8969  -15.3464 C   0  0  1  0  0  0  0  0  0  0  0  0
   20.3565   -5.2280  -15.8142 C   0  0  0  0  0  0  0  0  0  0  0  0
   20.4196   -3.7599  -15.7675 C   0  0  0  0  0  0  0  0  0  0  0  0
   21.4509   -3.1472  -16.1183 O   0  0  0  0  0  0  0  0  0  0  0  0
   22.0297   -5.4409  -13.9766 C   0  0  0  0  0  0  0  0  0  0  0  0
   22.0262   -6.2280  -13.0130 O   0  0  0  0  0  0  0  0  0  0  0  0
   19.3307   -3.0271  -15.3311 O   0  0  0  0  0  0  0  0  0  0  0  0
   22.4182   -4.1363  -13.7308 O   0  0  0  0  0  0  0  0  0  0  0  0
  2  1  1  0
  3  4  1  6
  3  2  1  0
  5  3  1  0
  6  5  2  0
  8  7  1  1
  8 10  1  0
  9  8  1  0
 11 10  1  1
 11 13  1  0
 11 12  1  0
 12  5  1  0
 13 15  1  0
 14 13  2  0
 15 16  1  0
 16 17  1  1
 16 20  1  0
 18 17  1  0
 19 18  2  0
 20 21  2  0
 20 23  1  0
 22 18  1  0
M  END
$$$$
