SLD.pdb
     RDKit          3D

 23 22  0  0  1  0  0  0  0  0999 V2000
   17.8904  -11.3261  -18.7329 O   0  0  0  0  0  0  0  0  0  0  0  0
   18.4372  -10.8277  -17.5742 C   0  0  0  0  0  0  0  0  0  0  0  0
   19.8017  -11.4568  -17.2733 C   0  0  2  0  0  0  0  0  0  0  0  0
   19.5404  -12.7725  -16.7180 N   0  0  0  0  0  0  0  0  0  0  0  0
   20.5557  -10.6384  -16.2950 C   0  0  0  0  0  0  0  0  0  0  0  0
   20.2482  -10.5838  -15.0688 O   0  0  0  0  0  0  0  0  0  0  0  0
   24.3059  -10.5085  -14.0460 C   0  0  0  0  0  0  0  0  0  0  0  0
   24.5350  -10.3017  -15.5132 C   0  0  2  0  0  0  0  0  0  0  0  0
   26.0295  -10.1528  -15.7189 C   0  0  0  0  0  0  0  0  0  0  0  0
   23.8834   -9.0598  -16.0448 C   0  0  0  0  0  0  0  0  0  0  0  0
   22.3909   -9.0176  -15.7660 C   0  0  2  0  0  0  0  0  0  0  0  0
   21.6757   -9.8714  -16.7179 N   0  0  0  0  0  0  0  0  0  0  0  0
   21.9450   -7.6038  -16.0043 C   0  0  0  0  0  0  0  0  0  0  0  0
   21.9817   -7.0976  -17.1542 O   0  0  0  0  0  0  0  0  0  0  0  0
   21.4662   -6.7879  -14.9469 N   0  0  0  0  0  0  0  0  0  0  0  0
   21.1045   -5.4088  -15.1445 C   0  0  1  0  0  0  0  0  0  0  0  0
   19.7423   -5.0956  -14.5725 C   0  0  0  0  0  0  0  0  0  0  0  0
   19.3416   -3.6930  -14.7564 C   0  0  0  0  0  0  0  0  0  0  0  0
   19.4573   -2.8624  -13.8297 O   0  0  0  0  0  0  0  0  0  0  0  0
   22.1603   -4.4847  -14.6176 C   0  0  0  0  0  0  0  0  0  0  0  0
   22.1207   -3.2644  -14.8570 O   0  0  0  0  0  0  0  0  0  0  0  0
   18.8259   -3.2665  -15.9668 O   0  0  0  0  0  0  0  0  0  0  0  0
   23.2134   -4.9484  -13.8499 O   0  0  0  0  0  0  0  0  0  0  0  0
  2  1  1  0
  3  4  1  1
  3  2  1  0
  5  3  1  0
  6  5  2  0
  8  7  1  1
  8 10  1  0
  9  8  1  0
 11 10  1  6
 11 13  1  0
 11 12  1  0
 12  5  1  0
 13 15  1  0
 14 13  2  0
 15 16  1  0
 16 17  1  1
 16 20  1  0
 18 17  1  0
 19 18  2  0
 20 21  2  0
 20 23  1  0
 22 18  1  0
M  END
$$$$
