SLD.pdb
     RDKit          3D

 23 22  0  0  1  0  0  0  0  0999 V2000
   16.4679  -10.2233  -19.0677 O   0  0  0  0  0  0  0  0  0  0  0  0
   17.4230  -11.0911  -19.5418 C   0  0  0  0  0  0  0  0  0  0  0  0
   17.9137  -12.0477  -18.4500 C   0  0  2  0  0  0  0  0  0  0  0  0
   16.7484  -12.7726  -17.9766 N   0  0  0  0  0  0  0  0  0  0  0  0
   18.5294  -11.2982  -17.3298 C   0  0  0  0  0  0  0  0  0  0  0  0
   17.9014  -11.0198  -16.2671 O   0  0  0  0  0  0  0  0  0  0  0  0
   24.1423  -10.2053  -14.9931 C   0  0  0  0  0  0  0  0  0  0  0  0
   22.6907   -9.8427  -15.0893 C   0  0  2  0  0  0  0  0  0  0  0  0
   22.0432  -10.2239  -13.7727 C   0  0  0  0  0  0  0  0  0  0  0  0
   21.9667  -10.5816  -16.1754 C   0  0  0  0  0  0  0  0  0  0  0  0
   20.5099  -10.1682  -16.2929 C   0  0  2  0  0  0  0  0  0  0  0  0
   19.8788  -10.8596  -17.4200 N   0  0  0  0  0  0  0  0  0  0  0  0
   20.4996   -8.6989  -16.6016 C   0  0  0  0  0  0  0  0  0  0  0  0
   20.8815   -8.2686  -17.7192 O   0  0  0  0  0  0  0  0  0  0  0  0
   20.0599   -7.7431  -15.6497 N   0  0  0  0  0  0  0  0  0  0  0  0
   20.0774   -6.3289  -15.9171 C   0  0  1  0  0  0  0  0  0  0  0  0
   19.0350   -5.5899  -15.1122 C   0  0  0  0  0  0  0  0  0  0  0  0
   18.9789   -4.1516  -15.4119 C   0  0  0  0  0  0  0  0  0  0  0  0
   19.4899   -3.3116  -14.6403 O   0  0  0  0  0  0  0  0  0  0  0  0
   21.4474   -5.7520  -15.7253 C   0  0  0  0  0  0  0  0  0  0  0  0
   21.9945   -5.0889  -16.6247 O   0  0  0  0  0  0  0  0  0  0  0  0
   18.3549   -3.7011  -16.5611 O   0  0  0  0  0  0  0  0  0  0  0  0
   22.1530   -5.9329  -14.5494 O   0  0  0  0  0  0  0  0  0  0  0  0
  2  1  1  0
  3  4  1  1
  3  2  1  0
  5  3  1  0
  6  5  2  0
  8  7  1  1
  8 10  1  0
  9  8  1  0
 11 10  1  6
 11 13  1  0
 11 12  1  0
 12  5  1  0
 13 15  1  0
 14 13  2  0
 15 16  1  0
 16 17  1  1
 16 20  1  0
 18 17  1  0
 19 18  2  0
 20 21  2  0
 20 23  1  0
 22 18  1  0
M  END
$$$$
