VTT.pdb
     RDKit          3D

 22 21  0  0  1  0  0  0  0  0999 V2000
   17.9074   -8.9621  -18.1325 C   0  0  0  0  0  0  0  0  0  0  0  0
   17.4169  -10.2161  -17.4616 C   0  0  2  0  0  0  0  0  0  0  0  0
   16.3701   -9.8771  -16.4377 C   0  0  0  0  0  0  0  0  0  0  0  0
   18.5370  -11.0449  -16.8880 C   0  0  2  0  0  0  0  0  0  0  0  0
   17.9646  -12.2950  -16.4373 N   0  0  0  0  0  0  0  0  0  0  0  0
   19.2061  -10.3901  -15.7474 C   0  0  0  0  0  0  0  0  0  0  0  0
   18.7104  -10.3906  -14.5913 O   0  0  0  0  0  0  0  0  0  0  0  0
   22.4605  -11.0284  -14.2701 C   0  0  0  0  0  0  0  0  0  0  0  0
   22.5539   -9.6265  -14.8488 C   0  0  1  0  0  0  0  0  0  0  0  0
   23.1037   -9.7540  -16.1214 O   0  0  0  0  0  0  0  0  0  0  0  0
   21.1532   -9.0082  -14.9366 C   0  0  2  0  0  0  0  0  0  0  0  0
   20.4405   -9.7418  -15.9544 N   0  0  0  0  0  0  0  0  0  0  0  0
   21.2098   -7.5719  -15.1894 C   0  0  0  0  0  0  0  0  0  0  0  0
   21.4139   -7.1495  -16.3520 O   0  0  0  0  0  0  0  0  0  0  0  0
   20.0496   -2.9823  -14.3021 C   0  0  0  0  0  0  0  0  0  0  0  0
   19.9016   -4.4463  -13.9891 C   0  0  1  0  0  0  0  0  0  0  0  0
   18.7806   -4.9029  -14.6951 O   0  0  0  0  0  0  0  0  0  0  0  0
   21.1283   -5.2087  -14.4671 C   0  0  2  0  0  0  0  0  0  0  0  0
   21.0417   -6.6090  -14.1615 N   0  0  0  0  0  0  0  0  0  0  0  0
   22.3104   -4.5690  -13.8118 C   0  0  0  0  0  0  0  0  0  0  0  0
   22.7269   -4.9401  -12.7059 O   0  0  0  0  0  0  0  0  0  0  0  0
   22.9416   -3.5311  -14.4833 O   0  0  0  0  0  0  0  0  0  0  0  0
  2  1  1  1
  2  3  1  0
  4  2  1  0
  4  6  1  0
  4  5  1  1
  6  7  2  0
  6 12  1  0
  9 11  1  0
  9  8  1  6
 10  9  1  0
 11 13  1  0
 11 12  1  6
 13 19  1  0
 13 14  2  0
 16 15  1  6
 16 18  1  0
 17 16  1  0
 18 20  1  0
 18 19  1  1
 20 22  1  0
 21 20  2  0
M  END
$$$$
