VTT.pdb
     RDKit          3D

 22 21  0  0  1  0  0  0  0  0999 V2000
   24.6904  -20.7729   -9.2932 C   0  0  0  0  0  0  0  0  0  0  0  0
   25.8146  -20.7925  -10.2926 C   0  0  2  0  0  0  0  0  0  0  0  0
   26.1320  -19.3927  -10.7387 C   0  0  0  0  0  0  0  0  0  0  0  0
   25.5476  -21.7196  -11.4501 C   0  0  2  0  0  0  0  0  0  0  0  0
   26.4966  -22.8082  -11.3616 N   0  0  0  0  0  0  0  0  0  0  0  0
   25.7042  -21.0581  -12.7598 C   0  0  0  0  0  0  0  0  0  0  0  0
   26.8339  -20.8412  -13.2686 O   0  0  0  0  0  0  0  0  0  0  0  0
   23.4955  -20.4606  -17.0460 C   0  0  0  0  0  0  0  0  0  0  0  0
   23.5666  -20.9755  -15.6181 C   0  0  1  0  0  0  0  0  0  0  0  0
   23.9938  -22.2985  -15.6900 O   0  0  0  0  0  0  0  0  0  0  0  0
   24.5694  -20.1379  -14.8151 C   0  0  2  0  0  0  0  0  0  0  0  0
   24.5541  -20.6544  -13.4678 N   0  0  0  0  0  0  0  0  0  0  0  0
   24.2692  -18.7118  -14.8930 C   0  0  0  0  0  0  0  0  0  0  0  0
   23.3238  -18.2346  -14.2220 O   0  0  0  0  0  0  0  0  0  0  0  0
   26.6724  -15.4105  -14.9389 C   0  0  0  0  0  0  0  0  0  0  0  0
   25.7772  -15.5320  -16.1417 C   0  0  1  0  0  0  0  0  0  0  0  0
   26.5428  -16.1099  -17.1632 O   0  0  0  0  0  0  0  0  0  0  0  0
   24.6035  -16.4476  -15.8283 C   0  0  2  0  0  0  0  0  0  0  0  0
   25.0110  -17.8193  -15.7086 N   0  0  0  0  0  0  0  0  0  0  0  0
   23.6085  -16.2577  -16.9283 C   0  0  0  0  0  0  0  0  0  0  0  0
   22.9825  -15.1982  -17.0699 O   0  0  0  0  0  0  0  0  0  0  0  0
   23.3986  -17.3149  -17.8029 O   0  0  0  0  0  0  0  0  0  0  0  0
  2  1  1  1
  2  3  1  0
  4  2  1  0
  4  6  1  0
  4  5  1  6
  6  7  2  0
  6 12  1  0
  9 11  1  0
  9  8  1  6
 10  9  1  0
 11 13  1  0
 11 12  1  1
 13 19  1  0
 13 14  2  0
 16 15  1  1
 16 18  1  0
 17 16  1  0
 18 20  1  0
 18 19  1  6
 20 22  1  0
 21 20  2  0
M  END
$$$$
