VTT.pdb
     RDKit          3D

 22 21  0  0  1  0  0  0  0  0999 V2000
   29.5596  -32.7930  -18.2571 C   0  0  0  0  0  0  0  0  0  0  0  0
   30.8695  -32.6615  -18.9851 C   0  0  2  0  0  0  0  0  0  0  0  0
   31.3635  -34.0173  -19.4057 C   0  0  0  0  0  0  0  0  0  0  0  0
   31.8981  -31.8924  -18.1970 C   0  0  2  0  0  0  0  0  0  0  0  0
   32.2240  -32.6780  -17.0265 N   0  0  0  0  0  0  0  0  0  0  0  0
   31.4117  -30.5693  -17.7610 C   0  0  0  0  0  0  0  0  0  0  0  0
   31.1148  -30.3276  -16.5628 O   0  0  0  0  0  0  0  0  0  0  0  0
   31.5855  -25.8249  -18.9521 C   0  0  0  0  0  0  0  0  0  0  0  0
   31.9352  -27.2890  -19.1602 C   0  0  1  0  0  0  0  0  0  0  0  0
   33.2246  -27.4672  -18.6665 O   0  0  0  0  0  0  0  0  0  0  0  0
   30.9461  -28.1721  -18.3895 C   0  0  2  0  0  0  0  0  0  0  0  0
   31.2736  -29.5396  -18.7135 N   0  0  0  0  0  0  0  0  0  0  0  0
   29.5610  -27.8213  -18.6870 C   0  0  0  0  0  0  0  0  0  0  0  0
   29.0772  -28.0864  -19.8128 O   0  0  0  0  0  0  0  0  0  0  0  0
   27.0353  -25.2674  -16.2262 C   0  0  0  0  0  0  0  0  0  0  0  0
   26.5236  -26.5296  -16.8651 C   0  0  1  0  0  0  0  0  0  0  0  0
   25.2062  -26.2766  -17.2700 O   0  0  0  0  0  0  0  0  0  0  0  0
   27.3584  -26.8697  -18.0905 C   0  0  2  0  0  0  0  0  0  0  0  0
   28.7167  -27.1810  -17.7441 N   0  0  0  0  0  0  0  0  0  0  0  0
   27.2747  -25.6895  -19.0048 C   0  0  0  0  0  0  0  0  0  0  0  0
   28.1420  -24.8052  -19.0144 O   0  0  0  0  0  0  0  0  0  0  0  0
   26.1830  -25.6059  -19.8580 O   0  0  0  0  0  0  0  0  0  0  0  0
  2  1  1  1
  2  3  1  0
  4  2  1  0
  4  6  1  0
  4  5  1  1
  6  7  2  0
  6 12  1  0
  9 11  1  0
  9  8  1  1
 10  9  1  0
 11 13  1  0
 11 12  1  6
 13 19  1  0
 13 14  2  0
 16 15  1  6
 16 18  1  0
 17 16  1  0
 18 20  1  0
 18 19  1  1
 20 22  1  0
 21 20  2  0
M  END
$$$$
