VTT.pdb
     RDKit          3D

 22 21  0  0  1  0  0  0  0  0999 V2000
   17.8440  -12.6466  -17.2710 C   0  0  0  0  0  0  0  0  0  0  0  0
   16.9114  -12.0654  -16.2436 C   0  0  2  0  0  0  0  0  0  0  0  0
   15.8065  -11.3051  -16.9220 C   0  0  0  0  0  0  0  0  0  0  0  0
   17.6291  -11.2381  -15.2087 C   0  0  2  0  0  0  0  0  0  0  0  0
   16.6850  -10.9542  -14.1496 N   0  0  0  0  0  0  0  0  0  0  0  0
   18.1358   -9.9617  -15.7484 C   0  0  0  0  0  0  0  0  0  0  0  0
   19.0154   -9.9177  -16.6465 O   0  0  0  0  0  0  0  0  0  0  0  0
   16.9885   -5.1837  -16.1539 C   0  0  0  0  0  0  0  0  0  0  0  0
   16.6769   -6.6177  -15.7595 C   0  0  1  0  0  0  0  0  0  0  0  0
   15.7913   -7.1122  -16.7130 O   0  0  0  0  0  0  0  0  0  0  0  0
   17.9679   -7.4457  -15.7559 C   0  0  2  0  0  0  0  0  0  0  0  0
   17.6211   -8.7499  -15.2450 N   0  0  0  0  0  0  0  0  0  0  0  0
   19.0299   -6.7901  -14.9994 C   0  0  0  0  0  0  0  0  0  0  0  0
   18.9298   -6.6724  -13.7552 O   0  0  0  0  0  0  0  0  0  0  0  0
   23.5530   -4.8841  -14.6384 C   0  0  0  0  0  0  0  0  0  0  0  0
   22.5207   -5.4963  -15.5453 C   0  0  1  0  0  0  0  0  0  0  0  0
   22.9608   -6.7917  -15.8483 O   0  0  0  0  0  0  0  0  0  0  0  0
   21.1828   -5.5866  -14.8269 C   0  0  2  0  0  0  0  0  0  0  0  0
   20.1955   -6.2679  -15.6163 N   0  0  0  0  0  0  0  0  0  0  0  0
   20.7715   -4.1836  -14.5129 C   0  0  0  0  0  0  0  0  0  0  0  0
   20.1195   -3.4976  -15.3120 O   0  0  0  0  0  0  0  0  0  0  0  0
   21.1439   -3.6583  -13.2833 O   0  0  0  0  0  0  0  0  0  0  0  0
  2  1  1  6
  2  3  1  0
  4  2  1  0
  4  6  1  0
  4  5  1  1
  6  7  2  0
  6 12  1  0
  9 11  1  0
  9  8  1  6
 10  9  1  0
 11 13  1  0
 11 12  1  1
 13 19  1  0
 13 14  2  0
 16 15  1  1
 16 18  1  0
 17 16  1  0
 18 20  1  0
 18 19  1  6
 20 22  1  0
 21 20  2  0
M  END
$$$$
