VTT.pdb
     RDKit          3D

 22 21  0  0  1  0  0  0  0  0999 V2000
   25.7517  -20.4142   -8.5149 C   0  0  0  0  0  0  0  0  0  0  0  0
   25.2762  -21.0600   -9.7876 C   0  0  2  0  0  0  0  0  0  0  0  0
   26.4414  -21.6458  -10.5348 C   0  0  0  0  0  0  0  0  0  0  0  0
   24.4543  -20.1285  -10.6405 C   0  0  2  0  0  0  0  0  0  0  0  0
   23.1473  -20.7279  -10.8016 N   0  0  0  0  0  0  0  0  0  0  0  0
   25.0431  -19.9067  -11.9752 C   0  0  0  0  0  0  0  0  0  0  0  0
   26.2127  -19.4689  -12.1257 O   0  0  0  0  0  0  0  0  0  0  0  0
   24.9873  -22.4540  -14.7454 C   0  0  0  0  0  0  0  0  0  0  0  0
   24.2884  -21.2151  -15.2798 C   0  0  1  0  0  0  0  0  0  0  0  0
   22.9214  -21.4277  -15.1244 O   0  0  0  0  0  0  0  0  0  0  0  0
   24.7280  -19.9852  -14.4758 C   0  0  2  0  0  0  0  0  0  0  0  0
   24.2747  -20.1930  -13.1217 N   0  0  0  0  0  0  0  0  0  0  0  0
   24.2352  -18.7460  -15.0686 C   0  0  0  0  0  0  0  0  0  0  0  0
   23.1036  -18.3087  -14.7524 O   0  0  0  0  0  0  0  0  0  0  0  0
   25.7985  -15.2694  -15.0300 C   0  0  0  0  0  0  0  0  0  0  0  0
   25.5179  -15.6453  -16.4594 C   0  0  1  0  0  0  0  0  0  0  0  0
   26.7192  -16.1251  -16.9982 O   0  0  0  0  0  0  0  0  0  0  0  0
   24.4773  -16.7538  -16.5127 C   0  0  2  0  0  0  0  0  0  0  0  0
   24.9904  -17.9954  -16.0057 N   0  0  0  0  0  0  0  0  0  0  0  0
   24.0513  -16.8707  -17.9413 C   0  0  0  0  0  0  0  0  0  0  0  0
   24.2189  -17.9112  -18.5920 O   0  0  0  0  0  0  0  0  0  0  0  0
   23.4528  -15.7664  -18.5322 O   0  0  0  0  0  0  0  0  0  0  0  0
  2  1  1  1
  2  3  1  0
  4  2  1  0
  4  6  1  0
  4  5  1  6
  6  7  2  0
  6 12  1  0
  9 11  1  0
  9  8  1  1
 10  9  1  0
 11 13  1  0
 11 12  1  1
 13 19  1  0
 13 14  2  0
 16 15  1  1
 16 18  1  0
 17 16  1  0
 18 20  1  0
 18 19  1  6
 20 22  1  0
 21 20  2  0
M  END
$$$$
