VTT.pdb
     RDKit          3D

 22 21  0  0  1  0  0  0  0  0999 V2000
   15.8994  -14.4334  -17.9375 C   0  0  0  0  0  0  0  0  0  0  0  0
   16.3416  -13.2526  -17.1171 C   0  0  2  0  0  0  0  0  0  0  0  0
   15.8359  -11.9784  -17.7334 C   0  0  0  0  0  0  0  0  0  0  0  0
   17.8305  -13.2297  -16.8862 C   0  0  2  0  0  0  0  0  0  0  0  0
   18.1805  -14.4502  -16.1924 N   0  0  0  0  0  0  0  0  0  0  0  0
   18.2647  -12.0787  -16.0713 C   0  0  0  0  0  0  0  0  0  0  0  0
   17.9578  -11.9656  -14.8567 O   0  0  0  0  0  0  0  0  0  0  0  0
   21.7343  -11.0399  -15.4149 C   0  0  0  0  0  0  0  0  0  0  0  0
   21.0848   -9.9135  -16.2013 C   0  0  1  0  0  0  0  0  0  0  0  0
   21.3630  -10.1502  -17.5447 O   0  0  0  0  0  0  0  0  0  0  0  0
   19.5695   -9.9236  -15.9645 C   0  0  2  0  0  0  0  0  0  0  0  0
   19.0487  -11.0708  -16.6681 N   0  0  0  0  0  0  0  0  0  0  0  0
   18.9497   -8.6653  -16.3680 C   0  0  0  0  0  0  0  0  0  0  0  0
   18.8542   -8.3776  -17.5845 O   0  0  0  0  0  0  0  0  0  0  0  0
   15.5095   -7.1935  -15.8635 C   0  0  0  0  0  0  0  0  0  0  0  0
   16.5096   -6.2264  -15.2911 C   0  0  1  0  0  0  0  0  0  0  0  0
   16.5598   -6.4611  -13.9105 O   0  0  0  0  0  0  0  0  0  0  0  0
   17.8859   -6.4864  -15.8848 C   0  0  2  0  0  0  0  0  0  0  0  0
   18.4390   -7.7313  -15.4307 N   0  0  0  0  0  0  0  0  0  0  0  0
   18.7436   -5.3239  -15.4992 C   0  0  0  0  0  0  0  0  0  0  0  0
   19.7022   -5.4454  -14.7242 O   0  0  0  0  0  0  0  0  0  0  0  0
   18.4354   -4.0829  -16.0393 O   0  0  0  0  0  0  0  0  0  0  0  0
  2  1  1  6
  2  3  1  0
  4  2  1  0
  4  6  1  0
  4  5  1  1
  6  7  2  0
  6 12  1  0
  9 11  1  0
  9  8  1  1
 10  9  1  0
 11 13  1  0
 11 12  1  6
 13 19  1  0
 13 14  2  0
 16 15  1  6
 16 18  1  0
 17 16  1  0
 18 20  1  0
 18 19  1  1
 20 22  1  0
 21 20  2  0
M  END
$$$$
