VTT.pdb
     RDKit          3D

 22 21  0  0  1  0  0  0  0  0999 V2000
   28.7145  -19.1809  -17.2777 C   0  0  0  0  0  0  0  0  0  0  0  0
   27.8972  -18.7981  -18.4813 C   0  0  2  0  0  0  0  0  0  0  0  0
   27.8410  -17.3017  -18.6113 C   0  0  0  0  0  0  0  0  0  0  0  0
   26.5284  -19.4281  -18.4791 C   0  0  2  0  0  0  0  0  0  0  0  0
   25.8526  -19.0013  -19.6852 N   0  0  0  0  0  0  0  0  0  0  0  0
   25.7173  -19.0283  -17.3131 C   0  0  0  0  0  0  0  0  0  0  0  0
   25.2783  -17.8579  -17.1736 O   0  0  0  0  0  0  0  0  0  0  0  0
   22.8509  -18.7507  -16.7091 C   0  0  0  0  0  0  0  0  0  0  0  0
   23.1216  -19.8487  -15.6942 C   0  0  1  0  0  0  0  0  0  0  0  0
   22.9346  -21.0599  -16.3546 O   0  0  0  0  0  0  0  0  0  0  0  0
   24.5646  -19.7398  -15.1862 C   0  0  2  0  0  0  0  0  0  0  0  0
   25.4219  -19.9848  -16.3207 N   0  0  0  0  0  0  0  0  0  0  0  0
   24.8139  -20.6410  -14.0656 C   0  0  0  0  0  0  0  0  0  0  0  0
   25.0981  -21.8428  -14.2814 O   0  0  0  0  0  0  0  0  0  0  0  0
   27.2942  -20.3354  -11.1896 C   0  0  0  0  0  0  0  0  0  0  0  0
   25.9317  -20.5739  -10.5981 C   0  0  1  0  0  0  0  0  0  0  0  0
   25.4406  -19.3267  -10.1894 O   0  0  0  0  0  0  0  0  0  0  0  0
   24.9982  -21.1487  -11.6529 C   0  0  2  0  0  0  0  0  0  0  0  0
   24.7490  -20.2144  -12.7144 N   0  0  0  0  0  0  0  0  0  0  0  0
   23.7389  -21.5334  -10.9442 C   0  0  0  0  0  0  0  0  0  0  0  0
   22.6540  -20.9909  -11.1951 O   0  0  0  0  0  0  0  0  0  0  0  0
   23.8150  -22.5302   -9.9813 O   0  0  0  0  0  0  0  0  0  0  0  0
  2  1  1  1
  2  3  1  0
  4  2  1  0
  4  6  1  0
  4  5  1  6
  6  7  2  0
  6 12  1  0
  9 11  1  0
  9  8  1  6
 10  9  1  0
 11 13  1  0
 11 12  1  6
 13 19  1  0
 13 14  2  0
 16 15  1  6
 16 18  1  0
 17 16  1  0
 18 20  1  0
 18 19  1  6
 20 22  1  0
 21 20  2  0
M  END
$$$$
