VTT.pdb
     RDKit          3D

 22 21  0  0  1  0  0  0  0  0999 V2000
   18.7087  -13.4089  -15.5657 C   0  0  0  0  0  0  0  0  0  0  0  0
   17.7812  -13.1787  -16.7275 C   0  0  2  0  0  0  0  0  0  0  0  0
   17.8163  -14.3596  -17.6567 C   0  0  0  0  0  0  0  0  0  0  0  0
   18.0514  -11.8779  -17.4384 C   0  0  2  0  0  0  0  0  0  0  0  0
   19.1803  -12.0908  -18.3181 N   0  0  0  0  0  0  0  0  0  0  0  0
   18.3728  -10.7760  -16.5112 C   0  0  0  0  0  0  0  0  0  0  0  0
   17.6199  -10.4683  -15.5517 O   0  0  0  0  0  0  0  0  0  0  0  0
   21.9465   -7.9604  -14.7216 C   0  0  0  0  0  0  0  0  0  0  0  0
   21.4097   -9.1709  -15.4670 C   0  0  1  0  0  0  0  0  0  0  0  0
   21.4702  -10.2449  -14.5834 O   0  0  0  0  0  0  0  0  0  0  0  0
   19.9583   -8.9156  -15.8917 C   0  0  2  0  0  0  0  0  0  0  0  0
   19.5605  -10.0413  -16.7021 N   0  0  0  0  0  0  0  0  0  0  0  0
   19.8100   -7.6317  -16.5697 C   0  0  0  0  0  0  0  0  0  0  0  0
   20.4600   -7.3988  -17.6161 O   0  0  0  0  0  0  0  0  0  0  0  0
   16.3631   -5.6703  -17.2432 C   0  0  0  0  0  0  0  0  0  0  0  0
   17.4155   -4.7794  -16.6417 C   0  0  1  0  0  0  0  0  0  0  0  0
   17.1457   -4.6990  -15.2690 O   0  0  0  0  0  0  0  0  0  0  0  0
   18.7933   -5.3939  -16.8372 C   0  0  2  0  0  0  0  0  0  0  0  0
   18.9476   -6.6118  -16.0923 N   0  0  0  0  0  0  0  0  0  0  0  0
   19.7862   -4.3571  -16.4185 C   0  0  0  0  0  0  0  0  0  0  0  0
   20.5338   -4.5213  -15.4446 O   0  0  0  0  0  0  0  0  0  0  0  0
   19.8521   -3.1853  -17.1595 O   0  0  0  0  0  0  0  0  0  0  0  0
  2  1  1  1
  2  3  1  0
  4  2  1  0
  4  6  1  0
  4  5  1  6
  6  7  2  0
  6 12  1  0
  9 11  1  0
  9  8  1  1
 10  9  1  0
 11 13  1  0
 11 12  1  6
 13 19  1  0
 13 14  2  0
 16 15  1  6
 16 18  1  0
 17 16  1  0
 18 20  1  0
 18 19  1  1
 20 22  1  0
 21 20  2  0
M  END
$$$$
