VTT.pdb
     RDKit          3D

 22 21  0  0  1  0  0  0  0  0999 V2000
   24.1492  -14.2876  -15.8507 C   0  0  0  0  0  0  0  0  0  0  0  0
   23.6087  -12.9149  -16.1447 C   0  0  2  0  0  0  0  0  0  0  0  0
   24.3875  -11.8801  -15.3819 C   0  0  0  0  0  0  0  0  0  0  0  0
   22.1245  -12.8109  -15.9059 C   0  0  2  0  0  0  0  0  0  0  0  0
   21.4783  -13.7815  -16.7626 N   0  0  0  0  0  0  0  0  0  0  0  0
   21.5883  -11.4717  -16.2163 C   0  0  0  0  0  0  0  0  0  0  0  0
   21.5633  -11.0166  -17.3887 O   0  0  0  0  0  0  0  0  0  0  0  0
   18.4331   -8.0579  -14.8875 C   0  0  0  0  0  0  0  0  0  0  0  0
   19.0789   -9.4311  -14.8080 C   0  0  1  0  0  0  0  0  0  0  0  0
   18.3072  -10.2830  -15.5933 O   0  0  0  0  0  0  0  0  0  0  0  0
   20.5113   -9.3618  -15.3519 C   0  0  2  0  0  0  0  0  0  0  0  0
   21.0867  -10.6725  -15.1691 N   0  0  0  0  0  0  0  0  0  0  0  0
   21.2810   -8.2968  -14.7167 C   0  0  0  0  0  0  0  0  0  0  0  0
   21.6656   -8.4258  -13.5305 O   0  0  0  0  0  0  0  0  0  0  0  0
   24.3069   -6.0946  -16.2606 C   0  0  0  0  0  0  0  0  0  0  0  0
   23.2096   -5.2500  -15.6728 C   0  0  1  0  0  0  0  0  0  0  0  0
   22.3986   -4.8360  -16.7379 O   0  0  0  0  0  0  0  0  0  0  0  0
   22.3724   -6.0783  -14.7098 C   0  0  2  0  0  0  0  0  0  0  0  0
   21.6229   -7.0964  -15.3906 N   0  0  0  0  0  0  0  0  0  0  0  0
   21.4797   -5.1204  -13.9877 C   0  0  0  0  0  0  0  0  0  0  0  0
   20.2540   -5.1055  -14.1660 O   0  0  0  0  0  0  0  0  0  0  0  0
   22.0666   -4.2321  -13.0971 O   0  0  0  0  0  0  0  0  0  0  0  0
  2  1  1  1
  2  3  1  0
  4  2  1  0
  4  6  1  0
  4  5  1  6
  6  7  2  0
  6 12  1  0
  9 11  1  0
  9  8  1  6
 10  9  1  0
 11 13  1  0
 11 12  1  1
 13 19  1  0
 13 14  2  0
 16 15  1  6
 16 18  1  0
 17 16  1  0
 18 20  1  0
 18 19  1  6
 20 22  1  0
 21 20  2  0
M  END
$$$$
