VTT.pdb
     RDKit          3D

 22 21  0  0  1  0  0  0  0  0999 V2000
   22.2749  -15.3716  -17.0176 C   0  0  0  0  0  0  0  0  0  0  0  0
   21.2455  -14.9702  -18.0385 C   0  0  2  0  0  0  0  0  0  0  0  0
   21.4277  -15.7720  -19.2967 C   0  0  0  0  0  0  0  0  0  0  0  0
   21.2317  -13.4859  -18.2980 C   0  0  2  0  0  0  0  0  0  0  0  0
   22.4112  -13.1704  -19.0743 N   0  0  0  0  0  0  0  0  0  0  0  0
   21.2527  -12.6887  -17.0565 C   0  0  0  0  0  0  0  0  0  0  0  0
   20.4431  -12.8942  -16.1161 O   0  0  0  0  0  0  0  0  0  0  0  0
   24.1247  -12.0670  -14.7948 C   0  0  0  0  0  0  0  0  0  0  0  0
   23.7182  -10.7047  -15.3315 C   0  0  1  0  0  0  0  0  0  0  0  0
   24.5600  -10.4296  -16.4056 O   0  0  0  0  0  0  0  0  0  0  0  0
   22.2584  -10.7475  -15.8000 C   0  0  2  0  0  0  0  0  0  0  0  0
   22.2086  -11.6625  -16.9147 N   0  0  0  0  0  0  0  0  0  0  0  0
   21.7528   -9.4162  -16.1196 C   0  0  0  0  0  0  0  0  0  0  0  0
   22.1737   -8.8153  -17.1362 O   0  0  0  0  0  0  0  0  0  0  0  0
   18.4305   -8.2359  -17.0768 C   0  0  0  0  0  0  0  0  0  0  0  0
   18.8159   -7.4104  -15.8797 C   0  0  1  0  0  0  0  0  0  0  0  0
   18.2018   -7.9969  -14.7651 O   0  0  0  0  0  0  0  0  0  0  0  0
   20.3244   -7.4453  -15.6856 C   0  0  2  0  0  0  0  0  0  0  0  0
   20.7874   -8.7541  -15.3187 N   0  0  0  0  0  0  0  0  0  0  0  0
   20.6433   -6.4288  -14.6363 C   0  0  0  0  0  0  0  0  0  0  0  0
   21.0655   -6.7521  -13.5177 O   0  0  0  0  0  0  0  0  0  0  0  0
   20.4517   -5.0904  -14.9503 O   0  0  0  0  0  0  0  0  0  0  0  0
  2  1  1  1
  2  3  1  0
  4  2  1  0
  4  6  1  0
  4  5  1  6
  6  7  2  0
  6 12  1  0
  9 11  1  0
  9  8  1  6
 10  9  1  0
 11 13  1  0
 11 12  1  6
 13 19  1  0
 13 14  2  0
 16 15  1  6
 16 18  1  0
 17 16  1  0
 18 20  1  0
 18 19  1  1
 20 22  1  0
 21 20  2  0
M  END
$$$$
