SMR.pdb
     RDKit          3D

 26 25  0  0  1  0  0  0  0  0999 V2000
    8.2075  -15.7564   19.5184 O   0  0  0  0  0  0  0  0  0  0  0  0
    7.0745  -14.9497   19.4323 C   0  0  0  0  0  0  0  0  0  0  0  0
    7.4539  -13.5459   19.8044 C   0  0  2  0  0  0  0  0  0  0  0  0
    8.3548  -13.0041   18.8198 N   0  0  0  0  0  0  0  0  0  0  0  0
    8.0847  -13.5623   21.1490 C   0  0  0  0  0  0  0  0  0  0  0  0
    9.3366  -13.5047   21.2439 O   0  0  0  0  0  0  0  0  0  0  0  0
    6.6004  -10.3728   26.9173 C   0  0  0  0  0  0  0  0  0  0  0  0
    6.4407  -12.1496   27.1022 S   0  0  0  0  0  0  0  0  0  0  0  0
    7.6406  -12.9498   25.9779 C   0  0  0  0  0  0  0  0  0  0  0  0
    6.9841  -13.0567   24.6357 C   0  0  0  0  0  0  0  0  0  0  0  0
    7.9459  -13.6473   23.6051 C   0  0  2  0  0  0  0  0  0  0  0  0
    7.2853  -13.6426   22.3384 N   0  0  0  0  0  0  0  0  0  0  0  0
    8.2166  -15.0435   24.0261 C   0  0  0  0  0  0  0  0  0  0  0  0
    7.2680  -15.8782   23.9921 O   0  0  0  0  0  0  0  0  0  0  0  0
   13.1977  -20.6535   21.3458 N   0  0  0  0  0  0  0  0  0  0  0  0
   13.0865  -19.3257   20.8263 C   0  0  0  0  0  0  0  0  0  0  0  0
   14.1398  -18.7406   20.3390 N   0  0  0  0  0  0  0  0  0  0  0  0
   11.8810  -18.6094   20.8174 N   0  0  0  0  0  0  0  0  0  0  0  0
   10.9144  -18.8104   21.9217 C   0  0  0  0  0  0  0  0  0  0  0  0
   10.7994  -17.5122   22.6075 C   0  0  0  0  0  0  0  0  0  0  0  0
   10.8495  -17.4223   24.0629 C   0  0  0  0  0  0  0  0  0  0  0  0
    9.6965  -16.9588   24.8262 C   0  0  2  0  0  0  0  0  0  0  0  0
    9.4557  -15.5198   24.4631 N   0  0  0  0  0  0  0  0  0  0  0  0
    9.7827  -16.9540   26.2587 C   0  0  0  0  0  0  0  0  0  0  0  0
    9.4518  -18.1177   26.9876 O   0  0  0  0  0  0  0  0  0  0  0  0
   10.1313  -15.9915   26.9489 O   0  0  0  0  0  0  0  0  0  0  0  0
  2  3  1  0
  2  1  1  0
  3  4  1  6
  5 12  1  0
  5  3  1  0
  6  5  2  0
  7  8  1  0
  8  9  1  0
  9 10  1  0
 11 10  1  1
 11 12  1  0
 13 11  1  0
 14 13  2  0
 16 15  1  0
 17 16  2  0
 18 16  1  0
 19 18  1  0
 20 19  1  0
 21 20  1  0
 22 21  1  6
 22 24  1  0
 22 23  1  0
 23 13  1  0
 24 25  1  0
 26 24  2  0
M  END
$$$$
