SMR.pdb
     RDKit          3D

 26 25  0  0  1  0  0  0  0  0999 V2000
    7.7800  -17.1490   20.7109 O   0  0  0  0  0  0  0  0  0  0  0  0
    6.7342  -16.2584   20.4762 C   0  0  0  0  0  0  0  0  0  0  0  0
    7.2806  -14.8605   20.4894 C   0  0  2  0  0  0  0  0  0  0  0  0
    8.1375  -14.6582   19.3495 N   0  0  0  0  0  0  0  0  0  0  0  0
    8.0256  -14.6509   21.7573 C   0  0  0  0  0  0  0  0  0  0  0  0
    9.2819  -14.6830   21.7471 O   0  0  0  0  0  0  0  0  0  0  0  0
    5.7499  -12.2494   27.7787 C   0  0  0  0  0  0  0  0  0  0  0  0
    6.9186  -11.4634   26.6684 S   0  0  0  0  0  0  0  0  0  0  0  0
    6.8216  -12.3066   25.0487 C   0  0  0  0  0  0  0  0  0  0  0  0
    7.1630  -13.7467   25.2797 C   0  0  0  0  0  0  0  0  0  0  0  0
    8.0975  -14.2663   24.1874 C   0  0  2  0  0  0  0  0  0  0  0  0
    7.3312  -14.4128   22.9906 N   0  0  0  0  0  0  0  0  0  0  0  0
    8.5841  -15.5927   24.6387 C   0  0  0  0  0  0  0  0  0  0  0  0
    7.7717  -16.5611   24.6502 O   0  0  0  0  0  0  0  0  0  0  0  0
   13.3557  -22.1207   25.5878 N   0  0  0  0  0  0  0  0  0  0  0  0
   12.7253  -21.9193   24.3200 C   0  0  0  0  0  0  0  0  0  0  0  0
   12.4506  -22.9470   23.5733 N   0  0  0  0  0  0  0  0  0  0  0  0
   12.3846  -20.6497   23.8316 N   0  0  0  0  0  0  0  0  0  0  0  0
   13.1593  -19.4710   24.2841 C   0  0  0  0  0  0  0  0  0  0  0  0
   12.3034  -18.7649   25.2526 C   0  0  0  0  0  0  0  0  0  0  0  0
   11.5419  -17.5829   24.8629 C   0  0  0  0  0  0  0  0  0  0  0  0
   10.3207  -17.2109   25.5682 C   0  0  2  0  0  0  0  0  0  0  0  0
    9.8894  -15.8642   25.0577 N   0  0  0  0  0  0  0  0  0  0  0  0
   10.3771  -17.0493   26.9930 C   0  0  0  0  0  0  0  0  0  0  0  0
   10.4330  -18.1866   27.8287 O   0  0  0  0  0  0  0  0  0  0  0  0
   10.3804  -15.9677   27.5884 O   0  0  0  0  0  0  0  0  0  0  0  0
  2  3  1  0
  2  1  1  0
  3  4  1  6
  5 12  1  0
  5  3  1  0
  6  5  2  0
  7  8  1  0
  8  9  1  0
  9 10  1  0
 11 10  1  1
 11 12  1  0
 13 11  1  0
 14 13  2  0
 16 15  1  0
 17 16  2  0
 18 16  1  0
 19 18  1  0
 20 19  1  0
 21 20  1  0
 22 21  1  6
 22 24  1  0
 22 23  1  0
 23 13  1  0
 24 25  1  0
 26 24  2  0
M  END
$$$$
