SMR.pdb
     RDKit          3D

 26 25  0  0  1  0  0  0  0  0999 V2000
   10.8143  -18.2206   26.4711 O   0  0  0  0  0  0  0  0  0  0  0  0
   10.6142  -17.7905   27.7814 C   0  0  0  0  0  0  0  0  0  0  0  0
    9.2209  -18.1585   28.2012 C   0  0  2  0  0  0  0  0  0  0  0  0
    9.1226  -19.5846   28.3780 N   0  0  0  0  0  0  0  0  0  0  0  0
    8.2690  -17.6855   27.1637 C   0  0  0  0  0  0  0  0  0  0  0  0
    7.6248  -18.5268   26.4880 O   0  0  0  0  0  0  0  0  0  0  0  0
    5.9313  -11.9131   27.2730 C   0  0  0  0  0  0  0  0  0  0  0  0
    7.5132  -11.8449   26.4306 S   0  0  0  0  0  0  0  0  0  0  0  0
    8.0220  -13.5560   26.0343 C   0  0  0  0  0  0  0  0  0  0  0  0
    6.8013  -14.4168   26.1473 C   0  0  0  0  0  0  0  0  0  0  0  0
    7.1484  -15.8866   25.9118 C   0  0  2  0  0  0  0  0  0  0  0  0
    8.0757  -16.2837   26.9234 N   0  0  0  0  0  0  0  0  0  0  0  0
    7.7944  -15.9636   24.5789 C   0  0  0  0  0  0  0  0  0  0  0  0
    7.1054  -15.6802   23.5577 O   0  0  0  0  0  0  0  0  0  0  0  0
    7.9716  -11.8860   18.9994 N   0  0  0  0  0  0  0  0  0  0  0  0
    8.0293  -13.1522   18.3371 C   0  0  0  0  0  0  0  0  0  0  0  0
    7.3336  -13.3390   17.2553 N   0  0  0  0  0  0  0  0  0  0  0  0
    8.8083  -14.2211   18.8031 N   0  0  0  0  0  0  0  0  0  0  0  0
    9.6071  -14.0467   20.0382 C   0  0  0  0  0  0  0  0  0  0  0  0
    9.0251  -14.9608   21.0356 C   0  0  0  0  0  0  0  0  0  0  0  0
    9.6294  -15.1206   22.3539 C   0  0  0  0  0  0  0  0  0  0  0  0
    9.7246  -16.4336   22.9816 C   0  0  2  0  0  0  0  0  0  0  0  0
    9.1250  -16.3283   24.3562 N   0  0  0  0  0  0  0  0  0  0  0  0
   11.0280  -16.9912   23.2044 C   0  0  0  0  0  0  0  0  0  0  0  0
   11.9575  -16.3053   24.0171 O   0  0  0  0  0  0  0  0  0  0  0  0
   11.4372  -18.0573   22.7350 O   0  0  0  0  0  0  0  0  0  0  0  0
  2  3  1  0
  2  1  1  0
  3  4  1  6
  5 12  1  0
  5  3  1  0
  6  5  2  0
  7  8  1  0
  8  9  1  0
  9 10  1  0
 11 10  1  1
 11 12  1  0
 13 11  1  0
 14 13  2  0
 16 15  1  0
 17 16  2  0
 18 16  1  0
 19 18  1  0
 20 19  1  0
 21 20  1  0
 22 21  1  1
 22 24  1  0
 22 23  1  0
 23 13  1  0
 24 25  1  0
 26 24  2  0
M  END
$$$$
