SMR.pdb
     RDKit          3D

 26 25  0  0  1  0  0  0  0  0999 V2000
    7.6847  -14.7067   19.2110 O   0  0  0  0  0  0  0  0  0  0  0  0
    6.5628  -15.0024   19.9830 C   0  0  0  0  0  0  0  0  0  0  0  0
    6.9003  -16.1352   20.9080 C   0  0  2  0  0  0  0  0  0  0  0  0
    5.6969  -16.6587   21.5015 N   0  0  0  0  0  0  0  0  0  0  0  0
    7.8337  -15.6381   21.9511 C   0  0  0  0  0  0  0  0  0  0  0  0
    9.0048  -15.3161   21.6281 O   0  0  0  0  0  0  0  0  0  0  0  0
    7.4227  -11.2745   27.4026 C   0  0  0  0  0  0  0  0  0  0  0  0
    6.2932  -12.4448   26.6469 S   0  0  0  0  0  0  0  0  0  0  0  0
    7.0823  -13.1032   25.1344 C   0  0  0  0  0  0  0  0  0  0  0  0
    7.5875  -14.4749   25.4616 C   0  0  0  0  0  0  0  0  0  0  0  0
    8.3653  -15.0633   24.2847 C   0  0  2  0  0  0  0  0  0  0  0  0
    7.4167  -15.5208   23.3194 N   0  0  0  0  0  0  0  0  0  0  0  0
    9.1366  -16.2133   24.8162 C   0  0  0  0  0  0  0  0  0  0  0  0
    8.5232  -17.2928   25.0532 O   0  0  0  0  0  0  0  0  0  0  0  0
   15.7676  -20.1189   22.9017 N   0  0  0  0  0  0  0  0  0  0  0  0
   15.0838  -19.5494   21.7821 C   0  0  0  0  0  0  0  0  0  0  0  0
   15.1230  -20.1570   20.6338 N   0  0  0  0  0  0  0  0  0  0  0  0
   14.3634  -18.3488   21.8594 N   0  0  0  0  0  0  0  0  0  0  0  0
   14.3300  -17.6089   23.1422 C   0  0  0  0  0  0  0  0  0  0  0  0
   13.0139  -17.8869   23.7419 C   0  0  0  0  0  0  0  0  0  0  0  0
   12.6316  -17.3030   25.0232 C   0  0  0  0  0  0  0  0  0  0  0  0
   11.2671  -17.4209   25.5242 C   0  0  2  0  0  0  0  0  0  0  0  0
   10.5091  -16.2011   25.0793 N   0  0  0  0  0  0  0  0  0  0  0  0
   11.0624  -17.4681   26.9438 C   0  0  0  0  0  0  0  0  0  0  0  0
   11.2507  -18.6813   27.6421 O   0  0  0  0  0  0  0  0  0  0  0  0
   10.7217  -16.5124   27.6473 O   0  0  0  0  0  0  0  0  0  0  0  0
  2  3  1  0
  2  1  1  0
  3  4  1  1
  5 12  1  0
  5  3  1  0
  6  5  2  0
  7  8  1  0
  8  9  1  0
  9 10  1  0
 11 10  1  1
 11 12  1  0
 13 11  1  0
 14 13  2  0
 16 15  1  0
 17 16  2  0
 18 16  1  0
 19 18  1  0
 20 19  1  0
 21 20  1  0
 22 21  1  1
 22 24  1  0
 22 23  1  0
 23 13  1  0
 24 25  1  0
 26 24  2  0
M  END
$$$$
