SMR.pdb
     RDKit          3D

 26 25  0  0  1  0  0  0  0  0999 V2000
    6.9823  -16.8536   20.1649 O   0  0  0  0  0  0  0  0  0  0  0  0
    6.0783  -15.8140   20.3752 C   0  0  0  0  0  0  0  0  0  0  0  0
    6.8142  -14.5095   20.2778 C   0  0  2  0  0  0  0  0  0  0  0  0
    7.5208  -14.4374   19.0248 N   0  0  0  0  0  0  0  0  0  0  0  0
    7.7535  -14.4044   21.4237 C   0  0  0  0  0  0  0  0  0  0  0  0
    8.9891  -14.5120   21.2204 O   0  0  0  0  0  0  0  0  0  0  0  0
    5.9171  -12.2335   27.1453 C   0  0  0  0  0  0  0  0  0  0  0  0
    7.6920  -12.2093   27.4021 S   0  0  0  0  0  0  0  0  0  0  0  0
    8.4602  -13.3301   26.1783 C   0  0  0  0  0  0  0  0  0  0  0  0
    7.5547  -13.3684   24.9856 C   0  0  0  0  0  0  0  0  0  0  0  0
    8.2181  -14.1053   23.8223 C   0  0  2  0  0  0  0  0  0  0  0  0
    7.2698  -14.1821   22.7566 N   0  0  0  0  0  0  0  0  0  0  0  0
    8.5389  -15.4690   24.3095 C   0  0  0  0  0  0  0  0  0  0  0  0
    7.5901  -16.2114   24.6920 O   0  0  0  0  0  0  0  0  0  0  0  0
   14.0410  -21.4504   25.4143 N   0  0  0  0  0  0  0  0  0  0  0  0
   14.7283  -20.2551   25.0347 C   0  0  0  0  0  0  0  0  0  0  0  0
   15.8816  -19.9848   25.5695 N   0  0  0  0  0  0  0  0  0  0  0  0
   14.2131  -19.3433   24.1021 N   0  0  0  0  0  0  0  0  0  0  0  0
   12.9671  -19.6811   23.3757 C   0  0  0  0  0  0  0  0  0  0  0  0
   11.8587  -19.1920   24.2132 C   0  0  0  0  0  0  0  0  0  0  0  0
   11.2604  -17.8817   23.9804 C   0  0  0  0  0  0  0  0  0  0  0  0
   10.0905  -17.4464   24.7347 C   0  0  2  0  0  0  0  0  0  0  0  0
    9.8257  -16.0097   24.3798 N   0  0  0  0  0  0  0  0  0  0  0  0
   10.1613  -17.4510   26.1679 C   0  0  0  0  0  0  0  0  0  0  0  0
   10.7062  -16.3402   26.8492 O   0  0  0  0  0  0  0  0  0  0  0  0
    9.7780  -18.3700   26.8979 O   0  0  0  0  0  0  0  0  0  0  0  0
  2  3  1  0
  2  1  1  0
  3  4  1  6
  5 12  1  0
  5  3  1  0
  6  5  2  0
  7  8  1  0
  8  9  1  0
  9 10  1  0
 11 10  1  1
 11 12  1  0
 13 11  1  0
 14 13  2  0
 16 15  1  0
 17 16  2  0
 18 16  1  0
 19 18  1  0
 20 19  1  0
 21 20  1  0
 22 21  1  6
 22 24  1  0
 22 23  1  0
 23 13  1  0
 24 25  1  0
 26 24  2  0
M  END
$$$$
