RGT.pdb
     RDKit          3D

 23 22  0  0  1  0  0  0  0  0999 V2000
    8.2947  -12.8116   21.1823 N   0  0  0  0  0  0  0  0  0  0  0  0
    9.1712  -12.8918   20.0635 C   0  0  0  0  0  0  0  0  0  0  0  0
    9.6870  -11.7965   19.5803 N   0  0  0  0  0  0  0  0  0  0  0  0
    9.5128  -14.1158   19.4447 N   0  0  0  0  0  0  0  0  0  0  0  0
    8.6935  -14.7418   18.4335 C   0  0  0  0  0  0  0  0  0  0  0  0
    7.2766  -14.8944   19.0256 C   0  0  0  0  0  0  0  0  0  0  0  0
    7.2412  -16.1885   19.7690 C   0  0  0  0  0  0  0  0  0  0  0  0
    6.6688  -16.0555   21.1451 C   0  0  2  0  0  0  0  0  0  0  0  0
    6.3631  -14.6560   21.4478 N   0  0  0  0  0  0  0  0  0  0  0  0
    7.4768  -16.6765   22.1875 C   0  0  0  0  0  0  0  0  0  0  0  0
    7.5370  -17.9379   22.2511 O   0  0  0  0  0  0  0  0  0  0  0  0
   10.3208  -11.8368   18.7450 N   0  0  0  0  0  0  0  0  0  0  0  0
    8.2197  -15.9360   23.1611 C   0  0  0  0  0  0  0  0  0  0  0  0
    8.9331  -16.6244   24.1807 C   0  0  0  0  0  0  0  0  0  0  0  0
    9.6333  -15.7079   25.1198 O   0  0  0  0  0  0  0  0  0  0  0  0
    9.8608  -14.5075   24.8858 C   0  0  0  0  0  0  0  0  0  0  0  0
    9.0923  -13.5284   26.7842 C   0  0  2  0  0  0  0  0  0  0  0  0
    9.6052  -14.4022   27.9037 O   0  0  0  0  0  0  0  0  0  0  0  0
    8.5010  -15.0760   28.4440 C   0  0  2  0  0  0  0  0  0  0  0  0
   10.6281  -15.4035   27.4042 N   0  0  0  0  0  0  0  0  0  0  0  0
   10.0655  -16.2457   26.3591 C   0  0  0  0  0  0  0  0  0  0  0  0
   11.2083  -16.2028   28.4952 O   0  0  0  0  0  0  0  0  0  0  0  0
   11.9552  -15.5903   29.4743 O   0  0  0  0  0  0  0  0  0  0  0  0
  2  4  1  0
  2  1  1  0
  3  2  2  0
  5  4  1  0
  6  5  1  0
  7  8  1  0
  7  6  1  0
  8  9  1  1
  8 10  1  0
 10 12  1  0
 10 11  2  0
 12 13  1  0
 14 13  1  0
 14 20  1  0
 15 14  2  0
 17 16  1  1
 18 17  1  0
 19 21  1  0
 19 20  1  1
 19 17  1  0
 21 22  1  0
 23 21  2  0
M  END
$$$$
