RGT.pdb
     RDKit          3D

 23 22  0  0  1  0  0  0  0  0999 V2000
    7.1686  -12.6294   18.3693 N   0  0  0  0  0  0  0  0  0  0  0  0
    8.0890  -12.5841   19.4544 C   0  0  0  0  0  0  0  0  0  0  0  0
    8.8384  -11.5288   19.6085 N   0  0  0  0  0  0  0  0  0  0  0  0
    8.2304  -13.6403   20.3829 N   0  0  0  0  0  0  0  0  0  0  0  0
    7.3852  -14.8113   20.3773 C   0  0  0  0  0  0  0  0  0  0  0  0
    7.8094  -15.6848   21.5767 C   0  0  0  0  0  0  0  0  0  0  0  0
    8.1148  -17.0477   21.0497 C   0  0  0  0  0  0  0  0  0  0  0  0
    8.5645  -17.9979   22.1146 C   0  0  2  0  0  0  0  0  0  0  0  0
    7.5379  -18.1437   23.1482 N   0  0  0  0  0  0  0  0  0  0  0  0
    9.8697  -17.6811   22.6812 C   0  0  0  0  0  0  0  0  0  0  0  0
   10.8581  -17.5323   21.9067 O   0  0  0  0  0  0  0  0  0  0  0  0
    9.5292  -11.4842   20.3971 N   0  0  0  0  0  0  0  0  0  0  0  0
   10.1082  -17.5250   24.0837 C   0  0  0  0  0  0  0  0  0  0  0  0
   11.2220  -16.7626   24.5317 C   0  0  0  0  0  0  0  0  0  0  0  0
   10.8911  -15.8650   25.6705 O   0  0  0  0  0  0  0  0  0  0  0  0
   10.6448  -14.6511   25.5551 C   0  0  0  0  0  0  0  0  0  0  0  0
    9.2048  -13.9449   27.0000 C   0  0  2  0  0  0  0  0  0  0  0  0
    9.2949  -14.9488   28.1242 O   0  0  0  0  0  0  0  0  0  0  0  0
    8.2889  -15.9018   27.9118 C   0  0  2  0  0  0  0  0  0  0  0  0
   10.6504  -15.6269   28.1577 N   0  0  0  0  0  0  0  0  0  0  0  0
   10.8565  -16.4384   26.9673 C   0  0  0  0  0  0  0  0  0  0  0  0
   10.8574  -16.4042   29.3901 O   0  0  0  0  0  0  0  0  0  0  0  0
   10.9186  -15.7630   30.6054 O   0  0  0  0  0  0  0  0  0  0  0  0
  2  4  1  0
  2  1  1  0
  3  2  2  0
  5  4  1  0
  6  5  1  0
  7  8  1  0
  7  6  1  0
  8  9  1  1
  8 10  1  0
 10 12  1  0
 10 11  2  0
 12 13  1  0
 14 13  1  0
 14 20  1  0
 15 14  2  0
 17 16  1  1
 18 17  1  0
 19 21  1  0
 19 20  1  1
 19 17  1  0
 21 22  1  0
 23 21  2  0
M  END
$$$$
