RGT.pdb
     RDKit          3D

 23 22  0  0  1  0  0  0  0  0999 V2000
   15.4003  -14.2381   16.0084 N   0  0  0  0  0  0  0  0  0  0  0  0
   15.0489  -15.1616   17.0332 C   0  0  0  0  0  0  0  0  0  0  0  0
   15.9092  -15.4208   17.9775 N   0  0  0  0  0  0  0  0  0  0  0  0
   13.7979  -15.8180   17.0761 N   0  0  0  0  0  0  0  0  0  0  0  0
   12.5583  -15.1316   17.3556 C   0  0  0  0  0  0  0  0  0  0  0  0
   11.8329  -15.9323   18.4575 C   0  0  0  0  0  0  0  0  0  0  0  0
   10.4380  -15.4077   18.5446 C   0  0  0  0  0  0  0  0  0  0  0  0
   10.3119  -14.2355   19.4660 C   0  0  2  0  0  0  0  0  0  0  0  0
   11.5826  -13.9664   20.1416 N   0  0  0  0  0  0  0  0  0  0  0  0
    9.2028  -14.3356   20.4068 C   0  0  0  0  0  0  0  0  0  0  0  0
    8.0308  -14.5019   19.9623 O   0  0  0  0  0  0  0  0  0  0  0  0
   15.6811  -16.1286   18.7179 N   0  0  0  0  0  0  0  0  0  0  0  0
    9.3589  -14.2561   21.8272 C   0  0  0  0  0  0  0  0  0  0  0  0
    8.2411  -14.4857   22.6759 C   0  0  0  0  0  0  0  0  0  0  0  0
    8.5449  -14.2509   24.1128 O   0  0  0  0  0  0  0  0  0  0  0  0
    9.6904  -14.0762   24.5656 C   0  0  0  0  0  0  0  0  0  0  0  0
    6.0767  -11.8273   26.1571 C   0  0  2  0  0  0  0  0  0  0  0  0
    6.3504  -13.1132   26.8995 O   0  0  0  0  0  0  0  0  0  0  0  0
    5.2455  -13.9523   26.6986 C   0  0  2  0  0  0  0  0  0  0  0  0
    7.6108  -13.7891   26.3964 N   0  0  0  0  0  0  0  0  0  0  0  0
    7.4527  -14.2260   25.0173 C   0  0  0  0  0  0  0  0  0  0  0  0
    8.0430  -14.8907   27.2713 O   0  0  0  0  0  0  0  0  0  0  0  0
    8.5047  -14.6218   28.5387 O   0  0  0  0  0  0  0  0  0  0  0  0
  2  4  1  0
  2  1  1  0
  3  2  2  0
  5  4  1  0
  6  5  1  0
  7  8  1  0
  7  6  1  0
  8  9  1  1
  8 10  1  0
 10 12  1  0
 10 11  2  0
 12 13  1  0
 14 13  1  0
 14 20  1  0
 15 14  2  0
 17 16  1  1
 18 17  1  0
 19 21  1  0
 19 20  1  1
 19 17  1  0
 21 22  1  0
 23 21  2  0
M  END
$$$$
