RGT.pdb
     RDKit          3D

 23 22  0  0  1  0  0  0  0  0999 V2000
   14.7480  -19.8768   20.9289 N   0  0  0  0  0  0  0  0  0  0  0  0
   14.5153  -20.8333   19.9006 C   0  0  0  0  0  0  0  0  0  0  0  0
   15.3769  -21.7945   19.7198 N   0  0  0  0  0  0  0  0  0  0  0  0
   13.3820  -20.7901   19.0572 N   0  0  0  0  0  0  0  0  0  0  0  0
   12.0471  -20.5338   19.5453 C   0  0  0  0  0  0  0  0  0  0  0  0
   11.9817  -19.0406   19.9295 C   0  0  0  0  0  0  0  0  0  0  0  0
   10.6029  -18.7699   20.4334 C   0  0  0  0  0  0  0  0  0  0  0  0
   10.2203  -17.3263   20.3399 C   0  0  2  0  0  0  0  0  0  0  0  0
   11.3984  -16.4669   20.4702 N   0  0  0  0  0  0  0  0  0  0  0  0
    9.1536  -16.9339   21.2527 C   0  0  0  0  0  0  0  0  0  0  0  0
    8.0062  -17.4476   21.1169 O   0  0  0  0  0  0  0  0  0  0  0  0
   15.2157  -22.5124   18.9717 N   0  0  0  0  0  0  0  0  0  0  0  0
    9.3253  -15.9869   22.3119 C   0  0  0  0  0  0  0  0  0  0  0  0
    8.2672  -15.7564   23.2337 C   0  0  0  0  0  0  0  0  0  0  0  0
    8.6367  -14.8059   24.3164 O   0  0  0  0  0  0  0  0  0  0  0  0
    9.8020  -14.4480   24.5647 C   0  0  0  0  0  0  0  0  0  0  0  0
    6.0856  -11.7056   25.5688 C   0  0  2  0  0  0  0  0  0  0  0  0
    6.5762  -12.6526   26.6376 O   0  0  0  0  0  0  0  0  0  0  0  0
    5.5574  -13.5890   26.8624 C   0  0  2  0  0  0  0  0  0  0  0  0
    7.8462  -13.3627   26.2119 N   0  0  0  0  0  0  0  0  0  0  0  0
    7.5869  -14.2789   25.1112 C   0  0  0  0  0  0  0  0  0  0  0  0
    8.5148  -14.0367   27.3363 O   0  0  0  0  0  0  0  0  0  0  0  0
    9.0254  -13.2959   28.3768 O   0  0  0  0  0  0  0  0  0  0  0  0
  2  4  1  0
  2  1  1  0
  3  2  2  0
  5  4  1  0
  6  5  1  0
  7  8  1  0
  7  6  1  0
  8  9  1  1
  8 10  1  0
 10 12  1  0
 10 11  2  0
 12 13  1  0
 14 13  1  0
 14 20  1  0
 15 14  2  0
 17 16  1  1
 18 17  1  0
 19 21  1  0
 19 20  1  1
 19 17  1  0
 21 22  1  0
 23 21  2  0
M  END
$$$$
