RGT.pdb
     RDKit          3D

 23 22  0  0  1  0  0  0  0  0999 V2000
    7.3573  -11.8999   20.3030 N   0  0  0  0  0  0  0  0  0  0  0  0
    7.9954  -12.9334   19.5605 C   0  0  0  0  0  0  0  0  0  0  0  0
    8.5455  -12.6459   18.4143 N   0  0  0  0  0  0  0  0  0  0  0  0
    8.0617  -14.2711   20.0118 N   0  0  0  0  0  0  0  0  0  0  0  0
    9.0719  -15.2024   19.5669 C   0  0  0  0  0  0  0  0  0  0  0  0
   10.1565  -15.2560   20.6633 C   0  0  0  0  0  0  0  0  0  0  0  0
   10.5333  -16.6886   20.8481 C   0  0  0  0  0  0  0  0  0  0  0  0
    9.8622  -17.3213   22.0263 C   0  0  2  0  0  0  0  0  0  0  0  0
    8.4326  -17.0056   22.0415 N   0  0  0  0  0  0  0  0  0  0  0  0
   10.5009  -17.0265   23.3032 C   0  0  0  0  0  0  0  0  0  0  0  0
   11.7382  -17.2486   23.4391 O   0  0  0  0  0  0  0  0  0  0  0  0
    9.0548  -13.3872   17.8739 N   0  0  0  0  0  0  0  0  0  0  0  0
    9.8040  -16.4921   24.4332 C   0  0  0  0  0  0  0  0  0  0  0  0
   10.4980  -16.2765   25.6556 C   0  0  0  0  0  0  0  0  0  0  0  0
   10.1071  -17.2363   26.7225 O   0  0  0  0  0  0  0  0  0  0  0  0
    9.2409  -17.0073   27.5856 C   0  0  0  0  0  0  0  0  0  0  0  0
   10.0966  -21.2795   26.0376 C   0  0  2  0  0  0  0  0  0  0  0  0
   10.8597  -20.8796   27.2776 O   0  0  0  0  0  0  0  0  0  0  0  0
   12.2228  -20.8980   26.9505 C   0  0  2  0  0  0  0  0  0  0  0  0
   10.4612  -19.4968   27.7546 N   0  0  0  0  0  0  0  0  0  0  0  0
   10.7694  -18.4902   26.7497 C   0  0  0  0  0  0  0  0  0  0  0  0
   11.0526  -19.1628   29.0602 O   0  0  0  0  0  0  0  0  0  0  0  0
   11.8908  -18.0787   29.1783 O   0  0  0  0  0  0  0  0  0  0  0  0
  2  4  1  0
  2  1  1  0
  3  2  2  0
  5  4  1  0
  6  5  1  0
  7  8  1  0
  7  6  1  0
  8  9  1  1
  8 10  1  0
 10 12  1  0
 10 11  2  0
 12 13  1  0
 14 13  1  0
 14 20  1  0
 15 14  2  0
 17 16  1  1
 18 17  1  0
 19 21  1  0
 19 20  1  1
 19 17  1  0
 21 22  1  0
 23 21  2  0
M  END
$$$$
