RGT.pdb
     RDKit          3D

 23 22  0  0  1  0  0  0  0  0999 V2000
    9.7298  -14.8672   16.3414 N   0  0  0  0  0  0  0  0  0  0  0  0
    8.4116  -14.6152   15.8667 C   0  0  0  0  0  0  0  0  0  0  0  0
    8.1785  -14.6578   14.5849 N   0  0  0  0  0  0  0  0  0  0  0  0
    7.3314  -14.3177   16.7284 N   0  0  0  0  0  0  0  0  0  0  0  0
    7.3179  -13.1708   17.6060 C   0  0  0  0  0  0  0  0  0  0  0  0
    8.3528  -13.4370   18.7194 C   0  0  0  0  0  0  0  0  0  0  0  0
    7.5951  -13.7561   19.9653 C   0  0  0  0  0  0  0  0  0  0  0  0
    7.9457  -15.0946   20.5350 C   0  0  2  0  0  0  0  0  0  0  0  0
    7.3485  -16.1699   19.7409 N   0  0  0  0  0  0  0  0  0  0  0  0
    7.6469  -15.2329   21.9551 C   0  0  0  0  0  0  0  0  0  0  0  0
    6.4405  -15.2331   22.3338 O   0  0  0  0  0  0  0  0  0  0  0  0
    7.1988  -14.5528   14.2241 N   0  0  0  0  0  0  0  0  0  0  0  0
    8.6502  -15.3708   22.9663 C   0  0  0  0  0  0  0  0  0  0  0  0
    8.2668  -15.5495   24.3240 C   0  0  0  0  0  0  0  0  0  0  0  0
    9.4286  -15.6602   25.2460 O   0  0  0  0  0  0  0  0  0  0  0  0
   10.6030  -15.8323   24.8731 C   0  0  0  0  0  0  0  0  0  0  0  0
   10.9879  -14.1290   29.6157 C   0  0  2  0  0  0  0  0  0  0  0  0
    9.8086  -14.5864   28.7913 O   0  0  0  0  0  0  0  0  0  0  0  0
    9.1439  -13.4362   28.3431 C   0  0  1  0  0  0  0  0  0  0  0  0
   10.2488  -15.4236   27.6065 N   0  0  0  0  0  0  0  0  0  0  0  0
    9.1719  -15.5618   26.6374 C   0  0  0  0  0  0  0  0  0  0  0  0
   10.7869  -16.7313   28.0139 O   0  0  0  0  0  0  0  0  0  0  0  0
   10.0279  -17.8672   27.8542 O   0  0  0  0  0  0  0  0  0  0  0  0
  2  4  1  0
  2  1  1  0
  3  2  2  0
  5  4  1  0
  6  5  1  0
  7  8  1  0
  7  6  1  0
  8  9  1  6
  8 10  1  0
 10 12  1  0
 10 11  2  0
 12 13  1  0
 14 13  1  0
 14 20  1  0
 15 14  2  0
 17 16  1  1
 18 17  1  0
 19 21  1  0
 19 20  1  1
 19 17  1  0
 21 22  1  0
 23 21  2  0
M  END
$$$$
