RGT.pdb
     RDKit          3D

 23 22  0  0  1  0  0  0  0  0999 V2000
    8.7986  -13.9484   17.2799 N   0  0  0  0  0  0  0  0  0  0  0  0
    8.9350  -13.3114   18.5456 C   0  0  0  0  0  0  0  0  0  0  0  0
   10.1196  -12.9474   18.9497 N   0  0  0  0  0  0  0  0  0  0  0  0
    7.8351  -13.0517   19.3944 N   0  0  0  0  0  0  0  0  0  0  0  0
    7.1778  -14.0795   20.1673 C   0  0  0  0  0  0  0  0  0  0  0  0
    8.0233  -14.3039   21.4387 C   0  0  0  0  0  0  0  0  0  0  0  0
    7.4042  -15.4342   22.1920 C   0  0  0  0  0  0  0  0  0  0  0  0
    8.2823  -16.6442   22.2547 C   0  0  2  0  0  0  0  0  0  0  0  0
    7.6283  -17.7230   22.9976 N   0  0  0  0  0  0  0  0  0  0  0  0
    9.6275  -16.3772   22.7490 C   0  0  0  0  0  0  0  0  0  0  0  0
   10.3412  -15.5160   22.1592 O   0  0  0  0  0  0  0  0  0  0  0  0
   10.2285  -12.4084   19.8434 N   0  0  0  0  0  0  0  0  0  0  0  0
   10.2024  -17.0400   23.8798 C   0  0  0  0  0  0  0  0  0  0  0  0
   11.5384  -16.7461   24.2686 C   0  0  0  0  0  0  0  0  0  0  0  0
   11.6213  -16.0413   25.5757 O   0  0  0  0  0  0  0  0  0  0  0  0
   12.6803  -15.6285   26.0813 C   0  0  0  0  0  0  0  0  0  0  0  0
    9.6325  -12.9696   26.7554 C   0  0  2  0  0  0  0  0  0  0  0  0
    9.3190  -14.1311   27.6679 O   0  0  0  0  0  0  0  0  0  0  0  0
    8.0871  -14.6604   27.2584 C   0  0  2  0  0  0  0  0  0  0  0  0
   10.3908  -15.2008   27.5956 N   0  0  0  0  0  0  0  0  0  0  0  0
   10.4105  -15.8308   26.2838 C   0  0  0  0  0  0  0  0  0  0  0  0
   10.2653  -16.1931   28.6751 O   0  0  0  0  0  0  0  0  0  0  0  0
   10.4044  -15.8036   29.9869 O   0  0  0  0  0  0  0  0  0  0  0  0
  2  4  1  0
  2  1  1  0
  3  2  2  0
  5  4  1  0
  6  5  1  0
  7  8  1  0
  7  6  1  0
  8  9  1  1
  8 10  1  0
 10 12  1  0
 10 11  2  0
 12 13  1  0
 14 13  1  0
 14 20  1  0
 15 14  2  0
 17 16  1  1
 18 17  1  0
 19 21  1  0
 19 20  1  1
 19 17  1  0
 21 22  1  0
 23 21  2  0
M  END
$$$$
