FCQ.pdb
     RDKit          3D

 27 27  0  0  1  0  0  0  0  0999 V2000
   28.2500  -20.6384  -15.7067 N   0  0  0  0  0  0  0  0  0  0  0  0
   27.4401  -19.8634  -14.8215 C   0  0  1  0  0  0  0  0  0  0  0  0
   26.4264  -18.9937  -15.5334 C   0  0  0  0  0  0  0  0  0  0  0  0
   27.0902  -17.6948  -15.8321 C   0  0  0  0  0  0  0  0  0  0  0  0
   27.0002  -16.6625  -14.9188 C   0  0  0  0  0  0  0  0  0  0  0  0
   27.5880  -15.4391  -15.1304 C   0  0  0  0  0  0  0  0  0  0  0  0
   28.2908  -15.2525  -16.3054 C   0  0  0  0  0  0  0  0  0  0  0  0
   28.4043  -16.2687  -17.2509 C   0  0  0  0  0  0  0  0  0  0  0  0
   27.7960  -17.4782  -16.9910 C   0  0  0  0  0  0  0  0  0  0  0  0
   26.7062  -20.6833  -13.8258 C   0  0  0  0  0  0  0  0  0  0  0  0
   26.1566  -21.7356  -14.2561 O   0  0  0  0  0  0  0  0  0  0  0  0
   26.6199  -20.3141  -12.4600 N   0  0  0  0  0  0  0  0  0  0  0  0
   25.6169  -20.9948  -11.6448 C   0  0  1  0  0  0  0  0  0  0  0  0
   25.8110  -20.4266  -10.2385 C   0  0  0  0  0  0  0  0  0  0  0  0
   24.5465  -21.0722   -9.1378 S   0  0  0  0  0  0  0  0  0  0  0  0
   24.2558  -20.6692  -12.0987 C   0  0  0  0  0  0  0  0  0  0  0  0
   24.0387  -19.4910  -12.5440 O   0  0  0  0  0  0  0  0  0  0  0  0
   20.9765  -18.8719  -15.1681 N   0  0  0  0  0  0  0  0  0  0  0  0
   20.1387  -20.0050  -15.2258 C   0  0  0  0  0  0  0  0  0  0  0  0
   19.0139  -19.8694  -15.8204 O   0  0  0  0  0  0  0  0  0  0  0  0
   20.4612  -21.3110  -14.6677 C   0  0  0  0  0  0  0  0  0  0  0  0
   21.7202  -21.4731  -13.9312 C   0  0  0  0  0  0  0  0  0  0  0  0
   21.8072  -21.1237  -12.5001 C   0  0  2  0  0  0  0  0  0  0  0  0
   23.1720  -21.5584  -12.0824 N   0  0  0  0  0  0  0  0  0  0  0  0
   20.7732  -21.7186  -11.6687 C   0  0  0  0  0  0  0  0  0  0  0  0
   20.9705  -22.8530  -11.1537 O   0  0  0  0  0  0  0  0  0  0  0  0
   19.5878  -21.0838  -11.4173 O   0  0  0  0  0  0  0  0  0  0  0  0
  2  1  1  6
  3  2  1  0
  4  3  1  0
  5  4  2  0
  6  5  1  0
  7  6  2  0
  7  8  1  0
  8  9  2  0
  9  4  1  0
 10  2  1  0
 10 11  2  0
 12 10  1  0
 13 12  1  0
 13 14  1  1
 14 15  1  0
 16 13  1  0
 17 16  2  0
 19 18  1  0
 19 21  1  0
 20 19  2  0
 22 21  1  0
 23 22  1  6
 23 24  1  0
 24 16  1  0
 25 23  1  0
 26 25  2  0
 27 25  1  0
M  END
$$$$
