FCQ.pdb
     RDKit          3D

 27 27  0  0  1  0  0  0  0  0999 V2000
   24.4402  -19.5042  -12.6165 N   0  0  0  0  0  0  0  0  0  0  0  0
   25.3938  -20.5339  -12.8821 C   0  0  1  0  0  0  0  0  0  0  0  0
   25.2733  -21.7244  -11.9553 C   0  0  0  0  0  0  0  0  0  0  0  0
   25.5884  -21.2482  -10.5802 C   0  0  0  0  0  0  0  0  0  0  0  0
   26.9002  -21.2475  -10.1478 C   0  0  0  0  0  0  0  0  0  0  0  0
   27.2613  -20.8218   -8.8926 C   0  0  0  0  0  0  0  0  0  0  0  0
   26.2625  -20.3818   -8.0453 C   0  0  0  0  0  0  0  0  0  0  0  0
   24.9282  -20.3672   -8.4443 C   0  0  0  0  0  0  0  0  0  0  0  0
   24.6179  -20.8047   -9.7144 C   0  0  0  0  0  0  0  0  0  0  0  0
   25.3375  -21.0431  -14.2749 C   0  0  0  0  0  0  0  0  0  0  0  0
   24.3194  -20.7258  -14.9511 O   0  0  0  0  0  0  0  0  0  0  0  0
   26.3673  -21.8448  -14.8279 N   0  0  0  0  0  0  0  0  0  0  0  0
   26.2883  -22.1446  -16.2555 C   0  0  1  0  0  0  0  0  0  0  0  0
   27.6717  -22.6892  -16.6134 C   0  0  0  0  0  0  0  0  0  0  0  0
   28.8806  -21.3610  -16.5763 S   0  0  0  0  0  0  0  0  0  0  0  0
   25.2887  -23.1906  -16.5224 C   0  0  0  0  0  0  0  0  0  0  0  0
   25.1426  -24.1153  -15.6523 O   0  0  0  0  0  0  0  0  0  0  0  0
   21.7228  -25.0645  -14.2350 N   0  0  0  0  0  0  0  0  0  0  0  0
   20.7475  -24.4455  -15.0441 C   0  0  0  0  0  0  0  0  0  0  0  0
   19.5235  -24.6031  -14.7063 O   0  0  0  0  0  0  0  0  0  0  0  0
   21.0303  -23.6397  -16.2239 C   0  0  0  0  0  0  0  0  0  0  0  0
   22.4230  -23.2830  -16.5183 C   0  0  0  0  0  0  0  0  0  0  0  0
   23.1462  -23.9238  -17.6338 C   0  0  2  0  0  0  0  0  0  0  0  0
   24.4771  -23.2500  -17.6640 N   0  0  0  0  0  0  0  0  0  0  0  0
   22.4704  -23.8418  -18.9185 C   0  0  0  0  0  0  0  0  0  0  0  0
   21.5514  -24.6629  -19.1873 O   0  0  0  0  0  0  0  0  0  0  0  0
   22.7932  -22.8939  -19.8506 O   0  0  0  0  0  0  0  0  0  0  0  0
  2  1  1  1
  3  2  1  0
  4  3  1  0
  5  4  2  0
  6  5  1  0
  7  6  2  0
  7  8  1  0
  8  9  2  0
  9  4  1  0
 10  2  1  0
 10 11  2  0
 12 10  1  0
 13 12  1  0
 13 14  1  1
 14 15  1  0
 16 13  1  0
 17 16  2  0
 19 18  1  0
 19 21  1  0
 20 19  2  0
 22 21  1  0
 23 22  1  1
 23 24  1  0
 24 16  1  0
 25 23  1  0
 26 25  2  0
 27 25  1  0
M  END
$$$$
