FCQ.pdb
     RDKit          3D

 27 27  0  0  1  0  0  0  0  0999 V2000
   28.3097  -21.3761  -15.8411 N   0  0  0  0  0  0  0  0  0  0  0  0
   27.5260  -20.4222  -15.1227 C   0  0  1  0  0  0  0  0  0  0  0  0
   26.6678  -19.5498  -16.0133 C   0  0  0  0  0  0  0  0  0  0  0  0
   27.5779  -18.6017  -16.7132 C   0  0  0  0  0  0  0  0  0  0  0  0
   27.9819  -17.4493  -16.0677 C   0  0  0  0  0  0  0  0  0  0  0  0
   28.8198  -16.5322  -16.6541 C   0  0  0  0  0  0  0  0  0  0  0  0
   29.2647  -16.7884  -17.9369 C   0  0  0  0  0  0  0  0  0  0  0  0
   28.8800  -17.9390  -18.6209 C   0  0  0  0  0  0  0  0  0  0  0  0
   28.0375  -18.8282  -17.9883 C   0  0  0  0  0  0  0  0  0  0  0  0
   26.6361  -21.0372  -14.1067 C   0  0  0  0  0  0  0  0  0  0  0  0
   26.0736  -22.1203  -14.4306 O   0  0  0  0  0  0  0  0  0  0  0  0
   26.4214  -20.4484  -12.8354 N   0  0  0  0  0  0  0  0  0  0  0  0
   25.4391  -21.0841  -11.9607 C   0  0  1  0  0  0  0  0  0  0  0  0
   25.6996  -20.4774  -10.5814 C   0  0  0  0  0  0  0  0  0  0  0  0
   24.5021  -21.1076   -9.3998 S   0  0  0  0  0  0  0  0  0  0  0  0
   24.0673  -20.7456  -12.3708 C   0  0  0  0  0  0  0  0  0  0  0  0
   23.8243  -19.5374  -12.7092 O   0  0  0  0  0  0  0  0  0  0  0  0
   18.1797  -24.5522  -13.3735 N   0  0  0  0  0  0  0  0  0  0  0  0
   18.9642  -23.6961  -14.1739 C   0  0  0  0  0  0  0  0  0  0  0  0
   19.1491  -24.0427  -15.3916 O   0  0  0  0  0  0  0  0  0  0  0  0
   19.5693  -22.4513  -13.7206 C   0  0  0  0  0  0  0  0  0  0  0  0
   20.9848  -22.4542  -13.3332 C   0  0  0  0  0  0  0  0  0  0  0  0
   21.6367  -21.2220  -12.8488 C   0  0  2  0  0  0  0  0  0  0  0  0
   22.9998  -21.6530  -12.4216 N   0  0  0  0  0  0  0  0  0  0  0  0
   20.9252  -20.5426  -11.7782 C   0  0  0  0  0  0  0  0  0  0  0  0
   21.1108  -20.9058  -10.5846 O   0  0  0  0  0  0  0  0  0  0  0  0
   20.0606  -19.5106  -12.0204 O   0  0  0  0  0  0  0  0  0  0  0  0
  2  1  1  6
  3  2  1  0
  4  3  1  0
  5  4  2  0
  6  5  1  0
  7  6  2  0
  7  8  1  0
  8  9  2  0
  9  4  1  0
 10  2  1  0
 10 11  2  0
 12 10  1  0
 13 12  1  0
 13 14  1  1
 14 15  1  0
 16 13  1  0
 17 16  2  0
 19 18  1  0
 19 21  1  0
 20 19  2  0
 22 21  1  0
 23 22  1  1
 23 24  1  0
 24 16  1  0
 25 23  1  0
 26 25  2  0
 27 25  1  0
M  END
$$$$
