FCQ.pdb
     RDKit          3D

 27 27  0  0  1  0  0  0  0  0999 V2000
   28.1672  -20.7580  -15.3936 N   0  0  0  0  0  0  0  0  0  0  0  0
   27.3160  -19.9151  -14.6158 C   0  0  1  0  0  0  0  0  0  0  0  0
   26.3927  -19.0526  -15.4490 C   0  0  0  0  0  0  0  0  0  0  0  0
   27.2322  -18.0142  -16.1078 C   0  0  0  0  0  0  0  0  0  0  0  0
   27.5879  -18.1717  -17.4332 C   0  0  0  0  0  0  0  0  0  0  0  0
   28.3598  -17.2532  -18.1023 C   0  0  0  0  0  0  0  0  0  0  0  0
   28.7867  -16.1373  -17.4083 C   0  0  0  0  0  0  0  0  0  0  0  0
   28.4491  -15.9426  -16.0712 C   0  0  0  0  0  0  0  0  0  0  0  0
   27.6723  -16.8939  -15.4449 C   0  0  0  0  0  0  0  0  0  0  0  0
   26.4772  -20.6610  -13.6449 C   0  0  0  0  0  0  0  0  0  0  0  0
   25.9066  -21.7021  -14.0749 O   0  0  0  0  0  0  0  0  0  0  0  0
   26.3176  -20.2360  -12.3021 N   0  0  0  0  0  0  0  0  0  0  0  0
   25.3060  -20.9192  -11.4997 C   0  0  1  0  0  0  0  0  0  0  0  0
   25.6835  -20.6043  -10.0517 C   0  0  0  0  0  0  0  0  0  0  0  0
   27.3795  -21.1069   -9.7383 S   0  0  0  0  0  0  0  0  0  0  0  0
   23.9647  -20.3756  -11.7638 C   0  0  0  0  0  0  0  0  0  0  0  0
   23.8794  -19.1779  -12.2017 O   0  0  0  0  0  0  0  0  0  0  0  0
   20.0207  -20.5220  -15.9975 N   0  0  0  0  0  0  0  0  0  0  0  0
   20.9250  -21.5305  -15.6051 C   0  0  0  0  0  0  0  0  0  0  0  0
   21.0650  -22.5280  -16.3942 O   0  0  0  0  0  0  0  0  0  0  0  0
   21.7109  -21.5163  -14.3790 C   0  0  0  0  0  0  0  0  0  0  0  0
   21.6183  -20.3492  -13.4943 C   0  0  0  0  0  0  0  0  0  0  0  0
   21.4610  -20.5182  -12.0367 C   0  0  2  0  0  0  0  0  0  0  0  0
   22.7651  -21.0757  -11.5733 N   0  0  0  0  0  0  0  0  0  0  0  0
   20.3433  -21.3608  -11.6431 C   0  0  0  0  0  0  0  0  0  0  0  0
   20.5642  -22.5430  -11.2627 O   0  0  0  0  0  0  0  0  0  0  0  0
   19.0515  -20.9114  -11.6637 O   0  0  0  0  0  0  0  0  0  0  0  0
  2  1  1  6
  3  2  1  0
  4  3  1  0
  5  4  2  0
  6  5  1  0
  7  6  2  0
  7  8  1  0
  8  9  2  0
  9  4  1  0
 10  2  1  0
 10 11  2  0
 12 10  1  0
 13 12  1  0
 13 14  1  1
 14 15  1  0
 16 13  1  0
 17 16  2  0
 19 18  1  0
 19 21  1  0
 20 19  2  0
 22 21  1  0
 23 22  1  6
 23 24  1  0
 24 16  1  0
 25 23  1  0
 26 25  2  0
 27 25  1  0
M  END
$$$$
