FCQ.pdb
     RDKit          3D

 27 27  0  0  1  0  0  0  0  0999 V2000
   21.7363  -10.0919  -14.6414 N   0  0  0  0  0  0  0  0  0  0  0  0
   20.8477   -9.1357  -15.2212 C   0  0  1  0  0  0  0  0  0  0  0  0
   19.4053   -9.5929  -15.2561 C   0  0  0  0  0  0  0  0  0  0  0  0
   19.2935  -10.6230  -16.3254 C   0  0  0  0  0  0  0  0  0  0  0  0
   19.2828  -11.9601  -15.9792 C   0  0  0  0  0  0  0  0  0  0  0  0
   19.1823  -12.9618  -16.9139 C   0  0  0  0  0  0  0  0  0  0  0  0
   19.0893  -12.5998  -18.2441 C   0  0  0  0  0  0  0  0  0  0  0  0
   19.0967  -11.2626  -18.6333 C   0  0  0  0  0  0  0  0  0  0  0  0
   19.1995  -10.2950  -17.6565 C   0  0  0  0  0  0  0  0  0  0  0  0
   20.8826   -7.8147  -14.5460 C   0  0  0  0  0  0  0  0  0  0  0  0
   20.8700   -7.8257  -13.2834 O   0  0  0  0  0  0  0  0  0  0  0  0
   20.9277   -6.5973  -15.2705 N   0  0  0  0  0  0  0  0  0  0  0  0
   21.0129   -5.3609  -14.4971 C   0  0  1  0  0  0  0  0  0  0  0  0
   22.4514   -4.8806  -14.6929 C   0  0  0  0  0  0  0  0  0  0  0  0
   22.6884   -3.3045  -13.8639 S   0  0  0  0  0  0  0  0  0  0  0  0
   20.0999   -4.3382  -15.0312 C   0  0  0  0  0  0  0  0  0  0  0  0
   20.0947   -4.1407  -16.2939 O   0  0  0  0  0  0  0  0  0  0  0  0
   14.3680   -3.2410  -12.9187 N   0  0  0  0  0  0  0  0  0  0  0  0
   14.5716   -2.2414  -13.8924 C   0  0  0  0  0  0  0  0  0  0  0  0
   13.5663   -1.5114  -14.1985 O   0  0  0  0  0  0  0  0  0  0  0  0
   15.8357   -1.9766  -14.5655 C   0  0  0  0  0  0  0  0  0  0  0  0
   16.9991   -2.8082  -14.2358 C   0  0  0  0  0  0  0  0  0  0  0  0
   18.3025   -2.5743  -14.8874 C   0  0  2  0  0  0  0  0  0  0  0  0
   19.2278   -3.5603  -14.2568 N   0  0  0  0  0  0  0  0  0  0  0  0
   18.8015   -1.2137  -14.7694 C   0  0  0  0  0  0  0  0  0  0  0  0
   18.2747   -0.2997  -15.4608 O   0  0  0  0  0  0  0  0  0  0  0  0
   19.8252   -0.8857  -13.9233 O   0  0  0  0  0  0  0  0  0  0  0  0
  2  1  1  1
  3  2  1  0
  4  3  1  0
  5  4  2  0
  6  5  1  0
  7  6  2  0
  7  8  1  0
  8  9  2  0
  9  4  1  0
 10  2  1  0
 10 11  2  0
 12 10  1  0
 13 12  1  0
 13 14  1  6
 14 15  1  0
 16 13  1  0
 17 16  2  0
 19 18  1  0
 19 21  1  0
 20 19  2  0
 22 21  1  0
 23 22  1  1
 23 24  1  0
 24 16  1  0
 25 23  1  0
 26 25  2  0
 27 25  1  0
M  END
$$$$
