FCQ.pdb
     RDKit          3D

 27 27  0  0  1  0  0  0  0  0999 V2000
   18.7576  -20.7814  -15.1772 N   0  0  0  0  0  0  0  0  0  0  0  0
   19.6218  -21.5658  -14.3538 C   0  0  1  0  0  0  0  0  0  0  0  0
   20.2722  -20.7788  -13.2365 C   0  0  0  0  0  0  0  0  0  0  0  0
   21.3356  -19.9362  -13.8498 C   0  0  0  0  0  0  0  0  0  0  0  0
   21.0493  -18.6299  -14.1956 C   0  0  0  0  0  0  0  0  0  0  0  0
   21.9824  -17.7977  -14.7647 C   0  0  0  0  0  0  0  0  0  0  0  0
   23.2482  -18.3029  -14.9921 C   0  0  0  0  0  0  0  0  0  0  0  0
   23.5757  -19.6145  -14.6575 C   0  0  0  0  0  0  0  0  0  0  0  0
   22.6034  -20.4093  -14.0886 C   0  0  0  0  0  0  0  0  0  0  0  0
   18.9479  -22.7381  -13.7424 C   0  0  0  0  0  0  0  0  0  0  0  0
   17.9182  -22.5003  -13.0512 O   0  0  0  0  0  0  0  0  0  0  0  0
   19.4263  -24.0607  -13.9183 N   0  0  0  0  0  0  0  0  0  0  0  0
   18.6720  -25.1359  -13.2786 C   0  0  1  0  0  0  0  0  0  0  0  0
   19.0417  -26.3913  -14.0696 C   0  0  0  0  0  0  0  0  0  0  0  0
   18.3104  -27.8388  -13.2968 S   0  0  0  0  0  0  0  0  0  0  0  0
   19.0943  -25.3203  -11.8814 C   0  0  0  0  0  0  0  0  0  0  0  0
   20.0973  -24.6463  -11.4649 O   0  0  0  0  0  0  0  0  0  0  0  0
   16.4674  -24.6966   -7.0644 N   0  0  0  0  0  0  0  0  0  0  0  0
   17.8122  -24.5695   -6.6591 C   0  0  0  0  0  0  0  0  0  0  0  0
   18.0264  -24.2629   -5.4355 O   0  0  0  0  0  0  0  0  0  0  0  0
   18.9672  -24.7672   -7.5241 C   0  0  0  0  0  0  0  0  0  0  0  0
   18.7463  -24.9844   -8.9585 C   0  0  0  0  0  0  0  0  0  0  0  0
   18.9742  -26.3106   -9.5645 C   0  0  2  0  0  0  0  0  0  0  0  0
   18.4756  -26.1821  -10.9649 N   0  0  0  0  0  0  0  0  0  0  0  0
   18.3361  -27.4132   -8.8635 C   0  0  0  0  0  0  0  0  0  0  0  0
   19.0161  -28.1149   -8.0658 O   0  0  0  0  0  0  0  0  0  0  0  0
   17.0127  -27.7144   -9.0339 O   0  0  0  0  0  0  0  0  0  0  0  0
  2  1  1  1
  3  2  1  0
  4  3  1  0
  5  4  2  0
  6  5  1  0
  7  6  2  0
  7  8  1  0
  8  9  2  0
  9  4  1  0
 10  2  1  0
 10 11  2  0
 12 10  1  0
 13 12  1  0
 13 14  1  6
 14 15  1  0
 16 13  1  0
 17 16  2  0
 19 18  1  0
 19 21  1  0
 20 19  2  0
 22 21  1  0
 23 22  1  1
 23 24  1  0
 24 16  1  0
 25 23  1  0
 26 25  2  0
 27 25  1  0
M  END
$$$$
