FCQ.pdb
     RDKit          3D

 27 27  0  0  1  0  0  0  0  0999 V2000
   28.1503  -20.1460  -15.9901 N   0  0  0  0  0  0  0  0  0  0  0  0
   27.3886  -19.5246  -14.9539 C   0  0  1  0  0  0  0  0  0  0  0  0
   26.2671  -18.6485  -15.4690 C   0  0  0  0  0  0  0  0  0  0  0  0
   26.8670  -17.3399  -15.8492 C   0  0  0  0  0  0  0  0  0  0  0  0
   26.9398  -16.3299  -14.9098 C   0  0  0  0  0  0  0  0  0  0  0  0
   27.4804  -15.0991  -15.1926 C   0  0  0  0  0  0  0  0  0  0  0  0
   27.9640  -14.8815  -16.4686 C   0  0  0  0  0  0  0  0  0  0  0  0
   27.9086  -15.8745  -17.4434 C   0  0  0  0  0  0  0  0  0  0  0  0
   27.3564  -17.0927  -17.1092 C   0  0  0  0  0  0  0  0  0  0  0  0
   26.7974  -20.4925  -13.9969 C   0  0  0  0  0  0  0  0  0  0  0  0
   26.3196  -21.5527  -14.4890 O   0  0  0  0  0  0  0  0  0  0  0  0
   26.7650  -20.2500  -12.6007 N   0  0  0  0  0  0  0  0  0  0  0  0
   25.7948  -21.0059  -11.8125 C   0  0  1  0  0  0  0  0  0  0  0  0
   26.1340  -20.6731  -10.3590 C   0  0  0  0  0  0  0  0  0  0  0  0
   24.8319  -21.2697   -9.2748 S   0  0  0  0  0  0  0  0  0  0  0  0
   24.4218  -20.5552  -12.0889 C   0  0  0  0  0  0  0  0  0  0  0  0
   24.1907  -19.2981  -12.0790 O   0  0  0  0  0  0  0  0  0  0  0  0
   20.2189  -20.1372  -17.1781 N   0  0  0  0  0  0  0  0  0  0  0  0
   20.1714  -20.0508  -15.7713 C   0  0  0  0  0  0  0  0  0  0  0  0
   19.5213  -19.0702  -15.2684 O   0  0  0  0  0  0  0  0  0  0  0  0
   20.7982  -20.9938  -14.8552 C   0  0  0  0  0  0  0  0  0  0  0  0
   21.9137  -20.5324  -14.0207 C   0  0  0  0  0  0  0  0  0  0  0  0
   21.9674  -20.8629  -12.5834 C   0  0  2  0  0  0  0  0  0  0  0  0
   23.3409  -21.4038  -12.3664 N   0  0  0  0  0  0  0  0  0  0  0  0
   20.9438  -21.7950  -12.1389 C   0  0  0  0  0  0  0  0  0  0  0  0
   19.7848  -21.3662  -11.8864 O   0  0  0  0  0  0  0  0  0  0  0  0
   21.1929  -23.1319  -11.9906 O   0  0  0  0  0  0  0  0  0  0  0  0
  2  1  1  6
  3  2  1  0
  4  3  1  0
  5  4  2  0
  6  5  1  0
  7  6  2  0
  7  8  1  0
  8  9  2  0
  9  4  1  0
 10  2  1  0
 10 11  2  0
 12 10  1  0
 13 12  1  0
 13 14  1  1
 14 15  1  0
 16 13  1  0
 17 16  2  0
 19 18  1  0
 19 21  1  0
 20 19  2  0
 22 21  1  0
 23 22  1  6
 23 24  1  0
 24 16  1  0
 25 23  1  0
 26 25  2  0
 27 25  1  0
M  END
$$$$
