MTG.pdb
     RDKit          3D

 20 19  0  0  1  0  0  0  0  0999 V2000
   18.1385  -14.3710  -12.1314 C   0  0  0  0  0  0  0  0  0  0  0  0
   16.4876  -14.7817  -12.7021 S   0  0  0  0  0  0  0  0  0  0  0  0
   15.2488  -13.7119  -11.9388 C   0  0  0  0  0  0  0  0  0  0  0  0
   15.6939  -12.2553  -11.9955 C   0  0  0  0  0  0  0  0  0  0  0  0
   14.7063  -11.4410  -11.1942 C   0  0  2  0  0  0  0  0  0  0  0  0
   13.3987  -11.5842  -11.7582 N   0  0  0  0  0  0  0  0  0  0  0  0
   15.1756  -10.0169  -11.2362 C   0  0  0  0  0  0  0  0  0  0  0  0
   14.8293   -9.2737  -12.1914 O   0  0  0  0  0  0  0  0  0  0  0  0
   16.5889   -6.0045   -8.9284 C   0  0  0  0  0  0  0  0  0  0  0  0
   16.1455   -7.4277   -9.0673 C   0  0  1  0  0  0  0  0  0  0  0  0
   14.7369   -7.4276   -8.9837 O   0  0  0  0  0  0  0  0  0  0  0  0
   16.5184   -8.0800  -10.3762 C   0  0  2  0  0  0  0  0  0  0  0  0
   16.0003   -9.4621  -10.2397 N   0  0  0  0  0  0  0  0  0  0  0  0
   17.9526   -8.1047  -10.6638 C   0  0  0  0  0  0  0  0  0  0  0  0
   18.6938   -8.8799  -10.0026 O   0  0  0  0  0  0  0  0  0  0  0  0
   18.5669   -7.3042  -11.6512 N   0  0  0  0  0  0  0  0  0  0  0  0
   20.0126   -7.2440  -11.8069 C   0  0  0  0  0  0  0  0  0  0  0  0
   20.3936   -6.3035  -12.8825 C   0  0  0  0  0  0  0  0  0  0  0  0
   19.5261   -5.8404  -13.6623 O   0  0  0  0  0  0  0  0  0  0  0  0
   21.6935   -5.9098  -13.0622 O   0  0  0  0  0  0  0  0  0  0  0  0
  1  2  1  0
  3  2  1  0
  3  4  1  0
  5  4  1  0
  5  6  1  6
  7  5  1  0
  8  7  2  0
 10  9  1  6
 10 11  1  0
 10 12  1  0
 12 13  1  1
 13  7  1  0
 14 12  1  0
 14 16  1  0
 15 14  2  0
 17 16  1  0
 18 17  1  0
 19 18  2  0
 20 18  1  0
M  END
$$$$
