MTG.pdb
     RDKit          3D

 20 19  0  0  1  0  0  0  0  0999 V2000
   23.0791  -14.4720  -19.9954 C   0  0  0  0  0  0  0  0  0  0  0  0
   21.3359  -14.5648  -19.5799 S   0  0  0  0  0  0  0  0  0  0  0  0
   20.9572  -13.5600  -18.1277 C   0  0  0  0  0  0  0  0  0  0  0  0
   21.1974  -12.0841  -18.4228 C   0  0  0  0  0  0  0  0  0  0  0  0
   21.0253  -11.3226  -17.1301 C   0  0  2  0  0  0  0  0  0  0  0  0
   19.7170  -11.5645  -16.6027 N   0  0  0  0  0  0  0  0  0  0  0  0
   21.2373   -9.8713  -17.4443 C   0  0  0  0  0  0  0  0  0  0  0  0
   22.3492   -9.4855  -17.8912 O   0  0  0  0  0  0  0  0  0  0  0  0
   19.1766   -7.8574  -19.7793 C   0  0  0  0  0  0  0  0  0  0  0  0
   19.2689   -7.1325  -18.4726 C   0  0  1  0  0  0  0  0  0  0  0  0
   18.1221   -7.4826  -17.7285 O   0  0  0  0  0  0  0  0  0  0  0  0
   20.4738   -7.4892  -17.6367 C   0  0  2  0  0  0  0  0  0  0  0  0
   20.2333   -8.9024  -17.2595 N   0  0  0  0  0  0  0  0  0  0  0  0
   20.6543   -6.6705  -16.4379 C   0  0  0  0  0  0  0  0  0  0  0  0
   20.7804   -5.4232  -16.5647 O   0  0  0  0  0  0  0  0  0  0  0  0
   20.6949   -7.1974  -15.1288 N   0  0  0  0  0  0  0  0  0  0  0  0
   20.8806   -6.3495  -13.9606 C   0  0  0  0  0  0  0  0  0  0  0  0
   22.2276   -5.7396  -13.9540 C   0  0  0  0  0  0  0  0  0  0  0  0
   23.0385   -5.9731  -14.8830 O   0  0  0  0  0  0  0  0  0  0  0  0
   22.6318   -4.9072  -12.9436 O   0  0  0  0  0  0  0  0  0  0  0  0
  1  2  1  0
  3  2  1  0
  3  4  1  0
  5  4  1  0
  5  6  1  6
  7  5  1  0
  8  7  2  0
 10  9  1  6
 10 11  1  0
 10 12  1  0
 12 13  1  1
 13  7  1  0
 14 12  1  0
 14 16  1  0
 15 14  2  0
 17 16  1  0
 18 17  1  0
 19 18  2  0
 20 18  1  0
M  END
$$$$
