MTG.pdb
     RDKit          3D

 20 19  0  0  1  0  0  0  0  0999 V2000
   29.3766  -20.1512   -5.8727 C   0  0  0  0  0  0  0  0  0  0  0  0
   27.8252  -19.2631   -6.0279 S   0  0  0  0  0  0  0  0  0  0  0  0
   26.5263  -20.3301   -6.6883 C   0  0  0  0  0  0  0  0  0  0  0  0
   26.7706  -20.6164   -8.1653 C   0  0  0  0  0  0  0  0  0  0  0  0
   25.5988  -20.0636   -8.9410 C   0  0  2  0  0  0  0  0  0  0  0  0
   24.4097  -20.7756   -8.5839 N   0  0  0  0  0  0  0  0  0  0  0  0
   25.9233  -20.2206  -10.3970 C   0  0  0  0  0  0  0  0  0  0  0  0
   26.9802  -19.7162  -10.8587 O   0  0  0  0  0  0  0  0  0  0  0  0
   26.8893  -22.3219  -12.9735 C   0  0  0  0  0  0  0  0  0  0  0  0
   25.5367  -21.8446  -13.4030 C   0  0  1  0  0  0  0  0  0  0  0  0
   24.6178  -22.8607  -13.0650 O   0  0  0  0  0  0  0  0  0  0  0  0
   25.0723  -20.5759  -12.7302 C   0  0  2  0  0  0  0  0  0  0  0  0
   25.0863  -20.9181  -11.2881 N   0  0  0  0  0  0  0  0  0  0  0  0
   23.7400  -20.1215  -13.1283 C   0  0  0  0  0  0  0  0  0  0  0  0
   22.8040  -20.1646  -12.2858 O   0  0  0  0  0  0  0  0  0  0  0  0
   23.4328  -19.6289  -14.4152 N   0  0  0  0  0  0  0  0  0  0  0  0
   22.1635  -18.9816  -14.7116 C   0  0  0  0  0  0  0  0  0  0  0  0
   21.1428  -19.9717  -15.1171 C   0  0  0  0  0  0  0  0  0  0  0  0
   21.1712  -21.1407  -14.6615 O   0  0  0  0  0  0  0  0  0  0  0  0
   20.1417  -19.6493  -15.9951 O   0  0  0  0  0  0  0  0  0  0  0  0
  1  2  1  0
  3  2  1  0
  3  4  1  0
  5  4  1  0
  5  6  1  1
  7  5  1  0
  8  7  2  0
 10  9  1  1
 10 11  1  0
 10 12  1  0
 12 13  1  1
 13  7  1  0
 14 12  1  0
 14 16  1  0
 15 14  2  0
 17 16  1  0
 18 17  1  0
 19 18  2  0
 20 18  1  0
M  END
$$$$
