MTG.pdb
     RDKit          3D

 20 19  0  0  1  0  0  0  0  0999 V2000
   19.9174  -23.5570    5.0882 C   0  0  0  0  0  0  0  0  0  0  0  0
   19.9766  -24.9820    3.9991 S   0  0  0  0  0  0  0  0  0  0  0  0
   18.7100  -24.8753    2.7162 C   0  0  0  0  0  0  0  0  0  0  0  0
   18.6823  -26.1533    1.8862 C   0  0  0  0  0  0  0  0  0  0  0  0
   17.6662  -25.9648    0.7850 C   0  0  2  0  0  0  0  0  0  0  0  0
   16.3638  -25.8079    1.3573 N   0  0  0  0  0  0  0  0  0  0  0  0
   17.7431  -27.1769   -0.0951 C   0  0  0  0  0  0  0  0  0  0  0  0
   16.8638  -28.0729   -0.0014 O   0  0  0  0  0  0  0  0  0  0  0  0
   18.1770  -27.1190   -3.8239 C   0  0  0  0  0  0  0  0  0  0  0  0
   19.1665  -28.0810   -3.2434 C   0  0  1  0  0  0  0  0  0  0  0  0
   20.3935  -27.3922   -3.1379 O   0  0  0  0  0  0  0  0  0  0  0  0
   18.8173  -28.5917   -1.8668 C   0  0  2  0  0  0  0  0  0  0  0  0
   18.7711  -27.3635   -1.0382 N   0  0  0  0  0  0  0  0  0  0  0  0
   19.7739  -29.5446   -1.3039 C   0  0  0  0  0  0  0  0  0  0  0  0
   20.7913  -29.1052   -0.7044 O   0  0  0  0  0  0  0  0  0  0  0  0
   19.6258  -30.9460   -1.3898 N   0  0  0  0  0  0  0  0  0  0  0  0
   20.5664  -31.8619   -0.7618 C   0  0  0  0  0  0  0  0  0  0  0  0
   21.7244  -32.1232   -1.6434 C   0  0  0  0  0  0  0  0  0  0  0  0
   22.6278  -32.9199   -1.2911 O   0  0  0  0  0  0  0  0  0  0  0  0
   21.8487  -31.5105   -2.8626 O   0  0  0  0  0  0  0  0  0  0  0  0
  1  2  1  0
  3  2  1  0
  3  4  1  0
  5  4  1  0
  5  6  1  1
  7  5  1  0
  8  7  2  0
 10  9  1  1
 10 11  1  0
 10 12  1  0
 12 13  1  1
 13  7  1  0
 14 12  1  0
 14 16  1  0
 15 14  2  0
 17 16  1  0
 18 17  1  0
 19 18  2  0
 20 18  1  0
M  END
$$$$
