MTG.pdb
     RDKit          3D

 20 19  0  0  1  0  0  0  0  0999 V2000
   29.7064  -19.5399   -5.1676 C   0  0  0  0  0  0  0  0  0  0  0  0
   28.1645  -20.2300   -4.5627 S   0  0  0  0  0  0  0  0  0  0  0  0
   26.8319  -19.9970   -5.7593 C   0  0  0  0  0  0  0  0  0  0  0  0
   27.3221  -20.3018   -7.1699 C   0  0  0  0  0  0  0  0  0  0  0  0
   26.2058  -19.9619   -8.1283 C   0  0  2  0  0  0  0  0  0  0  0  0
   24.9996  -20.6063   -7.7061 N   0  0  0  0  0  0  0  0  0  0  0  0
   26.6373  -20.4277   -9.4873 C   0  0  0  0  0  0  0  0  0  0  0  0
   27.6621  -21.1495   -9.6032 O   0  0  0  0  0  0  0  0  0  0  0  0
   25.3161  -22.6911  -11.6996 C   0  0  0  0  0  0  0  0  0  0  0  0
   25.4684  -21.4494  -12.5222 C   0  0  1  0  0  0  0  0  0  0  0  0
   24.2122  -20.8067  -12.5294 O   0  0  0  0  0  0  0  0  0  0  0  0
   26.4769  -20.4602  -11.9908 C   0  0  2  0  0  0  0  0  0  0  0  0
   25.9376  -20.0895  -10.6608 N   0  0  0  0  0  0  0  0  0  0  0  0
   26.6570  -19.2642  -12.8137 C   0  0  0  0  0  0  0  0  0  0  0  0
   25.9635  -18.2422  -12.5641 O   0  0  0  0  0  0  0  0  0  0  0  0
   27.5735  -19.1812  -13.8843 N   0  0  0  0  0  0  0  0  0  0  0  0
   27.7186  -17.9744  -14.6848 C   0  0  0  0  0  0  0  0  0  0  0  0
   26.8020  -17.9918  -15.8449 C   0  0  0  0  0  0  0  0  0  0  0  0
   26.1970  -16.9498  -16.1960 O   0  0  0  0  0  0  0  0  0  0  0  0
   26.5845  -19.1347  -16.5686 O   0  0  0  0  0  0  0  0  0  0  0  0
  1  2  1  0
  3  2  1  0
  3  4  1  0
  5  4  1  0
  5  6  1  1
  7  5  1  0
  8  7  2  0
 10  9  1  1
 10 11  1  0
 10 12  1  0
 12 13  1  1
 13  7  1  0
 14 12  1  0
 14 16  1  0
 15 14  2  0
 17 16  1  0
 18 17  1  0
 19 18  2  0
 20 18  1  0
M  END
$$$$
