MTG.pdb
     RDKit          3D

 20 19  0  0  1  0  0  0  0  0999 V2000
   27.0849  -15.6403  -21.5696 C   0  0  0  0  0  0  0  0  0  0  0  0
   25.4563  -15.7748  -20.8284 S   0  0  0  0  0  0  0  0  0  0  0  0
   25.4402  -17.0078  -19.5089 C   0  0  0  0  0  0  0  0  0  0  0  0
   24.0584  -17.0883  -18.8706 C   0  0  0  0  0  0  0  0  0  0  0  0
   24.1470  -18.0382  -17.7000 C   0  0  2  0  0  0  0  0  0  0  0  0
   24.7170  -19.2779  -18.1318 N   0  0  0  0  0  0  0  0  0  0  0  0
   22.7531  -18.2207  -17.1768 C   0  0  0  0  0  0  0  0  0  0  0  0
   21.9657  -19.0102  -17.7611 O   0  0  0  0  0  0  0  0  0  0  0  0
   21.4755  -20.0037  -14.7347 C   0  0  0  0  0  0  0  0  0  0  0  0
   20.9735  -18.6299  -14.4151 C   0  0  1  0  0  0  0  0  0  0  0  0
   21.8958  -18.0564  -13.5141 O   0  0  0  0  0  0  0  0  0  0  0  0
   20.8693  -17.7041  -15.6024 C   0  0  2  0  0  0  0  0  0  0  0  0
   22.2750  -17.5383  -16.0425 N   0  0  0  0  0  0  0  0  0  0  0  0
   20.2734  -16.3995  -15.3141 C   0  0  0  0  0  0  0  0  0  0  0  0
   21.0171  -15.3828  -15.2836 O   0  0  0  0  0  0  0  0  0  0  0  0
   18.8973  -16.2050  -15.0659 N   0  0  0  0  0  0  0  0  0  0  0  0
   18.3381  -14.8865  -14.8072 C   0  0  0  0  0  0  0  0  0  0  0  0
   17.2327  -14.5844  -15.7417 C   0  0  0  0  0  0  0  0  0  0  0  0
   16.9914  -15.3433  -16.7116 O   0  0  0  0  0  0  0  0  0  0  0  0
   16.4424  -13.4766  -15.5816 O   0  0  0  0  0  0  0  0  0  0  0  0
  1  2  1  0
  3  2  1  0
  3  4  1  0
  5  4  1  0
  5  6  1  6
  7  5  1  0
  8  7  2  0
 10  9  1  6
 10 11  1  0
 10 12  1  0
 12 13  1  1
 13  7  1  0
 14 12  1  0
 14 16  1  0
 15 14  2  0
 17 16  1  0
 18 17  1  0
 19 18  2  0
 20 18  1  0
M  END
$$$$
