MTG.pdb
     RDKit          3D

 20 19  0  0  1  0  0  0  0  0999 V2000
   14.1450  -10.2960  -18.6261 C   0  0  0  0  0  0  0  0  0  0  0  0
   15.1499   -9.7113  -17.2593 S   0  0  0  0  0  0  0  0  0  0  0  0
   16.7601  -10.5287  -17.2373 C   0  0  0  0  0  0  0  0  0  0  0  0
   17.6823   -9.8636  -16.2223 C   0  0  0  0  0  0  0  0  0  0  0  0
   19.0150  -10.5716  -16.2783 C   0  0  2  0  0  0  0  0  0  0  0  0
   18.8309  -11.9616  -15.9913 N   0  0  0  0  0  0  0  0  0  0  0  0
   19.9061   -9.9099  -15.2693 C   0  0  0  0  0  0  0  0  0  0  0  0
   19.6140   -9.9674  -14.0461 O   0  0  0  0  0  0  0  0  0  0  0  0
   23.3191  -10.6630  -14.5323 C   0  0  0  0  0  0  0  0  0  0  0  0
   23.2704   -9.1885  -14.7877 C   0  0  1  0  0  0  0  0  0  0  0  0
   23.6399   -8.9942  -16.1356 O   0  0  0  0  0  0  0  0  0  0  0  0
   21.9114   -8.5598  -14.5985 C   0  0  2  0  0  0  0  0  0  0  0  0
   21.0749   -9.2148  -15.6321 N   0  0  0  0  0  0  0  0  0  0  0  0
   21.8775   -7.1071  -14.7677 C   0  0  0  0  0  0  0  0  0  0  0  0
   21.5907   -6.6315  -15.8987 O   0  0  0  0  0  0  0  0  0  0  0  0
   22.1479   -6.1913  -13.7278 N   0  0  0  0  0  0  0  0  0  0  0  0
   22.1576   -4.7529  -13.9488 C   0  0  0  0  0  0  0  0  0  0  0  0
   20.8085   -4.1766  -13.7635 C   0  0  0  0  0  0  0  0  0  0  0  0
   20.6227   -2.9399  -13.8686 O   0  0  0  0  0  0  0  0  0  0  0  0
   19.7265   -4.9657  -13.4738 O   0  0  0  0  0  0  0  0  0  0  0  0
  1  2  1  0
  3  2  1  0
  3  4  1  0
  5  4  1  0
  5  6  1  1
  7  5  1  0
  8  7  2  0
 10  9  1  6
 10 11  1  0
 10 12  1  0
 12 13  1  6
 13  7  1  0
 14 12  1  0
 14 16  1  0
 15 14  2  0
 17 16  1  0
 18 17  1  0
 19 18  2  0
 20 18  1  0
M  END
$$$$
