LCE.pdb
     RDKit          3D

 24 23  0  0  1  0  0  0  0  0999 V2000
   30.9189   -9.9251  -17.2831 C   0  0  0  0  0  0  0  0  0  0  0  0
   30.6476   -9.3718  -18.6578 C   0  0  2  0  0  0  0  0  0  0  0  0
   31.3350   -8.0006  -18.7199 C   0  0  0  0  0  0  0  0  0  0  0  0
   29.1973   -9.1372  -18.9203 C   0  0  0  0  0  0  0  0  0  0  0  0
   28.3851  -10.4120  -18.9203 C   0  0  2  0  0  0  0  0  0  0  0  0
   28.8849  -11.3991  -19.8142 N   0  0  0  0  0  0  0  0  0  0  0  0
   26.9531  -10.1578  -19.1837 C   0  0  0  0  0  0  0  0  0  0  0  0
   26.4800  -10.2008  -20.3515 O   0  0  0  0  0  0  0  0  0  0  0  0
   26.0957   -9.8598  -18.1017 N   0  0  0  0  0  0  0  0  0  0  0  0
   24.6538   -9.6375  -18.2414 C   0  0  1  0  0  0  0  0  0  0  0  0
   24.0038  -10.9027  -18.7652 C   0  0  0  0  0  0  0  0  0  0  0  0
   24.4230  -12.2943  -17.7073 S   0  0  0  0  0  0  0  0  0  0  0  0
   24.1421   -9.3772  -16.8813 C   0  0  0  0  0  0  0  0  0  0  0  0
   24.6735   -9.9967  -15.8946 O   0  0  0  0  0  0  0  0  0  0  0  0
   23.0900   -8.4752  -16.5785 N   0  0  0  0  0  0  0  0  0  0  0  0
   22.6019   -8.3470  -15.2142 C   0  0  1  0  0  0  0  0  0  0  0  0
   22.9001   -6.9872  -14.6394 C   0  0  0  0  0  0  0  0  0  0  0  0
   22.5149   -5.8507  -15.5443 C   0  0  0  0  0  0  0  0  0  0  0  0
   22.8086   -4.5919  -14.8218 C   0  0  0  0  0  0  0  0  0  0  0  0
   21.8578   -3.8295  -14.5332 O   0  0  0  0  0  0  0  0  0  0  0  0
   21.1324   -8.5325  -15.1444 C   0  0  0  0  0  0  0  0  0  0  0  0
   20.4186   -8.6183  -13.9587 O   0  0  0  0  0  0  0  0  0  0  0  0
   24.0909   -4.2310  -14.4567 O   0  0  0  0  0  0  0  0  0  0  0  0
   20.4862   -8.6182  -16.2178 O   0  0  0  0  0  0  0  0  0  0  0  0
  2  1  1  1
  2  3  1  0
  4  5  1  0
  4  2  1  0
  5  6  1  6
  5  7  1  0
  7  8  2  0
  9  7  1  0
  9 10  1  0
 10 13  1  0
 10 11  1  1
 11 12  1  0
 13 14  2  0
 15 16  1  0
 15 13  1  0
 16 21  1  0
 16 17  1  6
 18 17  1  0
 19 20  2  0
 19 18  1  0
 21 24  2  0
 21 22  1  0
 23 19  1  0
M  END
$$$$
