LCE.pdb
     RDKit          3D

 24 23  0  0  1  0  0  0  0  0999 V2000
   26.5159  -13.0142  -15.6764 C   0  0  0  0  0  0  0  0  0  0  0  0
   26.6291  -12.0400  -16.8200 C   0  0  2  0  0  0  0  0  0  0  0  0
   27.9801  -11.3297  -16.6561 C   0  0  0  0  0  0  0  0  0  0  0  0
   25.5802  -10.9787  -16.7929 C   0  0  0  0  0  0  0  0  0  0  0  0
   24.1798  -11.5312  -16.9297 C   0  0  2  0  0  0  0  0  0  0  0  0
   23.9848  -12.2849  -18.1202 N   0  0  0  0  0  0  0  0  0  0  0  0
   23.1527  -10.4744  -16.8163 C   0  0  0  0  0  0  0  0  0  0  0  0
   22.8191   -9.7704  -17.8075 O   0  0  0  0  0  0  0  0  0  0  0  0
   22.5311  -10.2487  -15.5684 N   0  0  0  0  0  0  0  0  0  0  0  0
   21.4306   -9.3023  -15.3650 C   0  0  1  0  0  0  0  0  0  0  0  0
   20.3966   -9.9304  -14.4518 C   0  0  0  0  0  0  0  0  0  0  0  0
   19.4545  -11.1709  -15.3491 S   0  0  0  0  0  0  0  0  0  0  0  0
   22.0130   -8.1328  -14.6777 C   0  0  0  0  0  0  0  0  0  0  0  0
   23.1869   -8.2347  -14.1766 O   0  0  0  0  0  0  0  0  0  0  0  0
   21.3609   -6.8817  -14.5299 N   0  0  0  0  0  0  0  0  0  0  0  0
   22.1379   -5.6620  -14.3733 C   0  0  1  0  0  0  0  0  0  0  0  0
   23.0720   -5.4415  -15.5340 C   0  0  0  0  0  0  0  0  0  0  0  0
   23.9271   -4.2131  -15.3969 C   0  0  0  0  0  0  0  0  0  0  0  0
   24.8160   -4.1596  -16.5800 C   0  0  0  0  0  0  0  0  0  0  0  0
   24.5082   -3.4015  -17.5282 O   0  0  0  0  0  0  0  0  0  0  0  0
   21.2623   -4.4682  -14.2907 C   0  0  0  0  0  0  0  0  0  0  0  0
   21.5760   -3.3268  -13.5684 O   0  0  0  0  0  0  0  0  0  0  0  0
   25.9689   -4.9146  -16.6733 O   0  0  0  0  0  0  0  0  0  0  0  0
   20.1689   -4.4814  -14.9083 O   0  0  0  0  0  0  0  0  0  0  0  0
  2  1  1  1
  2  3  1  0
  4  5  1  0
  4  2  1  0
  5  6  1  6
  5  7  1  0
  7  8  2  0
  9  7  1  0
  9 10  1  0
 10 13  1  0
 10 11  1  1
 11 12  1  0
 13 14  2  0
 15 16  1  0
 15 13  1  0
 16 21  1  0
 16 17  1  6
 18 17  1  0
 19 20  2  0
 19 18  1  0
 21 24  2  0
 21 22  1  0
 23 19  1  0
M  END
$$$$
