LCE.pdb
     RDKit          3D

 24 23  0  0  1  0  0  0  0  0999 V2000
   15.4664  -12.0893  -14.7407 C   0  0  0  0  0  0  0  0  0  0  0  0
   15.1386  -12.5267  -13.3368 C   0  0  2  0  0  0  0  0  0  0  0  0
   13.9502  -13.4922  -13.4468 C   0  0  0  0  0  0  0  0  0  0  0  0
   14.6986  -11.4025  -12.4595 C   0  0  0  0  0  0  0  0  0  0  0  0
   15.7755  -10.3626  -12.2502 C   0  0  2  0  0  0  0  0  0  0  0  0
   16.8809  -10.8400  -11.4931 N   0  0  0  0  0  0  0  0  0  0  0  0
   15.2400   -9.1218  -11.6515 C   0  0  0  0  0  0  0  0  0  0  0  0
   14.2139   -8.5553  -12.1160 O   0  0  0  0  0  0  0  0  0  0  0  0
   15.8934   -8.5584  -10.5334 N   0  0  0  0  0  0  0  0  0  0  0  0
   15.4568   -7.3273   -9.8687 C   0  0  1  0  0  0  0  0  0  0  0  0
   15.7919   -7.4131   -8.3928 C   0  0  0  0  0  0  0  0  0  0  0  0
   15.2732   -5.9097   -7.5548 S   0  0  0  0  0  0  0  0  0  0  0  0
   16.2477   -6.2327  -10.4651 C   0  0  0  0  0  0  0  0  0  0  0  0
   17.4764   -6.4478  -10.7543 O   0  0  0  0  0  0  0  0  0  0  0  0
   15.7406   -4.9389  -10.7498 N   0  0  0  0  0  0  0  0  0  0  0  0
   16.4010   -4.0900  -11.7293 C   0  0  1  0  0  0  0  0  0  0  0  0
   16.4949   -4.7587  -13.0755 C   0  0  0  0  0  0  0  0  0  0  0  0
   17.1128   -3.8939  -14.1382 C   0  0  0  0  0  0  0  0  0  0  0  0
   18.0759   -4.7339  -14.8863 C   0  0  0  0  0  0  0  0  0  0  0  0
   18.0875   -5.9682  -14.6736 O   0  0  0  0  0  0  0  0  0  0  0  0
   15.6645   -2.8186  -11.9291 C   0  0  0  0  0  0  0  0  0  0  0  0
   14.3968   -2.5711  -11.4247 O   0  0  0  0  0  0  0  0  0  0  0  0
   18.9589   -4.2048  -15.8072 O   0  0  0  0  0  0  0  0  0  0  0  0
   16.2130   -1.9048  -12.5933 O   0  0  0  0  0  0  0  0  0  0  0  0
  2  1  1  6
  2  3  1  0
  4  5  1  0
  4  2  1  0
  5  6  1  1
  5  7  1  0
  7  8  2  0
  9  7  1  0
  9 10  1  0
 10 13  1  0
 10 11  1  1
 11 12  1  0
 13 14  2  0
 15 16  1  0
 15 13  1  0
 16 21  1  0
 16 17  1  6
 18 17  1  0
 19 20  2  0
 19 18  1  0
 21 24  2  0
 21 22  1  0
 23 19  1  0
M  END
$$$$
