LCE.pdb
     RDKit          3D

 24 23  0  0  1  0  0  0  0  0999 V2000
   32.0668  -22.5896  -11.5397 C   0  0  0  0  0  0  0  0  0  0  0  0
   31.4581  -21.6772  -10.5069 C   0  0  2  0  0  0  0  0  0  0  0  0
   32.2239  -21.9253   -9.1998 C   0  0  0  0  0  0  0  0  0  0  0  0
   30.0237  -21.9805  -10.2282 C   0  0  0  0  0  0  0  0  0  0  0  0
   29.1162  -21.6562  -11.3928 C   0  0  2  0  0  0  0  0  0  0  0  0
   29.2704  -20.3269  -11.8747 N   0  0  0  0  0  0  0  0  0  0  0  0
   27.6969  -21.9293  -11.0832 C   0  0  0  0  0  0  0  0  0  0  0  0
   27.3199  -23.0543  -10.6570 O   0  0  0  0  0  0  0  0  0  0  0  0
   26.7417  -20.9058  -11.2695 N   0  0  0  0  0  0  0  0  0  0  0  0
   25.3276  -21.0345  -10.9064 C   0  0  1  0  0  0  0  0  0  0  0  0
   25.0547  -20.2053   -9.6672 C   0  0  0  0  0  0  0  0  0  0  0  0
   24.5490  -21.2717   -8.3113 S   0  0  0  0  0  0  0  0  0  0  0  0
   24.5589  -20.4635  -12.0300 C   0  0  0  0  0  0  0  0  0  0  0  0
   24.8740  -19.3006  -12.4635 O   0  0  0  0  0  0  0  0  0  0  0  0
   23.4805  -21.1175  -12.6792 N   0  0  0  0  0  0  0  0  0  0  0  0
   22.7577  -20.4537  -13.7530 C   0  0  1  0  0  0  0  0  0  0  0  0
   22.8666  -21.2100  -15.0509 C   0  0  0  0  0  0  0  0  0  0  0  0
   24.2664  -21.2810  -15.5936 C   0  0  0  0  0  0  0  0  0  0  0  0
   24.2271  -22.1289  -16.8069 C   0  0  0  0  0  0  0  0  0  0  0  0
   23.1239  -22.5869  -17.1837 O   0  0  0  0  0  0  0  0  0  0  0  0
   21.3127  -20.3357  -13.4418 C   0  0  0  0  0  0  0  0  0  0  0  0
   20.4198  -19.5806  -14.1870 O   0  0  0  0  0  0  0  0  0  0  0  0
   25.3614  -22.4310  -17.5348 O   0  0  0  0  0  0  0  0  0  0  0  0
   20.8604  -20.9526  -12.4459 O   0  0  0  0  0  0  0  0  0  0  0  0
  2  1  1  6
  2  3  1  0
  4  5  1  0
  4  2  1  0
  5  6  1  1
  5  7  1  0
  7  8  2  0
  9  7  1  0
  9 10  1  0
 10 13  1  0
 10 11  1  1
 11 12  1  0
 13 14  2  0
 15 16  1  0
 15 13  1  0
 16 21  1  0
 16 17  1  6
 18 17  1  0
 19 20  2  0
 19 18  1  0
 21 24  2  0
 21 22  1  0
 23 19  1  0
M  END
$$$$
