LCE.pdb
     RDKit          3D

 24 23  0  0  1  0  0  0  0  0999 V2000
   16.4680  -12.7947  -10.0443 C   0  0  0  0  0  0  0  0  0  0  0  0
   15.7458  -12.2704  -11.2581 C   0  0  2  0  0  0  0  0  0  0  0  0
   16.6435  -12.5753  -12.4655 C   0  0  0  0  0  0  0  0  0  0  0  0
   15.5504  -10.7911  -11.2313 C   0  0  0  0  0  0  0  0  0  0  0  0
   14.6190  -10.3401  -10.1295 C   0  0  2  0  0  0  0  0  0  0  0  0
   13.3539  -10.9897  -10.1594 N   0  0  0  0  0  0  0  0  0  0  0  0
   14.4430   -8.8725  -10.1176 C   0  0  0  0  0  0  0  0  0  0  0  0
   13.5753   -8.3068  -10.8362 O   0  0  0  0  0  0  0  0  0  0  0  0
   15.2664   -8.0865   -9.2816 N   0  0  0  0  0  0  0  0  0  0  0  0
   15.1779   -6.6265   -9.1897 C   0  0  1  0  0  0  0  0  0  0  0  0
   14.8566   -6.2366   -7.7606 C   0  0  0  0  0  0  0  0  0  0  0  0
   14.9959   -4.4554   -7.5616 S   0  0  0  0  0  0  0  0  0  0  0  0
   16.5191   -6.1091   -9.5255 C   0  0  0  0  0  0  0  0  0  0  0  0
   17.5319   -6.5639   -8.8875 O   0  0  0  0  0  0  0  0  0  0  0  0
   16.7763   -5.1313  -10.5205 N   0  0  0  0  0  0  0  0  0  0  0  0
   18.1263   -4.9339  -11.0252 C   0  0  1  0  0  0  0  0  0  0  0  0
   18.6488   -6.1640  -11.7196 C   0  0  0  0  0  0  0  0  0  0  0  0
   20.0215   -5.9898  -12.3064 C   0  0  0  0  0  0  0  0  0  0  0  0
   20.4416   -7.3038  -12.8446 C   0  0  0  0  0  0  0  0  0  0  0  0
   21.6229   -7.4416  -13.2375 O   0  0  0  0  0  0  0  0  0  0  0  0
   18.1805   -3.8264  -12.0096 C   0  0  0  0  0  0  0  0  0  0  0  0
   19.3517   -3.1956  -12.4011 O   0  0  0  0  0  0  0  0  0  0  0  0
   19.5784   -8.3788  -12.9281 O   0  0  0  0  0  0  0  0  0  0  0  0
   17.1070   -3.4284  -12.5257 O   0  0  0  0  0  0  0  0  0  0  0  0
  2  1  1  1
  2  3  1  0
  4  5  1  0
  4  2  1  0
  5  6  1  6
  5  7  1  0
  7  8  2  0
  9  7  1  0
  9 10  1  0
 10 13  1  0
 10 11  1  1
 11 12  1  0
 13 14  2  0
 15 16  1  0
 15 13  1  0
 16 21  1  0
 16 17  1  6
 18 17  1  0
 19 20  2  0
 19 18  1  0
 21 24  2  0
 21 22  1  0
 23 19  1  0
M  END
$$$$
