LCE.pdb
     RDKit          3D

 24 23  0  0  1  0  0  0  0  0999 V2000
   18.0510  -10.9808  -19.1164 C   0  0  0  0  0  0  0  0  0  0  0  0
   17.4816  -11.6008  -17.8670 C   0  0  2  0  0  0  0  0  0  0  0  0
   15.9543  -11.5582  -18.0157 C   0  0  0  0  0  0  0  0  0  0  0  0
   17.8138  -10.8368  -16.6288 C   0  0  0  0  0  0  0  0  0  0  0  0
   19.3003  -10.7584  -16.3662 C   0  0  2  0  0  0  0  0  0  0  0  0
   19.8914  -12.0221  -16.0889 N   0  0  0  0  0  0  0  0  0  0  0  0
   19.6245   -9.7931  -15.2949 C   0  0  0  0  0  0  0  0  0  0  0  0
   19.3902  -10.0501  -14.0831 O   0  0  0  0  0  0  0  0  0  0  0  0
   20.2103   -8.5545  -15.6374 N   0  0  0  0  0  0  0  0  0  0  0  0
   20.6050   -7.5401  -14.6560 C   0  0  1  0  0  0  0  0  0  0  0  0
   22.0311   -7.8033  -14.2146 C   0  0  0  0  0  0  0  0  0  0  0  0
   23.1066   -7.9311  -15.6493 S   0  0  0  0  0  0  0  0  0  0  0  0
   20.5655   -6.2443  -15.3622 C   0  0  0  0  0  0  0  0  0  0  0  0
   20.8073   -6.2208  -16.6194 O   0  0  0  0  0  0  0  0  0  0  0  0
   20.2721   -5.0018  -14.7439 N   0  0  0  0  0  0  0  0  0  0  0  0
   20.3675   -3.7635  -15.5012 C   0  0  1  0  0  0  0  0  0  0  0  0
   19.0696   -2.9995  -15.4889 C   0  0  0  0  0  0  0  0  0  0  0  0
   17.9730   -3.6581  -16.2780 C   0  0  0  0  0  0  0  0  0  0  0  0
   16.7512   -2.8398  -16.1041 C   0  0  0  0  0  0  0  0  0  0  0  0
   16.0028   -3.0783  -15.1285 O   0  0  0  0  0  0  0  0  0  0  0  0
   21.4038   -2.8634  -14.9403 C   0  0  0  0  0  0  0  0  0  0  0  0
   21.9482   -1.7880  -15.6259 O   0  0  0  0  0  0  0  0  0  0  0  0
   16.4097   -1.8260  -16.9778 O   0  0  0  0  0  0  0  0  0  0  0  0
   21.8201   -3.0792  -13.7753 O   0  0  0  0  0  0  0  0  0  0  0  0
  2  1  1  6
  2  3  1  0
  4  5  1  0
  4  2  1  0
  5  6  1  1
  5  7  1  0
  7  8  2  0
  9  7  1  0
  9 10  1  0
 10 13  1  0
 10 11  1  6
 11 12  1  0
 13 14  2  0
 15 16  1  0
 15 13  1  0
 16 21  1  0
 16 17  1  1
 18 17  1  0
 19 20  2  0
 19 18  1  0
 21 24  2  0
 21 22  1  0
 23 19  1  0
M  END
$$$$
