LCE.pdb
     RDKit          3D

 24 23  0  0  1  0  0  0  0  0999 V2000
   15.9388  -12.5092  -18.0039 C   0  0  0  0  0  0  0  0  0  0  0  0
   17.0210  -13.4963  -17.6514 C   0  0  2  0  0  0  0  0  0  0  0  0
   16.3171  -14.7151  -17.0384 C   0  0  0  0  0  0  0  0  0  0  0  0
   17.9691  -12.9840  -16.6191 C   0  0  0  0  0  0  0  0  0  0  0  0
   18.6916  -11.7294  -17.0539 C   0  0  2  0  0  0  0  0  0  0  0  0
   19.4517  -11.9003  -18.2440 N   0  0  0  0  0  0  0  0  0  0  0  0
   19.5397  -11.1760  -15.9773 C   0  0  0  0  0  0  0  0  0  0  0  0
   19.0860  -10.9745  -14.8184 O   0  0  0  0  0  0  0  0  0  0  0  0
   20.8895  -10.8659  -16.2540 N   0  0  0  0  0  0  0  0  0  0  0  0
   21.8044  -10.2652  -15.2793 C   0  0  1  0  0  0  0  0  0  0  0  0
   23.1902  -10.8482  -15.4728 C   0  0  0  0  0  0  0  0  0  0  0  0
   24.3581  -10.0400  -14.3708 S   0  0  0  0  0  0  0  0  0  0  0  0
   21.8552   -8.8237  -15.5938 C   0  0  0  0  0  0  0  0  0  0  0  0
   21.7496   -8.4562  -16.8158 O   0  0  0  0  0  0  0  0  0  0  0  0
   22.0120   -7.7965  -14.6281 N   0  0  0  0  0  0  0  0  0  0  0  0
   21.9257   -6.3987  -15.0216 C   0  0  1  0  0  0  0  0  0  0  0  0
   20.5605   -6.0514  -15.5545 C   0  0  0  0  0  0  0  0  0  0  0  0
   20.4059   -4.6024  -15.9224 C   0  0  0  0  0  0  0  0  0  0  0  0
   19.0114   -4.4099  -16.3821 C   0  0  0  0  0  0  0  0  0  0  0  0
   18.6434   -4.9766  -17.4366 O   0  0  0  0  0  0  0  0  0  0  0  0
   22.1839   -5.4956  -13.8743 C   0  0  0  0  0  0  0  0  0  0  0  0
   22.3741   -4.1272  -13.9940 O   0  0  0  0  0  0  0  0  0  0  0  0
   18.1060   -3.6295  -15.6901 O   0  0  0  0  0  0  0  0  0  0  0  0
   22.2355   -5.9895  -12.7208 O   0  0  0  0  0  0  0  0  0  0  0  0
  2  1  1  1
  2  3  1  0
  4  5  1  0
  4  2  1  0
  5  6  1  6
  5  7  1  0
  7  8  2  0
  9  7  1  0
  9 10  1  0
 10 13  1  0
 10 11  1  6
 11 12  1  0
 13 14  2  0
 15 16  1  0
 15 13  1  0
 16 21  1  0
 16 17  1  1
 18 17  1  0
 19 20  2  0
 19 18  1  0
 21 24  2  0
 21 22  1  0
 23 19  1  0
M  END
$$$$
