LCE.pdb
     RDKit          3D

 24 23  0  0  1  0  0  0  0  0999 V2000
   26.5510  -13.8156  -15.1088 C   0  0  0  0  0  0  0  0  0  0  0  0
   26.6987  -13.3233  -16.5250 C   0  0  2  0  0  0  0  0  0  0  0  0
   28.1259  -12.7715  -16.6485 C   0  0  0  0  0  0  0  0  0  0  0  0
   25.7739  -12.1994  -16.8551 C   0  0  0  0  0  0  0  0  0  0  0  0
   24.3182  -12.6053  -16.8214 C   0  0  2  0  0  0  0  0  0  0  0  0
   24.0174  -13.6976  -17.6814 N   0  0  0  0  0  0  0  0  0  0  0  0
   23.4180  -11.4671  -17.1020 C   0  0  0  0  0  0  0  0  0  0  0  0
   23.2062  -11.0689  -18.2793 O   0  0  0  0  0  0  0  0  0  0  0  0
   22.7808  -10.8109  -16.0260 N   0  0  0  0  0  0  0  0  0  0  0  0
   21.8259   -9.7114  -16.1917 C   0  0  1  0  0  0  0  0  0  0  0  0
   20.5001  -10.1064  -15.5722 C   0  0  0  0  0  0  0  0  0  0  0  0
   20.7782  -11.1456  -14.1319 S   0  0  0  0  0  0  0  0  0  0  0  0
   22.3747   -8.5695  -15.4340 C   0  0  0  0  0  0  0  0  0  0  0  0
   23.0621   -8.8039  -14.3794 O   0  0  0  0  0  0  0  0  0  0  0  0
   22.1978   -7.2086  -15.7929 N   0  0  0  0  0  0  0  0  0  0  0  0
   22.8918   -6.1597  -15.0621 C   0  0  1  0  0  0  0  0  0  0  0  0
   23.1834   -4.9684  -15.9363 C   0  0  0  0  0  0  0  0  0  0  0  0
   21.9546   -4.3410  -16.5324 C   0  0  0  0  0  0  0  0  0  0  0  0
   22.4022   -3.2126  -17.3805 C   0  0  0  0  0  0  0  0  0  0  0  0
   22.6233   -3.4252  -18.5948 O   0  0  0  0  0  0  0  0  0  0  0  0
   22.0840   -5.6694  -13.9194 C   0  0  0  0  0  0  0  0  0  0  0  0
   20.7438   -5.9727  -13.7326 O   0  0  0  0  0  0  0  0  0  0  0  0
   22.5836   -1.9381  -16.8799 O   0  0  0  0  0  0  0  0  0  0  0  0
   22.6371   -4.9350  -13.0640 O   0  0  0  0  0  0  0  0  0  0  0  0
  2  1  1  1
  2  3  1  0
  4  5  1  0
  4  2  1  0
  5  6  1  6
  5  7  1  0
  7  8  2  0
  9  7  1  0
  9 10  1  0
 10 13  1  0
 10 11  1  1
 11 12  1  0
 13 14  2  0
 15 16  1  0
 15 13  1  0
 16 21  1  0
 16 17  1  6
 18 17  1  0
 19 20  2  0
 19 18  1  0
 21 24  2  0
 21 22  1  0
 23 19  1  0
M  END
$$$$
