LCE.pdb
     RDKit          3D

 24 23  0  0  1  0  0  0  0  0999 V2000
   25.4137  -20.1087   -9.7025 C   0  0  0  0  0  0  0  0  0  0  0  0
   25.4264  -21.3139  -10.6065 C   0  0  2  0  0  0  0  0  0  0  0  0
   26.8477  -21.8906  -10.5450 C   0  0  0  0  0  0  0  0  0  0  0  0
   25.1610  -20.9779  -12.0362 C   0  0  0  0  0  0  0  0  0  0  0  0
   23.7721  -20.4263  -12.2634 C   0  0  2  0  0  0  0  0  0  0  0  0
   22.9170  -20.5695  -11.1358 N   0  0  0  0  0  0  0  0  0  0  0  0
   23.1363  -21.0022  -13.4671 C   0  0  0  0  0  0  0  0  0  0  0  0
   23.7583  -21.0975  -14.5595 O   0  0  0  0  0  0  0  0  0  0  0  0
   21.8010  -21.4559  -13.3908 N   0  0  0  0  0  0  0  0  0  0  0  0
   21.0580  -21.9990  -14.5314 C   0  0  1  0  0  0  0  0  0  0  0  0
   20.3173  -23.2471  -14.0939 C   0  0  0  0  0  0  0  0  0  0  0  0
   19.4634  -22.9443  -12.5412 S   0  0  0  0  0  0  0  0  0  0  0  0
   20.0651  -20.9724  -14.9046 C   0  0  0  0  0  0  0  0  0  0  0  0
   19.9375  -19.9394  -14.1587 O   0  0  0  0  0  0  0  0  0  0  0  0
   19.2287  -21.0428  -16.0482 N   0  0  0  0  0  0  0  0  0  0  0  0
   18.4979  -19.8680  -16.4976 C   0  0  1  0  0  0  0  0  0  0  0  0
   19.4264  -18.7618  -16.9249 C   0  0  0  0  0  0  0  0  0  0  0  0
   18.7163  -17.5459  -17.4505 C   0  0  0  0  0  0  0  0  0  0  0  0
   19.7520  -16.6038  -17.9327 C   0  0  0  0  0  0  0  0  0  0  0  0
   20.3938  -15.9347  -17.0906 O   0  0  0  0  0  0  0  0  0  0  0  0
   17.6332  -20.1797  -17.6611 C   0  0  0  0  0  0  0  0  0  0  0  0
   16.6560  -19.3258  -18.1498 O   0  0  0  0  0  0  0  0  0  0  0  0
   20.0335  -16.4381  -19.2748 O   0  0  0  0  0  0  0  0  0  0  0  0
   17.7870  -21.2803  -18.2461 O   0  0  0  0  0  0  0  0  0  0  0  0
  2  1  1  1
  2  3  1  0
  4  5  1  0
  4  2  1  0
  5  6  1  1
  5  7  1  0
  7  8  2  0
  9  7  1  0
  9 10  1  0
 10 13  1  0
 10 11  1  1
 11 12  1  0
 13 14  2  0
 15 16  1  0
 15 13  1  0
 16 21  1  0
 16 17  1  6
 18 17  1  0
 19 20  2  0
 19 18  1  0
 21 24  2  0
 21 22  1  0
 23 19  1  0
M  END
$$$$
