GHD.pdb
     RDKit          3D

 23 23  0  0  1  0  0  0  0  0999 V2000
   10.5128  -18.9851   16.5037 N   0  0  0  0  0  0  0  0  0  0  0  0
    9.7557  -18.9045   17.7312 C   0  0  0  0  0  0  0  0  0  0  0  0
   10.2556  -17.8341   18.6308 C   0  0  0  0  0  0  0  0  0  0  0  0
   11.3455  -17.2794   18.2606 O   0  0  0  0  0  0  0  0  0  0  0  0
    9.5752  -17.4672   19.7965 N   0  0  0  0  0  0  0  0  0  0  0  0
   10.0415  -16.3634   20.6339 C   0  0  1  0  0  0  0  0  0  0  0  0
    8.9225  -15.6343   21.2671 C   0  0  0  0  0  0  0  0  0  0  0  0
    8.2276  -14.6370   20.4248 C   0  0  0  0  0  0  0  0  0  0  0  0
    8.4759  -14.2811   19.1352 C   0  0  0  0  0  0  0  0  0  0  0  0
    7.5317  -13.3701   18.7482 N   0  0  0  0  0  0  0  0  0  0  0  0
    6.7370  -13.1957   19.8018 C   0  0  0  0  0  0  0  0  0  0  0  0
    7.1190  -13.9350   20.8230 N   0  0  0  0  0  0  0  0  0  0  0  0
   10.8058  -17.0220   21.7721 C   0  0  0  0  0  0  0  0  0  0  0  0
   10.4779  -18.0976   22.2884 O   0  0  0  0  0  0  0  0  0  0  0  0
   11.9697  -16.3945   22.2995 N   0  0  0  0  0  0  0  0  0  0  0  0
   12.8116  -17.0094   23.3263 C   0  0  1  0  0  0  0  0  0  0  0  0
   14.1243  -16.2649   23.2595 C   0  0  0  0  0  0  0  0  0  0  0  0
   15.1341  -16.6909   24.2229 C   0  0  0  0  0  0  0  0  0  0  0  0
   15.3805  -17.8723   24.5468 O   0  0  0  0  0  0  0  0  0  0  0  0
   12.1843  -16.7186   24.6319 C   0  0  0  0  0  0  0  0  0  0  0  0
   12.5754  -17.4462   25.7405 O   0  0  0  0  0  0  0  0  0  0  0  0
   15.8893  -15.6624   24.8320 O   0  0  0  0  0  0  0  0  0  0  0  0
   11.3159  -15.8465   24.7861 O   0  0  0  0  0  0  0  0  0  0  0  0
  2  3  1  0
  2  1  1  0
  3  5  1  0
  4  3  2  0
  5  6  1  0
  6  7  1  1
  6 13  1  0
  8  9  2  0
  8  7  1  0
 10  9  1  0
 11 12  2  0
 11 10  1  0
 12  8  1  0
 13 14  2  0
 13 15  1  0
 15 16  1  0
 16 17  1  1
 17 18  1  0
 18 22  1  0
 19 18  2  0
 20 21  1  0
 20 16  1  0
 23 20  2  0
M  END
$$$$
