GHD.pdb
     RDKit          3D

 23 23  0  0  1  0  0  0  0  0999 V2000
    8.2646  -15.3582   18.4865 N   0  0  0  0  0  0  0  0  0  0  0  0
    7.7141  -16.0559   19.6251 C   0  0  0  0  0  0  0  0  0  0  0  0
    8.1253  -15.4420   20.9132 C   0  0  0  0  0  0  0  0  0  0  0  0
    9.3747  -15.1984   21.0237 O   0  0  0  0  0  0  0  0  0  0  0  0
    7.2038  -15.1552   21.9256 N   0  0  0  0  0  0  0  0  0  0  0  0
    7.6355  -14.6359   23.2221 C   0  0  1  0  0  0  0  0  0  0  0  0
    6.4920  -14.2491   24.0752 C   0  0  0  0  0  0  0  0  0  0  0  0
    6.8201  -13.5543   25.3388 C   0  0  0  0  0  0  0  0  0  0  0  0
    8.0322  -13.1474   25.8043 C   0  0  0  0  0  0  0  0  0  0  0  0
    7.8416  -12.4831   26.9847 N   0  0  0  0  0  0  0  0  0  0  0  0
    6.5292  -12.4998   27.2071 C   0  0  0  0  0  0  0  0  0  0  0  0
    5.8843  -13.1299   26.2466 N   0  0  0  0  0  0  0  0  0  0  0  0
    8.2975  -15.8127   23.9224 C   0  0  0  0  0  0  0  0  0  0  0  0
    7.8529  -16.9670   23.8957 O   0  0  0  0  0  0  0  0  0  0  0  0
    9.4984  -15.6128   24.6604 N   0  0  0  0  0  0  0  0  0  0  0  0
   10.2273  -16.7036   25.3084 C   0  0  1  0  0  0  0  0  0  0  0  0
   11.6840  -16.4386   25.0091 C   0  0  0  0  0  0  0  0  0  0  0  0
   12.3314  -17.4158   24.1400 C   0  0  0  0  0  0  0  0  0  0  0  0
   11.7952  -18.4421   23.6702 O   0  0  0  0  0  0  0  0  0  0  0  0
   10.0231  -16.5562   26.7641 C   0  0  0  0  0  0  0  0  0  0  0  0
   10.1476  -17.6691   27.5747 O   0  0  0  0  0  0  0  0  0  0  0  0
   13.6830  -17.1616   23.8124 O   0  0  0  0  0  0  0  0  0  0  0  0
    9.7427  -15.4742   27.3019 O   0  0  0  0  0  0  0  0  0  0  0  0
  2  3  1  0
  2  1  1  0
  3  5  1  0
  4  3  2  0
  5  6  1  0
  6  7  1  1
  6 13  1  0
  8  9  2  0
  8  7  1  0
 10  9  1  0
 11 12  2  0
 11 10  1  0
 12  8  1  0
 13 14  2  0
 13 15  1  0
 15 16  1  0
 16 17  1  1
 17 18  1  0
 18 22  1  0
 19 18  2  0
 20 21  1  0
 20 16  1  0
 23 20  2  0
M  END
$$$$
