GHD.pdb
     RDKit          3D

 23 23  0  0  1  0  0  0  0  0999 V2000
   13.2051  -15.7663   15.0043 N   0  0  0  0  0  0  0  0  0  0  0  0
   12.2161  -16.1883   15.9687 C   0  0  0  0  0  0  0  0  0  0  0  0
   12.3676  -15.4912   17.2711 C   0  0  0  0  0  0  0  0  0  0  0  0
   13.3817  -14.7187   17.3581 O   0  0  0  0  0  0  0  0  0  0  0  0
   11.4606  -15.6739   18.3200 N   0  0  0  0  0  0  0  0  0  0  0  0
   11.5685  -14.9085   19.5608 C   0  0  1  0  0  0  0  0  0  0  0  0
   10.2707  -14.7952   20.2592 C   0  0  0  0  0  0  0  0  0  0  0  0
    9.1665  -14.1728   19.4973 C   0  0  0  0  0  0  0  0  0  0  0  0
    8.9071  -12.8540   19.2856 C   0  0  0  0  0  0  0  0  0  0  0  0
    7.8205  -12.7536   18.4608 N   0  0  0  0  0  0  0  0  0  0  0  0
    7.4484  -14.0030   18.1910 C   0  0  0  0  0  0  0  0  0  0  0  0
    8.2275  -14.8796   18.7911 N   0  0  0  0  0  0  0  0  0  0  0  0
   12.4577  -15.7444   20.4686 C   0  0  0  0  0  0  0  0  0  0  0  0
   12.4343  -16.9809   20.5046 O   0  0  0  0  0  0  0  0  0  0  0  0
   13.3820  -15.1023   21.3404 N   0  0  0  0  0  0  0  0  0  0  0  0
   14.3103  -15.8372   22.2001 C   0  0  1  0  0  0  0  0  0  0  0  0
   15.5078  -14.9298   22.3560 C   0  0  0  0  0  0  0  0  0  0  0  0
   16.4188  -14.8957   21.2166 C   0  0  0  0  0  0  0  0  0  0  0  0
   16.9691  -15.8878   20.6930 O   0  0  0  0  0  0  0  0  0  0  0  0
   13.6620  -15.9736   23.5206 C   0  0  0  0  0  0  0  0  0  0  0  0
   12.4453  -15.3540   23.7374 O   0  0  0  0  0  0  0  0  0  0  0  0
   16.6896  -13.6195   20.6716 O   0  0  0  0  0  0  0  0  0  0  0  0
   14.1583  -16.6220   24.4544 O   0  0  0  0  0  0  0  0  0  0  0  0
  2  3  1  0
  2  1  1  0
  3  5  1  0
  4  3  2  0
  5  6  1  0
  6  7  1  1
  6 13  1  0
  8  9  2  0
  8  7  1  0
 10  9  1  0
 11 12  2  0
 11 10  1  0
 12  8  1  0
 13 14  2  0
 13 15  1  0
 15 16  1  0
 16 17  1  1
 17 18  1  0
 18 22  1  0
 19 18  2  0
 20 21  1  0
 20 16  1  0
 23 20  2  0
M  END
$$$$
