GHD.pdb
     RDKit          3D

 23 23  0  0  1  0  0  0  0  0999 V2000
   10.9051  -16.5193   13.4184 N   0  0  0  0  0  0  0  0  0  0  0  0
   10.4438  -16.8076   14.7565 C   0  0  0  0  0  0  0  0  0  0  0  0
   11.0055  -15.8676   15.7595 C   0  0  0  0  0  0  0  0  0  0  0  0
   11.9471  -15.1171   15.3319 O   0  0  0  0  0  0  0  0  0  0  0  0
   10.5312  -15.8155   17.0742 N   0  0  0  0  0  0  0  0  0  0  0  0
   11.0833  -14.8724   18.0451 C   0  0  1  0  0  0  0  0  0  0  0  0
   10.2275  -14.7426   19.2433 C   0  0  0  0  0  0  0  0  0  0  0  0
    8.9658  -13.9905   19.0715 C   0  0  0  0  0  0  0  0  0  0  0  0
    8.4765  -13.3787   17.9590 C   0  0  0  0  0  0  0  0  0  0  0  0
    7.2407  -12.8711   18.2524 N   0  0  0  0  0  0  0  0  0  0  0  0
    7.0083  -13.1845   19.5252 C   0  0  0  0  0  0  0  0  0  0  0  0
    8.0146  -13.8536   20.0496 N   0  0  0  0  0  0  0  0  0  0  0  0
   12.3786  -15.5081   18.5261 C   0  0  0  0  0  0  0  0  0  0  0  0
   12.5258  -16.7250   18.6949 O   0  0  0  0  0  0  0  0  0  0  0  0
   13.5075  -14.6879   18.8083 N   0  0  0  0  0  0  0  0  0  0  0  0
   14.8141  -15.2303   19.1821 C   0  0  1  0  0  0  0  0  0  0  0  0
   15.7655  -14.0598   19.1032 C   0  0  0  0  0  0  0  0  0  0  0  0
   17.1598  -14.3662   19.4056 C   0  0  0  0  0  0  0  0  0  0  0  0
   17.6182  -15.5000   19.6621 O   0  0  0  0  0  0  0  0  0  0  0  0
   14.7198  -15.6515   20.5951 C   0  0  0  0  0  0  0  0  0  0  0  0
   15.5962  -16.6100   21.0688 O   0  0  0  0  0  0  0  0  0  0  0  0
   18.0546  -13.2715   19.4030 O   0  0  0  0  0  0  0  0  0  0  0  0
   13.8864  -15.1846   21.3862 O   0  0  0  0  0  0  0  0  0  0  0  0
  2  3  1  0
  2  1  1  0
  3  5  1  0
  4  3  2  0
  5  6  1  0
  6  7  1  1
  6 13  1  0
  8  9  2  0
  8  7  1  0
 10  9  1  0
 11 12  2  0
 11 10  1  0
 12  8  1  0
 13 14  2  0
 13 15  1  0
 15 16  1  0
 16 17  1  1
 17 18  1  0
 18 22  1  0
 19 18  2  0
 20 21  1  0
 20 16  1  0
 23 20  2  0
M  END
$$$$
