HKE.pdb
     RDKit          3D

 29 29  0  0  1  0  0  0  0  0999 V2000
   28.1837  -20.7207  -12.5384 N   0  0  0  0  0  0  0  0  0  0  0  0
   26.9155  -21.1096  -11.9655 C   0  0  1  0  0  0  0  0  0  0  0  0
   26.8119  -20.4843  -10.5764 C   0  0  0  0  0  0  0  0  0  0  0  0
   28.0349  -20.8270   -9.8078 C   0  0  0  0  0  0  0  0  0  0  0  0
   29.1380  -21.5050  -10.3207 C   0  0  0  0  0  0  0  0  0  0  0  0
   30.0477  -21.6383   -9.3487 N   0  0  0  0  0  0  0  0  0  0  0  0
   29.5614  -21.0667   -8.2293 C   0  0  0  0  0  0  0  0  0  0  0  0
   28.3246  -20.5732   -8.5280 N   0  0  0  0  0  0  0  0  0  0  0  0
   25.7723  -20.6120  -12.7789 C   0  0  0  0  0  0  0  0  0  0  0  0
   25.7531  -19.4173  -13.1659 O   0  0  0  0  0  0  0  0  0  0  0  0
   24.7265  -21.5158  -13.0956 N   0  0  0  0  0  0  0  0  0  0  0  0
   23.7782  -21.1666  -14.1123 C   0  0  1  0  0  0  0  0  0  0  0  0
   23.7591  -22.0234  -15.3254 C   0  0  0  0  0  0  0  0  0  0  0  0
   24.0796  -21.4032  -16.6259 C   0  0  0  0  0  0  0  0  0  0  0  0
   25.5427  -21.3322  -16.9460 C   0  0  0  0  0  0  0  0  0  0  0  0
   25.6270  -20.6010  -18.3024 C   0  0  0  0  0  0  0  0  0  0  0  0
   27.0322  -20.4716  -18.6242 N   0  0  0  0  0  0  0  0  0  0  0  0
   22.4205  -21.2714  -13.4351 C   0  0  0  0  0  0  0  0  0  0  0  0
   22.1518  -22.1812  -12.6251 O   0  0  0  0  0  0  0  0  0  0  0  0
   21.4475  -20.2955  -13.7486 N   0  0  0  0  0  0  0  0  0  0  0  0
   20.0808  -20.3716  -13.1351 C   0  0  1  0  0  0  0  0  0  0  0  0
   19.5168  -19.0214  -13.3279 C   0  0  0  0  0  0  0  0  0  0  0  0
   18.1474  -18.8201  -12.8220 C   0  0  0  0  0  0  0  0  0  0  0  0
   17.5503  -17.5207  -13.1038 C   0  0  0  0  0  0  0  0  0  0  0  0
   16.4172  -17.2291  -12.6281 O   0  0  0  0  0  0  0  0  0  0  0  0
   19.3883  -21.5428  -13.6145 C   0  0  0  0  0  0  0  0  0  0  0  0
   18.5495  -22.3061  -12.7757 O   0  0  0  0  0  0  0  0  0  0  0  0
   18.2348  -16.5922  -13.8987 O   0  0  0  0  0  0  0  0  0  0  0  0
   19.4823  -21.9542  -14.7847 O   0  0  0  0  0  0  0  0  0  0  0  0
  2  1  1  6
  2  3  1  0
  3  4  1  0
  4  8  1  0
  5  4  2  0
  5  6  1  0
  6  7  1  0
  8  7  2  0
  9 10  2  0
  9  2  1  0
 11  9  1  0
 12 13  1  6
 12 11  1  0
 13 14  1  0
 14 15  1  0
 15 16  1  0
 16 17  1  0
 18 12  1  0
 19 18  2  0
 20 18  1  0
 21 20  1  0
 21 22  1  6
 23 24  1  0
 23 22  1  0
 24 25  2  0
 26 27  1  0
 26 21  1  0
 28 24  1  0
 29 26  2  0
M  END
$$$$
