HKE.pdb
     RDKit          3D

 29 29  0  0  1  0  0  0  0  0999 V2000
   22.9799  -13.5592  -17.5381 N   0  0  0  0  0  0  0  0  0  0  0  0
   23.1021  -12.7241  -16.3653 C   0  0  1  0  0  0  0  0  0  0  0  0
   24.5579  -12.2779  -16.2514 C   0  0  0  0  0  0  0  0  0  0  0  0
   25.3920  -13.4577  -15.9106 C   0  0  0  0  0  0  0  0  0  0  0  0
   24.9148  -14.7569  -15.7565 C   0  0  0  0  0  0  0  0  0  0  0  0
   25.9431  -15.5566  -15.4513 N   0  0  0  0  0  0  0  0  0  0  0  0
   27.0640  -14.8099  -15.4053 C   0  0  0  0  0  0  0  0  0  0  0  0
   26.7085  -13.5233  -15.6896 N   0  0  0  0  0  0  0  0  0  0  0  0
   22.2553  -11.5044  -16.4716 C   0  0  0  0  0  0  0  0  0  0  0  0
   22.1976  -10.8758  -17.5575 O   0  0  0  0  0  0  0  0  0  0  0  0
   21.5305  -11.0851  -15.3272 N   0  0  0  0  0  0  0  0  0  0  0  0
   20.6307   -9.9742  -15.4320 C   0  0  1  0  0  0  0  0  0  0  0  0
   19.2737  -10.1621  -14.8582 C   0  0  0  0  0  0  0  0  0  0  0  0
   18.3639  -11.1231  -15.5119 C   0  0  0  0  0  0  0  0  0  0  0  0
   17.0069  -11.2326  -14.8837 C   0  0  0  0  0  0  0  0  0  0  0  0
   16.3194  -12.4116  -15.6040 C   0  0  0  0  0  0  0  0  0  0  0  0
   15.0676  -12.6516  -14.9183 N   0  0  0  0  0  0  0  0  0  0  0  0
   21.3133   -8.8438  -14.6774 C   0  0  0  0  0  0  0  0  0  0  0  0
   21.9652   -9.0426  -13.6327 O   0  0  0  0  0  0  0  0  0  0  0  0
   21.1919   -7.5345  -15.1953 N   0  0  0  0  0  0  0  0  0  0  0  0
   21.9513   -6.4037  -14.5671 C   0  0  1  0  0  0  0  0  0  0  0  0
   21.8380   -5.3004  -15.5408 C   0  0  0  0  0  0  0  0  0  0  0  0
   22.4077   -4.0092  -15.1163 C   0  0  0  0  0  0  0  0  0  0  0  0
   22.2067   -2.8939  -16.0328 C   0  0  0  0  0  0  0  0  0  0  0  0
   21.6249   -3.0808  -17.1381 O   0  0  0  0  0  0  0  0  0  0  0  0
   21.5371   -6.2316  -13.1959 C   0  0  0  0  0  0  0  0  0  0  0  0
   22.4221   -5.7559  -12.2059 O   0  0  0  0  0  0  0  0  0  0  0  0
   22.6545   -1.6124  -15.6864 O   0  0  0  0  0  0  0  0  0  0  0  0
   20.3865   -6.4874  -12.7982 O   0  0  0  0  0  0  0  0  0  0  0  0
  2  1  1  6
  2  3  1  0
  3  4  1  0
  4  8  1  0
  5  4  2  0
  5  6  1  0
  6  7  1  0
  8  7  2  0
  9 10  2  0
  9  2  1  0
 11  9  1  0
 12 13  1  1
 12 11  1  0
 13 14  1  0
 14 15  1  0
 15 16  1  0
 16 17  1  0
 18 12  1  0
 19 18  2  0
 20 18  1  0
 21 20  1  0
 21 22  1  6
 23 24  1  0
 23 22  1  0
 24 25  2  0
 26 27  1  0
 26 21  1  0
 28 24  1  0
 29 26  2  0
M  END
$$$$
