HKE.pdb
     RDKit          3D

 29 29  0  0  1  0  0  0  0  0999 V2000
   22.7018  -11.7518  -20.6404 N   0  0  0  0  0  0  0  0  0  0  0  0
   23.2402  -11.1306  -19.4521 C   0  0  1  0  0  0  0  0  0  0  0  0
   24.4600  -10.3075  -19.8594 C   0  0  0  0  0  0  0  0  0  0  0  0
   25.5140  -11.2300  -20.3513 C   0  0  0  0  0  0  0  0  0  0  0  0
   26.0824  -12.2629  -19.6099 C   0  0  0  0  0  0  0  0  0  0  0  0
   26.9939  -12.8822  -20.3686 N   0  0  0  0  0  0  0  0  0  0  0  0
   27.0269  -12.2780  -21.5728 C   0  0  0  0  0  0  0  0  0  0  0  0
   26.1122  -11.2655  -21.5458 N   0  0  0  0  0  0  0  0  0  0  0  0
   22.2548  -10.2097  -18.8220 C   0  0  0  0  0  0  0  0  0  0  0  0
   21.6027   -9.4081  -19.5358 O   0  0  0  0  0  0  0  0  0  0  0  0
   22.0814  -10.2677  -17.4158 N   0  0  0  0  0  0  0  0  0  0  0  0
   21.0534   -9.4809  -16.8003 C   0  0  1  0  0  0  0  0  0  0  0  0
   20.0937  -10.2061  -15.9291 C   0  0  0  0  0  0  0  0  0  0  0  0
   19.4928  -11.4551  -16.4367 C   0  0  0  0  0  0  0  0  0  0  0  0
   18.6684  -12.2089  -15.4366 C   0  0  0  0  0  0  0  0  0  0  0  0
   18.2118  -13.4887  -16.1682 C   0  0  0  0  0  0  0  0  0  0  0  0
   17.4834  -14.2869  -15.2053 N   0  0  0  0  0  0  0  0  0  0  0  0
   21.7954   -8.4642  -15.9467 C   0  0  0  0  0  0  0  0  0  0  0  0
   22.8339   -8.7559  -15.3203 O   0  0  0  0  0  0  0  0  0  0  0  0
   21.2734   -7.1528  -15.8760 N   0  0  0  0  0  0  0  0  0  0  0  0
   21.9042   -6.1401  -14.9667 C   0  0  1  0  0  0  0  0  0  0  0  0
   21.5125   -4.8379  -15.5406 C   0  0  0  0  0  0  0  0  0  0  0  0
   21.8762   -3.6514  -14.7459 C   0  0  0  0  0  0  0  0  0  0  0  0
   21.4477   -2.3679  -15.2875 C   0  0  0  0  0  0  0  0  0  0  0  0
   20.8690   -2.3165  -16.4091 O   0  0  0  0  0  0  0  0  0  0  0  0
   21.6160   -6.4639  -13.5908 C   0  0  0  0  0  0  0  0  0  0  0  0
   22.4570   -6.0484  -12.5372 O   0  0  0  0  0  0  0  0  0  0  0  0
   21.6729   -1.1905  -14.5625 O   0  0  0  0  0  0  0  0  0  0  0  0
   20.6195   -7.1228  -13.2439 O   0  0  0  0  0  0  0  0  0  0  0  0
  2  1  1  6
  2  3  1  0
  3  4  1  0
  4  8  1  0
  5  4  2  0
  5  6  1  0
  6  7  1  0
  8  7  2  0
  9 10  2  0
  9  2  1  0
 11  9  1  0
 12 13  1  1
 12 11  1  0
 13 14  1  0
 14 15  1  0
 15 16  1  0
 16 17  1  0
 18 12  1  0
 19 18  2  0
 20 18  1  0
 21 20  1  0
 21 22  1  6
 23 24  1  0
 23 22  1  0
 24 25  2  0
 26 27  1  0
 26 21  1  0
 28 24  1  0
 29 26  2  0
M  END
$$$$
