HKE.pdb
     RDKit          3D

 29 29  0  0  1  0  0  0  0  0999 V2000
   24.0640  -13.3139  -17.9084 N   0  0  0  0  0  0  0  0  0  0  0  0
   24.2231  -12.3120  -16.8794 C   0  0  1  0  0  0  0  0  0  0  0  0
   25.6784  -11.8501  -16.8895 C   0  0  0  0  0  0  0  0  0  0  0  0
   26.5235  -12.9267  -16.3147 C   0  0  0  0  0  0  0  0  0  0  0  0
   26.0563  -14.1657  -15.8832 C   0  0  0  0  0  0  0  0  0  0  0  0
   27.0928  -14.8777  -15.4260 N   0  0  0  0  0  0  0  0  0  0  0  0
   28.2091  -14.1332  -15.5514 C   0  0  0  0  0  0  0  0  0  0  0  0
   27.8424  -12.9380  -16.0987 N   0  0  0  0  0  0  0  0  0  0  0  0
   23.3629  -11.1242  -17.1348 C   0  0  0  0  0  0  0  0  0  0  0  0
   23.2197  -10.6961  -18.3068 O   0  0  0  0  0  0  0  0  0  0  0  0
   22.7234  -10.5052  -16.0309 N   0  0  0  0  0  0  0  0  0  0  0  0
   21.7910   -9.4416  -16.2633 C   0  0  1  0  0  0  0  0  0  0  0  0
   20.3586   -9.7485  -16.0181 C   0  0  0  0  0  0  0  0  0  0  0  0
   19.3725   -8.6615  -16.1759 C   0  0  0  0  0  0  0  0  0  0  0  0
   17.9683   -9.0255  -15.7968 C   0  0  0  0  0  0  0  0  0  0  0  0
   17.1547   -7.7235  -15.9525 C   0  0  0  0  0  0  0  0  0  0  0  0
   15.8354   -7.9850  -15.4178 N   0  0  0  0  0  0  0  0  0  0  0  0
   22.2105   -8.3359  -15.3070 C   0  0  0  0  0  0  0  0  0  0  0  0
   22.5456   -8.5701  -14.1285 O   0  0  0  0  0  0  0  0  0  0  0  0
   22.2134   -7.0081  -15.7910 N   0  0  0  0  0  0  0  0  0  0  0  0
   22.6308   -5.8812  -14.8934 C   0  0  1  0  0  0  0  0  0  0  0  0
   23.6024   -5.1135  -15.6965 C   0  0  0  0  0  0  0  0  0  0  0  0
   23.0372   -4.3271  -16.8073 C   0  0  0  0  0  0  0  0  0  0  0  0
   23.9980   -3.5867  -17.6153 C   0  0  0  0  0  0  0  0  0  0  0  0
   25.2055   -3.5130  -17.2522 O   0  0  0  0  0  0  0  0  0  0  0  0
   21.4674   -5.2450  -14.3251 C   0  0  0  0  0  0  0  0  0  0  0  0
   21.5584   -4.3939  -13.2039 O   0  0  0  0  0  0  0  0  0  0  0  0
   23.5842   -2.9601  -18.7980 O   0  0  0  0  0  0  0  0  0  0  0  0
   20.3197   -5.4015  -14.7788 O   0  0  0  0  0  0  0  0  0  0  0  0
  2  1  1  6
  2  3  1  0
  3  4  1  0
  4  8  1  0
  5  4  2  0
  5  6  1  0
  6  7  1  0
  8  7  2  0
  9 10  2  0
  9  2  1  0
 11  9  1  0
 12 13  1  1
 12 11  1  0
 13 14  1  0
 14 15  1  0
 15 16  1  0
 16 17  1  0
 18 12  1  0
 19 18  2  0
 20 18  1  0
 21 20  1  0
 21 22  1  6
 23 24  1  0
 23 22  1  0
 24 25  2  0
 26 27  1  0
 26 21  1  0
 28 24  1  0
 29 26  2  0
M  END
$$$$
