HKE.pdb
     RDKit          3D

 29 29  0  0  1  0  0  0  0  0999 V2000
   20.4448  -15.4328  -16.2997 N   0  0  0  0  0  0  0  0  0  0  0  0
   19.8420  -14.3875  -17.0945 C   0  0  1  0  0  0  0  0  0  0  0  0
   18.4650  -14.0824  -16.5097 C   0  0  0  0  0  0  0  0  0  0  0  0
   17.6102  -15.2879  -16.6509 C   0  0  0  0  0  0  0  0  0  0  0  0
   17.1579  -15.8104  -17.8601 C   0  0  0  0  0  0  0  0  0  0  0  0
   16.4156  -16.8942  -17.6064 N   0  0  0  0  0  0  0  0  0  0  0  0
   16.3786  -17.0822  -16.2724 C   0  0  0  0  0  0  0  0  0  0  0  0
   17.1170  -16.0873  -15.7002 N   0  0  0  0  0  0  0  0  0  0  0  0
   20.6461  -13.1354  -17.0520 C   0  0  0  0  0  0  0  0  0  0  0  0
   21.1578  -12.7571  -15.9692 O   0  0  0  0  0  0  0  0  0  0  0  0
   20.8112  -12.3992  -18.2527 N   0  0  0  0  0  0  0  0  0  0  0  0
   21.5948  -11.1990  -18.2404 C   0  0  1  0  0  0  0  0  0  0  0  0
   22.0726  -10.7041  -19.5567 C   0  0  0  0  0  0  0  0  0  0  0  0
   22.8981   -9.4808  -19.5873 C   0  0  0  0  0  0  0  0  0  0  0  0
   23.4350   -9.1173  -20.9392 C   0  0  0  0  0  0  0  0  0  0  0  0
   24.3609   -7.9067  -20.6968 C   0  0  0  0  0  0  0  0  0  0  0  0
   25.0478   -7.6458  -21.9437 N   0  0  0  0  0  0  0  0  0  0  0  0
   20.6833  -10.1414  -17.6374 C   0  0  0  0  0  0  0  0  0  0  0  0
   19.4688  -10.0765  -17.9147 O   0  0  0  0  0  0  0  0  0  0  0  0
   21.2522   -9.2131  -16.7364 N   0  0  0  0  0  0  0  0  0  0  0  0
   20.3771   -8.2297  -16.0172 C   0  0  1  0  0  0  0  0  0  0  0  0
   19.4021   -9.0679  -15.2927 C   0  0  0  0  0  0  0  0  0  0  0  0
   18.5048   -8.3536  -14.3673 C   0  0  0  0  0  0  0  0  0  0  0  0
   17.5855   -9.1873  -13.6030 C   0  0  0  0  0  0  0  0  0  0  0  0
   17.5519  -10.4347  -13.7985 O   0  0  0  0  0  0  0  0  0  0  0  0
   21.1896   -7.2623  -15.3207 C   0  0  0  0  0  0  0  0  0  0  0  0
   20.6433   -6.0721  -14.7963 O   0  0  0  0  0  0  0  0  0  0  0  0
   16.7417   -8.6064  -12.6474 O   0  0  0  0  0  0  0  0  0  0  0  0
   22.4111   -7.4095  -15.1372 O   0  0  0  0  0  0  0  0  0  0  0  0
  2  1  1  1
  2  3  1  0
  3  4  1  0
  4  8  1  0
  5  4  2  0
  5  6  1  0
  6  7  1  0
  8  7  2  0
  9 10  2  0
  9  2  1  0
 11  9  1  0
 12 13  1  6
 12 11  1  0
 13 14  1  0
 14 15  1  0
 15 16  1  0
 16 17  1  0
 18 12  1  0
 19 18  2  0
 20 18  1  0
 21 20  1  0
 21 22  1  1
 23 24  1  0
 23 22  1  0
 24 25  2  0
 26 27  1  0
 26 21  1  0
 28 24  1  0
 29 26  2  0
M  END
$$$$
