HKE.pdb
     RDKit          3D

 29 29  0  0  1  0  0  0  0  0999 V2000
   14.6891  -12.2782  -13.8651 N   0  0  0  0  0  0  0  0  0  0  0  0
   15.6341  -11.8544  -12.8576 C   0  0  1  0  0  0  0  0  0  0  0  0
   17.0262  -11.8534  -13.4847 C   0  0  0  0  0  0  0  0  0  0  0  0
   17.4013  -13.2518  -13.8129 C   0  0  0  0  0  0  0  0  0  0  0  0
   17.7710  -14.2199  -12.8826 C   0  0  0  0  0  0  0  0  0  0  0  0
   18.0404  -15.3574  -13.5335 N   0  0  0  0  0  0  0  0  0  0  0  0
   17.8546  -15.1477  -14.8518 C   0  0  0  0  0  0  0  0  0  0  0  0
   17.4623  -13.8498  -15.0066 N   0  0  0  0  0  0  0  0  0  0  0  0
   15.3442  -10.4738  -12.3820 C   0  0  0  0  0  0  0  0  0  0  0  0
   15.0045   -9.5874  -13.2044 O   0  0  0  0  0  0  0  0  0  0  0  0
   15.4625  -10.1997  -10.9957 N   0  0  0  0  0  0  0  0  0  0  0  0
   15.0561   -8.9199  -10.4942 C   0  0  1  0  0  0  0  0  0  0  0  0
   14.1216   -8.9250   -9.3397 C   0  0  0  0  0  0  0  0  0  0  0  0
   12.6932   -9.1948   -9.5961 C   0  0  0  0  0  0  0  0  0  0  0  0
   11.8246   -9.2016   -8.3740 C   0  0  0  0  0  0  0  0  0  0  0  0
   10.4099   -9.5498   -8.8827 C   0  0  0  0  0  0  0  0  0  0  0  0
    9.5533   -9.6354   -7.7192 N   0  0  0  0  0  0  0  0  0  0  0  0
   16.3456   -8.2415  -10.0585 C   0  0  0  0  0  0  0  0  0  0  0  0
   17.0724   -8.7127   -9.1609 O   0  0  0  0  0  0  0  0  0  0  0  0
   16.7126   -7.0399  -10.7058 N   0  0  0  0  0  0  0  0  0  0  0  0
   17.9341   -6.2899  -10.2634 C   0  0  1  0  0  0  0  0  0  0  0  0
   18.9158   -6.5200  -11.3411 C   0  0  0  0  0  0  0  0  0  0  0  0
   20.2032   -5.8174  -11.1967 C   0  0  0  0  0  0  0  0  0  0  0  0
   21.1811   -6.0597  -12.2499 C   0  0  0  0  0  0  0  0  0  0  0  0
   22.4062   -6.1684  -11.9623 O   0  0  0  0  0  0  0  0  0  0  0  0
   17.5735   -4.9532   -9.8581 C   0  0  0  0  0  0  0  0  0  0  0  0
   18.3401   -4.2276   -8.9223 O   0  0  0  0  0  0  0  0  0  0  0  0
   20.7627   -6.1772  -13.5817 O   0  0  0  0  0  0  0  0  0  0  0  0
   16.5752   -4.3569  -10.3002 O   0  0  0  0  0  0  0  0  0  0  0  0
  2  1  1  6
  2  3  1  0
  3  4  1  0
  4  8  1  0
  5  4  2  0
  5  6  1  0
  6  7  1  0
  8  7  2  0
  9 10  2  0
  9  2  1  0
 11  9  1  0
 12 13  1  1
 12 11  1  0
 13 14  1  0
 14 15  1  0
 15 16  1  0
 16 17  1  0
 18 12  1  0
 19 18  2  0
 20 18  1  0
 21 20  1  0
 21 22  1  6
 23 24  1  0
 23 22  1  0
 24 25  2  0
 26 27  1  0
 26 21  1  0
 28 24  1  0
 29 26  2  0
M  END
$$$$
