IDD.pdb
     RDKit          3D

 25 24  0  0  1  0  0  0  0  0999 V2000
   26.0908  -14.5934  -15.7995 C   0  0  0  0  0  0  0  0  0  0  0  0
   26.1419  -13.0830  -15.7824 C   0  0  0  0  0  0  0  0  0  0  0  0
   24.9197  -12.5130  -16.4495 C   0  0  2  0  0  0  0  0  0  0  0  0
   24.8770  -13.0822  -17.8490 C   0  0  0  0  0  0  0  0  0  0  0  0
   24.8620  -11.0163  -16.4280 C   0  0  2  0  0  0  0  0  0  0  0  0
   25.3843  -10.5175  -15.1689 N   0  0  0  0  0  0  0  0  0  0  0  0
   23.5445  -10.4492  -16.6700 C   0  0  0  0  0  0  0  0  0  0  0  0
   22.8848  -10.5657  -17.7338 O   0  0  0  0  0  0  0  0  0  0  0  0
   22.9151   -9.6925  -15.6423 N   0  0  0  0  0  0  0  0  0  0  0  0
   21.6287   -9.0486  -15.8341 C   0  0  1  0  0  0  0  0  0  0  0  0
   20.5094   -9.7980  -15.1667 C   0  0  0  0  0  0  0  0  0  0  0  0
   19.1796   -9.2261  -15.3916 C   0  0  0  0  0  0  0  0  0  0  0  0
   18.4559   -8.6698  -14.5321 O   0  0  0  0  0  0  0  0  0  0  0  0
   21.6573   -7.6719  -15.2354 C   0  0  0  0  0  0  0  0  0  0  0  0
   22.2089   -7.4906  -14.1088 O   0  0  0  0  0  0  0  0  0  0  0  0
   18.6601   -9.3023  -16.6809 O   0  0  0  0  0  0  0  0  0  0  0  0
   21.0782   -6.5607  -15.9039 N   0  0  0  0  0  0  0  0  0  0  0  0
   21.1243   -5.2411  -15.3416 C   0  0  1  0  0  0  0  0  0  0  0  0
   21.9243   -4.2803  -16.1960 C   0  0  0  0  0  0  0  0  0  0  0  0
   21.9685   -2.9280  -15.6172 C   0  0  0  0  0  0  0  0  0  0  0  0
   21.4147   -2.7510  -14.5018 O   0  0  0  0  0  0  0  0  0  0  0  0
   19.7813   -4.7087  -15.0289 C   0  0  0  0  0  0  0  0  0  0  0  0
   19.5151   -3.8750  -13.9588 O   0  0  0  0  0  0  0  0  0  0  0  0
   22.5756   -1.8313  -16.2093 O   0  0  0  0  0  0  0  0  0  0  0  0
   18.8265   -5.0312  -15.7771 O   0  0  0  0  0  0  0  0  0  0  0  0
  2  1  1  0
  3  2  1  0
  3  4  1  6
  5  3  1  0
  5  6  1  1
  7  5  1  0
  7  8  2  0
  9  7  1  0
 10  9  1  0
 10 11  1  1
 12 11  1  0
 13 12  2  0
 14 10  1  0
 14 17  1  0
 15 14  2  0
 16 12  1  0
 18 17  1  0
 18 22  1  0
 19 20  1  0
 18 19  1  6
 20 21  2  0
 22 23  1  0
 24 20  1  0
 25 22  2  0
M  END
$$$$
