IDD.pdb
     RDKit          3D

 25 24  0  0  1  0  0  0  0  0999 V2000
   27.5699  -17.3540  -15.7429 C   0  0  0  0  0  0  0  0  0  0  0  0
   26.1932  -16.9264  -15.2889 C   0  0  0  0  0  0  0  0  0  0  0  0
   25.7034  -15.7752  -16.1247 C   0  0  2  0  0  0  0  0  0  0  0  0
   26.7606  -14.6975  -16.0511 C   0  0  0  0  0  0  0  0  0  0  0  0
   24.3427  -15.2830  -15.7373 C   0  0  2  0  0  0  0  0  0  0  0  0
   23.4489  -16.4076  -15.5289 N   0  0  0  0  0  0  0  0  0  0  0  0
   23.7398  -14.3457  -16.6720 C   0  0  0  0  0  0  0  0  0  0  0  0
   24.2603  -13.2707  -17.0644 O   0  0  0  0  0  0  0  0  0  0  0  0
   22.4542  -14.6324  -17.2105 N   0  0  0  0  0  0  0  0  0  0  0  0
   21.8144  -13.7685  -18.1854 C   0  0  1  0  0  0  0  0  0  0  0  0
   20.8195  -14.5066  -19.0371 C   0  0  0  0  0  0  0  0  0  0  0  0
   21.3784  -15.6430  -19.7734 C   0  0  0  0  0  0  0  0  0  0  0  0
   22.2971  -15.5960  -20.6254 O   0  0  0  0  0  0  0  0  0  0  0  0
   21.0660  -12.6750  -17.4791 C   0  0  0  0  0  0  0  0  0  0  0  0
   20.6302  -12.8718  -16.3054 O   0  0  0  0  0  0  0  0  0  0  0  0
   20.8450  -16.9014  -19.5089 O   0  0  0  0  0  0  0  0  0  0  0  0
   20.8327  -11.4177  -18.0971 N   0  0  0  0  0  0  0  0  0  0  0  0
   20.1595  -10.3562  -17.4046 C   0  0  1  0  0  0  0  0  0  0  0  0
   20.3782   -9.0107  -18.0639 C   0  0  0  0  0  0  0  0  0  0  0  0
   19.6321   -7.9354  -17.3911 C   0  0  0  0  0  0  0  0  0  0  0  0
   18.4669   -7.6901  -17.7962 O   0  0  0  0  0  0  0  0  0  0  0  0
   18.7236  -10.6359  -17.1927 C   0  0  0  0  0  0  0  0  0  0  0  0
   18.0294  -10.2717  -16.0541 O   0  0  0  0  0  0  0  0  0  0  0  0
   20.1171   -7.1700  -16.3419 O   0  0  0  0  0  0  0  0  0  0  0  0
   18.0970  -11.2388  -18.0980 O   0  0  0  0  0  0  0  0  0  0  0  0
  2  1  1  0
  3  2  1  0
  3  4  1  1
  5  3  1  0
  5  6  1  6
  7  5  1  0
  7  8  2  0
  9  7  1  0
 10  9  1  0
 10 11  1  1
 12 11  1  0
 13 12  2  0
 14 10  1  0
 14 17  1  0
 15 14  2  0
 16 12  1  0
 18 17  1  0
 18 22  1  0
 19 20  1  0
 18 19  1  6
 20 21  2  0
 22 23  1  0
 24 20  1  0
 25 22  2  0
M  END
$$$$
