IDD.pdb
     RDKit          3D

 25 24  0  0  1  0  0  0  0  0999 V2000
   24.5448  -14.6387  -14.5764 C   0  0  0  0  0  0  0  0  0  0  0  0
   24.1571  -14.5484  -16.0344 C   0  0  0  0  0  0  0  0  0  0  0  0
   23.8579  -13.1215  -16.4062 C   0  0  2  0  0  0  0  0  0  0  0  0
   25.1128  -12.3241  -16.1347 C   0  0  0  0  0  0  0  0  0  0  0  0
   22.6509  -12.5586  -15.7204 C   0  0  2  0  0  0  0  0  0  0  0  0
   21.5403  -13.4869  -15.8290 N   0  0  0  0  0  0  0  0  0  0  0  0
   22.2372  -11.2442  -16.1863 C   0  0  0  0  0  0  0  0  0  0  0  0
   22.9687  -10.2227  -16.2305 O   0  0  0  0  0  0  0  0  0  0  0  0
   20.9010  -11.0569  -16.6384 N   0  0  0  0  0  0  0  0  0  0  0  0
   20.4027   -9.7613  -17.0614 C   0  0  1  0  0  0  0  0  0  0  0  0
   19.0194   -9.8435  -17.6444 C   0  0  0  0  0  0  0  0  0  0  0  0
   18.4917   -8.5673  -18.1330 C   0  0  0  0  0  0  0  0  0  0  0  0
   17.6392   -7.8485  -17.5598 O   0  0  0  0  0  0  0  0  0  0  0  0
   20.3301   -8.8364  -15.8808 C   0  0  0  0  0  0  0  0  0  0  0  0
   20.6909   -9.2502  -14.7384 O   0  0  0  0  0  0  0  0  0  0  0  0
   18.9772   -8.0983  -19.3505 O   0  0  0  0  0  0  0  0  0  0  0  0
   19.8645   -7.5011  -16.0126 N   0  0  0  0  0  0  0  0  0  0  0  0
   20.1890   -6.4954  -15.0416 C   0  0  1  0  0  0  0  0  0  0  0  0
   21.6755   -6.4257  -14.7617 C   0  0  0  0  0  0  0  0  0  0  0  0
   22.0185   -5.3158  -13.8583 C   0  0  0  0  0  0  0  0  0  0  0  0
   21.2228   -5.0595  -12.9186 O   0  0  0  0  0  0  0  0  0  0  0  0
   19.6337   -5.1701  -15.3879 C   0  0  0  0  0  0  0  0  0  0  0  0
   18.9910   -4.8938  -16.5802 O   0  0  0  0  0  0  0  0  0  0  0  0
   23.1549   -4.5289  -13.9646 O   0  0  0  0  0  0  0  0  0  0  0  0
   19.7516   -4.2409  -14.5523 O   0  0  0  0  0  0  0  0  0  0  0  0
  2  1  1  0
  3  2  1  0
  3  4  1  1
  5  3  1  0
  5  6  1  6
  7  5  1  0
  7  8  2  0
  9  7  1  0
 10  9  1  0
 10 11  1  1
 12 11  1  0
 13 12  2  0
 14 10  1  0
 14 17  1  0
 15 14  2  0
 16 12  1  0
 18 17  1  0
 18 22  1  0
 19 20  1  0
 18 19  1  6
 20 21  2  0
 22 23  1  0
 24 20  1  0
 25 22  2  0
M  END
$$$$
