IDD.pdb
     RDKit          3D

 25 24  0  0  1  0  0  0  0  0999 V2000
   24.1009  -32.1577  -10.4105 C   0  0  0  0  0  0  0  0  0  0  0  0
   24.7016  -33.3177   -9.6504 C   0  0  0  0  0  0  0  0  0  0  0  0
   24.9068  -32.9444   -8.2074 C   0  0  2  0  0  0  0  0  0  0  0  0
   25.8839  -31.7915   -8.1862 C   0  0  0  0  0  0  0  0  0  0  0  0
   25.3382  -34.0889   -7.3425 C   0  0  2  0  0  0  0  0  0  0  0  0
   24.4919  -35.2425   -7.5873 N   0  0  0  0  0  0  0  0  0  0  0  0
   25.3735  -33.8017   -5.9169 C   0  0  0  0  0  0  0  0  0  0  0  0
   26.1008  -32.9376   -5.3650 O   0  0  0  0  0  0  0  0  0  0  0  0
   24.5297  -34.5385   -5.0394 N   0  0  0  0  0  0  0  0  0  0  0  0
   24.5207  -34.3134   -3.6058 C   0  0  1  0  0  0  0  0  0  0  0  0
   23.1920  -34.6420   -2.9840 C   0  0  0  0  0  0  0  0  0  0  0  0
   23.0949  -34.3202   -1.5582 C   0  0  0  0  0  0  0  0  0  0  0  0
   23.9962  -33.8142   -0.8485 O   0  0  0  0  0  0  0  0  0  0  0  0
   25.5454  -35.1926   -2.9486 C   0  0  0  0  0  0  0  0  0  0  0  0
   25.9386  -36.2436   -3.5378 O   0  0  0  0  0  0  0  0  0  0  0  0
   21.8897  -34.5993   -0.9199 O   0  0  0  0  0  0  0  0  0  0  0  0
   26.0885  -34.8741   -1.6756 N   0  0  0  0  0  0  0  0  0  0  0  0
   27.2348  -35.5641   -1.1565 C   0  0  1  0  0  0  0  0  0  0  0  0
   28.3846  -35.5898   -2.1414 C   0  0  0  0  0  0  0  0  0  0  0  0
   29.5529  -36.3109   -1.6116 C   0  0  0  0  0  0  0  0  0  0  0  0
   29.4689  -36.7873   -0.4506 O   0  0  0  0  0  0  0  0  0  0  0  0
   27.6561  -35.0531    0.1649 C   0  0  0  0  0  0  0  0  0  0  0  0
   26.9949  -34.0489    0.8472 O   0  0  0  0  0  0  0  0  0  0  0  0
   30.7424  -36.5057   -2.2967 O   0  0  0  0  0  0  0  0  0  0  0  0
   28.6728  -35.5590    0.6998 O   0  0  0  0  0  0  0  0  0  0  0  0
  2  1  1  0
  3  2  1  0
  3  4  1  6
  5  3  1  0
  5  6  1  1
  7  5  1  0
  7  8  2  0
  9  7  1  0
 10  9  1  0
 10 11  1  1
 12 11  1  0
 13 12  2  0
 14 10  1  0
 14 17  1  0
 15 14  2  0
 16 12  1  0
 18 17  1  0
 18 22  1  0
 19 20  1  0
 18 19  1  6
 20 21  2  0
 22 23  1  0
 24 20  1  0
 25 22  2  0
M  END
$$$$
