IDD.pdb
     RDKit          3D

 25 24  0  0  1  0  0  0  0  0999 V2000
   20.4082  -12.0430  -21.8381 C   0  0  0  0  0  0  0  0  0  0  0  0
   20.9439  -12.3662  -20.4623 C   0  0  0  0  0  0  0  0  0  0  0  0
   20.4736  -11.3413  -19.4663 C   0  0  2  0  0  0  0  0  0  0  0  0
   21.0275  -10.0078  -19.9129 C   0  0  0  0  0  0  0  0  0  0  0  0
   20.8241  -11.6716  -18.0479 C   0  0  2  0  0  0  0  0  0  0  0  0
   20.3883  -13.0191  -17.7298 N   0  0  0  0  0  0  0  0  0  0  0  0
   20.3063  -10.7428  -17.0553 C   0  0  0  0  0  0  0  0  0  0  0  0
   19.0917  -10.5727  -16.7795 O   0  0  0  0  0  0  0  0  0  0  0  0
   21.2179   -9.9412  -16.3127 N   0  0  0  0  0  0  0  0  0  0  0  0
   20.7700   -8.9119  -15.3930 C   0  0  1  0  0  0  0  0  0  0  0  0
   20.9917   -9.2937  -13.9560 C   0  0  0  0  0  0  0  0  0  0  0  0
   20.4177   -8.3581  -12.9858 C   0  0  0  0  0  0  0  0  0  0  0  0
   19.4326   -7.6057  -13.1735 O   0  0  0  0  0  0  0  0  0  0  0  0
   21.5386   -7.6453  -15.6371 C   0  0  0  0  0  0  0  0  0  0  0  0
   22.7807   -7.7042  -15.8821 O   0  0  0  0  0  0  0  0  0  0  0  0
   21.0166   -8.2903  -11.7309 O   0  0  0  0  0  0  0  0  0  0  0  0
   20.9048   -6.3748  -15.6003 N   0  0  0  0  0  0  0  0  0  0  0  0
   21.6069   -5.1768  -15.9626 C   0  0  1  0  0  0  0  0  0  0  0  0
   20.8636   -4.3683  -17.0051 C   0  0  0  0  0  0  0  0  0  0  0  0
   21.6241   -3.1839  -17.4347 C   0  0  0  0  0  0  0  0  0  0  0  0
   22.7707   -3.0163  -16.9458 O   0  0  0  0  0  0  0  0  0  0  0  0
   21.9727   -4.3550  -14.7897 C   0  0  0  0  0  0  0  0  0  0  0  0
   23.0775   -3.5252  -14.7470 O   0  0  0  0  0  0  0  0  0  0  0  0
   21.1715   -2.2362  -18.3397 O   0  0  0  0  0  0  0  0  0  0  0  0
   21.2387   -4.4126  -13.7731 O   0  0  0  0  0  0  0  0  0  0  0  0
  2  1  1  0
  3  2  1  0
  3  4  1  6
  5  3  1  0
  5  6  1  1
  7  5  1  0
  7  8  2  0
  9  7  1  0
 10  9  1  0
 10 11  1  1
 12 11  1  0
 13 12  2  0
 14 10  1  0
 14 17  1  0
 15 14  2  0
 16 12  1  0
 18 17  1  0
 18 22  1  0
 19 20  1  0
 18 19  1  6
 20 21  2  0
 22 23  1  0
 24 20  1  0
 25 22  2  0
M  END
$$$$
