IDD.pdb
     RDKit          3D

 25 24  0  0  1  0  0  0  0  0999 V2000
   20.3862  -13.9146  -16.5666 C   0  0  0  0  0  0  0  0  0  0  0  0
   20.1871  -12.5494  -17.1839 C   0  0  0  0  0  0  0  0  0  0  0  0
   20.0076  -11.5127  -16.1084 C   0  0  2  0  0  0  0  0  0  0  0  0
   18.8169  -11.9394  -15.2810 C   0  0  0  0  0  0  0  0  0  0  0  0
   19.8818  -10.1147  -16.6315 C   0  0  2  0  0  0  0  0  0  0  0  0
   20.9159   -9.8588  -17.6175 N   0  0  0  0  0  0  0  0  0  0  0  0
   19.9068   -9.0744  -15.6151 C   0  0  0  0  0  0  0  0  0  0  0  0
   19.1524   -9.0177  -14.6111 O   0  0  0  0  0  0  0  0  0  0  0  0
   20.8489   -8.0142  -15.7301 N   0  0  0  0  0  0  0  0  0  0  0  0
   20.9263   -6.9400  -14.7574 C   0  0  1  0  0  0  0  0  0  0  0  0
   22.3427   -6.5168  -14.4847 C   0  0  0  0  0  0  0  0  0  0  0  0
   22.4768   -5.4717  -13.4669 C   0  0  0  0  0  0  0  0  0  0  0  0
   22.8936   -4.3039  -13.6527 O   0  0  0  0  0  0  0  0  0  0  0  0
   20.1969   -5.7340  -15.2756 C   0  0  0  0  0  0  0  0  0  0  0  0
   20.4045   -5.3388  -16.4618 O   0  0  0  0  0  0  0  0  0  0  0  0
   22.1086   -5.7964  -12.1643 O   0  0  0  0  0  0  0  0  0  0  0  0
   19.2744   -5.0207  -14.4649 N   0  0  0  0  0  0  0  0  0  0  0  0
   18.6064   -3.8456  -14.9471 C   0  0  1  0  0  0  0  0  0  0  0  0
   17.1035   -3.9312  -14.7831 C   0  0  0  0  0  0  0  0  0  0  0  0
   16.5111   -4.9750  -15.6347 C   0  0  0  0  0  0  0  0  0  0  0  0
   16.9399   -5.0822  -16.8122 O   0  0  0  0  0  0  0  0  0  0  0  0
   19.1515   -2.6016  -14.3638 C   0  0  0  0  0  0  0  0  0  0  0  0
   18.7153   -1.3358  -14.7080 O   0  0  0  0  0  0  0  0  0  0  0  0
   15.5135   -5.8517  -15.2367 O   0  0  0  0  0  0  0  0  0  0  0  0
   20.0631   -2.6984  -13.5064 O   0  0  0  0  0  0  0  0  0  0  0  0
  2  1  1  0
  3  2  1  0
  3  4  1  6
  5  3  1  0
  5  6  1  6
  7  5  1  0
  7  8  2  0
  9  7  1  0
 10  9  1  0
 10 11  1  6
 12 11  1  0
 13 12  2  0
 14 10  1  0
 14 17  1  0
 15 14  2  0
 16 12  1  0
 18 17  1  0
 18 22  1  0
 19 20  1  0
 18 19  1  1
 20 21  2  0
 22 23  1  0
 24 20  1  0
 25 22  2  0
M  END
$$$$
