IDD.pdb
     RDKit          3D

 25 24  0  0  1  0  0  0  0  0999 V2000
   23.4088  -16.9363  -15.5653 C   0  0  0  0  0  0  0  0  0  0  0  0
   22.6442  -15.8247  -14.8840 C   0  0  0  0  0  0  0  0  0  0  0  0
   22.8298  -14.5316  -15.6303 C   0  0  2  0  0  0  0  0  0  0  0  0
   24.3019  -14.1948  -15.5670 C   0  0  0  0  0  0  0  0  0  0  0  0
   21.9565  -13.4187  -15.1376 C   0  0  2  0  0  0  0  0  0  0  0  0
   20.6054  -13.9049  -14.9251 N   0  0  0  0  0  0  0  0  0  0  0  0
   21.9240  -12.2405  -15.9901 C   0  0  0  0  0  0  0  0  0  0  0  0
   22.9301  -11.6007  -16.3885 O   0  0  0  0  0  0  0  0  0  0  0  0
   20.6681  -11.7379  -16.4318 N   0  0  0  0  0  0  0  0  0  0  0  0
   20.5620  -10.5934  -17.3178 C   0  0  1  0  0  0  0  0  0  0  0  0
   19.6772  -10.8674  -18.5019 C   0  0  0  0  0  0  0  0  0  0  0  0
   19.5546   -9.7470  -19.4377 C   0  0  0  0  0  0  0  0  0  0  0  0
   20.3554   -9.4576  -20.3580 O   0  0  0  0  0  0  0  0  0  0  0  0
   19.9618   -9.4334  -16.5769 C   0  0  0  0  0  0  0  0  0  0  0  0
   19.0295   -9.6381  -15.7432 O   0  0  0  0  0  0  0  0  0  0  0  0
   18.4451   -8.9174  -19.3006 O   0  0  0  0  0  0  0  0  0  0  0  0
   20.4155   -8.1043  -16.7881 N   0  0  0  0  0  0  0  0  0  0  0  0
   19.8550   -6.9979  -16.0661 C   0  0  1  0  0  0  0  0  0  0  0  0
   18.8267   -7.4395  -15.0460 C   0  0  0  0  0  0  0  0  0  0  0  0
   18.2811   -6.3063  -14.2819 C   0  0  0  0  0  0  0  0  0  0  0  0
   18.7183   -5.1573  -14.5475 O   0  0  0  0  0  0  0  0  0  0  0  0
   20.8883   -6.1303  -15.4625 C   0  0  0  0  0  0  0  0  0  0  0  0
   22.2470   -6.3544  -15.5843 O   0  0  0  0  0  0  0  0  0  0  0  0
   17.3193   -6.4091  -13.2887 O   0  0  0  0  0  0  0  0  0  0  0  0
   20.5122   -5.1321  -14.8009 O   0  0  0  0  0  0  0  0  0  0  0  0
  2  1  1  0
  3  2  1  0
  3  4  1  1
  5  3  1  0
  5  6  1  6
  7  5  1  0
  7  8  2  0
  9  7  1  0
 10  9  1  0
 10 11  1  6
 12 11  1  0
 13 12  2  0
 14 10  1  0
 14 17  1  0
 15 14  2  0
 16 12  1  0
 18 17  1  0
 18 22  1  0
 19 20  1  0
 18 19  1  1
 20 21  2  0
 22 23  1  0
 24 20  1  0
 25 22  2  0
M  END
$$$$
