IDD.pdb
     RDKit          3D

 25 24  0  0  1  0  0  0  0  0999 V2000
   24.0694  -33.4641  -11.6493 C   0  0  0  0  0  0  0  0  0  0  0  0
   24.3686  -32.6534  -10.4093 C   0  0  0  0  0  0  0  0  0  0  0  0
   24.9327  -33.5389   -9.3317 C   0  0  2  0  0  0  0  0  0  0  0  0
   23.9135  -34.6255   -9.0773 C   0  0  0  0  0  0  0  0  0  0  0  0
   25.3217  -32.8027   -8.0865 C   0  0  2  0  0  0  0  0  0  0  0  0
   26.2676  -31.7495   -8.4076 N   0  0  0  0  0  0  0  0  0  0  0  0
   25.8603  -33.6365   -7.0232 C   0  0  0  0  0  0  0  0  0  0  0  0
   25.3392  -34.6967   -6.5931 O   0  0  0  0  0  0  0  0  0  0  0  0
   27.0769  -33.2554   -6.3910 N   0  0  0  0  0  0  0  0  0  0  0  0
   27.7164  -34.0816   -5.3839 C   0  0  1  0  0  0  0  0  0  0  0  0
   29.0932  -33.5910   -5.0322 C   0  0  0  0  0  0  0  0  0  0  0  0
   29.7976  -34.4181   -4.0494 C   0  0  0  0  0  0  0  0  0  0  0  0
   29.4923  -34.5572   -2.8413 O   0  0  0  0  0  0  0  0  0  0  0  0
   26.9040  -34.0608   -4.1211 C   0  0  0  0  0  0  0  0  0  0  0  0
   26.1904  -33.0483   -3.8528 O   0  0  0  0  0  0  0  0  0  0  0  0
   30.9154  -35.1216   -4.4891 O   0  0  0  0  0  0  0  0  0  0  0  0
   26.9153  -35.1538   -3.2144 N   0  0  0  0  0  0  0  0  0  0  0  0
   26.0568  -35.1819   -2.0646 C   0  0  1  0  0  0  0  0  0  0  0  0
   24.6039  -34.9566   -2.4269 C   0  0  0  0  0  0  0  0  0  0  0  0
   23.6962  -35.3062   -1.3227 C   0  0  0  0  0  0  0  0  0  0  0  0
   24.2087  -35.7423   -0.2601 O   0  0  0  0  0  0  0  0  0  0  0  0
   26.2359  -36.4027   -1.2507 C   0  0  0  0  0  0  0  0  0  0  0  0
   26.1277  -36.4306    0.1271 O   0  0  0  0  0  0  0  0  0  0  0  0
   22.3152  -35.1912   -1.3646 O   0  0  0  0  0  0  0  0  0  0  0  0
   26.5015  -37.4769   -1.8433 O   0  0  0  0  0  0  0  0  0  0  0  0
  2  1  1  0
  3  2  1  0
  3  4  1  1
  5  3  1  0
  5  6  1  6
  7  5  1  0
  7  8  2  0
  9  7  1  0
 10  9  1  0
 10 11  1  1
 12 11  1  0
 13 12  2  0
 14 10  1  0
 14 17  1  0
 15 14  2  0
 16 12  1  0
 18 17  1  0
 18 22  1  0
 19 20  1  0
 18 19  1  6
 20 21  2  0
 22 23  1  0
 24 20  1  0
 25 22  2  0
M  END
$$$$
