IDD.pdb
     RDKit          3D

 25 24  0  0  1  0  0  0  0  0999 V2000
   29.1600  -20.7639  -10.5620 C   0  0  0  0  0  0  0  0  0  0  0  0
   27.9622  -21.5691  -11.0106 C   0  0  0  0  0  0  0  0  0  0  0  0
   26.7769  -20.6664  -11.2201 C   0  0  2  0  0  0  0  0  0  0  0  0
   26.4603  -20.0389   -9.8820 C   0  0  0  0  0  0  0  0  0  0  0  0
   25.5958  -21.3527  -11.8350 C   0  0  2  0  0  0  0  0  0  0  0  0
   26.0421  -22.3251  -12.8159 N   0  0  0  0  0  0  0  0  0  0  0  0
   24.6150  -20.4640  -12.4384 C   0  0  0  0  0  0  0  0  0  0  0  0
   23.7961  -19.7471  -11.8091 O   0  0  0  0  0  0  0  0  0  0  0  0
   24.5438  -20.3691  -13.8564 N   0  0  0  0  0  0  0  0  0  0  0  0
   23.5693  -19.5285  -14.5269 C   0  0  1  0  0  0  0  0  0  0  0  0
   24.0801  -18.9938  -15.8358 C   0  0  0  0  0  0  0  0  0  0  0  0
   23.1407  -18.1173  -16.5395 C   0  0  0  0  0  0  0  0  0  0  0  0
   23.2129  -16.8685  -16.6255 O   0  0  0  0  0  0  0  0  0  0  0  0
   22.3336  -20.3266  -14.8279 C   0  0  0  0  0  0  0  0  0  0  0  0
   22.4436  -21.4851  -15.3300 O   0  0  0  0  0  0  0  0  0  0  0  0
   22.0597  -18.7190  -17.1777 O   0  0  0  0  0  0  0  0  0  0  0  0
   21.0364  -19.8129  -14.5623 N   0  0  0  0  0  0  0  0  0  0  0  0
   19.9368  -20.6806  -14.2498 C   0  0  1  0  0  0  0  0  0  0  0  0
   20.3385  -21.8042  -13.3176 C   0  0  0  0  0  0  0  0  0  0  0  0
   20.0768  -23.1296  -13.9011 C   0  0  0  0  0  0  0  0  0  0  0  0
   19.5350  -23.1725  -15.0353 O   0  0  0  0  0  0  0  0  0  0  0  0
   18.7575  -19.9455  -13.7461 C   0  0  0  0  0  0  0  0  0  0  0  0
   18.7001  -18.5689  -13.6340 O   0  0  0  0  0  0  0  0  0  0  0  0
   20.3829  -24.3379  -13.2940 O   0  0  0  0  0  0  0  0  0  0  0  0
   17.7491  -20.6080  -13.3998 O   0  0  0  0  0  0  0  0  0  0  0  0
  2  1  1  0
  3  2  1  0
  3  4  1  1
  5  3  1  0
  5  6  1  6
  7  5  1  0
  7  8  2  0
  9  7  1  0
 10  9  1  0
 10 11  1  6
 12 11  1  0
 13 12  2  0
 14 10  1  0
 14 17  1  0
 15 14  2  0
 16 12  1  0
 18 17  1  0
 18 22  1  0
 19 20  1  0
 18 19  1  1
 20 21  2  0
 22 23  1  0
 24 20  1  0
 25 22  2  0
M  END
$$$$
