CVN.pdb
     RDKit          3D

 22 21  0  0  1  0  0  0  0  0999 V2000
    7.7494  -14.0370   20.4258 N   0  0  0  0  0  0  0  0  0  0  0  0
    7.1375  -14.6531   21.5736 C   0  0  1  0  0  0  0  0  0  0  0  0
    7.0229  -16.1492   21.2919 C   0  0  0  0  0  0  0  0  0  0  0  0
    6.2287  -16.9797   22.7059 S   0  0  0  0  0  0  0  0  0  0  0  0
    7.8447  -14.3997   22.8413 C   0  0  0  0  0  0  0  0  0  0  0  0
    9.1219  -14.4547   22.7957 O   0  0  0  0  0  0  0  0  0  0  0  0
    7.2940  -11.6499   25.7306 C   0  0  0  0  0  0  0  0  0  0  0  0
    7.3379  -13.0555   26.2814 C   0  0  1  0  0  0  0  0  0  0  0  0
    5.9563  -13.5150   26.6555 C   0  0  0  0  0  0  0  0  0  0  0  0
    7.9931  -13.9501   25.2512 C   0  0  2  0  0  0  0  0  0  0  0  0
    7.2009  -14.1065   24.0703 N   0  0  0  0  0  0  0  0  0  0  0  0
    8.3605  -15.2703   25.8447 C   0  0  0  0  0  0  0  0  0  0  0  0
    7.5052  -16.2087   25.9133 O   0  0  0  0  0  0  0  0  0  0  0  0
   10.3614  -17.5997   24.1253 N   0  0  0  0  0  0  0  0  0  0  0  0
   11.3979  -17.6361   25.0858 C   0  0  0  0  0  0  0  0  0  0  0  0
   12.5362  -18.0145   24.6418 O   0  0  0  0  0  0  0  0  0  0  0  0
   11.3137  -17.2929   26.4988 C   0  0  0  0  0  0  0  0  0  0  0  0
    9.9557  -16.8485   26.9837 C   0  0  2  0  0  0  0  0  0  0  0  0
    9.6445  -15.5696   26.3588 N   0  0  0  0  0  0  0  0  0  0  0  0
    9.9552  -16.7624   28.4502 C   0  0  0  0  0  0  0  0  0  0  0  0
    9.8444  -15.6797   29.0426 O   0  0  0  0  0  0  0  0  0  0  0  0
   10.0813  -17.9250   29.1841 O   0  0  0  0  0  0  0  0  0  0  0  0
  2  1  1  6
  2  3  1  0
  2  5  1  0
  4  3  1  0
  5 11  1  0
  5  6  2  0
  8  7  1  6
  8 10  1  0
  8  9  1  0
 10 12  1  0
 10 11  1  6
 12 19  1  0
 13 12  2  0
 14 15  1  0
 15 16  2  0
 17 15  1  0
 18 20  1  0
 18 17  1  6
 19 18  1  0
 20 22  1  0
 21 20  2  0
M  END
$$$$
