CVN.pdb
     RDKit          3D

 22 21  0  0  1  0  0  0  0  0999 V2000
    8.3330  -17.0795   16.9099 N   0  0  0  0  0  0  0  0  0  0  0  0
    7.8234  -17.2341   18.2470 C   0  0  1  0  0  0  0  0  0  0  0  0
    7.8544  -18.7222   18.5868 C   0  0  0  0  0  0  0  0  0  0  0  0
    7.1469  -18.9869   20.2449 S   0  0  0  0  0  0  0  0  0  0  0  0
    8.5395  -16.4387   19.2598 C   0  0  0  0  0  0  0  0  0  0  0  0
    9.8129  -16.3949   19.1459 O   0  0  0  0  0  0  0  0  0  0  0  0
    7.6170  -12.8513   20.7452 C   0  0  0  0  0  0  0  0  0  0  0  0
    7.9657  -13.8231   21.8474 C   0  0  1  0  0  0  0  0  0  0  0  0
    6.7254  -14.2481   22.5831 C   0  0  0  0  0  0  0  0  0  0  0  0
    8.7113  -14.9895   21.2351 C   0  0  2  0  0  0  0  0  0  0  0  0
    7.9079  -15.7409   20.3204 N   0  0  0  0  0  0  0  0  0  0  0  0
    9.3011  -15.8627   22.2933 C   0  0  0  0  0  0  0  0  0  0  0  0
    8.6366  -16.8343   22.7741 O   0  0  0  0  0  0  0  0  0  0  0  0
   13.1398  -17.6238   21.9633 N   0  0  0  0  0  0  0  0  0  0  0  0
   13.3987  -16.6016   22.9047 C   0  0  0  0  0  0  0  0  0  0  0  0
   14.4721  -15.9361   22.7016 O   0  0  0  0  0  0  0  0  0  0  0  0
   12.5903  -16.2281   24.0572 C   0  0  0  0  0  0  0  0  0  0  0  0
   11.1094  -16.4870   23.9284 C   0  0  2  0  0  0  0  0  0  0  0  0
   10.6004  -15.6834   22.8246 N   0  0  0  0  0  0  0  0  0  0  0  0
   10.4377  -16.1735   25.1967 C   0  0  0  0  0  0  0  0  0  0  0  0
   10.5883  -16.8737   26.2080 O   0  0  0  0  0  0  0  0  0  0  0  0
    9.6170  -15.0651   25.2577 O   0  0  0  0  0  0  0  0  0  0  0  0
  2  1  1  6
  2  3  1  0
  2  5  1  0
  4  3  1  0
  5 11  1  0
  5  6  2  0
  8  7  1  6
  8 10  1  0
  8  9  1  0
 10 12  1  0
 10 11  1  1
 12 19  1  0
 13 12  2  0
 14 15  1  0
 15 16  2  0
 17 15  1  0
 18 20  1  0
 18 17  1  1
 19 18  1  0
 20 22  1  0
 21 20  2  0
M  END
$$$$
