CVN.pdb
     RDKit          3D

 22 21  0  0  1  0  0  0  0  0999 V2000
    7.5644  -14.3264   20.5317 N   0  0  0  0  0  0  0  0  0  0  0  0
    6.9612  -14.8293   21.7379 C   0  0  1  0  0  0  0  0  0  0  0  0
    6.7301  -16.3270   21.5523 C   0  0  0  0  0  0  0  0  0  0  0  0
    5.8352  -16.9919   22.9934 S   0  0  0  0  0  0  0  0  0  0  0  0
    7.7387  -14.5549   22.9592 C   0  0  0  0  0  0  0  0  0  0  0  0
    9.0086  -14.6711   22.8577 O   0  0  0  0  0  0  0  0  0  0  0  0
    7.3181  -11.7065   25.7652 C   0  0  0  0  0  0  0  0  0  0  0  0
    7.4388  -13.0817   26.3776 C   0  0  1  0  0  0  0  0  0  0  0  0
    6.1047  -13.5448   26.8930 C   0  0  0  0  0  0  0  0  0  0  0  0
    8.0210  -14.0159   25.3386 C   0  0  2  0  0  0  0  0  0  0  0  0
    7.1679  -14.1797   24.2019 N   0  0  0  0  0  0  0  0  0  0  0  0
    8.3859  -15.3307   25.9453 C   0  0  0  0  0  0  0  0  0  0  0  0
    7.4867  -16.1847   26.2265 O   0  0  0  0  0  0  0  0  0  0  0  0
   12.0363  -16.9376   23.9000 N   0  0  0  0  0  0  0  0  0  0  0  0
   11.2361  -17.6449   24.8261 C   0  0  0  0  0  0  0  0  0  0  0  0
   10.3969  -18.4591   24.3074 O   0  0  0  0  0  0  0  0  0  0  0  0
   11.2645  -17.5520   26.2793 C   0  0  0  0  0  0  0  0  0  0  0  0
   10.0308  -16.9663   26.9211 C   0  0  2  0  0  0  0  0  0  0  0  0
    9.7146  -15.7157   26.2436 N   0  0  0  0  0  0  0  0  0  0  0  0
   10.2622  -16.7736   28.3589 C   0  0  0  0  0  0  0  0  0  0  0  0
   10.2039  -15.6543   28.8874 O   0  0  0  0  0  0  0  0  0  0  0  0
   10.5516  -17.8754   29.1388 O   0  0  0  0  0  0  0  0  0  0  0  0
  2  1  1  6
  2  3  1  0
  2  5  1  0
  4  3  1  0
  5 11  1  0
  5  6  2  0
  8  7  1  6
  8 10  1  0
  8  9  1  0
 10 12  1  0
 10 11  1  6
 12 19  1  0
 13 12  2  0
 14 15  1  0
 15 16  2  0
 17 15  1  0
 18 20  1  0
 18 17  1  6
 19 18  1  0
 20 22  1  0
 21 20  2  0
M  END
$$$$
