CVN.pdb
     RDKit          3D

 22 21  0  0  1  0  0  0  0  0999 V2000
    7.3718  -15.2245   20.7858 N   0  0  0  0  0  0  0  0  0  0  0  0
    6.7063  -15.3997   22.0498 C   0  0  1  0  0  0  0  0  0  0  0  0
    6.6637  -16.8963   22.3489 C   0  0  0  0  0  0  0  0  0  0  0  0
    5.6048  -17.7353   21.1263 S   0  0  0  0  0  0  0  0  0  0  0  0
    7.3174  -14.6491   23.1609 C   0  0  0  0  0  0  0  0  0  0  0  0
    8.5942  -14.5704   23.1539 O   0  0  0  0  0  0  0  0  0  0  0  0
    7.2201  -11.9851   27.2787 C   0  0  0  0  0  0  0  0  0  0  0  0
    6.3854  -12.5657   26.1620 C   0  0  1  0  0  0  0  0  0  0  0  0
    5.6565  -11.4733   25.4302 C   0  0  0  0  0  0  0  0  0  0  0  0
    7.2941  -13.3704   25.2576 C   0  0  2  0  0  0  0  0  0  0  0  0
    6.5843  -14.0286   24.2042 N   0  0  0  0  0  0  0  0  0  0  0  0
    8.1203  -14.3317   26.0471 C   0  0  0  0  0  0  0  0  0  0  0  0
    8.7893  -13.9348   27.0530 O   0  0  0  0  0  0  0  0  0  0  0  0
    9.7866  -19.0172   28.2207 N   0  0  0  0  0  0  0  0  0  0  0  0
    8.4849  -18.9020   27.6816 C   0  0  0  0  0  0  0  0  0  0  0  0
    7.7151  -19.8991   27.9044 O   0  0  0  0  0  0  0  0  0  0  0  0
    7.9336  -17.7915   26.9174 C   0  0  0  0  0  0  0  0  0  0  0  0
    8.8860  -16.6557   26.6351 C   0  0  2  0  0  0  0  0  0  0  0  0
    8.2193  -15.7113   25.7481 N   0  0  0  0  0  0  0  0  0  0  0  0
   10.1274  -17.1813   26.0513 C   0  0  0  0  0  0  0  0  0  0  0  0
   10.8635  -17.9618   26.6713 O   0  0  0  0  0  0  0  0  0  0  0  0
   10.4781  -16.7914   24.7742 O   0  0  0  0  0  0  0  0  0  0  0  0
  2  1  1  6
  2  3  1  0
  2  5  1  0
  4  3  1  0
  5 11  1  0
  5  6  2  0
  8  7  1  1
  8 10  1  0
  8  9  1  0
 10 12  1  0
 10 11  1  6
 12 19  1  0
 13 12  2  0
 14 15  1  0
 15 16  2  0
 17 15  1  0
 18 20  1  0
 18 17  1  6
 19 18  1  0
 20 22  1  0
 21 20  2  0
M  END
$$$$
