CVN.pdb
     RDKit          3D

 22 21  0  0  1  0  0  0  0  0999 V2000
    5.7425  -14.6799   26.8418 N   0  0  0  0  0  0  0  0  0  0  0  0
    6.6184  -13.9144   25.9943 C   0  0  1  0  0  0  0  0  0  0  0  0
    7.6014  -13.1694   26.8941 C   0  0  0  0  0  0  0  0  0  0  0  0
    6.9417  -11.5168   27.2858 S   0  0  0  0  0  0  0  0  0  0  0  0
    7.3239  -14.7151   24.9782 C   0  0  0  0  0  0  0  0  0  0  0  0
    7.5821  -15.9274   25.2945 O   0  0  0  0  0  0  0  0  0  0  0  0
    8.7640  -15.7360   20.4429 C   0  0  0  0  0  0  0  0  0  0  0  0
    8.1476  -14.6871   21.3378 C   0  0  1  0  0  0  0  0  0  0  0  0
    6.7038  -14.4735   20.9772 C   0  0  0  0  0  0  0  0  0  0  0  0
    8.3335  -15.1199   22.7762 C   0  0  2  0  0  0  0  0  0  0  0  0
    7.7179  -14.2249   23.7072 N   0  0  0  0  0  0  0  0  0  0  0  0
    9.7784  -15.3297   23.0897 C   0  0  0  0  0  0  0  0  0  0  0  0
   10.3532  -14.6343   23.9857 O   0  0  0  0  0  0  0  0  0  0  0  0
   13.5654  -18.7511   24.5638 N   0  0  0  0  0  0  0  0  0  0  0  0
   12.2320  -18.5027   24.9622 C   0  0  0  0  0  0  0  0  0  0  0  0
   11.8746  -19.0758   26.0486 O   0  0  0  0  0  0  0  0  0  0  0  0
   11.2402  -17.6783   24.2855 C   0  0  0  0  0  0  0  0  0  0  0  0
   11.7380  -16.9086   23.0869 C   0  0  2  0  0  0  0  0  0  0  0  0
   10.5922  -16.2859   22.4370 N   0  0  0  0  0  0  0  0  0  0  0  0
   12.4639  -17.8110   22.1831 C   0  0  0  0  0  0  0  0  0  0  0  0
   13.6891  -17.7266   22.0184 O   0  0  0  0  0  0  0  0  0  0  0  0
   11.7550  -18.7796   21.5010 O   0  0  0  0  0  0  0  0  0  0  0  0
  2  1  1  1
  2  3  1  0
  2  5  1  0
  4  3  1  0
  5 11  1  0
  5  6  2  0
  8  7  1  6
  8 10  1  0
  8  9  1  0
 10 12  1  0
 10 11  1  1
 12 19  1  0
 13 12  2  0
 14 15  1  0
 15 16  2  0
 17 15  1  0
 18 20  1  0
 18 17  1  1
 19 18  1  0
 20 22  1  0
 21 20  2  0
M  END
$$$$
