CVN.pdb
     RDKit          3D

 22 21  0  0  1  0  0  0  0  0999 V2000
    6.2760  -15.6966   22.2131 N   0  0  0  0  0  0  0  0  0  0  0  0
    7.6051  -15.2059   21.9597 C   0  0  1  0  0  0  0  0  0  0  0  0
    7.5073  -14.1417   20.8693 C   0  0  0  0  0  0  0  0  0  0  0  0
    6.6446  -14.8285   19.4188 S   0  0  0  0  0  0  0  0  0  0  0  0
    8.2927  -14.6861   23.1548 C   0  0  0  0  0  0  0  0  0  0  0  0
    9.5510  -14.4863   23.0397 O   0  0  0  0  0  0  0  0  0  0  0  0
    6.3782  -13.5670   26.7587 C   0  0  0  0  0  0  0  0  0  0  0  0
    7.7345  -13.0074   26.4003 C   0  0  1  0  0  0  0  0  0  0  0  0
    8.5135  -12.6845   27.6449 C   0  0  0  0  0  0  0  0  0  0  0  0
    8.4416  -14.0069   25.5103 C   0  0  2  0  0  0  0  0  0  0  0  0
    7.6499  -14.4046   24.3870 N   0  0  0  0  0  0  0  0  0  0  0  0
    8.9103  -15.1865   26.2969 C   0  0  0  0  0  0  0  0  0  0  0  0
    8.0937  -16.0964   26.6463 O   0  0  0  0  0  0  0  0  0  0  0  0
   12.8365  -16.5034   24.5774 N   0  0  0  0  0  0  0  0  0  0  0  0
   12.1557  -17.2474   25.5679 C   0  0  0  0  0  0  0  0  0  0  0  0
   11.5736  -18.3059   25.1471 O   0  0  0  0  0  0  0  0  0  0  0  0
   12.0492  -16.9479   26.9893 C   0  0  0  0  0  0  0  0  0  0  0  0
   10.6788  -16.5389   27.4702 C   0  0  2  0  0  0  0  0  0  0  0  0
   10.2533  -15.3774   26.7003 N   0  0  0  0  0  0  0  0  0  0  0  0
   10.7202  -16.2619   28.9123 C   0  0  0  0  0  0  0  0  0  0  0  0
   10.5699  -15.1178   29.3640 O   0  0  0  0  0  0  0  0  0  0  0  0
   10.9322  -17.3109   29.7845 O   0  0  0  0  0  0  0  0  0  0  0  0
  2  1  1  1
  2  3  1  0
  2  5  1  0
  4  3  1  0
  5 11  1  0
  5  6  2  0
  8  7  1  1
  8 10  1  0
  8  9  1  0
 10 12  1  0
 10 11  1  6
 12 19  1  0
 13 12  2  0
 14 15  1  0
 15 16  2  0
 17 15  1  0
 18 20  1  0
 18 17  1  6
 19 18  1  0
 20 22  1  0
 21 20  2  0
M  END
$$$$
