CVN.pdb
     RDKit          3D

 22 21  0  0  1  0  0  0  0  0999 V2000
    8.2563  -17.2374   16.2838 N   0  0  0  0  0  0  0  0  0  0  0  0
    7.6286  -17.2077   17.5787 C   0  0  1  0  0  0  0  0  0  0  0  0
    7.3790  -18.6517   18.0071 C   0  0  0  0  0  0  0  0  0  0  0  0
    6.6477  -18.6779   19.6757 S   0  0  0  0  0  0  0  0  0  0  0  0
    8.3920  -16.4704   18.6008 C   0  0  0  0  0  0  0  0  0  0  0  0
    9.6435  -16.7273   18.6649 O   0  0  0  0  0  0  0  0  0  0  0  0
    7.7664  -12.6656   19.9152 C   0  0  0  0  0  0  0  0  0  0  0  0
    8.0443  -13.6338   21.0404 C   0  0  1  0  0  0  0  0  0  0  0  0
    6.7835  -13.9220   21.8070 C   0  0  0  0  0  0  0  0  0  0  0  0
    8.6693  -14.8805   20.4521 C   0  0  2  0  0  0  0  0  0  0  0  0
    7.8269  -15.5198   19.4885 N   0  0  0  0  0  0  0  0  0  0  0  0
    9.0898  -15.8272   21.5277 C   0  0  0  0  0  0  0  0  0  0  0  0
    8.2691  -16.6768   21.9983 O   0  0  0  0  0  0  0  0  0  0  0  0
   11.7353  -19.3303   21.4812 N   0  0  0  0  0  0  0  0  0  0  0  0
   12.3120  -18.0690   21.7546 C   0  0  0  0  0  0  0  0  0  0  0  0
   13.0665  -17.6058   20.8313 O   0  0  0  0  0  0  0  0  0  0  0  0
   12.1417  -17.2530   22.9489 C   0  0  0  0  0  0  0  0  0  0  0  0
   10.7462  -16.7330   23.1917 C   0  0  2  0  0  0  0  0  0  0  0  0
   10.3893  -15.8521   22.0873 N   0  0  0  0  0  0  0  0  0  0  0  0
   10.6906  -16.0450   24.4885 C   0  0  0  0  0  0  0  0  0  0  0  0
   10.8410  -16.6515   25.5586 O   0  0  0  0  0  0  0  0  0  0  0  0
   10.4649  -14.6831   24.5089 O   0  0  0  0  0  0  0  0  0  0  0  0
  2  1  1  6
  2  3  1  0
  2  5  1  0
  4  3  1  0
  5 11  1  0
  5  6  2  0
  8  7  1  6
  8 10  1  0
  8  9  1  0
 10 12  1  0
 10 11  1  6
 12 19  1  0
 13 12  2  0
 14 15  1  0
 15 16  2  0
 17 15  1  0
 18 20  1  0
 18 17  1  6
 19 18  1  0
 20 22  1  0
 21 20  2  0
M  END
$$$$
