CVN.pdb
     RDKit          3D

 22 21  0  0  1  0  0  0  0  0999 V2000
    5.8446  -20.0008   24.4238 N   0  0  0  0  0  0  0  0  0  0  0  0
    6.3124  -18.7081   24.8499 C   0  0  1  0  0  0  0  0  0  0  0  0
    7.1090  -18.9036   26.1376 C   0  0  0  0  0  0  0  0  0  0  0  0
    7.4571  -17.2831   26.8945 S   0  0  0  0  0  0  0  0  0  0  0  0
    7.1031  -17.9897   23.8351 C   0  0  0  0  0  0  0  0  0  0  0  0
    7.9324  -18.6946   23.1629 O   0  0  0  0  0  0  0  0  0  0  0  0
    7.3293  -13.7067   23.3319 C   0  0  0  0  0  0  0  0  0  0  0  0
    7.4199  -14.6471   22.1537 C   0  0  1  0  0  0  0  0  0  0  0  0
    8.3090  -14.0685   21.0885 C   0  0  0  0  0  0  0  0  0  0  0  0
    7.9045  -15.9911   22.6538 C   0  0  2  0  0  0  0  0  0  0  0  0
    6.9939  -16.6001   23.5740 N   0  0  0  0  0  0  0  0  0  0  0  0
    9.2781  -15.8845   23.2298 C   0  0  0  0  0  0  0  0  0  0  0  0
    9.4895  -15.1879   24.2724 O   0  0  0  0  0  0  0  0  0  0  0  0
   10.8262  -19.3927   25.0393 N   0  0  0  0  0  0  0  0  0  0  0  0
   11.5576  -18.1894   24.9159 C   0  0  0  0  0  0  0  0  0  0  0  0
   11.6190  -17.4803   25.9788 O   0  0  0  0  0  0  0  0  0  0  0  0
   12.2391  -17.6798   23.7339 C   0  0  0  0  0  0  0  0  0  0  0  0
   11.7518  -16.3464   23.2225 C   0  0  2  0  0  0  0  0  0  0  0  0
   10.4119  -16.5282   22.6798 N   0  0  0  0  0  0  0  0  0  0  0  0
   12.6896  -15.8262   22.2185 C   0  0  0  0  0  0  0  0  0  0  0  0
   13.8281  -15.4426   22.5224 O   0  0  0  0  0  0  0  0  0  0  0  0
   12.2853  -15.7664   20.8998 O   0  0  0  0  0  0  0  0  0  0  0  0
  2  1  1  6
  2  3  1  0
  2  5  1  0
  4  3  1  0
  5 11  1  0
  5  6  2  0
  8  7  1  1
  8 10  1  0
  8  9  1  0
 10 12  1  0
 10 11  1  1
 12 19  1  0
 13 12  2  0
 14 15  1  0
 15 16  2  0
 17 15  1  0
 18 20  1  0
 18 17  1  6
 19 18  1  0
 20 22  1  0
 21 20  2  0
M  END
$$$$
