CVN.pdb
     RDKit          3D

 22 21  0  0  1  0  0  0  0  0999 V2000
    7.4339  -18.9470   18.5981 N   0  0  0  0  0  0  0  0  0  0  0  0
    8.5729  -18.2309   18.0867 C   0  0  1  0  0  0  0  0  0  0  0  0
    8.1858  -17.6518   16.7282 C   0  0  0  0  0  0  0  0  0  0  0  0
    6.5463  -18.2788   16.2396 S   0  0  0  0  0  0  0  0  0  0  0  0
    9.0804  -17.1834   18.9903 C   0  0  0  0  0  0  0  0  0  0  0  0
   10.2252  -16.6926   18.6985 O   0  0  0  0  0  0  0  0  0  0  0  0
    7.0750  -14.2297   20.7381 C   0  0  0  0  0  0  0  0  0  0  0  0
    8.0031  -14.8884   21.7308 C   0  0  1  0  0  0  0  0  0  0  0  0
    7.2176  -15.6948   22.7272 C   0  0  0  0  0  0  0  0  0  0  0  0
    9.0061  -15.7229   20.9634 C   0  0  2  0  0  0  0  0  0  0  0  0
    8.3853  -16.7067   20.1306 N   0  0  0  0  0  0  0  0  0  0  0  0
   10.0082  -16.3367   21.8847 C   0  0  0  0  0  0  0  0  0  0  0  0
    9.8456  -17.5198   22.3212 O   0  0  0  0  0  0  0  0  0  0  0  0
   14.6617  -17.2280   24.5557 N   0  0  0  0  0  0  0  0  0  0  0  0
   14.6120  -16.0585   23.7631 C   0  0  0  0  0  0  0  0  0  0  0  0
   15.7109  -15.4083   23.6859 O   0  0  0  0  0  0  0  0  0  0  0  0
   13.4687  -15.5247   23.0357 C   0  0  0  0  0  0  0  0  0  0  0  0
   12.2034  -16.3430   23.1153 C   0  0  2  0  0  0  0  0  0  0  0  0
   11.1768  -15.6728   22.3280 N   0  0  0  0  0  0  0  0  0  0  0  0
   11.8048  -16.5066   24.5197 C   0  0  0  0  0  0  0  0  0  0  0  0
   10.9369  -15.7926   25.0416 O   0  0  0  0  0  0  0  0  0  0  0  0
   12.4179  -17.4866   25.2745 O   0  0  0  0  0  0  0  0  0  0  0  0
  2  1  1  1
  2  3  1  0
  2  5  1  0
  4  3  1  0
  5 11  1  0
  5  6  2  0
  8  7  1  6
  8 10  1  0
  8  9  1  0
 10 12  1  0
 10 11  1  1
 12 19  1  0
 13 12  2  0
 14 15  1  0
 15 16  2  0
 17 15  1  0
 18 20  1  0
 18 17  1  1
 19 18  1  0
 20 22  1  0
 21 20  2  0
M  END
$$$$
