CVN.pdb
     RDKit          3D

 22 21  0  0  1  0  0  0  0  0999 V2000
    9.4124  -17.1326   15.8690 N   0  0  0  0  0  0  0  0  0  0  0  0
    8.4820  -17.1599   16.9667 C   0  0  1  0  0  0  0  0  0  0  0  0
    8.2430  -18.6216   17.3369 C   0  0  0  0  0  0  0  0  0  0  0  0
    7.0710  -19.3682   16.1584 S   0  0  0  0  0  0  0  0  0  0  0  0
    8.9097  -16.3742   18.1377 C   0  0  0  0  0  0  0  0  0  0  0  0
   10.1621  -16.3856   18.3981 O   0  0  0  0  0  0  0  0  0  0  0  0
    8.1510  -13.2853   21.8724 C   0  0  0  0  0  0  0  0  0  0  0  0
    7.5959  -13.8379   20.5812 C   0  0  1  0  0  0  0  0  0  0  0  0
    7.3265  -12.7244   19.6076 C   0  0  0  0  0  0  0  0  0  0  0  0
    8.5721  -14.8620   20.0432 C   0  0  2  0  0  0  0  0  0  0  0  0
    8.0304  -15.6290   18.9639 N   0  0  0  0  0  0  0  0  0  0  0  0
    9.0845  -15.7395   21.1375 C   0  0  0  0  0  0  0  0  0  0  0  0
    8.4302  -16.7670   21.5021 O   0  0  0  0  0  0  0  0  0  0  0  0
   12.4970  -18.0467   24.6936 N   0  0  0  0  0  0  0  0  0  0  0  0
   13.0472  -17.2830   23.6389 C   0  0  0  0  0  0  0  0  0  0  0  0
   14.3193  -17.3529   23.5247 O   0  0  0  0  0  0  0  0  0  0  0  0
   12.3369  -16.4436   22.6838 C   0  0  0  0  0  0  0  0  0  0  0  0
   10.8328  -16.4451   22.8044 C   0  0  2  0  0  0  0  0  0  0  0  0
   10.2964  -15.5045   21.8295 N   0  0  0  0  0  0  0  0  0  0  0  0
   10.4439  -16.0999   24.1783 C   0  0  0  0  0  0  0  0  0  0  0  0
    9.9688  -14.9921   24.4657 O   0  0  0  0  0  0  0  0  0  0  0  0
   10.6143  -17.0415   25.1735 O   0  0  0  0  0  0  0  0  0  0  0  0
  2  1  1  6
  2  3  1  0
  2  5  1  0
  4  3  1  0
  5 11  1  0
  5  6  2  0
  8  7  1  1
  8 10  1  0
  8  9  1  0
 10 12  1  0
 10 11  1  6
 12 19  1  0
 13 12  2  0
 14 15  1  0
 15 16  2  0
 17 15  1  0
 18 20  1  0
 18 17  1  1
 19 18  1  0
 20 22  1  0
 21 20  2  0
M  END
$$$$
