CVN.pdb
     RDKit          3D

 22 21  0  0  1  0  0  0  0  0999 V2000
    8.0506  -14.9746   20.5728 N   0  0  0  0  0  0  0  0  0  0  0  0
    7.3375  -15.2850   21.7838 C   0  0  1  0  0  0  0  0  0  0  0  0
    7.1136  -16.7948   21.8172 C   0  0  0  0  0  0  0  0  0  0  0  0
    6.1991  -17.2452   23.3273 S   0  0  0  0  0  0  0  0  0  0  0  0
    8.0034  -14.8153   23.0115 C   0  0  0  0  0  0  0  0  0  0  0  0
    9.2692  -14.9911   23.0695 O   0  0  0  0  0  0  0  0  0  0  0  0
    6.0041  -13.4326   26.5106 C   0  0  0  0  0  0  0  0  0  0  0  0
    7.3540  -12.8582   26.1516 C   0  0  1  0  0  0  0  0  0  0  0  0
    8.1255  -12.5159   27.3956 C   0  0  0  0  0  0  0  0  0  0  0  0
    8.0763  -13.8551   25.2708 C   0  0  2  0  0  0  0  0  0  0  0  0
    7.3328  -14.1971   24.0974 N   0  0  0  0  0  0  0  0  0  0  0  0
    8.4675  -15.0697   26.0465 C   0  0  0  0  0  0  0  0  0  0  0  0
    7.5914  -15.9204   26.4008 O   0  0  0  0  0  0  0  0  0  0  0  0
   10.8276  -18.3650   24.5370 N   0  0  0  0  0  0  0  0  0  0  0  0
   11.4360  -17.3273   25.2794 C   0  0  0  0  0  0  0  0  0  0  0  0
   12.0872  -16.4731   24.5847 O   0  0  0  0  0  0  0  0  0  0  0  0
   11.4005  -17.1262   26.7214 C   0  0  0  0  0  0  0  0  0  0  0  0
   10.1359  -16.5074   27.2641 C   0  0  2  0  0  0  0  0  0  0  0  0
    9.7976  -15.3589   26.4337 N   0  0  0  0  0  0  0  0  0  0  0  0
   10.3293  -16.1345   28.6718 C   0  0  0  0  0  0  0  0  0  0  0  0
   10.3242  -14.9521   29.0428 O   0  0  0  0  0  0  0  0  0  0  0  0
   10.5209  -17.1348   29.6038 O   0  0  0  0  0  0  0  0  0  0  0  0
  2  1  1  6
  2  3  1  0
  2  5  1  0
  4  3  1  0
  5 11  1  0
  5  6  2  0
  8  7  1  1
  8 10  1  0
  8  9  1  0
 10 12  1  0
 10 11  1  6
 12 19  1  0
 13 12  2  0
 14 15  1  0
 15 16  2  0
 17 15  1  0
 18 20  1  0
 18 17  1  6
 19 18  1  0
 20 22  1  0
 21 20  2  0
M  END
$$$$
