EIY.pdb
     RDKit          3D

 30 30  0  0  1  0  0  0  0  0999 V2000
   26.8607  -22.4871  -16.7793 N   0  0  0  0  0  0  0  0  0  0  0  0
   26.4300  -21.2753  -16.1533 C   0  0  1  0  0  0  0  0  0  0  0  0
   25.5934  -20.4057  -17.0354 C   0  0  0  0  0  0  0  0  0  0  0  0
   26.3196  -19.8736  -18.2190 C   0  0  0  0  0  0  0  0  0  0  0  0
   26.1807  -20.6637  -19.4467 C   0  0  0  0  0  0  0  0  0  0  0  0
   27.1126  -20.8399  -20.2653 O   0  0  0  0  0  0  0  0  0  0  0  0
   25.6192  -21.6282  -14.9512 C   0  0  0  0  0  0  0  0  0  0  0  0
   24.8297  -22.6323  -14.9981 O   0  0  0  0  0  0  0  0  0  0  0  0
   24.9543  -21.2660  -19.7486 O   0  0  0  0  0  0  0  0  0  0  0  0
   27.7975  -21.3144  -10.0935 C   0  0  0  0  0  0  0  0  0  0  0  0
   26.9433  -21.7769  -11.2424 C   0  0  0  0  0  0  0  0  0  0  0  0
   25.7121  -20.9718  -11.3679 C   0  0  2  0  0  0  0  0  0  0  0  0
   24.8390  -21.1847  -10.1256 C   0  0  0  0  0  0  0  0  0  0  0  0
   24.8837  -21.2540  -12.6098 C   0  0  2  0  0  0  0  0  0  0  0  0
   25.7281  -20.8550  -13.7745 N   0  0  0  0  0  0  0  0  0  0  0  0
   23.6442  -20.4528  -12.6918 C   0  0  0  0  0  0  0  0  0  0  0  0
   23.7189  -19.1796  -12.7656 O   0  0  0  0  0  0  0  0  0  0  0  0
   20.1053  -23.3709  -18.2853 O   0  0  0  0  0  0  0  0  0  0  0  0
   20.4026  -22.4312  -17.2942 C   0  0  0  0  0  0  0  0  0  0  0  0
   21.6747  -22.2970  -16.7796 C   0  0  0  0  0  0  0  0  0  0  0  0
   21.9646  -21.3659  -15.7991 C   0  0  0  0  0  0  0  0  0  0  0  0
   21.0000  -20.5239  -15.2842 C   0  0  0  0  0  0  0  0  0  0  0  0
   21.2931  -19.5239  -14.2264 C   0  0  0  0  0  0  0  0  0  0  0  0
   21.1870  -20.0940  -12.8261 C   0  0  2  0  0  0  0  0  0  0  0  0
   22.3471  -20.9994  -12.6985 N   0  0  0  0  0  0  0  0  0  0  0  0
   19.9269  -20.8581  -12.6617 C   0  0  0  0  0  0  0  0  0  0  0  0
   18.6840  -20.2190  -12.6382 O   0  0  0  0  0  0  0  0  0  0  0  0
   19.7234  -20.6642  -15.8063 C   0  0  0  0  0  0  0  0  0  0  0  0
   19.4351  -21.5922  -16.7836 C   0  0  0  0  0  0  0  0  0  0  0  0
   19.9238  -22.1039  -12.5376 O   0  0  0  0  0  0  0  0  0  0  0  0
  2  1  1  6
  2  3  1  0
  3  4  1  0
  4  5  1  0
  5  9  1  0
  6  5  2  0
  7  2  1  0
  8  7  2  0
 11 10  1  0
 12 13  1  1
 12 11  1  0
 12 14  1  0
 14 15  1  6
 15  7  1  0
 16 14  1  0
 16 17  2  0
 19 18  1  0
 20 19  2  0
 21 20  1  0
 22 21  2  0
 22 28  1  0
 24 23  1  6
 23 22  1  0
 24 25  1  0
 25 16  1  0
 26 24  1  0
 27 26  1  0
 28 29  2  0
 29 19  1  0
 30 26  2  0
M  END
$$$$
