EIY.pdb
     RDKit          3D

 30 30  0  0  1  0  0  0  0  0999 V2000
   21.5618  -14.2784  -17.8212 N   0  0  0  0  0  0  0  0  0  0  0  0
   21.5271  -12.8717  -18.0775 C   0  0  1  0  0  0  0  0  0  0  0  0
   20.1461  -12.3209  -18.2303 C   0  0  0  0  0  0  0  0  0  0  0  0
   19.3953  -12.8902  -19.3809 C   0  0  0  0  0  0  0  0  0  0  0  0
   18.8151  -14.2180  -19.1551 C   0  0  0  0  0  0  0  0  0  0  0  0
   17.6156  -14.4056  -18.8459 O   0  0  0  0  0  0  0  0  0  0  0  0
   22.1801  -12.1682  -16.9348 C   0  0  0  0  0  0  0  0  0  0  0  0
   21.8936  -12.5132  -15.7378 O   0  0  0  0  0  0  0  0  0  0  0  0
   19.6181  -15.3567  -19.2842 O   0  0  0  0  0  0  0  0  0  0  0  0
   27.4777  -10.5533  -15.1137 C   0  0  0  0  0  0  0  0  0  0  0  0
   26.0349  -10.1364  -15.0232 C   0  0  0  0  0  0  0  0  0  0  0  0
   25.2069  -10.8049  -16.0466 C   0  0  2  0  0  0  0  0  0  0  0  0
   25.7494  -10.4632  -17.4393 C   0  0  0  0  0  0  0  0  0  0  0  0
   23.7262  -10.4682  -15.9953 C   0  0  2  0  0  0  0  0  0  0  0  0
   23.1061  -11.1307  -17.1807 N   0  0  0  0  0  0  0  0  0  0  0  0
   23.4409   -9.0234  -16.1210 C   0  0  0  0  0  0  0  0  0  0  0  0
   23.5897   -8.4461  -17.2509 O   0  0  0  0  0  0  0  0  0  0  0  0
   20.1500   -1.4307  -17.8611 O   0  0  0  0  0  0  0  0  0  0  0  0
   20.5468   -2.7241  -17.5097 C   0  0  0  0  0  0  0  0  0  0  0  0
   21.8666   -3.1189  -17.5668 C   0  0  0  0  0  0  0  0  0  0  0  0
   22.2550   -4.3995  -17.2182 C   0  0  0  0  0  0  0  0  0  0  0  0
   21.3461   -5.3482  -16.7961 C   0  0  0  0  0  0  0  0  0  0  0  0
   21.7457   -6.7295  -16.4251 C   0  0  0  0  0  0  0  0  0  0  0  0
   22.7705   -6.7703  -15.3092 C   0  0  2  0  0  0  0  0  0  0  0  0
   23.0011   -8.2080  -15.0611 N   0  0  0  0  0  0  0  0  0  0  0  0
   22.2427   -6.1226  -14.0841 C   0  0  0  0  0  0  0  0  0  0  0  0
   22.5299   -4.7883  -13.7829 O   0  0  0  0  0  0  0  0  0  0  0  0
   20.0211   -4.9445  -16.7409 C   0  0  0  0  0  0  0  0  0  0  0  0
   19.6345   -3.6680  -17.0884 C   0  0  0  0  0  0  0  0  0  0  0  0
   21.5198   -6.7422  -13.2711 O   0  0  0  0  0  0  0  0  0  0  0  0
  2  1  1  1
  2  3  1  0
  3  4  1  0
  4  5  1  0
  5  9  1  0
  6  5  2  0
  7  2  1  0
  8  7  2  0
 11 10  1  0
 12 13  1  6
 12 11  1  0
 12 14  1  0
 14 15  1  6
 15  7  1  0
 16 14  1  0
 16 17  2  0
 19 18  1  0
 20 19  2  0
 21 20  1  0
 22 21  2  0
 22 28  1  0
 24 23  1  6
 23 22  1  0
 24 25  1  0
 25 16  1  0
 26 24  1  0
 27 26  1  0
 28 29  2  0
 29 19  1  0
 30 26  2  0
M  END
$$$$
