EIY.pdb
     RDKit          3D

 30 30  0  0  1  0  0  0  0  0999 V2000
   26.6877  -23.2005  -16.6143 N   0  0  0  0  0  0  0  0  0  0  0  0
   26.2465  -21.9192  -16.1565 C   0  0  1  0  0  0  0  0  0  0  0  0
   25.4121  -21.1785  -17.1509 C   0  0  0  0  0  0  0  0  0  0  0  0
   26.1714  -20.7024  -18.3377 C   0  0  0  0  0  0  0  0  0  0  0  0
   26.8719  -19.4260  -18.1626 C   0  0  0  0  0  0  0  0  0  0  0  0
   26.2894  -18.3178  -18.1155 O   0  0  0  0  0  0  0  0  0  0  0  0
   25.4290  -22.1152  -14.9236 C   0  0  0  0  0  0  0  0  0  0  0  0
   24.8507  -23.2377  -14.7246 O   0  0  0  0  0  0  0  0  0  0  0  0
   28.2656  -19.4112  -18.0388 O   0  0  0  0  0  0  0  0  0  0  0  0
   27.5515  -20.9101  -10.3750 C   0  0  0  0  0  0  0  0  0  0  0  0
   26.7269  -21.5046  -11.4841 C   0  0  0  0  0  0  0  0  0  0  0  0
   25.4041  -20.8574  -11.5900 C   0  0  2  0  0  0  0  0  0  0  0  0
   24.6427  -21.0427  -10.2722 C   0  0  0  0  0  0  0  0  0  0  0  0
   24.5376  -21.3505  -12.7364 C   0  0  2  0  0  0  0  0  0  0  0  0
   25.2992  -21.0651  -13.9882 N   0  0  0  0  0  0  0  0  0  0  0  0
   23.2476  -20.6386  -12.8547 C   0  0  0  0  0  0  0  0  0  0  0  0
   23.2262  -19.3615  -12.8283 O   0  0  0  0  0  0  0  0  0  0  0  0
   22.5192  -17.5670  -18.5029 O   0  0  0  0  0  0  0  0  0  0  0  0
   21.9433  -18.3343  -17.4864 C   0  0  0  0  0  0  0  0  0  0  0  0
   22.5024  -19.5237  -17.0696 C   0  0  0  0  0  0  0  0  0  0  0  0
   21.9294  -20.2799  -16.0635 C   0  0  0  0  0  0  0  0  0  0  0  0
   20.7712  -19.8866  -15.4246 C   0  0  0  0  0  0  0  0  0  0  0  0
   20.1393  -20.6902  -14.3475 C   0  0  0  0  0  0  0  0  0  0  0  0
   20.7706  -20.4606  -12.9889 C   0  0  2  0  0  0  0  0  0  0  0  0
   22.0016  -21.2768  -13.0021 N   0  0  0  0  0  0  0  0  0  0  0  0
   19.8696  -20.9192  -11.9042 C   0  0  0  0  0  0  0  0  0  0  0  0
   18.8646  -20.0935  -11.3926 O   0  0  0  0  0  0  0  0  0  0  0  0
   20.2146  -18.6898  -15.8485 C   0  0  0  0  0  0  0  0  0  0  0  0
   20.7861  -17.9365  -16.8512 C   0  0  0  0  0  0  0  0  0  0  0  0
   19.9713  -22.0619  -11.4029 O   0  0  0  0  0  0  0  0  0  0  0  0
  2  1  1  6
  2  3  1  0
  3  4  1  0
  4  5  1  0
  5  9  1  0
  6  5  2  0
  7  2  1  0
  8  7  2  0
 11 10  1  0
 12 13  1  1
 12 11  1  0
 12 14  1  0
 14 15  1  6
 15  7  1  0
 16 14  1  0
 16 17  2  0
 19 18  1  0
 20 19  2  0
 21 20  1  0
 22 21  2  0
 22 28  1  0
 24 23  1  6
 23 22  1  0
 24 25  1  0
 25 16  1  0
 26 24  1  0
 27 26  1  0
 28 29  2  0
 29 19  1  0
 30 26  2  0
M  END
$$$$
