EIY.pdb
     RDKit          3D

 30 30  0  0  1  0  0  0  0  0999 V2000
   28.3599  -22.0758  -16.8194 N   0  0  0  0  0  0  0  0  0  0  0  0
   27.8416  -20.9731  -16.0703 C   0  0  1  0  0  0  0  0  0  0  0  0
   27.1962  -19.9217  -16.9140 C   0  0  0  0  0  0  0  0  0  0  0  0
   27.5418  -20.0126  -18.3575 C   0  0  0  0  0  0  0  0  0  0  0  0
   28.5594  -19.0627  -18.8192 C   0  0  0  0  0  0  0  0  0  0  0  0
   29.6453  -18.8690  -18.2251 O   0  0  0  0  0  0  0  0  0  0  0  0
   26.8179  -21.4912  -15.1161 C   0  0  0  0  0  0  0  0  0  0  0  0
   26.1014  -22.4965  -15.4476 O   0  0  0  0  0  0  0  0  0  0  0  0
   28.3355  -18.3175  -19.9821 O   0  0  0  0  0  0  0  0  0  0  0  0
   25.6512  -21.0369   -9.0953 C   0  0  0  0  0  0  0  0  0  0  0  0
   25.1857  -21.5210  -10.4416 C   0  0  0  0  0  0  0  0  0  0  0  0
   26.0824  -21.0715  -11.5250 C   0  0  2  0  0  0  0  0  0  0  0  0
   26.2230  -19.5458  -11.4656 C   0  0  0  0  0  0  0  0  0  0  0  0
   25.6513  -21.4752  -12.9248 C   0  0  2  0  0  0  0  0  0  0  0  0
   26.6471  -20.8713  -13.8587 N   0  0  0  0  0  0  0  0  0  0  0  0
   24.3286  -20.9437  -13.3155 C   0  0  0  0  0  0  0  0  0  0  0  0
   24.2348  -19.7521  -13.7666 O   0  0  0  0  0  0  0  0  0  0  0  0
   16.6209  -19.9976  -17.2920 O   0  0  0  0  0  0  0  0  0  0  0  0
   17.8391  -20.4132  -16.7470 C   0  0  0  0  0  0  0  0  0  0  0  0
   18.2107  -21.7408  -16.7290 C   0  0  0  0  0  0  0  0  0  0  0  0
   19.4169  -22.1478  -16.1888 C   0  0  0  0  0  0  0  0  0  0  0  0
   20.3105  -21.2507  -15.6402 C   0  0  0  0  0  0  0  0  0  0  0  0
   21.6063  -21.6719  -15.0498 C   0  0  0  0  0  0  0  0  0  0  0  0
   21.8731  -21.0437  -13.6965 C   0  0  2  0  0  0  0  0  0  0  0  0
   23.1263  -21.6709  -13.2300 N   0  0  0  0  0  0  0  0  0  0  0  0
   20.7724  -21.3440  -12.7493 C   0  0  0  0  0  0  0  0  0  0  0  0
   19.7583  -20.4172  -12.4918 O   0  0  0  0  0  0  0  0  0  0  0  0
   19.9305  -19.9177  -15.6617 C   0  0  0  0  0  0  0  0  0  0  0  0
   18.7283  -19.5125  -16.2004 C   0  0  0  0  0  0  0  0  0  0  0  0
   20.7059  -22.4371  -12.1426 O   0  0  0  0  0  0  0  0  0  0  0  0
  2  1  1  6
  2  3  1  0
  3  4  1  0
  4  5  1  0
  5  9  1  0
  6  5  2  0
  7  2  1  0
  8  7  2  0
 11 10  1  0
 12 13  1  6
 12 11  1  0
 12 14  1  0
 14 15  1  6
 15  7  1  0
 16 14  1  0
 16 17  2  0
 19 18  1  0
 20 19  2  0
 21 20  1  0
 22 21  2  0
 22 28  1  0
 24 23  1  6
 23 22  1  0
 24 25  1  0
 25 16  1  0
 26 24  1  0
 27 26  1  0
 28 29  2  0
 29 19  1  0
 30 26  2  0
M  END
$$$$
