EIY.pdb
     RDKit          3D

 30 30  0  0  1  0  0  0  0  0999 V2000
   21.6611  -14.3775  -17.8684 N   0  0  0  0  0  0  0  0  0  0  0  0
   22.2126  -13.1504  -18.3542 C   0  0  1  0  0  0  0  0  0  0  0  0
   21.2406  -12.3156  -19.1237 C   0  0  0  0  0  0  0  0  0  0  0  0
   19.9727  -13.0191  -19.4537 C   0  0  0  0  0  0  0  0  0  0  0  0
   19.6915  -13.1650  -20.8856 C   0  0  0  0  0  0  0  0  0  0  0  0
   20.4889  -12.8155  -21.7865 O   0  0  0  0  0  0  0  0  0  0  0  0
   22.6837  -12.3503  -17.1859 C   0  0  0  0  0  0  0  0  0  0  0  0
   22.1051  -12.4890  -16.0546 O   0  0  0  0  0  0  0  0  0  0  0  0
   18.4762  -13.7208  -21.3005 O   0  0  0  0  0  0  0  0  0  0  0  0
   27.7782  -11.9278  -15.8021 C   0  0  0  0  0  0  0  0  0  0  0  0
   26.2778  -12.0003  -15.8852 C   0  0  0  0  0  0  0  0  0  0  0  0
   25.6765  -10.6690  -16.1002 C   0  0  2  0  0  0  0  0  0  0  0  0
   26.1610   -9.7118  -15.0048 C   0  0  0  0  0  0  0  0  0  0  0  0
   24.1579  -10.6487  -16.1397 C   0  0  2  0  0  0  0  0  0  0  0  0
   23.7606  -11.4490  -17.3356 N   0  0  0  0  0  0  0  0  0  0  0  0
   23.5865   -9.2982  -16.3257 C   0  0  0  0  0  0  0  0  0  0  0  0
   23.9411   -8.5956  -17.3321 O   0  0  0  0  0  0  0  0  0  0  0  0
   17.1503  -11.3990  -14.3233 O   0  0  0  0  0  0  0  0  0  0  0  0
   18.0655  -10.5326  -14.9278 C   0  0  0  0  0  0  0  0  0  0  0  0
   19.0567  -10.9948  -15.7675 C   0  0  0  0  0  0  0  0  0  0  0  0
   19.9602  -10.1341  -16.3635 C   0  0  0  0  0  0  0  0  0  0  0  0
   19.9192   -8.7712  -16.1508 C   0  0  0  0  0  0  0  0  0  0  0  0
   20.8861   -7.8344  -16.7774 C   0  0  0  0  0  0  0  0  0  0  0  0
   22.0122   -7.4340  -15.8454 C   0  0  2  0  0  0  0  0  0  0  0  0
   22.6505   -8.7078  -15.4559 N   0  0  0  0  0  0  0  0  0  0  0  0
   21.4829   -6.7439  -14.6444 C   0  0  0  0  0  0  0  0  0  0  0  0
   21.6077   -7.3010  -13.3686 O   0  0  0  0  0  0  0  0  0  0  0  0
   18.9202   -8.3135  -15.3057 C   0  0  0  0  0  0  0  0  0  0  0  0
   18.0198   -9.1717  -14.7120 C   0  0  0  0  0  0  0  0  0  0  0  0
   20.9038   -5.6367  -14.7230 O   0  0  0  0  0  0  0  0  0  0  0  0
  2  1  1  1
  2  3  1  0
  3  4  1  0
  4  5  1  0
  5  9  1  0
  6  5  2  0
  7  2  1  0
  8  7  2  0
 11 10  1  0
 12 13  1  1
 12 11  1  0
 12 14  1  0
 14 15  1  6
 15  7  1  0
 16 14  1  0
 16 17  2  0
 19 18  1  0
 20 19  2  0
 21 20  1  0
 22 21  2  0
 22 28  1  0
 24 23  1  6
 23 22  1  0
 24 25  1  0
 25 16  1  0
 26 24  1  0
 27 26  1  0
 28 29  2  0
 29 19  1  0
 30 26  2  0
M  END
$$$$
