EIY.pdb
     RDKit          3D

 30 30  0  0  1  0  0  0  0  0999 V2000
   43.7841  -15.6856   -8.9307 N   0  0  0  0  0  0  0  0  0  0  0  0
   44.3194  -14.3943   -9.2339 C   0  0  1  0  0  0  0  0  0  0  0  0
   44.1269  -13.9812  -10.6573 C   0  0  0  0  0  0  0  0  0  0  0  0
   43.0421  -14.7199  -11.3567 C   0  0  0  0  0  0  0  0  0  0  0  0
   42.7503  -14.2627  -12.7193 C   0  0  0  0  0  0  0  0  0  0  0  0
   41.6496  -13.7738  -13.0642 O   0  0  0  0  0  0  0  0  0  0  0  0
   43.6413  -13.3874   -8.3660 C   0  0  0  0  0  0  0  0  0  0  0  0
   42.4725  -13.6347   -7.9114 O   0  0  0  0  0  0  0  0  0  0  0  0
   43.7329  -14.3646  -13.7103 O   0  0  0  0  0  0  0  0  0  0  0  0
   46.6932  -11.0155   -4.7163 C   0  0  0  0  0  0  0  0  0  0  0  0
   45.5113  -11.6556   -5.3922 C   0  0  0  0  0  0  0  0  0  0  0  0
   44.7610  -10.6869   -6.2159 C   0  0  2  0  0  0  0  0  0  0  0  0
   44.1847   -9.5917   -5.3107 C   0  0  0  0  0  0  0  0  0  0  0  0
   43.6383  -11.2841   -7.0472 C   0  0  2  0  0  0  0  0  0  0  0  0
   44.2910  -12.1732   -8.0532 N   0  0  0  0  0  0  0  0  0  0  0  0
   42.8644  -10.2809   -7.8084 C   0  0  0  0  0  0  0  0  0  0  0  0
   43.3478   -9.7956   -8.8868 O   0  0  0  0  0  0  0  0  0  0  0  0
   36.4688   -4.5088  -10.1554 O   0  0  0  0  0  0  0  0  0  0  0  0
   37.2130   -5.5750   -9.6425 C   0  0  0  0  0  0  0  0  0  0  0  0
   37.6973   -6.5788  -10.4543 C   0  0  0  0  0  0  0  0  0  0  0  0
   38.4333   -7.6319   -9.9428 C   0  0  0  0  0  0  0  0  0  0  0  0
   38.7216   -7.7351   -8.5972 C   0  0  0  0  0  0  0  0  0  0  0  0
   39.5043   -8.8628   -8.0310 C   0  0  0  0  0  0  0  0  0  0  0  0
   41.0017   -8.6729   -8.1686 C   0  0  2  0  0  0  0  0  0  0  0  0
   41.5951   -9.8052   -7.4287 N   0  0  0  0  0  0  0  0  0  0  0  0
   41.4289   -7.3899   -7.5601 C   0  0  0  0  0  0  0  0  0  0  0  0
   41.6611   -6.2540   -8.3407 O   0  0  0  0  0  0  0  0  0  0  0  0
   38.2318   -6.7224   -7.7870 C   0  0  0  0  0  0  0  0  0  0  0  0
   37.4984   -5.6730   -8.2973 C   0  0  0  0  0  0  0  0  0  0  0  0
   41.5987   -7.2711   -6.3254 O   0  0  0  0  0  0  0  0  0  0  0  0
  2  1  1  6
  2  3  1  0
  3  4  1  0
  4  5  1  0
  5  9  1  0
  6  5  2  0
  7  2  1  0
  8  7  2  0
 11 10  1  0
 12 13  1  1
 12 11  1  0
 12 14  1  0
 14 15  1  6
 15  7  1  0
 16 14  1  0
 16 17  2  0
 19 18  1  0
 20 19  2  0
 21 20  1  0
 22 21  2  0
 22 28  1  0
 24 23  1  1
 23 22  1  0
 24 25  1  0
 25 16  1  0
 26 24  1  0
 27 26  1  0
 28 29  2  0
 29 19  1  0
 30 26  2  0
M  END
$$$$
