EIY.pdb
     RDKit          3D

 30 30  0  0  1  0  0  0  0  0999 V2000
   27.7709  -22.7085  -16.2235 N   0  0  0  0  0  0  0  0  0  0  0  0
   27.0799  -21.5074  -15.8686 C   0  0  1  0  0  0  0  0  0  0  0  0
   26.3362  -20.8821  -17.0043 C   0  0  0  0  0  0  0  0  0  0  0  0
   27.2148  -20.3683  -18.0886 C   0  0  0  0  0  0  0  0  0  0  0  0
   27.9856  -19.1665  -17.7539 C   0  0  0  0  0  0  0  0  0  0  0  0
   29.1989  -19.1872  -17.4420 O   0  0  0  0  0  0  0  0  0  0  0  0
   26.0952  -21.8300  -14.7947 C   0  0  0  0  0  0  0  0  0  0  0  0
   25.4779  -22.9489  -14.8234 O   0  0  0  0  0  0  0  0  0  0  0  0
   27.3615  -17.9143  -17.7745 O   0  0  0  0  0  0  0  0  0  0  0  0
   27.4700  -21.0370   -9.8308 C   0  0  0  0  0  0  0  0  0  0  0  0
   26.8240  -21.5847  -11.0742 C   0  0  0  0  0  0  0  0  0  0  0  0
   25.5439  -20.9105  -11.3684 C   0  0  2  0  0  0  0  0  0  0  0  0
   24.5569  -21.1769  -10.2258 C   0  0  0  0  0  0  0  0  0  0  0  0
   24.8967  -21.3067  -12.6846 C   0  0  2  0  0  0  0  0  0  0  0  0
   25.8520  -20.9023  -13.7581 N   0  0  0  0  0  0  0  0  0  0  0  0
   23.6280  -20.5997  -12.9593 C   0  0  0  0  0  0  0  0  0  0  0  0
   23.6501  -19.3618  -13.2741 O   0  0  0  0  0  0  0  0  0  0  0  0
   16.8527  -17.8903  -17.4182 O   0  0  0  0  0  0  0  0  0  0  0  0
   17.9550  -18.4784  -16.7916 C   0  0  0  0  0  0  0  0  0  0  0  0
   18.0172  -19.8355  -16.5558 C   0  0  0  0  0  0  0  0  0  0  0  0
   19.1097  -20.4133  -15.9355 C   0  0  0  0  0  0  0  0  0  0  0  0
   20.1929  -19.6658  -15.5202 C   0  0  0  0  0  0  0  0  0  0  0  0
   21.3704  -20.2696  -14.8464 C   0  0  0  0  0  0  0  0  0  0  0  0
   21.1778  -20.4355  -13.3523 C   0  0  2  0  0  0  0  0  0  0  0  0
   22.3572  -21.2026  -12.9027 N   0  0  0  0  0  0  0  0  0  0  0  0
   19.9378  -21.1948  -13.0613 C   0  0  0  0  0  0  0  0  0  0  0  0
   19.9087  -22.5913  -13.1123 O   0  0  0  0  0  0  0  0  0  0  0  0
   20.1238  -18.3023  -15.7605 C   0  0  0  0  0  0  0  0  0  0  0  0
   19.0347  -17.7269  -16.3789 C   0  0  0  0  0  0  0  0  0  0  0  0
   18.8685  -20.6183  -12.7586 O   0  0  0  0  0  0  0  0  0  0  0  0
  2  1  1  6
  2  3  1  0
  3  4  1  0
  4  5  1  0
  5  9  1  0
  6  5  2  0
  7  2  1  0
  8  7  2  0
 11 10  1  0
 12 13  1  1
 12 11  1  0
 12 14  1  0
 14 15  1  6
 15  7  1  0
 16 14  1  0
 16 17  2  0
 19 18  1  0
 20 19  2  0
 21 20  1  0
 22 21  2  0
 22 28  1  0
 24 23  1  6
 23 22  1  0
 24 25  1  0
 25 16  1  0
 26 24  1  0
 27 26  1  0
 28 29  2  0
 29 19  1  0
 30 26  2  0
M  END
$$$$
