TEM.pdb
     RDKit          3D

 25 24  0  0  1  0  0  0  0  0999 V2000
   15.1402   -9.8964  -14.5100 C   0  0  0  0  0  0  0  0  0  0  0  0
   15.5607  -11.3195  -14.3012 C   0  0  1  0  0  0  0  0  0  0  0  0
   14.9685  -12.1559  -15.2472 O   0  0  0  0  0  0  0  0  0  0  0  0
   17.0780  -11.3928  -14.5015 C   0  0  2  0  0  0  0  0  0  0  0  0
   17.5188  -12.7611  -14.3364 N   0  0  0  0  0  0  0  0  0  0  0  0
   17.7579  -10.5282  -13.5094 C   0  0  0  0  0  0  0  0  0  0  0  0
   17.8601  -10.8994  -12.3124 O   0  0  0  0  0  0  0  0  0  0  0  0
   18.3101   -9.2704  -13.8650 N   0  0  0  0  0  0  0  0  0  0  0  0
   18.8523   -8.4241  -12.8226 C   0  0  1  0  0  0  0  0  0  0  0  0
   19.7900   -7.3830  -13.3985 C   0  0  0  0  0  0  0  0  0  0  0  0
   20.4187   -6.5192  -12.3443 C   0  0  0  0  0  0  0  0  0  0  0  0
   21.3602   -5.5162  -12.8595 C   0  0  0  0  0  0  0  0  0  0  0  0
   22.5989   -5.6630  -12.7913 O   0  0  0  0  0  0  0  0  0  0  0  0
   17.7174   -7.6732  -12.1753 C   0  0  0  0  0  0  0  0  0  0  0  0
   16.6125   -7.5744  -12.7564 O   0  0  0  0  0  0  0  0  0  0  0  0
   20.9320   -4.3283  -13.4614 O   0  0  0  0  0  0  0  0  0  0  0  0
   12.1067   -7.6861   -7.7164 C   0  0  0  0  0  0  0  0  0  0  0  0
   13.3744   -8.4026   -8.8239 S   0  0  0  0  0  0  0  0  0  0  0  0
   14.5976   -7.0651   -9.1125 C   0  0  0  0  0  0  0  0  0  0  0  0
   15.7079   -7.5579   -9.9959 C   0  0  0  0  0  0  0  0  0  0  0  0
   16.7559   -6.5083  -10.2113 C   0  0  2  0  0  0  0  0  0  0  0  0
   17.9109   -7.0866  -10.9165 N   0  0  0  0  0  0  0  0  0  0  0  0
   17.2116   -5.9237   -8.9447 C   0  0  0  0  0  0  0  0  0  0  0  0
   16.3749   -5.2736   -8.2320 O   0  0  0  0  0  0  0  0  0  0  0  0
   18.4856   -6.0159   -8.4413 O   0  0  0  0  0  0  0  0  0  0  0  0
  2  1  1  6
  2  3  1  0
  4  2  1  0
  4  5  1  1
  6  4  1  0
  6  7  2  0
  8  6  1  0
  9  8  1  0
  9 14  1  0
  9 10  1  6
 11 10  1  0
 12 11  1  0
 13 12  2  0
 14 15  2  0
 14 22  1  0
 16 12  1  0
 18 17  1  0
 19 18  1  0
 20 19  1  0
 21 20  1  1
 22 21  1  0
 23 25  1  0
 23 21  1  0
 24 23  2  0
M  END
$$$$
