TEM.pdb
     RDKit          3D

 25 24  0  0  1  0  0  0  0  0999 V2000
   17.7934  -11.9807  -18.7673 C   0  0  0  0  0  0  0  0  0  0  0  0
   18.5889  -10.8946  -18.1091 C   0  0  1  0  0  0  0  0  0  0  0  0
   18.4571  -10.9540  -16.7219 O   0  0  0  0  0  0  0  0  0  0  0  0
   20.0655  -11.1271  -18.4457 C   0  0  2  0  0  0  0  0  0  0  0  0
   20.4863  -12.4019  -17.9059 N   0  0  0  0  0  0  0  0  0  0  0  0
   20.8901  -10.0436  -17.8626 C   0  0  0  0  0  0  0  0  0  0  0  0
   21.5933  -10.2632  -16.8435 O   0  0  0  0  0  0  0  0  0  0  0  0
   20.9180   -8.7395  -18.4212 N   0  0  0  0  0  0  0  0  0  0  0  0
   21.7931   -7.7457  -17.8354 C   0  0  1  0  0  0  0  0  0  0  0  0
   22.2065   -6.7108  -18.8615 C   0  0  0  0  0  0  0  0  0  0  0  0
   23.1641   -7.2532  -19.8821 C   0  0  0  0  0  0  0  0  0  0  0  0
   23.5525   -6.2938  -20.9244 C   0  0  0  0  0  0  0  0  0  0  0  0
   23.0957   -6.3454  -22.0860 O   0  0  0  0  0  0  0  0  0  0  0  0
   21.0333   -7.0104  -16.7615 C   0  0  0  0  0  0  0  0  0  0  0  0
   19.7827   -7.0625  -16.7242 O   0  0  0  0  0  0  0  0  0  0  0  0
   24.4610   -5.2573  -20.6856 O   0  0  0  0  0  0  0  0  0  0  0  0
   18.1360   -7.6042  -10.3655 C   0  0  0  0  0  0  0  0  0  0  0  0
   19.0809   -8.2031  -11.8132 S   0  0  0  0  0  0  0  0  0  0  0  0
   19.7942   -6.7049  -12.5973 C   0  0  0  0  0  0  0  0  0  0  0  0
   20.4602   -7.0644  -13.8948 C   0  0  0  0  0  0  0  0  0  0  0  0
   21.0586   -5.8646  -14.5649 C   0  0  2  0  0  0  0  0  0  0  0  0
   21.7404   -6.2679  -15.8051 N   0  0  0  0  0  0  0  0  0  0  0  0
   22.0171   -5.1742  -13.6940 C   0  0  0  0  0  0  0  0  0  0  0  0
   23.2656   -5.3127  -13.9234 O   0  0  0  0  0  0  0  0  0  0  0  0
   21.6872   -4.3712  -12.6305 O   0  0  0  0  0  0  0  0  0  0  0  0
  2  1  1  6
  2  3  1  0
  4  2  1  0
  4  5  1  1
  6  4  1  0
  6  7  2  0
  8  6  1  0
  9  8  1  0
  9 14  1  0
  9 10  1  6
 11 10  1  0
 12 11  1  0
 13 12  2  0
 14 15  2  0
 14 22  1  0
 16 12  1  0
 18 17  1  0
 19 18  1  0
 20 19  1  0
 21 20  1  1
 22 21  1  0
 23 25  1  0
 23 21  1  0
 24 23  2  0
M  END
$$$$
