TEM.pdb
     RDKit          3D

 25 24  0  0  1  0  0  0  0  0999 V2000
   21.5792  -19.6247  -13.2664 C   0  0  0  0  0  0  0  0  0  0  0  0
   21.4045  -20.1643  -14.6534 C   0  0  1  0  0  0  0  0  0  0  0  0
   20.3002  -19.5835  -15.2765 O   0  0  0  0  0  0  0  0  0  0  0  0
   22.6483  -19.7836  -15.4632 C   0  0  2  0  0  0  0  0  0  0  0  0
   22.4483  -20.1461  -16.8497 N   0  0  0  0  0  0  0  0  0  0  0  0
   23.8326  -20.4950  -14.9290 C   0  0  0  0  0  0  0  0  0  0  0  0
   23.9185  -21.7452  -15.0323 O   0  0  0  0  0  0  0  0  0  0  0  0
   24.8965  -19.8058  -14.2916 N   0  0  0  0  0  0  0  0  0  0  0  0
   25.9845  -20.5721  -13.7209 C   0  0  1  0  0  0  0  0  0  0  0  0
   27.3257  -20.0500  -14.1937 C   0  0  0  0  0  0  0  0  0  0  0  0
   27.6647  -20.4936  -15.5868 C   0  0  0  0  0  0  0  0  0  0  0  0
   28.6372  -19.6380  -16.2796 C   0  0  0  0  0  0  0  0  0  0  0  0
   29.1020  -18.5992  -15.7644 O   0  0  0  0  0  0  0  0  0  0  0  0
   25.9577  -20.4021  -12.2237 C   0  0  0  0  0  0  0  0  0  0  0  0
   25.9057  -19.2574  -11.7188 O   0  0  0  0  0  0  0  0  0  0  0  0
   29.1083  -19.9297  -17.5641 O   0  0  0  0  0  0  0  0  0  0  0  0
   29.2385  -20.3653   -6.8650 C   0  0  0  0  0  0  0  0  0  0  0  0
   27.8406  -19.2232   -7.1629 S   0  0  0  0  0  0  0  0  0  0  0  0
   26.5037  -20.2504   -7.8882 C   0  0  0  0  0  0  0  0  0  0  0  0
   26.7496  -20.4634   -9.3547 C   0  0  0  0  0  0  0  0  0  0  0  0
   25.7364  -21.3867   -9.9609 C   0  0  2  0  0  0  0  0  0  0  0  0
   25.9914  -21.5380  -11.4023 N   0  0  0  0  0  0  0  0  0  0  0  0
   24.3664  -20.8979   -9.7655 C   0  0  0  0  0  0  0  0  0  0  0  0
   23.7242  -20.4505  -10.7745 O   0  0  0  0  0  0  0  0  0  0  0  0
   23.6939  -20.8793   -8.5689 O   0  0  0  0  0  0  0  0  0  0  0  0
  2  1  1  1
  2  3  1  0
  4  2  1  0
  4  5  1  6
  6  4  1  0
  6  7  2  0
  8  6  1  0
  9  8  1  0
  9 14  1  0
  9 10  1  6
 11 10  1  0
 12 11  1  0
 13 12  2  0
 14 15  2  0
 14 22  1  0
 16 12  1  0
 18 17  1  0
 19 18  1  0
 20 19  1  0
 21 20  1  6
 22 21  1  0
 23 25  1  0
 23 21  1  0
 24 23  2  0
M  END
$$$$
