TEM.pdb
     RDKit          3D

 25 24  0  0  1  0  0  0  0  0999 V2000
   22.8197  -12.2490  -17.1056 C   0  0  0  0  0  0  0  0  0  0  0  0
   23.8918  -12.5705  -16.1093 C   0  0  1  0  0  0  0  0  0  0  0  0
   24.2443  -13.9182  -16.1769 O   0  0  0  0  0  0  0  0  0  0  0  0
   25.1315  -11.7474  -16.4745 C   0  0  2  0  0  0  0  0  0  0  0  0
   26.2424  -12.1573  -15.6430 N   0  0  0  0  0  0  0  0  0  0  0  0
   24.8577  -10.3069  -16.2640 C   0  0  0  0  0  0  0  0  0  0  0  0
   24.9976   -9.7973  -15.1230 O   0  0  0  0  0  0  0  0  0  0  0  0
   24.4349   -9.4618  -17.3224 N   0  0  0  0  0  0  0  0  0  0  0  0
   24.1822   -8.0636  -17.0434 C   0  0  1  0  0  0  0  0  0  0  0  0
   24.2357   -7.2364  -18.3114 C   0  0  0  0  0  0  0  0  0  0  0  0
   25.6184   -7.1436  -18.8878 C   0  0  0  0  0  0  0  0  0  0  0  0
   25.7279   -6.2849  -20.0747 C   0  0  0  0  0  0  0  0  0  0  0  0
   26.3643   -5.2100  -20.0672 O   0  0  0  0  0  0  0  0  0  0  0  0
   22.7841   -7.9281  -16.4973 C   0  0  0  0  0  0  0  0  0  0  0  0
   21.8308   -8.5263  -17.0464 O   0  0  0  0  0  0  0  0  0  0  0  0
   25.1260   -6.6140  -21.2938 O   0  0  0  0  0  0  0  0  0  0  0  0
   18.9069  -11.8867  -14.5159 C   0  0  0  0  0  0  0  0  0  0  0  0
   19.8288  -10.6547  -13.5262 S   0  0  0  0  0  0  0  0  0  0  0  0
   20.0938   -9.2192  -14.6387 C   0  0  0  0  0  0  0  0  0  0  0  0
   20.8867   -8.1553  -13.9345 C   0  0  0  0  0  0  0  0  0  0  0  0
   21.1948   -7.0002  -14.8385 C   0  0  2  0  0  0  0  0  0  0  0  0
   22.5618   -7.1261  -15.3689 N   0  0  0  0  0  0  0  0  0  0  0  0
   21.0672   -5.7139  -14.1437 C   0  0  0  0  0  0  0  0  0  0  0  0
   19.9470   -5.4128  -13.6097 O   0  0  0  0  0  0  0  0  0  0  0  0
   22.0666   -4.7823  -14.0091 O   0  0  0  0  0  0  0  0  0  0  0  0
  2  1  1  6
  2  3  1  0
  4  2  1  0
  4  5  1  1
  6  4  1  0
  6  7  2  0
  8  6  1  0
  9  8  1  0
  9 14  1  0
  9 10  1  6
 11 10  1  0
 12 11  1  0
 13 12  2  0
 14 15  2  0
 14 22  1  0
 16 12  1  0
 18 17  1  0
 19 18  1  0
 20 19  1  0
 21 20  1  1
 22 21  1  0
 23 25  1  0
 23 21  1  0
 24 23  2  0
M  END
$$$$
