TEM.pdb
     RDKit          3D

 25 24  0  0  1  0  0  0  0  0999 V2000
   21.4035  -12.2814  -20.5727 C   0  0  0  0  0  0  0  0  0  0  0  0
   20.0359  -12.5078  -20.0035 C   0  0  1  0  0  0  0  0  0  0  0  0
   19.6267  -13.8259  -20.2043 O   0  0  0  0  0  0  0  0  0  0  0  0
   20.1137  -12.2709  -18.4917 C   0  0  2  0  0  0  0  0  0  0  0  0
   18.9476  -12.8440  -17.8550 N   0  0  0  0  0  0  0  0  0  0  0  0
   20.1682  -10.8171  -18.2134 C   0  0  0  0  0  0  0  0  0  0  0  0
   21.1652  -10.1414  -18.5747 O   0  0  0  0  0  0  0  0  0  0  0  0
   19.1165  -10.1428  -17.5405 N   0  0  0  0  0  0  0  0  0  0  0  0
   19.2430   -8.7223  -17.2901 C   0  0  1  0  0  0  0  0  0  0  0  0
   17.9052   -8.1116  -16.9269 C   0  0  0  0  0  0  0  0  0  0  0  0
   18.0011   -6.6486  -16.6056 C   0  0  0  0  0  0  0  0  0  0  0  0
   16.7382   -6.0349  -16.1740 C   0  0  0  0  0  0  0  0  0  0  0  0
   15.9018   -5.5829  -16.9844 O   0  0  0  0  0  0  0  0  0  0  0  0
   20.1466   -8.5232  -16.1005 C   0  0  0  0  0  0  0  0  0  0  0  0
   20.2437   -9.4134  -15.2252 O   0  0  0  0  0  0  0  0  0  0  0  0
   16.3875   -5.9154  -14.8251 O   0  0  0  0  0  0  0  0  0  0  0  0
   26.7510   -9.9081  -14.1884 C   0  0  0  0  0  0  0  0  0  0  0  0
   25.3081   -9.9118  -15.3133 S   0  0  0  0  0  0  0  0  0  0  0  0
   24.2794   -8.4780  -14.8090 C   0  0  0  0  0  0  0  0  0  0  0  0
   23.0178   -8.4317  -15.6229 C   0  0  0  0  0  0  0  0  0  0  0  0
   22.1099   -7.3242  -15.1805 C   0  0  2  0  0  0  0  0  0  0  0  0
   20.8770   -7.3320  -15.9840 N   0  0  0  0  0  0  0  0  0  0  0  0
   22.7523   -6.0103  -15.3015 C   0  0  0  0  0  0  0  0  0  0  0  0
   22.7073   -5.4058  -16.4255 O   0  0  0  0  0  0  0  0  0  0  0  0
   23.4112   -5.3534  -14.2921 O   0  0  0  0  0  0  0  0  0  0  0  0
  2  1  1  6
  2  3  1  0
  4  2  1  0
  4  5  1  1
  6  4  1  0
  6  7  2  0
  8  6  1  0
  9  8  1  0
  9 14  1  0
  9 10  1  1
 11 10  1  0
 12 11  1  0
 13 12  2  0
 14 15  2  0
 14 22  1  0
 16 12  1  0
 18 17  1  0
 19 18  1  0
 20 19  1  0
 21 20  1  6
 22 21  1  0
 23 25  1  0
 23 21  1  0
 24 23  2  0
M  END
$$$$
