TEM.pdb
     RDKit          3D

 25 24  0  0  1  0  0  0  0  0999 V2000
   13.7950  -10.5626  -15.6136 C   0  0  0  0  0  0  0  0  0  0  0  0
   15.2217  -10.1082  -15.5541 C   0  0  1  0  0  0  0  0  0  0  0  0
   15.5889   -9.7956  -14.2454 O   0  0  0  0  0  0  0  0  0  0  0  0
   16.1030  -11.2726  -16.0181 C   0  0  2  0  0  0  0  0  0  0  0  0
   15.9200  -12.3982  -15.1275 N   0  0  0  0  0  0  0  0  0  0  0  0
   17.5254  -10.8595  -16.0116 C   0  0  0  0  0  0  0  0  0  0  0  0
   18.3174  -11.3342  -15.1581 O   0  0  0  0  0  0  0  0  0  0  0  0
   18.0400   -9.9290  -16.9511 N   0  0  0  0  0  0  0  0  0  0  0  0
   19.4507   -9.6044  -16.9142 C   0  0  1  0  0  0  0  0  0  0  0  0
   19.9322   -9.1123  -18.2635 C   0  0  0  0  0  0  0  0  0  0  0  0
   21.4100   -8.8516  -18.2945 C   0  0  0  0  0  0  0  0  0  0  0  0
   21.9233   -8.4054  -19.5965 C   0  0  0  0  0  0  0  0  0  0  0  0
   21.9218   -7.2046  -19.9412 O   0  0  0  0  0  0  0  0  0  0  0  0
   19.6572   -8.4717  -15.9418 C   0  0  0  0  0  0  0  0  0  0  0  0
   18.7351   -7.6540  -15.7195 O   0  0  0  0  0  0  0  0  0  0  0  0
   22.4486   -9.2963  -20.5383 O   0  0  0  0  0  0  0  0  0  0  0  0
   22.2049   -9.3832  -10.4223 C   0  0  0  0  0  0  0  0  0  0  0  0
   22.9316   -7.7114  -10.5775 S   0  0  0  0  0  0  0  0  0  0  0  0
   22.0715   -6.9236  -11.9945 C   0  0  0  0  0  0  0  0  0  0  0  0
   21.8147   -7.9357  -13.0744 C   0  0  0  0  0  0  0  0  0  0  0  0
   21.0300   -7.3516  -14.2099 C   0  0  2  0  0  0  0  0  0  0  0  0
   20.8913   -8.3427  -15.2889 N   0  0  0  0  0  0  0  0  0  0  0  0
   21.6656   -6.1433  -14.7482 C   0  0  0  0  0  0  0  0  0  0  0  0
   22.5228   -6.2663  -15.6867 O   0  0  0  0  0  0  0  0  0  0  0  0
   21.4154   -4.8607  -14.3274 O   0  0  0  0  0  0  0  0  0  0  0  0
  2  1  1  1
  2  3  1  0
  4  2  1  0
  4  5  1  1
  6  4  1  0
  6  7  2  0
  8  6  1  0
  9  8  1  0
  9 14  1  0
  9 10  1  6
 11 10  1  0
 12 11  1  0
 13 12  2  0
 14 15  2  0
 14 22  1  0
 16 12  1  0
 18 17  1  0
 19 18  1  0
 20 19  1  0
 21 20  1  1
 22 21  1  0
 23 25  1  0
 23 21  1  0
 24 23  2  0
M  END
$$$$
