TEM.pdb
     RDKit          3D

 25 24  0  0  1  0  0  0  0  0999 V2000
   20.4832  -14.3282  -15.8492 C   0  0  0  0  0  0  0  0  0  0  0  0
   19.6338  -14.8055  -16.9878 C   0  0  1  0  0  0  0  0  0  0  0  0
   19.0767  -16.0519  -16.7028 O   0  0  0  0  0  0  0  0  0  0  0  0
   18.4816  -13.8103  -17.1607 C   0  0  2  0  0  0  0  0  0  0  0  0
   17.6139  -14.2607  -18.2274 N   0  0  0  0  0  0  0  0  0  0  0  0
   19.0205  -12.4705  -17.4902 C   0  0  0  0  0  0  0  0  0  0  0  0
   19.3062  -12.1792  -18.6796 O   0  0  0  0  0  0  0  0  0  0  0  0
   19.2313  -11.4818  -16.4945 N   0  0  0  0  0  0  0  0  0  0  0  0
   19.7410  -10.1860  -16.8917 C   0  0  1  0  0  0  0  0  0  0  0  0
   18.6743   -9.1181  -16.7635 C   0  0  0  0  0  0  0  0  0  0  0  0
   18.0751   -9.0559  -15.3889 C   0  0  0  0  0  0  0  0  0  0  0  0
   17.0593   -8.0093  -15.2131 C   0  0  0  0  0  0  0  0  0  0  0  0
   15.8599   -8.1824  -15.5164 O   0  0  0  0  0  0  0  0  0  0  0  0
   20.8546   -9.7999  -15.9524 C   0  0  0  0  0  0  0  0  0  0  0  0
   20.7509  -10.0224  -14.7245 O   0  0  0  0  0  0  0  0  0  0  0  0
   17.3679   -6.7476  -14.6939 O   0  0  0  0  0  0  0  0  0  0  0  0
   26.5611  -11.0167  -17.0118 C   0  0  0  0  0  0  0  0  0  0  0  0
   27.0196  -10.0528  -15.5259 S   0  0  0  0  0  0  0  0  0  0  0  0
   25.4847   -9.2002  -14.9917 C   0  0  0  0  0  0  0  0  0  0  0  0
   24.3556   -9.5285  -15.9265 C   0  0  0  0  0  0  0  0  0  0  0  0
   23.0924   -8.8175  -15.5453 C   0  0  2  0  0  0  0  0  0  0  0  0
   22.0072   -9.1894  -16.4671 N   0  0  0  0  0  0  0  0  0  0  0  0
   23.2591   -7.3596  -15.5650 C   0  0  0  0  0  0  0  0  0  0  0  0
   23.6677   -6.7738  -14.5064 O   0  0  0  0  0  0  0  0  0  0  0  0
   23.0127   -6.5474  -16.6440 O   0  0  0  0  0  0  0  0  0  0  0  0
  2  1  1  1
  2  3  1  0
  4  2  1  0
  4  5  1  6
  6  4  1  0
  6  7  2  0
  8  6  1  0
  9  8  1  0
  9 14  1  0
  9 10  1  1
 11 10  1  0
 12 11  1  0
 13 12  2  0
 14 15  2  0
 14 22  1  0
 16 12  1  0
 18 17  1  0
 19 18  1  0
 20 19  1  0
 21 20  1  6
 22 21  1  0
 23 25  1  0
 23 21  1  0
 24 23  2  0
M  END
$$$$
