FMP.pdb
     RDKit          3D

 27 28  0  0  1  0  0  0  0  0999 V2000
   27.8456  -21.1611   -8.9512 N   0  0  0  0  0  0  0  0  0  0  0  0
   26.5572  -20.6389   -8.5446 C   0  0  1  0  0  0  0  0  0  0  0  0
   26.7756  -19.4243   -7.6903 C   0  0  0  0  0  0  0  0  0  0  0  0
   27.6476  -19.6453   -6.5449 C   0  0  0  0  0  0  0  0  0  0  0  0
   28.6839  -20.5779   -6.6695 C   0  0  0  0  0  0  0  0  0  0  0  0
   29.5132  -20.7914   -5.5849 C   0  0  0  0  0  0  0  0  0  0  0  0
   29.3393  -20.1089   -4.3950 C   0  0  0  0  0  0  0  0  0  0  0  0
   28.3006  -19.1860   -4.2969 C   0  0  0  0  0  0  0  0  0  0  0  0
   27.4599  -18.9559   -5.3660 C   0  0  0  0  0  0  0  0  0  0  0  0
   25.8194  -20.2467   -9.8031 C   0  0  0  0  0  0  0  0  0  0  0  0
   24.8055  -19.5076   -9.7447 O   0  0  0  0  0  0  0  0  0  0  0  0
   27.8996  -19.1318  -16.0080 C   0  0  0  0  0  0  0  0  0  0  0  0
   28.6614  -18.6610  -14.4535 S   0  0  0  0  0  0  0  0  0  0  0  0
   27.4899  -18.8408  -13.0671 C   0  0  0  0  0  0  0  0  0  0  0  0
   26.6260  -20.0455  -13.3872 C   0  0  0  0  0  0  0  0  0  0  0  0
   25.6130  -20.3028  -12.2984 C   0  0  2  0  0  0  0  0  0  0  0  0
   26.2590  -20.7055  -11.0647 N   0  0  0  0  0  0  0  0  0  0  0  0
   24.6254  -21.3422  -12.6776 C   0  0  0  0  0  0  0  0  0  0  0  0
   24.8645  -22.5768  -12.4566 O   0  0  0  0  0  0  0  0  0  0  0  0
   23.3695  -21.0639  -13.2972 N   0  0  0  0  0  0  0  0  0  0  0  0
   22.8606  -19.7822  -13.7368 C   0  0  0  0  0  0  0  0  0  0  0  0
   21.3655  -19.8769  -13.4465 C   0  0  0  0  0  0  0  0  0  0  0  0
   21.0883  -21.3310  -13.1331 C   0  0  0  0  0  0  0  0  0  0  0  0
   22.3350  -22.0318  -13.6248 C   0  0  1  0  0  0  0  0  0  0  0  0
   22.2835  -22.2769  -15.0846 C   0  0  0  0  0  0  0  0  0  0  0  0
   21.5274  -23.1116  -15.6052 O   0  0  0  0  0  0  0  0  0  0  0  0
   23.1143  -21.5467  -15.9240 O   0  0  0  0  0  0  0  0  0  0  0  0
  2  1  1  6
  3  2  1  0
  4  9  1  0
  4  3  1  0
  5  4  2  0
  6  7  2  0
  6  5  1  0
  7  8  1  0
  8  9  2  0
 10 17  1  0
 10  2  1  0
 11 10  2  0
 13 12  1  0
 14 13  1  0
 15 14  1  0
 16 15  1  6
 16 17  1  0
 18 19  2  0
 18 16  1  0
 20 18  1  0
 21 20  1  0
 22 21  1  0
 23 22  1  0
 24 23  1  0
 24 20  1  0
 24 25  1  6
 26 25  2  0
 27 25  1  0
M  END
$$$$
