FMP.pdb
     RDKit          3D

 27 28  0  0  1  0  0  0  0  0999 V2000
   25.3913  -21.1759   -7.1278 N   0  0  0  0  0  0  0  0  0  0  0  0
   26.1268  -20.4573   -8.1479 C   0  0  1  0  0  0  0  0  0  0  0  0
   27.5882  -20.7642   -7.9968 C   0  0  0  0  0  0  0  0  0  0  0  0
   28.2005  -20.1955   -6.8040 C   0  0  0  0  0  0  0  0  0  0  0  0
   28.1718  -18.8056   -6.6412 C   0  0  0  0  0  0  0  0  0  0  0  0
   28.7524  -18.2616   -5.5113 C   0  0  0  0  0  0  0  0  0  0  0  0
   29.3529  -19.0557   -4.5519 C   0  0  0  0  0  0  0  0  0  0  0  0
   29.3680  -20.4362   -4.7375 C   0  0  0  0  0  0  0  0  0  0  0  0
   28.7950  -21.0022   -5.8574 C   0  0  0  0  0  0  0  0  0  0  0  0
   25.6392  -20.9618   -9.4858 C   0  0  0  0  0  0  0  0  0  0  0  0
   25.7181  -22.1815   -9.7754 O   0  0  0  0  0  0  0  0  0  0  0  0
   20.6328  -21.2247  -13.6681 C   0  0  0  0  0  0  0  0  0  0  0  0
   20.6987  -20.8431  -11.9164 S   0  0  0  0  0  0  0  0  0  0  0  0
   22.3815  -21.0832  -11.2549 C   0  0  0  0  0  0  0  0  0  0  0  0
   23.3004  -20.2123  -12.0898 C   0  0  0  0  0  0  0  0  0  0  0  0
   24.7519  -20.4851  -11.7787 C   0  0  2  0  0  0  0  0  0  0  0  0
   25.0872  -20.0691  -10.4310 N   0  0  0  0  0  0  0  0  0  0  0  0
   25.6710  -19.8089  -12.7260 C   0  0  0  0  0  0  0  0  0  0  0  0
   26.0266  -18.5978  -12.5336 O   0  0  0  0  0  0  0  0  0  0  0  0
   26.2184  -20.4294  -13.8896 N   0  0  0  0  0  0  0  0  0  0  0  0
   26.0624  -21.8022  -14.3208 C   0  0  0  0  0  0  0  0  0  0  0  0
   27.4153  -22.1331  -14.9445 C   0  0  0  0  0  0  0  0  0  0  0  0
   28.1469  -20.8162  -15.0871 C   0  0  0  0  0  0  0  0  0  0  0  0
   27.0504  -19.7921  -14.8977 C   0  0  1  0  0  0  0  0  0  0  0  0
   26.2887  -19.5702  -16.1485 C   0  0  0  0  0  0  0  0  0  0  0  0
   26.7639  -18.9904  -17.1371 O   0  0  0  0  0  0  0  0  0  0  0  0
   24.9802  -20.0264  -16.2350 O   0  0  0  0  0  0  0  0  0  0  0  0
  2  1  1  1
  3  2  1  0
  4  9  1  0
  4  3  1  0
  5  4  2  0
  6  7  2  0
  6  5  1  0
  7  8  1  0
  8  9  2  0
 10 17  1  0
 10  2  1  0
 11 10  2  0
 13 12  1  0
 14 13  1  0
 15 14  1  0
 16 15  1  6
 16 17  1  0
 18 19  2  0
 18 16  1  0
 20 18  1  0
 21 20  1  0
 22 21  1  0
 23 22  1  0
 24 23  1  0
 24 20  1  0
 24 25  1  6
 26 25  2  0
 27 25  1  0
M  END
$$$$
