FMP.pdb
     RDKit          3D

 27 28  0  0  1  0  0  0  0  0999 V2000
   19.8516  -19.5983  -14.4745 N   0  0  0  0  0  0  0  0  0  0  0  0
   20.8239  -20.6716  -14.4995 C   0  0  1  0  0  0  0  0  0  0  0  0
   20.9699  -21.1588  -15.9117 C   0  0  0  0  0  0  0  0  0  0  0  0
   19.8363  -21.9321  -16.3999 C   0  0  0  0  0  0  0  0  0  0  0  0
   18.9655  -21.3288  -17.3146 C   0  0  0  0  0  0  0  0  0  0  0  0
   17.8881  -22.0586  -17.7797 C   0  0  0  0  0  0  0  0  0  0  0  0
   17.6587  -23.3568  -17.3628 C   0  0  0  0  0  0  0  0  0  0  0  0
   18.5403  -23.9343  -16.4519 C   0  0  0  0  0  0  0  0  0  0  0  0
   19.6228  -23.2255  -15.9735 C   0  0  0  0  0  0  0  0  0  0  0  0
   22.1364  -20.0935  -14.0252 C   0  0  0  0  0  0  0  0  0  0  0  0
   22.5084  -18.9562  -14.4074 O   0  0  0  0  0  0  0  0  0  0  0  0
   25.8625  -20.2467   -8.3784 C   0  0  0  0  0  0  0  0  0  0  0  0
   26.6630  -21.2510   -9.6310 S   0  0  0  0  0  0  0  0  0  0  0  0
   26.2692  -20.6478  -11.3067 C   0  0  0  0  0  0  0  0  0  0  0  0
   24.8066  -20.9689  -11.5470 C   0  0  0  0  0  0  0  0  0  0  0  0
   24.3363  -20.4356  -12.8783 C   0  0  2  0  0  0  0  0  0  0  0  0
   22.9651  -20.8235  -13.1445 N   0  0  0  0  0  0  0  0  0  0  0  0
   25.1858  -20.8941  -14.0042 C   0  0  0  0  0  0  0  0  0  0  0  0
   24.8296  -21.8863  -14.7246 O   0  0  0  0  0  0  0  0  0  0  0  0
   26.4267  -20.2887  -14.3678 N   0  0  0  0  0  0  0  0  0  0  0  0
   27.2285  -19.3694  -13.5887 C   0  0  0  0  0  0  0  0  0  0  0  0
   27.8077  -18.4269  -14.6398 C   0  0  0  0  0  0  0  0  0  0  0  0
   27.5248  -19.0669  -15.9814 C   0  0  0  0  0  0  0  0  0  0  0  0
   27.1513  -20.4853  -15.6131 C   0  0  1  0  0  0  0  0  0  0  0  0
   28.3507  -21.3277  -15.3995 C   0  0  0  0  0  0  0  0  0  0  0  0
   28.7479  -21.6680  -14.2745 O   0  0  0  0  0  0  0  0  0  0  0  0
   29.0760  -21.7653  -16.4997 O   0  0  0  0  0  0  0  0  0  0  0  0
  2  1  1  6
  3  2  1  0
  4  9  1  0
  4  3  1  0
  5  4  2  0
  6  7  2  0
  6  5  1  0
  7  8  1  0
  8  9  2  0
 10 17  1  0
 10  2  1  0
 11 10  2  0
 13 12  1  0
 14 13  1  0
 15 14  1  0
 16 15  1  1
 16 17  1  0
 18 19  2  0
 18 16  1  0
 20 18  1  0
 21 20  1  0
 22 21  1  0
 23 22  1  0
 24 23  1  0
 24 20  1  0
 24 25  1  1
 26 25  2  0
 27 25  1  0
M  END
$$$$
