FMP.pdb
     RDKit          3D

 27 28  0  0  1  0  0  0  0  0999 V2000
   18.3936  -11.7887  -18.3595 N   0  0  0  0  0  0  0  0  0  0  0  0
   18.6306  -11.4199  -16.9790 C   0  0  1  0  0  0  0  0  0  0  0  0
   19.8302  -12.1699  -16.4774 C   0  0  0  0  0  0  0  0  0  0  0  0
   19.6301  -13.6071  -16.3524 C   0  0  0  0  0  0  0  0  0  0  0  0
   18.9759  -14.0898  -15.2130 C   0  0  0  0  0  0  0  0  0  0  0  0
   18.7847  -15.4529  -15.0899 C   0  0  0  0  0  0  0  0  0  0  0  0
   19.2225  -16.3360  -16.0595 C   0  0  0  0  0  0  0  0  0  0  0  0
   19.8707  -15.8301  -17.1838 C   0  0  0  0  0  0  0  0  0  0  0  0
   20.0731  -14.4733  -17.3289 C   0  0  0  0  0  0  0  0  0  0  0  0
   18.9157   -9.9366  -16.9579 C   0  0  0  0  0  0  0  0  0  0  0  0
   19.6851   -9.4222  -17.8071 O   0  0  0  0  0  0  0  0  0  0  0  0
   14.5047   -5.5232  -15.5985 C   0  0  0  0  0  0  0  0  0  0  0  0
   15.9345   -4.7187  -14.8725 S   0  0  0  0  0  0  0  0  0  0  0  0
   17.4856   -5.4448  -15.5001 C   0  0  0  0  0  0  0  0  0  0  0  0
   17.2663   -6.9443  -15.5580 C   0  0  0  0  0  0  0  0  0  0  0  0
   18.5250   -7.6706  -15.9655 C   0  0  2  0  0  0  0  0  0  0  0  0
   18.3210   -9.1058  -15.9825 N   0  0  0  0  0  0  0  0  0  0  0  0
   19.6695   -7.3649  -15.0732 C   0  0  0  0  0  0  0  0  0  0  0  0
   19.8588   -8.0390  -14.0054 O   0  0  0  0  0  0  0  0  0  0  0  0
   20.6233   -6.3318  -15.3214 N   0  0  0  0  0  0  0  0  0  0  0  0
   20.6298   -5.3701  -16.4030 C   0  0  0  0  0  0  0  0  0  0  0  0
   22.1138   -5.1967  -16.7133 C   0  0  0  0  0  0  0  0  0  0  0  0
   22.8621   -5.8570  -15.5759 C   0  0  0  0  0  0  0  0  0  0  0  0
   21.7959   -6.0278  -14.5170 C   0  0  1  0  0  0  0  0  0  0  0  0
   21.5951   -4.7836  -13.7389 C   0  0  0  0  0  0  0  0  0  0  0  0
   22.3777   -4.4043  -12.8540 O   0  0  0  0  0  0  0  0  0  0  0  0
   20.4838   -3.9932  -13.9998 O   0  0  0  0  0  0  0  0  0  0  0  0
  2  1  1  6
  3  2  1  0
  4  9  1  0
  4  3  1  0
  5  4  2  0
  6  7  2  0
  6  5  1  0
  7  8  1  0
  8  9  2  0
 10 17  1  0
 10  2  1  0
 11 10  2  0
 13 12  1  0
 14 13  1  0
 15 14  1  0
 16 15  1  1
 16 17  1  0
 18 19  2  0
 18 16  1  0
 20 18  1  0
 21 20  1  0
 22 21  1  0
 23 22  1  0
 24 23  1  0
 24 20  1  0
 24 25  1  6
 26 25  2  0
 27 25  1  0
M  END
$$$$
