FMP.pdb
     RDKit          3D

 27 28  0  0  1  0  0  0  0  0999 V2000
   24.0156  -19.0637  -12.7483 N   0  0  0  0  0  0  0  0  0  0  0  0
   24.0664  -19.9648  -11.6154 C   0  0  1  0  0  0  0  0  0  0  0  0
   23.8457  -21.3672  -12.1028 C   0  0  0  0  0  0  0  0  0  0  0  0
   22.4652  -21.6696  -12.4551 C   0  0  0  0  0  0  0  0  0  0  0  0
   22.1834  -22.0451  -13.7737 C   0  0  0  0  0  0  0  0  0  0  0  0
   20.8748  -22.3322  -14.1126 C   0  0  0  0  0  0  0  0  0  0  0  0
   19.8530  -22.2558  -13.1842 C   0  0  0  0  0  0  0  0  0  0  0  0
   20.1599  -21.8798  -11.8785 C   0  0  0  0  0  0  0  0  0  0  0  0
   21.4587  -21.5884  -11.5166 C   0  0  0  0  0  0  0  0  0  0  0  0
   25.4485  -19.8486  -11.0167 C   0  0  0  0  0  0  0  0  0  0  0  0
   26.4568  -19.7307  -11.7564 O   0  0  0  0  0  0  0  0  0  0  0  0
   27.7588  -18.0056   -4.6835 C   0  0  0  0  0  0  0  0  0  0  0  0
   27.9728  -19.7449   -5.0676 S   0  0  0  0  0  0  0  0  0  0  0  0
   28.2157  -19.9969   -6.8577 C   0  0  0  0  0  0  0  0  0  0  0  0
   26.8549  -19.8258   -7.5049 C   0  0  0  0  0  0  0  0  0  0  0  0
   26.9424  -19.9270   -9.0082 C   0  0  2  0  0  0  0  0  0  0  0  0
   25.6274  -19.8707   -9.6158 N   0  0  0  0  0  0  0  0  0  0  0  0
   27.6177  -21.1700   -9.4539 C   0  0  0  0  0  0  0  0  0  0  0  0
   26.9402  -22.2219   -9.7083 O   0  0  0  0  0  0  0  0  0  0  0  0
   29.0289  -21.2936   -9.6321 N   0  0  0  0  0  0  0  0  0  0  0  0
   30.0477  -20.2996   -9.3696 C   0  0  0  0  0  0  0  0  0  0  0  0
   31.0714  -20.5417  -10.4751 C   0  0  0  0  0  0  0  0  0  0  0  0
   30.6975  -21.8615  -11.1139 C   0  0  0  0  0  0  0  0  0  0  0  0
   29.7389  -22.4677  -10.1136 C   0  0  1  0  0  0  0  0  0  0  0  0
   30.4579  -23.1411   -9.0076 C   0  0  0  0  0  0  0  0  0  0  0  0
   30.5294  -22.6720   -7.8612 O   0  0  0  0  0  0  0  0  0  0  0  0
   31.0871  -24.3552   -9.2484 O   0  0  0  0  0  0  0  0  0  0  0  0
  2  1  1  6
  3  2  1  0
  4  9  1  0
  4  3  1  0
  5  4  2  0
  6  7  2  0
  6  5  1  0
  7  8  1  0
  8  9  2  0
 10 17  1  0
 10  2  1  0
 11 10  2  0
 13 12  1  0
 14 13  1  0
 15 14  1  0
 16 15  1  1
 16 17  1  0
 18 19  2  0
 18 16  1  0
 20 18  1  0
 21 20  1  0
 22 21  1  0
 23 22  1  0
 24 23  1  0
 24 20  1  0
 24 25  1  1
 26 25  2  0
 27 25  1  0
M  END
$$$$
