PFQ.pdb
     RDKit          3D

 28 29  0  0  1  0  0  0  0  0999 V2000
    7.5697  -15.1063   19.3208 N   0  0  0  0  0  0  0  0  0  0  0  0
    7.3238  -14.8505   17.9253 C   0  0  0  0  0  0  0  0  0  0  0  0
    7.7948  -13.4450   17.7311 C   0  0  0  0  0  0  0  0  0  0  0  0
    8.7040  -13.1598   18.8975 C   0  0  0  0  0  0  0  0  0  0  0  0
    8.8598  -14.5110   19.5620 C   0  0  1  0  0  0  0  0  0  0  0  0
    9.0259  -14.2800   21.0074 C   0  0  0  0  0  0  0  0  0  0  0  0
   10.1532  -13.9076   21.4355 O   0  0  0  0  0  0  0  0  0  0  0  0
    7.9118  -14.4862   21.8535 N   0  0  0  0  0  0  0  0  0  0  0  0
    8.0501  -14.2918   23.2806 C   0  0  1  0  0  0  0  0  0  0  0  0
    6.7830  -13.6400   23.7941 C   0  0  0  0  0  0  0  0  0  0  0  0
    6.8805  -13.3201   25.2376 C   0  0  0  0  0  0  0  0  0  0  0  0
    7.6259  -12.2459   25.6772 C   0  0  0  0  0  0  0  0  0  0  0  0
    7.7172  -11.9464   27.0271 C   0  0  0  0  0  0  0  0  0  0  0  0
    7.0736  -12.7009   27.9829 C   0  0  0  0  0  0  0  0  0  0  0  0
    6.3253  -13.7779   27.5518 C   0  0  0  0  0  0  0  0  0  0  0  0
    6.2383  -14.0709   26.2068 C   0  0  0  0  0  0  0  0  0  0  0  0
    8.2530  -15.6316   23.8895 C   0  0  0  0  0  0  0  0  0  0  0  0
    7.5045  -16.6134   23.6446 O   0  0  0  0  0  0  0  0  0  0  0  0
   12.1959  -19.2924   22.6828 N   0  0  0  0  0  0  0  0  0  0  0  0
   12.6560  -18.1716   23.4148 C   0  0  0  0  0  0  0  0  0  0  0  0
   13.8389  -17.7958   23.2463 O   0  0  0  0  0  0  0  0  0  0  0  0
   11.7740  -17.4521   24.3587 C   0  0  0  0  0  0  0  0  0  0  0  0
   10.3814  -18.0374   24.3590 C   0  0  0  0  0  0  0  0  0  0  0  0
    9.5627  -17.1888   25.3361 C   0  0  2  0  0  0  0  0  0  0  0  0
    9.3350  -15.8595   24.7996 N   0  0  0  0  0  0  0  0  0  0  0  0
   10.1974  -17.1372   26.6737 C   0  0  0  0  0  0  0  0  0  0  0  0
   10.5259  -18.2157   27.2255 O   0  0  0  0  0  0  0  0  0  0  0  0
   10.4519  -15.9657   27.3564 O   0  0  0  0  0  0  0  0  0  0  0  0
  1  5  1  0
  2  3  1  0
  2  1  1  0
  3  4  1  0
  4  5  1  0
  5  6  1  1
  6  7  2  0
  8  9  1  0
  8  6  1  0
  9 17  1  0
 10 11  1  0
  9 10  1  1
 11 12  2  0
 12 13  1  0
 14 13  2  0
 15 14  1  0
 16 15  2  0
 16 11  1  0
 17 18  2  0
 20 19  1  0
 20 21  2  0
 22 23  1  0
 22 20  1  0
 24 23  1  6
 24 26  1  0
 25 24  1  0
 25 17  1  0
 26 27  2  0
 26 28  1  0
M  END
$$$$
