PFQ.pdb
     RDKit          3D

 28 29  0  0  1  0  0  0  0  0999 V2000
    7.4950  -15.2122   19.4174 N   0  0  0  0  0  0  0  0  0  0  0  0
    7.1217  -14.8948   18.0634 C   0  0  0  0  0  0  0  0  0  0  0  0
    7.4632  -13.4456   17.9288 C   0  0  0  0  0  0  0  0  0  0  0  0
    8.4350  -13.1554   19.0423 C   0  0  0  0  0  0  0  0  0  0  0  0
    8.7488  -14.5261   19.6028 C   0  0  1  0  0  0  0  0  0  0  0  0
    9.0082  -14.3690   21.0444 C   0  0  0  0  0  0  0  0  0  0  0  0
   10.1212  -13.9012   21.4119 O   0  0  0  0  0  0  0  0  0  0  0  0
    7.9958  -14.7504   21.9551 N   0  0  0  0  0  0  0  0  0  0  0  0
    8.1018  -14.3669   23.3462 C   0  0  1  0  0  0  0  0  0  0  0  0
    6.7109  -14.0541   23.8579 C   0  0  0  0  0  0  0  0  0  0  0  0
    6.7433  -13.5443   25.2488 C   0  0  0  0  0  0  0  0  0  0  0  0
    7.0412  -12.2237   25.5134 C   0  0  0  0  0  0  0  0  0  0  0  0
    7.0715  -11.7467   26.8141 C   0  0  0  0  0  0  0  0  0  0  0  0
    6.8078  -12.5620   27.8924 C   0  0  0  0  0  0  0  0  0  0  0  0
    6.5087  -13.8853   27.6367 C   0  0  0  0  0  0  0  0  0  0  0  0
    6.4802  -14.3542   26.3398 C   0  0  0  0  0  0  0  0  0  0  0  0
    8.6994  -15.5154   24.0747 C   0  0  0  0  0  0  0  0  0  0  0  0
    8.2586  -16.6903   23.9766 O   0  0  0  0  0  0  0  0  0  0  0  0
   14.7637  -16.0835   24.2160 N   0  0  0  0  0  0  0  0  0  0  0  0
   13.6134  -16.5788   23.5563 C   0  0  0  0  0  0  0  0  0  0  0  0
   13.5563  -16.4843   22.3086 O   0  0  0  0  0  0  0  0  0  0  0  0
   12.4988  -17.1949   24.3076 C   0  0  0  0  0  0  0  0  0  0  0  0
   12.0292  -16.2933   25.4249 C   0  0  0  0  0  0  0  0  0  0  0  0
   10.5100  -16.4695   25.5046 C   0  0  2  0  0  0  0  0  0  0  0  0
    9.8269  -15.3218   24.9363 N   0  0  0  0  0  0  0  0  0  0  0  0
   10.0667  -16.7375   26.8925 C   0  0  0  0  0  0  0  0  0  0  0  0
   10.5086  -17.7556   27.4789 O   0  0  0  0  0  0  0  0  0  0  0  0
    9.1900  -15.9294   27.5864 O   0  0  0  0  0  0  0  0  0  0  0  0
  1  5  1  0
  2  3  1  0
  2  1  1  0
  3  4  1  0
  4  5  1  0
  5  6  1  1
  6  7  2  0
  8  9  1  0
  8  6  1  0
  9 17  1  0
 10 11  1  0
  9 10  1  1
 11 12  2  0
 12 13  1  0
 14 13  2  0
 15 14  1  0
 16 15  2  0
 16 11  1  0
 17 18  2  0
 20 19  1  0
 20 21  2  0
 22 23  1  0
 22 20  1  0
 24 23  1  1
 24 26  1  0
 25 24  1  0
 25 17  1  0
 26 27  2  0
 26 28  1  0
M  END
$$$$
