PFQ.pdb
     RDKit          3D

 28 29  0  0  1  0  0  0  0  0999 V2000
    7.6458  -15.1139   19.2410 N   0  0  0  0  0  0  0  0  0  0  0  0
    7.4052  -14.8461   17.8468 C   0  0  0  0  0  0  0  0  0  0  0  0
    7.9282  -13.4590   17.6537 C   0  0  0  0  0  0  0  0  0  0  0  0
    8.8513  -13.2106   18.8176 C   0  0  0  0  0  0  0  0  0  0  0  0
    8.9583  -14.5681   19.4790 C   0  0  1  0  0  0  0  0  0  0  0  0
    9.1376  -14.3465   20.9243 C   0  0  0  0  0  0  0  0  0  0  0  0
   10.2830  -14.0326   21.3511 O   0  0  0  0  0  0  0  0  0  0  0  0
    8.0154  -14.4957   21.7716 N   0  0  0  0  0  0  0  0  0  0  0  0
    8.1437  -14.2192   23.1861 C   0  0  1  0  0  0  0  0  0  0  0  0
    6.9050  -13.4727   23.6362 C   0  0  0  0  0  0  0  0  0  0  0  0
    6.9654  -13.1352   25.0777 C   0  0  0  0  0  0  0  0  0  0  0  0
    6.2759  -13.8818   26.0104 C   0  0  0  0  0  0  0  0  0  0  0  0
    6.3323  -13.5665   27.3587 C   0  0  0  0  0  0  0  0  0  0  0  0
    7.0726  -12.5028   27.8248 C   0  0  0  0  0  0  0  0  0  0  0  0
    7.7659  -11.7500   26.8981 C   0  0  0  0  0  0  0  0  0  0  0  0
    7.7058  -12.0689   25.5575 C   0  0  0  0  0  0  0  0  0  0  0  0
    8.2682  -15.5267   23.8803 C   0  0  0  0  0  0  0  0  0  0  0  0
    7.4415  -16.4631   23.7261 O   0  0  0  0  0  0  0  0  0  0  0  0
   11.6060  -18.2639   21.9896 N   0  0  0  0  0  0  0  0  0  0  0  0
   12.3284  -17.6682   23.0511 C   0  0  0  0  0  0  0  0  0  0  0  0
   13.5062  -17.2998   22.8361 O   0  0  0  0  0  0  0  0  0  0  0  0
   11.7216  -17.4789   24.3862 C   0  0  0  0  0  0  0  0  0  0  0  0
   10.3091  -18.0131   24.4247 C   0  0  0  0  0  0  0  0  0  0  0  0
    9.5295  -17.0888   25.3642 C   0  0  2  0  0  0  0  0  0  0  0  0
    9.3609  -15.7743   24.7723 N   0  0  0  0  0  0  0  0  0  0  0  0
   10.1663  -17.0096   26.6994 C   0  0  0  0  0  0  0  0  0  0  0  0
   10.3966  -18.0760   27.3201 O   0  0  0  0  0  0  0  0  0  0  0  0
   10.5250  -15.8246   27.3082 O   0  0  0  0  0  0  0  0  0  0  0  0
  1  5  1  0
  2  3  1  0
  2  1  1  0
  3  4  1  0
  4  5  1  0
  5  6  1  1
  6  7  2  0
  8  9  1  0
  8  6  1  0
  9 17  1  0
 10 11  1  0
  9 10  1  1
 11 12  2  0
 12 13  1  0
 14 13  2  0
 15 14  1  0
 16 15  2  0
 16 11  1  0
 17 18  2  0
 20 19  1  0
 20 21  2  0
 22 23  1  0
 22 20  1  0
 24 23  1  6
 24 26  1  0
 25 24  1  0
 25 17  1  0
 26 27  2  0
 26 28  1  0
M  END
$$$$
