PFQ.pdb
     RDKit          3D

 28 29  0  0  1  0  0  0  0  0999 V2000
    7.5617  -14.9951   19.2634 N   0  0  0  0  0  0  0  0  0  0  0  0
    7.2793  -14.6074   17.9057 C   0  0  0  0  0  0  0  0  0  0  0  0
    7.8244  -13.2187   17.8098 C   0  0  0  0  0  0  0  0  0  0  0  0
    8.7917  -13.0852   18.9565 C   0  0  0  0  0  0  0  0  0  0  0  0
    8.8927  -14.4950   19.4987 C   0  0  1  0  0  0  0  0  0  0  0  0
    9.1259  -14.3983   20.9501 C   0  0  0  0  0  0  0  0  0  0  0  0
   10.2976  -14.1735   21.3614 O   0  0  0  0  0  0  0  0  0  0  0  0
    8.0235  -14.5623   21.8205 N   0  0  0  0  0  0  0  0  0  0  0  0
    8.1552  -14.2101   23.2177 C   0  0  1  0  0  0  0  0  0  0  0  0
    6.8783  -13.5222   23.6543 C   0  0  0  0  0  0  0  0  0  0  0  0
    6.9442  -13.0994   25.0729 C   0  0  0  0  0  0  0  0  0  0  0  0
    6.3724  -13.8643   26.0683 C   0  0  0  0  0  0  0  0  0  0  0  0
    6.4340  -13.4691   27.3951 C   0  0  0  0  0  0  0  0  0  0  0  0
    7.0633  -12.3050   27.7771 C   0  0  0  0  0  0  0  0  0  0  0  0
    7.6383  -11.5333   26.7872 C   0  0  0  0  0  0  0  0  0  0  0  0
    7.5737  -11.9320   25.4684 C   0  0  0  0  0  0  0  0  0  0  0  0
    8.3735  -15.4719   23.9707 C   0  0  0  0  0  0  0  0  0  0  0  0
    7.6012  -16.4618   23.8829 O   0  0  0  0  0  0  0  0  0  0  0  0
   12.9551  -18.9166   23.2565 N   0  0  0  0  0  0  0  0  0  0  0  0
   12.4047  -19.4970   24.4244 C   0  0  0  0  0  0  0  0  0  0  0  0
   12.7071  -20.6809   24.6996 O   0  0  0  0  0  0  0  0  0  0  0  0
   11.4939  -18.7372   25.3074 C   0  0  0  0  0  0  0  0  0  0  0  0
   11.2224  -17.3578   24.7548 C   0  0  0  0  0  0  0  0  0  0  0  0
    9.8757  -16.9221   25.3394 C   0  0  2  0  0  0  0  0  0  0  0  0
    9.4989  -15.6103   24.8455 N   0  0  0  0  0  0  0  0  0  0  0  0
    9.8869  -16.9664   26.8201 C   0  0  0  0  0  0  0  0  0  0  0  0
   10.1718  -15.9193   27.4510 O   0  0  0  0  0  0  0  0  0  0  0  0
    9.6008  -18.0984   27.5550 O   0  0  0  0  0  0  0  0  0  0  0  0
  1  5  1  0
  2  3  1  0
  2  1  1  0
  3  4  1  0
  4  5  1  0
  5  6  1  1
  6  7  2  0
  8  9  1  0
  8  6  1  0
  9 17  1  0
 10 11  1  0
  9 10  1  1
 11 12  2  0
 12 13  1  0
 14 13  2  0
 15 14  1  0
 16 15  2  0
 16 11  1  0
 17 18  2  0
 20 19  1  0
 20 21  2  0
 22 23  1  0
 22 20  1  0
 24 23  1  1
 24 26  1  0
 25 24  1  0
 25 17  1  0
 26 27  2  0
 26 28  1  0
M  END
$$$$
