PFQ.pdb
     RDKit          3D

 28 29  0  0  1  0  0  0  0  0999 V2000
    7.2287  -15.7206   21.1359 N   0  0  0  0  0  0  0  0  0  0  0  0
    6.7016  -15.3859   19.8384 C   0  0  0  0  0  0  0  0  0  0  0  0
    7.1794  -13.9882   19.6082 C   0  0  0  0  0  0  0  0  0  0  0  0
    8.3278  -13.7924   20.5627 C   0  0  0  0  0  0  0  0  0  0  0  0
    8.5646  -15.1802   21.1191 C   0  0  1  0  0  0  0  0  0  0  0  0
    9.0451  -15.0291   22.5034 C   0  0  0  0  0  0  0  0  0  0  0  0
   10.2436  -14.6829   22.6940 O   0  0  0  0  0  0  0  0  0  0  0  0
    8.1396  -15.2793   23.5604 N   0  0  0  0  0  0  0  0  0  0  0  0
    8.4951  -14.9052   24.9122 C   0  0  1  0  0  0  0  0  0  0  0  0
    7.2168  -14.7208   25.7035 C   0  0  0  0  0  0  0  0  0  0  0  0
    6.9249  -13.2878   25.9420 C   0  0  0  0  0  0  0  0  0  0  0  0
    7.9451  -12.3702   26.0837 C   0  0  0  0  0  0  0  0  0  0  0  0
    7.6725  -11.0300   26.3067 C   0  0  0  0  0  0  0  0  0  0  0  0
    6.3820  -10.5571   26.3962 C   0  0  0  0  0  0  0  0  0  0  0  0
    5.3547  -11.4686   26.2556 C   0  0  0  0  0  0  0  0  0  0  0  0
    5.6325  -12.8013   26.0338 C   0  0  0  0  0  0  0  0  0  0  0  0
    9.3215  -16.0062   25.4704 C   0  0  0  0  0  0  0  0  0  0  0  0
   10.1377  -15.8368   26.4134 O   0  0  0  0  0  0  0  0  0  0  0  0
    6.1219  -21.0746   26.5334 N   0  0  0  0  0  0  0  0  0  0  0  0
    7.3786  -21.3310   27.1322 C   0  0  0  0  0  0  0  0  0  0  0  0
    7.4927  -22.3386   27.8675 O   0  0  0  0  0  0  0  0  0  0  0  0
    8.5371  -20.4406   26.9049 C   0  0  0  0  0  0  0  0  0  0  0  0
    8.1796  -19.3063   25.9736 C   0  0  0  0  0  0  0  0  0  0  0  0
    9.4555  -18.4769   25.8028 C   0  0  2  0  0  0  0  0  0  0  0  0
    9.2163  -17.3331   24.9420 N   0  0  0  0  0  0  0  0  0  0  0  0
   10.5801  -19.3061   25.3104 C   0  0  0  0  0  0  0  0  0  0  0  0
   11.3557  -19.8266   26.1488 O   0  0  0  0  0  0  0  0  0  0  0  0
   10.8293  -19.5436   23.9744 O   0  0  0  0  0  0  0  0  0  0  0  0
  1  5  1  0
  2  3  1  0
  2  1  1  0
  3  4  1  0
  4  5  1  0
  5  6  1  1
  6  7  2  0
  8  9  1  0
  8  6  1  0
  9 17  1  0
 10 11  1  0
  9 10  1  1
 11 12  2  0
 12 13  1  0
 14 13  2  0
 15 14  1  0
 16 15  2  0
 16 11  1  0
 17 18  2  0
 20 19  1  0
 20 21  2  0
 22 23  1  0
 22 20  1  0
 24 23  1  6
 24 26  1  0
 25 24  1  0
 25 17  1  0
 26 27  2  0
 26 28  1  0
M  END
$$$$
