PFQ.pdb
     RDKit          3D

 28 29  0  0  1  0  0  0  0  0999 V2000
    8.0856  -15.3077   19.5761 N   0  0  0  0  0  0  0  0  0  0  0  0
    7.7270  -15.2370   18.1833 C   0  0  0  0  0  0  0  0  0  0  0  0
    7.6860  -13.7700   17.8988 C   0  0  0  0  0  0  0  0  0  0  0  0
    8.4775  -13.1226   19.0046 C   0  0  0  0  0  0  0  0  0  0  0  0
    9.1029  -14.2977   19.7254 C   0  0  1  0  0  0  0  0  0  0  0  0
    9.2225  -13.9351   21.1482 C   0  0  0  0  0  0  0  0  0  0  0  0
   10.1869  -13.2050   21.5080 O   0  0  0  0  0  0  0  0  0  0  0  0
    8.2486  -14.4226   22.0503 N   0  0  0  0  0  0  0  0  0  0  0  0
    8.2501  -13.9642   23.4227 C   0  0  1  0  0  0  0  0  0  0  0  0
    6.8141  -13.7326   23.8454 C   0  0  0  0  0  0  0  0  0  0  0  0
    6.7289  -13.2406   25.2405 C   0  0  0  0  0  0  0  0  0  0  0  0
    7.0665  -11.9408   25.5560 C   0  0  0  0  0  0  0  0  0  0  0  0
    6.9867  -11.4804   26.8606 C   0  0  0  0  0  0  0  0  0  0  0  0
    6.5704  -12.2921   27.8925 C   0  0  0  0  0  0  0  0  0  0  0  0
    6.2305  -13.5945   27.5856 C   0  0  0  0  0  0  0  0  0  0  0  0
    6.3120  -14.0470   26.2852 C   0  0  0  0  0  0  0  0  0  0  0  0
    8.8889  -15.0271   24.2408 C   0  0  0  0  0  0  0  0  0  0  0  0
    8.8406  -15.0426   25.4984 O   0  0  0  0  0  0  0  0  0  0  0  0
    9.1428  -20.9618   22.7832 N   0  0  0  0  0  0  0  0  0  0  0  0
    9.7783  -19.9852   21.9794 C   0  0  0  0  0  0  0  0  0  0  0  0
   10.0536  -20.2785   20.7931 O   0  0  0  0  0  0  0  0  0  0  0  0
   10.1152  -18.6478   22.5126 C   0  0  0  0  0  0  0  0  0  0  0  0
    9.7258  -18.5259   23.9670 C   0  0  0  0  0  0  0  0  0  0  0  0
   10.2018  -17.1429   24.4210 C   0  0  2  0  0  0  0  0  0  0  0  0
    9.6005  -16.0989   23.6116 N   0  0  0  0  0  0  0  0  0  0  0  0
   11.6803  -17.0510   24.4217 C   0  0  0  0  0  0  0  0  0  0  0  0
   12.2314  -16.2167   23.6630 O   0  0  0  0  0  0  0  0  0  0  0  0
   12.4963  -17.8334   25.2126 O   0  0  0  0  0  0  0  0  0  0  0  0
  1  5  1  0
  2  3  1  0
  2  1  1  0
  3  4  1  0
  4  5  1  0
  5  6  1  1
  6  7  2  0
  8  9  1  0
  8  6  1  0
  9 17  1  0
 10 11  1  0
  9 10  1  1
 11 12  2  0
 12 13  1  0
 14 13  2  0
 15 14  1  0
 16 15  2  0
 16 11  1  0
 17 18  2  0
 20 19  1  0
 20 21  2  0
 22 23  1  0
 22 20  1  0
 24 23  1  6
 24 26  1  0
 25 24  1  0
 25 17  1  0
 26 27  2  0
 26 28  1  0
M  END
$$$$
