TPE.pdb
     RDKit          3D

 24 24  0  0  1  0  0  0  0  0999 V2000
    6.6778  -15.5163   20.1316 C   0  0  0  0  0  0  0  0  0  0  0  0
    7.6359  -14.6766   19.3591 C   0  0  1  0  0  0  0  0  0  0  0  0
    7.2513  -14.4251   18.0528 O   0  0  0  0  0  0  0  0  0  0  0  0
    7.9293  -13.3991   20.1208 C   0  0  2  0  0  0  0  0  0  0  0  0
    8.5705  -12.4466   19.2464 N   0  0  0  0  0  0  0  0  0  0  0  0
    8.6857  -13.6522   21.3666 C   0  0  0  0  0  0  0  0  0  0  0  0
    9.9275  -13.8507   21.2372 O   0  0  0  0  0  0  0  0  0  0  0  0
    8.0828  -13.6754   22.6378 N   0  0  0  0  0  0  0  0  0  0  0  0
    6.6898  -13.4532   22.9226 C   0  0  0  0  0  0  0  0  0  0  0  0
    6.5221  -13.6705   24.4255 C   0  0  0  0  0  0  0  0  0  0  0  0
    7.8817  -13.2633   24.9510 C   0  0  0  0  0  0  0  0  0  0  0  0
    8.7742  -13.9369   23.8934 C   0  0  1  0  0  0  0  0  0  0  0  0
    8.7588  -15.3899   24.2126 C   0  0  0  0  0  0  0  0  0  0  0  0
    7.6980  -16.0786   24.0425 O   0  0  0  0  0  0  0  0  0  0  0  0
    9.8829  -16.0736   24.7059 N   0  0  0  0  0  0  0  0  0  0  0  0
    9.8588  -17.5440   24.9753 C   0  0  1  0  0  0  0  0  0  0  0  0
   10.6424  -18.2172   23.8971 C   0  0  0  0  0  0  0  0  0  0  0  0
   11.9596  -17.6509   23.5872 C   0  0  0  0  0  0  0  0  0  0  0  0
   12.8005  -18.3716   22.6139 C   0  0  0  0  0  0  0  0  0  0  0  0
   12.4576  -19.4607   22.0553 O   0  0  0  0  0  0  0  0  0  0  0  0
   10.3239  -17.7852   26.3110 C   0  0  0  0  0  0  0  0  0  0  0  0
   10.8082  -16.8790   27.0219 O   0  0  0  0  0  0  0  0  0  0  0  0
   14.0379  -17.8552   22.2708 O   0  0  0  0  0  0  0  0  0  0  0  0
   10.2363  -19.0652   26.8760 O   0  0  0  0  0  0  0  0  0  0  0  0
  2  1  1  1
  3  2  1  0
  4  6  1  0
  4  2  1  0
  4  5  1  6
  6  7  2  0
  8 12  1  0
  8  6  1  0
  9  8  1  0
 10  9  1  0
 10 11  1  0
 11 12  1  0
 12 13  1  1
 13 15  1  0
 13 14  2  0
 15 16  1  0
 16 21  1  0
 16 17  1  6
 18 17  1  0
 19 18  1  0
 20 19  2  0
 21 22  2  0
 21 24  1  0
 23 19  1  0
M  END
$$$$
