TPE.pdb
     RDKit          3D

 24 24  0  0  1  0  0  0  0  0999 V2000
    6.8664  -18.6566   18.5109 C   0  0  0  0  0  0  0  0  0  0  0  0
    6.2369  -18.5873   19.8595 C   0  0  1  0  0  0  0  0  0  0  0  0
    5.1953  -19.4794   20.0506 O   0  0  0  0  0  0  0  0  0  0  0  0
    7.3015  -18.7191   20.9307 C   0  0  2  0  0  0  0  0  0  0  0  0
    6.6773  -18.8288   22.2273 N   0  0  0  0  0  0  0  0  0  0  0  0
    8.3079  -17.6376   20.8547 C   0  0  0  0  0  0  0  0  0  0  0  0
    9.4321  -17.9518   20.3695 O   0  0  0  0  0  0  0  0  0  0  0  0
    8.0548  -16.3236   21.2897 N   0  0  0  0  0  0  0  0  0  0  0  0
    6.8188  -15.8329   21.8398 C   0  0  0  0  0  0  0  0  0  0  0  0
    7.0755  -14.3800   22.2361 C   0  0  0  0  0  0  0  0  0  0  0  0
    8.1309  -13.9673   21.2329 C   0  0  0  0  0  0  0  0  0  0  0  0
    9.0142  -15.2273   21.2615 C   0  0  1  0  0  0  0  0  0  0  0  0
    9.7783  -15.1607   22.5363 C   0  0  0  0  0  0  0  0  0  0  0  0
    9.1975  -14.8253   23.6221 O   0  0  0  0  0  0  0  0  0  0  0  0
   11.1493  -15.4573   22.6193 N   0  0  0  0  0  0  0  0  0  0  0  0
   11.7675  -15.9961   23.8694 C   0  0  1  0  0  0  0  0  0  0  0  0
   10.9660  -17.1801   24.2998 C   0  0  0  0  0  0  0  0  0  0  0  0
   11.5203  -17.9914   25.3890 C   0  0  0  0  0  0  0  0  0  0  0  0
   10.7418  -19.1623   25.8323 C   0  0  0  0  0  0  0  0  0  0  0  0
    9.8790  -19.7513   25.1080 O   0  0  0  0  0  0  0  0  0  0  0  0
   13.1592  -16.2527   23.6331 C   0  0  0  0  0  0  0  0  0  0  0  0
   14.0110  -16.2002   24.5457 O   0  0  0  0  0  0  0  0  0  0  0  0
   10.9417  -19.6697   27.1043 O   0  0  0  0  0  0  0  0  0  0  0  0
   13.6142  -16.5894   22.3505 O   0  0  0  0  0  0  0  0  0  0  0  0
  2  1  1  6
  3  2  1  0
  4  6  1  0
  4  2  1  0
  4  5  1  1
  6  7  2  0
  8 12  1  0
  8  6  1  0
  9  8  1  0
 10  9  1  0
 10 11  1  0
 11 12  1  0
 12 13  1  1
 13 15  1  0
 13 14  2  0
 15 16  1  0
 16 21  1  0
 16 17  1  6
 18 17  1  0
 19 18  1  0
 20 19  2  0
 21 22  2  0
 21 24  1  0
 23 19  1  0
M  END
$$$$
