TPE.pdb
     RDKit          3D

 24 24  0  0  1  0  0  0  0  0999 V2000
    6.3542  -15.8748   22.3995 C   0  0  0  0  0  0  0  0  0  0  0  0
    7.1477  -15.1323   21.3802 C   0  0  1  0  0  0  0  0  0  0  0  0
    6.5918  -15.1321   20.1120 O   0  0  0  0  0  0  0  0  0  0  0  0
    7.4341  -13.7282   21.8752 C   0  0  2  0  0  0  0  0  0  0  0  0
    7.9786  -12.9342   20.8001 N   0  0  0  0  0  0  0  0  0  0  0  0
    8.2770  -13.7251   23.0908 C   0  0  0  0  0  0  0  0  0  0  0  0
    9.5140  -13.9176   22.9150 O   0  0  0  0  0  0  0  0  0  0  0  0
    7.7580  -13.5207   24.3825 N   0  0  0  0  0  0  0  0  0  0  0  0
    6.3965  -13.1881   24.7094 C   0  0  0  0  0  0  0  0  0  0  0  0
    6.3187  -13.1609   26.2349 C   0  0  0  0  0  0  0  0  0  0  0  0
    7.7250  -12.7449   26.6093 C   0  0  0  0  0  0  0  0  0  0  0  0
    8.5189  -13.6181   25.6213 C   0  0  1  0  0  0  0  0  0  0  0  0
    8.4665  -15.0013   26.1665 C   0  0  0  0  0  0  0  0  0  0  0  0
    7.3553  -15.6238   26.2460 O   0  0  0  0  0  0  0  0  0  0  0  0
    9.6081  -15.6880   26.6131 N   0  0  0  0  0  0  0  0  0  0  0  0
    9.5746  -17.1452   26.9458 C   0  0  1  0  0  0  0  0  0  0  0  0
   10.3326  -17.8720   25.8843 C   0  0  0  0  0  0  0  0  0  0  0  0
   11.7199  -17.4520   25.6593 C   0  0  0  0  0  0  0  0  0  0  0  0
   12.4790  -18.1424   24.6007 C   0  0  0  0  0  0  0  0  0  0  0  0
   11.9465  -18.9023   23.7318 O   0  0  0  0  0  0  0  0  0  0  0  0
   10.0608  -17.3338   28.2825 C   0  0  0  0  0  0  0  0  0  0  0  0
   10.5234  -16.3930   28.9624 O   0  0  0  0  0  0  0  0  0  0  0  0
   13.8503  -17.9710   24.5253 O   0  0  0  0  0  0  0  0  0  0  0  0
   10.0196  -18.5994   28.8841 O   0  0  0  0  0  0  0  0  0  0  0  0
  2  1  1  1
  3  2  1  0
  4  6  1  0
  4  2  1  0
  4  5  1  6
  6  7  2  0
  8 12  1  0
  8  6  1  0
  9  8  1  0
 10  9  1  0
 10 11  1  0
 11 12  1  0
 12 13  1  1
 13 15  1  0
 13 14  2  0
 15 16  1  0
 16 21  1  0
 16 17  1  6
 18 17  1  0
 19 18  1  0
 20 19  2  0
 21 22  2  0
 21 24  1  0
 23 19  1  0
M  END
$$$$
