TPE.pdb
     RDKit          3D

 24 24  0  0  1  0  0  0  0  0999 V2000
    6.0380  -14.4530   19.8004 C   0  0  0  0  0  0  0  0  0  0  0  0
    6.9469  -14.6088   20.9707 C   0  0  1  0  0  0  0  0  0  0  0  0
    7.8894  -15.6138   20.8327 O   0  0  0  0  0  0  0  0  0  0  0  0
    7.5840  -13.2750   21.3074 C   0  0  2  0  0  0  0  0  0  0  0  0
    8.3163  -12.7826   20.1654 N   0  0  0  0  0  0  0  0  0  0  0  0
    8.3973  -13.3395   22.5414 C   0  0  0  0  0  0  0  0  0  0  0  0
    9.6479  -13.4346   22.3834 O   0  0  0  0  0  0  0  0  0  0  0  0
    7.8369  -13.2982   23.8313 N   0  0  0  0  0  0  0  0  0  0  0  0
    6.4536  -13.0622   24.1507 C   0  0  0  0  0  0  0  0  0  0  0  0
    6.3362  -13.2030   25.6674 C   0  0  0  0  0  0  0  0  0  0  0  0
    7.7117  -12.7692   26.1261 C   0  0  0  0  0  0  0  0  0  0  0  0
    8.5700  -13.4955   25.0750 C   0  0  1  0  0  0  0  0  0  0  0  0
    8.5680  -14.9304   25.4678 C   0  0  0  0  0  0  0  0  0  0  0  0
    7.5899  -15.6866   25.1515 O   0  0  0  0  0  0  0  0  0  0  0  0
    9.6168  -15.5240   26.1904 N   0  0  0  0  0  0  0  0  0  0  0  0
   10.0636  -16.9263   25.9275 C   0  0  1  0  0  0  0  0  0  0  0  0
   11.4478  -16.8662   25.3709 C   0  0  0  0  0  0  0  0  0  0  0  0
   11.6857  -17.5857   24.1148 C   0  0  0  0  0  0  0  0  0  0  0  0
   13.0478  -17.5444   23.5520 C   0  0  0  0  0  0  0  0  0  0  0  0
   14.0097  -16.9018   24.0789 O   0  0  0  0  0  0  0  0  0  0  0  0
    9.9201  -17.6986   27.1282 C   0  0  0  0  0  0  0  0  0  0  0  0
    9.9456  -18.9478   27.1242 O   0  0  0  0  0  0  0  0  0  0  0  0
   13.3223  -18.2357   22.3849 O   0  0  0  0  0  0  0  0  0  0  0  0
    9.7571  -17.0649   28.3680 O   0  0  0  0  0  0  0  0  0  0  0  0
  2  1  1  6
  3  2  1  0
  4  6  1  0
  4  2  1  0
  4  5  1  6
  6  7  2  0
  8 12  1  0
  8  6  1  0
  9  8  1  0
 10  9  1  0
 10 11  1  0
 11 12  1  0
 12 13  1  1
 13 15  1  0
 13 14  2  0
 15 16  1  0
 16 21  1  0
 16 17  1  1
 18 17  1  0
 19 18  1  0
 20 19  2  0
 21 22  2  0
 21 24  1  0
 23 19  1  0
M  END
$$$$
