TPE.pdb
     RDKit          3D

 24 24  0  0  1  0  0  0  0  0999 V2000
    6.5934  -15.6290   20.5857 C   0  0  0  0  0  0  0  0  0  0  0  0
    7.5087  -14.7692   19.7840 C   0  0  1  0  0  0  0  0  0  0  0  0
    7.1138  -14.5837   18.4698 O   0  0  0  0  0  0  0  0  0  0  0  0
    7.7353  -13.4525   20.5004 C   0  0  2  0  0  0  0  0  0  0  0  0
    8.3478  -12.5064   19.5989 N   0  0  0  0  0  0  0  0  0  0  0  0
    8.4834  -13.6255   21.7648 C   0  0  0  0  0  0  0  0  0  0  0  0
    9.7397  -13.7232   21.6633 O   0  0  0  0  0  0  0  0  0  0  0  0
    7.8576  -13.6804   23.0238 N   0  0  0  0  0  0  0  0  0  0  0  0
    6.4435  -13.5914   23.2755 C   0  0  0  0  0  0  0  0  0  0  0  0
    6.2647  -13.7912   24.7795 C   0  0  0  0  0  0  0  0  0  0  0  0
    7.5655  -13.2395   25.3220 C   0  0  0  0  0  0  0  0  0  0  0  0
    8.5434  -13.8443   24.2990 C   0  0  1  0  0  0  0  0  0  0  0  0
    8.6646  -15.2843   24.6527 C   0  0  0  0  0  0  0  0  0  0  0  0
    7.6697  -16.0711   24.5121 O   0  0  0  0  0  0  0  0  0  0  0  0
    9.8516  -15.8499   25.1482 N   0  0  0  0  0  0  0  0  0  0  0  0
    9.9662  -17.3098   25.4494 C   0  0  1  0  0  0  0  0  0  0  0  0
   11.2696  -17.7872   24.8991 C   0  0  0  0  0  0  0  0  0  0  0  0
   11.4927  -17.5864   23.4632 C   0  0  0  0  0  0  0  0  0  0  0  0
   12.7744  -18.0490   22.9004 C   0  0  0  0  0  0  0  0  0  0  0  0
   13.0513  -18.0214   21.6601 O   0  0  0  0  0  0  0  0  0  0  0  0
    9.7849  -17.5151   26.8579 C   0  0  0  0  0  0  0  0  0  0  0  0
    9.8265  -16.5746   27.6793 O   0  0  0  0  0  0  0  0  0  0  0  0
   13.7492  -18.5459   23.7479 O   0  0  0  0  0  0  0  0  0  0  0  0
    9.5378  -18.7985   27.3651 O   0  0  0  0  0  0  0  0  0  0  0  0
  2  1  1  1
  3  2  1  0
  4  6  1  0
  4  2  1  0
  4  5  1  6
  6  7  2  0
  8 12  1  0
  8  6  1  0
  9  8  1  0
 10  9  1  0
 10 11  1  0
 11 12  1  0
 12 13  1  1
 13 15  1  0
 13 14  2  0
 15 16  1  0
 16 21  1  0
 16 17  1  1
 18 17  1  0
 19 18  1  0
 20 19  2  0
 21 22  2  0
 21 24  1  0
 23 19  1  0
M  END
$$$$
