TPE.pdb
     RDKit          3D

 24 24  0  0  1  0  0  0  0  0999 V2000
    6.8402  -15.5630   20.0982 C   0  0  0  0  0  0  0  0  0  0  0  0
    7.9204  -14.7862   19.4278 C   0  0  1  0  0  0  0  0  0  0  0  0
    7.7347  -14.6056   18.0675 O   0  0  0  0  0  0  0  0  0  0  0  0
    8.1325  -13.4711   20.1517 C   0  0  2  0  0  0  0  0  0  0  0  0
    8.8141  -12.5413   19.2835 N   0  0  0  0  0  0  0  0  0  0  0  0
    8.8039  -13.6536   21.4571 C   0  0  0  0  0  0  0  0  0  0  0  0
   10.0639  -13.7532   21.4297 O   0  0  0  0  0  0  0  0  0  0  0  0
    8.1045  -13.7151   22.6764 N   0  0  0  0  0  0  0  0  0  0  0  0
    6.6915  -13.5109   22.8578 C   0  0  0  0  0  0  0  0  0  0  0  0
    6.4098  -13.7696   24.3369 C   0  0  0  0  0  0  0  0  0  0  0  0
    7.7207  -13.3666   24.9770 C   0  0  0  0  0  0  0  0  0  0  0  0
    8.6988  -14.0051   23.9748 C   0  0  1  0  0  0  0  0  0  0  0  0
    8.6724  -15.4662   24.2538 C   0  0  0  0  0  0  0  0  0  0  0  0
    8.0973  -16.2690   23.4455 O   0  0  0  0  0  0  0  0  0  0  0  0
    9.2654  -16.0351   25.3935 N   0  0  0  0  0  0  0  0  0  0  0  0
   10.2439  -17.1614   25.2970 C   0  0  1  0  0  0  0  0  0  0  0  0
   11.3107  -16.7563   24.3341 C   0  0  0  0  0  0  0  0  0  0  0  0
   12.3788  -17.7303   24.0846 C   0  0  0  0  0  0  0  0  0  0  0  0
   13.4733  -17.3270   23.1828 C   0  0  0  0  0  0  0  0  0  0  0  0
   14.3483  -16.4546   23.4814 O   0  0  0  0  0  0  0  0  0  0  0  0
   10.7042  -17.4986   26.6135 C   0  0  0  0  0  0  0  0  0  0  0  0
   11.0788  -16.6313   27.4311 O   0  0  0  0  0  0  0  0  0  0  0  0
   13.5777  -17.9159   21.9347 O   0  0  0  0  0  0  0  0  0  0  0  0
   10.7365  -18.8347   27.0368 O   0  0  0  0  0  0  0  0  0  0  0  0
  2  1  1  1
  3  2  1  0
  4  6  1  0
  4  2  1  0
  4  5  1  6
  6  7  2  0
  8 12  1  0
  8  6  1  0
  9  8  1  0
 10  9  1  0
 10 11  1  0
 11 12  1  0
 12 13  1  1
 13 15  1  0
 13 14  2  0
 15 16  1  0
 16 21  1  0
 16 17  1  6
 18 17  1  0
 19 18  1  0
 20 19  2  0
 21 22  2  0
 21 24  1  0
 23 19  1  0
M  END
$$$$
