TPE.pdb
     RDKit          3D

 24 24  0  0  1  0  0  0  0  0999 V2000
    7.6979  -17.1656   15.0865 C   0  0  0  0  0  0  0  0  0  0  0  0
    8.3613  -16.7270   16.3465 C   0  0  1  0  0  0  0  0  0  0  0  0
    9.2766  -17.6327   16.8558 O   0  0  0  0  0  0  0  0  0  0  0  0
    8.9693  -15.3516   16.1550 C   0  0  2  0  0  0  0  0  0  0  0  0
    9.8692  -15.3694   15.0267 N   0  0  0  0  0  0  0  0  0  0  0  0
    9.5937  -14.8389   17.3941 C   0  0  0  0  0  0  0  0  0  0  0  0
   10.8554  -14.8950   17.4501 O   0  0  0  0  0  0  0  0  0  0  0  0
    8.8496  -14.3118   18.4656 N   0  0  0  0  0  0  0  0  0  0  0  0
    7.4145  -14.2629   18.5619 C   0  0  0  0  0  0  0  0  0  0  0  0
    7.0991  -13.6851   19.9405 C   0  0  0  0  0  0  0  0  0  0  0  0
    8.2983  -12.7947   20.1849 C   0  0  0  0  0  0  0  0  0  0  0  0
    9.4130  -13.7252   19.6746 C   0  0  1  0  0  0  0  0  0  0  0  0
    9.5951  -14.7594   20.7285 C   0  0  0  0  0  0  0  0  0  0  0  0
    8.7695  -15.7266   20.8355 O   0  0  0  0  0  0  0  0  0  0  0  0
   10.6605  -14.7346   21.6443 N   0  0  0  0  0  0  0  0  0  0  0  0
   10.8372  -15.7976   22.6806 C   0  0  1  0  0  0  0  0  0  0  0  0
   12.2864  -15.8498   23.0366 C   0  0  0  0  0  0  0  0  0  0  0  0
   13.2290  -16.0706   21.9346 C   0  0  0  0  0  0  0  0  0  0  0  0
   14.6635  -16.1418   22.2673 C   0  0  0  0  0  0  0  0  0  0  0  0
   15.3137  -15.1856   22.7953 O   0  0  0  0  0  0  0  0  0  0  0  0
    9.9472  -15.5393   23.7760 C   0  0  0  0  0  0  0  0  0  0  0  0
    9.3554  -14.4472   23.9106 O   0  0  0  0  0  0  0  0  0  0  0  0
   15.3665  -17.3038   22.0004 O   0  0  0  0  0  0  0  0  0  0  0  0
    9.6985  -16.5262   24.7402 O   0  0  0  0  0  0  0  0  0  0  0  0
  2  1  1  6
  3  2  1  0
  4  6  1  0
  4  2  1  0
  4  5  1  6
  6  7  2  0
  8 12  1  0
  8  6  1  0
  9  8  1  0
 10  9  1  0
 10 11  1  0
 11 12  1  0
 12 13  1  1
 13 15  1  0
 13 14  2  0
 15 16  1  0
 16 21  1  0
 16 17  1  1
 18 17  1  0
 19 18  1  0
 20 19  2  0
 21 22  2  0
 21 24  1  0
 23 19  1  0
M  END
$$$$
