TPE.pdb
     RDKit          3D

 24 24  0  0  1  0  0  0  0  0999 V2000
    6.6549  -17.9429   20.6605 C   0  0  0  0  0  0  0  0  0  0  0  0
    7.5767  -17.7483   19.5063 C   0  0  1  0  0  0  0  0  0  0  0  0
    7.0382  -18.0977   18.2794 O   0  0  0  0  0  0  0  0  0  0  0  0
    8.1106  -16.3294   19.5090 C   0  0  2  0  0  0  0  0  0  0  0  0
    8.6964  -16.0267   18.2253 N   0  0  0  0  0  0  0  0  0  0  0  0
    9.0254  -16.0785   20.6441 C   0  0  0  0  0  0  0  0  0  0  0  0
   10.2462  -16.3420   20.4484 O   0  0  0  0  0  0  0  0  0  0  0  0
    8.5887  -15.5741   21.8830 N   0  0  0  0  0  0  0  0  0  0  0  0
    7.2302  -15.2675   22.2454 C   0  0  0  0  0  0  0  0  0  0  0  0
    7.2665  -14.8381   23.7111 C   0  0  0  0  0  0  0  0  0  0  0  0
    8.6499  -14.2344   23.8228 C   0  0  0  0  0  0  0  0  0  0  0  0
    9.4476  -15.2794   23.0225 C   0  0  1  0  0  0  0  0  0  0  0  0
    9.5719  -16.4658   23.9115 C   0  0  0  0  0  0  0  0  0  0  0  0
    8.6537  -16.7425   24.7535 O   0  0  0  0  0  0  0  0  0  0  0  0
   10.6783  -17.3313   23.8768 N   0  0  0  0  0  0  0  0  0  0  0  0
   11.4485  -17.6798   25.1099 C   0  0  1  0  0  0  0  0  0  0  0  0
   12.8247  -17.1202   24.9604 C   0  0  0  0  0  0  0  0  0  0  0  0
   13.4027  -17.1415   23.6123 C   0  0  0  0  0  0  0  0  0  0  0  0
   14.7671  -16.6080   23.4462 C   0  0  0  0  0  0  0  0  0  0  0  0
   15.1120  -15.4335   23.7886 O   0  0  0  0  0  0  0  0  0  0  0  0
   10.7244  -17.2234   26.2615 C   0  0  0  0  0  0  0  0  0  0  0  0
   10.4231  -17.9856   27.2046 O   0  0  0  0  0  0  0  0  0  0  0  0
   15.7474  -17.4103   22.8887 O   0  0  0  0  0  0  0  0  0  0  0  0
   10.3363  -15.8809   26.3734 O   0  0  0  0  0  0  0  0  0  0  0  0
  2  1  1  1
  3  2  1  0
  4  6  1  0
  4  2  1  0
  4  5  1  6
  6  7  2  0
  8 12  1  0
  8  6  1  0
  9  8  1  0
 10  9  1  0
 10 11  1  0
 11 12  1  0
 12 13  1  1
 13 15  1  0
 13 14  2  0
 15 16  1  0
 16 21  1  0
 16 17  1  6
 18 17  1  0
 19 18  1  0
 20 19  2  0
 21 22  2  0
 21 24  1  0
 23 19  1  0
M  END
$$$$
