TPE.pdb
     RDKit          3D

 24 24  0  0  1  0  0  0  0  0999 V2000
    6.8844  -16.4766   23.1934 C   0  0  0  0  0  0  0  0  0  0  0  0
    7.4644  -15.7813   22.0102 C   0  0  1  0  0  0  0  0  0  0  0  0
    6.8719  -16.1150   20.8039 O   0  0  0  0  0  0  0  0  0  0  0  0
    7.4689  -14.2837   22.2457 C   0  0  2  0  0  0  0  0  0  0  0  0
    7.7966  -13.5984   21.0186 N   0  0  0  0  0  0  0  0  0  0  0  0
    8.3359  -13.8990   23.3809 C   0  0  0  0  0  0  0  0  0  0  0  0
    9.5788  -13.8703   23.1518 O   0  0  0  0  0  0  0  0  0  0  0  0
    7.8323  -13.5768   24.6547 N   0  0  0  0  0  0  0  0  0  0  0  0
    6.4441  -13.4725   25.0191 C   0  0  0  0  0  0  0  0  0  0  0  0
    6.4174  -13.1906   26.5203 C   0  0  0  0  0  0  0  0  0  0  0  0
    7.7168  -12.4402   26.7177 C   0  0  0  0  0  0  0  0  0  0  0  0
    8.6409  -13.2971   25.8341 C   0  0  1  0  0  0  0  0  0  0  0  0
    8.9010  -14.5431   26.6043 C   0  0  0  0  0  0  0  0  0  0  0  0
    7.9730  -15.4016   26.7787 O   0  0  0  0  0  0  0  0  0  0  0  0
   10.1521  -14.8423   27.1695 N   0  0  0  0  0  0  0  0  0  0  0  0
   10.4204  -16.1455   27.8514 C   0  0  1  0  0  0  0  0  0  0  0  0
   11.7016  -16.6877   27.3091 C   0  0  0  0  0  0  0  0  0  0  0  0
   11.7895  -16.8402   25.8528 C   0  0  0  0  0  0  0  0  0  0  0  0
   13.0423  -17.3846   25.2979 C   0  0  0  0  0  0  0  0  0  0  0  0
   14.0501  -17.6982   26.0063 O   0  0  0  0  0  0  0  0  0  0  0  0
   10.3928  -15.9474   29.2722 C   0  0  0  0  0  0  0  0  0  0  0  0
   10.3204  -14.8105   29.7853 O   0  0  0  0  0  0  0  0  0  0  0  0
   13.1543  -17.5754   23.9317 O   0  0  0  0  0  0  0  0  0  0  0  0
   10.4337  -17.0433   30.1456 O   0  0  0  0  0  0  0  0  0  0  0  0
  2  1  1  1
  3  2  1  0
  4  6  1  0
  4  2  1  0
  4  5  1  6
  6  7  2  0
  8 12  1  0
  8  6  1  0
  9  8  1  0
 10  9  1  0
 10 11  1  0
 11 12  1  0
 12 13  1  1
 13 15  1  0
 13 14  2  0
 15 16  1  0
 16 21  1  0
 16 17  1  6
 18 17  1  0
 19 18  1  0
 20 19  2  0
 21 22  2  0
 21 24  1  0
 23 19  1  0
M  END
$$$$
