PLS.pdb
     RDKit          3D

 22 22  0  0  1  0  0  0  0  0999 V2000
    8.8757  -15.4939   19.7098 N   0  0  0  0  0  0  0  0  0  0  0  0
    8.3582  -16.3080   18.6227 C   0  0  0  0  0  0  0  0  0  0  0  0
    7.6711  -17.4221   19.3830 C   0  0  0  0  0  0  0  0  0  0  0  0
    7.0184  -16.7090   20.5586 C   0  0  0  0  0  0  0  0  0  0  0  0
    7.7772  -15.4401   20.6441 C   0  0  1  0  0  0  0  0  0  0  0  0
    8.2022  -15.0610   22.0033 C   0  0  0  0  0  0  0  0  0  0  0  0
    9.4013  -15.3128   22.3177 O   0  0  0  0  0  0  0  0  0  0  0  0
    7.2852  -13.5358   27.2950 C   0  0  0  0  0  0  0  0  0  0  0  0
    7.4025  -12.4614   26.1890 C   0  0  2  0  0  0  0  0  0  0  0  0
    6.3954  -11.3980   26.6224 C   0  0  0  0  0  0  0  0  0  0  0  0
    6.9958  -13.0142   24.8737 C   0  0  0  0  0  0  0  0  0  0  0  0
    7.8469  -14.0962   24.3024 C   0  0  2  0  0  0  0  0  0  0  0  0
    7.3911  -14.4499   22.9652 N   0  0  0  0  0  0  0  0  0  0  0  0
    8.0650  -15.2751   25.1636 C   0  0  0  0  0  0  0  0  0  0  0  0
    7.0700  -16.0294   25.3617 O   0  0  0  0  0  0  0  0  0  0  0  0
   11.6814  -17.0967   25.2225 O   0  0  0  0  0  0  0  0  0  0  0  0
   10.4403  -17.6565   25.5050 C   0  0  0  0  0  0  0  0  0  0  0  0
    9.6144  -16.7717   26.4185 C   0  0  2  0  0  0  0  0  0  0  0  0
    9.3377  -15.5358   25.7375 N   0  0  0  0  0  0  0  0  0  0  0  0
   10.2753  -16.5685   27.7275 C   0  0  0  0  0  0  0  0  0  0  0  0
   10.4874  -15.4073   28.1574 O   0  0  0  0  0  0  0  0  0  0  0  0
   10.6917  -17.6111   28.5416 O   0  0  0  0  0  0  0  0  0  0  0  0
  2  1  1  0
  3  4  1  0
  3  2  1  0
  4  5  1  0
  5  1  1  0
  5  6  1  1
  7  6  2  0
  9  8  1  1
  9 10  1  0
  9 11  1  0
 12 11  1  1
 12 13  1  0
 12 14  1  0
 13  6  1  0
 14 15  2  0
 17 16  1  0
 18 17  1  6
 19 14  1  0
 19 18  1  0
 20 18  1  0
 20 22  1  0
 21 20  2  0
M  END
$$$$
