PLS.pdb
     RDKit          3D

 22 22  0  0  1  0  0  0  0  0999 V2000
    7.4523  -15.0372   20.0482 N   0  0  0  0  0  0  0  0  0  0  0  0
    7.1956  -14.5704   18.6959 C   0  0  0  0  0  0  0  0  0  0  0  0
    7.3471  -13.0734   18.8615 C   0  0  0  0  0  0  0  0  0  0  0  0
    8.5283  -12.9319   19.8108 C   0  0  0  0  0  0  0  0  0  0  0  0
    8.5954  -14.2600   20.4627 C   0  0  1  0  0  0  0  0  0  0  0  0
    8.7617  -14.2256   21.9265 C   0  0  0  0  0  0  0  0  0  0  0  0
    9.9475  -14.2293   22.3668 O   0  0  0  0  0  0  0  0  0  0  0  0
    5.7381  -12.4234   26.9761 C   0  0  0  0  0  0  0  0  0  0  0  0
    6.9864  -13.1551   26.4307 C   0  0  2  0  0  0  0  0  0  0  0  0
    8.1360  -12.2266   26.8169 C   0  0  0  0  0  0  0  0  0  0  0  0
    6.9247  -13.2700   24.9528 C   0  0  0  0  0  0  0  0  0  0  0  0
    7.9256  -14.1617   24.3013 C   0  0  2  0  0  0  0  0  0  0  0  0
    7.7204  -14.1897   22.8599 N   0  0  0  0  0  0  0  0  0  0  0  0
    8.0731  -15.5095   24.8851 C   0  0  0  0  0  0  0  0  0  0  0  0
    7.0386  -16.2357   24.9134 O   0  0  0  0  0  0  0  0  0  0  0  0
   11.5252  -17.5371   24.6954 O   0  0  0  0  0  0  0  0  0  0  0  0
   10.2926  -18.1140   24.9802 C   0  0  0  0  0  0  0  0  0  0  0  0
    9.4822  -17.2714   25.9460 C   0  0  2  0  0  0  0  0  0  0  0  0
    9.3239  -15.9551   25.3892 N   0  0  0  0  0  0  0  0  0  0  0  0
   10.0876  -17.2526   27.2967 C   0  0  0  0  0  0  0  0  0  0  0  0
   10.4036  -16.1624   27.8350 O   0  0  0  0  0  0  0  0  0  0  0  0
   10.3391  -18.3988   28.0357 O   0  0  0  0  0  0  0  0  0  0  0  0
  2  1  1  0
  3  4  1  0
  3  2  1  0
  4  5  1  0
  5  1  1  0
  5  6  1  1
  7  6  2  0
  9  8  1  6
  9 10  1  0
  9 11  1  0
 12 11  1  1
 12 13  1  0
 12 14  1  0
 13  6  1  0
 14 15  2  0
 17 16  1  0
 18 17  1  6
 19 14  1  0
 19 18  1  0
 20 18  1  0
 20 22  1  0
 21 20  2  0
M  END
$$$$
