PLS.pdb
     RDKit          3D

 22 22  0  0  1  0  0  0  0  0999 V2000
    7.2948  -14.7884   20.8632 N   0  0  0  0  0  0  0  0  0  0  0  0
    6.9979  -14.2887   19.5310 C   0  0  0  0  0  0  0  0  0  0  0  0
    7.4330  -12.8436   19.6488 C   0  0  0  0  0  0  0  0  0  0  0  0
    8.7062  -12.9155   20.4797 C   0  0  0  0  0  0  0  0  0  0  0  0
    8.5943  -14.2307   21.1513 C   0  0  1  0  0  0  0  0  0  0  0  0
    8.9042  -14.2206   22.5920 C   0  0  0  0  0  0  0  0  0  0  0  0
   10.1200  -14.0851   22.9136 O   0  0  0  0  0  0  0  0  0  0  0  0
    7.8890  -11.3928   26.0380 C   0  0  0  0  0  0  0  0  0  0  0  0
    6.8142  -12.3914   25.5493 C   0  0  2  0  0  0  0  0  0  0  0  0
    5.5879  -12.0253   26.3829 C   0  0  0  0  0  0  0  0  0  0  0  0
    7.2154  -13.7868   25.8545 C   0  0  0  0  0  0  0  0  0  0  0  0
    8.3178  -14.3678   25.0368 C   0  0  2  0  0  0  0  0  0  0  0  0
    7.9679  -14.3481   23.6234 N   0  0  0  0  0  0  0  0  0  0  0  0
    8.8359  -15.6769   25.4804 C   0  0  0  0  0  0  0  0  0  0  0  0
    9.0689  -15.8098   26.7159 O   0  0  0  0  0  0  0  0  0  0  0  0
   10.0100  -20.2224   24.1684 O   0  0  0  0  0  0  0  0  0  0  0  0
    9.3976  -19.0080   23.8786 C   0  0  0  0  0  0  0  0  0  0  0  0
    9.6550  -17.9724   24.9560 C   0  0  2  0  0  0  0  0  0  0  0  0
    9.0594  -16.7277   24.5514 N   0  0  0  0  0  0  0  0  0  0  0  0
   11.0986  -17.8447   25.2584 C   0  0  0  0  0  0  0  0  0  0  0  0
   11.7457  -18.8309   25.6907 O   0  0  0  0  0  0  0  0  0  0  0  0
   11.8115  -16.6672   25.0907 O   0  0  0  0  0  0  0  0  0  0  0  0
  2  1  1  0
  3  4  1  0
  3  2  1  0
  4  5  1  0
  5  1  1  0
  5  6  1  1
  7  6  2  0
  9  8  1  1
  9 10  1  0
  9 11  1  0
 12 11  1  1
 12 13  1  0
 12 14  1  0
 13  6  1  0
 14 15  2  0
 17 16  1  0
 18 17  1  6
 19 14  1  0
 19 18  1  0
 20 18  1  0
 20 22  1  0
 21 20  2  0
M  END
$$$$
