PLS.pdb
     RDKit          3D

 22 22  0  0  1  0  0  0  0  0999 V2000
    8.8926  -15.3992   19.7321 N   0  0  0  0  0  0  0  0  0  0  0  0
    8.2820  -16.0305   18.5740 C   0  0  0  0  0  0  0  0  0  0  0  0
    7.2970  -16.9737   19.2310 C   0  0  0  0  0  0  0  0  0  0  0  0
    6.7431  -16.1650   20.3954 C   0  0  0  0  0  0  0  0  0  0  0  0
    7.7700  -15.1165   20.5938 C   0  0  1  0  0  0  0  0  0  0  0  0
    8.1681  -14.8944   21.9952 C   0  0  0  0  0  0  0  0  0  0  0  0
    9.3043  -15.3291   22.3417 O   0  0  0  0  0  0  0  0  0  0  0  0
    5.9885  -12.1666   27.1579 C   0  0  0  0  0  0  0  0  0  0  0  0
    7.1518  -12.9614   26.5204 C   0  0  2  0  0  0  0  0  0  0  0  0
    8.3632  -12.0606   26.7530 C   0  0  0  0  0  0  0  0  0  0  0  0
    6.9377  -13.1278   25.0618 C   0  0  0  0  0  0  0  0  0  0  0  0
    7.7697  -14.1518   24.3685 C   0  0  2  0  0  0  0  0  0  0  0  0
    7.3953  -14.2462   22.9643 N   0  0  0  0  0  0  0  0  0  0  0  0
    7.8608  -15.4699   25.0268 C   0  0  0  0  0  0  0  0  0  0  0  0
    6.8051  -16.1647   25.0620 O   0  0  0  0  0  0  0  0  0  0  0  0
   11.1353  -17.6699   24.7306 O   0  0  0  0  0  0  0  0  0  0  0  0
    9.8718  -18.1323   25.0818 C   0  0  0  0  0  0  0  0  0  0  0  0
    9.2158  -17.2504   26.1264 C   0  0  2  0  0  0  0  0  0  0  0  0
    9.0829  -15.9222   25.5916 N   0  0  0  0  0  0  0  0  0  0  0  0
    9.9542  -17.2798   27.4092 C   0  0  0  0  0  0  0  0  0  0  0  0
   10.3657  -16.2125   27.9286 O   0  0  0  0  0  0  0  0  0  0  0  0
   10.2330  -18.4482   28.1020 O   0  0  0  0  0  0  0  0  0  0  0  0
  2  1  1  0
  3  4  1  0
  3  2  1  0
  4  5  1  0
  5  1  1  0
  5  6  1  1
  7  6  2  0
  9  8  1  6
  9 10  1  0
  9 11  1  0
 12 11  1  1
 12 13  1  0
 12 14  1  0
 13  6  1  0
 14 15  2  0
 17 16  1  0
 18 17  1  6
 19 14  1  0
 19 18  1  0
 20 18  1  0
 20 22  1  0
 21 20  2  0
M  END
$$$$
