PLS.pdb
     RDKit          3D

 22 22  0  0  1  0  0  0  0  0999 V2000
    7.1547  -14.8653   20.5539 N   0  0  0  0  0  0  0  0  0  0  0  0
    6.8749  -14.2769   19.2547 C   0  0  0  0  0  0  0  0  0  0  0  0
    7.2095  -12.8221   19.5060 C   0  0  0  0  0  0  0  0  0  0  0  0
    8.4531  -12.8827   20.3813 C   0  0  0  0  0  0  0  0  0  0  0  0
    8.4031  -14.2532   20.9403 C   0  0  1  0  0  0  0  0  0  0  0  0
    8.6583  -14.3428   22.3889 C   0  0  0  0  0  0  0  0  0  0  0  0
    9.8639  -14.2601   22.7625 O   0  0  0  0  0  0  0  0  0  0  0  0
    7.8688  -11.9809   26.4372 C   0  0  0  0  0  0  0  0  0  0  0  0
    6.7218  -12.6433   25.6390 C   0  0  2  0  0  0  0  0  0  0  0  0
    5.4754  -12.2739   26.4409 C   0  0  0  0  0  0  0  0  0  0  0  0
    6.8754  -14.1188   25.6241 C   0  0  0  0  0  0  0  0  0  0  0  0
    7.9789  -14.6756   24.7911 C   0  0  2  0  0  0  0  0  0  0  0  0
    7.6808  -14.5108   23.3752 N   0  0  0  0  0  0  0  0  0  0  0  0
    8.4215  -16.0430   25.1278 C   0  0  0  0  0  0  0  0  0  0  0  0
    7.5310  -16.9399   25.1587 O   0  0  0  0  0  0  0  0  0  0  0  0
   12.4772  -17.0510   25.1032 O   0  0  0  0  0  0  0  0  0  0  0  0
   11.4563  -17.9728   24.8993 C   0  0  0  0  0  0  0  0  0  0  0  0
   10.2287  -17.6515   25.7295 C   0  0  2  0  0  0  0  0  0  0  0  0
    9.7863  -16.3226   25.4038 N   0  0  0  0  0  0  0  0  0  0  0  0
   10.4843  -17.8313   27.1765 C   0  0  0  0  0  0  0  0  0  0  0  0
   10.2444  -16.8989   27.9835 O   0  0  0  0  0  0  0  0  0  0  0  0
   10.9892  -19.0020   27.7220 O   0  0  0  0  0  0  0  0  0  0  0  0
  2  1  1  0
  3  4  1  0
  3  2  1  0
  4  5  1  0
  5  1  1  0
  5  6  1  1
  7  6  2  0
  9  8  1  1
  9 10  1  0
  9 11  1  0
 12 11  1  1
 12 13  1  0
 12 14  1  0
 13  6  1  0
 14 15  2  0
 17 16  1  0
 18 17  1  6
 19 14  1  0
 19 18  1  0
 20 18  1  0
 20 22  1  0
 21 20  2  0
M  END
$$$$
