PLS.pdb
     RDKit          3D

 22 22  0  0  1  0  0  0  0  0999 V2000
    7.0850  -14.6805   20.8326 N   0  0  0  0  0  0  0  0  0  0  0  0
    6.7452  -14.0757   19.5554 C   0  0  0  0  0  0  0  0  0  0  0  0
    7.1897  -12.6451   19.7731 C   0  0  0  0  0  0  0  0  0  0  0  0
    8.4900  -12.7847   20.5518 C   0  0  0  0  0  0  0  0  0  0  0  0
    8.3956  -14.1491   21.1199 C   0  0  1  0  0  0  0  0  0  0  0  0
    8.7541  -14.2544   22.5454 C   0  0  0  0  0  0  0  0  0  0  0  0
    9.9667  -14.0553   22.8455 O   0  0  0  0  0  0  0  0  0  0  0  0
    7.7859  -11.6444   26.1122 C   0  0  0  0  0  0  0  0  0  0  0  0
    6.7186  -12.6321   25.5861 C   0  0  2  0  0  0  0  0  0  0  0  0
    5.4920  -12.3123   26.4381 C   0  0  0  0  0  0  0  0  0  0  0  0
    7.1339  -14.0350   25.8320 C   0  0  0  0  0  0  0  0  0  0  0  0
    8.2424  -14.5695   24.9912 C   0  0  2  0  0  0  0  0  0  0  0  0
    7.8668  -14.5546   23.5843 N   0  0  0  0  0  0  0  0  0  0  0  0
    8.8169  -15.8609   25.4170 C   0  0  0  0  0  0  0  0  0  0  0  0
    8.9412  -16.0480   26.6611 O   0  0  0  0  0  0  0  0  0  0  0  0
    8.7090  -18.8750   22.8527 O   0  0  0  0  0  0  0  0  0  0  0  0
    9.8316  -19.0135   23.6615 C   0  0  0  0  0  0  0  0  0  0  0  0
    9.7789  -18.0940   24.8661 C   0  0  2  0  0  0  0  0  0  0  0  0
    9.2091  -16.8369   24.4626 N   0  0  0  0  0  0  0  0  0  0  0  0
   11.1091  -17.9431   25.4979 C   0  0  0  0  0  0  0  0  0  0  0  0
   11.6298  -16.8060   25.6161 O   0  0  0  0  0  0  0  0  0  0  0  0
   11.8469  -19.0109   25.9863 O   0  0  0  0  0  0  0  0  0  0  0  0
  2  1  1  0
  3  4  1  0
  3  2  1  0
  4  5  1  0
  5  1  1  0
  5  6  1  1
  7  6  2  0
  9  8  1  1
  9 10  1  0
  9 11  1  0
 12 11  1  1
 12 13  1  0
 12 14  1  0
 13  6  1  0
 14 15  2  0
 17 16  1  0
 18 17  1  6
 19 14  1  0
 19 18  1  0
 20 18  1  0
 20 22  1  0
 21 20  2  0
M  END
$$$$
