PLS.pdb
     RDKit          3D

 22 22  0  0  1  0  0  0  0  0999 V2000
    7.1901  -15.0833   20.1803 N   0  0  0  0  0  0  0  0  0  0  0  0
    6.9397  -14.6059   18.8306 C   0  0  0  0  0  0  0  0  0  0  0  0
    7.2403  -13.1292   18.9741 C   0  0  0  0  0  0  0  0  0  0  0  0
    8.4575  -13.0948   19.8873 C   0  0  0  0  0  0  0  0  0  0  0  0
    8.4150  -14.4172   20.5526 C   0  0  1  0  0  0  0  0  0  0  0  0
    8.6273  -14.3861   22.0105 C   0  0  0  0  0  0  0  0  0  0  0  0
    9.8212  -14.4873   22.4159 O   0  0  0  0  0  0  0  0  0  0  0  0
    5.8003  -12.4511   27.1440 C   0  0  0  0  0  0  0  0  0  0  0  0
    7.0451  -13.1530   26.5532 C   0  0  2  0  0  0  0  0  0  0  0  0
    8.1814  -12.1840   26.8739 C   0  0  0  0  0  0  0  0  0  0  0  0
    6.9209  -13.2927   25.0814 C   0  0  0  0  0  0  0  0  0  0  0  0
    7.8723  -14.2213   24.4075 C   0  0  2  0  0  0  0  0  0  0  0  0
    7.6212  -14.2547   22.9734 N   0  0  0  0  0  0  0  0  0  0  0  0
    7.9954  -15.5681   24.9990 C   0  0  0  0  0  0  0  0  0  0  0  0
    6.9325  -16.2442   25.1056 O   0  0  0  0  0  0  0  0  0  0  0  0
   11.3360  -17.7306   24.5642 O   0  0  0  0  0  0  0  0  0  0  0  0
   10.1004  -18.2577   24.9233 C   0  0  0  0  0  0  0  0  0  0  0  0
    9.3950  -17.3972   25.9535 C   0  0  2  0  0  0  0  0  0  0  0  0
    9.2549  -16.0670   25.4257 N   0  0  0  0  0  0  0  0  0  0  0  0
   10.0922  -17.4246   27.2591 C   0  0  0  0  0  0  0  0  0  0  0  0
   10.5443  -16.3644   27.7589 O   0  0  0  0  0  0  0  0  0  0  0  0
   10.2874  -18.5834   27.9952 O   0  0  0  0  0  0  0  0  0  0  0  0
  2  1  1  0
  3  4  1  0
  3  2  1  0
  4  5  1  0
  5  1  1  0
  5  6  1  1
  7  6  2  0
  9  8  1  6
  9 10  1  0
  9 11  1  0
 12 11  1  1
 12 13  1  0
 12 14  1  0
 13  6  1  0
 14 15  2  0
 17 16  1  0
 18 17  1  6
 19 14  1  0
 19 18  1  0
 20 18  1  0
 20 22  1  0
 21 20  2  0
M  END
$$$$
