PLS.pdb
     RDKit          3D

 22 22  0  0  1  0  0  0  0  0999 V2000
    7.0456  -14.6338   20.8517 N   0  0  0  0  0  0  0  0  0  0  0  0
    6.7349  -13.9777   19.5925 C   0  0  0  0  0  0  0  0  0  0  0  0
    7.2547  -12.5789   19.8469 C   0  0  0  0  0  0  0  0  0  0  0  0
    8.5476  -12.8076   20.6166 C   0  0  0  0  0  0  0  0  0  0  0  0
    8.3830  -14.1800   21.1482 C   0  0  1  0  0  0  0  0  0  0  0  0
    8.7389  -14.3426   22.5690 C   0  0  0  0  0  0  0  0  0  0  0  0
    9.9621  -14.2235   22.8684 O   0  0  0  0  0  0  0  0  0  0  0  0
    7.8706  -11.7797   26.3102 C   0  0  0  0  0  0  0  0  0  0  0  0
    6.7564  -12.6611   25.6995 C   0  0  2  0  0  0  0  0  0  0  0  0
    5.5366  -12.3325   26.5579 C   0  0  0  0  0  0  0  0  0  0  0  0
    7.0852  -14.1004   25.8459 C   0  0  0  0  0  0  0  0  0  0  0  0
    8.2040  -14.6268   25.0135 C   0  0  2  0  0  0  0  0  0  0  0  0
    7.8385  -14.6159   23.6039 N   0  0  0  0  0  0  0  0  0  0  0  0
    8.7857  -15.9132   25.4445 C   0  0  0  0  0  0  0  0  0  0  0  0
    8.8859  -16.1057   26.6899 O   0  0  0  0  0  0  0  0  0  0  0  0
   10.3897  -18.6435   22.6327 O   0  0  0  0  0  0  0  0  0  0  0  0
    9.6738  -19.1081   23.7305 C   0  0  0  0  0  0  0  0  0  0  0  0
    9.7475  -18.1484   24.9023 C   0  0  2  0  0  0  0  0  0  0  0  0
    9.2105  -16.8787   24.4934 N   0  0  0  0  0  0  0  0  0  0  0  0
   11.1238  -18.0425   25.4370 C   0  0  0  0  0  0  0  0  0  0  0  0
   11.7385  -16.9478   25.3939 O   0  0  0  0  0  0  0  0  0  0  0  0
   11.8061  -19.1088   26.0031 O   0  0  0  0  0  0  0  0  0  0  0  0
  2  1  1  0
  3  4  1  0
  3  2  1  0
  4  5  1  0
  5  1  1  0
  5  6  1  1
  7  6  2  0
  9  8  1  1
  9 10  1  0
  9 11  1  0
 12 11  1  1
 12 13  1  0
 12 14  1  0
 13  6  1  0
 14 15  2  0
 17 16  1  0
 18 17  1  6
 19 14  1  0
 19 18  1  0
 20 18  1  0
 20 22  1  0
 21 20  2  0
M  END
$$$$
