MMH.pdb
     RDKit          3D

 27 27  0  0  1  0  0  0  0  0999 V2000
    5.0777  -20.2299   21.2258 C   0  0  0  0  0  0  0  0  0  0  0  0
    5.4567  -19.3941   19.6695 S   0  0  0  0  0  0  0  0  0  0  0  0
    7.1797  -18.9370   19.5294 C   0  0  0  0  0  0  0  0  0  0  0  0
    7.6637  -18.1147   20.7015 C   0  0  0  0  0  0  0  0  0  0  0  0
    7.9835  -16.6911   20.3034 C   0  0  2  0  0  0  0  0  0  0  0  0
    8.8382  -16.6440   19.1314 N   0  0  0  0  0  0  0  0  0  0  0  0
    8.6229  -15.9150   21.3717 C   0  0  0  0  0  0  0  0  0  0  0  0
    9.8728  -15.8790   21.4934 O   0  0  0  0  0  0  0  0  0  0  0  0
    5.7393  -12.4062   27.2786 C   0  0  0  0  0  0  0  0  0  0  0  0
    6.9447  -11.7439   26.1090 S   0  0  0  0  0  0  0  0  0  0  0  0
    7.9988  -13.0481   25.4208 C   0  0  0  0  0  0  0  0  0  0  0  0
    7.4293  -13.5860   24.1238 C   0  0  0  0  0  0  0  0  0  0  0  0
    8.3451  -14.6712   23.5488 C   0  0  2  0  0  0  0  0  0  0  0  0
    7.8322  -15.1755   22.3061 N   0  0  0  0  0  0  0  0  0  0  0  0
    8.5579  -15.7322   24.5633 C   0  0  0  0  0  0  0  0  0  0  0  0
    7.7466  -16.6906   24.5842 O   0  0  0  0  0  0  0  0  0  0  0  0
    9.6528  -15.6262   25.4580 N   0  0  0  0  0  0  0  0  0  0  0  0
   10.1764  -16.8854   26.0138 C   0  0  1  0  0  0  0  0  0  0  0  0
   11.0035  -17.5007   24.9123 C   0  0  0  0  0  0  0  0  0  0  0  0
   11.7414  -18.7106   25.3214 C   0  0  0  0  0  0  0  0  0  0  0  0
   11.4091  -19.4125   26.4672 C   0  0  0  0  0  0  0  0  0  0  0  0
   12.2363  -20.4632   26.5955 N   0  0  0  0  0  0  0  0  0  0  0  0
   13.0575  -20.3983   25.5429 C   0  0  0  0  0  0  0  0  0  0  0  0
   12.7657  -19.3441   24.7694 N   0  0  0  0  0  0  0  0  0  0  0  0
   10.9408  -16.5478   27.2156 C   0  0  0  0  0  0  0  0  0  0  0  0
   11.1159  -17.4876   28.2217 O   0  0  0  0  0  0  0  0  0  0  0  0
   11.4875  -15.4198   27.4383 O   0  0  0  0  0  0  0  0  0  0  0  0
  2  1  1  0
  3  4  1  0
  3  2  1  0
  4  5  1  0
  5  6  1  6
  7  8  2  0
  7  5  1  0
 10 11  1  0
 10  9  1  0
 11 12  1  0
 13 12  1  1
 13 14  1  0
 14  7  1  0
 15 17  1  0
 15 13  1  0
 16 15  2  0
 18 25  1  0
 18 17  1  0
 18 19  1  6
 19 20  1  0
 20 24  1  0
 20 21  2  0
 21 22  1  0
 23 22  1  0
 24 23  2  0
 25 26  1  0
 27 25  2  0
M  END
$$$$
