MMH.pdb
     RDKit          3D

 27 27  0  0  1  0  0  0  0  0999 V2000
    8.3461  -11.7635   18.3110 C   0  0  0  0  0  0  0  0  0  0  0  0
    6.8526  -12.5992   18.8899 S   0  0  0  0  0  0  0  0  0  0  0  0
    7.2050  -14.0937   19.8061 C   0  0  0  0  0  0  0  0  0  0  0  0
    8.6845  -14.3883   19.8978 C   0  0  0  0  0  0  0  0  0  0  0  0
    8.9675  -15.6259   20.7198 C   0  0  2  0  0  0  0  0  0  0  0  0
    7.8379  -16.5370   20.7187 N   0  0  0  0  0  0  0  0  0  0  0  0
    9.3228  -15.3337   22.1129 C   0  0  0  0  0  0  0  0  0  0  0  0
   10.4361  -14.8338   22.4111 O   0  0  0  0  0  0  0  0  0  0  0  0
    7.1041  -12.0011   28.6265 C   0  0  0  0  0  0  0  0  0  0  0  0
    6.5786  -12.7901   27.0899 S   0  0  0  0  0  0  0  0  0  0  0  0
    7.7586  -14.0544   26.5470 C   0  0  0  0  0  0  0  0  0  0  0  0
    7.4361  -14.5412   25.1490 C   0  0  0  0  0  0  0  0  0  0  0  0
    8.6456  -15.2590   24.5419 C   0  0  2  0  0  0  0  0  0  0  0  0
    8.4029  -15.6130   23.1717 N   0  0  0  0  0  0  0  0  0  0  0  0
    9.0102  -16.4223   25.3869 C   0  0  0  0  0  0  0  0  0  0  0  0
    8.1319  -17.2978   25.5848 O   0  0  0  0  0  0  0  0  0  0  0  0
   10.3170  -16.5010   25.9317 N   0  0  0  0  0  0  0  0  0  0  0  0
   10.6131  -17.6736   26.7719 C   0  0  1  0  0  0  0  0  0  0  0  0
   12.0483  -18.0317   26.4754 C   0  0  0  0  0  0  0  0  0  0  0  0
   12.2476  -18.6689   25.1602 C   0  0  0  0  0  0  0  0  0  0  0  0
   11.1883  -18.9171   24.3043 C   0  0  0  0  0  0  0  0  0  0  0  0
   11.6528  -19.4980   23.1856 N   0  0  0  0  0  0  0  0  0  0  0  0
   12.9739  -19.5999   23.3615 C   0  0  0  0  0  0  0  0  0  0  0  0
   13.3408  -19.1022   24.5499 N   0  0  0  0  0  0  0  0  0  0  0  0
   10.3704  -17.2867   28.1627 C   0  0  0  0  0  0  0  0  0  0  0  0
   10.3658  -18.2456   29.1661 O   0  0  0  0  0  0  0  0  0  0  0  0
   10.1523  -16.0972   28.5605 O   0  0  0  0  0  0  0  0  0  0  0  0
  2  1  1  0
  3  4  1  0
  3  2  1  0
  4  5  1  0
  5  6  1  1
  7  8  2  0
  7  5  1  0
 10 11  1  0
 10  9  1  0
 11 12  1  0
 13 12  1  1
 13 14  1  0
 14  7  1  0
 15 17  1  0
 15 13  1  0
 16 15  2  0
 18 25  1  0
 18 17  1  0
 18 19  1  1
 19 20  1  0
 20 24  1  0
 20 21  2  0
 21 22  1  0
 23 22  1  0
 24 23  2  0
 25 26  1  0
 27 25  2  0
M  END
$$$$
