MMH.pdb
     RDKit          3D

 27 27  0  0  1  0  0  0  0  0999 V2000
    5.0426  -18.8746   20.0265 C   0  0  0  0  0  0  0  0  0  0  0  0
    6.2555  -20.1320   19.5661 S   0  0  0  0  0  0  0  0  0  0  0  0
    7.9425  -19.5854   19.7957 C   0  0  0  0  0  0  0  0  0  0  0  0
    8.1146  -18.7187   21.0218 C   0  0  0  0  0  0  0  0  0  0  0  0
    8.3558  -17.2691   20.6635 C   0  0  2  0  0  0  0  0  0  0  0  0
    9.2742  -17.1411   19.5471 N   0  0  0  0  0  0  0  0  0  0  0  0
    8.8726  -16.4694   21.7797 C   0  0  0  0  0  0  0  0  0  0  0  0
   10.0814  -16.5249   22.1172 O   0  0  0  0  0  0  0  0  0  0  0  0
    6.5894  -11.0111   26.5726 C   0  0  0  0  0  0  0  0  0  0  0  0
    6.1284  -12.7510   26.4305 S   0  0  0  0  0  0  0  0  0  0  0  0
    7.4834  -13.7518   25.7611 C   0  0  0  0  0  0  0  0  0  0  0  0
    7.1120  -14.3506   24.4198 C   0  0  0  0  0  0  0  0  0  0  0  0
    8.2888  -15.1465   23.8469 C   0  0  2  0  0  0  0  0  0  0  0  0
    8.0058  -15.6013   22.5146 N   0  0  0  0  0  0  0  0  0  0  0  0
    8.6434  -16.2486   24.7742 C   0  0  0  0  0  0  0  0  0  0  0  0
    8.2483  -17.4049   24.4843 O   0  0  0  0  0  0  0  0  0  0  0  0
    9.4033  -15.9596   25.9359 N   0  0  0  0  0  0  0  0  0  0  0  0
   10.0447  -17.1026   26.6073 C   0  0  1  0  0  0  0  0  0  0  0  0
    9.5763  -18.3261   25.8592 C   0  0  0  0  0  0  0  0  0  0  0  0
    8.5714  -19.1247   26.5859 C   0  0  0  0  0  0  0  0  0  0  0  0
    8.1872  -18.8090   27.8777 C   0  0  0  0  0  0  0  0  0  0  0  0
    7.2646  -19.6936   28.2914 N   0  0  0  0  0  0  0  0  0  0  0  0
    7.0928  -20.5325   27.2651 C   0  0  0  0  0  0  0  0  0  0  0  0
    7.8773  -20.1964   26.2325 N   0  0  0  0  0  0  0  0  0  0  0  0
   11.4915  -16.8867   26.5504 C   0  0  0  0  0  0  0  0  0  0  0  0
   12.3459  -17.6574   27.3263 O   0  0  0  0  0  0  0  0  0  0  0  0
   12.0702  -16.0175   25.8223 O   0  0  0  0  0  0  0  0  0  0  0  0
  2  1  1  0
  3  4  1  0
  3  2  1  0
  4  5  1  0
  5  6  1  6
  7  8  2  0
  7  5  1  0
 10 11  1  0
 10  9  1  0
 11 12  1  0
 13 12  1  1
 13 14  1  0
 14  7  1  0
 15 17  1  0
 15 13  1  0
 16 15  2  0
 18 25  1  0
 18 17  1  0
 18 19  1  6
 19 20  1  0
 20 24  1  0
 20 21  2  0
 21 22  1  0
 23 22  1  0
 24 23  2  0
 25 26  1  0
 27 25  2  0
M  END
$$$$
