MMH.pdb
     RDKit          3D

 27 27  0  0  1  0  0  0  0  0999 V2000
    4.1079  -18.4515   21.2947 C   0  0  0  0  0  0  0  0  0  0  0  0
    5.6430  -18.7671   20.3958 S   0  0  0  0  0  0  0  0  0  0  0  0
    6.8007  -17.4086   20.5019 C   0  0  0  0  0  0  0  0  0  0  0  0
    6.1175  -16.0626   20.5776 C   0  0  0  0  0  0  0  0  0  0  0  0
    7.1101  -14.9275   20.6955 C   0  0  2  0  0  0  0  0  0  0  0  0
    8.0452  -14.9190   19.5857 N   0  0  0  0  0  0  0  0  0  0  0  0
    7.8781  -14.9500   21.9453 C   0  0  0  0  0  0  0  0  0  0  0  0
    9.0870  -15.2916   21.9620 O   0  0  0  0  0  0  0  0  0  0  0  0
    6.3807  -10.0534   26.8942 C   0  0  0  0  0  0  0  0  0  0  0  0
    6.9174  -11.7703   27.0501 S   0  0  0  0  0  0  0  0  0  0  0  0
    7.0632  -12.5772   25.4336 C   0  0  0  0  0  0  0  0  0  0  0  0
    7.0732  -14.0860   25.5728 C   0  0  0  0  0  0  0  0  0  0  0  0
    7.9108  -14.7189   24.4572 C   0  0  2  0  0  0  0  0  0  0  0  0
    7.2639  -14.5805   23.1828 N   0  0  0  0  0  0  0  0  0  0  0  0
    8.2178  -16.1282   24.8033 C   0  0  0  0  0  0  0  0  0  0  0  0
    7.3032  -16.9768   24.6597 O   0  0  0  0  0  0  0  0  0  0  0  0
    9.5128  -16.4596   25.2765 N   0  0  0  0  0  0  0  0  0  0  0  0
    9.7509  -17.8728   25.6153 C   0  0  1  0  0  0  0  0  0  0  0  0
   10.5896  -18.4231   24.4884 C   0  0  0  0  0  0  0  0  0  0  0  0
   11.0424  -19.8108   24.7007 C   0  0  0  0  0  0  0  0  0  0  0  0
   10.1833  -20.7937   25.1612 C   0  0  0  0  0  0  0  0  0  0  0  0
   10.8536  -21.9537   25.2596 N   0  0  0  0  0  0  0  0  0  0  0  0
   12.1002  -21.6772   24.8644 C   0  0  0  0  0  0  0  0  0  0  0  0
   12.2224  -20.3869   24.5256 N   0  0  0  0  0  0  0  0  0  0  0  0
   10.4125  -17.9034   26.9207 C   0  0  0  0  0  0  0  0  0  0  0  0
   11.1292  -16.8026   27.3690 O   0  0  0  0  0  0  0  0  0  0  0  0
   10.3933  -18.8907   27.7242 O   0  0  0  0  0  0  0  0  0  0  0  0
  2  1  1  0
  3  4  1  0
  3  2  1  0
  4  5  1  0
  5  6  1  6
  7  8  2  0
  7  5  1  0
 10 11  1  0
 10  9  1  0
 11 12  1  0
 13 12  1  1
 13 14  1  0
 14  7  1  0
 15 17  1  0
 15 13  1  0
 16 15  2  0
 18 25  1  0
 18 17  1  0
 18 19  1  6
 19 20  1  0
 20 24  1  0
 20 21  2  0
 21 22  1  0
 23 22  1  0
 24 23  2  0
 25 26  1  0
 27 25  2  0
M  END
$$$$
