MMH.pdb
     RDKit          3D

 27 27  0  0  1  0  0  0  0  0999 V2000
    8.9628  -13.8243   17.3114 C   0  0  0  0  0  0  0  0  0  0  0  0
    7.9585  -12.7649   18.3760 S   0  0  0  0  0  0  0  0  0  0  0  0
    6.8532  -13.6917   19.4327 C   0  0  0  0  0  0  0  0  0  0  0  0
    7.2761  -13.6700   20.8835 C   0  0  0  0  0  0  0  0  0  0  0  0
    7.9962  -14.9382   21.2845 C   0  0  2  0  0  0  0  0  0  0  0  0
    7.1100  -16.0871   21.2549 N   0  0  0  0  0  0  0  0  0  0  0  0
    8.6121  -14.8652   22.6141 C   0  0  0  0  0  0  0  0  0  0  0  0
    9.6838  -14.2374   22.8030 O   0  0  0  0  0  0  0  0  0  0  0  0
    6.3173  -10.7841   26.8639 C   0  0  0  0  0  0  0  0  0  0  0  0
    6.3731  -12.5786   27.0557 S   0  0  0  0  0  0  0  0  0  0  0  0
    7.5028  -13.3461   25.8640 C   0  0  0  0  0  0  0  0  0  0  0  0
    7.5560  -14.8490   26.0484 C   0  0  0  0  0  0  0  0  0  0  0  0
    8.5482  -15.4726   25.0618 C   0  0  2  0  0  0  0  0  0  0  0  0
    8.0021  -15.5117   23.7344 N   0  0  0  0  0  0  0  0  0  0  0  0
    8.9708  -16.8058   25.5560 C   0  0  0  0  0  0  0  0  0  0  0  0
    8.1222  -17.7313   25.5361 O   0  0  0  0  0  0  0  0  0  0  0  0
   10.2970  -16.9826   26.0255 N   0  0  0  0  0  0  0  0  0  0  0  0
   10.6704  -18.3408   26.4552 C   0  0  1  0  0  0  0  0  0  0  0  0
   12.0590  -18.5696   25.9118 C   0  0  0  0  0  0  0  0  0  0  0  0
   12.1690  -18.3875   24.4522 C   0  0  0  0  0  0  0  0  0  0  0  0
   11.6072  -19.2870   23.5627 C   0  0  0  0  0  0  0  0  0  0  0  0
   11.8559  -18.8786   22.3073 N   0  0  0  0  0  0  0  0  0  0  0  0
   12.5580  -17.7483   22.4349 C   0  0  0  0  0  0  0  0  0  0  0  0
   12.7512  -17.4452   23.7254 N   0  0  0  0  0  0  0  0  0  0  0  0
   10.5890  -18.3743   27.9164 C   0  0  0  0  0  0  0  0  0  0  0  0
   10.8467  -19.5511   28.6057 O   0  0  0  0  0  0  0  0  0  0  0  0
   10.2899  -17.3795   28.6524 O   0  0  0  0  0  0  0  0  0  0  0  0
  2  1  1  0
  3  4  1  0
  3  2  1  0
  4  5  1  0
  5  6  1  1
  7  8  2  0
  7  5  1  0
 10 11  1  0
 10  9  1  0
 11 12  1  0
 13 12  1  1
 13 14  1  0
 14  7  1  0
 15 17  1  0
 15 13  1  0
 16 15  2  0
 18 25  1  0
 18 17  1  0
 18 19  1  1
 19 20  1  0
 20 24  1  0
 20 21  2  0
 21 22  1  0
 23 22  1  0
 24 23  2  0
 25 26  1  0
 27 25  2  0
M  END
$$$$
