MMH.pdb
     RDKit          3D

 27 27  0  0  1  0  0  0  0  0999 V2000
    8.0359  -11.8619   19.3398 C   0  0  0  0  0  0  0  0  0  0  0  0
    6.8981  -13.1338   19.9330 S   0  0  0  0  0  0  0  0  0  0  0  0
    7.2742  -14.7575   19.2854 C   0  0  0  0  0  0  0  0  0  0  0  0
    8.7052  -15.1716   19.5402 C   0  0  0  0  0  0  0  0  0  0  0  0
    8.8229  -16.1147   20.7167 C   0  0  2  0  0  0  0  0  0  0  0  0
    7.5741  -16.8089   20.9711 N   0  0  0  0  0  0  0  0  0  0  0  0
    9.2430  -15.4526   21.9568 C   0  0  0  0  0  0  0  0  0  0  0  0
   10.2452  -14.6955   21.9848 O   0  0  0  0  0  0  0  0  0  0  0  0
    6.6580  -11.6597   26.9189 C   0  0  0  0  0  0  0  0  0  0  0  0
    6.0123  -12.4535   25.4313 S   0  0  0  0  0  0  0  0  0  0  0  0
    7.3202  -13.2889   24.4948 C   0  0  0  0  0  0  0  0  0  0  0  0
    7.8161  -14.5206   25.2247 C   0  0  0  0  0  0  0  0  0  0  0  0
    8.9633  -15.1748   24.4485 C   0  0  2  0  0  0  0  0  0  0  0  0
    8.5159  -15.6551   23.1714 N   0  0  0  0  0  0  0  0  0  0  0  0
    9.5886  -16.2317   25.2805 C   0  0  0  0  0  0  0  0  0  0  0  0
    8.8526  -17.1627   25.6912 O   0  0  0  0  0  0  0  0  0  0  0  0
   10.9730  -16.1524   25.5767 N   0  0  0  0  0  0  0  0  0  0  0  0
   11.5112  -17.1686   26.4966 C   0  0  1  0  0  0  0  0  0  0  0  0
   10.5682  -17.1886   27.6740 C   0  0  0  0  0  0  0  0  0  0  0  0
   10.5545  -15.9357   28.4523 C   0  0  0  0  0  0  0  0  0  0  0  0
   11.0890  -14.7617   27.9501 C   0  0  0  0  0  0  0  0  0  0  0  0
   10.9406  -13.7853   28.8608 N   0  0  0  0  0  0  0  0  0  0  0  0
   10.3252  -14.3597   29.8991 C   0  0  0  0  0  0  0  0  0  0  0  0
   10.0887  -15.6566   29.6607 N   0  0  0  0  0  0  0  0  0  0  0  0
   11.5743  -18.4331   25.7618 C   0  0  0  0  0  0  0  0  0  0  0  0
   11.1823  -18.4909   24.4317 O   0  0  0  0  0  0  0  0  0  0  0  0
   11.9736  -19.5395   26.2489 O   0  0  0  0  0  0  0  0  0  0  0  0
  2  1  1  0
  3  4  1  0
  3  2  1  0
  4  5  1  0
  5  6  1  1
  7  8  2  0
  7  5  1  0
 10 11  1  0
 10  9  1  0
 11 12  1  0
 13 12  1  1
 13 14  1  0
 14  7  1  0
 15 17  1  0
 15 13  1  0
 16 15  2  0
 18 25  1  0
 18 17  1  0
 18 19  1  1
 19 20  1  0
 20 24  1  0
 20 21  2  0
 21 22  1  0
 23 22  1  0
 24 23  2  0
 25 26  1  0
 27 25  2  0
M  END
$$$$
