MMH.pdb
     RDKit          3D

 27 27  0  0  1  0  0  0  0  0999 V2000
    7.6217  -11.7112   18.7363 C   0  0  0  0  0  0  0  0  0  0  0  0
    7.0344  -13.2574   18.0093 S   0  0  0  0  0  0  0  0  0  0  0  0
    7.6462  -14.7029   18.8657 C   0  0  0  0  0  0  0  0  0  0  0  0
    8.2507  -14.3733   20.2111 C   0  0  0  0  0  0  0  0  0  0  0  0
    8.7087  -15.6127   20.9471 C   0  0  2  0  0  0  0  0  0  0  0  0
    7.6228  -16.5586   21.1265 N   0  0  0  0  0  0  0  0  0  0  0  0
    9.2946  -15.3287   22.2619 C   0  0  0  0  0  0  0  0  0  0  0  0
   10.3698  -14.6883   22.3723 O   0  0  0  0  0  0  0  0  0  0  0  0
    5.9846  -11.1020   25.8499 C   0  0  0  0  0  0  0  0  0  0  0  0
    6.3892  -12.7982   26.3181 S   0  0  0  0  0  0  0  0  0  0  0  0
    7.6529  -13.5110   25.2317 C   0  0  0  0  0  0  0  0  0  0  0  0
    8.0129  -14.9192   25.6595 C   0  0  0  0  0  0  0  0  0  0  0  0
    9.1334  -15.4752   24.7752 C   0  0  2  0  0  0  0  0  0  0  0  0
    8.6504  -15.7774   23.4572 N   0  0  0  0  0  0  0  0  0  0  0  0
    9.7646  -16.6391   25.4439 C   0  0  0  0  0  0  0  0  0  0  0  0
    9.0787  -17.6839   25.5671 O   0  0  0  0  0  0  0  0  0  0  0  0
   11.0985  -16.5301   25.9124 N   0  0  0  0  0  0  0  0  0  0  0  0
   11.5649  -17.5834   26.8298 C   0  0  1  0  0  0  0  0  0  0  0  0
   10.5150  -17.6737   27.9094 C   0  0  0  0  0  0  0  0  0  0  0  0
   10.3907  -16.4530   28.7280 C   0  0  0  0  0  0  0  0  0  0  0  0
   11.0270  -15.2746   28.3778 C   0  0  0  0  0  0  0  0  0  0  0  0
   10.7416  -14.3317   29.2913 N   0  0  0  0  0  0  0  0  0  0  0  0
    9.9441  -14.9305   30.1813 C   0  0  0  0  0  0  0  0  0  0  0  0
    9.7276  -16.2100   29.8489 N   0  0  0  0  0  0  0  0  0  0  0  0
   11.7195  -18.8092   26.0447 C   0  0  0  0  0  0  0  0  0  0  0  0
   12.8113  -19.6407   26.2514 O   0  0  0  0  0  0  0  0  0  0  0  0
   10.9094  -19.2059   25.1462 O   0  0  0  0  0  0  0  0  0  0  0  0
  2  1  1  0
  3  4  1  0
  3  2  1  0
  4  5  1  0
  5  6  1  1
  7  8  2  0
  7  5  1  0
 10 11  1  0
 10  9  1  0
 11 12  1  0
 13 12  1  1
 13 14  1  0
 14  7  1  0
 15 17  1  0
 15 13  1  0
 16 15  2  0
 18 25  1  0
 18 17  1  0
 18 19  1  1
 19 20  1  0
 20 24  1  0
 20 21  2  0
 21 22  1  0
 23 22  1  0
 24 23  2  0
 25 26  1  0
 27 25  2  0
M  END
$$$$
