MMH.pdb
     RDKit          3D

 27 27  0  0  1  0  0  0  0  0999 V2000
    8.3257  -11.4994   20.3558 C   0  0  0  0  0  0  0  0  0  0  0  0
    7.9593  -12.3284   18.7929 S   0  0  0  0  0  0  0  0  0  0  0  0
    8.9146  -13.8218   18.5592 C   0  0  0  0  0  0  0  0  0  0  0  0
    9.1572  -14.5687   19.8505 C   0  0  0  0  0  0  0  0  0  0  0  0
   10.2520  -15.6029   19.7115 C   0  0  2  0  0  0  0  0  0  0  0  0
   10.2972  -16.1552   18.3702 N   0  0  0  0  0  0  0  0  0  0  0  0
   10.1318  -16.7129   20.6633 C   0  0  0  0  0  0  0  0  0  0  0  0
    9.1332  -16.8199   21.4179 O   0  0  0  0  0  0  0  0  0  0  0  0
   13.8276  -22.2764   20.3506 C   0  0  0  0  0  0  0  0  0  0  0  0
   13.4517  -21.0529   19.0772 S   0  0  0  0  0  0  0  0  0  0  0  0
   12.4758  -19.6754   19.7373 C   0  0  0  0  0  0  0  0  0  0  0  0
   11.8973  -20.0147   21.0959 C   0  0  0  0  0  0  0  0  0  0  0  0
   11.0845  -18.8353   21.6391 C   0  0  2  0  0  0  0  0  0  0  0  0
   11.1563  -17.7066   20.7544 N   0  0  0  0  0  0  0  0  0  0  0  0
   11.5255  -18.5204   23.0199 C   0  0  0  0  0  0  0  0  0  0  0  0
   12.6501  -17.9805   23.1644 O   0  0  0  0  0  0  0  0  0  0  0  0
   10.6737  -18.8364   24.1086 N   0  0  0  0  0  0  0  0  0  0  0  0
   11.1803  -18.5252   25.4559 C   0  0  1  0  0  0  0  0  0  0  0  0
    9.9562  -18.2632   26.2979 C   0  0  0  0  0  0  0  0  0  0  0  0
    9.1816  -17.0804   25.8776 C   0  0  0  0  0  0  0  0  0  0  0  0
    9.7106  -16.1321   25.0191 C   0  0  0  0  0  0  0  0  0  0  0  0
    8.7953  -15.1723   24.8052 N   0  0  0  0  0  0  0  0  0  0  0  0
    7.7279  -15.5341   25.5238 C   0  0  0  0  0  0  0  0  0  0  0  0
    7.9527  -16.6838   26.1736 N   0  0  0  0  0  0  0  0  0  0  0  0
   11.9746  -19.6720   25.8995 C   0  0  0  0  0  0  0  0  0  0  0  0
   12.9648  -19.5097   26.8583 O   0  0  0  0  0  0  0  0  0  0  0  0
   11.8383  -20.8625   25.4695 O   0  0  0  0  0  0  0  0  0  0  0  0
  2  1  1  0
  3  4  1  0
  3  2  1  0
  4  5  1  0
  5  6  1  6
  7  8  2  0
  7  5  1  0
 10 11  1  0
 10  9  1  0
 11 12  1  0
 13 12  1  6
 13 14  1  0
 14  7  1  0
 15 17  1  0
 15 13  1  0
 16 15  2  0
 18 25  1  0
 18 17  1  0
 18 19  1  1
 19 20  1  0
 20 24  1  0
 20 21  2  0
 21 22  1  0
 23 22  1  0
 24 23  2  0
 25 26  1  0
 27 25  2  0
M  END
$$$$
