MMH.pdb
     RDKit          3D

 27 27  0  0  1  0  0  0  0  0999 V2000
    7.5726  -12.5270   17.1002 C   0  0  0  0  0  0  0  0  0  0  0  0
    8.2097  -13.3328   18.5864 S   0  0  0  0  0  0  0  0  0  0  0  0
    7.6646  -15.0284   18.7440 C   0  0  0  0  0  0  0  0  0  0  0  0
    8.2153  -15.7075   19.9768 C   0  0  0  0  0  0  0  0  0  0  0  0
    8.0389  -14.8615   21.2180 C   0  0  2  0  0  0  0  0  0  0  0  0
    8.7732  -13.6135   21.1220 N   0  0  0  0  0  0  0  0  0  0  0  0
    8.4463  -15.5423   22.4522 C   0  0  0  0  0  0  0  0  0  0  0  0
    9.5866  -16.0566   22.5675 O   0  0  0  0  0  0  0  0  0  0  0  0
    6.7151  -10.6300   26.5351 C   0  0  0  0  0  0  0  0  0  0  0  0
    6.1690  -12.2108   27.2154 S   0  0  0  0  0  0  0  0  0  0  0  0
    7.2541  -13.5709   26.7072 C   0  0  0  0  0  0  0  0  0  0  0  0
    6.8694  -14.0975   25.3396 C   0  0  0  0  0  0  0  0  0  0  0  0
    7.8681  -15.1636   24.8784 C   0  0  2  0  0  0  0  0  0  0  0  0
    7.5480  -15.6366   23.5609 N   0  0  0  0  0  0  0  0  0  0  0  0
    7.9368  -16.2506   25.8854 C   0  0  0  0  0  0  0  0  0  0  0  0
    8.1038  -15.9235   27.0864 O   0  0  0  0  0  0  0  0  0  0  0  0
    7.8137  -17.5978   25.4608 N   0  0  0  0  0  0  0  0  0  0  0  0
    8.9966  -18.4571   25.6374 C   0  0  1  0  0  0  0  0  0  0  0  0
    9.9552  -18.0557   24.5438 C   0  0  0  0  0  0  0  0  0  0  0  0
   11.2496  -18.7612   24.5927 C   0  0  0  0  0  0  0  0  0  0  0  0
   11.5240  -19.7110   25.5615 C   0  0  0  0  0  0  0  0  0  0  0  0
   12.7642  -20.1905   25.3694 N   0  0  0  0  0  0  0  0  0  0  0  0
   13.2337  -19.5404   24.3000 C   0  0  0  0  0  0  0  0  0  0  0  0
   12.3264  -18.6765   23.8256 N   0  0  0  0  0  0  0  0  0  0  0  0
    9.5056  -18.2266   26.9905 C   0  0  0  0  0  0  0  0  0  0  0  0
    9.9522  -19.2905   27.7617 O   0  0  0  0  0  0  0  0  0  0  0  0
    9.5818  -17.0886   27.5561 O   0  0  0  0  0  0  0  0  0  0  0  0
  2  1  1  0
  3  4  1  0
  3  2  1  0
  4  5  1  0
  5  6  1  6
  7  8  2  0
  7  5  1  0
 10 11  1  0
 10  9  1  0
 11 12  1  0
 13 12  1  1
 13 14  1  0
 14  7  1  0
 15 17  1  0
 15 13  1  0
 16 15  2  0
 18 25  1  0
 18 17  1  0
 18 19  1  6
 19 20  1  0
 20 24  1  0
 20 21  2  0
 21 22  1  0
 23 22  1  0
 24 23  2  0
 25 26  1  0
 27 25  2  0
M  END
$$$$
