VSS.pdb
     RDKit          3D

 20 19  0  0  1  0  0  0  0  0999 V2000
   18.9450  -13.2104  -17.2828 C   0  0  0  0  0  0  0  0  0  0  0  0
   19.0034  -11.7168  -17.5656 C   0  0  1  0  0  0  0  0  0  0  0  0
   17.6489  -11.1919  -17.9544 C   0  0  0  0  0  0  0  0  0  0  0  0
   19.5620  -11.0584  -16.3309 C   0  0  2  0  0  0  0  0  0  0  0  0
   18.8313  -11.5584  -15.1821 N   0  0  0  0  0  0  0  0  0  0  0  0
   19.4765   -9.5718  -16.4103 C   0  0  0  0  0  0  0  0  0  0  0  0
   20.1720   -8.9873  -17.2616 O   0  0  0  0  0  0  0  0  0  0  0  0
   16.4120   -7.1129  -14.4205 O   0  0  0  0  0  0  0  0  0  0  0  0
   17.1250   -6.9221  -15.5950 C   0  0  0  0  0  0  0  0  0  0  0  0
   18.5138   -7.4391  -15.5506 C   0  0  2  0  0  0  0  0  0  0  0  0
   18.6252   -8.8614  -15.5366 N   0  0  0  0  0  0  0  0  0  0  0  0
   19.3663   -6.7504  -14.5213 C   0  0  0  0  0  0  0  0  0  0  0  0
   19.7975   -7.3256  -13.5053 O   0  0  0  0  0  0  0  0  0  0  0  0
   23.1157   -4.7374  -13.9258 O   0  0  0  0  0  0  0  0  0  0  0  0
   22.0319   -5.4224  -14.4698 C   0  0  0  0  0  0  0  0  0  0  0  0
   20.7386   -4.7352  -14.0158 C   0  0  2  0  0  0  0  0  0  0  0  0
   19.6698   -5.3831  -14.7587 N   0  0  0  0  0  0  0  0  0  0  0  0
   20.7533   -3.3080  -14.3720 C   0  0  0  0  0  0  0  0  0  0  0  0
   21.1059   -2.3698  -13.4306 O   0  0  0  0  0  0  0  0  0  0  0  0
   20.4489   -2.9239  -15.5254 O   0  0  0  0  0  0  0  0  0  0  0  0
  2  1  1  1
  2  4  1  0
  3  2  1  0
  4  5  1  1
  6 11  1  0
  6  4  1  0
  7  6  2  0
 10  9  1  1
  9  8  1  0
 10 12  1  0
 10 11  1  0
 12 17  1  0
 13 12  2  0
 15 14  1  0
 16 18  1  0
 16 15  1  6
 17 16  1  0
 18 19  1  0
 20 18  2  0
M  END
$$$$
