VSS.pdb
     RDKit          3D

 20 19  0  0  1  0  0  0  0  0999 V2000
   20.0187  -11.3818  -19.2601 C   0  0  0  0  0  0  0  0  0  0  0  0
   19.7531  -10.1096  -18.4694 C   0  0  1  0  0  0  0  0  0  0  0  0
   18.3000   -9.7287  -18.5396 C   0  0  0  0  0  0  0  0  0  0  0  0
   20.2330  -10.3591  -17.0632 C   0  0  2  0  0  0  0  0  0  0  0  0
   19.5185  -11.5073  -16.5388 N   0  0  0  0  0  0  0  0  0  0  0  0
   20.0352   -9.1656  -16.1915 C   0  0  0  0  0  0  0  0  0  0  0  0
   18.8798   -8.9002  -15.8111 O   0  0  0  0  0  0  0  0  0  0  0  0
   21.8368   -5.6723  -13.4050 O   0  0  0  0  0  0  0  0  0  0  0  0
   22.0046   -6.8754  -14.0748 C   0  0  0  0  0  0  0  0  0  0  0  0
   20.9980   -7.1235  -15.1345 C   0  0  2  0  0  0  0  0  0  0  0  0
   21.1384   -8.3688  -15.8168 N   0  0  0  0  0  0  0  0  0  0  0  0
   20.8023   -5.9460  -16.0487 C   0  0  0  0  0  0  0  0  0  0  0  0
   21.5323   -5.7241  -17.0321 O   0  0  0  0  0  0  0  0  0  0  0  0
   17.5701   -2.8616  -17.6049 O   0  0  0  0  0  0  0  0  0  0  0  0
   17.9124   -3.8931  -16.7339 C   0  0  0  0  0  0  0  0  0  0  0  0
   19.4392   -3.9366  -16.6002 C   0  0  2  0  0  0  0  0  0  0  0  0
   19.7243   -5.0738  -15.7403 N   0  0  0  0  0  0  0  0  0  0  0  0
   19.9403   -2.7197  -15.9429 C   0  0  0  0  0  0  0  0  0  0  0  0
   20.2792   -1.6220  -16.6985 O   0  0  0  0  0  0  0  0  0  0  0  0
   20.0665   -2.6600  -14.6974 O   0  0  0  0  0  0  0  0  0  0  0  0
  2  1  1  6
  2  4  1  0
  3  2  1  0
  4  5  1  1
  6 11  1  0
  6  4  1  0
  7  6  2  0
 10  9  1  6
  9  8  1  0
 10 12  1  0
 10 11  1  0
 12 17  1  0
 13 12  2  0
 15 14  1  0
 16 18  1  0
 16 15  1  1
 17 16  1  0
 18 19  1  0
 20 18  2  0
M  END
$$$$
