VSS.pdb
     RDKit          3D

 20 19  0  0  1  0  0  0  0  0999 V2000
   16.6563  -12.4237  -17.0915 C   0  0  0  0  0  0  0  0  0  0  0  0
   17.2951  -11.5588  -16.0152 C   0  0  1  0  0  0  0  0  0  0  0  0
   18.2243  -12.3716  -15.1564 C   0  0  0  0  0  0  0  0  0  0  0  0
   17.9841  -10.4195  -16.7202 C   0  0  2  0  0  0  0  0  0  0  0  0
   18.9584  -10.9787  -17.6377 N   0  0  0  0  0  0  0  0  0  0  0  0
   18.6350   -9.4858  -15.7568 C   0  0  0  0  0  0  0  0  0  0  0  0
   17.9106   -8.8755  -14.9487 O   0  0  0  0  0  0  0  0  0  0  0  0
   22.5796   -8.0716  -13.4177 O   0  0  0  0  0  0  0  0  0  0  0  0
   22.0025   -8.9028  -14.3665 C   0  0  0  0  0  0  0  0  0  0  0  0
   20.7128   -8.4056  -14.9024 C   0  0  2  0  0  0  0  0  0  0  0  0
   20.0354   -9.3101  -15.7735 N   0  0  0  0  0  0  0  0  0  0  0  0
   20.7961   -6.9995  -15.4283 C   0  0  0  0  0  0  0  0  0  0  0  0
   20.8268   -6.7323  -16.6436 O   0  0  0  0  0  0  0  0  0  0  0  0
   19.4486   -2.7247  -15.2348 O   0  0  0  0  0  0  0  0  0  0  0  0
   19.4530   -4.0888  -14.9534 C   0  0  0  0  0  0  0  0  0  0  0  0
   20.9068   -4.5717  -14.8868 C   0  0  2  0  0  0  0  0  0  0  0  0
   20.8386   -5.9602  -14.4609 N   0  0  0  0  0  0  0  0  0  0  0  0
   21.6629   -3.8128  -13.8786 C   0  0  0  0  0  0  0  0  0  0  0  0
   22.1247   -4.4452  -12.7483 O   0  0  0  0  0  0  0  0  0  0  0  0
   21.8982   -2.5910  -14.0280 O   0  0  0  0  0  0  0  0  0  0  0  0
  2  1  1  6
  2  4  1  0
  3  2  1  0
  4  5  1  6
  6 11  1  0
  6  4  1  0
  7  6  2  0
 10  9  1  6
  9  8  1  0
 10 12  1  0
 10 11  1  0
 12 17  1  0
 13 12  2  0
 15 14  1  0
 16 18  1  0
 16 15  1  1
 17 16  1  0
 18 19  1  0
 20 18  2  0
M  END
$$$$
