VSS.pdb
     RDKit          3D

 20 19  0  0  1  0  0  0  0  0999 V2000
   18.9361   -9.3998  -18.6284 C   0  0  0  0  0  0  0  0  0  0  0  0
   18.1638  -10.6208  -18.1518 C   0  0  1  0  0  0  0  0  0  0  0  0
   17.7866  -11.5020  -19.3106 C   0  0  0  0  0  0  0  0  0  0  0  0
   19.0298  -11.3176  -17.1347 C   0  0  2  0  0  0  0  0  0  0  0  0
   18.2564  -12.3926  -16.5432 N   0  0  0  0  0  0  0  0  0  0  0  0
   19.5196  -10.3758  -16.0876 C   0  0  0  0  0  0  0  0  0  0  0  0
   18.6763   -9.7662  -15.4039 O   0  0  0  0  0  0  0  0  0  0  0  0
   23.7740   -9.8507  -15.0934 O   0  0  0  0  0  0  0  0  0  0  0  0
   22.6779   -9.7764  -14.2465 C   0  0  0  0  0  0  0  0  0  0  0  0
   21.4354   -9.3062  -14.9044 C   0  0  2  0  0  0  0  0  0  0  0  0
   20.9050  -10.1917  -15.8894 N   0  0  0  0  0  0  0  0  0  0  0  0
   21.5114   -7.8725  -15.3509 C   0  0  0  0  0  0  0  0  0  0  0  0
   21.8408   -7.5395  -16.5040 O   0  0  0  0  0  0  0  0  0  0  0  0
   19.9164   -3.5211  -14.6585 O   0  0  0  0  0  0  0  0  0  0  0  0
   19.8821   -4.8947  -14.4309 C   0  0  0  0  0  0  0  0  0  0  0  0
   21.2711   -5.4755  -14.7213 C   0  0  2  0  0  0  0  0  0  0  0  0
   21.1838   -6.8866  -14.3821 N   0  0  0  0  0  0  0  0  0  0  0  0
   22.2877   -4.8523  -13.8599 C   0  0  0  0  0  0  0  0  0  0  0  0
   22.8962   -3.6834  -14.2524 O   0  0  0  0  0  0  0  0  0  0  0  0
   22.6151   -5.3676  -12.7655 O   0  0  0  0  0  0  0  0  0  0  0  0
  2  1  1  6
  2  4  1  0
  3  2  1  0
  4  5  1  1
  6 11  1  0
  6  4  1  0
  7  6  2  0
 10  9  1  6
  9  8  1  0
 10 12  1  0
 10 11  1  0
 12 17  1  0
 13 12  2  0
 15 14  1  0
 16 18  1  0
 16 15  1  1
 17 16  1  0
 18 19  1  0
 20 18  2  0
M  END
$$$$
