VSS.pdb
     RDKit          3D

 20 19  0  0  1  0  0  0  0  0999 V2000
   36.9900  -29.2622  -17.2978 C   0  0  0  0  0  0  0  0  0  0  0  0
   35.8908  -28.9505  -16.2933 C   0  0  1  0  0  0  0  0  0  0  0  0
   34.5342  -29.0572  -16.9333 C   0  0  0  0  0  0  0  0  0  0  0  0
   36.0753  -29.8953  -15.1344 C   0  0  2  0  0  0  0  0  0  0  0  0
   37.3593  -29.6137  -14.5216 N   0  0  0  0  0  0  0  0  0  0  0  0
   35.9921  -31.3207  -15.5645 C   0  0  0  0  0  0  0  0  0  0  0  0
   37.0201  -31.8603  -16.0140 O   0  0  0  0  0  0  0  0  0  0  0  0
   33.2577  -34.0516  -13.9328 O   0  0  0  0  0  0  0  0  0  0  0  0
   33.4002  -34.0517  -15.3126 C   0  0  0  0  0  0  0  0  0  0  0  0
   34.6455  -33.4061  -15.7925 C   0  0  2  0  0  0  0  0  0  0  0  0
   34.7733  -32.0249  -15.4584 N   0  0  0  0  0  0  0  0  0  0  0  0
   34.9536  -33.7166  -17.2310 C   0  0  0  0  0  0  0  0  0  0  0  0
   34.8282  -32.8815  -18.1453 O   0  0  0  0  0  0  0  0  0  0  0  0
   36.7446  -37.2065  -20.0605 O   0  0  0  0  0  0  0  0  0  0  0  0
   36.3182  -36.8224  -18.7914 C   0  0  0  0  0  0  0  0  0  0  0  0
   35.6991  -35.4227  -18.8843 C   0  0  2  0  0  0  0  0  0  0  0  0
   35.4058  -35.0331  -17.5146 N   0  0  0  0  0  0  0  0  0  0  0  0
   34.4362  -35.4597  -19.6377 C   0  0  0  0  0  0  0  0  0  0  0  0
   34.4112  -35.0642  -20.9543 O   0  0  0  0  0  0  0  0  0  0  0  0
   33.3719  -35.8473  -19.1014 O   0  0  0  0  0  0  0  0  0  0  0  0
  2  1  1  6
  2  4  1  0
  3  2  1  0
  4  5  1  6
  6 11  1  0
  6  4  1  0
  7  6  2  0
 10  9  1  6
  9  8  1  0
 10 12  1  0
 10 11  1  0
 12 17  1  0
 13 12  2  0
 15 14  1  0
 16 18  1  0
 16 15  1  1
 17 16  1  0
 18 19  1  0
 20 18  2  0
M  END
$$$$
