VSS.pdb
     RDKit          3D

 20 19  0  0  1  0  0  0  0  0999 V2000
   18.6826  -15.2517  -15.6329 C   0  0  0  0  0  0  0  0  0  0  0  0
   18.9445  -13.7727  -15.8742 C   0  0  1  0  0  0  0  0  0  0  0  0
   19.8465  -13.5750  -17.0611 C   0  0  0  0  0  0  0  0  0  0  0  0
   17.6009  -13.1100  -16.0340 C   0  0  2  0  0  0  0  0  0  0  0  0
   16.8696  -13.8147  -17.0695 N   0  0  0  0  0  0  0  0  0  0  0  0
   17.7345  -11.6628  -16.3679 C   0  0  0  0  0  0  0  0  0  0  0  0
   18.4231  -11.3484  -17.3564 O   0  0  0  0  0  0  0  0  0  0  0  0
   15.6733   -8.4664  -14.1570 O   0  0  0  0  0  0  0  0  0  0  0  0
   15.9889   -8.4986  -15.5073 C   0  0  0  0  0  0  0  0  0  0  0  0
   17.2022   -9.2884  -15.8266 C   0  0  2  0  0  0  0  0  0  0  0  0
   17.0913  -10.6883  -15.5746 N   0  0  0  0  0  0  0  0  0  0  0  0
   18.4647   -8.6707  -15.2927 C   0  0  0  0  0  0  0  0  0  0  0  0
   19.1020   -9.1517  -14.3379 O   0  0  0  0  0  0  0  0  0  0  0  0
   22.2269   -6.1981  -16.5514 O   0  0  0  0  0  0  0  0  0  0  0  0
   21.0265   -6.8474  -16.8294 C   0  0  0  0  0  0  0  0  0  0  0  0
   20.1814   -6.8857  -15.5506 C   0  0  2  0  0  0  0  0  0  0  0  0
   18.9152   -7.4872  -15.9364 N   0  0  0  0  0  0  0  0  0  0  0  0
   19.9186   -5.5247  -15.0580 C   0  0  0  0  0  0  0  0  0  0  0  0
   20.7855   -4.9389  -14.1657 O   0  0  0  0  0  0  0  0  0  0  0  0
   18.9125   -4.8805  -15.4368 O   0  0  0  0  0  0  0  0  0  0  0  0
  2  1  1  6
  2  4  1  0
  3  2  1  0
  4  5  1  6
  6 11  1  0
  6  4  1  0
  7  6  2  0
 10  9  1  1
  9  8  1  0
 10 12  1  0
 10 11  1  0
 12 17  1  0
 13 12  2  0
 15 14  1  0
 16 18  1  0
 16 15  1  6
 17 16  1  0
 18 19  1  0
 20 18  2  0
M  END
$$$$
