VSS.pdb
     RDKit          3D

 20 19  0  0  1  0  0  0  0  0999 V2000
   19.1197   -8.0395  -18.3551 C   0  0  0  0  0  0  0  0  0  0  0  0
   18.7754   -9.2678  -17.5263 C   0  0  1  0  0  0  0  0  0  0  0  0
   18.8905  -10.5200  -18.3511 C   0  0  0  0  0  0  0  0  0  0  0  0
   19.6910   -9.2601  -16.3298 C   0  0  2  0  0  0  0  0  0  0  0  0
   19.3405  -10.3857  -15.4851 N   0  0  0  0  0  0  0  0  0  0  0  0
   19.6010   -7.9784  -15.5730 C   0  0  0  0  0  0  0  0  0  0  0  0
   18.4752   -7.5839  -15.2163 O   0  0  0  0  0  0  0  0  0  0  0  0
   23.0396   -5.8108  -13.9593 O   0  0  0  0  0  0  0  0  0  0  0  0
   21.7121   -5.7699  -13.5588 C   0  0  0  0  0  0  0  0  0  0  0  0
   20.7408   -5.9568  -14.6630 C   0  0  2  0  0  0  0  0  0  0  0  0
   20.7697   -7.2443  -15.2772 N   0  0  0  0  0  0  0  0  0  0  0  0
   20.7333   -4.8147  -15.6408 C   0  0  0  0  0  0  0  0  0  0  0  0
   21.4064   -4.8159  -16.6878 O   0  0  0  0  0  0  0  0  0  0  0  0
   17.7704   -2.2073  -15.0798 O   0  0  0  0  0  0  0  0  0  0  0  0
   18.3315   -2.2540  -16.3537 C   0  0  0  0  0  0  0  0  0  0  0  0
   19.8261   -2.5696  -16.2206 C   0  0  2  0  0  0  0  0  0  0  0  0
   19.9071   -3.7055  -15.3168 N   0  0  0  0  0  0  0  0  0  0  0  0
   20.5458   -1.4397  -15.6129 C   0  0  0  0  0  0  0  0  0  0  0  0
   20.6569   -0.2508  -16.2948 O   0  0  0  0  0  0  0  0  0  0  0  0
   21.0652   -1.5370  -14.4765 O   0  0  0  0  0  0  0  0  0  0  0  0
  2  1  1  6
  2  4  1  0
  3  2  1  0
  4  5  1  1
  6 11  1  0
  6  4  1  0
  7  6  2  0
 10  9  1  1
  9  8  1  0
 10 12  1  0
 10 11  1  0
 12 17  1  0
 13 12  2  0
 15 14  1  0
 16 18  1  0
 16 15  1  1
 17 16  1  0
 18 19  1  0
 20 18  2  0
M  END
$$$$
