VSS.pdb
     RDKit          3D

 20 19  0  0  1  0  0  0  0  0999 V2000
   17.4988  -12.2013  -15.1806 C   0  0  0  0  0  0  0  0  0  0  0  0
   17.8918  -10.7436  -14.9933 C   0  0  1  0  0  0  0  0  0  0  0  0
   18.8653  -10.5930  -13.8570 C   0  0  0  0  0  0  0  0  0  0  0  0
   18.4413  -10.2648  -16.3119 C   0  0  2  0  0  0  0  0  0  0  0  0
   19.5308  -11.1430  -16.6932 N   0  0  0  0  0  0  0  0  0  0  0  0
   18.9008   -8.8481  -16.2377 C   0  0  0  0  0  0  0  0  0  0  0  0
   20.1119   -8.6319  -16.0466 O   0  0  0  0  0  0  0  0  0  0  0  0
   16.8423   -5.7273  -18.0445 O   0  0  0  0  0  0  0  0  0  0  0  0
   17.3197   -5.4610  -16.7696 C   0  0  0  0  0  0  0  0  0  0  0  0
   18.3483   -6.4180  -16.2964 C   0  0  2  0  0  0  0  0  0  0  0  0
   17.9750   -7.7924  -16.3822 N   0  0  0  0  0  0  0  0  0  0  0  0
   18.9493   -6.0307  -14.9738 C   0  0  0  0  0  0  0  0  0  0  0  0
   18.3949   -6.2645  -13.8842 O   0  0  0  0  0  0  0  0  0  0  0  0
   22.8820   -5.9318  -14.7112 O   0  0  0  0  0  0  0  0  0  0  0  0
   22.0152   -6.0570  -13.6282 C   0  0  0  0  0  0  0  0  0  0  0  0
   20.8894   -5.0269  -13.7787 C   0  0  2  0  0  0  0  0  0  0  0  0
   20.2069   -5.3713  -15.0154 N   0  0  0  0  0  0  0  0  0  0  0  0
   21.4393   -3.6691  -13.9138 C   0  0  0  0  0  0  0  0  0  0  0  0
   22.0717   -3.0760  -12.8466 O   0  0  0  0  0  0  0  0  0  0  0  0
   21.3434   -3.0344  -14.9901 O   0  0  0  0  0  0  0  0  0  0  0  0
  2  1  1  6
  2  4  1  0
  3  2  1  0
  4  5  1  1
  6 11  1  0
  6  4  1  0
  7  6  2  0
 10  9  1  1
  9  8  1  0
 10 12  1  0
 10 11  1  0
 12 17  1  0
 13 12  2  0
 15 14  1  0
 16 18  1  0
 16 15  1  6
 17 16  1  0
 18 19  1  0
 20 18  2  0
M  END
$$$$
