SAD.pdb
     RDKit          3D

 20 19  0  0  1  0  0  0  0  0999 V2000
    8.9239  -17.6585   18.7741 O   0  0  0  0  0  0  0  0  0  0  0  0
    7.7071  -17.5276   18.1471 C   0  0  0  0  0  0  0  0  0  0  0  0
    7.8230  -16.3620   17.1591 C   0  0  2  0  0  0  0  0  0  0  0  0
    8.6081  -16.7450   16.0233 N   0  0  0  0  0  0  0  0  0  0  0  0
    8.4213  -15.1748   17.7932 C   0  0  0  0  0  0  0  0  0  0  0  0
    9.6463  -14.9538   17.6647 O   0  0  0  0  0  0  0  0  0  0  0  0
    7.1014  -12.3136   19.8048 C   0  0  0  0  0  0  0  0  0  0  0  0
    8.2036  -13.2024   19.3228 C   0  0  2  0  0  0  0  0  0  0  0  0
    7.6317  -14.2880   18.5407 N   0  0  0  0  0  0  0  0  0  0  0  0
    9.0248  -13.7414   20.4456 C   0  0  0  0  0  0  0  0  0  0  0  0
    9.6372  -12.9344   21.1632 O   0  0  0  0  0  0  0  0  0  0  0  0
    9.1358  -15.1173   20.7260 N   0  0  0  0  0  0  0  0  0  0  0  0
    9.8730  -15.6648   21.8674 C   0  0  1  0  0  0  0  0  0  0  0  0
    9.3855  -17.0289   22.2269 C   0  0  0  0  0  0  0  0  0  0  0  0
   10.1240  -17.5870   23.3597 C   0  0  0  0  0  0  0  0  0  0  0  0
   11.2953  -17.9984   23.1986 O   0  0  0  0  0  0  0  0  0  0  0  0
   11.3371  -15.6468   21.5545 C   0  0  0  0  0  0  0  0  0  0  0  0
   11.7041  -15.7238   20.2144 O   0  0  0  0  0  0  0  0  0  0  0  0
    9.5572  -17.6736   24.6068 O   0  0  0  0  0  0  0  0  0  0  0  0
   12.2555  -15.5692   22.3895 O   0  0  0  0  0  0  0  0  0  0  0  0
  2  1  1  0
  3  5  1  0
  3  2  1  0
  3  4  1  6
  5  6  2  0
  8  7  1  1
  9  8  1  0
  9  5  1  0
 10 11  2  0
 10  8  1  0
 12 10  1  0
 13 12  1  0
 13 17  1  0
 13 14  1  6
 15 16  2  0
 15 14  1  0
 17 18  1  0
 19 15  1  0
 20 17  2  0
M  END
$$$$
