SAD.pdb
     RDKit          3D

 20 19  0  0  1  0  0  0  0  0999 V2000
    7.7187  -16.4406   19.2795 O   0  0  0  0  0  0  0  0  0  0  0  0
    6.5903  -15.6620   19.3875 C   0  0  0  0  0  0  0  0  0  0  0  0
    7.0478  -14.2289   19.6793 C   0  0  2  0  0  0  0  0  0  0  0  0
    7.8034  -13.7109   18.5776 N   0  0  0  0  0  0  0  0  0  0  0  0
    7.8582  -14.1608   20.9072 C   0  0  0  0  0  0  0  0  0  0  0  0
    9.1029  -14.2686   20.8360 O   0  0  0  0  0  0  0  0  0  0  0  0
    7.0936  -13.6226   24.5300 C   0  0  0  0  0  0  0  0  0  0  0  0
    7.9986  -14.0108   23.4043 C   0  0  2  0  0  0  0  0  0  0  0  0
    7.2490  -13.9763   22.1576 N   0  0  0  0  0  0  0  0  0  0  0  0
    8.6103  -15.3557   23.6110 C   0  0  0  0  0  0  0  0  0  0  0  0
    8.6110  -16.1515   22.6582 O   0  0  0  0  0  0  0  0  0  0  0  0
    9.1836  -15.7605   24.8323 N   0  0  0  0  0  0  0  0  0  0  0  0
   10.1024  -16.8929   24.9715 C   0  0  1  0  0  0  0  0  0  0  0  0
   11.2347  -16.7976   24.0038 C   0  0  0  0  0  0  0  0  0  0  0  0
   12.1625  -17.9200   24.1435 C   0  0  0  0  0  0  0  0  0  0  0  0
   12.0512  -18.9177   23.3957 O   0  0  0  0  0  0  0  0  0  0  0  0
   10.5709  -16.9672   26.3917 C   0  0  0  0  0  0  0  0  0  0  0  0
   11.1399  -18.1649   26.8139 O   0  0  0  0  0  0  0  0  0  0  0  0
   13.1605  -17.9065   25.0858 O   0  0  0  0  0  0  0  0  0  0  0  0
   10.4956  -16.0501   27.2283 O   0  0  0  0  0  0  0  0  0  0  0  0
  2  1  1  0
  3  5  1  0
  3  2  1  0
  3  4  1  6
  5  6  2  0
  8  7  1  1
  9  8  1  0
  9  5  1  0
 10 11  2  0
 10  8  1  0
 12 10  1  0
 13 12  1  0
 13 17  1  0
 13 14  1  6
 15 16  2  0
 15 14  1  0
 17 18  1  0
 19 15  1  0
 20 17  2  0
M  END
$$$$
