SAD.pdb
     RDKit          3D

 20 19  0  0  1  0  0  0  0  0999 V2000
    8.2932  -18.8441   19.6985 O   0  0  0  0  0  0  0  0  0  0  0  0
    7.2864  -17.9517   19.4143 C   0  0  0  0  0  0  0  0  0  0  0  0
    7.9448  -16.6127   19.0655 C   0  0  2  0  0  0  0  0  0  0  0  0
    8.8503  -16.7718   17.9665 N   0  0  0  0  0  0  0  0  0  0  0  0
    8.6658  -16.0493   20.2196 C   0  0  0  0  0  0  0  0  0  0  0  0
    9.9150  -16.1116   20.2615 O   0  0  0  0  0  0  0  0  0  0  0  0
    7.6399  -14.1391   23.2668 C   0  0  0  0  0  0  0  0  0  0  0  0
    8.6385  -14.8794   22.4351 C   0  0  2  0  0  0  0  0  0  0  0  0
    7.9664  -15.4428   21.2740 N   0  0  0  0  0  0  0  0  0  0  0  0
    9.3336  -15.9492   23.2086 C   0  0  0  0  0  0  0  0  0  0  0  0
    8.8426  -17.0894   23.2026 O   0  0  0  0  0  0  0  0  0  0  0  0
   10.5154  -15.7242   23.9413 N   0  0  0  0  0  0  0  0  0  0  0  0
   11.2303  -16.7648   24.6843 C   0  0  1  0  0  0  0  0  0  0  0  0
   12.7021  -16.5165   24.6897 C   0  0  0  0  0  0  0  0  0  0  0  0
   13.2579  -16.5260   23.3366 C   0  0  0  0  0  0  0  0  0  0  0  0
   12.8553  -17.3687   22.5030 O   0  0  0  0  0  0  0  0  0  0  0  0
   10.6619  -16.8528   26.0667 C   0  0  0  0  0  0  0  0  0  0  0  0
    9.7083  -15.9051   26.4260 O   0  0  0  0  0  0  0  0  0  0  0  0
   14.2217  -15.6260   22.9558 O   0  0  0  0  0  0  0  0  0  0  0  0
   10.9686  -17.7005   26.9235 O   0  0  0  0  0  0  0  0  0  0  0  0
  2  1  1  0
  3  5  1  0
  3  2  1  0
  3  4  1  6
  5  6  2  0
  8  7  1  1
  9  8  1  0
  9  5  1  0
 10 11  2  0
 10  8  1  0
 12 10  1  0
 13 12  1  0
 13 17  1  0
 13 14  1  1
 15 16  2  0
 15 14  1  0
 17 18  1  0
 19 15  1  0
 20 17  2  0
M  END
$$$$
