SAD.pdb
     RDKit          3D

 20 19  0  0  1  0  0  0  0  0999 V2000
    9.3336  -17.2767   17.2346 O   0  0  0  0  0  0  0  0  0  0  0  0
    8.3059  -16.9408   16.3851 C   0  0  0  0  0  0  0  0  0  0  0  0
    8.5856  -15.5278   15.8625 C   0  0  2  0  0  0  0  0  0  0  0  0
    9.6164  -15.5571   14.8677 N   0  0  0  0  0  0  0  0  0  0  0  0
    8.9787  -14.6177   16.9519 C   0  0  0  0  0  0  0  0  0  0  0  0
   10.1628  -14.2207   17.0318 O   0  0  0  0  0  0  0  0  0  0  0  0
    7.1481  -12.7560   19.6125 C   0  0  0  0  0  0  0  0  0  0  0  0
    8.3953  -13.3332   19.0224 C   0  0  2  0  0  0  0  0  0  0  0  0
    8.0389  -14.1907   17.9022 N   0  0  0  0  0  0  0  0  0  0  0  0
    9.1965  -14.0902   20.0278 C   0  0  0  0  0  0  0  0  0  0  0  0
    9.5746  -13.4906   21.0470 O   0  0  0  0  0  0  0  0  0  0  0  0
    9.5413  -15.4472   19.8728 N   0  0  0  0  0  0  0  0  0  0  0  0
   10.2310  -16.2398   20.8936 C   0  0  1  0  0  0  0  0  0  0  0  0
   10.0584  -17.7031   20.6554 C   0  0  0  0  0  0  0  0  0  0  0  0
    8.6561  -18.1068   20.7571 C   0  0  0  0  0  0  0  0  0  0  0  0
    7.9524  -17.6836   21.7019 O   0  0  0  0  0  0  0  0  0  0  0  0
   11.6719  -15.8346   20.9325 C   0  0  0  0  0  0  0  0  0  0  0  0
   12.4804  -16.4438   21.8872 O   0  0  0  0  0  0  0  0  0  0  0  0
    8.0881  -18.9488   19.8338 O   0  0  0  0  0  0  0  0  0  0  0  0
   12.2100  -14.9993   20.1846 O   0  0  0  0  0  0  0  0  0  0  0  0
  2  1  1  0
  3  5  1  0
  3  2  1  0
  3  4  1  6
  5  6  2  0
  8  7  1  1
  9  8  1  0
  9  5  1  0
 10 11  2  0
 10  8  1  0
 12 10  1  0
 13 12  1  0
 13 17  1  0
 13 14  1  6
 15 16  2  0
 15 14  1  0
 17 18  1  0
 19 15  1  0
 20 17  2  0
M  END
$$$$
