SAD.pdb
     RDKit          3D

 20 19  0  0  1  0  0  0  0  0999 V2000
   12.8704  -17.0131   17.4712 O   0  0  0  0  0  0  0  0  0  0  0  0
   11.6656  -16.3762   17.2877 C   0  0  0  0  0  0  0  0  0  0  0  0
   11.9393  -14.8684   17.2851 C   0  0  2  0  0  0  0  0  0  0  0  0
   13.3497  -14.6160   17.2716 N   0  0  0  0  0  0  0  0  0  0  0  0
   11.3323  -14.2079   18.4533 C   0  0  0  0  0  0  0  0  0  0  0  0
   12.0644  -13.7756   19.3716 O   0  0  0  0  0  0  0  0  0  0  0  0
    7.8701  -13.1585   19.3736 C   0  0  0  0  0  0  0  0  0  0  0  0
    9.2963  -13.4606   19.7078 C   0  0  2  0  0  0  0  0  0  0  0  0
    9.9404  -14.0582   18.5480 N   0  0  0  0  0  0  0  0  0  0  0  0
    9.4195  -14.3557   20.8950 C   0  0  0  0  0  0  0  0  0  0  0  0
    8.9294  -13.9739   21.9697 O   0  0  0  0  0  0  0  0  0  0  0  0
   10.0639  -15.6076   20.8509 N   0  0  0  0  0  0  0  0  0  0  0  0
   10.1895  -16.5062   22.0009 C   0  0  1  0  0  0  0  0  0  0  0  0
   10.4790  -17.9054   21.5697 C   0  0  0  0  0  0  0  0  0  0  0  0
    9.3651  -18.4815   20.8164 C   0  0  0  0  0  0  0  0  0  0  0  0
    9.1908  -18.1617   19.6188 O   0  0  0  0  0  0  0  0  0  0  0  0
   11.2351  -15.9672   22.9272 C   0  0  0  0  0  0  0  0  0  0  0  0
   11.3857  -16.6007   24.1570 O   0  0  0  0  0  0  0  0  0  0  0  0
    8.4963  -19.3712   21.3976 O   0  0  0  0  0  0  0  0  0  0  0  0
   11.9821  -15.0009   22.6928 O   0  0  0  0  0  0  0  0  0  0  0  0
  2  1  1  0
  3  5  1  0
  3  2  1  0
  3  4  1  1
  5  6  2  0
  8  7  1  6
  9  8  1  0
  9  5  1  0
 10 11  2  0
 10  8  1  0
 12 10  1  0
 13 12  1  0
 13 17  1  0
 13 14  1  6
 15 16  2  0
 15 14  1  0
 17 18  1  0
 19 15  1  0
 20 17  2  0
M  END
$$$$
