SAD.pdb
     RDKit          3D

 20 19  0  0  1  0  0  0  0  0999 V2000
    6.8094  -20.5972   21.9869 O   0  0  0  0  0  0  0  0  0  0  0  0
    5.8680  -19.6057   21.8398 C   0  0  0  0  0  0  0  0  0  0  0  0
    6.6184  -18.2957   21.5771 C   0  0  2  0  0  0  0  0  0  0  0  0
    7.5177  -18.4473   20.4720 N   0  0  0  0  0  0  0  0  0  0  0  0
    7.3690  -17.8562   22.7657 C   0  0  0  0  0  0  0  0  0  0  0  0
    8.5915  -18.1078   22.8556 O   0  0  0  0  0  0  0  0  0  0  0  0
    6.5628  -15.8095   25.7828 C   0  0  0  0  0  0  0  0  0  0  0  0
    7.4062  -16.7914   25.0334 C   0  0  2  0  0  0  0  0  0  0  0  0
    6.7273  -17.1577   23.7996 N   0  0  0  0  0  0  0  0  0  0  0  0
    7.7119  -18.0060   25.8439 C   0  0  0  0  0  0  0  0  0  0  0  0
    7.1546  -19.0716   25.5353 O   0  0  0  0  0  0  0  0  0  0  0  0
    8.5993  -17.9976   26.9378 N   0  0  0  0  0  0  0  0  0  0  0  0
    9.3277  -19.1767   27.4120 C   0  0  1  0  0  0  0  0  0  0  0  0
   10.0831  -19.8323   26.3041 C   0  0  0  0  0  0  0  0  0  0  0  0
   10.9035  -20.9416   26.7901 C   0  0  0  0  0  0  0  0  0  0  0  0
   10.4367  -21.7390   27.6347 O   0  0  0  0  0  0  0  0  0  0  0  0
   10.2164  -18.7750   28.5481 C   0  0  0  0  0  0  0  0  0  0  0  0
   10.3468  -19.6719   29.6041 O   0  0  0  0  0  0  0  0  0  0  0  0
   12.1864  -21.1298   26.3399 O   0  0  0  0  0  0  0  0  0  0  0  0
   10.8491  -17.7075   28.6305 O   0  0  0  0  0  0  0  0  0  0  0  0
  2  1  1  0
  3  5  1  0
  3  2  1  0
  3  4  1  6
  5  6  2  0
  8  7  1  1
  9  8  1  0
  9  5  1  0
 10 11  2  0
 10  8  1  0
 12 10  1  0
 13 12  1  0
 13 17  1  0
 13 14  1  6
 15 16  2  0
 15 14  1  0
 17 18  1  0
 19 15  1  0
 20 17  2  0
M  END
$$$$
