RMS.pdb
     RDKit          3D

 26 25  0  0  1  0  0  0  0  0999 V2000
    8.7265  -13.6882   16.4480 N   0  0  0  0  0  0  0  0  0  0  0  0
    7.8243  -13.0319   17.3338 C   0  0  0  0  0  0  0  0  0  0  0  0
    6.6470  -12.6543   16.9684 N   0  0  0  0  0  0  0  0  0  0  0  0
    8.1897  -12.7565   18.6948 N   0  0  0  0  0  0  0  0  0  0  0  0
    9.4960  -13.1514   19.1579 C   0  0  0  0  0  0  0  0  0  0  0  0
    9.5009  -14.5960   19.5786 C   0  0  0  0  0  0  0  0  0  0  0  0
    9.9933  -14.7487   20.9953 C   0  0  0  0  0  0  0  0  0  0  0  0
    9.4895  -16.0061   21.6448 C   0  0  2  0  0  0  0  0  0  0  0  0
    8.2285  -16.4467   21.1358 N   0  0  0  0  0  0  0  0  0  0  0  0
    9.5009  -15.8467   23.1296 C   0  0  0  0  0  0  0  0  0  0  0  0
   10.6048  -15.5059   23.6154 O   0  0  0  0  0  0  0  0  0  0  0  0
    5.9734  -12.2192   17.6066 C   0  0  0  0  0  0  0  0  0  0  0  0
    7.1763  -11.1553   25.6972 S   0  0  0  0  0  0  0  0  0  0  0  0
    7.4372  -12.8367   26.2970 C   0  0  0  0  0  0  0  0  0  0  0  0
    6.5182  -13.9903   25.1994 C   0  0  0  0  0  0  0  0  0  0  0  0
    6.8135  -15.3592   25.6878 C   0  0  2  0  0  0  0  0  0  0  0  0
    8.1608  -15.9149   25.2803 N   0  0  0  0  0  0  0  0  0  0  0  0
    8.3359  -16.0747   23.8683 C   0  0  0  0  0  0  0  0  0  0  0  0
    8.4515  -17.1039   26.0694 O   0  0  0  0  0  0  0  0  0  0  0  0
    7.5372  -17.9286   26.3267 O   0  0  0  0  0  0  0  0  0  0  0  0
   11.3896  -20.6547   27.0232 C   0  0  0  0  0  0  0  0  0  0  0  0
   11.1523  -19.4275   26.4513 C   0  0  2  0  0  0  0  0  0  0  0  0
   10.0373  -18.7143   27.1798 N   0  0  0  0  0  0  0  0  0  0  0  0
    9.7403  -17.4256   26.5976 C   0  0  0  0  0  0  0  0  0  0  0  0
   10.4739  -18.5345   28.5804 O   0  0  0  0  0  0  0  0  0  0  0  0
   10.7057  -19.6486   29.3581 O   0  0  0  0  0  0  0  0  0  0  0  0
  2  3  2  0
  2  1  1  0
  4  2  1  0
  5  4  1  0
  6  5  1  0
  7  6  1  0
  7  8  1  0
  8  9  1  6
 10  8  1  0
 10 17  1  0
 11 10  2  0
 12 13  1  0
 14 13  1  0
 14 15  1  0
 16 15  1  6
 16 17  1  0
 18 16  1  0
 19 18  2  0
 20 21  1  0
 22 21  1  6
 22 24  1  0
 22 23  1  0
 23 18  1  0
 24 25  1  0
 26 24  2  0
M  END
$$$$
