RMS.pdb
     RDKit          3D

 26 25  0  0  1  0  0  0  0  0999 V2000
    9.9745  -13.8097   16.0444 N   0  0  0  0  0  0  0  0  0  0  0  0
    8.6354  -13.8806   15.5635 C   0  0  0  0  0  0  0  0  0  0  0  0
    8.3526  -14.2037   14.3477 N   0  0  0  0  0  0  0  0  0  0  0  0
    7.5224  -13.5915   16.4230 N   0  0  0  0  0  0  0  0  0  0  0  0
    7.7714  -13.3198   17.8163 C   0  0  0  0  0  0  0  0  0  0  0  0
    7.6850  -14.5813   18.6316 C   0  0  0  0  0  0  0  0  0  0  0  0
    7.8509  -14.2918   20.1017 C   0  0  0  0  0  0  0  0  0  0  0  0
    7.8020  -15.5373   20.9403 C   0  0  2  0  0  0  0  0  0  0  0  0
    6.4848  -16.0699   21.0966 N   0  0  0  0  0  0  0  0  0  0  0  0
    8.4975  -15.2982   22.2400 C   0  0  0  0  0  0  0  0  0  0  0  0
    9.6974  -14.9503   22.1405 O   0  0  0  0  0  0  0  0  0  0  0  0
    7.3974  -14.3804   14.0213 C   0  0  0  0  0  0  0  0  0  0  0  0
    7.4703  -11.2976   27.2395 S   0  0  0  0  0  0  0  0  0  0  0  0
    6.1091  -12.2540   26.5412 C   0  0  0  0  0  0  0  0  0  0  0  0
    6.7508  -13.2095   25.1076 C   0  0  0  0  0  0  0  0  0  0  0  0
    7.3025  -14.4716   25.6574 C   0  0  2  0  0  0  0  0  0  0  0  0
    8.2914  -15.1888   24.7643 N   0  0  0  0  0  0  0  0  0  0  0  0
    7.8089  -15.4664   23.4451 C   0  0  0  0  0  0  0  0  0  0  0  0
    8.8328  -16.3414   25.4709 O   0  0  0  0  0  0  0  0  0  0  0  0
    8.0862  -17.3121   25.7584 O   0  0  0  0  0  0  0  0  0  0  0  0
   12.5672  -19.1443   26.6125 C   0  0  0  0  0  0  0  0  0  0  0  0
   12.1437  -17.9465   26.0878 C   0  0  2  0  0  0  0  0  0  0  0  0
   10.7124  -17.6738   26.4872 N   0  0  0  0  0  0  0  0  0  0  0  0
   10.1961  -16.4676   25.8819 C   0  0  0  0  0  0  0  0  0  0  0  0
   10.6866  -17.5377   27.9588 O   0  0  0  0  0  0  0  0  0  0  0  0
   11.0694  -18.6087   28.7374 O   0  0  0  0  0  0  0  0  0  0  0  0
  2  3  2  0
  2  1  1  0
  4  2  1  0
  5  4  1  0
  6  5  1  0
  7  6  1  0
  7  8  1  0
  8  9  1  1
 10  8  1  0
 10 17  1  0
 11 10  2  0
 12 13  1  0
 14 13  1  0
 14 15  1  0
 16 15  1  6
 16 17  1  0
 18 16  1  0
 19 18  2  0
 20 21  1  0
 22 21  1  6
 22 24  1  0
 22 23  1  0
 23 18  1  0
 24 25  1  0
 26 24  2  0
M  END
$$$$
