RMS.pdb
     RDKit          3D

 26 25  0  0  1  0  0  0  0  0999 V2000
    9.3092  -15.0581   14.9300 N   0  0  0  0  0  0  0  0  0  0  0  0
    8.4281  -13.9413   15.0069 C   0  0  0  0  0  0  0  0  0  0  0  0
    8.1921  -13.1749   13.9973 N   0  0  0  0  0  0  0  0  0  0  0  0
    7.7519  -13.6129   16.2301 N   0  0  0  0  0  0  0  0  0  0  0  0
    7.9655  -14.4439   17.3879 C   0  0  0  0  0  0  0  0  0  0  0  0
    7.2498  -13.8850   18.5876 C   0  0  0  0  0  0  0  0  0  0  0  0
    8.1819  -13.7538   19.7652 C   0  0  0  0  0  0  0  0  0  0  0  0
    8.3206  -15.0381   20.5321 C   0  0  2  0  0  0  0  0  0  0  0  0
    7.1252  -15.8214   20.5566 N   0  0  0  0  0  0  0  0  0  0  0  0
    8.8671  -14.7567   21.8932 C   0  0  0  0  0  0  0  0  0  0  0  0
   10.0067  -14.2353   21.9070 O   0  0  0  0  0  0  0  0  0  0  0  0
    7.5384  -12.3864   14.0315 C   0  0  0  0  0  0  0  0  0  0  0  0
    6.5952  -11.2216   26.1402 S   0  0  0  0  0  0  0  0  0  0  0  0
    6.7671  -12.5866   27.3074 C   0  0  0  0  0  0  0  0  0  0  0  0
    7.9685  -13.7924   26.6127 C   0  0  0  0  0  0  0  0  0  0  0  0
    7.5614  -14.0277   25.2061 C   0  0  2  0  0  0  0  0  0  0  0  0
    8.4999  -14.8967   24.3975 N   0  0  0  0  0  0  0  0  0  0  0  0
    8.1165  -15.0736   23.0294 C   0  0  0  0  0  0  0  0  0  0  0  0
    8.7593  -16.1325   25.1230 O   0  0  0  0  0  0  0  0  0  0  0  0
    7.8238  -16.9455   25.3378 O   0  0  0  0  0  0  0  0  0  0  0  0
   12.5450  -17.7112   25.5793 C   0  0  0  0  0  0  0  0  0  0  0  0
   11.4414  -18.5291   25.6269 C   0  0  1  0  0  0  0  0  0  0  0  0
   10.2729  -17.8007   26.2488 N   0  0  0  0  0  0  0  0  0  0  0  0
   10.0392  -16.5150   25.6321 C   0  0  0  0  0  0  0  0  0  0  0  0
   10.5866  -17.6116   27.6808 O   0  0  0  0  0  0  0  0  0  0  0  0
   10.8265  -18.7188   28.4658 O   0  0  0  0  0  0  0  0  0  0  0  0
  2  3  2  0
  2  1  1  0
  4  2  1  0
  5  4  1  0
  6  5  1  0
  7  6  1  0
  7  8  1  0
  8  9  1  1
 10  8  1  0
 10 17  1  0
 11 10  2  0
 12 13  1  0
 14 13  1  0
 14 15  1  0
 16 15  1  6
 16 17  1  0
 18 16  1  0
 19 18  2  0
 20 21  1  0
 22 21  1  6
 22 24  1  0
 22 23  1  0
 23 18  1  0
 24 25  1  0
 26 24  2  0
M  END
$$$$
