RMS.pdb
     RDKit          3D

 26 25  0  0  1  0  0  0  0  0999 V2000
    9.9361  -15.1223   16.3129 N   0  0  0  0  0  0  0  0  0  0  0  0
    8.8616  -14.3509   15.7839 C   0  0  0  0  0  0  0  0  0  0  0  0
    8.4696  -14.4574   14.5602 N   0  0  0  0  0  0  0  0  0  0  0  0
    8.1549  -13.4052   16.6010 N   0  0  0  0  0  0  0  0  0  0  0  0
    8.6203  -13.1606   17.9429 C   0  0  0  0  0  0  0  0  0  0  0  0
    7.5917  -13.5910   18.9531 C   0  0  0  0  0  0  0  0  0  0  0  0
    8.1233  -13.4660   20.3583 C   0  0  0  0  0  0  0  0  0  0  0  0
    8.3635  -14.8024   21.0011 C   0  0  2  0  0  0  0  0  0  0  0  0
    7.2623  -15.7047   20.8727 N   0  0  0  0  0  0  0  0  0  0  0  0
    8.8045  -14.6104   22.4149 C   0  0  0  0  0  0  0  0  0  0  0  0
    9.8766  -13.9760   22.5520 O   0  0  0  0  0  0  0  0  0  0  0  0
    7.6852  -13.9234   14.1733 C   0  0  0  0  0  0  0  0  0  0  0  0
    7.0987  -11.8890   28.1256 S   0  0  0  0  0  0  0  0  0  0  0  0
    5.9877  -12.5581   26.8715 C   0  0  0  0  0  0  0  0  0  0  0  0
    7.0036  -13.1603   25.4624 C   0  0  0  0  0  0  0  0  0  0  0  0
    7.3878  -14.5553   25.7879 C   0  0  2  0  0  0  0  0  0  0  0  0
    8.3945  -15.1848   24.8497 N   0  0  0  0  0  0  0  0  0  0  0  0
    8.0365  -15.1231   23.4648 C   0  0  0  0  0  0  0  0  0  0  0  0
    8.7382  -16.5152   25.3322 O   0  0  0  0  0  0  0  0  0  0  0  0
    7.8680  -17.4234   25.3503 O   0  0  0  0  0  0  0  0  0  0  0  0
   12.6312  -17.7726   25.7773 C   0  0  0  0  0  0  0  0  0  0  0  0
   11.6533  -18.7249   25.6155 C   0  0  1  0  0  0  0  0  0  0  0  0
   10.3479  -18.2439   26.2048 N   0  0  0  0  0  0  0  0  0  0  0  0
   10.0334  -16.8912   25.8061 C   0  0  0  0  0  0  0  0  0  0  0  0
   10.4818  -18.3068   27.6755 O   0  0  0  0  0  0  0  0  0  0  0  0
   10.7801  -19.5139   28.2700 O   0  0  0  0  0  0  0  0  0  0  0  0
  2  3  2  0
  2  1  1  0
  4  2  1  0
  5  4  1  0
  6  5  1  0
  7  6  1  0
  7  8  1  0
  8  9  1  1
 10  8  1  0
 10 17  1  0
 11 10  2  0
 12 13  1  0
 14 13  1  0
 14 15  1  0
 16 15  1  6
 16 17  1  0
 18 16  1  0
 19 18  2  0
 20 21  1  0
 22 21  1  6
 22 24  1  0
 22 23  1  0
 23 18  1  0
 24 25  1  0
 26 24  2  0
M  END
$$$$
