RMS.pdb
     RDKit          3D

 26 25  0  0  1  0  0  0  0  0999 V2000
    6.6286  -13.4417   17.7360 N   0  0  0  0  0  0  0  0  0  0  0  0
    7.0461  -13.4466   19.0980 C   0  0  0  0  0  0  0  0  0  0  0  0
    7.4051  -12.3734   19.7160 N   0  0  0  0  0  0  0  0  0  0  0  0
    7.0867  -14.6647   19.8569 N   0  0  0  0  0  0  0  0  0  0  0  0
    7.8953  -15.7568   19.3769 C   0  0  0  0  0  0  0  0  0  0  0  0
    8.8124  -16.2598   20.4585 C   0  0  0  0  0  0  0  0  0  0  0  0
    9.9917  -15.3391   20.6439 C   0  0  0  0  0  0  0  0  0  0  0  0
   10.9586  -15.8469   21.6755 C   0  0  2  0  0  0  0  0  0  0  0  0
   11.7036  -16.9892   21.2474 N   0  0  0  0  0  0  0  0  0  0  0  0
   10.2478  -16.0603   22.9714 C   0  0  0  0  0  0  0  0  0  0  0  0
   10.3081  -17.2289   23.4203 O   0  0  0  0  0  0  0  0  0  0  0  0
    7.7446  -12.3691   20.6829 C   0  0  0  0  0  0  0  0  0  0  0  0
    6.2106  -11.4039   25.7459 S   0  0  0  0  0  0  0  0  0  0  0  0
    7.1947  -12.3354   26.9371 C   0  0  0  0  0  0  0  0  0  0  0  0
    7.2022  -14.1010   26.4245 C   0  0  0  0  0  0  0  0  0  0  0  0
    7.7818  -14.1394   25.0599 C   0  0  1  0  0  0  0  0  0  0  0  0
    9.0392  -14.9687   24.9140 N   0  0  0  0  0  0  0  0  0  0  0  0
    9.5826  -14.9973   23.5897 C   0  0  0  0  0  0  0  0  0  0  0  0
    8.8264  -16.2783   25.5145 O   0  0  0  0  0  0  0  0  0  0  0  0
    7.7980  -16.9435   25.2278 O   0  0  0  0  0  0  0  0  0  0  0  0
   11.6602  -18.8513   26.2952 C   0  0  0  0  0  0  0  0  0  0  0  0
   10.3508  -19.2671   26.3385 C   0  0  1  0  0  0  0  0  0  0  0  0
    9.4849  -18.2122   26.9867 N   0  0  0  0  0  0  0  0  0  0  0  0
    9.7240  -16.8965   26.4395 C   0  0  0  0  0  0  0  0  0  0  0  0
    9.8021  -18.2117   28.4304 O   0  0  0  0  0  0  0  0  0  0  0  0
    9.6275  -19.3711   29.1550 O   0  0  0  0  0  0  0  0  0  0  0  0
  2  3  2  0
  2  1  1  0
  4  2  1  0
  5  4  1  0
  6  5  1  0
  7  6  1  0
  7  8  1  0
  8  9  1  6
 10  8  1  0
 10 17  1  0
 11 10  2  0
 12 13  1  0
 14 13  1  0
 14 15  1  0
 16 15  1  1
 16 17  1  0
 18 16  1  0
 19 18  2  0
 20 21  1  0
 22 21  1  6
 22 24  1  0
 22 23  1  0
 23 18  1  0
 24 25  1  0
 26 24  2  0
M  END
$$$$
