RMS.pdb
     RDKit          3D

 26 25  0  0  1  0  0  0  0  0999 V2000
    7.1767  -14.0744   19.4562 N   0  0  0  0  0  0  0  0  0  0  0  0
    8.0216  -13.0946   18.8599 C   0  0  0  0  0  0  0  0  0  0  0  0
    7.5594  -12.0226   18.3124 N   0  0  0  0  0  0  0  0  0  0  0  0
    9.4479  -13.2576   18.8409 N   0  0  0  0  0  0  0  0  0  0  0  0
   10.0027  -14.5613   19.1044 C   0  0  0  0  0  0  0  0  0  0  0  0
    9.9195  -14.8924   20.5697 C   0  0  0  0  0  0  0  0  0  0  0  0
   10.3709  -16.3062   20.8349 C   0  0  0  0  0  0  0  0  0  0  0  0
    9.4467  -17.0378   21.7662 C   0  0  2  0  0  0  0  0  0  0  0  0
    8.1129  -17.1617   21.2673 N   0  0  0  0  0  0  0  0  0  0  0  0
    9.5110  -16.4241   23.1262 C   0  0  0  0  0  0  0  0  0  0  0  0
   10.6680  -16.2789   23.5856 O   0  0  0  0  0  0  0  0  0  0  0  0
    8.1565  -11.3095   17.8822 C   0  0  0  0  0  0  0  0  0  0  0  0
    7.3048  -11.0803   26.4324 S   0  0  0  0  0  0  0  0  0  0  0  0
    6.0904  -12.4050   26.5914 C   0  0  0  0  0  0  0  0  0  0  0  0
    6.9912  -14.0042   26.6978 C   0  0  0  0  0  0  0  0  0  0  0  0
    7.1921  -14.4664   25.3029 C   0  0  1  0  0  0  0  0  0  0  0  0
    8.2096  -15.5727   25.1281 N   0  0  0  0  0  0  0  0  0  0  0  0
    8.3343  -16.0598   23.7875 C   0  0  0  0  0  0  0  0  0  0  0  0
    7.9809  -16.6023   26.1324 O   0  0  0  0  0  0  0  0  0  0  0  0
    6.8720  -17.1936   26.1876 O   0  0  0  0  0  0  0  0  0  0  0  0
    9.4336  -20.6269   26.9151 C   0  0  0  0  0  0  0  0  0  0  0  0
    9.2547  -19.3546   26.4268 C   0  0  1  0  0  0  0  0  0  0  0  0
    9.0475  -18.3796   27.5623 N   0  0  0  0  0  0  0  0  0  0  0  0
    8.9495  -17.0143   27.0996 C   0  0  0  0  0  0  0  0  0  0  0  0
   10.2067  -18.5114   28.4698 O   0  0  0  0  0  0  0  0  0  0  0  0
   10.3099  -19.6315   29.2664 O   0  0  0  0  0  0  0  0  0  0  0  0
  2  3  2  0
  2  1  1  0
  4  2  1  0
  5  4  1  0
  6  5  1  0
  7  6  1  0
  7  8  1  0
  8  9  1  6
 10  8  1  0
 10 17  1  0
 11 10  2  0
 12 13  1  0
 14 13  1  0
 14 15  1  0
 16 15  1  6
 16 17  1  0
 18 16  1  0
 19 18  2  0
 20 21  1  0
 22 21  1  6
 22 24  1  0
 22 23  1  0
 23 18  1  0
 24 25  1  0
 26 24  2  0
M  END
$$$$
