IDH.pdb
     RDKit          3D

 27 27  0  0  1  0  0  0  0  0999 V2000
    8.9661  -12.7416   27.7328 C   0  0  0  0  0  0  0  0  0  0  0  0
    8.0501  -13.8431   27.2982 C   0  0  0  0  0  0  0  0  0  0  0  0
    7.6584  -13.6082   25.8596 C   0  0  2  0  0  0  0  0  0  0  0  0
    6.9173  -12.2933   25.7632 C   0  0  0  0  0  0  0  0  0  0  0  0
    6.8670  -14.7487   25.2767 C   0  0  2  0  0  0  0  0  0  0  0  0
    5.7290  -15.0368   26.1257 N   0  0  0  0  0  0  0  0  0  0  0  0
    7.6675  -15.9540   24.9956 C   0  0  0  0  0  0  0  0  0  0  0  0
    7.5926  -17.0242   25.6131 O   0  0  0  0  0  0  0  0  0  0  0  0
    8.6072  -15.8791   23.9212 N   0  0  0  0  0  0  0  0  0  0  0  0
    9.2918  -17.0818   23.4974 C   0  0  1  0  0  0  0  0  0  0  0  0
    9.7569  -16.9357   22.0590 C   0  0  0  0  0  0  0  0  0  0  0  0
    8.6441  -16.9876   21.0872 C   0  0  0  0  0  0  0  0  0  0  0  0
    7.5281  -17.5112   21.2772 O   0  0  0  0  0  0  0  0  0  0  0  0
   10.4326  -17.4103   24.3931 C   0  0  0  0  0  0  0  0  0  0  0  0
   11.0386  -18.4923   24.1874 O   0  0  0  0  0  0  0  0  0  0  0  0
    8.8682  -16.3974   19.8513 O   0  0  0  0  0  0  0  0  0  0  0  0
   10.8698  -16.5862   25.4499 N   0  0  0  0  0  0  0  0  0  0  0  0
   11.9746  -16.9714   26.3428 C   0  0  1  0  0  0  0  0  0  0  0  0
   13.0396  -15.9311   26.3663 C   0  0  0  0  0  0  0  0  0  0  0  0
   13.7588  -15.9125   25.0743 C   0  0  0  0  0  0  0  0  0  0  0  0
   13.6473  -16.8963   24.0862 C   0  0  0  0  0  0  0  0  0  0  0  0
   14.4323  -16.5712   23.0466 N   0  0  0  0  0  0  0  0  0  0  0  0
   15.0403  -15.4140   23.3381 C   0  0  0  0  0  0  0  0  0  0  0  0
   14.6311  -15.0242   24.5577 N   0  0  0  0  0  0  0  0  0  0  0  0
   11.4335  -17.1839   27.7118 C   0  0  0  0  0  0  0  0  0  0  0  0
   10.8641  -16.3149   28.3874 O   0  0  0  0  0  0  0  0  0  0  0  0
   11.5578  -18.4503   28.3182 O   0  0  0  0  0  0  0  0  0  0  0  0
  2  1  1  0
  3  2  1  0
  3  4  1  1
  5  7  1  0
  5  3  1  0
  5  6  1  1
  7  8  2  0
  9 10  1  0
  9  7  1  0
 10 11  1  6
 12 11  1  0
 13 12  2  0
 14 10  1  0
 14 15  2  0
 16 12  1  0
 17 14  1  0
 18 17  1  0
 18 25  1  0
 18 19  1  1
 20 19  1  0
 21 20  2  0
 22 23  1  0
 22 21  1  0
 23 24  2  0
 24 20  1  0
 25 27  1  0
 26 25  2  0
M  END
$$$$
