IDH.pdb
     RDKit          3D

 27 27  0  0  1  0  0  0  0  0999 V2000
    7.8661  -11.6688   19.3251 C   0  0  0  0  0  0  0  0  0  0  0  0
    8.3152  -13.0442   18.9403 C   0  0  0  0  0  0  0  0  0  0  0  0
    8.2999  -13.9203   20.1693 C   0  0  2  0  0  0  0  0  0  0  0  0
    9.2219  -13.3215   21.2080 C   0  0  0  0  0  0  0  0  0  0  0  0
    8.6424  -15.3550   19.8673 C   0  0  2  0  0  0  0  0  0  0  0  0
    7.7942  -15.8446   18.7997 N   0  0  0  0  0  0  0  0  0  0  0  0
    8.6160  -16.2400   21.0457 C   0  0  0  0  0  0  0  0  0  0  0  0
    7.8206  -17.1714   21.2249 O   0  0  0  0  0  0  0  0  0  0  0  0
    9.5898  -16.0017   22.0645 N   0  0  0  0  0  0  0  0  0  0  0  0
    9.7100  -16.9409   23.1593 C   0  0  1  0  0  0  0  0  0  0  0  0
    9.9545  -18.3394   22.6199 C   0  0  0  0  0  0  0  0  0  0  0  0
   10.1506  -19.3414   23.6891 C   0  0  0  0  0  0  0  0  0  0  0  0
    9.5197  -19.4008   24.7634 O   0  0  0  0  0  0  0  0  0  0  0  0
   10.7827  -16.5437   24.1096 C   0  0  0  0  0  0  0  0  0  0  0  0
   11.6643  -17.3983   24.3793 O   0  0  0  0  0  0  0  0  0  0  0  0
   11.1285  -20.3018   23.4712 O   0  0  0  0  0  0  0  0  0  0  0  0
   10.8675  -15.2759   24.7201 N   0  0  0  0  0  0  0  0  0  0  0  0
    9.8647  -14.7989   25.6860 C   0  0  1  0  0  0  0  0  0  0  0  0
    8.4886  -14.8820   25.1235 C   0  0  0  0  0  0  0  0  0  0  0  0
    7.5735  -14.0102   25.8912 C   0  0  0  0  0  0  0  0  0  0  0  0
    7.9591  -13.1972   26.9622 C   0  0  0  0  0  0  0  0  0  0  0  0
    6.8850  -12.5414   27.4299 N   0  0  0  0  0  0  0  0  0  0  0  0
    5.8280  -12.9085   26.6938 C   0  0  0  0  0  0  0  0  0  0  0  0
    6.2489  -13.7910   25.7715 N   0  0  0  0  0  0  0  0  0  0  0  0
    9.9639  -15.6168   26.9243 C   0  0  0  0  0  0  0  0  0  0  0  0
   10.2457  -15.1683   28.0447 O   0  0  0  0  0  0  0  0  0  0  0  0
    9.7278  -17.0050   26.8598 O   0  0  0  0  0  0  0  0  0  0  0  0
  2  1  1  0
  3  2  1  0
  3  4  1  1
  5  7  1  0
  5  3  1  0
  5  6  1  6
  7  8  2  0
  9 10  1  0
  9  7  1  0
 10 11  1  6
 12 11  1  0
 13 12  2  0
 14 10  1  0
 14 15  2  0
 16 12  1  0
 17 14  1  0
 18 17  1  0
 18 25  1  0
 18 19  1  6
 20 19  1  0
 21 20  2  0
 22 23  1  0
 22 21  1  0
 23 24  2  0
 24 20  1  0
 25 27  1  0
 26 25  2  0
M  END
$$$$
