IDH.pdb
     RDKit          3D

 27 27  0  0  1  0  0  0  0  0999 V2000
    7.1416  -11.5892   20.2752 C   0  0  0  0  0  0  0  0  0  0  0  0
    7.4231  -12.9470   19.7108 C   0  0  0  0  0  0  0  0  0  0  0  0
    7.8169  -13.8686   20.8394 C   0  0  2  0  0  0  0  0  0  0  0  0
    9.0495  -13.3126   21.5170 C   0  0  0  0  0  0  0  0  0  0  0  0
    8.0113  -15.2922   20.3894 C   0  0  2  0  0  0  0  0  0  0  0  0
    6.8412  -15.7372   19.6602 N   0  0  0  0  0  0  0  0  0  0  0  0
    8.3741  -16.2213   21.4745 C   0  0  0  0  0  0  0  0  0  0  0  0
    7.6005  -17.0123   22.0295 O   0  0  0  0  0  0  0  0  0  0  0  0
    9.7317  -16.2064   21.9216 N   0  0  0  0  0  0  0  0  0  0  0  0
   10.2446  -17.3419   22.6581 C   0  0  1  0  0  0  0  0  0  0  0  0
   11.6303  -17.7056   22.1540 C   0  0  0  0  0  0  0  0  0  0  0  0
   12.1995  -18.8856   22.8388 C   0  0  0  0  0  0  0  0  0  0  0  0
   11.5891  -19.9371   23.1179 O   0  0  0  0  0  0  0  0  0  0  0  0
   10.2634  -17.0848   24.1227 C   0  0  0  0  0  0  0  0  0  0  0  0
   10.5913  -18.0374   24.8747 O   0  0  0  0  0  0  0  0  0  0  0  0
   13.5368  -18.8104   23.2021 O   0  0  0  0  0  0  0  0  0  0  0  0
    9.9379  -15.8460   24.7115 N   0  0  0  0  0  0  0  0  0  0  0  0
    9.6076  -15.7162   26.1399 C   0  0  1  0  0  0  0  0  0  0  0  0
    8.1370  -15.6122   26.3483 C   0  0  0  0  0  0  0  0  0  0  0  0
    7.6735  -14.2470   26.0187 C   0  0  0  0  0  0  0  0  0  0  0  0
    7.6983  -13.6847   24.7382 C   0  0  0  0  0  0  0  0  0  0  0  0
    7.2079  -12.4361   24.7929 N   0  0  0  0  0  0  0  0  0  0  0  0
    6.8713  -12.1833   26.0643 C   0  0  0  0  0  0  0  0  0  0  0  0
    7.1538  -13.2755   26.7951 N   0  0  0  0  0  0  0  0  0  0  0  0
   10.1474  -16.8964   26.8665 C   0  0  0  0  0  0  0  0  0  0  0  0
   11.0584  -16.8515   27.7055 O   0  0  0  0  0  0  0  0  0  0  0  0
    9.6106  -18.1743   26.6101 O   0  0  0  0  0  0  0  0  0  0  0  0
  2  1  1  0
  3  2  1  0
  3  4  1  6
  5  7  1  0
  5  3  1  0
  5  6  1  1
  7  8  2  0
  9 10  1  0
  9  7  1  0
 10 11  1  6
 12 11  1  0
 13 12  2  0
 14 10  1  0
 14 15  2  0
 16 12  1  0
 17 14  1  0
 18 17  1  0
 18 25  1  0
 18 19  1  6
 20 19  1  0
 21 20  2  0
 22 23  1  0
 22 21  1  0
 23 24  2  0
 24 20  1  0
 25 27  1  0
 26 25  2  0
M  END
$$$$
