IDH.pdb
     RDKit          3D

 27 27  0  0  1  0  0  0  0  0999 V2000
    6.6856  -12.4305   19.4112 C   0  0  0  0  0  0  0  0  0  0  0  0
    7.3870  -13.2328   18.3597 C   0  0  0  0  0  0  0  0  0  0  0  0
    8.7200  -13.6853   18.9045 C   0  0  2  0  0  0  0  0  0  0  0  0
    9.5297  -12.4672   19.2894 C   0  0  0  0  0  0  0  0  0  0  0  0
    9.4648  -14.5833   17.9528 C   0  0  2  0  0  0  0  0  0  0  0  0
    8.5612  -15.5791   17.4136 N   0  0  0  0  0  0  0  0  0  0  0  0
   10.6798  -15.1901   18.5255 C   0  0  0  0  0  0  0  0  0  0  0  0
   10.7210  -16.2563   19.1529 O   0  0  0  0  0  0  0  0  0  0  0  0
   11.9111  -14.4883   18.3401 N   0  0  0  0  0  0  0  0  0  0  0  0
   13.1343  -15.0589   18.8629 C   0  0  1  0  0  0  0  0  0  0  0  0
   14.3361  -14.4079   18.2007 C   0  0  0  0  0  0  0  0  0  0  0  0
   15.6229  -14.9539   18.6816 C   0  0  0  0  0  0  0  0  0  0  0  0
   15.9144  -16.1624   18.7847 O   0  0  0  0  0  0  0  0  0  0  0  0
   13.2113  -14.9338   20.3427 C   0  0  0  0  0  0  0  0  0  0  0  0
   12.3174  -14.2602   20.9151 O   0  0  0  0  0  0  0  0  0  0  0  0
   16.5920  -14.0317   19.0509 O   0  0  0  0  0  0  0  0  0  0  0  0
   14.2195  -15.5212   21.1337 N   0  0  0  0  0  0  0  0  0  0  0  0
   13.9450  -16.0914   22.4625 C   0  0  1  0  0  0  0  0  0  0  0  0
   12.9222  -17.1709   22.3878 C   0  0  0  0  0  0  0  0  0  0  0  0
   11.5879  -16.6294   22.7245 C   0  0  0  0  0  0  0  0  0  0  0  0
   11.3242  -15.2882   23.0215 C   0  0  0  0  0  0  0  0  0  0  0  0
   10.0152  -15.1408   23.2808 N   0  0  0  0  0  0  0  0  0  0  0  0
    9.4355  -16.3420   23.1593 C   0  0  0  0  0  0  0  0  0  0  0  0
   10.3862  -17.2315   22.8250 N   0  0  0  0  0  0  0  0  0  0  0  0
   15.2136  -16.6236   23.0277 C   0  0  0  0  0  0  0  0  0  0  0  0
   15.9469  -17.4469   22.4616 O   0  0  0  0  0  0  0  0  0  0  0  0
   15.6465  -16.1847   24.2954 O   0  0  0  0  0  0  0  0  0  0  0  0
  2  1  1  0
  3  2  1  0
  3  4  1  6
  5  7  1  0
  5  3  1  0
  5  6  1  1
  7  8  2  0
  9 10  1  0
  9  7  1  0
 10 11  1  6
 12 11  1  0
 13 12  2  0
 14 10  1  0
 14 15  2  0
 16 12  1  0
 17 14  1  0
 18 17  1  0
 18 25  1  0
 18 19  1  6
 20 19  1  0
 21 20  2  0
 22 23  1  0
 22 21  1  0
 23 24  2  0
 24 20  1  0
 25 27  1  0
 26 25  2  0
M  END
$$$$
