IDH.pdb
     RDKit          3D

 27 27  0  0  1  0  0  0  0  0999 V2000
    7.6352  -12.8245   25.9832 C   0  0  0  0  0  0  0  0  0  0  0  0
    7.3682  -14.1327   25.3060 C   0  0  0  0  0  0  0  0  0  0  0  0
    7.9593  -14.0892   23.9179 C   0  0  2  0  0  0  0  0  0  0  0  0
    7.2971  -12.9743   23.1393 C   0  0  0  0  0  0  0  0  0  0  0  0
    7.8681  -15.4112   23.2031 C   0  0  2  0  0  0  0  0  0  0  0  0
    6.4773  -15.7843   23.0434 N   0  0  0  0  0  0  0  0  0  0  0  0
    8.6621  -16.4864   23.8244 C   0  0  0  0  0  0  0  0  0  0  0  0
    8.2338  -17.3152   24.6378 O   0  0  0  0  0  0  0  0  0  0  0  0
   10.0401  -16.5780   23.4561 N   0  0  0  0  0  0  0  0  0  0  0  0
   10.8712  -17.5867   24.0779 C   0  0  1  0  0  0  0  0  0  0  0  0
   11.9465  -18.0446   23.1081 C   0  0  0  0  0  0  0  0  0  0  0  0
   12.2474  -17.0389   22.0671 C   0  0  0  0  0  0  0  0  0  0  0  0
   11.6921  -15.9296   21.9365 O   0  0  0  0  0  0  0  0  0  0  0  0
   11.4742  -17.0975   25.3463 C   0  0  0  0  0  0  0  0  0  0  0  0
   11.7072  -15.8658   25.4404 O   0  0  0  0  0  0  0  0  0  0  0  0
   13.2403  -17.3651   21.1541 O   0  0  0  0  0  0  0  0  0  0  0  0
   11.7966  -17.9273   26.4392 N   0  0  0  0  0  0  0  0  0  0  0  0
   11.4842  -17.5556   27.8286 C   0  0  1  0  0  0  0  0  0  0  0  0
   10.0663  -17.1228   27.9675 C   0  0  0  0  0  0  0  0  0  0  0  0
    9.9914  -15.6476   28.0408 C   0  0  0  0  0  0  0  0  0  0  0  0
   11.0953  -14.7903   27.9878 C   0  0  0  0  0  0  0  0  0  0  0  0
   10.6739  -13.5190   28.0812 N   0  0  0  0  0  0  0  0  0  0  0  0
    9.3393  -13.5366   28.1920 C   0  0  0  0  0  0  0  0  0  0  0  0
    8.9361  -14.8186   28.1670 N   0  0  0  0  0  0  0  0  0  0  0  0
   11.7538  -18.7229   28.7100 C   0  0  0  0  0  0  0  0  0  0  0  0
   11.2001  -19.8269   28.6068 O   0  0  0  0  0  0  0  0  0  0  0  0
   12.7000  -18.6046   29.7482 O   0  0  0  0  0  0  0  0  0  0  0  0
  2  1  1  0
  3  2  1  0
  3  4  1  6
  5  7  1  0
  5  3  1  0
  5  6  1  1
  7  8  2  0
  9 10  1  0
  9  7  1  0
 10 11  1  6
 12 11  1  0
 13 12  2  0
 14 10  1  0
 14 15  2  0
 16 12  1  0
 17 14  1  0
 18 17  1  0
 18 25  1  0
 18 19  1  6
 20 19  1  0
 21 20  2  0
 22 23  1  0
 22 21  1  0
 23 24  2  0
 24 20  1  0
 25 27  1  0
 26 25  2  0
M  END
$$$$
