IDH.pdb
     RDKit          3D

 27 27  0  0  1  0  0  0  0  0999 V2000
    8.0157  -11.5476   20.1034 C   0  0  0  0  0  0  0  0  0  0  0  0
    8.4920  -12.9560   20.2783 C   0  0  0  0  0  0  0  0  0  0  0  0
    9.3204  -13.3400   19.0764 C   0  0  2  0  0  0  0  0  0  0  0  0
    8.5051  -13.1028   17.8248 C   0  0  0  0  0  0  0  0  0  0  0  0
    9.8423  -14.7502   19.1538 C   0  0  2  0  0  0  0  0  0  0  0  0
    8.7363  -15.6837   19.0885 N   0  0  0  0  0  0  0  0  0  0  0  0
   10.7146  -15.0053   20.3142 C   0  0  0  0  0  0  0  0  0  0  0  0
   11.7222  -14.3506   20.6110 O   0  0  0  0  0  0  0  0  0  0  0  0
   10.3668  -16.0994   21.1658 N   0  0  0  0  0  0  0  0  0  0  0  0
   11.1666  -16.3585   22.3440 C   0  0  1  0  0  0  0  0  0  0  0  0
   10.6684  -17.6099   23.0455 C   0  0  0  0  0  0  0  0  0  0  0  0
   11.4309  -17.9229   24.2728 C   0  0  0  0  0  0  0  0  0  0  0  0
   11.8162  -17.0995   25.1269 O   0  0  0  0  0  0  0  0  0  0  0  0
   12.6118  -16.4754   22.0132 C   0  0  0  0  0  0  0  0  0  0  0  0
   12.9562  -17.4036   21.2385 O   0  0  0  0  0  0  0  0  0  0  0  0
   11.7437  -19.2575   24.4887 O   0  0  0  0  0  0  0  0  0  0  0  0
   13.6089  -15.6136   22.5135 N   0  0  0  0  0  0  0  0  0  0  0  0
   15.0326  -15.7800   22.1799 C   0  0  1  0  0  0  0  0  0  0  0  0
   15.5742  -14.5715   21.4993 C   0  0  0  0  0  0  0  0  0  0  0  0
   15.3732  -14.6796   20.0382 C   0  0  0  0  0  0  0  0  0  0  0  0
   14.8323  -15.7942   19.3887 C   0  0  0  0  0  0  0  0  0  0  0  0
   14.7915  -15.5605   18.0672 N   0  0  0  0  0  0  0  0  0  0  0  0
   15.2878  -14.3353   17.8521 C   0  0  0  0  0  0  0  0  0  0  0  0
   15.6352  -13.8120   19.0405 N   0  0  0  0  0  0  0  0  0  0  0  0
   15.7906  -16.0482   23.4311 C   0  0  0  0  0  0  0  0  0  0  0  0
   17.0220  -16.1722   23.4965 O   0  0  0  0  0  0  0  0  0  0  0  0
   15.0945  -16.1770   24.6501 O   0  0  0  0  0  0  0  0  0  0  0  0
  2  1  1  0
  3  2  1  0
  3  4  1  6
  5  7  1  0
  5  3  1  0
  5  6  1  1
  7  8  2  0
  9 10  1  0
  9  7  1  0
 10 11  1  6
 12 11  1  0
 13 12  2  0
 14 10  1  0
 14 15  2  0
 16 12  1  0
 17 14  1  0
 18 17  1  0
 18 25  1  0
 18 19  1  1
 20 19  1  0
 21 20  2  0
 22 23  1  0
 22 21  1  0
 23 24  2  0
 24 20  1  0
 25 27  1  0
 26 25  2  0
M  END
$$$$
