IDH.pdb
     RDKit          3D

 27 27  0  0  1  0  0  0  0  0999 V2000
    6.5774  -11.2746   26.2439 C   0  0  0  0  0  0  0  0  0  0  0  0
    6.0527  -12.5205   25.6004 C   0  0  0  0  0  0  0  0  0  0  0  0
    7.1454  -13.5618   25.5987 C   0  0  2  0  0  0  0  0  0  0  0  0
    8.3697  -12.9845   24.9239 C   0  0  0  0  0  0  0  0  0  0  0  0
    6.7125  -14.8606   24.9722 C   0  0  2  0  0  0  0  0  0  0  0  0
    5.4344  -15.2650   25.5215 N   0  0  0  0  0  0  0  0  0  0  0  0
    7.7180  -15.9348   25.0601 C   0  0  0  0  0  0  0  0  0  0  0  0
    7.9148  -16.6531   26.0488 O   0  0  0  0  0  0  0  0  0  0  0  0
    8.5319  -16.1647   23.9079 N   0  0  0  0  0  0  0  0  0  0  0  0
    9.5020  -17.2386   23.9319 C   0  0  1  0  0  0  0  0  0  0  0  0
   10.0594  -17.4668   22.5377 C   0  0  0  0  0  0  0  0  0  0  0  0
   10.1867  -16.2173   21.7581 C   0  0  0  0  0  0  0  0  0  0  0  0
    9.8102  -15.0848   22.1208 O   0  0  0  0  0  0  0  0  0  0  0  0
   10.5956  -16.9705   24.9033 C   0  0  0  0  0  0  0  0  0  0  0  0
   11.2500  -15.9066   24.7608 O   0  0  0  0  0  0  0  0  0  0  0  0
   10.7807  -16.3205   20.5082 O   0  0  0  0  0  0  0  0  0  0  0  0
   10.9381  -17.8323   25.9649 N   0  0  0  0  0  0  0  0  0  0  0  0
   12.1305  -17.6167   26.8003 C   0  0  1  0  0  0  0  0  0  0  0  0
   11.7646  -17.4516   28.2341 C   0  0  0  0  0  0  0  0  0  0  0  0
   11.1140  -16.1402   28.4435 C   0  0  0  0  0  0  0  0  0  0  0  0
   11.1002  -15.0994   27.5091 C   0  0  0  0  0  0  0  0  0  0  0  0
   10.4266  -14.0556   28.0183 N   0  0  0  0  0  0  0  0  0  0  0  0
   10.0105  -14.3953   29.2452 C   0  0  0  0  0  0  0  0  0  0  0  0
   10.4270  -15.6489   29.4940 N   0  0  0  0  0  0  0  0  0  0  0  0
   13.0486  -18.7749   26.6343 C   0  0  0  0  0  0  0  0  0  0  0  0
   12.8216  -19.7567   25.9128 O   0  0  0  0  0  0  0  0  0  0  0  0
   14.2741  -18.7944   27.3306 O   0  0  0  0  0  0  0  0  0  0  0  0
  2  1  1  0
  3  2  1  0
  3  4  1  6
  5  7  1  0
  5  3  1  0
  5  6  1  1
  7  8  2  0
  9 10  1  0
  9  7  1  0
 10 11  1  6
 12 11  1  0
 13 12  2  0
 14 10  1  0
 14 15  2  0
 16 12  1  0
 17 14  1  0
 18 17  1  0
 18 25  1  0
 18 19  1  1
 20 19  1  0
 21 20  2  0
 22 23  1  0
 22 21  1  0
 23 24  2  0
 24 20  1  0
 25 27  1  0
 26 25  2  0
M  END
$$$$
