HYQ.pdb
     RDKit          3D

 32 33  0  0  1  0  0  0  0  0999 V2000
   21.6181   -8.4895  -18.9439 N   0  0  0  0  0  0  0  0  0  0  0  0
   21.5847   -7.0509  -19.0019 C   0  0  1  0  0  0  0  0  0  0  0  0
   20.7973   -6.6448  -20.2262 C   0  0  0  0  0  0  0  0  0  0  0  0
   21.5244   -7.0817  -21.4455 C   0  0  0  0  0  0  0  0  0  0  0  0
   22.7707   -6.6220  -21.8303 C   0  0  0  0  0  0  0  0  0  0  0  0
   23.1539   -7.2096  -22.9769 N   0  0  0  0  0  0  0  0  0  0  0  0
   22.1413   -8.0370  -23.3045 C   0  0  0  0  0  0  0  0  0  0  0  0
   21.1598   -7.9653  -22.3895 N   0  0  0  0  0  0  0  0  0  0  0  0
   20.9599   -6.4753  -17.7575 C   0  0  0  0  0  0  0  0  0  0  0  0
   19.8194   -6.8196  -17.3855 O   0  0  0  0  0  0  0  0  0  0  0  0
   23.1343  -10.4454  -13.0600 O   0  0  0  0  0  0  0  0  0  0  0  0
   22.9398   -9.1154  -13.4571 C   0  0  0  0  0  0  0  0  0  0  0  0
   23.6535   -8.5791  -14.5044 C   0  0  0  0  0  0  0  0  0  0  0  0
   23.4922   -7.2561  -14.9353 C   0  0  0  0  0  0  0  0  0  0  0  0
   22.5907   -6.4524  -14.2977 C   0  0  0  0  0  0  0  0  0  0  0  0
   22.3134   -5.0507  -14.6548 C   0  0  0  0  0  0  0  0  0  0  0  0
   21.2606   -4.9186  -15.7687 C   0  0  2  0  0  0  0  0  0  0  0  0
   21.6612   -5.5246  -16.9804 N   0  0  0  0  0  0  0  0  0  0  0  0
   20.8202   -3.5271  -15.8480 C   0  0  0  0  0  0  0  0  0  0  0  0
   21.3951   -2.7153  -16.6482 O   0  0  0  0  0  0  0  0  0  0  0  0
   21.8709   -6.9910  -13.2422 C   0  0  0  0  0  0  0  0  0  0  0  0
   22.0277   -8.2889  -12.8175 C   0  0  0  0  0  0  0  0  0  0  0  0
   19.6149   -0.4244  -19.2396 N   0  0  0  0  0  0  0  0  0  0  0  0
   18.4131   -0.0145  -18.5920 C   0  0  0  0  0  0  0  0  0  0  0  0
   17.7910    0.9697  -19.0905 O   0  0  0  0  0  0  0  0  0  0  0  0
   17.8639   -0.6674  -17.4017 C   0  0  0  0  0  0  0  0  0  0  0  0
   18.6169   -1.8311  -16.8814 C   0  0  0  0  0  0  0  0  0  0  0  0
   19.0704   -1.7193  -15.4886 C   0  0  2  0  0  0  0  0  0  0  0  0
   19.7651   -2.9693  -15.0836 N   0  0  0  0  0  0  0  0  0  0  0  0
   18.1017   -1.3921  -14.4902 C   0  0  0  0  0  0  0  0  0  0  0  0
   17.9673   -0.2861  -13.9145 O   0  0  0  0  0  0  0  0  0  0  0  0
   17.1747   -2.3716  -14.0682 O   0  0  0  0  0  0  0  0  0  0  0  0
  2  1  1  1
  3  2  1  0
  3  4  1  0
  4  8  1  0
  4  5  2  0
  5  6  1  0
  7  6  1  0
  8  7  2  0
  9  2  1  0
 10  9  2  0
 12 11  1  0
 12 22  2  0
 13 12  1  0
 14 13  2  0
 14 15  1  0
 15 21  2  0
 16 15  1  0
 17 16  1  1
 17 18  1  0
 18  9  1  0
 19 17  1  0
 20 19  2  0
 21 22  1  0
 24 23  1  0
 25 24  2  0
 26 24  1  0
 28 27  1  6
 27 26  1  0
 28 29  1  0
 29 19  1  0
 30 32  1  0
 30 28  1  0
 31 30  2  0
M  END
$$$$
