HYQ.pdb
     RDKit          3D

 32 33  0  0  1  0  0  0  0  0999 V2000
   28.6055  -21.4729  -16.1360 N   0  0  0  0  0  0  0  0  0  0  0  0
   27.6894  -20.4539  -15.6927 C   0  0  1  0  0  0  0  0  0  0  0  0
   26.9487  -19.9260  -16.8997 C   0  0  0  0  0  0  0  0  0  0  0  0
   27.8964  -19.1890  -17.7743 C   0  0  0  0  0  0  0  0  0  0  0  0
   28.1905  -19.5262  -19.0829 C   0  0  0  0  0  0  0  0  0  0  0  0
   29.0832  -18.6646  -19.6001 N   0  0  0  0  0  0  0  0  0  0  0  0
   29.3439  -17.7896  -18.6083 C   0  0  0  0  0  0  0  0  0  0  0  0
   28.6349  -18.0984  -17.5094 N   0  0  0  0  0  0  0  0  0  0  0  0
   26.7209  -21.0036  -14.6779 C   0  0  0  0  0  0  0  0  0  0  0  0
   26.3251  -22.1859  -14.7330 O   0  0  0  0  0  0  0  0  0  0  0  0
   27.2833  -20.9743   -6.6494 O   0  0  0  0  0  0  0  0  0  0  0  0
   26.7367  -20.5690   -7.8746 C   0  0  0  0  0  0  0  0  0  0  0  0
   26.8932  -19.2783   -8.3258 C   0  0  0  0  0  0  0  0  0  0  0  0
   26.3647  -18.8294   -9.5428 C   0  0  0  0  0  0  0  0  0  0  0  0
   25.6617  -19.6998  -10.3261 C   0  0  0  0  0  0  0  0  0  0  0  0
   25.0647  -19.3642  -11.6300 C   0  0  0  0  0  0  0  0  0  0  0  0
   25.2471  -20.4814  -12.6718 C   0  0  2  0  0  0  0  0  0  0  0  0
   26.2376  -20.1818  -13.6337 N   0  0  0  0  0  0  0  0  0  0  0  0
   23.9364  -20.8761  -13.1843 C   0  0  0  0  0  0  0  0  0  0  0  0
   23.3248  -20.1349  -14.0249 O   0  0  0  0  0  0  0  0  0  0  0  0
   25.5029  -21.0005   -9.8730 C   0  0  0  0  0  0  0  0  0  0  0  0
   26.0204  -21.4432   -8.6790 C   0  0  0  0  0  0  0  0  0  0  0  0
   21.4098  -26.7784  -13.6759 N   0  0  0  0  0  0  0  0  0  0  0  0
   20.3947  -25.8616  -14.0768 C   0  0  0  0  0  0  0  0  0  0  0  0
   19.3000  -26.3494  -14.4862 O   0  0  0  0  0  0  0  0  0  0  0  0
   20.5467  -24.4057  -14.0334 C   0  0  0  0  0  0  0  0  0  0  0  0
   21.8385  -23.8924  -13.5239 C   0  0  0  0  0  0  0  0  0  0  0  0
   21.9392  -22.4310  -13.4141 C   0  0  2  0  0  0  0  0  0  0  0  0
   23.2491  -22.0602  -12.8177 N   0  0  0  0  0  0  0  0  0  0  0  0
   20.9059  -21.7366  -12.7125 C   0  0  0  0  0  0  0  0  0  0  0  0
   20.9213  -21.3971  -11.5053 O   0  0  0  0  0  0  0  0  0  0  0  0
   19.7239  -21.3684  -13.3939 O   0  0  0  0  0  0  0  0  0  0  0  0
  2  1  1  6
  3  2  1  0
  3  4  1  0
  4  8  1  0
  4  5  2  0
  5  6  1  0
  7  6  1  0
  8  7  2  0
  9  2  1  0
 10  9  2  0
 12 11  1  0
 12 22  2  0
 13 12  1  0
 14 13  2  0
 14 15  1  0
 15 21  2  0
 16 15  1  0
 17 16  1  1
 17 18  1  0
 18  9  1  0
 19 17  1  0
 20 19  2  0
 21 22  1  0
 24 23  1  0
 25 24  2  0
 26 24  1  0
 28 27  1  1
 27 26  1  0
 28 29  1  0
 29 19  1  0
 30 32  1  0
 30 28  1  0
 31 30  2  0
M  END
$$$$
