HYQ.pdb
     RDKit          3D

 32 33  0  0  1  0  0  0  0  0999 V2000
   23.9313  -11.5228  -20.6464 N   0  0  0  0  0  0  0  0  0  0  0  0
   23.9371  -10.1109  -20.3623 C   0  0  1  0  0  0  0  0  0  0  0  0
   23.5224   -9.3745  -21.6152 C   0  0  0  0  0  0  0  0  0  0  0  0
   24.5826   -9.5209  -22.6450 C   0  0  0  0  0  0  0  0  0  0  0  0
   25.9413   -9.4483  -22.3971 C   0  0  0  0  0  0  0  0  0  0  0  0
   26.6357   -9.6210  -23.5350 N   0  0  0  0  0  0  0  0  0  0  0  0
   25.7040   -9.8015  -24.4925 C   0  0  0  0  0  0  0  0  0  0  0  0
   24.4694   -9.7426  -23.9652 N   0  0  0  0  0  0  0  0  0  0  0  0
   23.0035   -9.7856  -19.2253 C   0  0  0  0  0  0  0  0  0  0  0  0
   21.9268  -10.3984  -19.0744 O   0  0  0  0  0  0  0  0  0  0  0  0
   19.8543   -7.2996  -11.4630 O   0  0  0  0  0  0  0  0  0  0  0  0
   20.6848   -7.6345  -12.5410 C   0  0  0  0  0  0  0  0  0  0  0  0
   20.6491   -8.8933  -13.0961 C   0  0  0  0  0  0  0  0  0  0  0  0
   21.4602   -9.2720  -14.1734 C   0  0  0  0  0  0  0  0  0  0  0  0
   22.3286   -8.3625  -14.7063 C   0  0  0  0  0  0  0  0  0  0  0  0
   23.2268   -8.6235  -15.8440 C   0  0  0  0  0  0  0  0  0  0  0  0
   22.5741   -8.3072  -17.2007 C   0  0  2  0  0  0  0  0  0  0  0  0
   23.3333   -8.7697  -18.2988 N   0  0  0  0  0  0  0  0  0  0  0  0
   22.1795   -6.9000  -17.2251 C   0  0  0  0  0  0  0  0  0  0  0  0
   23.0517   -5.9911  -17.4325 O   0  0  0  0  0  0  0  0  0  0  0  0
   22.3660   -7.0939  -14.1483 C   0  0  0  0  0  0  0  0  0  0  0  0
   21.5711   -6.7201  -13.0910 C   0  0  0  0  0  0  0  0  0  0  0  0
   16.2951   -5.4667  -18.0863 N   0  0  0  0  0  0  0  0  0  0  0  0
   16.7409   -4.5554  -17.0850 C   0  0  0  0  0  0  0  0  0  0  0  0
   15.8566   -4.0097  -16.3609 O   0  0  0  0  0  0  0  0  0  0  0  0
   18.1484   -4.2275  -16.8483 C   0  0  0  0  0  0  0  0  0  0  0  0
   19.1363   -4.8832  -17.7350 C   0  0  0  0  0  0  0  0  0  0  0  0
   20.4965   -4.9959  -17.1918 C   0  0  2  0  0  0  0  0  0  0  0  0
   20.8570   -6.4288  -17.0309 N   0  0  0  0  0  0  0  0  0  0  0  0
   20.7926   -4.3116  -15.9727 C   0  0  0  0  0  0  0  0  0  0  0  0
   21.3260   -3.1820  -15.8612 O   0  0  0  0  0  0  0  0  0  0  0  0
   20.4757   -4.9177  -14.7361 O   0  0  0  0  0  0  0  0  0  0  0  0
  2  1  1  6
  3  2  1  0
  3  4  1  0
  4  8  1  0
  4  5  2  0
  5  6  1  0
  7  6  1  0
  8  7  2  0
  9  2  1  0
 10  9  2  0
 12 11  1  0
 12 22  2  0
 13 12  1  0
 14 13  2  0
 14 15  1  0
 15 21  2  0
 16 15  1  0
 17 16  1  1
 17 18  1  0
 18  9  1  0
 19 17  1  0
 20 19  2  0
 21 22  1  0
 24 23  1  0
 25 24  2  0
 26 24  1  0
 28 27  1  1
 27 26  1  0
 28 29  1  0
 29 19  1  0
 30 32  1  0
 30 28  1  0
 31 30  2  0
M  END
$$$$
