HYQ.pdb
     RDKit          3D

 32 33  0  0  1  0  0  0  0  0999 V2000
   28.2028  -23.8146  -17.3996 N   0  0  0  0  0  0  0  0  0  0  0  0
   27.2632  -22.7232  -17.3955 C   0  0  1  0  0  0  0  0  0  0  0  0
   26.4124  -22.8267  -18.6403 C   0  0  0  0  0  0  0  0  0  0  0  0
   27.2388  -22.4956  -19.8293 C   0  0  0  0  0  0  0  0  0  0  0  0
   27.4614  -23.3438  -20.8987 C   0  0  0  0  0  0  0  0  0  0  0  0
   28.2499  -22.7508  -21.8116 N   0  0  0  0  0  0  0  0  0  0  0  0
   28.5173  -21.5298  -21.3064 C   0  0  0  0  0  0  0  0  0  0  0  0
   27.9135  -21.3699  -20.1167 N   0  0  0  0  0  0  0  0  0  0  0  0
   26.3996  -22.7595  -16.1614 C   0  0  0  0  0  0  0  0  0  0  0  0
   25.7689  -23.7877  -15.8411 O   0  0  0  0  0  0  0  0  0  0  0  0
   23.7547  -20.4897   -8.0285 O   0  0  0  0  0  0  0  0  0  0  0  0
   24.3236  -20.4634   -9.3090 C   0  0  0  0  0  0  0  0  0  0  0  0
   23.7306  -19.7583  -10.3313 C   0  0  0  0  0  0  0  0  0  0  0  0
   24.2633  -19.7040  -11.6257 C   0  0  0  0  0  0  0  0  0  0  0  0
   25.4209  -20.3750  -11.8991 C   0  0  0  0  0  0  0  0  0  0  0  0
   26.0940  -20.3922  -13.2090 C   0  0  0  0  0  0  0  0  0  0  0  0
   25.5253  -21.4640  -14.1548 C   0  0  2  0  0  0  0  0  0  0  0  0
   26.2866  -21.6177  -15.3350 N   0  0  0  0  0  0  0  0  0  0  0  0
   24.0914  -21.2381  -14.3266 C   0  0  0  0  0  0  0  0  0  0  0  0
   23.6740  -20.3410  -15.1333 O   0  0  0  0  0  0  0  0  0  0  0  0
   26.0196  -21.0860  -10.8703 C   0  0  0  0  0  0  0  0  0  0  0  0
   25.4987  -21.1409   -9.5995 C   0  0  0  0  0  0  0  0  0  0  0  0
   19.0748  -24.9823  -12.5005 N   0  0  0  0  0  0  0  0  0  0  0  0
   18.5424  -23.7310  -12.9279 C   0  0  0  0  0  0  0  0  0  0  0  0
   17.2859  -23.5836  -12.8687 O   0  0  0  0  0  0  0  0  0  0  0  0
   19.3614  -22.6202  -13.4178 C   0  0  0  0  0  0  0  0  0  0  0  0
   20.8291  -22.7963  -13.3345 C   0  0  0  0  0  0  0  0  0  0  0  0
   21.6303  -21.6972  -13.8894 C   0  0  2  0  0  0  0  0  0  0  0  0
   23.0740  -21.9558  -13.6493 N   0  0  0  0  0  0  0  0  0  0  0  0
   21.3292  -20.3657  -13.4669 C   0  0  0  0  0  0  0  0  0  0  0  0
   21.6745  -19.8290  -12.3873 O   0  0  0  0  0  0  0  0  0  0  0  0
   20.5696  -19.5206  -14.3070 O   0  0  0  0  0  0  0  0  0  0  0  0
  2  1  1  1
  3  2  1  0
  3  4  1  0
  4  8  1  0
  4  5  2  0
  5  6  1  0
  7  6  1  0
  8  7  2  0
  9  2  1  0
 10  9  2  0
 12 11  1  0
 12 22  2  0
 13 12  1  0
 14 13  2  0
 14 15  1  0
 15 21  2  0
 16 15  1  0
 17 16  1  6
 17 18  1  0
 18  9  1  0
 19 17  1  0
 20 19  2  0
 21 22  1  0
 24 23  1  0
 25 24  2  0
 26 24  1  0
 28 27  1  1
 27 26  1  0
 28 29  1  0
 29 19  1  0
 30 32  1  0
 30 28  1  0
 31 30  2  0
M  END
$$$$
