HYQ.pdb
     RDKit          3D

 32 33  0  0  1  0  0  0  0  0999 V2000
   24.2387  -18.3101  -20.5828 N   0  0  0  0  0  0  0  0  0  0  0  0
   23.7160  -16.9782  -20.4187 C   0  0  1  0  0  0  0  0  0  0  0  0
   23.6601  -16.3209  -21.7785 C   0  0  0  0  0  0  0  0  0  0  0  0
   25.0378  -16.1895  -22.3178 C   0  0  0  0  0  0  0  0  0  0  0  0
   25.5125  -16.8405  -23.4418 C   0  0  0  0  0  0  0  0  0  0  0  0
   26.7964  -16.5122  -23.6670 N   0  0  0  0  0  0  0  0  0  0  0  0
   27.1193  -15.6542  -22.6786 C   0  0  0  0  0  0  0  0  0  0  0  0
   26.0683  -15.4560  -21.8650 N   0  0  0  0  0  0  0  0  0  0  0  0
   22.3467  -17.0097  -19.7910 C   0  0  0  0  0  0  0  0  0  0  0  0
   21.4626  -17.7890  -20.2017 O   0  0  0  0  0  0  0  0  0  0  0  0
   21.2238  -21.5661  -15.0280 O   0  0  0  0  0  0  0  0  0  0  0  0
   21.1331  -20.2195  -15.4057 C   0  0  0  0  0  0  0  0  0  0  0  0
   22.2658  -19.4659  -15.6130 C   0  0  0  0  0  0  0  0  0  0  0  0
   22.2230  -18.1178  -15.9909 C   0  0  0  0  0  0  0  0  0  0  0  0
   21.0113  -17.5123  -16.1652 C   0  0  0  0  0  0  0  0  0  0  0  0
   20.8227  -16.1094  -16.5720 C   0  0  0  0  0  0  0  0  0  0  0  0
   20.7804  -15.9345  -18.0998 C   0  0  2  0  0  0  0  0  0  0  0  0
   22.0346  -16.1482  -18.7140 N   0  0  0  0  0  0  0  0  0  0  0  0
   20.1014  -14.6802  -18.4191 C   0  0  0  0  0  0  0  0  0  0  0  0
   20.7354  -13.5734  -18.3629 O   0  0  0  0  0  0  0  0  0  0  0  0
   19.8690  -18.2700  -15.9566 C   0  0  0  0  0  0  0  0  0  0  0  0
   19.9086  -19.5929  -15.5856 C   0  0  0  0  0  0  0  0  0  0  0  0
   16.1560  -13.4006  -23.0619 N   0  0  0  0  0  0  0  0  0  0  0  0
   16.2780  -12.1904  -22.3188 C   0  0  0  0  0  0  0  0  0  0  0  0
   15.7167  -11.1586  -22.7925 O   0  0  0  0  0  0  0  0  0  0  0  0
   17.0018  -12.0810  -21.0504 C   0  0  0  0  0  0  0  0  0  0  0  0
   17.6675  -13.3103  -20.5630 C   0  0  0  0  0  0  0  0  0  0  0  0
   18.1224  -13.2717  -19.1667 C   0  0  2  0  0  0  0  0  0  0  0  0
   18.7413  -14.5732  -18.8030 N   0  0  0  0  0  0  0  0  0  0  0  0
   17.1714  -12.9217  -18.1591 C   0  0  0  0  0  0  0  0  0  0  0  0
   16.4210  -13.7093  -17.5350 O   0  0  0  0  0  0  0  0  0  0  0  0
   17.0155  -11.5680  -17.7851 O   0  0  0  0  0  0  0  0  0  0  0  0
  2  1  1  6
  3  2  1  0
  3  4  1  0
  4  8  1  0
  4  5  2  0
  5  6  1  0
  7  6  1  0
  8  7  2  0
  9  2  1  0
 10  9  2  0
 12 11  1  0
 12 22  2  0
 13 12  1  0
 14 13  2  0
 14 15  1  0
 15 21  2  0
 16 15  1  0
 17 16  1  1
 17 18  1  0
 18  9  1  0
 19 17  1  0
 20 19  2  0
 21 22  1  0
 24 23  1  0
 25 24  2  0
 26 24  1  0
 28 27  1  6
 27 26  1  0
 28 29  1  0
 29 19  1  0
 30 32  1  0
 30 28  1  0
 31 30  2  0
M  END
$$$$
