HYQ.pdb
     RDKit          3D

 32 33  0  0  1  0  0  0  0  0999 V2000
   18.1206  -13.9304  -16.8942 N   0  0  0  0  0  0  0  0  0  0  0  0
   18.3054  -12.7242  -17.6592 C   0  0  1  0  0  0  0  0  0  0  0  0
   17.0970  -12.5376  -18.5476 C   0  0  0  0  0  0  0  0  0  0  0  0
   17.0266  -13.6557  -19.5228 C   0  0  0  0  0  0  0  0  0  0  0  0
   16.0803  -14.6640  -19.5029 C   0  0  0  0  0  0  0  0  0  0  0  0
   16.2873  -15.5217  -20.5169 N   0  0  0  0  0  0  0  0  0  0  0  0
   17.3664  -15.0436  -21.1683 C   0  0  0  0  0  0  0  0  0  0  0  0
   17.8153  -13.9236  -20.5769 N   0  0  0  0  0  0  0  0  0  0  0  0
   18.4839  -11.5333  -16.7538 C   0  0  0  0  0  0  0  0  0  0  0  0
   17.7194  -11.3323  -15.7879 O   0  0  0  0  0  0  0  0  0  0  0  0
   22.3927   -4.4394  -13.1274 O   0  0  0  0  0  0  0  0  0  0  0  0
   22.1256   -5.6051  -13.8582 C   0  0  0  0  0  0  0  0  0  0  0  0
   22.2277   -5.6178  -15.2305 C   0  0  0  0  0  0  0  0  0  0  0  0
   21.9705   -6.7589  -16.0011 C   0  0  0  0  0  0  0  0  0  0  0  0
   21.6019   -7.9162  -15.3765 C   0  0  0  0  0  0  0  0  0  0  0  0
   21.3150   -9.1876  -16.0623 C   0  0  0  0  0  0  0  0  0  0  0  0
   19.8103   -9.4132  -16.2900 C   0  0  2  0  0  0  0  0  0  0  0  0
   19.5314  -10.6118  -16.9839 N   0  0  0  0  0  0  0  0  0  0  0  0
   19.2202   -8.1911  -16.8327 C   0  0  0  0  0  0  0  0  0  0  0  0
   19.4704   -7.8342  -18.0328 O   0  0  0  0  0  0  0  0  0  0  0  0
   21.4984   -7.9051  -13.9940 C   0  0  0  0  0  0  0  0  0  0  0  0
   21.7501   -6.7866  -13.2358 C   0  0  0  0  0  0  0  0  0  0  0  0
   14.1321   -7.5376  -15.2615 N   0  0  0  0  0  0  0  0  0  0  0  0
   14.3986   -7.5958  -16.6605 C   0  0  0  0  0  0  0  0  0  0  0  0
   13.6507   -8.3373  -17.3641 O   0  0  0  0  0  0  0  0  0  0  0  0
   15.4720   -6.8478  -17.3187 C   0  0  0  0  0  0  0  0  0  0  0  0
   16.3399   -6.0302  -16.4411 C   0  0  0  0  0  0  0  0  0  0  0  0
   17.7782   -6.1007  -16.7312 C   0  0  2  0  0  0  0  0  0  0  0  0
   18.3559   -7.3249  -16.1175 N   0  0  0  0  0  0  0  0  0  0  0  0
   18.5923   -4.9827  -16.3715 C   0  0  0  0  0  0  0  0  0  0  0  0
   19.5894   -4.9993  -15.6109 O   0  0  0  0  0  0  0  0  0  0  0  0
   18.2939   -3.7039  -16.8935 O   0  0  0  0  0  0  0  0  0  0  0  0
  2  1  1  1
  3  2  1  0
  3  4  1  0
  4  8  1  0
  4  5  2  0
  5  6  1  0
  7  6  1  0
  8  7  2  0
  9  2  1  0
 10  9  2  0
 12 11  1  0
 12 22  2  0
 13 12  1  0
 14 13  2  0
 14 15  1  0
 15 21  2  0
 16 15  1  0
 17 16  1  6
 17 18  1  0
 18  9  1  0
 19 17  1  0
 20 19  2  0
 21 22  1  0
 24 23  1  0
 25 24  2  0
 26 24  1  0
 28 27  1  1
 27 26  1  0
 28 29  1  0
 29 19  1  0
 30 32  1  0
 30 28  1  0
 31 30  2  0
M  END
$$$$
