HYQ.pdb
     RDKit          3D

 32 33  0  0  1  0  0  0  0  0999 V2000
   26.0171  -20.2004  -19.1688 N   0  0  0  0  0  0  0  0  0  0  0  0
   25.1549  -19.3234  -18.4194 C   0  0  1  0  0  0  0  0  0  0  0  0
   24.0594  -18.8369  -19.3399 C   0  0  0  0  0  0  0  0  0  0  0  0
   24.6530  -17.9889  -20.4051 C   0  0  0  0  0  0  0  0  0  0  0  0
   24.5348  -18.2261  -21.7625 C   0  0  0  0  0  0  0  0  0  0  0  0
   25.1835  -17.2794  -22.4624 N   0  0  0  0  0  0  0  0  0  0  0  0
   25.7060  -16.4517  -21.5354 C   0  0  0  0  0  0  0  0  0  0  0  0
   25.3915  -16.8717  -20.2983 N   0  0  0  0  0  0  0  0  0  0  0  0
   24.5666  -20.0339  -17.2282 C   0  0  0  0  0  0  0  0  0  0  0  0
   24.1659  -21.2132  -17.3090 O   0  0  0  0  0  0  0  0  0  0  0  0
   22.7026  -21.4512   -8.6480 O   0  0  0  0  0  0  0  0  0  0  0  0
   23.0970  -20.8625   -9.8571 C   0  0  0  0  0  0  0  0  0  0  0  0
   22.2475  -20.0279  -10.5469 C   0  0  0  0  0  0  0  0  0  0  0  0
   22.5990  -19.4181  -11.7579 C   0  0  0  0  0  0  0  0  0  0  0  0
   23.8353  -19.6529  -12.2887 C   0  0  0  0  0  0  0  0  0  0  0  0
   24.3366  -19.0684  -13.5442 C   0  0  0  0  0  0  0  0  0  0  0  0
   23.8745  -19.8471  -14.7879 C   0  0  2  0  0  0  0  0  0  0  0  0
   24.4565  -19.3712  -15.9840 N   0  0  0  0  0  0  0  0  0  0  0  0
   22.4171  -19.9575  -14.7688 C   0  0  0  0  0  0  0  0  0  0  0  0
   21.6964  -19.0482  -15.3014 O   0  0  0  0  0  0  0  0  0  0  0  0
   24.6923  -20.4936  -11.5952 C   0  0  0  0  0  0  0  0  0  0  0  0
   24.3496  -21.0933  -10.4068 C   0  0  0  0  0  0  0  0  0  0  0  0
   17.9700  -17.3446  -13.6167 N   0  0  0  0  0  0  0  0  0  0  0  0
   18.1423  -18.2725  -12.5485 C   0  0  0  0  0  0  0  0  0  0  0  0
   17.6021  -17.9879  -11.4389 O   0  0  0  0  0  0  0  0  0  0  0  0
   18.8942  -19.5236  -12.6675 C   0  0  0  0  0  0  0  0  0  0  0  0
   19.7033  -19.6922  -13.8958 C   0  0  0  0  0  0  0  0  0  0  0  0
   20.2107  -21.0495  -14.1373 C   0  0  2  0  0  0  0  0  0  0  0  0
   21.6960  -21.0301  -14.1869 N   0  0  0  0  0  0  0  0  0  0  0  0
   19.7255  -21.7551  -15.2814 C   0  0  0  0  0  0  0  0  0  0  0  0
   18.5436  -22.1205  -15.4873 O   0  0  0  0  0  0  0  0  0  0  0  0
   20.6197  -22.1038  -16.3186 O   0  0  0  0  0  0  0  0  0  0  0  0
  2  1  1  6
  3  2  1  0
  3  4  1  0
  4  8  1  0
  4  5  2  0
  5  6  1  0
  7  6  1  0
  8  7  2  0
  9  2  1  0
 10  9  2  0
 12 11  1  0
 12 22  2  0
 13 12  1  0
 14 13  2  0
 14 15  1  0
 15 21  2  0
 16 15  1  0
 17 16  1  1
 17 18  1  0
 18  9  1  0
 19 17  1  0
 20 19  2  0
 21 22  1  0
 24 23  1  0
 25 24  2  0
 26 24  1  0
 28 27  1  6
 27 26  1  0
 28 29  1  0
 29 19  1  0
 30 32  1  0
 30 28  1  0
 31 30  2  0
M  END
$$$$
