HYQ.pdb
     RDKit          3D

 32 33  0  0  1  0  0  0  0  0999 V2000
   25.0083  -11.6733  -19.4062 N   0  0  0  0  0  0  0  0  0  0  0  0
   23.8051  -11.5272  -18.6282 C   0  0  1  0  0  0  0  0  0  0  0  0
   24.1429  -11.7950  -17.1797 C   0  0  0  0  0  0  0  0  0  0  0  0
   24.6269  -13.1922  -17.0381 C   0  0  0  0  0  0  0  0  0  0  0  0
   25.8463  -13.5556  -16.4964 C   0  0  0  0  0  0  0  0  0  0  0  0
   25.9861  -14.8924  -16.5103 N   0  0  0  0  0  0  0  0  0  0  0  0
   24.8488  -15.3600  -17.0629 C   0  0  0  0  0  0  0  0  0  0  0  0
   24.0284  -14.3447  -17.3821 N   0  0  0  0  0  0  0  0  0  0  0  0
   23.2238  -10.1464  -18.7880 C   0  0  0  0  0  0  0  0  0  0  0  0
   23.9173   -9.1252  -18.6037 O   0  0  0  0  0  0  0  0  0  0  0  0
   17.1199   -4.1119  -21.2546 O   0  0  0  0  0  0  0  0  0  0  0  0
   17.8917   -5.2704  -21.0928 C   0  0  0  0  0  0  0  0  0  0  0  0
   19.2482   -5.2538  -21.3243 C   0  0  0  0  0  0  0  0  0  0  0  0
   20.0584   -6.3867  -21.1754 C   0  0  0  0  0  0  0  0  0  0  0  0
   19.4909   -7.5655  -20.7837 C   0  0  0  0  0  0  0  0  0  0  0  0
   20.2256   -8.8252  -20.5773 C   0  0  0  0  0  0  0  0  0  0  0  0
   21.1575   -8.7757  -19.3542 C   0  0  2  0  0  0  0  0  0  0  0  0
   21.8680   -9.9802  -19.1535 N   0  0  0  0  0  0  0  0  0  0  0  0
   20.4145   -8.2561  -18.2077 C   0  0  0  0  0  0  0  0  0  0  0  0
   19.4507   -8.9279  -17.7080 O   0  0  0  0  0  0  0  0  0  0  0  0
   18.1244   -7.5841  -20.5502 C   0  0  0  0  0  0  0  0  0  0  0  0
   17.3273   -6.4738  -20.6959 C   0  0  0  0  0  0  0  0  0  0  0  0
   21.6770   -8.0623  -12.7215 N   0  0  0  0  0  0  0  0  0  0  0  0
   21.0770   -8.9210  -13.6881 C   0  0  0  0  0  0  0  0  0  0  0  0
   21.0942  -10.1649  -13.4506 O   0  0  0  0  0  0  0  0  0  0  0  0
   20.4439   -8.4461  -14.9204 C   0  0  0  0  0  0  0  0  0  0  0  0
   20.4803   -6.9855  -15.1598 C   0  0  0  0  0  0  0  0  0  0  0  0
   19.8701   -6.5357  -16.4180 C   0  0  2  0  0  0  0  0  0  0  0  0
   20.6768   -7.0182  -17.5693 N   0  0  0  0  0  0  0  0  0  0  0  0
   19.6275   -5.1373  -16.5855 C   0  0  0  0  0  0  0  0  0  0  0  0
   20.0878   -4.4031  -17.4920 O   0  0  0  0  0  0  0  0  0  0  0  0
   18.7933   -4.4579  -15.6693 O   0  0  0  0  0  0  0  0  0  0  0  0
  2  1  1  6
  3  2  1  0
  3  4  1  0
  4  8  1  0
  4  5  2  0
  5  6  1  0
  7  6  1  0
  8  7  2  0
  9  2  1  0
 10  9  2  0
 12 11  1  0
 12 22  2  0
 13 12  1  0
 14 13  2  0
 14 15  1  0
 15 21  2  0
 16 15  1  0
 17 16  1  6
 17 18  1  0
 18  9  1  0
 19 17  1  0
 20 19  2  0
 21 22  1  0
 24 23  1  0
 25 24  2  0
 26 24  1  0
 28 27  1  1
 27 26  1  0
 28 29  1  0
 29 19  1  0
 30 32  1  0
 30 28  1  0
 31 30  2  0
M  END
$$$$
