TKL.pdb
     RDKit          3D

 25 24  0  0  1  0  0  0  0  0999 V2000
    9.3413  -12.4976   20.2611 C   0  0  0  0  0  0  0  0  0  0  0  0
    8.5241  -12.7297   19.0117 C   0  0  1  0  0  0  0  0  0  0  0  0
    8.9791  -11.9992   17.9364 O   0  0  0  0  0  0  0  0  0  0  0  0
    8.5453  -14.1969   18.6939 C   0  0  2  0  0  0  0  0  0  0  0  0
    7.7272  -14.5093   17.5343 N   0  0  0  0  0  0  0  0  0  0  0  0
    8.0197  -14.9912   19.8405 C   0  0  0  0  0  0  0  0  0  0  0  0
    6.7941  -15.2741   19.9322 O   0  0  0  0  0  0  0  0  0  0  0  0
    8.8634  -15.4679   20.8820 N   0  0  0  0  0  0  0  0  0  0  0  0
    8.3346  -16.3242   21.9163 C   0  0  1  0  0  0  0  0  0  0  0  0
    8.7392  -17.7696   21.7096 C   0  0  0  0  0  0  0  0  0  0  0  0
    8.0880  -18.6159   22.7986 C   0  0  0  0  0  0  0  0  0  0  0  0
    8.4917  -20.0529   22.5139 C   0  0  0  0  0  0  0  0  0  0  0  0
    7.7264  -21.0183   23.4035 C   0  0  0  0  0  0  0  0  0  0  0  0
    8.3141  -22.3360   23.1747 N   0  0  0  0  0  0  0  0  0  0  0  0
    8.9564  -15.8997   23.2205 C   0  0  0  0  0  0  0  0  0  0  0  0
    9.8745  -15.0477   23.1592 O   0  0  0  0  0  0  0  0  0  0  0  0
    8.2754  -12.2471   26.4717 C   0  0  0  0  0  0  0  0  0  0  0  0
    7.2926  -13.3253   26.1605 C   0  0  1  0  0  0  0  0  0  0  0  0
    5.9810  -12.6303   25.8081 C   0  0  0  0  0  0  0  0  0  0  0  0
    7.6570  -14.3975   25.2496 C   0  0  0  0  0  0  0  0  0  0  0  0
    8.5263  -15.5285   25.6368 C   0  0  2  0  0  0  0  0  0  0  0  0
    8.5212  -16.4398   24.4519 N   0  0  0  0  0  0  0  0  0  0  0  0
    8.0924  -16.3224   26.7898 C   0  0  0  0  0  0  0  0  0  0  0  0
    8.7678  -16.3466   27.9795 O   0  0  0  0  0  0  0  0  0  0  0  0
    7.0574  -17.0255   26.6992 O   0  0  0  0  0  0  0  0  0  0  0  0
  2  1  1  1
  3  2  1  0
  4  2  1  0
  4  6  1  0
  4  5  1  6
  6  7  2  0
  8  9  1  0
  8  6  1  0
 10 11  1  0
  9 10  1  6
 11 12  1  0
 12 13  1  0
 13 14  1  0
 15 16  2  0
 15  9  1  0
 18 20  1  0
 18 17  1  6
 19 18  1  0
 21 20  1  6
 21 22  1  0
 21 23  1  0
 22 15  1  0
 23 25  2  0
 23 24  1  0
M  END
$$$$
