TKL.pdb
     RDKit          3D

 25 24  0  0  1  0  0  0  0  0999 V2000
    5.2603  -20.0482   25.3182 C   0  0  0  0  0  0  0  0  0  0  0  0
    6.2457  -19.0293   24.7957 C   0  0  1  0  0  0  0  0  0  0  0  0
    7.5070  -19.1906   25.3248 O   0  0  0  0  0  0  0  0  0  0  0  0
    6.2893  -19.1324   23.2985 C   0  0  2  0  0  0  0  0  0  0  0  0
    6.7772  -20.4295   22.8613 N   0  0  0  0  0  0  0  0  0  0  0  0
    7.1951  -18.0964   22.7258 C   0  0  0  0  0  0  0  0  0  0  0  0
    8.3878  -18.3685   22.4193 O   0  0  0  0  0  0  0  0  0  0  0  0
    6.7675  -16.7591   22.4966 N   0  0  0  0  0  0  0  0  0  0  0  0
    7.6691  -15.7930   21.9166 C   0  0  1  0  0  0  0  0  0  0  0  0
    6.9266  -14.5937   21.3636 C   0  0  0  0  0  0  0  0  0  0  0  0
    7.9436  -13.6281   20.7640 C   0  0  0  0  0  0  0  0  0  0  0  0
    7.3290  -13.1170   19.4717 C   0  0  0  0  0  0  0  0  0  0  0  0
    8.3756  -12.4387   18.6036 C   0  0  0  0  0  0  0  0  0  0  0  0
    9.0521  -13.5068   17.8717 N   0  0  0  0  0  0  0  0  0  0  0  0
    8.5454  -15.2671   23.0227 C   0  0  0  0  0  0  0  0  0  0  0  0
    9.4478  -14.4603   22.6951 O   0  0  0  0  0  0  0  0  0  0  0  0
    5.9630  -13.5190   27.0358 C   0  0  0  0  0  0  0  0  0  0  0  0
    7.1108  -13.6374   26.0903 C   0  0  1  0  0  0  0  0  0  0  0  0
    7.5193  -12.2145   25.7212 C   0  0  0  0  0  0  0  0  0  0  0  0
    8.2284  -14.5087   26.4125 C   0  0  0  0  0  0  0  0  0  0  0  0
    9.1927  -14.9956   25.4036 C   0  0  2  0  0  0  0  0  0  0  0  0
    8.3544  -15.6679   24.3645 N   0  0  0  0  0  0  0  0  0  0  0  0
   10.1781  -15.9790   25.8614 C   0  0  0  0  0  0  0  0  0  0  0  0
   10.2311  -17.2622   25.3891 O   0  0  0  0  0  0  0  0  0  0  0  0
   11.0182  -15.6497   26.7330 O   0  0  0  0  0  0  0  0  0  0  0  0
  2  1  1  1
  3  2  1  0
  4  2  1  0
  4  6  1  0
  4  5  1  1
  6  7  2  0
  8  9  1  0
  8  6  1  0
 10 11  1  0
  9 10  1  1
 11 12  1  0
 12 13  1  0
 13 14  1  0
 15 16  2  0
 15  9  1  0
 18 20  1  0
 18 17  1  1
 19 18  1  0
 21 20  1  1
 21 22  1  0
 21 23  1  0
 22 15  1  0
 23 25  2  0
 23 24  1  0
M  END
$$$$
