TKL.pdb
     RDKit          3D

 25 24  0  0  1  0  0  0  0  0999 V2000
   11.2517  -18.8931   22.9395 C   0  0  0  0  0  0  0  0  0  0  0  0
   12.5207  -18.2545   22.4254 C   0  0  1  0  0  0  0  0  0  0  0  0
   13.4365  -19.1800   21.9762 O   0  0  0  0  0  0  0  0  0  0  0  0
   12.1612  -17.2977   21.3256 C   0  0  2  0  0  0  0  0  0  0  0  0
   13.3403  -16.6863   20.7360 N   0  0  0  0  0  0  0  0  0  0  0  0
   11.2986  -16.1988   21.8452 C   0  0  0  0  0  0  0  0  0  0  0  0
   11.7830  -15.2542   22.5260 O   0  0  0  0  0  0  0  0  0  0  0  0
    9.8973  -16.1568   21.6036 N   0  0  0  0  0  0  0  0  0  0  0  0
    9.0909  -15.0987   22.1627 C   0  0  1  0  0  0  0  0  0  0  0  0
    7.8502  -14.8401   21.3325 C   0  0  0  0  0  0  0  0  0  0  0  0
    8.2060  -13.8571   20.2220 C   0  0  0  0  0  0  0  0  0  0  0  0
    7.7176  -14.4873   18.9284 C   0  0  0  0  0  0  0  0  0  0  0  0
    8.1187  -13.6451   17.7289 C   0  0  0  0  0  0  0  0  0  0  0  0
    7.5213  -14.2887   16.5614 N   0  0  0  0  0  0  0  0  0  0  0  0
    8.6022  -15.5623   23.5096 C   0  0  0  0  0  0  0  0  0  0  0  0
    8.8306  -16.7570   23.8143 O   0  0  0  0  0  0  0  0  0  0  0  0
    6.4931  -11.6176   26.7469 C   0  0  0  0  0  0  0  0  0  0  0  0
    7.3591  -12.7844   26.4090 C   0  0  1  0  0  0  0  0  0  0  0  0
    8.6107  -12.6620   27.2727 C   0  0  0  0  0  0  0  0  0  0  0  0
    6.7923  -14.1222   26.3754 C   0  0  0  0  0  0  0  0  0  0  0  0
    7.4346  -15.2565   25.6785 C   0  0  2  0  0  0  0  0  0  0  0  0
    7.9191  -14.6871   24.3841 N   0  0  0  0  0  0  0  0  0  0  0  0
    6.5726  -16.3952   25.3499 C   0  0  0  0  0  0  0  0  0  0  0  0
    6.3977  -17.4671   26.1821 O   0  0  0  0  0  0  0  0  0  0  0  0
    5.9619  -16.4096   24.2541 O   0  0  0  0  0  0  0  0  0  0  0  0
  2  1  1  6
  3  2  1  0
  4  2  1  0
  4  6  1  0
  4  5  1  1
  6  7  2  0
  8  9  1  0
  8  6  1  0
 10 11  1  0
  9 10  1  6
 11 12  1  0
 12 13  1  0
 13 14  1  0
 15 16  2  0
 15  9  1  0
 18 20  1  0
 18 17  1  1
 19 18  1  0
 21 20  1  6
 21 22  1  0
 21 23  1  0
 22 15  1  0
 23 25  2  0
 23 24  1  0
M  END
$$$$
