TKL.pdb
     RDKit          3D

 25 24  0  0  1  0  0  0  0  0999 V2000
    6.0343  -11.2743   25.8655 C   0  0  0  0  0  0  0  0  0  0  0  0
    6.9746  -12.4355   25.6421 C   0  0  1  0  0  0  0  0  0  0  0  0
    7.7344  -12.7249   26.7538 O   0  0  0  0  0  0  0  0  0  0  0  0
    6.1651  -13.6329   25.2354 C   0  0  2  0  0  0  0  0  0  0  0  0
    5.2818  -14.0740   26.3017 N   0  0  0  0  0  0  0  0  0  0  0  0
    7.0555  -14.7768   24.8889 C   0  0  0  0  0  0  0  0  0  0  0  0
    7.2825  -15.7020   25.7153 O   0  0  0  0  0  0  0  0  0  0  0  0
    7.6905  -14.8855   23.6204 N   0  0  0  0  0  0  0  0  0  0  0  0
    8.5796  -15.9872   23.3405 C   0  0  1  0  0  0  0  0  0  0  0  0
    9.1152  -15.9304   21.9244 C   0  0  0  0  0  0  0  0  0  0  0  0
    8.9634  -17.3103   21.2929 C   0  0  0  0  0  0  0  0  0  0  0  0
    9.0252  -17.0954   19.7899 C   0  0  0  0  0  0  0  0  0  0  0  0
    8.8195  -18.4039   19.0453 C   0  0  0  0  0  0  0  0  0  0  0  0
    8.8196  -18.0679   17.6236 N   0  0  0  0  0  0  0  0  0  0  0  0
    9.7759  -15.8475   24.2446 C   0  0  0  0  0  0  0  0  0  0  0  0
   10.3444  -14.7299   24.2628 O   0  0  0  0  0  0  0  0  0  0  0  0
   11.8340  -14.1510   28.2197 C   0  0  0  0  0  0  0  0  0  0  0  0
   10.6715  -15.0840   28.2776 C   0  0  1  0  0  0  0  0  0  0  0  0
    9.5744  -14.3647   29.0565 C   0  0  0  0  0  0  0  0  0  0  0  0
   10.2053  -15.7373   27.0660 C   0  0  0  0  0  0  0  0  0  0  0  0
   11.0661  -16.5983   26.2278 C   0  0  2  0  0  0  0  0  0  0  0  0
   10.2311  -16.9287   25.0328 N   0  0  0  0  0  0  0  0  0  0  0  0
   11.4919  -17.8703   26.8180 C   0  0  0  0  0  0  0  0  0  0  0  0
   12.7605  -18.0948   27.2790 O   0  0  0  0  0  0  0  0  0  0  0  0
   10.6698  -18.8137   26.9079 O   0  0  0  0  0  0  0  0  0  0  0  0
  2  1  1  1
  3  2  1  0
  4  2  1  0
  4  6  1  0
  4  5  1  1
  6  7  2  0
  8  9  1  0
  8  6  1  0
 10 11  1  0
  9 10  1  6
 11 12  1  0
 12 13  1  0
 13 14  1  0
 15 16  2  0
 15  9  1  0
 18 20  1  0
 18 17  1  6
 19 18  1  0
 21 20  1  1
 21 22  1  0
 21 23  1  0
 22 15  1  0
 23 25  2  0
 23 24  1  0
M  END
$$$$
