TKL.pdb
     RDKit          3D

 25 24  0  0  1  0  0  0  0  0999 V2000
    9.7488  -12.4179   18.2622 C   0  0  0  0  0  0  0  0  0  0  0  0
    9.3624  -13.0228   19.5916 C   0  0  1  0  0  0  0  0  0  0  0  0
    8.8298  -12.0972   20.4613 O   0  0  0  0  0  0  0  0  0  0  0  0
    8.3818  -14.1323   19.3435 C   0  0  2  0  0  0  0  0  0  0  0  0
    7.1273  -13.6331   18.8062 N   0  0  0  0  0  0  0  0  0  0  0  0
    8.0716  -14.8534   20.6106 C   0  0  0  0  0  0  0  0  0  0  0  0
    7.0196  -14.6079   21.2614 O   0  0  0  0  0  0  0  0  0  0  0  0
    8.9363  -15.8470   21.1482 N   0  0  0  0  0  0  0  0  0  0  0  0
    8.5655  -16.5705   22.3406 C   0  0  1  0  0  0  0  0  0  0  0  0
    9.1559  -17.9657   22.3567 C   0  0  0  0  0  0  0  0  0  0  0  0
    8.3451  -18.8462   21.4114 C   0  0  0  0  0  0  0  0  0  0  0  0
    9.0746  -20.1776   21.3454 C   0  0  0  0  0  0  0  0  0  0  0  0
    8.2987  -21.1809   20.5085 C   0  0  0  0  0  0  0  0  0  0  0  0
    9.1186  -22.3890   20.4574 N   0  0  0  0  0  0  0  0  0  0  0  0
    9.1688  -15.8489   23.5167 C   0  0  0  0  0  0  0  0  0  0  0  0
   10.1793  -15.1419   23.2896 O   0  0  0  0  0  0  0  0  0  0  0  0
    6.5354  -13.5767   27.0954 C   0  0  0  0  0  0  0  0  0  0  0  0
    7.2734  -13.5365   25.7996 C   0  0  1  0  0  0  0  0  0  0  0  0
    6.8808  -12.2307   25.1153 C   0  0  0  0  0  0  0  0  0  0  0  0
    8.6995  -13.8147   25.7686 C   0  0  0  0  0  0  0  0  0  0  0  0
    9.2622  -15.1749   25.9037 C   0  0  2  0  0  0  0  0  0  0  0  0
    8.6173  -15.9672   24.8126 N   0  0  0  0  0  0  0  0  0  0  0  0
    8.9870  -15.8748   27.1616 C   0  0  0  0  0  0  0  0  0  0  0  0
    9.5828  -15.5448   28.3484 O   0  0  0  0  0  0  0  0  0  0  0  0
    8.1735  -16.8298   27.1701 O   0  0  0  0  0  0  0  0  0  0  0  0
  2  1  1  6
  3  2  1  0
  4  2  1  0
  4  6  1  0
  4  5  1  1
  6  7  2  0
  8  9  1  0
  8  6  1  0
 10 11  1  0
  9 10  1  6
 11 12  1  0
 12 13  1  0
 13 14  1  0
 15 16  2  0
 15  9  1  0
 18 20  1  0
 18 17  1  1
 19 18  1  0
 21 20  1  1
 21 22  1  0
 21 23  1  0
 22 15  1  0
 23 25  2  0
 23 24  1  0
M  END
$$$$
