TKL.pdb
     RDKit          3D

 25 24  0  0  1  0  0  0  0  0999 V2000
    6.7692  -21.6090   22.4813 C   0  0  0  0  0  0  0  0  0  0  0  0
    7.2359  -20.2896   21.9120 C   0  0  1  0  0  0  0  0  0  0  0  0
    6.2926  -19.6978   21.1015 O   0  0  0  0  0  0  0  0  0  0  0  0
    7.5928  -19.3786   23.0508 C   0  0  2  0  0  0  0  0  0  0  0  0
    6.4327  -19.0489   23.8615 N   0  0  0  0  0  0  0  0  0  0  0  0
    8.1626  -18.0987   22.5421 C   0  0  0  0  0  0  0  0  0  0  0  0
    9.3956  -17.9810   22.3047 O   0  0  0  0  0  0  0  0  0  0  0  0
    7.3548  -16.9531   22.2995 N   0  0  0  0  0  0  0  0  0  0  0  0
    7.9450  -15.7363   21.7960 C   0  0  1  0  0  0  0  0  0  0  0  0
    6.8932  -14.6961   21.4682 C   0  0  0  0  0  0  0  0  0  0  0  0
    7.5959  -13.4315   20.9854 C   0  0  0  0  0  0  0  0  0  0  0  0
    7.8471  -13.6296   19.4999 C   0  0  0  0  0  0  0  0  0  0  0  0
    8.4871  -12.3947   18.8880 C   0  0  0  0  0  0  0  0  0  0  0  0
    8.6579  -12.6863   17.4667 N   0  0  0  0  0  0  0  0  0  0  0  0
    8.7842  -15.1473   22.8990 C   0  0  0  0  0  0  0  0  0  0  0  0
    9.5201  -14.1786   22.5949 O   0  0  0  0  0  0  0  0  0  0  0  0
    6.1754  -11.9491   26.0624 C   0  0  0  0  0  0  0  0  0  0  0  0
    7.4370  -12.7367   26.1778 C   0  0  1  0  0  0  0  0  0  0  0  0
    7.5645  -13.1424   27.6430 C   0  0  0  0  0  0  0  0  0  0  0  0
    7.7075  -13.8138   25.2403 C   0  0  0  0  0  0  0  0  0  0  0  0
    8.8917  -14.6931   25.3369 C   0  0  2  0  0  0  0  0  0  0  0  0
    8.7397  -15.6665   24.2128 N   0  0  0  0  0  0  0  0  0  0  0  0
    9.0257  -15.4773   26.5677 C   0  0  0  0  0  0  0  0  0  0  0  0
    8.5155  -16.7388   26.7115 O   0  0  0  0  0  0  0  0  0  0  0  0
    9.6284  -14.9830   27.5507 O   0  0  0  0  0  0  0  0  0  0  0  0
  2  1  1  1
  3  2  1  0
  4  2  1  0
  4  6  1  0
  4  5  1  6
  6  7  2  0
  8  9  1  0
  8  6  1  0
 10 11  1  0
  9 10  1  1
 11 12  1  0
 12 13  1  0
 13 14  1  0
 15 16  2  0
 15  9  1  0
 18 20  1  0
 18 17  1  1
 19 18  1  0
 21 20  1  1
 21 22  1  0
 21 23  1  0
 22 15  1  0
 23 25  2  0
 23 24  1  0
M  END
$$$$
