TKL.pdb
     RDKit          3D

 25 24  0  0  1  0  0  0  0  0999 V2000
    5.9492  -20.2114   25.4305 C   0  0  0  0  0  0  0  0  0  0  0  0
    6.7780  -19.0836   24.8615 C   0  0  1  0  0  0  0  0  0  0  0  0
    8.0790  -19.1004   25.3133 O   0  0  0  0  0  0  0  0  0  0  0  0
    6.7433  -19.1754   23.3633 C   0  0  2  0  0  0  0  0  0  0  0  0
    7.3186  -20.4215   22.8859 N   0  0  0  0  0  0  0  0  0  0  0  0
    7.5183  -18.0598   22.7497 C   0  0  0  0  0  0  0  0  0  0  0  0
    8.7290  -18.2048   22.4277 O   0  0  0  0  0  0  0  0  0  0  0  0
    6.9401  -16.7847   22.4970 N   0  0  0  0  0  0  0  0  0  0  0  0
    7.7606  -15.6872   22.0444 C   0  0  1  0  0  0  0  0  0  0  0  0
    6.9236  -14.5505   21.4940 C   0  0  0  0  0  0  0  0  0  0  0  0
    7.8603  -13.4921   20.9209 C   0  0  0  0  0  0  0  0  0  0  0  0
    7.7287  -13.5861   19.4099 C   0  0  0  0  0  0  0  0  0  0  0  0
    8.7035  -12.6462   18.7205 C   0  0  0  0  0  0  0  0  0  0  0  0
    8.4742  -12.8022   17.2861 N   0  0  0  0  0  0  0  0  0  0  0  0
    8.4800  -15.1317   23.2451 C   0  0  0  0  0  0  0  0  0  0  0  0
    9.4294  -14.3434   23.0217 O   0  0  0  0  0  0  0  0  0  0  0  0
    5.7970  -12.4988   26.5625 C   0  0  0  0  0  0  0  0  0  0  0  0
    7.0524  -12.9599   25.9016 C   0  0  1  0  0  0  0  0  0  0  0  0
    7.9148  -11.7190   25.6915 C   0  0  0  0  0  0  0  0  0  0  0  0
    7.7772  -14.0999   26.4376 C   0  0  0  0  0  0  0  0  0  0  0  0
    8.8243  -14.8209   25.6835 C   0  0  2  0  0  0  0  0  0  0  0  0
    8.0983  -15.4861   24.5589 N   0  0  0  0  0  0  0  0  0  0  0  0
    9.5466  -15.8705   26.4078 C   0  0  0  0  0  0  0  0  0  0  0  0
    9.5472  -17.1830   26.0209 O   0  0  0  0  0  0  0  0  0  0  0  0
   10.1965  -15.5723   27.4386 O   0  0  0  0  0  0  0  0  0  0  0  0
  2  1  1  1
  3  2  1  0
  4  2  1  0
  4  6  1  0
  4  5  1  1
  6  7  2  0
  8  9  1  0
  8  6  1  0
 10 11  1  0
  9 10  1  1
 11 12  1  0
 12 13  1  0
 13 14  1  0
 15 16  2  0
 15  9  1  0
 18 20  1  0
 18 17  1  1
 19 18  1  0
 21 20  1  1
 21 22  1  0
 21 23  1  0
 22 15  1  0
 23 25  2  0
 23 24  1  0
M  END
$$$$
