TKL.pdb
     RDKit          3D

 25 24  0  0  1  0  0  0  0  0999 V2000
    8.4835  -20.4378   24.7445 C   0  0  0  0  0  0  0  0  0  0  0  0
    7.3966  -20.4902   23.6965 C   0  0  1  0  0  0  0  0  0  0  0  0
    6.5066  -21.5203   23.9056 O   0  0  0  0  0  0  0  0  0  0  0  0
    6.6782  -19.1718   23.6885 C   0  0  2  0  0  0  0  0  0  0  0  0
    5.4193  -19.2481   22.9667 N   0  0  0  0  0  0  0  0  0  0  0  0
    7.5092  -18.1237   23.0308 C   0  0  0  0  0  0  0  0  0  0  0  0
    8.7478  -18.2856   22.8568 O   0  0  0  0  0  0  0  0  0  0  0  0
    6.9558  -16.8973   22.5687 N   0  0  0  0  0  0  0  0  0  0  0  0
    7.8146  -15.8502   22.0701 C   0  0  1  0  0  0  0  0  0  0  0  0
    7.0421  -14.8282   21.2613 C   0  0  0  0  0  0  0  0  0  0  0  0
    8.0149  -13.7589   20.7750 C   0  0  0  0  0  0  0  0  0  0  0  0
    7.5756  -13.3988   19.3655 C   0  0  0  0  0  0  0  0  0  0  0  0
    8.7457  -12.8758   18.5491 C   0  0  0  0  0  0  0  0  0  0  0  0
    8.1980  -12.4975   17.2487 N   0  0  0  0  0  0  0  0  0  0  0  0
    8.3667  -15.1096   23.2595 C   0  0  0  0  0  0  0  0  0  0  0  0
    8.5703  -13.8805   23.1166 O   0  0  0  0  0  0  0  0  0  0  0  0
    7.7872  -11.8164   26.2455 C   0  0  0  0  0  0  0  0  0  0  0  0
    7.2044  -13.1208   26.6750 C   0  0  1  0  0  0  0  0  0  0  0  0
    5.7356  -12.8578   26.9929 C   0  0  0  0  0  0  0  0  0  0  0  0
    7.4324  -14.3142   25.8775 C   0  0  0  0  0  0  0  0  0  0  0  0
    8.7652  -14.9290   25.7028 C   0  0  2  0  0  0  0  0  0  0  0  0
    8.6402  -15.7743   24.4764 N   0  0  0  0  0  0  0  0  0  0  0  0
    9.2278  -15.8057   26.7823 C   0  0  0  0  0  0  0  0  0  0  0  0
   10.1313  -15.4124   27.7316 O   0  0  0  0  0  0  0  0  0  0  0  0
    8.7908  -16.9796   26.8526 O   0  0  0  0  0  0  0  0  0  0  0  0
  2  1  1  1
  3  2  1  0
  4  2  1  0
  4  6  1  0
  4  5  1  6
  6  7  2  0
  8  9  1  0
  8  6  1  0
 10 11  1  0
  9 10  1  6
 11 12  1  0
 12 13  1  0
 13 14  1  0
 15 16  2  0
 15  9  1  0
 18 20  1  0
 18 17  1  6
 19 18  1  0
 21 20  1  1
 21 22  1  0
 21 23  1  0
 22 15  1  0
 23 25  2  0
 23 24  1  0
M  END
$$$$
