MFA.pdb
     RDKit          3D

 25 25  0  0  1  0  0  0  0  0999 V2000
   33.2594  -12.3232  -22.3043 C   0  0  0  0  0  0  0  0  0  0  0  0
   34.5072  -13.5714  -22.0920 S   0  0  0  0  0  0  0  0  0  0  0  0
   35.6485  -13.3601  -20.7608 C   0  0  0  0  0  0  0  0  0  0  0  0
   35.1939  -12.6908  -19.5122 C   0  0  0  0  0  0  0  0  0  0  0  0
   36.2529  -12.2341  -18.5817 C   0  0  2  0  0  0  0  0  0  0  0  0
   37.0661  -13.3068  -18.0916 N   0  0  0  0  0  0  0  0  0  0  0  0
   35.6491  -11.5604  -17.3768 C   0  0  0  0  0  0  0  0  0  0  0  0
   35.0907  -12.2363  -16.5087 O   0  0  0  0  0  0  0  0  0  0  0  0
   35.7055  -10.1739  -17.2142 N   0  0  0  0  0  0  0  0  0  0  0  0
   35.2767   -9.4202  -16.0889 C   0  0  1  0  0  0  0  0  0  0  0  0
   36.3319   -8.9473  -15.1642 C   0  0  0  0  0  0  0  0  0  0  0  0
   37.0042  -10.0174  -14.3938 C   0  0  0  0  0  0  0  0  0  0  0  0
   38.0921  -10.6840  -14.9024 C   0  0  0  0  0  0  0  0  0  0  0  0
   38.7464  -11.6837  -14.2113 C   0  0  0  0  0  0  0  0  0  0  0  0
   38.2953  -12.0319  -12.9602 C   0  0  0  0  0  0  0  0  0  0  0  0
   37.2080  -11.3886  -12.4131 C   0  0  0  0  0  0  0  0  0  0  0  0
   36.5704  -10.3821  -13.1406 C   0  0  0  0  0  0  0  0  0  0  0  0
   34.5159   -8.2327  -16.5975 C   0  0  0  0  0  0  0  0  0  0  0  0
   35.0157   -7.4709  -17.4669 O   0  0  0  0  0  0  0  0  0  0  0  0
   31.0054   -6.9469  -16.6412 C   0  0  0  0  0  0  0  0  0  0  0  0
   32.4851   -6.7549  -16.6203 C   0  0  2  0  0  0  0  0  0  0  0  0
   33.2069   -7.9098  -16.1298 N   0  0  0  0  0  0  0  0  0  0  0  0
   32.8334   -5.5265  -15.8560 C   0  0  0  0  0  0  0  0  0  0  0  0
   32.4922   -4.4114  -16.3244 O   0  0  0  0  0  0  0  0  0  0  0  0
   33.5162   -5.5385  -14.6513 O   0  0  0  0  0  0  0  0  0  0  0  0
  1  2  1  0
  2  3  1  0
  4  5  1  0
  4  3  1  0
  5  6  1  1
  7  5  1  0
  7  8  2  0
  9  7  1  0
 10  9  1  0
 11 12  1  0
 10 11  1  6
 12 17  2  0
 13 12  1  0
 13 14  2  0
 14 15  1  0
 15 16  2  0
 17 16  1  0
 18 10  1  0
 19 18  2  0
 21 22  1  0
 21 20  1  1
 22 18  1  0
 23 21  1  0
 24 23  2  0
 25 23  1  0
M  END
$$$$
