MFA.pdb
     RDKit          3D

 25 25  0  0  1  0  0  0  0  0999 V2000
   26.1210  -17.4673  -16.2419 C   0  0  0  0  0  0  0  0  0  0  0  0
   27.8793  -17.6989  -16.3632 S   0  0  0  0  0  0  0  0  0  0  0  0
   28.6384  -18.7804  -15.1913 C   0  0  0  0  0  0  0  0  0  0  0  0
   27.8193  -19.3443  -14.0848 C   0  0  0  0  0  0  0  0  0  0  0  0
   28.5305  -20.1914  -13.0987 C   0  0  2  0  0  0  0  0  0  0  0  0
   29.0493  -21.3981  -13.6706 N   0  0  0  0  0  0  0  0  0  0  0  0
   27.6049  -20.6017  -11.9829 C   0  0  0  0  0  0  0  0  0  0  0  0
   27.0394  -21.6976  -12.0235 O   0  0  0  0  0  0  0  0  0  0  0  0
   27.3670  -19.7643  -10.8901 N   0  0  0  0  0  0  0  0  0  0  0  0
   26.5037  -20.0093   -9.7887 C   0  0  1  0  0  0  0  0  0  0  0  0
   26.5505  -19.0324   -8.6771 C   0  0  0  0  0  0  0  0  0  0  0  0
   26.8579  -19.6170   -7.3526 C   0  0  0  0  0  0  0  0  0  0  0  0
   26.1021  -20.6397   -6.8336 C   0  0  0  0  0  0  0  0  0  0  0  0
   26.3617  -21.2117   -5.6046 C   0  0  0  0  0  0  0  0  0  0  0  0
   27.4203  -20.7427   -4.8632 C   0  0  0  0  0  0  0  0  0  0  0  0
   28.2036  -19.7189   -5.3467 C   0  0  0  0  0  0  0  0  0  0  0  0
   27.9118  -19.1639   -6.5940 C   0  0  0  0  0  0  0  0  0  0  0  0
   25.1007  -20.0733  -10.3135 C   0  0  0  0  0  0  0  0  0  0  0  0
   24.6237  -19.1281  -10.9952 O   0  0  0  0  0  0  0  0  0  0  0  0
   22.8515  -22.5111  -11.6021 C   0  0  0  0  0  0  0  0  0  0  0  0
   22.9558  -21.3179  -10.7120 C   0  0  2  0  0  0  0  0  0  0  0  0
   24.2475  -21.1912  -10.0710 N   0  0  0  0  0  0  0  0  0  0  0  0
   21.8489  -21.3200   -9.7174 C   0  0  0  0  0  0  0  0  0  0  0  0
   20.6654  -21.3684  -10.1369 O   0  0  0  0  0  0  0  0  0  0  0  0
   22.0463  -21.2711   -8.3476 O   0  0  0  0  0  0  0  0  0  0  0  0
  1  2  1  0
  2  3  1  0
  4  5  1  0
  4  3  1  0
  5  6  1  6
  7  5  1  0
  7  8  2  0
  9  7  1  0
 10  9  1  0
 11 12  1  0
 10 11  1  1
 12 17  2  0
 13 12  1  0
 13 14  2  0
 14 15  1  0
 15 16  2  0
 17 16  1  0
 18 10  1  0
 19 18  2  0
 21 22  1  0
 21 20  1  1
 22 18  1  0
 23 21  1  0
 24 23  2  0
 25 23  1  0
M  END
$$$$
