MFA.pdb
     RDKit          3D

 25 25  0  0  1  0  0  0  0  0999 V2000
   26.2365  -20.7200  -20.5904 C   0  0  0  0  0  0  0  0  0  0  0  0
   27.9592  -20.6833  -20.1530 S   0  0  0  0  0  0  0  0  0  0  0  0
   28.3587  -20.5951  -18.4349 C   0  0  0  0  0  0  0  0  0  0  0  0
   27.3336  -20.9832  -17.4288 C   0  0  0  0  0  0  0  0  0  0  0  0
   27.7572  -21.9521  -16.3907 C   0  0  2  0  0  0  0  0  0  0  0  0
   27.9904  -23.2650  -16.9143 N   0  0  0  0  0  0  0  0  0  0  0  0
   26.6992  -22.0896  -15.3269 C   0  0  0  0  0  0  0  0  0  0  0  0
   25.9781  -23.0904  -15.3013 O   0  0  0  0  0  0  0  0  0  0  0  0
   26.5107  -21.1022  -14.3565 N   0  0  0  0  0  0  0  0  0  0  0  0
   25.5763  -21.1131  -13.2864 C   0  0  1  0  0  0  0  0  0  0  0  0
   25.8118  -20.1482  -12.1883 C   0  0  0  0  0  0  0  0  0  0  0  0
   24.8716  -20.2642  -11.0510 C   0  0  0  0  0  0  0  0  0  0  0  0
   25.2015  -20.9786   -9.9253 C   0  0  0  0  0  0  0  0  0  0  0  0
   24.3523  -21.1047   -8.8445 C   0  0  0  0  0  0  0  0  0  0  0  0
   23.1226  -20.4917   -8.8901 C   0  0  0  0  0  0  0  0  0  0  0  0
   22.7524  -19.7655   -9.9998 C   0  0  0  0  0  0  0  0  0  0  0  0
   23.6367  -19.6592  -11.0747 C   0  0  0  0  0  0  0  0  0  0  0  0
   24.2164  -20.8602  -13.8649 C   0  0  0  0  0  0  0  0  0  0  0  0
   23.9992  -19.8488  -14.5831 O   0  0  0  0  0  0  0  0  0  0  0  0
   21.2403  -22.6867  -14.9075 C   0  0  0  0  0  0  0  0  0  0  0  0
   21.8116  -21.4954  -14.2136 C   0  0  2  0  0  0  0  0  0  0  0  0
   23.1158  -21.7389  -13.6348 N   0  0  0  0  0  0  0  0  0  0  0  0
   20.8506  -20.9805  -13.2008 C   0  0  0  0  0  0  0  0  0  0  0  0
   21.0841  -21.2005  -11.9858 O   0  0  0  0  0  0  0  0  0  0  0  0
   19.7062  -20.2687  -13.5192 O   0  0  0  0  0  0  0  0  0  0  0  0
  1  2  1  0
  2  3  1  0
  4  5  1  0
  4  3  1  0
  5  6  1  6
  7  5  1  0
  7  8  2  0
  9  7  1  0
 10  9  1  0
 11 12  1  0
 10 11  1  1
 12 17  2  0
 13 12  1  0
 13 14  2  0
 14 15  1  0
 15 16  2  0
 17 16  1  0
 18 10  1  0
 19 18  2  0
 21 22  1  0
 21 20  1  1
 22 18  1  0
 23 21  1  0
 24 23  2  0
 25 23  1  0
M  END
$$$$
