MFA.pdb
     RDKit          3D

 25 25  0  0  1  0  0  0  0  0999 V2000
   26.3857  -16.0017  -15.5242 C   0  0  0  0  0  0  0  0  0  0  0  0
   27.9836  -16.7631  -15.6892 S   0  0  0  0  0  0  0  0  0  0  0  0
   28.0275  -18.4620  -16.1697 C   0  0  0  0  0  0  0  0  0  0  0  0
   27.1867  -19.4470  -15.4374 C   0  0  0  0  0  0  0  0  0  0  0  0
   27.7089  -19.9267  -14.1363 C   0  0  2  0  0  0  0  0  0  0  0  0
   28.9140  -20.6905  -14.2657 N   0  0  0  0  0  0  0  0  0  0  0  0
   26.7021  -20.8151  -13.4529 C   0  0  0  0  0  0  0  0  0  0  0  0
   26.4975  -21.9549  -13.8783 O   0  0  0  0  0  0  0  0  0  0  0  0
   25.9852  -20.3773  -12.3364 N   0  0  0  0  0  0  0  0  0  0  0  0
   24.9697  -21.0805  -11.6345 C   0  0  1  0  0  0  0  0  0  0  0  0
   24.9482  -20.9234  -10.1624 C   0  0  0  0  0  0  0  0  0  0  0  0
   26.2837  -20.8759   -9.5260 C   0  0  0  0  0  0  0  0  0  0  0  0
   26.5954  -19.9130   -8.5974 C   0  0  0  0  0  0  0  0  0  0  0  0
   27.8281  -19.8405   -7.9808 C   0  0  0  0  0  0  0  0  0  0  0  0
   28.7893  -20.7684   -8.3051 C   0  0  0  0  0  0  0  0  0  0  0  0
   28.5180  -21.7507   -9.2308 C   0  0  0  0  0  0  0  0  0  0  0  0
   27.2602  -21.7938   -9.8349 C   0  0  0  0  0  0  0  0  0  0  0  0
   23.6460  -20.6402  -12.1840 C   0  0  0  0  0  0  0  0  0  0  0  0
   23.2943  -19.4324  -12.1281 O   0  0  0  0  0  0  0  0  0  0  0  0
   21.1908  -21.7646  -14.6912 C   0  0  0  0  0  0  0  0  0  0  0  0
   21.4903  -21.1066  -13.3856 C   0  0  2  0  0  0  0  0  0  0  0  0
   22.7313  -21.5533  -12.7891 N   0  0  0  0  0  0  0  0  0  0  0  0
   20.3435  -21.2715  -12.4517 C   0  0  0  0  0  0  0  0  0  0  0  0
   20.5119  -21.9526  -11.4092 O   0  0  0  0  0  0  0  0  0  0  0  0
   19.0931  -20.7158  -12.6644 O   0  0  0  0  0  0  0  0  0  0  0  0
  1  2  1  0
  2  3  1  0
  4  5  1  0
  4  3  1  0
  5  6  1  6
  7  5  1  0
  7  8  2  0
  9  7  1  0
 10  9  1  0
 11 12  1  0
 10 11  1  1
 12 17  2  0
 13 12  1  0
 13 14  2  0
 14 15  1  0
 15 16  2  0
 17 16  1  0
 18 10  1  0
 19 18  2  0
 21 22  1  0
 21 20  1  6
 22 18  1  0
 23 21  1  0
 24 23  2  0
 25 23  1  0
M  END
$$$$
