MFA.pdb
     RDKit          3D

 25 25  0  0  1  0  0  0  0  0999 V2000
   47.5614   -9.0398  -10.0471 C   0  0  0  0  0  0  0  0  0  0  0  0
   46.2457   -9.9841   -9.3138 S   0  0  0  0  0  0  0  0  0  0  0  0
   44.9714  -10.5701  -10.3871 C   0  0  0  0  0  0  0  0  0  0  0  0
   43.6625   -9.8635  -10.4159 C   0  0  0  0  0  0  0  0  0  0  0  0
   42.9099   -9.8098   -9.1405 C   0  0  2  0  0  0  0  0  0  0  0  0
   42.5909  -11.1079   -8.6254 N   0  0  0  0  0  0  0  0  0  0  0  0
   41.6039   -9.0811   -9.3227 C   0  0  0  0  0  0  0  0  0  0  0  0
   40.9487   -9.2405  -10.3560 O   0  0  0  0  0  0  0  0  0  0  0  0
   41.1086   -8.2192   -8.3409 N   0  0  0  0  0  0  0  0  0  0  0  0
   39.8808   -7.5048   -8.3613 C   0  0  1  0  0  0  0  0  0  0  0  0
   38.8792   -7.8747   -7.3355 C   0  0  0  0  0  0  0  0  0  0  0  0
   38.2484   -9.1986   -7.5362 C   0  0  0  0  0  0  0  0  0  0  0  0
   38.2889  -10.1616   -6.5577 C   0  0  0  0  0  0  0  0  0  0  0  0
   37.7086  -11.4048   -6.7080 C   0  0  0  0  0  0  0  0  0  0  0  0
   37.0607  -11.6982   -7.8846 C   0  0  0  0  0  0  0  0  0  0  0  0
   36.9965  -10.7611   -8.8912 C   0  0  0  0  0  0  0  0  0  0  0  0
   37.5949   -9.5137   -8.7046 C   0  0  0  0  0  0  0  0  0  0  0  0
   40.1984   -6.0465   -8.2188 C   0  0  0  0  0  0  0  0  0  0  0  0
   41.0948   -5.6565   -7.4249 O   0  0  0  0  0  0  0  0  0  0  0  0
   39.1318   -2.7549   -9.7777 C   0  0  0  0  0  0  0  0  0  0  0  0
   39.7451   -3.6311   -8.7369 C   0  0  2  0  0  0  0  0  0  0  0  0
   39.5119   -5.0415   -8.9639 N   0  0  0  0  0  0  0  0  0  0  0  0
   39.2942   -3.2127   -7.3819 C   0  0  0  0  0  0  0  0  0  0  0  0
   39.6881   -2.1069   -6.9332 O   0  0  0  0  0  0  0  0  0  0  0  0
   38.4611   -3.9745   -6.5798 O   0  0  0  0  0  0  0  0  0  0  0  0
  1  2  1  0
  2  3  1  0
  4  5  1  0
  4  3  1  0
  5  6  1  6
  7  5  1  0
  7  8  2  0
  9  7  1  0
 10  9  1  0
 11 12  1  0
 10 11  1  1
 12 17  2  0
 13 12  1  0
 13 14  2  0
 14 15  1  0
 15 16  2  0
 17 16  1  0
 18 10  1  0
 19 18  2  0
 21 22  1  0
 21 20  1  6
 22 18  1  0
 23 21  1  0
 24 23  2  0
 25 23  1  0
M  END
$$$$
