MFA.pdb
     RDKit          3D

 25 25  0  0  1  0  0  0  0  0999 V2000
   18.2083   -7.2744  -22.5840 C   0  0  0  0  0  0  0  0  0  0  0  0
   17.6943   -8.9294  -22.1879 S   0  0  0  0  0  0  0  0  0  0  0  0
   18.5972   -9.7808  -20.9313 C   0  0  0  0  0  0  0  0  0  0  0  0
   18.5350   -9.2867  -19.5293 C   0  0  0  0  0  0  0  0  0  0  0  0
   19.6919   -9.6088  -18.6611 C   0  0  2  0  0  0  0  0  0  0  0  0
   19.7961  -11.0067  -18.3656 N   0  0  0  0  0  0  0  0  0  0  0  0
   19.5827   -8.8920  -17.3404 C   0  0  0  0  0  0  0  0  0  0  0  0
   18.9743   -9.4161  -16.4037 O   0  0  0  0  0  0  0  0  0  0  0  0
   20.1591   -7.6342  -17.1455 N   0  0  0  0  0  0  0  0  0  0  0  0
   20.1758   -6.8703  -15.9479 C   0  0  1  0  0  0  0  0  0  0  0  0
   21.4998   -6.6332  -15.3289 C   0  0  0  0  0  0  0  0  0  0  0  0
   22.1823   -7.8530  -14.8422 C   0  0  0  0  0  0  0  0  0  0  0  0
   23.2186   -8.4169  -15.5455 C   0  0  0  0  0  0  0  0  0  0  0  0
   23.8808   -9.5509  -15.1204 C   0  0  0  0  0  0  0  0  0  0  0  0
   23.4917  -10.1462  -13.9438 C   0  0  0  0  0  0  0  0  0  0  0  0
   22.4575   -9.6130  -13.2078 C   0  0  0  0  0  0  0  0  0  0  0  0
   21.8101   -8.4651  -13.6681 C   0  0  0  0  0  0  0  0  0  0  0  0
   19.5388   -5.5454  -16.2422 C   0  0  0  0  0  0  0  0  0  0  0  0
   19.8859   -4.8725  -17.2485 O   0  0  0  0  0  0  0  0  0  0  0  0
   16.9642   -3.8985  -16.9661 C   0  0  0  0  0  0  0  0  0  0  0  0
   17.8354   -3.7632  -15.7620 C   0  0  2  0  0  0  0  0  0  0  0  0
   18.5223   -4.9878  -15.4101 N   0  0  0  0  0  0  0  0  0  0  0  0
   17.0503   -3.2274  -14.6170 C   0  0  0  0  0  0  0  0  0  0  0  0
   16.6767   -4.0246  -13.7203 O   0  0  0  0  0  0  0  0  0  0  0  0
   16.7039   -1.8937  -14.4796 O   0  0  0  0  0  0  0  0  0  0  0  0
  1  2  1  0
  2  3  1  0
  4  5  1  0
  4  3  1  0
  5  6  1  1
  7  5  1  0
  7  8  2  0
  9  7  1  0
 10  9  1  0
 11 12  1  0
 10 11  1  6
 12 17  2  0
 13 12  1  0
 13 14  2  0
 14 15  1  0
 15 16  2  0
 17 16  1  0
 18 10  1  0
 19 18  2  0
 21 22  1  0
 21 20  1  6
 22 18  1  0
 23 21  1  0
 24 23  2  0
 25 23  1  0
M  END
$$$$
