MFA.pdb
     RDKit          3D

 25 25  0  0  1  0  0  0  0  0999 V2000
   14.5535  -14.0078  -20.7505 C   0  0  0  0  0  0  0  0  0  0  0  0
   15.7385  -13.5436  -19.5093 S   0  0  0  0  0  0  0  0  0  0  0  0
   17.4480  -13.7507  -19.9015 C   0  0  0  0  0  0  0  0  0  0  0  0
   18.4775  -13.3218  -18.9168 C   0  0  0  0  0  0  0  0  0  0  0  0
   19.7950  -13.9949  -18.9995 C   0  0  2  0  0  0  0  0  0  0  0  0
   19.7164  -15.4064  -18.7671 N   0  0  0  0  0  0  0  0  0  0  0  0
   20.7439  -13.4369  -17.9708 C   0  0  0  0  0  0  0  0  0  0  0  0
   20.8219  -13.9609  -16.8565 O   0  0  0  0  0  0  0  0  0  0  0  0
   21.5479  -12.3284  -18.2483 N   0  0  0  0  0  0  0  0  0  0  0  0
   22.4822  -11.7027  -17.3801 C   0  0  1  0  0  0  0  0  0  0  0  0
   23.8383  -11.4633  -17.9241 C   0  0  0  0  0  0  0  0  0  0  0  0
   24.8043  -10.9031  -16.9526 C   0  0  0  0  0  0  0  0  0  0  0  0
   25.3972  -11.6964  -16.0009 C   0  0  0  0  0  0  0  0  0  0  0  0
   26.3051  -11.2097  -15.0821 C   0  0  0  0  0  0  0  0  0  0  0  0
   26.6343   -9.8754  -15.1155 C   0  0  0  0  0  0  0  0  0  0  0  0
   26.0632   -9.0452  -16.0536 C   0  0  0  0  0  0  0  0  0  0  0  0
   25.1486   -9.5716  -16.9676 C   0  0  0  0  0  0  0  0  0  0  0  0
   21.8984  -10.3904  -16.9501 C   0  0  0  0  0  0  0  0  0  0  0  0
   21.4529   -9.5739  -17.7991 O   0  0  0  0  0  0  0  0  0  0  0  0
   20.7854   -8.7464  -13.7392 C   0  0  0  0  0  0  0  0  0  0  0  0
   21.2083   -8.7580  -15.1703 C   0  0  2  0  0  0  0  0  0  0  0  0
   21.8190  -10.0055  -15.5783 N   0  0  0  0  0  0  0  0  0  0  0  0
   22.0939   -7.5963  -15.4542 C   0  0  0  0  0  0  0  0  0  0  0  0
   21.6423   -6.4383  -15.2695 O   0  0  0  0  0  0  0  0  0  0  0  0
   23.3949   -7.7158  -15.9135 O   0  0  0  0  0  0  0  0  0  0  0  0
  1  2  1  0
  2  3  1  0
  4  5  1  0
  4  3  1  0
  5  6  1  1
  7  5  1  0
  7  8  2  0
  9  7  1  0
 10  9  1  0
 11 12  1  0
 10 11  1  6
 12 17  2  0
 13 12  1  0
 13 14  2  0
 14 15  1  0
 15 16  2  0
 17 16  1  0
 18 10  1  0
 19 18  2  0
 21 22  1  0
 21 20  1  1
 22 18  1  0
 23 21  1  0
 24 23  2  0
 25 23  1  0
M  END
$$$$
