MFA.pdb
     RDKit          3D

 25 25  0  0  1  0  0  0  0  0999 V2000
   35.6928  -37.0846   -3.6369 C   0  0  0  0  0  0  0  0  0  0  0  0
   35.0811  -38.0566   -4.9938 S   0  0  0  0  0  0  0  0  0  0  0  0
   33.9430  -37.2811   -6.0995 C   0  0  0  0  0  0  0  0  0  0  0  0
   33.0243  -36.2324   -5.5803 C   0  0  0  0  0  0  0  0  0  0  0  0
   32.0007  -35.7222   -6.5226 C   0  0  2  0  0  0  0  0  0  0  0  0
   32.5160  -34.7388   -7.4280 N   0  0  0  0  0  0  0  0  0  0  0  0
   30.8651  -35.0727   -5.7752 C   0  0  0  0  0  0  0  0  0  0  0  0
   30.9405  -33.8844   -5.4519 O   0  0  0  0  0  0  0  0  0  0  0  0
   29.7147  -35.7887   -5.4345 N   0  0  0  0  0  0  0  0  0  0  0  0
   28.5317  -35.2827   -4.8323 C   0  0  1  0  0  0  0  0  0  0  0  0
   27.2747  -35.4433   -5.5981 C   0  0  0  0  0  0  0  0  0  0  0  0
   26.9280  -34.2950   -6.4654 C   0  0  0  0  0  0  0  0  0  0  0  0
   26.1679  -33.2522   -5.9949 C   0  0  0  0  0  0  0  0  0  0  0  0
   25.8287  -32.1638   -6.7730 C   0  0  0  0  0  0  0  0  0  0  0  0
   26.2671  -32.1151   -8.0752 C   0  0  0  0  0  0  0  0  0  0  0  0
   27.0317  -33.1396   -8.5864 C   0  0  0  0  0  0  0  0  0  0  0  0
   27.3557  -34.2251   -7.7706 C   0  0  0  0  0  0  0  0  0  0  0  0
   28.3729  -35.9552   -3.5017 C   0  0  0  0  0  0  0  0  0  0  0  0
   28.4130  -37.2101   -3.4047 O   0  0  0  0  0  0  0  0  0  0  0  0
   28.0133  -34.9859    0.1446 C   0  0  0  0  0  0  0  0  0  0  0  0
   27.8633  -35.8763   -1.0436 C   0  0  2  0  0  0  0  0  0  0  0  0
   28.1713  -35.2190   -2.2959 N   0  0  0  0  0  0  0  0  0  0  0  0
   26.5046  -36.4829   -1.0633 C   0  0  0  0  0  0  0  0  0  0  0  0
   26.1710  -37.2385   -0.1162 O   0  0  0  0  0  0  0  0  0  0  0  0
   25.5795  -36.2635   -2.0701 O   0  0  0  0  0  0  0  0  0  0  0  0
  1  2  1  0
  2  3  1  0
  4  5  1  0
  4  3  1  0
  5  6  1  6
  7  5  1  0
  7  8  2  0
  9  7  1  0
 10  9  1  0
 11 12  1  0
 10 11  1  6
 12 17  2  0
 13 12  1  0
 13 14  2  0
 14 15  1  0
 15 16  2  0
 17 16  1  0
 18 10  1  0
 19 18  2  0
 21 22  1  0
 21 20  1  1
 22 18  1  0
 23 21  1  0
 24 23  2  0
 25 23  1  0
M  END
$$$$
