MFA.pdb
     RDKit          3D

 25 25  0  0  1  0  0  0  0  0999 V2000
   23.4253  -23.7374  -13.7242 C   0  0  0  0  0  0  0  0  0  0  0  0
   24.1998  -22.6231  -14.8726 S   0  0  0  0  0  0  0  0  0  0  0  0
   25.4735  -21.5705  -14.2489 C   0  0  0  0  0  0  0  0  0  0  0  0
   25.9745  -21.7772  -12.8634 C   0  0  0  0  0  0  0  0  0  0  0  0
   25.5873  -20.7581  -11.8596 C   0  0  2  0  0  0  0  0  0  0  0  0
   26.0120  -19.4365  -12.2134 N   0  0  0  0  0  0  0  0  0  0  0  0
   26.2029  -21.0689  -10.5201 C   0  0  0  0  0  0  0  0  0  0  0  0
   26.5009  -22.2315  -10.2342 O   0  0  0  0  0  0  0  0  0  0  0  0
   26.4484  -20.0635   -9.5814 N   0  0  0  0  0  0  0  0  0  0  0  0
   26.9629  -20.2194   -8.2665 C   0  0  1  0  0  0  0  0  0  0  0  0
   27.6378  -19.0429   -7.6728 C   0  0  0  0  0  0  0  0  0  0  0  0
   28.3084  -19.3022   -6.3790 C   0  0  0  0  0  0  0  0  0  0  0  0
   28.0315  -18.5418   -5.2692 C   0  0  0  0  0  0  0  0  0  0  0  0
   28.6339  -18.7573   -4.0462 C   0  0  0  0  0  0  0  0  0  0  0  0
   29.5509  -19.7746   -3.9268 C   0  0  0  0  0  0  0  0  0  0  0  0
   29.8572  -20.5610   -5.0146 C   0  0  0  0  0  0  0  0  0  0  0  0
   29.2286  -20.3144   -6.2364 C   0  0  0  0  0  0  0  0  0  0  0  0
   25.8258  -20.6212   -7.3757 C   0  0  0  0  0  0  0  0  0  0  0  0
   24.7484  -19.9692   -7.3718 O   0  0  0  0  0  0  0  0  0  0  0  0
   24.8173  -23.5741   -5.2721 C   0  0  0  0  0  0  0  0  0  0  0  0
   24.7971  -22.1312   -5.6523 C   0  0  2  0  0  0  0  0  0  0  0  0
   25.9049  -21.7456   -6.5005 N   0  0  0  0  0  0  0  0  0  0  0  0
   24.7176  -21.2796   -4.4345 C   0  0  0  0  0  0  0  0  0  0  0  0
   25.6983  -20.5473   -4.1495 O   0  0  0  0  0  0  0  0  0  0  0  0
   23.6204  -21.2459   -3.5905 O   0  0  0  0  0  0  0  0  0  0  0  0
  1  2  1  0
  2  3  1  0
  4  5  1  0
  4  3  1  0
  5  6  1  6
  7  5  1  0
  7  8  2  0
  9  7  1  0
 10  9  1  0
 11 12  1  0
 10 11  1  1
 12 17  2  0
 13 12  1  0
 13 14  2  0
 14 15  1  0
 15 16  2  0
 17 16  1  0
 18 10  1  0
 19 18  2  0
 21 22  1  0
 21 20  1  1
 22 18  1  0
 23 21  1  0
 24 23  2  0
 25 23  1  0
M  END
$$$$
