MFA.pdb
     RDKit          3D

 25 25  0  0  1  0  0  0  0  0999 V2000
   25.8853  -16.2715  -14.8932 C   0  0  0  0  0  0  0  0  0  0  0  0
   27.5882  -16.6198  -15.2659 S   0  0  0  0  0  0  0  0  0  0  0  0
   27.9783  -18.2453  -15.8358 C   0  0  0  0  0  0  0  0  0  0  0  0
   27.3250  -19.4176  -15.1938 C   0  0  0  0  0  0  0  0  0  0  0  0
   27.9394  -19.9148  -13.9404 C   0  0  2  0  0  0  0  0  0  0  0  0
   29.1014  -20.7208  -14.1696 N   0  0  0  0  0  0  0  0  0  0  0  0
   26.9641  -20.7666  -13.1702 C   0  0  0  0  0  0  0  0  0  0  0  0
   26.8158  -21.9548  -13.4676 O   0  0  0  0  0  0  0  0  0  0  0  0
   26.2140  -20.2407  -12.1153 N   0  0  0  0  0  0  0  0  0  0  0  0
   25.2468  -20.9170  -11.3247 C   0  0  1  0  0  0  0  0  0  0  0  0
   25.0691  -20.4360   -9.9357 C   0  0  0  0  0  0  0  0  0  0  0  0
   26.2973  -20.4629   -9.1101 C   0  0  0  0  0  0  0  0  0  0  0  0
   26.5291  -19.5099   -8.1485 C   0  0  0  0  0  0  0  0  0  0  0  0
   27.6602  -19.5058   -7.3576 C   0  0  0  0  0  0  0  0  0  0  0  0
   28.5987  -20.4948   -7.5344 C   0  0  0  0  0  0  0  0  0  0  0  0
   28.4051  -21.4696   -8.4871 C   0  0  0  0  0  0  0  0  0  0  0  0
   27.2492  -21.4427   -9.2694 C   0  0  0  0  0  0  0  0  0  0  0  0
   23.9305  -20.8263  -12.0367 C   0  0  0  0  0  0  0  0  0  0  0  0
   23.4688  -19.7120  -12.3987 O   0  0  0  0  0  0  0  0  0  0  0  0
   21.5646  -23.2039  -13.7633 C   0  0  0  0  0  0  0  0  0  0  0  0
   21.9512  -21.8997  -13.1496 C   0  0  2  0  0  0  0  0  0  0  0  0
   23.1457  -21.9800  -12.3358 N   0  0  0  0  0  0  0  0  0  0  0  0
   20.8067  -21.3308  -12.3873 C   0  0  0  0  0  0  0  0  0  0  0  0
   20.9388  -21.1528  -11.1504 O   0  0  0  0  0  0  0  0  0  0  0  0
   19.5962  -20.9838  -12.9633 O   0  0  0  0  0  0  0  0  0  0  0  0
  1  2  1  0
  2  3  1  0
  4  5  1  0
  4  3  1  0
  5  6  1  6
  7  5  1  0
  7  8  2  0
  9  7  1  0
 10  9  1  0
 11 12  1  0
 10 11  1  1
 12 17  2  0
 13 12  1  0
 13 14  2  0
 14 15  1  0
 15 16  2  0
 17 16  1  0
 18 10  1  0
 19 18  2  0
 21 22  1  0
 21 20  1  1
 22 18  1  0
 23 21  1  0
 24 23  2  0
 25 23  1  0
M  END
$$$$
