SIS.pdb
     RDKit          3D

 21 20  0  0  1  0  0  0  0  0999 V2000
   11.6808  -23.2947    1.0475 O   0  0  0  0  0  0  0  0  0  0  0  0
   12.8752  -23.1370    1.7086 C   0  0  0  0  0  0  0  0  0  0  0  0
   13.7323  -22.0247    1.1643 C   0  0  2  0  0  0  0  0  0  0  0  0
   14.1572  -22.3797   -0.1635 N   0  0  0  0  0  0  0  0  0  0  0  0
   14.9411  -21.9286    2.0246 C   0  0  0  0  0  0  0  0  0  0  0  0
   15.9279  -22.7143    1.9103 O   0  0  0  0  0  0  0  0  0  0  0  0
   17.8297  -17.5865    2.1731 C   0  0  0  0  0  0  0  0  0  0  0  0
   17.3809  -19.0344    2.2181 C   0  0  0  0  0  0  0  0  0  0  0  0
   16.8250  -19.2970    3.5798 C   0  0  2  0  0  0  0  0  0  0  0  0
   17.8105  -18.9477    4.6535 C   0  0  0  0  0  0  0  0  0  0  0  0
   16.2809  -20.6911    3.7507 C   0  0  2  0  0  0  0  0  0  0  0  0
   15.0593  -20.9228    3.0504 N   0  0  0  0  0  0  0  0  0  0  0  0
   16.1746  -21.0236    5.2042 C   0  0  0  0  0  0  0  0  0  0  0  0
   15.3593  -20.3764    5.9099 O   0  0  0  0  0  0  0  0  0  0  0  0
   18.4721  -24.0090    7.1904 O   0  0  0  0  0  0  0  0  0  0  0  0
   17.1652  -23.7486    7.5554 C   0  0  0  0  0  0  0  0  0  0  0  0
   16.7180  -22.3500    7.2021 C   0  0  2  0  0  0  0  0  0  0  0  0
   16.9426  -22.0249    5.8192 N   0  0  0  0  0  0  0  0  0  0  0  0
   17.4486  -21.4180    8.1130 C   0  0  0  0  0  0  0  0  0  0  0  0
   18.3413  -20.6454    7.6716 O   0  0  0  0  0  0  0  0  0  0  0  0
   17.1068  -21.4369    9.4578 O   0  0  0  0  0  0  0  0  0  0  0  0
  2  1  1  0
  3  4  1  6
  3  2  1  0
  5  3  1  0
  6  5  2  0
  8  9  1  0
  8  7  1  0
  9 11  1  0
  9 10  1  1
 11 13  1  0
 11 12  1  1
 12  5  1  0
 13 18  1  0
 14 13  2  0
 17 16  1  6
 16 15  1  0
 17 19  1  0
 18 17  1  0
 19 20  2  0
 19 21  1  0
M  END
$$$$
