SIS.pdb
     RDKit          3D

 21 20  0  0  1  0  0  0  0  0999 V2000
   16.6094   -9.9916  -19.2884 O   0  0  0  0  0  0  0  0  0  0  0  0
   17.3169   -9.6559  -18.1591 C   0  0  0  0  0  0  0  0  0  0  0  0
   18.2198  -10.7512  -17.6559 C   0  0  2  0  0  0  0  0  0  0  0  0
   17.4042  -11.8287  -17.1625 N   0  0  0  0  0  0  0  0  0  0  0  0
   18.9974  -10.2017  -16.5141 C   0  0  0  0  0  0  0  0  0  0  0  0
   18.5498  -10.1756  -15.3295 O   0  0  0  0  0  0  0  0  0  0  0  0
   23.7088  -11.8888  -15.0544 C   0  0  0  0  0  0  0  0  0  0  0  0
   22.3059  -11.3285  -15.1874 C   0  0  0  0  0  0  0  0  0  0  0  0
   22.4233   -9.8598  -15.4350 C   0  0  2  0  0  0  0  0  0  0  0  0
   23.2738   -9.1928  -14.3967 C   0  0  0  0  0  0  0  0  0  0  0  0
   21.0956   -9.1679  -15.6007 C   0  0  2  0  0  0  0  0  0  0  0  0
   20.3214   -9.6608  -16.6934 N   0  0  0  0  0  0  0  0  0  0  0  0
   21.2955   -7.6880  -15.6677 C   0  0  0  0  0  0  0  0  0  0  0  0
   21.8834   -7.2064  -16.6696 O   0  0  0  0  0  0  0  0  0  0  0  0
   19.9512   -3.2418  -14.6325 O   0  0  0  0  0  0  0  0  0  0  0  0
   19.8193   -4.5982  -14.4047 C   0  0  0  0  0  0  0  0  0  0  0  0
   21.0325   -5.3917  -14.8287 C   0  0  2  0  0  0  0  0  0  0  0  0
   20.8574   -6.8096  -14.6640 N   0  0  0  0  0  0  0  0  0  0  0  0
   22.1858   -4.8819  -14.0273 C   0  0  0  0  0  0  0  0  0  0  0  0
   22.4117   -5.3160  -12.8657 O   0  0  0  0  0  0  0  0  0  0  0  0
   22.9942   -3.9162  -14.6099 O   0  0  0  0  0  0  0  0  0  0  0  0
  2  1  1  0
  3  4  1  1
  3  2  1  0
  5  3  1  0
  6  5  2  0
  8  9  1  0
  8  7  1  0
  9 11  1  0
  9 10  1  1
 11 13  1  0
 11 12  1  6
 12  5  1  0
 13 18  1  0
 14 13  2  0
 17 16  1  1
 16 15  1  0
 17 19  1  0
 18 17  1  0
 19 20  2  0
 19 21  1  0
M  END
$$$$
