SIS.pdb
     RDKit          3D

 21 20  0  0  1  0  0  0  0  0999 V2000
   38.0013  -27.1515    5.2199 O   0  0  0  0  0  0  0  0  0  0  0  0
   37.6732  -26.0488    5.9715 C   0  0  0  0  0  0  0  0  0  0  0  0
   37.7658  -24.7473    5.2193 C   0  0  2  0  0  0  0  0  0  0  0  0
   39.1269  -24.2841    5.2684 N   0  0  0  0  0  0  0  0  0  0  0  0
   36.9160  -23.7568    5.9314 C   0  0  0  0  0  0  0  0  0  0  0  0
   37.3438  -23.0528    6.8935 O   0  0  0  0  0  0  0  0  0  0  0  0
   33.2171  -19.7663    5.0380 C   0  0  0  0  0  0  0  0  0  0  0  0
   32.7900  -20.9600    5.8702 C   0  0  0  0  0  0  0  0  0  0  0  0
   33.5168  -22.1589    5.3539 C   0  0  2  0  0  0  0  0  0  0  0  0
   32.6014  -23.3363    5.2067 C   0  0  0  0  0  0  0  0  0  0  0  0
   34.7505  -22.5039    6.1464 C   0  0  2  0  0  0  0  0  0  0  0  0
   35.5398  -23.5393    5.5621 N   0  0  0  0  0  0  0  0  0  0  0  0
   34.3805  -22.8024    7.5636 C   0  0  0  0  0  0  0  0  0  0  0  0
   33.9997  -23.9657    7.8524 O   0  0  0  0  0  0  0  0  0  0  0  0
   36.3922  -21.8603   10.6569 O   0  0  0  0  0  0  0  0  0  0  0  0
   35.0628  -21.6293   10.9545 C   0  0  0  0  0  0  0  0  0  0  0  0
   34.1157  -22.2220    9.9383 C   0  0  2  0  0  0  0  0  0  0  0  0
   34.4381  -21.8447    8.5884 N   0  0  0  0  0  0  0  0  0  0  0  0
   32.7397  -21.7822   10.3198 C   0  0  0  0  0  0  0  0  0  0  0  0
   32.0667  -21.0283    9.5665 O   0  0  0  0  0  0  0  0  0  0  0  0
   32.2348  -22.2346   11.5306 O   0  0  0  0  0  0  0  0  0  0  0  0
  2  1  1  0
  3  4  1  1
  3  2  1  0
  5  3  1  0
  6  5  2  0
  8  9  1  0
  8  7  1  0
  9 11  1  0
  9 10  1  1
 11 13  1  0
 11 12  1  6
 12  5  1  0
 13 18  1  0
 14 13  2  0
 17 16  1  1
 16 15  1  0
 17 19  1  0
 18 17  1  0
 19 20  2  0
 19 21  1  0
M  END
$$$$
