SIS.pdb
     RDKit          3D

 21 20  0  0  1  0  0  0  0  0999 V2000
   10.4769  -11.3444  -11.4697 O   0  0  0  0  0  0  0  0  0  0  0  0
   11.6695  -10.7639  -11.1099 C   0  0  0  0  0  0  0  0  0  0  0  0
   12.8772  -11.6107  -11.4138 C   0  0  2  0  0  0  0  0  0  0  0  0
   12.8078  -12.8107  -10.6233 N   0  0  0  0  0  0  0  0  0  0  0  0
   14.0791  -10.8467  -10.9870 C   0  0  0  0  0  0  0  0  0  0  0  0
   14.4556  -10.7799   -9.7796 O   0  0  0  0  0  0  0  0  0  0  0  0
   18.6074  -11.1328  -13.9405 C   0  0  0  0  0  0  0  0  0  0  0  0
   17.4532  -11.1018  -12.9573 C   0  0  0  0  0  0  0  0  0  0  0  0
   17.2262   -9.6780  -12.5658 C   0  0  2  0  0  0  0  0  0  0  0  0
   18.4965   -9.0213  -12.1171 C   0  0  0  0  0  0  0  0  0  0  0  0
   16.1175   -9.4978  -11.5622 C   0  0  2  0  0  0  0  0  0  0  0  0
   14.8938  -10.1298  -11.9357 N   0  0  0  0  0  0  0  0  0  0  0  0
   15.9369   -8.0459  -11.2556 C   0  0  0  0  0  0  0  0  0  0  0  0
   15.4062   -7.3100  -12.1264 O   0  0  0  0  0  0  0  0  0  0  0  0
   15.4747   -6.4767   -7.4635 O   0  0  0  0  0  0  0  0  0  0  0  0
   16.2260   -5.7052   -8.3291 C   0  0  0  0  0  0  0  0  0  0  0  0
   16.0337   -6.0822   -9.7790 C   0  0  2  0  0  0  0  0  0  0  0  0
   16.3320   -7.4646  -10.0404 N   0  0  0  0  0  0  0  0  0  0  0  0
   16.9014   -5.1695  -10.5830 C   0  0  0  0  0  0  0  0  0  0  0  0
   17.8645   -5.6190  -11.2605 O   0  0  0  0  0  0  0  0  0  0  0  0
   16.6059   -3.8139  -10.5542 O   0  0  0  0  0  0  0  0  0  0  0  0
  2  1  1  0
  3  4  1  1
  3  2  1  0
  5  3  1  0
  6  5  2  0
  8  9  1  0
  8  7  1  0
  9 11  1  0
  9 10  1  1
 11 13  1  0
 11 12  1  6
 12  5  1  0
 13 18  1  0
 14 13  2  0
 17 16  1  1
 16 15  1  0
 17 19  1  0
 18 17  1  0
 19 20  2  0
 19 21  1  0
M  END
$$$$
