SIS.pdb
     RDKit          3D

 21 20  0  0  1  0  0  0  0  0999 V2000
   22.2243  -11.2581  -21.5457 O   0  0  0  0  0  0  0  0  0  0  0  0
   21.5213  -10.9450  -20.4072 C   0  0  0  0  0  0  0  0  0  0  0  0
   21.8403  -11.8284  -19.2300 C   0  0  2  0  0  0  0  0  0  0  0  0
   21.2006  -13.1022  -19.4247 N   0  0  0  0  0  0  0  0  0  0  0  0
   21.2487  -11.1957  -18.0216 C   0  0  0  0  0  0  0  0  0  0  0  0
   20.0707  -11.4414  -17.6265 O   0  0  0  0  0  0  0  0  0  0  0  0
   22.4823   -9.7186  -12.3891 C   0  0  0  0  0  0  0  0  0  0  0  0
   21.5762   -9.3933  -13.5609 C   0  0  0  0  0  0  0  0  0  0  0  0
   22.2351   -9.9021  -14.8014 C   0  0  2  0  0  0  0  0  0  0  0  0
   23.6427   -9.4020  -14.9219 C   0  0  0  0  0  0  0  0  0  0  0  0
   21.4403   -9.6460  -16.0550 C   0  0  2  0  0  0  0  0  0  0  0  0
   21.9921  -10.2549  -17.2217 N   0  0  0  0  0  0  0  0  0  0  0  0
   21.2209   -8.1778  -16.2300 C   0  0  0  0  0  0  0  0  0  0  0  0
   22.1724   -7.4755  -16.6578 O   0  0  0  0  0  0  0  0  0  0  0  0
   17.7261   -6.6707  -17.4898 O   0  0  0  0  0  0  0  0  0  0  0  0
   18.3335   -5.8515  -16.5576 C   0  0  0  0  0  0  0  0  0  0  0  0
   19.7915   -6.1801  -16.3395 C   0  0  2  0  0  0  0  0  0  0  0  0
   20.0019   -7.5452  -15.9389 N   0  0  0  0  0  0  0  0  0  0  0  0
   20.3039   -5.2200  -15.3158 C   0  0  0  0  0  0  0  0  0  0  0  0
   20.6731   -5.6191  -14.1787 O   0  0  0  0  0  0  0  0  0  0  0  0
   20.3568   -3.8781  -15.6653 O   0  0  0  0  0  0  0  0  0  0  0  0
  2  1  1  0
  3  4  1  6
  3  2  1  0
  5  3  1  0
  6  5  2  0
  8  9  1  0
  8  7  1  0
  9 11  1  0
  9 10  1  6
 11 13  1  0
 11 12  1  6
 12  5  1  0
 13 18  1  0
 14 13  2  0
 17 16  1  1
 16 15  1  0
 17 19  1  0
 18 17  1  0
 19 20  2  0
 19 21  1  0
M  END
$$$$
