KSN.pdb
     RDKit          3D

 24 23  0  0  1  0  0  0  0  0999 V2000
    8.9286  -17.0234   16.2194 N   0  0  0  0  0  0  0  0  0  0  0  0
    7.9187  -17.2831   17.2115 C   0  0  1  0  0  0  0  0  0  0  0  0
    7.6908  -18.7359   17.5068 C   0  0  0  0  0  0  0  0  0  0  0  0
    8.5454  -19.7103   16.7966 C   0  0  0  0  0  0  0  0  0  0  0  0
    8.1930  -21.1486   17.0146 C   0  0  0  0  0  0  0  0  0  0  0  0
    9.1474  -22.0672   16.2489 C   0  0  0  0  0  0  0  0  0  0  0  0
    8.8429  -23.4349   16.6014 N   0  0  0  0  0  0  0  0  0  0  0  0
    8.3852  -16.5950   18.4715 C   0  0  0  0  0  0  0  0  0  0  0  0
    9.6110  -16.5424   18.6492 O   0  0  0  0  0  0  0  0  0  0  0  0
    5.8745  -15.7445   21.7195 O   0  0  0  0  0  0  0  0  0  0  0  0
    6.8095  -14.7645   21.3928 C   0  0  0  0  0  0  0  0  0  0  0  0
    7.9226  -15.4199   20.6506 C   0  0  2  0  0  0  0  0  0  0  0  0
    7.5034  -16.0350   19.4109 N   0  0  0  0  0  0  0  0  0  0  0  0
    8.4492  -16.5271   21.5307 C   0  0  0  0  0  0  0  0  0  0  0  0
    8.4451  -17.7297   21.1613 O   0  0  0  0  0  0  0  0  0  0  0  0
   13.7548  -15.9396   22.7585 N   0  0  0  0  0  0  0  0  0  0  0  0
   12.6243  -16.7969   22.8484 C   0  0  0  0  0  0  0  0  0  0  0  0
   12.7101  -17.9674   23.3005 O   0  0  0  0  0  0  0  0  0  0  0  0
   11.3138  -16.2994   22.3986 C   0  0  0  0  0  0  0  0  0  0  0  0
   10.2204  -16.8296   23.2993 C   0  0  2  0  0  0  0  0  0  0  0  0
    8.9734  -16.2338   22.8240 N   0  0  0  0  0  0  0  0  0  0  0  0
   10.4045  -16.3668   24.6996 C   0  0  0  0  0  0  0  0  0  0  0  0
   10.5782  -17.3190   25.7078 O   0  0  0  0  0  0  0  0  0  0  0  0
   10.4146  -15.1580   25.0444 O   0  0  0  0  0  0  0  0  0  0  0  0
  2  1  1  6
  3  2  1  0
  4  5  1  0
  4  3  1  0
  5  6  1  0
  6  7  1  0
  8 13  1  0
  8  2  1  0
  9  8  2  0
 10 11  1  0
 12 11  1  1
 12 13  1  0
 12 14  1  0
 14 15  2  0
 17 16  1  0
 17 19  1  0
 18 17  2  0
 20 19  1  6
 21 14  1  0
 21 20  1  0
 22 20  1  0
 22 23  1  0
 24 22  2  0
M  END
$$$$
