KSN.pdb
     RDKit          3D

 24 23  0  0  1  0  0  0  0  0999 V2000
   12.2078  -17.9977   15.7603 N   0  0  0  0  0  0  0  0  0  0  0  0
   12.1236  -19.0958   16.6869 C   0  0  1  0  0  0  0  0  0  0  0  0
   13.0235  -20.2530   16.3691 C   0  0  0  0  0  0  0  0  0  0  0  0
   13.4191  -20.4312   14.9563 C   0  0  0  0  0  0  0  0  0  0  0  0
   14.2232  -21.6601   14.6672 C   0  0  0  0  0  0  0  0  0  0  0  0
   14.6147  -21.7218   13.1894 C   0  0  0  0  0  0  0  0  0  0  0  0
   15.4324  -22.8952   12.9842 N   0  0  0  0  0  0  0  0  0  0  0  0
   12.5061  -18.5344   18.0349 C   0  0  0  0  0  0  0  0  0  0  0  0
   13.5025  -17.7973   18.0623 O   0  0  0  0  0  0  0  0  0  0  0  0
   10.4920  -19.6702   21.4165 O   0  0  0  0  0  0  0  0  0  0  0  0
   11.0247  -18.3856   21.5039 C   0  0  0  0  0  0  0  0  0  0  0  0
   12.1311  -18.2779   20.5122 C   0  0  2  0  0  0  0  0  0  0  0  0
   11.7923  -18.8132   19.2123 N   0  0  0  0  0  0  0  0  0  0  0  0
   13.2789  -19.1044   21.0387 C   0  0  0  0  0  0  0  0  0  0  0  0
   13.9483  -19.8649   20.2929 O   0  0  0  0  0  0  0  0  0  0  0  0
   16.5259  -19.2355   19.8080 N   0  0  0  0  0  0  0  0  0  0  0  0
   16.2469  -19.9687   20.9934 C   0  0  0  0  0  0  0  0  0  0  0  0
   16.1999  -21.2256   21.0039 O   0  0  0  0  0  0  0  0  0  0  0  0
   16.0055  -19.2347   22.2465 C   0  0  0  0  0  0  0  0  0  0  0  0
   14.7823  -19.7869   22.9441 C   0  0  2  0  0  0  0  0  0  0  0  0
   13.6396  -19.0436   22.4170 N   0  0  0  0  0  0  0  0  0  0  0  0
   14.8269  -19.5157   24.4047 C   0  0  0  0  0  0  0  0  0  0  0  0
   13.9725  -18.5465   24.9376 O   0  0  0  0  0  0  0  0  0  0  0  0
   15.5932  -20.1079   25.2061 O   0  0  0  0  0  0  0  0  0  0  0  0
  2  1  1  6
  3  2  1  0
  4  5  1  0
  4  3  1  0
  5  6  1  0
  6  7  1  0
  8 13  1  0
  8  2  1  0
  9  8  2  0
 10 11  1  0
 12 11  1  1
 12 13  1  0
 12 14  1  0
 14 15  2  0
 17 16  1  0
 17 19  1  0
 18 17  2  0
 20 19  1  6
 21 14  1  0
 21 20  1  0
 22 20  1  0
 22 23  1  0
 24 22  2  0
M  END
$$$$
