KSN.pdb
     RDKit          3D

 24 23  0  0  1  0  0  0  0  0999 V2000
   10.9794  -16.4851   13.8133 N   0  0  0  0  0  0  0  0  0  0  0  0
   11.7298  -17.6666   14.1490 C   0  0  1  0  0  0  0  0  0  0  0  0
   12.8579  -17.9787   13.2110 C   0  0  0  0  0  0  0  0  0  0  0  0
   12.5555  -17.9639   11.7645 C   0  0  0  0  0  0  0  0  0  0  0  0
   13.6983  -18.3263   10.8683 C   0  0  0  0  0  0  0  0  0  0  0  0
   13.3133  -18.1590    9.3970 C   0  0  0  0  0  0  0  0  0  0  0  0
   14.4983  -18.3487    8.5923 N   0  0  0  0  0  0  0  0  0  0  0  0
   12.2931  -17.4250   15.5285 C   0  0  0  0  0  0  0  0  0  0  0  0
   13.1414  -16.5265   15.6277 O   0  0  0  0  0  0  0  0  0  0  0  0
   10.5667  -19.0858   18.8443 O   0  0  0  0  0  0  0  0  0  0  0  0
   11.3527  -17.9525   19.0417 C   0  0  0  0  0  0  0  0  0  0  0  0
   12.4094  -17.9369   17.9918 C   0  0  2  0  0  0  0  0  0  0  0  0
   11.8980  -18.1611   16.6579 N   0  0  0  0  0  0  0  0  0  0  0  0
   13.3510  -19.0767   18.2952 C   0  0  0  0  0  0  0  0  0  0  0  0
   13.0775  -20.2656   17.9881 O   0  0  0  0  0  0  0  0  0  0  0  0
   17.1218  -18.1048   21.4255 N   0  0  0  0  0  0  0  0  0  0  0  0
   16.8675  -18.0132   20.0299 C   0  0  0  0  0  0  0  0  0  0  0  0
   16.5951  -16.9190   19.4727 O   0  0  0  0  0  0  0  0  0  0  0  0
   16.9248  -19.2361   19.2122 C   0  0  0  0  0  0  0  0  0  0  0  0
   15.5660  -19.8995   19.1747 C   0  0  2  0  0  0  0  0  0  0  0  0
   14.5947  -18.8312   18.9483 N   0  0  0  0  0  0  0  0  0  0  0  0
   15.2277  -20.5087   20.4874 C   0  0  0  0  0  0  0  0  0  0  0  0
   15.9988  -21.5766   20.9547 O   0  0  0  0  0  0  0  0  0  0  0  0
   14.2800  -20.1228   21.2176 O   0  0  0  0  0  0  0  0  0  0  0  0
  2  1  1  6
  3  2  1  0
  4  5  1  0
  4  3  1  0
  5  6  1  0
  6  7  1  0
  8 13  1  0
  8  2  1  0
  9  8  2  0
 10 11  1  0
 12 11  1  1
 12 13  1  0
 12 14  1  0
 14 15  2  0
 17 16  1  0
 17 19  1  0
 18 17  2  0
 20 19  1  1
 21 14  1  0
 21 20  1  0
 22 20  1  0
 22 23  1  0
 24 22  2  0
M  END
$$$$
