KSN.pdb
     RDKit          3D

 24 23  0  0  1  0  0  0  0  0999 V2000
   10.5706  -17.6171   18.0827 N   0  0  0  0  0  0  0  0  0  0  0  0
   10.2080  -18.1221   19.3808 C   0  0  1  0  0  0  0  0  0  0  0  0
   10.7990  -19.4584   19.7197 C   0  0  0  0  0  0  0  0  0  0  0  0
   12.2036  -19.6940   19.3250 C   0  0  0  0  0  0  0  0  0  0  0  0
   12.6750  -21.1090   19.4511 C   0  0  0  0  0  0  0  0  0  0  0  0
   14.1244  -21.2462   18.9808 C   0  0  0  0  0  0  0  0  0  0  0  0
   14.5616  -22.5982   19.2428 N   0  0  0  0  0  0  0  0  0  0  0  0
   10.7015  -17.1018   20.3779 C   0  0  0  0  0  0  0  0  0  0  0  0
   11.7069  -16.4540   20.0518 O   0  0  0  0  0  0  0  0  0  0  0  0
    8.8692  -16.6145   24.0499 O   0  0  0  0  0  0  0  0  0  0  0  0
    9.3473  -15.4416   23.4693 C   0  0  0  0  0  0  0  0  0  0  0  0
   10.4377  -15.8081   22.5227 C   0  0  2  0  0  0  0  0  0  0  0  0
   10.0774  -16.8754   21.6160 N   0  0  0  0  0  0  0  0  0  0  0  0
   11.5929  -16.3122   23.3528 C   0  0  0  0  0  0  0  0  0  0  0  0
   12.1552  -15.5920   24.2177 O   0  0  0  0  0  0  0  0  0  0  0  0
   15.0934  -19.4537   25.3626 N   0  0  0  0  0  0  0  0  0  0  0  0
   13.8534  -20.1381   25.2396 C   0  0  0  0  0  0  0  0  0  0  0  0
   13.6753  -21.2860   25.7219 O   0  0  0  0  0  0  0  0  0  0  0  0
   12.7446  -19.4834   24.5262 C   0  0  0  0  0  0  0  0  0  0  0  0
   13.2009  -18.1551   23.9647 C   0  0  2  0  0  0  0  0  0  0  0  0
   12.0847  -17.6389   23.1751 N   0  0  0  0  0  0  0  0  0  0  0  0
   14.3393  -18.3301   23.0253 C   0  0  0  0  0  0  0  0  0  0  0  0
   15.5879  -17.8071   23.3731 O   0  0  0  0  0  0  0  0  0  0  0  0
   14.2543  -18.9259   21.9217 O   0  0  0  0  0  0  0  0  0  0  0  0
  2  1  1  6
  3  2  1  0
  4  5  1  0
  4  3  1  0
  5  6  1  0
  6  7  1  0
  8 13  1  0
  8  2  1  0
  9  8  2  0
 10 11  1  0
 12 11  1  1
 12 13  1  0
 12 14  1  0
 14 15  2  0
 17 16  1  0
 17 19  1  0
 18 17  2  0
 20 19  1  6
 21 14  1  0
 21 20  1  0
 22 20  1  0
 22 23  1  0
 24 22  2  0
M  END
$$$$
