KSN.pdb
     RDKit          3D

 24 23  0  0  1  0  0  0  0  0999 V2000
    7.4706  -19.1356   18.4758 N   0  0  0  0  0  0  0  0  0  0  0  0
    8.6155  -18.4391   17.9507 C   0  0  1  0  0  0  0  0  0  0  0  0
    8.3584  -17.6793   16.6833 C   0  0  0  0  0  0  0  0  0  0  0  0
    6.9869  -17.7274   16.1348 C   0  0  0  0  0  0  0  0  0  0  0  0
    6.8899  -18.0866   14.6850 C   0  0  0  0  0  0  0  0  0  0  0  0
    5.4467  -17.9741   14.1895 C   0  0  0  0  0  0  0  0  0  0  0  0
    5.3969  -18.4431   12.8238 N   0  0  0  0  0  0  0  0  0  0  0  0
    9.0421  -17.4684   19.0252 C   0  0  0  0  0  0  0  0  0  0  0  0
    8.4432  -16.3834   19.0570 O   0  0  0  0  0  0  0  0  0  0  0  0
    8.5731  -16.9493   23.1743 O   0  0  0  0  0  0  0  0  0  0  0  0
    8.5469  -17.1798   21.8004 C   0  0  0  0  0  0  0  0  0  0  0  0
    9.8991  -17.6484   21.3867 C   0  0  2  0  0  0  0  0  0  0  0  0
   10.0587  -17.7497   19.9530 N   0  0  0  0  0  0  0  0  0  0  0  0
   10.0747  -19.0397   21.9445 C   0  0  0  0  0  0  0  0  0  0  0  0
    9.9502  -20.0652   21.2264 O   0  0  0  0  0  0  0  0  0  0  0  0
   14.9879  -20.2707   23.6684 N   0  0  0  0  0  0  0  0  0  0  0  0
   13.7450  -20.7732   23.1957 C   0  0  0  0  0  0  0  0  0  0  0  0
   13.5469  -22.0028   23.0200 O   0  0  0  0  0  0  0  0  0  0  0  0
   12.6571  -19.8257   22.9028 C   0  0  0  0  0  0  0  0  0  0  0  0
   11.4443  -20.1510   23.7461 C   0  0  2  0  0  0  0  0  0  0  0  0
   10.3914  -19.2306   23.3217 N   0  0  0  0  0  0  0  0  0  0  0  0
   11.6973  -19.8717   25.1837 C   0  0  0  0  0  0  0  0  0  0  0  0
   12.1264  -18.5952   25.5579 O   0  0  0  0  0  0  0  0  0  0  0  0
   11.5494  -20.7188   26.1006 O   0  0  0  0  0  0  0  0  0  0  0  0
  2  1  1  1
  3  2  1  0
  4  5  1  0
  4  3  1  0
  5  6  1  0
  6  7  1  0
  8 13  1  0
  8  2  1  0
  9  8  2  0
 10 11  1  0
 12 11  1  6
 12 13  1  0
 12 14  1  0
 14 15  2  0
 17 16  1  0
 17 19  1  0
 18 17  2  0
 20 19  1  6
 21 14  1  0
 21 20  1  0
 22 20  1  0
 22 23  1  0
 24 22  2  0
M  END
$$$$
