KSN.pdb
     RDKit          3D

 24 23  0  0  1  0  0  0  0  0999 V2000
   11.1565  -19.0183   14.9871 N   0  0  0  0  0  0  0  0  0  0  0  0
   10.5727  -19.8841   15.9775 C   0  0  1  0  0  0  0  0  0  0  0  0
   10.9310  -21.3333   15.8310 C   0  0  0  0  0  0  0  0  0  0  0  0
   12.3454  -21.6524   15.5454 C   0  0  0  0  0  0  0  0  0  0  0  0
   12.6383  -23.1001   15.3028 C   0  0  0  0  0  0  0  0  0  0  0  0
   14.1365  -23.3265   15.0906 C   0  0  0  0  0  0  0  0  0  0  0  0
   14.3577  -24.7386   14.8794 N   0  0  0  0  0  0  0  0  0  0  0  0
   11.0743  -19.3887   17.3124 C   0  0  0  0  0  0  0  0  0  0  0  0
   12.2060  -18.8827   17.3225 O   0  0  0  0  0  0  0  0  0  0  0  0
    8.7796  -19.7595   20.7244 O   0  0  0  0  0  0  0  0  0  0  0  0
    9.6862  -18.7016   20.7342 C   0  0  0  0  0  0  0  0  0  0  0  0
   10.7894  -19.0324   19.7893 C   0  0  2  0  0  0  0  0  0  0  0  0
   10.3236  -19.4816   18.4962 N   0  0  0  0  0  0  0  0  0  0  0  0
   11.5630  -20.1774   20.3962 C   0  0  0  0  0  0  0  0  0  0  0  0
   11.4206  -21.3621   19.9975 O   0  0  0  0  0  0  0  0  0  0  0  0
   15.9655  -23.0420   21.1888 N   0  0  0  0  0  0  0  0  0  0  0  0
   15.5194  -21.9793   22.0211 C   0  0  0  0  0  0  0  0  0  0  0  0
   15.8445  -21.9012   23.2336 O   0  0  0  0  0  0  0  0  0  0  0  0
   14.6505  -20.9392   21.4463 C   0  0  0  0  0  0  0  0  0  0  0  0
   13.2661  -21.0278   22.0492 C   0  0  2  0  0  0  0  0  0  0  0  0
   12.4899  -19.9420   21.4540 N   0  0  0  0  0  0  0  0  0  0  0  0
   13.2989  -20.7725   23.5130 C   0  0  0  0  0  0  0  0  0  0  0  0
   13.2955  -21.8620   24.3884 O   0  0  0  0  0  0  0  0  0  0  0  0
   13.3298  -19.6250   24.0255 O   0  0  0  0  0  0  0  0  0  0  0  0
  2  1  1  6
  3  2  1  0
  4  5  1  0
  4  3  1  0
  5  6  1  0
  6  7  1  0
  8 13  1  0
  8  2  1  0
  9  8  2  0
 10 11  1  0
 12 11  1  1
 12 13  1  0
 12 14  1  0
 14 15  2  0
 17 16  1  0
 17 19  1  0
 18 17  2  0
 20 19  1  6
 21 14  1  0
 21 20  1  0
 22 20  1  0
 22 23  1  0
 24 22  2  0
M  END
$$$$
