KSN.pdb
     RDKit          3D

 24 23  0  0  1  0  0  0  0  0999 V2000
    8.4125  -20.5615   17.6768 N   0  0  0  0  0  0  0  0  0  0  0  0
    9.0042  -19.4909   16.9185 C   0  0  1  0  0  0  0  0  0  0  0  0
    8.1865  -19.0251   15.7505 C   0  0  0  0  0  0  0  0  0  0  0  0
    7.1126  -19.9239   15.2783 C   0  0  0  0  0  0  0  0  0  0  0  0
    6.4114  -19.4831   14.0316 C   0  0  0  0  0  0  0  0  0  0  0  0
    5.3882  -20.5279   13.5815 C   0  0  0  0  0  0  0  0  0  0  0  0
    4.7087  -20.0240   12.4102 N   0  0  0  0  0  0  0  0  0  0  0  0
    9.1776  -18.3427   17.8832 C   0  0  0  0  0  0  0  0  0  0  0  0
    9.8191  -17.3665   17.4683 O   0  0  0  0  0  0  0  0  0  0  0  0
    7.1812  -18.2211   21.5042 O   0  0  0  0  0  0  0  0  0  0  0  0
    7.5783  -17.0106   20.9398 C   0  0  0  0  0  0  0  0  0  0  0  0
    8.8008  -17.2613   20.1264 C   0  0  2  0  0  0  0  0  0  0  0  0
    8.6528  -18.3500   19.1863 N   0  0  0  0  0  0  0  0  0  0  0  0
    9.8962  -17.6591   21.0855 C   0  0  0  0  0  0  0  0  0  0  0  0
   10.3080  -16.8818   21.9849 O   0  0  0  0  0  0  0  0  0  0  0  0
   14.8280  -18.5250   22.1938 N   0  0  0  0  0  0  0  0  0  0  0  0
   13.6090  -18.2031   22.8506 C   0  0  0  0  0  0  0  0  0  0  0  0
   13.5304  -18.1136   24.1027 O   0  0  0  0  0  0  0  0  0  0  0  0
   12.4024  -17.9677   22.0408 C   0  0  0  0  0  0  0  0  0  0  0  0
   11.7104  -19.2802   21.7468 C   0  0  2  0  0  0  0  0  0  0  0  0
   10.5021  -18.9469   20.9953 N   0  0  0  0  0  0  0  0  0  0  0  0
   11.2614  -19.9444   22.9983 C   0  0  0  0  0  0  0  0  0  0  0  0
   12.1424  -20.8049   23.6591 O   0  0  0  0  0  0  0  0  0  0  0  0
   10.1251  -19.7825   23.5109 O   0  0  0  0  0  0  0  0  0  0  0  0
  2  1  1  1
  3  2  1  0
  4  5  1  0
  4  3  1  0
  5  6  1  0
  6  7  1  0
  8 13  1  0
  8  2  1  0
  9  8  2  0
 10 11  1  0
 12 11  1  1
 12 13  1  0
 12 14  1  0
 14 15  2  0
 17 16  1  0
 17 19  1  0
 18 17  2  0
 20 19  1  1
 21 14  1  0
 21 20  1  0
 22 20  1  0
 22 23  1  0
 24 22  2  0
M  END
$$$$
