QWM.pdb
     RDKit          3D

 32 33  0  0  1  0  0  0  0  0999 V2000
   29.0770  -27.2822  -15.7110 N   0  0  0  0  0  0  0  0  0  0  0  0
   29.0837  -26.4580  -16.8937 C   0  0  0  0  0  0  0  0  0  0  0  0
   28.2121  -26.6008  -17.7765 O   0  0  0  0  0  0  0  0  0  0  0  0
   30.1485  -25.4592  -16.9980 C   0  0  0  0  0  0  0  0  0  0  0  0
   29.8433  -24.1774  -16.3148 C   0  0  0  0  0  0  0  0  0  0  0  0
   28.5698  -23.4983  -16.6800 C   0  0  2  0  0  0  0  0  0  0  0  0
   28.3496  -23.1998  -18.0459 N   0  0  0  0  0  0  0  0  0  0  0  0
   28.2901  -22.3071  -15.8411 C   0  0  0  0  0  0  0  0  0  0  0  0
   28.5709  -22.2922  -14.6058 O   0  0  0  0  0  0  0  0  0  0  0  0
   27.7082  -21.1655  -16.3769 N   0  0  0  0  0  0  0  0  0  0  0  0
   27.3796  -19.9808  -15.5378 C   0  0  1  0  0  0  0  0  0  0  0  0
   27.1673  -18.8838  -16.5083 C   0  0  0  0  0  0  0  0  0  0  0  0
   26.6229  -17.6260  -15.9770 C   0  0  0  0  0  0  0  0  0  0  0  0
   27.0575  -16.9534  -14.8612 C   0  0  0  0  0  0  0  0  0  0  0  0
   26.3175  -15.8487  -14.6592 N   0  0  0  0  0  0  0  0  0  0  0  0
   25.3930  -15.7803  -15.6324 C   0  0  0  0  0  0  0  0  0  0  0  0
   24.4119  -14.8410  -15.8559 C   0  0  0  0  0  0  0  0  0  0  0  0
   23.5784  -14.9988  -16.9384 C   0  0  0  0  0  0  0  0  0  0  0  0
   23.7351  -16.0820  -17.7741 C   0  0  0  0  0  0  0  0  0  0  0  0
   24.7265  -17.0048  -17.5237 C   0  0  0  0  0  0  0  0  0  0  0  0
   25.5716  -16.8773  -16.4566 C   0  0  0  0  0  0  0  0  0  0  0  0
   26.1315  -20.3258  -14.8371 C   0  0  0  0  0  0  0  0  0  0  0  0
   25.3619  -21.1746  -15.4140 O   0  0  0  0  0  0  0  0  0  0  0  0
   26.1023  -19.1027   -8.8437 C   0  0  0  0  0  0  0  0  0  0  0  0
   26.2822  -20.9005   -9.1183 S   0  0  0  0  0  0  0  0  0  0  0  0
   25.9576  -21.1724  -10.9004 C   0  0  0  0  0  0  0  0  0  0  0  0
   24.8535  -20.2960  -11.3878 C   0  0  0  0  0  0  0  0  0  0  0  0
   24.6682  -20.4636  -12.8730 C   0  0  2  0  0  0  0  0  0  0  0  0
   25.7451  -19.7860  -13.5838 N   0  0  0  0  0  0  0  0  0  0  0  0
   23.3963  -19.8727  -13.2990 C   0  0  0  0  0  0  0  0  0  0  0  0
   23.3908  -18.7202  -13.8302 O   0  0  0  0  0  0  0  0  0  0  0  0
   22.1913  -20.5600  -13.1349 O   0  0  0  0  0  0  0  0  0  0  0  0
  2  1  1  0
  3  2  2  0
  4  2  1  0
  5  4  1  0
  6  8  1  0
  6  5  1  0
  6  7  1  6
  8  9  2  0
 10  8  1  0
 11 12  1  6
 11 10  1  0
 13 12  1  0
 13 14  2  0
 15 14  1  0
 16 15  1  0
 17 16  2  0
 18 17  1  0
 19 18  2  0
 19 20  1  0
 20 21  2  0
 21 16  1  0
 21 13  1  0
 22 11  1  0
 23 22  2  0
 25 26  1  0
 25 24  1  0
 26 27  1  0
 28 27  1  1
 28 30  1  0
 28 29  1  0
 29 22  1  0
 30 32  1  0
 31 30  2  0
M  END
$$$$
