QWM.pdb
     RDKit          3D

 32 33  0  0  1  0  0  0  0  0999 V2000
   22.8988  -17.1713  -16.7328 N   0  0  0  0  0  0  0  0  0  0  0  0
   21.6992  -17.9555  -16.5774 C   0  0  0  0  0  0  0  0  0  0  0  0
   20.5972  -17.5223  -16.9740 O   0  0  0  0  0  0  0  0  0  0  0  0
   21.8436  -19.2668  -15.9433 C   0  0  0  0  0  0  0  0  0  0  0  0
   23.2173  -19.5568  -15.4619 C   0  0  0  0  0  0  0  0  0  0  0  0
   23.3549  -20.0930  -14.0799 C   0  0  2  0  0  0  0  0  0  0  0  0
   22.8908  -19.2894  -13.0113 N   0  0  0  0  0  0  0  0  0  0  0  0
   24.7197  -20.5971  -13.7900 C   0  0  0  0  0  0  0  0  0  0  0  0
   25.2078  -21.5775  -14.4270 O   0  0  0  0  0  0  0  0  0  0  0  0
   25.5122  -20.0159  -12.8086 N   0  0  0  0  0  0  0  0  0  0  0  0
   26.9031  -20.4757  -12.5445 C   0  0  1  0  0  0  0  0  0  0  0  0
   27.7465  -19.2923  -12.8247 C   0  0  0  0  0  0  0  0  0  0  0  0
   27.6485  -18.7134  -14.1722 C   0  0  0  0  0  0  0  0  0  0  0  0
   27.0432  -17.5279  -14.5111 C   0  0  0  0  0  0  0  0  0  0  0  0
   27.1252  -17.3195  -15.8371 N   0  0  0  0  0  0  0  0  0  0  0  0
   27.7809  -18.3574  -16.3844 C   0  0  0  0  0  0  0  0  0  0  0  0
   28.1116  -18.6011  -17.6982 C   0  0  0  0  0  0  0  0  0  0  0  0
   28.7952  -19.7542  -18.0060 C   0  0  0  0  0  0  0  0  0  0  0  0
   29.1354  -20.6387  -17.0068 C   0  0  0  0  0  0  0  0  0  0  0  0
   28.7902  -20.3662  -15.7015 C   0  0  0  0  0  0  0  0  0  0  0  0
   28.1108  -19.2294  -15.3621 C   0  0  0  0  0  0  0  0  0  0  0  0
   26.9376  -20.8328  -11.1166 C   0  0  0  0  0  0  0  0  0  0  0  0
   27.9891  -21.4369  -10.6984 O   0  0  0  0  0  0  0  0  0  0  0  0
   28.6465  -19.8820   -4.1952 C   0  0  0  0  0  0  0  0  0  0  0  0
   28.4832  -19.2695   -5.9092 S   0  0  0  0  0  0  0  0  0  0  0  0
   27.2436  -20.3514   -6.7142 C   0  0  0  0  0  0  0  0  0  0  0  0
   27.1331  -20.0542   -8.1717 C   0  0  0  0  0  0  0  0  0  0  0  0
   26.1043  -20.9484   -8.8122 C   0  0  2  0  0  0  0  0  0  0  0  0
   25.8959  -20.5468  -10.1976 N   0  0  0  0  0  0  0  0  0  0  0  0
   24.8238  -20.8405   -8.1072 C   0  0  0  0  0  0  0  0  0  0  0  0
   23.8326  -20.3062   -8.6924 O   0  0  0  0  0  0  0  0  0  0  0  0
   24.6756  -21.3212   -6.8041 O   0  0  0  0  0  0  0  0  0  0  0  0
  2  1  1  0
  3  2  2  0
  4  2  1  0
  5  4  1  0
  6  8  1  0
  6  5  1  0
  6  7  1  1
  8  9  2  0
 10  8  1  0
 11 12  1  1
 11 10  1  0
 13 12  1  0
 13 14  2  0
 15 14  1  0
 16 15  1  0
 17 16  2  0
 18 17  1  0
 19 18  2  0
 19 20  1  0
 20 21  2  0
 21 16  1  0
 21 13  1  0
 22 11  1  0
 23 22  2  0
 25 26  1  0
 25 24  1  0
 26 27  1  0
 28 27  1  1
 28 30  1  0
 28 29  1  0
 29 22  1  0
 30 32  1  0
 31 30  2  0
M  END
$$$$
