QWM.pdb
     RDKit          3D

 32 33  0  0  1  0  0  0  0  0999 V2000
   30.5680  -23.3321  -15.3744 N   0  0  0  0  0  0  0  0  0  0  0  0
   30.2369  -22.5787  -16.5579 C   0  0  0  0  0  0  0  0  0  0  0  0
   31.0566  -22.4659  -17.4933 O   0  0  0  0  0  0  0  0  0  0  0  0
   28.9078  -21.9673  -16.6026 C   0  0  0  0  0  0  0  0  0  0  0  0
   28.1002  -22.1877  -15.3771 C   0  0  0  0  0  0  0  0  0  0  0  0
   27.2353  -21.0650  -14.9212 C   0  0  2  0  0  0  0  0  0  0  0  0
   27.8659  -19.8483  -14.5673 N   0  0  0  0  0  0  0  0  0  0  0  0
   26.2710  -21.4701  -13.8691 C   0  0  0  0  0  0  0  0  0  0  0  0
   25.6156  -22.5506  -13.9586 O   0  0  0  0  0  0  0  0  0  0  0  0
   26.0486  -20.6800  -12.7487 N   0  0  0  0  0  0  0  0  0  0  0  0
   25.1729  -21.1267  -11.6310 C   0  0  1  0  0  0  0  0  0  0  0  0
   25.6503  -20.3643  -10.4557 C   0  0  0  0  0  0  0  0  0  0  0  0
   26.9626  -20.7408   -9.9109 C   0  0  0  0  0  0  0  0  0  0  0  0
   27.8918  -21.5581  -10.5070 C   0  0  0  0  0  0  0  0  0  0  0  0
   28.9702  -21.7003   -9.7162 N   0  0  0  0  0  0  0  0  0  0  0  0
   28.7665  -20.9836   -8.5974 C   0  0  0  0  0  0  0  0  0  0  0  0
   29.5751  -20.8135   -7.4966 C   0  0  0  0  0  0  0  0  0  0  0  0
   29.1319  -20.0178   -6.4660 C   0  0  0  0  0  0  0  0  0  0  0  0
   27.8994  -19.4092   -6.5491 C   0  0  0  0  0  0  0  0  0  0  0  0
   27.1135  -19.5990   -7.6642 C   0  0  0  0  0  0  0  0  0  0  0  0
   27.5244  -20.3836   -8.7057 C   0  0  0  0  0  0  0  0  0  0  0  0
   23.8086  -20.7254  -12.0122 C   0  0  0  0  0  0  0  0  0  0  0  0
   23.6311  -19.4886  -12.3027 O   0  0  0  0  0  0  0  0  0  0  0  0
   18.9737  -24.4555  -14.1178 C   0  0  0  0  0  0  0  0  0  0  0  0
   18.5168  -22.8448  -14.8505 S   0  0  0  0  0  0  0  0  0  0  0  0
   19.4309  -21.5789  -13.8927 C   0  0  0  0  0  0  0  0  0  0  0  0
   20.7326  -22.1126  -13.3971 C   0  0  0  0  0  0  0  0  0  0  0  0
   21.4461  -21.0725  -12.5742 C   0  0  2  0  0  0  0  0  0  0  0  0
   22.7053  -21.6141  -12.0791 N   0  0  0  0  0  0  0  0  0  0  0  0
   20.6294  -20.6857  -11.4202 C   0  0  0  0  0  0  0  0  0  0  0  0
   20.7973  -21.2781  -10.3105 O   0  0  0  0  0  0  0  0  0  0  0  0
   19.6736  -19.6720  -11.5207 O   0  0  0  0  0  0  0  0  0  0  0  0
  2  1  1  0
  3  2  2  0
  4  2  1  0
  5  4  1  0
  6  8  1  0
  6  5  1  0
  6  7  1  1
  8  9  2  0
 10  8  1  0
 11 12  1  1
 11 10  1  0
 13 12  1  0
 13 14  2  0
 15 14  1  0
 16 15  1  0
 17 16  2  0
 18 17  1  0
 19 18  2  0
 19 20  1  0
 20 21  2  0
 21 16  1  0
 21 13  1  0
 22 11  1  0
 23 22  2  0
 25 26  1  0
 25 24  1  0
 26 27  1  0
 28 27  1  1
 28 30  1  0
 28 29  1  0
 29 22  1  0
 30 32  1  0
 31 30  2  0
M  END
$$$$
