QWM.pdb
     RDKit          3D

 32 33  0  0  1  0  0  0  0  0999 V2000
   12.1035  -17.8780    3.8008 N   0  0  0  0  0  0  0  0  0  0  0  0
   11.7610  -19.1513    3.2184 C   0  0  0  0  0  0  0  0  0  0  0  0
   10.5955  -19.3857    2.8358 O   0  0  0  0  0  0  0  0  0  0  0  0
   12.8379  -20.1354    3.0990 C   0  0  0  0  0  0  0  0  0  0  0  0
   14.1398  -19.6749    3.6429 C   0  0  0  0  0  0  0  0  0  0  0  0
   15.0334  -18.9205    2.7218 C   0  0  2  0  0  0  0  0  0  0  0  0
   15.4258  -19.5532    1.5181 N   0  0  0  0  0  0  0  0  0  0  0  0
   16.2147  -18.3428    3.4087 C   0  0  0  0  0  0  0  0  0  0  0  0
   17.3933  -18.6558    3.0653 O   0  0  0  0  0  0  0  0  0  0  0  0
   16.0734  -17.4401    4.4547 N   0  0  0  0  0  0  0  0  0  0  0  0
   17.2489  -16.8096    5.1153 C   0  0  1  0  0  0  0  0  0  0  0  0
   16.7085  -15.5866    5.7498 C   0  0  0  0  0  0  0  0  0  0  0  0
   17.6834  -14.6716    6.3606 C   0  0  0  0  0  0  0  0  0  0  0  0
   17.9749  -14.5612    7.6982 C   0  0  0  0  0  0  0  0  0  0  0  0
   18.9022  -13.6087    7.9011 N   0  0  0  0  0  0  0  0  0  0  0  0
   19.2310  -13.0835    6.7083 C   0  0  0  0  0  0  0  0  0  0  0  0
   20.1284  -12.0870    6.3976 C   0  0  0  0  0  0  0  0  0  0  0  0
   20.2858  -11.7248    5.0803 C   0  0  0  0  0  0  0  0  0  0  0  0
   19.5518  -12.3569    4.1015 C   0  0  0  0  0  0  0  0  0  0  0  0
   18.6618  -13.3506    4.4444 C   0  0  0  0  0  0  0  0  0  0  0  0
   18.4816  -13.7342    5.7442 C   0  0  0  0  0  0  0  0  0  0  0  0
   17.7040  -17.7806    6.1241 C   0  0  0  0  0  0  0  0  0  0  0  0
   16.8217  -18.5895    6.5854 O   0  0  0  0  0  0  0  0  0  0  0  0
   22.6788  -22.8333    9.0906 C   0  0  0  0  0  0  0  0  0  0  0  0
   22.4191  -21.6073    7.7605 S   0  0  0  0  0  0  0  0  0  0  0  0
   20.9102  -20.6767    8.2215 C   0  0  0  0  0  0  0  0  0  0  0  0
   20.5796  -19.6432    7.1981 C   0  0  0  0  0  0  0  0  0  0  0  0
   19.3222  -18.9087    7.5824 C   0  0  2  0  0  0  0  0  0  0  0  0
   19.0372  -17.8712    6.5994 N   0  0  0  0  0  0  0  0  0  0  0  0
   19.4849  -18.2673    8.8903 C   0  0  0  0  0  0  0  0  0  0  0  0
   19.7251  -17.0225    8.9490 O   0  0  0  0  0  0  0  0  0  0  0  0
   19.3742  -19.0027   10.0727 O   0  0  0  0  0  0  0  0  0  0  0  0
  2  1  1  0
  3  2  2  0
  4  2  1  0
  5  4  1  0
  6  8  1  0
  6  5  1  0
  6  7  1  6
  8  9  2  0
 10  8  1  0
 11 12  1  1
 11 10  1  0
 13 12  1  0
 13 14  2  0
 15 14  1  0
 16 15  1  0
 17 16  2  0
 18 17  1  0
 19 18  2  0
 19 20  1  0
 20 21  2  0
 21 16  1  0
 21 13  1  0
 22 11  1  0
 23 22  2  0
 25 26  1  0
 25 24  1  0
 26 27  1  0
 28 27  1  6
 28 30  1  0
 28 29  1  0
 29 22  1  0
 30 32  1  0
 31 30  2  0
M  END
$$$$
