QWM.pdb
     RDKit          3D

 32 33  0  0  1  0  0  0  0  0999 V2000
   12.3790  -17.8410    5.5971 N   0  0  0  0  0  0  0  0  0  0  0  0
   11.8603  -19.0140    4.9391 C   0  0  0  0  0  0  0  0  0  0  0  0
   10.6295  -19.2094    4.8584 O   0  0  0  0  0  0  0  0  0  0  0  0
   12.8401  -19.9450    4.3772 C   0  0  0  0  0  0  0  0  0  0  0  0
   14.2512  -19.5725    4.6475 C   0  0  0  0  0  0  0  0  0  0  0  0
   14.9700  -18.8149    3.5866 C   0  0  2  0  0  0  0  0  0  0  0  0
   15.1744  -19.4561    2.3415 N   0  0  0  0  0  0  0  0  0  0  0  0
   16.2359  -18.2089    4.0675 C   0  0  0  0  0  0  0  0  0  0  0  0
   17.3578  -18.5807    3.6115 O   0  0  0  0  0  0  0  0  0  0  0  0
   16.2391  -17.2141    5.0367 N   0  0  0  0  0  0  0  0  0  0  0  0
   17.4918  -16.5301    5.4594 C   0  0  1  0  0  0  0  0  0  0  0  0
   17.0400  -15.2354    6.0162 C   0  0  0  0  0  0  0  0  0  0  0  0
   17.8859  -14.0652    5.7411 C   0  0  0  0  0  0  0  0  0  0  0  0
   17.6804  -13.1181    4.7678 C   0  0  0  0  0  0  0  0  0  0  0  0
   18.6627  -12.1998    4.7894 N   0  0  0  0  0  0  0  0  0  0  0  0
   19.5212  -12.5279    5.7702 C   0  0  0  0  0  0  0  0  0  0  0  0
   20.6758  -11.9013    6.1813 C   0  0  0  0  0  0  0  0  0  0  0  0
   21.3882  -12.4441    7.2250 C   0  0  0  0  0  0  0  0  0  0  0  0
   20.9414  -13.5938    7.8374 C   0  0  0  0  0  0  0  0  0  0  0  0
   19.7820  -14.1973    7.4028 C   0  0  0  0  0  0  0  0  0  0  0  0
   19.0508  -13.6836    6.3683 C   0  0  0  0  0  0  0  0  0  0  0  0
   18.0781  -17.3873    6.5030 C   0  0  0  0  0  0  0  0  0  0  0  0
   17.2568  -18.0161    7.2617 O   0  0  0  0  0  0  0  0  0  0  0  0
   22.5932  -23.0416    8.7680 C   0  0  0  0  0  0  0  0  0  0  0  0
   22.0615  -21.9804    7.3784 S   0  0  0  0  0  0  0  0  0  0  0  0
   21.1602  -20.5761    8.1339 C   0  0  0  0  0  0  0  0  0  0  0  0
   20.7052  -19.6058    7.0965 C   0  0  0  0  0  0  0  0  0  0  0  0
   19.8822  -18.5130    7.7261 C   0  0  2  0  0  0  0  0  0  0  0  0
   19.4716  -17.5555    6.7070 N   0  0  0  0  0  0  0  0  0  0  0  0
   20.6689  -17.7979    8.7351 C   0  0  0  0  0  0  0  0  0  0  0  0
   21.2886  -16.7397    8.4080 O   0  0  0  0  0  0  0  0  0  0  0  0
   20.7431  -18.2590   10.0515 O   0  0  0  0  0  0  0  0  0  0  0  0
  2  1  1  0
  3  2  2  0
  4  2  1  0
  5  4  1  0
  6  8  1  0
  6  5  1  0
  6  7  1  6
  8  9  2  0
 10  8  1  0
 11 12  1  1
 11 10  1  0
 13 12  1  0
 13 14  2  0
 15 14  1  0
 16 15  1  0
 17 16  2  0
 18 17  1  0
 19 18  2  0
 19 20  1  0
 20 21  2  0
 21 16  1  0
 21 13  1  0
 22 11  1  0
 23 22  2  0
 25 26  1  0
 25 24  1  0
 26 27  1  0
 28 27  1  6
 28 30  1  0
 28 29  1  0
 29 22  1  0
 30 32  1  0
 31 30  2  0
M  END
$$$$
