QWM.pdb
     RDKit          3D

 32 33  0  0  1  0  0  0  0  0999 V2000
   30.1173  -20.9956  -17.9873 N   0  0  0  0  0  0  0  0  0  0  0  0
   29.4285  -21.9322  -18.8395 C   0  0  0  0  0  0  0  0  0  0  0  0
   30.0630  -22.6675  -19.6245 O   0  0  0  0  0  0  0  0  0  0  0  0
   27.9694  -21.9751  -18.7320 C   0  0  0  0  0  0  0  0  0  0  0  0
   27.4203  -21.1455  -17.6306 C   0  0  0  0  0  0  0  0  0  0  0  0
   27.2800  -21.7919  -16.2969 C   0  0  2  0  0  0  0  0  0  0  0  0
   26.7070  -23.0851  -16.2476 N   0  0  0  0  0  0  0  0  0  0  0  0
   26.6417  -20.9072  -15.2914 C   0  0  0  0  0  0  0  0  0  0  0  0
   26.9279  -19.6749  -15.2236 O   0  0  0  0  0  0  0  0  0  0  0  0
   25.7093  -21.3964  -14.3857 N   0  0  0  0  0  0  0  0  0  0  0  0
   24.9293  -20.4952  -13.4940 C   0  0  1  0  0  0  0  0  0  0  0  0
   23.5160  -20.8594  -13.7396 C   0  0  0  0  0  0  0  0  0  0  0  0
   22.9133  -20.3692  -14.9874 C   0  0  0  0  0  0  0  0  0  0  0  0
   22.5429  -21.1286  -16.0703 C   0  0  0  0  0  0  0  0  0  0  0  0
   22.0430  -20.3476  -17.0443 N   0  0  0  0  0  0  0  0  0  0  0  0
   22.0775  -19.0732  -16.6184 C   0  0  0  0  0  0  0  0  0  0  0  0
   21.6784  -17.9179  -17.2514 C   0  0  0  0  0  0  0  0  0  0  0  0
   21.8198  -16.7191  -16.5925 C   0  0  0  0  0  0  0  0  0  0  0  0
   22.3526  -16.6915  -15.3229 C   0  0  0  0  0  0  0  0  0  0  0  0
   22.7426  -17.8649  -14.7162 C   0  0  0  0  0  0  0  0  0  0  0  0
   22.6155  -19.0730  -15.3436 C   0  0  0  0  0  0  0  0  0  0  0  0
   25.3416  -20.8406  -12.1234 C   0  0  0  0  0  0  0  0  0  0  0  0
   25.6213  -22.0721  -11.8984 O   0  0  0  0  0  0  0  0  0  0  0  0
   28.3443  -19.4359   -5.1105 C   0  0  0  0  0  0  0  0  0  0  0  0
   28.1428  -18.7690   -6.8000 S   0  0  0  0  0  0  0  0  0  0  0  0
   26.9890  -19.9057   -7.6554 C   0  0  0  0  0  0  0  0  0  0  0  0
   26.7441  -19.4696   -9.0606 C   0  0  0  0  0  0  0  0  0  0  0  0
   25.8088  -20.4271   -9.7510 C   0  0  2  0  0  0  0  0  0  0  0  0
   25.4487  -19.9048  -11.0630 N   0  0  0  0  0  0  0  0  0  0  0  0
   24.5789  -20.5916   -8.9708 C   0  0  0  0  0  0  0  0  0  0  0  0
   23.4917  -20.1067   -9.4107 O   0  0  0  0  0  0  0  0  0  0  0  0
   24.5832  -21.2780   -7.7543 O   0  0  0  0  0  0  0  0  0  0  0  0
  2  1  1  0
  3  2  2  0
  4  2  1  0
  5  4  1  0
  6  8  1  0
  6  5  1  0
  6  7  1  6
  8  9  2  0
 10  8  1  0
 11 12  1  1
 11 10  1  0
 13 12  1  0
 13 14  2  0
 15 14  1  0
 16 15  1  0
 17 16  2  0
 18 17  1  0
 19 18  2  0
 19 20  1  0
 20 21  2  0
 21 16  1  0
 21 13  1  0
 22 11  1  0
 23 22  2  0
 25 26  1  0
 25 24  1  0
 26 27  1  0
 28 27  1  1
 28 30  1  0
 28 29  1  0
 29 22  1  0
 30 32  1  0
 31 30  2  0
M  END
$$$$
