QWM.pdb
     RDKit          3D

 32 33  0  0  1  0  0  0  0  0999 V2000
   28.2013  -25.8030  -16.6369 N   0  0  0  0  0  0  0  0  0  0  0  0
   28.7976  -24.8340  -17.5219 C   0  0  0  0  0  0  0  0  0  0  0  0
   29.3217  -25.1896  -18.5982 O   0  0  0  0  0  0  0  0  0  0  0  0
   28.7517  -23.4340  -17.0975 C   0  0  0  0  0  0  0  0  0  0  0  0
   28.0929  -23.2223  -15.7845 C   0  0  0  0  0  0  0  0  0  0  0  0
   26.9135  -22.3144  -15.7536 C   0  0  2  0  0  0  0  0  0  0  0  0
   27.1022  -20.9735  -16.1656 N   0  0  0  0  0  0  0  0  0  0  0  0
   26.1852  -22.3585  -14.4619 C   0  0  0  0  0  0  0  0  0  0  0  0
   25.8519  -23.4599  -13.9321 O   0  0  0  0  0  0  0  0  0  0  0  0
   25.8394  -21.1952  -13.7864 N   0  0  0  0  0  0  0  0  0  0  0  0
   25.1656  -21.2255  -12.4595 C   0  0  1  0  0  0  0  0  0  0  0  0
   25.8300  -20.1575  -11.6795 C   0  0  0  0  0  0  0  0  0  0  0  0
   27.0112  -20.5471  -10.8962 C   0  0  0  0  0  0  0  0  0  0  0  0
   28.1642  -21.1138  -11.3820 C   0  0  0  0  0  0  0  0  0  0  0  0
   29.0279  -21.3566  -10.3802 N   0  0  0  0  0  0  0  0  0  0  0  0
   28.4590  -20.9556   -9.2303 C   0  0  0  0  0  0  0  0  0  0  0  0
   28.9440  -20.9949   -7.9427 C   0  0  0  0  0  0  0  0  0  0  0  0
   28.1553  -20.5157   -6.9231 C   0  0  0  0  0  0  0  0  0  0  0  0
   26.9055  -20.0087   -7.2014 C   0  0  0  0  0  0  0  0  0  0  0  0
   26.4485  -19.9830   -8.5005 C   0  0  0  0  0  0  0  0  0  0  0  0
   27.2074  -20.4516   -9.5367 C   0  0  0  0  0  0  0  0  0  0  0  0
   23.7549  -20.8975  -12.7243 C   0  0  0  0  0  0  0  0  0  0  0  0
   23.5090  -19.7152  -13.1568 O   0  0  0  0  0  0  0  0  0  0  0  0
   16.2220  -22.6371  -13.8177 C   0  0  0  0  0  0  0  0  0  0  0  0
   17.7928  -23.3547  -13.2199 S   0  0  0  0  0  0  0  0  0  0  0  0
   18.9930  -21.9717  -13.1752 C   0  0  0  0  0  0  0  0  0  0  0  0
   20.3670  -22.4593  -12.8603 C   0  0  0  0  0  0  0  0  0  0  0  0
   21.3394  -21.3095  -12.8412 C   0  0  2  0  0  0  0  0  0  0  0  0
   22.6773  -21.8002  -12.5357 N   0  0  0  0  0  0  0  0  0  0  0  0
   20.9620  -20.3384  -11.8102 C   0  0  0  0  0  0  0  0  0  0  0  0
   20.3833  -19.2612  -12.1498 O   0  0  0  0  0  0  0  0  0  0  0  0
   21.2239  -20.5820  -10.4599 O   0  0  0  0  0  0  0  0  0  0  0  0
  2  1  1  0
  3  2  2  0
  4  2  1  0
  5  4  1  0
  6  8  1  0
  6  5  1  0
  6  7  1  1
  8  9  2  0
 10  8  1  0
 11 12  1  1
 11 10  1  0
 13 12  1  0
 13 14  2  0
 15 14  1  0
 16 15  1  0
 17 16  2  0
 18 17  1  0
 19 18  2  0
 19 20  1  0
 20 21  2  0
 21 16  1  0
 21 13  1  0
 22 11  1  0
 23 22  2  0
 25 26  1  0
 25 24  1  0
 26 27  1  0
 28 27  1  1
 28 30  1  0
 28 29  1  0
 29 22  1  0
 30 32  1  0
 31 30  2  0
M  END
$$$$
