QWM.pdb
     RDKit          3D

 32 33  0  0  1  0  0  0  0  0999 V2000
   22.2574  -24.9644  -14.6388 N   0  0  0  0  0  0  0  0  0  0  0  0
   22.9965  -25.8037  -15.5484 C   0  0  0  0  0  0  0  0  0  0  0  0
   22.4051  -26.6067  -16.3001 O   0  0  0  0  0  0  0  0  0  0  0  0
   24.4532  -25.6615  -15.5444 C   0  0  0  0  0  0  0  0  0  0  0  0
   24.9555  -24.6165  -14.6178 C   0  0  0  0  0  0  0  0  0  0  0  0
   25.1649  -23.2535  -15.1787 C   0  0  2  0  0  0  0  0  0  0  0  0
   25.6364  -23.1531  -16.5095 N   0  0  0  0  0  0  0  0  0  0  0  0
   25.9595  -22.3772  -14.2834 C   0  0  0  0  0  0  0  0  0  0  0  0
   27.2040  -22.2152  -14.4568 O   0  0  0  0  0  0  0  0  0  0  0  0
   25.3705  -21.7040  -13.2210 N   0  0  0  0  0  0  0  0  0  0  0  0
   26.1235  -20.7181  -12.3983 C   0  0  1  0  0  0  0  0  0  0  0  0
   25.4082  -19.4386  -12.6023 C   0  0  0  0  0  0  0  0  0  0  0  0
   25.7961  -18.6432  -13.7760 C   0  0  0  0  0  0  0  0  0  0  0  0
   24.9716  -17.8480  -14.5339 C   0  0  0  0  0  0  0  0  0  0  0  0
   25.6589  -17.2829  -15.5422 N   0  0  0  0  0  0  0  0  0  0  0  0
   26.9356  -17.6957  -15.4618 C   0  0  0  0  0  0  0  0  0  0  0  0
   28.0146  -17.3945  -16.2616 C   0  0  0  0  0  0  0  0  0  0  0  0
   29.2354  -17.9539  -15.9649 C   0  0  0  0  0  0  0  0  0  0  0  0
   29.3600  -18.7979  -14.8839 C   0  0  0  0  0  0  0  0  0  0  0  0
   28.2612  -19.0797  -14.1025 C   0  0  0  0  0  0  0  0  0  0  0  0
   27.0339  -18.5403  -14.3702 C   0  0  0  0  0  0  0  0  0  0  0  0
   25.9995  -21.1859  -11.0079 C   0  0  0  0  0  0  0  0  0  0  0  0
   25.2338  -22.1949  -10.8048 O   0  0  0  0  0  0  0  0  0  0  0  0
   28.6970  -18.6722   -5.7742 C   0  0  0  0  0  0  0  0  0  0  0  0
   27.7009  -19.9205   -4.8857 S   0  0  0  0  0  0  0  0  0  0  0  0
   26.7522  -20.8156   -6.1718 C   0  0  0  0  0  0  0  0  0  0  0  0
   27.1601  -20.3859   -7.5406 C   0  0  0  0  0  0  0  0  0  0  0  0
   26.3536  -21.1170   -8.5814 C   0  0  2  0  0  0  0  0  0  0  0  0
   26.6703  -20.5972   -9.9055 N   0  0  0  0  0  0  0  0  0  0  0  0
   24.9199  -20.9240   -8.3452 C   0  0  0  0  0  0  0  0  0  0  0  0
   24.2987  -20.0200   -8.9836 O   0  0  0  0  0  0  0  0  0  0  0  0
   24.2256  -21.7223   -7.4332 O   0  0  0  0  0  0  0  0  0  0  0  0
  2  1  1  0
  3  2  2  0
  4  2  1  0
  5  4  1  0
  6  8  1  0
  6  5  1  0
  6  7  1  6
  8  9  2  0
 10  8  1  0
 11 12  1  1
 11 10  1  0
 13 12  1  0
 13 14  2  0
 15 14  1  0
 16 15  1  0
 17 16  2  0
 18 17  1  0
 19 18  2  0
 19 20  1  0
 20 21  2  0
 21 16  1  0
 21 13  1  0
 22 11  1  0
 23 22  2  0
 25 26  1  0
 25 24  1  0
 26 27  1  0
 28 27  1  1
 28 30  1  0
 28 29  1  0
 29 22  1  0
 30 32  1  0
 31 30  2  0
M  END
$$$$
