RMN.pdb
     RDKit          3D

 28 27  0  0  1  0  0  0  0  0999 V2000
   25.7232  -16.3769  -17.5115 N   0  0  0  0  0  0  0  0  0  0  0  0
   25.1880  -17.6065  -17.9881 C   0  0  0  0  0  0  0  0  0  0  0  0
   25.0252  -17.7734  -19.2569 N   0  0  0  0  0  0  0  0  0  0  0  0
   24.8417  -18.6301  -17.0592 N   0  0  0  0  0  0  0  0  0  0  0  0
   25.5094  -18.7745  -15.8063 C   0  0  0  0  0  0  0  0  0  0  0  0
   26.9607  -18.3576  -15.8593 C   0  0  0  0  0  0  0  0  0  0  0  0
   27.5184  -18.4779  -14.4444 C   0  0  0  0  0  0  0  0  0  0  0  0
   27.9293  -19.9309  -14.2677 C   0  0  2  0  0  0  0  0  0  0  0  0
   27.7418  -20.5397  -15.5915 N   0  0  0  0  0  0  0  0  0  0  0  0
   27.0622  -20.6399  -13.2925 C   0  0  0  0  0  0  0  0  0  0  0  0
   26.2224  -21.5021  -13.7130 O   0  0  0  0  0  0  0  0  0  0  0  0
   24.6102  -18.6407  -19.6157 C   0  0  0  0  0  0  0  0  0  0  0  0
   27.8274  -20.4312   -6.8109 S   0  0  0  0  0  0  0  0  0  0  0  0
   26.0099  -20.3431   -6.8988 C   0  0  0  0  0  0  0  0  0  0  0  0
   25.4682  -20.8987   -8.5796 C   0  0  0  0  0  0  0  0  0  0  0  0
   26.4579  -20.4040   -9.5836 C   0  0  2  0  0  0  0  0  0  0  0  0
   26.0686  -20.8246  -10.9820 N   0  0  0  0  0  0  0  0  0  0  0  0
   27.1376  -20.3897  -11.9036 C   0  0  0  0  0  0  0  0  0  0  0  0
   24.8171  -20.1460  -11.3611 O   0  0  0  0  0  0  0  0  0  0  0  0
   24.9328  -19.0820  -12.0591 N   0  0  0  0  0  0  0  0  0  0  0  0
   20.4460  -20.8201  -13.7786 C   0  0  0  0  0  0  0  0  0  0  0  0
   21.6711  -21.4885  -14.1168 O   0  0  0  0  0  0  0  0  0  0  0  0
   21.7052  -22.0886  -15.1943 C   0  0  0  0  0  0  0  0  0  0  0  0
   22.7854  -21.4080  -13.1599 C   0  0  1  0  0  0  0  0  0  0  0  0
   22.4491  -20.5836  -11.9706 N   0  0  0  0  0  0  0  0  0  0  0  0
   23.5472  -20.6268  -10.9906 C   0  0  0  0  0  0  0  0  0  0  0  0
   21.2242  -21.0848  -11.2655 O   0  0  0  0  0  0  0  0  0  0  0  0
   21.2676  -21.8669  -10.3027 O   0  0  0  0  0  0  0  0  0  0  0  0
  2  1  1  0
  3  2  2  0
  4  2  1  0
  5  4  1  0
  6  5  1  0
  7  8  1  0
  7  6  1  0
  8 10  1  0
  8  9  1  6
 10 11  2  0
 12 13  1  0
 13 14  1  0
 15 14  1  0
 16 15  1  1
 17 16  1  0
 17 10  1  0
 18 19  2  0
 18 16  1  0
 20 21  1  0
 21 23  1  0
 21 22  2  0
 24 23  1  6
 24 25  1  0
 24 26  1  0
 25 18  1  0
 26 27  2  0
 26 28  1  0
M  END
$$$$
