RMN.pdb
     RDKit          3D

 28 27  0  0  1  0  0  0  0  0999 V2000
   30.1955  -26.3541  -16.2339 N   0  0  0  0  0  0  0  0  0  0  0  0
   30.5979  -26.5560  -17.5839 C   0  0  0  0  0  0  0  0  0  0  0  0
   30.9596  -27.7344  -17.9643 N   0  0  0  0  0  0  0  0  0  0  0  0
   30.5946  -25.4569  -18.4908 N   0  0  0  0  0  0  0  0  0  0  0  0
   29.9966  -24.2038  -18.1614 C   0  0  0  0  0  0  0  0  0  0  0  0
   30.3335  -23.7380  -16.7642 C   0  0  0  0  0  0  0  0  0  0  0  0
   29.7255  -22.3497  -16.5905 C   0  0  0  0  0  0  0  0  0  0  0  0
   28.2177  -22.5424  -16.5639 C   0  0  2  0  0  0  0  0  0  0  0  0
   27.7780  -22.2696  -17.9388 N   0  0  0  0  0  0  0  0  0  0  0  0
   27.5494  -21.5791  -15.6523 C   0  0  0  0  0  0  0  0  0  0  0  0
   28.2591  -20.8376  -14.8960 O   0  0  0  0  0  0  0  0  0  0  0  0
   31.2446  -27.8997  -18.9362 C   0  0  0  0  0  0  0  0  0  0  0  0
   26.8752  -16.7404  -17.2688 S   0  0  0  0  0  0  0  0  0  0  0  0
   27.3315  -16.6363  -15.5082 C   0  0  0  0  0  0  0  0  0  0  0  0
   26.6318  -18.1050  -14.6248 C   0  0  0  0  0  0  0  0  0  0  0  0
   26.0589  -19.0396  -15.6400 C   0  0  2  0  0  0  0  0  0  0  0  0
   25.4962  -20.2778  -14.9810 N   0  0  0  0  0  0  0  0  0  0  0  0
   26.1427  -21.4552  -15.5949 C   0  0  0  0  0  0  0  0  0  0  0  0
   24.0477  -20.3488  -15.2409 O   0  0  0  0  0  0  0  0  0  0  0  0
   23.6941  -20.7643  -16.3963 N   0  0  0  0  0  0  0  0  0  0  0  0
   18.8533  -21.4114  -14.1636 C   0  0  0  0  0  0  0  0  0  0  0  0
   19.3878  -20.1691  -13.6812 O   0  0  0  0  0  0  0  0  0  0  0  0
   18.5970  -19.2321  -13.5445 C   0  0  0  0  0  0  0  0  0  0  0  0
   20.8281  -20.1077  -13.3883 C   0  0  1  0  0  0  0  0  0  0  0  0
   21.6548  -20.0992  -14.6226 N   0  0  0  0  0  0  0  0  0  0  0  0
   23.0830  -19.9883  -14.2815 C   0  0  0  0  0  0  0  0  0  0  0  0
   21.3331  -18.9328  -15.5085 O   0  0  0  0  0  0  0  0  0  0  0  0
   21.9894  -17.8792  -15.5085 O   0  0  0  0  0  0  0  0  0  0  0  0
  2  1  1  0
  3  2  2  0
  4  2  1  0
  5  4  1  0
  6  5  1  0
  7  8  1  0
  7  6  1  0
  8 10  1  0
  8  9  1  6
 10 11  2  0
 12 13  1  0
 13 14  1  0
 15 14  1  0
 16 15  1  1
 17 16  1  0
 17 10  1  0
 18 19  2  0
 18 16  1  0
 20 21  1  0
 21 23  1  0
 21 22  2  0
 24 23  1  1
 24 25  1  0
 24 26  1  0
 25 18  1  0
 26 27  2  0
 26 28  1  0
M  END
$$$$
