RMN.pdb
     RDKit          3D

 28 27  0  0  1  0  0  0  0  0999 V2000
   29.0946  -15.9630  -17.1265 N   0  0  0  0  0  0  0  0  0  0  0  0
   28.3710  -14.7850  -16.7886 C   0  0  0  0  0  0  0  0  0  0  0  0
   28.6601  -13.6760  -17.3808 N   0  0  0  0  0  0  0  0  0  0  0  0
   27.3421  -14.8494  -15.8048 N   0  0  0  0  0  0  0  0  0  0  0  0
   26.7357  -16.0830  -15.4214 C   0  0  0  0  0  0  0  0  0  0  0  0
   26.3678  -16.9518  -16.6015 C   0  0  0  0  0  0  0  0  0  0  0  0
   25.6992  -18.2068  -16.0490 C   0  0  0  0  0  0  0  0  0  0  0  0
   26.7463  -18.9131  -15.2028 C   0  0  2  0  0  0  0  0  0  0  0  0
   27.6382  -19.5640  -16.1719 N   0  0  0  0  0  0  0  0  0  0  0  0
   26.1473  -19.9577  -14.3336 C   0  0  0  0  0  0  0  0  0  0  0  0
   25.7832  -21.0663  -14.8473 O   0  0  0  0  0  0  0  0  0  0  0  0
   28.1366  -12.8209  -17.1622 C   0  0  0  0  0  0  0  0  0  0  0  0
   26.6703  -19.7763   -7.9619 S   0  0  0  0  0  0  0  0  0  0  0  0
   25.2403  -20.9045   -7.9970 C   0  0  0  0  0  0  0  0  0  0  0  0
   24.9474  -21.4389   -9.7450 C   0  0  0  0  0  0  0  0  0  0  0  0
   25.5007  -20.3942  -10.6587 C   0  0  2  0  0  0  0  0  0  0  0  0
   25.2890  -20.7723  -12.1065 N   0  0  0  0  0  0  0  0  0  0  0  0
   25.9667  -19.7632  -12.9454 C   0  0  0  0  0  0  0  0  0  0  0  0
   23.8474  -20.7428  -12.4090 O   0  0  0  0  0  0  0  0  0  0  0  0
   23.3288  -19.5921  -12.6078 N   0  0  0  0  0  0  0  0  0  0  0  0
   20.7120  -21.7450  -15.4436 C   0  0  0  0  0  0  0  0  0  0  0  0
   20.7400  -23.0349  -14.8134 O   0  0  0  0  0  0  0  0  0  0  0  0
   20.4096  -24.0041  -15.5016 C   0  0  0  0  0  0  0  0  0  0  0  0
   21.1577  -23.1032  -13.4046 C   0  0  2  0  0  0  0  0  0  0  0  0
   21.6521  -21.7967  -12.8989 N   0  0  0  0  0  0  0  0  0  0  0  0
   23.0611  -21.9076  -12.4858 C   0  0  0  0  0  0  0  0  0  0  0  0
   20.8870  -21.3319  -11.6958 O   0  0  0  0  0  0  0  0  0  0  0  0
   19.7628  -20.8105  -11.7662 O   0  0  0  0  0  0  0  0  0  0  0  0
  2  1  1  0
  3  2  2  0
  4  2  1  0
  5  4  1  0
  6  5  1  0
  7  8  1  0
  7  6  1  0
  8 10  1  0
  8  9  1  6
 10 11  2  0
 12 13  1  0
 13 14  1  0
 15 14  1  0
 16 15  1  1
 17 16  1  0
 17 10  1  0
 18 19  2  0
 18 16  1  0
 20 21  1  0
 21 23  1  0
 21 22  2  0
 24 23  1  6
 24 25  1  0
 24 26  1  0
 25 18  1  0
 26 27  2  0
 26 28  1  0
M  END
$$$$
