RMN.pdb
     RDKit          3D

 28 27  0  0  1  0  0  0  0  0999 V2000
   26.9986  -22.1128   -9.4494 N   0  0  0  0  0  0  0  0  0  0  0  0
   25.9063  -21.7216   -8.6252 C   0  0  0  0  0  0  0  0  0  0  0  0
   26.0184  -21.8155   -7.3436 N   0  0  0  0  0  0  0  0  0  0  0  0
   24.7102  -21.2341   -9.2272 N   0  0  0  0  0  0  0  0  0  0  0  0
   24.2270  -21.7393  -10.4713 C   0  0  0  0  0  0  0  0  0  0  0  0
   25.1995  -21.5343  -11.6093 C   0  0  0  0  0  0  0  0  0  0  0  0
   25.1940  -20.0467  -11.9474 C   0  0  0  0  0  0  0  0  0  0  0  0
   24.4085  -19.9041  -13.2412 C   0  0  2  0  0  0  0  0  0  0  0  0
   25.1483  -20.7090  -14.2225 N   0  0  0  0  0  0  0  0  0  0  0  0
   24.3679  -18.4974  -13.7157 C   0  0  0  0  0  0  0  0  0  0  0  0
   23.6948  -17.6352  -13.0607 O   0  0  0  0  0  0  0  0  0  0  0  0
   25.2432  -21.5313   -6.7341 C   0  0  0  0  0  0  0  0  0  0  0  0
   27.3535  -12.9037  -17.9287 S   0  0  0  0  0  0  0  0  0  0  0  0
   27.4436  -14.6158  -17.3125 C   0  0  0  0  0  0  0  0  0  0  0  0
   26.5169  -14.7218  -15.7135 C   0  0  0  0  0  0  0  0  0  0  0  0
   26.4585  -16.1546  -15.2940 C   0  0  2  0  0  0  0  0  0  0  0  0
   25.0380  -16.6699  -15.3191 N   0  0  0  0  0  0  0  0  0  0  0  0
   25.0560  -18.0790  -14.8771 C   0  0  0  0  0  0  0  0  0  0  0  0
   24.5282  -16.6176  -16.7004 O   0  0  0  0  0  0  0  0  0  0  0  0
   25.1199  -17.3592  -17.5563 N   0  0  0  0  0  0  0  0  0  0  0  0
   21.5091  -18.4104  -19.4273 C   0  0  0  0  0  0  0  0  0  0  0  0
   21.5326  -18.7387  -18.0297 O   0  0  0  0  0  0  0  0  0  0  0  0
   21.2442  -19.8975  -17.7194 C   0  0  0  0  0  0  0  0  0  0  0  0
   21.8963  -17.6762  -17.0796 C   0  0  2  0  0  0  0  0  0  0  0  0
   22.2924  -16.4187  -17.7643 N   0  0  0  0  0  0  0  0  0  0  0  0
   23.4441  -15.8051  -17.0820 C   0  0  0  0  0  0  0  0  0  0  0  0
   21.1927  -15.3993  -17.7514 O   0  0  0  0  0  0  0  0  0  0  0  0
   20.1363  -15.5325  -18.3894 O   0  0  0  0  0  0  0  0  0  0  0  0
  2  1  1  0
  3  2  2  0
  4  2  1  0
  5  4  1  0
  6  5  1  0
  7  8  1  0
  7  6  1  0
  8 10  1  0
  8  9  1  6
 10 11  2  0
 12 13  1  0
 13 14  1  0
 15 14  1  0
 16 15  1  1
 17 16  1  0
 17 10  1  0
 18 19  2  0
 18 16  1  0
 20 21  1  0
 21 23  1  0
 21 22  2  0
 24 23  1  6
 24 25  1  0
 24 26  1  0
 25 18  1  0
 26 27  2  0
 26 28  1  0
M  END
$$$$
