RMN.pdb
     RDKit          3D

 28 27  0  0  1  0  0  0  0  0999 V2000
   27.5429  -21.6420  -16.9690 N   0  0  0  0  0  0  0  0  0  0  0  0
   26.1678  -21.7024  -17.3307 C   0  0  0  0  0  0  0  0  0  0  0  0
   25.3239  -22.2355  -16.5136 N   0  0  0  0  0  0  0  0  0  0  0  0
   25.7467  -21.1746  -18.5857 N   0  0  0  0  0  0  0  0  0  0  0  0
   24.4048  -20.7479  -18.8170 C   0  0  0  0  0  0  0  0  0  0  0  0
   24.2831  -19.2524  -18.9942 C   0  0  0  0  0  0  0  0  0  0  0  0
   24.1985  -18.6366  -17.6009 C   0  0  0  0  0  0  0  0  0  0  0  0
   22.7341  -18.6914  -17.1964 C   0  0  2  0  0  0  0  0  0  0  0  0
   22.1949  -17.3717  -17.5513 N   0  0  0  0  0  0  0  0  0  0  0  0
   22.5676  -18.8941  -15.7346 C   0  0  0  0  0  0  0  0  0  0  0  0
   23.0118  -18.0141  -14.9261 O   0  0  0  0  0  0  0  0  0  0  0  0
   24.3299  -22.2947  -16.7619 C   0  0  0  0  0  0  0  0  0  0  0  0
   18.3218  -22.5900  -11.9629 S   0  0  0  0  0  0  0  0  0  0  0  0
   17.9570  -21.8067  -13.5668 C   0  0  0  0  0  0  0  0  0  0  0  0
   19.3038  -20.5984  -13.9583 C   0  0  0  0  0  0  0  0  0  0  0  0
   20.6094  -21.1926  -13.5404 C   0  0  2  0  0  0  0  0  0  0  0  0
   21.7426  -20.2151  -13.7511 N   0  0  0  0  0  0  0  0  0  0  0  0
   21.9279  -20.0380  -15.2056 C   0  0  0  0  0  0  0  0  0  0  0  0
   22.9804  -20.7795  -13.1854 O   0  0  0  0  0  0  0  0  0  0  0  0
   23.3761  -21.8922  -13.6732 N   0  0  0  0  0  0  0  0  0  0  0  0
   27.2266  -21.8522  -10.6857 C   0  0  0  0  0  0  0  0  0  0  0  0
   27.3519  -20.6248  -11.4202 O   0  0  0  0  0  0  0  0  0  0  0  0
   28.4836  -20.1445  -11.5235 C   0  0  0  0  0  0  0  0  0  0  0  0
   26.1301  -20.0367  -11.9904 C   0  0  1  0  0  0  0  0  0  0  0  0
   24.9110  -20.8019  -11.6225 N   0  0  0  0  0  0  0  0  0  0  0  0
   23.7104  -20.1434  -12.1639 C   0  0  0  0  0  0  0  0  0  0  0  0
   24.7234  -20.8830  -10.1369 O   0  0  0  0  0  0  0  0  0  0  0  0
   23.7806  -20.3383   -9.5412 O   0  0  0  0  0  0  0  0  0  0  0  0
  2  1  1  0
  3  2  2  0
  4  2  1  0
  5  4  1  0
  6  5  1  0
  7  8  1  0
  7  6  1  0
  8 10  1  0
  8  9  1  1
 10 11  2  0
 12 13  1  0
 13 14  1  0
 15 14  1  0
 16 15  1  1
 17 16  1  0
 17 10  1  0
 18 19  2  0
 18 16  1  0
 20 21  1  0
 21 23  1  0
 21 22  2  0
 24 23  1  6
 24 25  1  0
 24 26  1  0
 25 18  1  0
 26 27  2  0
 26 28  1  0
M  END
$$$$
