RMN.pdb
     RDKit          3D

 28 27  0  0  1  0  0  0  0  0999 V2000
   30.9454  -25.7784  -15.5248 N   0  0  0  0  0  0  0  0  0  0  0  0
   31.1704  -25.1995  -16.8053 C   0  0  0  0  0  0  0  0  0  0  0  0
   31.4527  -25.9668  -17.8031 N   0  0  0  0  0  0  0  0  0  0  0  0
   31.0805  -23.7862  -16.9639 N   0  0  0  0  0  0  0  0  0  0  0  0
   29.9342  -23.0474  -16.5437 C   0  0  0  0  0  0  0  0  0  0  0  0
   28.6938  -23.3785  -17.3404 C   0  0  0  0  0  0  0  0  0  0  0  0
   27.5968  -23.7369  -16.3427 C   0  0  0  0  0  0  0  0  0  0  0  0
   26.8233  -22.4553  -16.0774 C   0  0  2  0  0  0  0  0  0  0  0  0
   27.8342  -21.4921  -15.6207 N   0  0  0  0  0  0  0  0  0  0  0  0
   25.8127  -22.6274  -15.0029 C   0  0  0  0  0  0  0  0  0  0  0  0
   25.3279  -23.7852  -14.7792 O   0  0  0  0  0  0  0  0  0  0  0  0
   31.6688  -25.5629  -18.7215 C   0  0  0  0  0  0  0  0  0  0  0  0
   25.3756  -20.1030   -9.0327 S   0  0  0  0  0  0  0  0  0  0  0  0
   26.8170  -20.7086   -9.9678 C   0  0  0  0  0  0  0  0  0  0  0  0
   26.2153  -21.6349  -11.4535 C   0  0  0  0  0  0  0  0  0  0  0  0
   24.9193  -21.0352  -11.8927 C   0  0  2  0  0  0  0  0  0  0  0  0
   24.3884  -21.7324  -13.1239 N   0  0  0  0  0  0  0  0  0  0  0  0
   25.3674  -21.5430  -14.2134 C   0  0  0  0  0  0  0  0  0  0  0  0
   23.1152  -21.1078  -13.5231 O   0  0  0  0  0  0  0  0  0  0  0  0
   23.1808  -20.1987  -14.4186 N   0  0  0  0  0  0  0  0  0  0  0  0
   18.3696  -19.6448  -14.3022 C   0  0  0  0  0  0  0  0  0  0  0  0
   19.3437  -18.8059  -13.6626 O   0  0  0  0  0  0  0  0  0  0  0  0
   19.0666  -17.6091  -13.5481 C   0  0  0  0  0  0  0  0  0  0  0  0
   20.5900  -19.4322  -13.1953 C   0  0  2  0  0  0  0  0  0  0  0  0
   20.6413  -20.8847  -13.5031 N   0  0  0  0  0  0  0  0  0  0  0  0
   21.8770  -21.4786  -12.9660 C   0  0  0  0  0  0  0  0  0  0  0  0
   20.6445  -21.1483  -14.9793 O   0  0  0  0  0  0  0  0  0  0  0  0
   21.6335  -20.9485  -15.7023 O   0  0  0  0  0  0  0  0  0  0  0  0
  2  1  1  0
  3  2  2  0
  4  2  1  0
  5  4  1  0
  6  5  1  0
  7  8  1  0
  7  6  1  0
  8 10  1  0
  8  9  1  1
 10 11  2  0
 12 13  1  0
 13 14  1  0
 15 14  1  0
 16 15  1  1
 17 16  1  0
 17 10  1  0
 18 19  2  0
 18 16  1  0
 20 21  1  0
 21 23  1  0
 21 22  2  0
 24 23  1  1
 24 25  1  0
 24 26  1  0
 25 18  1  0
 26 27  2  0
 26 28  1  0
M  END
$$$$
