RGW.pdb
     RDKit          3D

 30 31  0  0  1  0  0  0  0  0999 V2000
   23.3029  -16.3598  -18.7591 N   0  0  0  0  0  0  0  0  0  0  0  0
   23.8711  -17.4089  -19.5377 C   0  0  0  0  0  0  0  0  0  0  0  0
   24.3159  -17.1448  -20.7182 N   0  0  0  0  0  0  0  0  0  0  0  0
   23.9547  -18.7407  -19.0323 N   0  0  0  0  0  0  0  0  0  0  0  0
   23.5930  -19.0430  -17.6398 C   0  0  0  0  0  0  0  0  0  0  0  0
   24.1998  -18.0510  -16.6990 C   0  0  0  0  0  0  0  0  0  0  0  0
   24.0052  -18.3336  -15.2461 C   0  0  0  0  0  0  0  0  0  0  0  0
   24.6223  -19.5852  -14.7259 C   0  0  2  0  0  0  0  0  0  0  0  0
   23.6627  -20.6101  -14.3860 N   0  0  0  0  0  0  0  0  0  0  0  0
   25.5049  -19.3671  -13.5620 C   0  0  0  0  0  0  0  0  0  0  0  0
   24.9811  -19.0890  -12.4583 O   0  0  0  0  0  0  0  0  0  0  0  0
   24.7504  -17.8837  -21.2916 N   0  0  0  0  0  0  0  0  0  0  0  0
   26.9156  -19.4544  -13.6215 C   0  0  0  0  0  0  0  0  0  0  0  0
   27.6883  -20.6485  -13.5133 C   0  0  0  0  0  0  0  0  0  0  0  0
   27.9897  -21.0403  -12.1096 O   0  0  0  0  0  0  0  0  0  0  0  0
   28.8862  -21.8248  -11.7721 N   0  0  0  0  0  0  0  0  0  0  0  0
   27.1735  -20.4576  -11.0975 C   0  0  1  0  0  0  0  0  0  0  0  0
   26.2477  -21.2060  -10.2815 C   0  0  0  0  0  0  0  0  0  0  0  0
   26.8685  -21.6566   -8.9904 C   0  0  0  0  0  0  0  0  0  0  0  0
   27.2378  -20.5148   -8.1463 C   0  0  0  0  0  0  0  0  0  0  0  0
   26.7805  -19.2221   -8.3710 N   0  0  0  0  0  0  0  0  0  0  0  0
   27.2865  -18.4027   -7.4443 C   0  0  0  0  0  0  0  0  0  0  0  0
   28.0649  -19.1090   -6.6113 C   0  0  0  0  0  0  0  0  0  0  0  0
   28.7956  -18.7112   -5.5104 C   0  0  0  0  0  0  0  0  0  0  0  0
   29.5249  -19.6740   -4.8216 C   0  0  0  0  0  0  0  0  0  0  0  0
   29.4930  -20.9776   -5.2574 C   0  0  0  0  0  0  0  0  0  0  0  0
   28.7560  -21.3782   -6.3674 C   0  0  0  0  0  0  0  0  0  0  0  0
   28.0430  -20.4256   -7.0373 C   0  0  0  0  0  0  0  0  0  0  0  0
   24.9693  -20.4852  -10.1055 O   0  0  0  0  0  0  0  0  0  0  0  0
   24.8396  -19.2744  -10.4156 O   0  0  0  0  0  0  0  0  0  0  0  0
  2  3  2  0
  2  1  1  0
  4  2  1  0
  5  4  1  0
  6  5  1  0
  7  6  1  0
  7  8  1  0
  8  9  1  1
 10  8  1  0
 10 12  1  0
 11 10  2  0
 13 12  1  0
 14 13  1  0
 15 14  2  0
 16 14  1  0
 17 28  1  0
 17 16  1  0
 17 18  1  1
 19 18  1  0
 20 19  2  0
 21 22  1  0
 21 20  1  0
 22 27  2  0
 23 22  1  0
 23 24  2  0
 24 25  1  0
 25 26  2  0
 27 19  1  0
 27 26  1  0
 28 30  1  0
 29 28  2  0
M  END
$$$$
