RGW.pdb
     RDKit          3D

 30 31  0  0  1  0  0  0  0  0999 V2000
   29.4755  -16.9616  -16.4146 N   0  0  0  0  0  0  0  0  0  0  0  0
   28.6350  -17.9238  -17.0451 C   0  0  0  0  0  0  0  0  0  0  0  0
   28.9957  -19.1610  -17.0568 N   0  0  0  0  0  0  0  0  0  0  0  0
   27.4061  -17.5397  -17.6602 N   0  0  0  0  0  0  0  0  0  0  0  0
   26.8767  -16.1774  -17.5014 C   0  0  0  0  0  0  0  0  0  0  0  0
   25.4987  -16.2003  -16.9200 C   0  0  0  0  0  0  0  0  0  0  0  0
   25.0962  -17.4766  -16.2586 C   0  0  0  0  0  0  0  0  0  0  0  0
   23.6415  -17.7961  -16.2643 C   0  0  2  0  0  0  0  0  0  0  0  0
   23.0074  -17.6468  -14.9750 N   0  0  0  0  0  0  0  0  0  0  0  0
   23.3369  -19.1455  -16.7815 C   0  0  0  0  0  0  0  0  0  0  0  0
   24.2410  -19.7752  -17.3781 O   0  0  0  0  0  0  0  0  0  0  0  0
   28.3841  -19.8809  -17.4708 N   0  0  0  0  0  0  0  0  0  0  0  0
   22.0763  -19.7719  -16.6415 C   0  0  0  0  0  0  0  0  0  0  0  0
   21.7155  -21.0554  -17.1484 C   0  0  0  0  0  0  0  0  0  0  0  0
   21.5990  -22.1022  -16.0971 O   0  0  0  0  0  0  0  0  0  0  0  0
   21.0695  -23.2097  -16.2585 N   0  0  0  0  0  0  0  0  0  0  0  0
   22.1436  -21.7837  -14.8196 C   0  0  1  0  0  0  0  0  0  0  0  0
   21.8686  -22.5351  -13.6184 C   0  0  0  0  0  0  0  0  0  0  0  0
   23.1266  -22.9711  -12.9237 C   0  0  0  0  0  0  0  0  0  0  0  0
   23.9241  -21.8196  -12.4870 C   0  0  0  0  0  0  0  0  0  0  0  0
   23.6351  -21.0819  -11.3456 N   0  0  0  0  0  0  0  0  0  0  0  0
   24.5316  -20.0999  -11.2104 C   0  0  0  0  0  0  0  0  0  0  0  0
   25.4066  -20.1613  -12.2249 C   0  0  0  0  0  0  0  0  0  0  0  0
   26.4991  -19.3710  -12.5180 C   0  0  0  0  0  0  0  0  0  0  0  0
   27.2409  -19.6691  -13.6557 C   0  0  0  0  0  0  0  0  0  0  0  0
   26.8635  -20.7318  -14.4422 C   0  0  0  0  0  0  0  0  0  0  0  0
   25.7619  -21.5283  -14.1462 C   0  0  0  0  0  0  0  0  0  0  0  0
   25.0397  -21.2278  -13.0270 C   0  0  0  0  0  0  0  0  0  0  0  0
   20.9190  -21.8251  -12.7359 O   0  0  0  0  0  0  0  0  0  0  0  0
   20.2782  -22.4188  -11.8327 O   0  0  0  0  0  0  0  0  0  0  0  0
  2  3  2  0
  2  1  1  0
  4  2  1  0
  5  4  1  0
  6  5  1  0
  7  6  1  0
  7  8  1  0
  8  9  1  1
 10  8  1  0
 10 12  1  0
 11 10  2  0
 13 12  1  0
 14 13  1  0
 15 14  2  0
 16 14  1  0
 17 28  1  0
 17 16  1  0
 17 18  1  1
 19 18  1  0
 20 19  2  0
 21 22  1  0
 21 20  1  0
 22 27  2  0
 23 22  1  0
 23 24  2  0
 24 25  1  0
 25 26  2  0
 27 19  1  0
 27 26  1  0
 28 30  1  0
 29 28  2  0
M  END
$$$$
