RGW.pdb
     RDKit          3D

 30 31  0  0  1  0  0  0  0  0999 V2000
   22.3774  -19.7074  -18.9209 N   0  0  0  0  0  0  0  0  0  0  0  0
   23.5818  -19.8518  -19.6681 C   0  0  0  0  0  0  0  0  0  0  0  0
   23.6258  -20.7100  -20.6287 N   0  0  0  0  0  0  0  0  0  0  0  0
   24.7338  -19.0643  -19.3703 N   0  0  0  0  0  0  0  0  0  0  0  0
   24.6249  -17.8479  -18.5518 C   0  0  0  0  0  0  0  0  0  0  0  0
   25.3905  -17.9887  -17.2746 C   0  0  0  0  0  0  0  0  0  0  0  0
   26.7892  -18.4924  -17.4104 C   0  0  0  0  0  0  0  0  0  0  0  0
   27.2172  -19.5317  -16.4333 C   0  0  2  0  0  0  0  0  0  0  0  0
   26.3320  -20.6715  -16.3701 N   0  0  0  0  0  0  0  0  0  0  0  0
   27.4067  -19.0107  -15.0644 C   0  0  0  0  0  0  0  0  0  0  0  0
   28.0902  -17.9721  -14.9093 O   0  0  0  0  0  0  0  0  0  0  0  0
   24.4996  -20.8630  -21.1546 N   0  0  0  0  0  0  0  0  0  0  0  0
   26.8580  -19.6198  -13.9116 C   0  0  0  0  0  0  0  0  0  0  0  0
   26.8719  -19.0821  -12.5905 C   0  0  0  0  0  0  0  0  0  0  0  0
   26.2066  -19.9530  -11.5836 O   0  0  0  0  0  0  0  0  0  0  0  0
   25.0307  -20.3352  -11.6472 N   0  0  0  0  0  0  0  0  0  0  0  0
   27.0008  -20.3637  -10.4743 C   0  0  2  0  0  0  0  0  0  0  0  0
   26.5255  -21.2299   -9.4222 C   0  0  0  0  0  0  0  0  0  0  0  0
   27.6125  -21.5871   -8.4495 C   0  0  0  0  0  0  0  0  0  0  0  0
   27.8347  -20.5122   -7.4759 C   0  0  0  0  0  0  0  0  0  0  0  0
   27.4957  -19.1861   -7.7150 N   0  0  0  0  0  0  0  0  0  0  0  0
   27.8185  -18.4444   -6.6510 C   0  0  0  0  0  0  0  0  0  0  0  0
   28.3608  -19.2348   -5.7130 C   0  0  0  0  0  0  0  0  0  0  0  0
   28.8455  -18.9351   -4.4562 C   0  0  0  0  0  0  0  0  0  0  0  0
   29.3609  -19.9711   -3.6852 C   0  0  0  0  0  0  0  0  0  0  0  0
   29.3696  -21.2471   -4.1972 C   0  0  0  0  0  0  0  0  0  0  0  0
   28.8807  -21.5487   -5.4644 C   0  0  0  0  0  0  0  0  0  0  0  0
   28.3767  -20.5248   -6.2141 C   0  0  0  0  0  0  0  0  0  0  0  0
   25.3080  -20.6912   -8.7801 O   0  0  0  0  0  0  0  0  0  0  0  0
   24.9054  -19.5201   -8.9934 O   0  0  0  0  0  0  0  0  0  0  0  0
  2  3  2  0
  2  1  1  0
  4  2  1  0
  5  4  1  0
  6  5  1  0
  7  6  1  0
  7  8  1  0
  8  9  1  1
 10  8  1  0
 10 12  1  0
 11 10  2  0
 13 12  1  0
 14 13  1  0
 15 14  2  0
 16 14  1  0
 17 28  1  0
 17 16  1  0
 17 18  1  1
 19 18  1  0
 20 19  2  0
 21 22  1  0
 21 20  1  0
 22 27  2  0
 23 22  1  0
 23 24  2  0
 24 25  1  0
 25 26  2  0
 27 19  1  0
 27 26  1  0
 28 30  1  0
 29 28  2  0
M  END
$$$$
