RGW.pdb
     RDKit          3D

 30 31  0  0  1  0  0  0  0  0999 V2000
   27.0374  -25.8927  -17.3558 N   0  0  0  0  0  0  0  0  0  0  0  0
   26.3606  -26.0796  -18.5955 C   0  0  0  0  0  0  0  0  0  0  0  0
   26.0176  -27.2702  -18.9504 N   0  0  0  0  0  0  0  0  0  0  0  0
   26.0583  -24.9739  -19.4452 N   0  0  0  0  0  0  0  0  0  0  0  0
   26.1385  -23.5939  -18.9444 C   0  0  0  0  0  0  0  0  0  0  0  0
   27.5023  -23.0203  -19.1645 C   0  0  0  0  0  0  0  0  0  0  0  0
   28.3046  -22.7666  -17.9315 C   0  0  0  0  0  0  0  0  0  0  0  0
   28.4942  -21.3406  -17.5458 C   0  0  2  0  0  0  0  0  0  0  0  0
   29.8769  -20.9231  -17.5199 N   0  0  0  0  0  0  0  0  0  0  0  0
   27.8771  -20.9941  -16.2495 C   0  0  0  0  0  0  0  0  0  0  0  0
   26.6366  -21.1196  -16.1254 O   0  0  0  0  0  0  0  0  0  0  0  0
   25.5120  -27.4276  -19.8354 N   0  0  0  0  0  0  0  0  0  0  0  0
   28.6095  -20.5262  -15.1334 C   0  0  0  0  0  0  0  0  0  0  0  0
   28.0589  -20.0664  -13.9005 C   0  0  0  0  0  0  0  0  0  0  0  0
   27.0989  -21.0205  -13.2818 O   0  0  0  0  0  0  0  0  0  0  0  0
   26.8178  -22.1361  -13.7394 N   0  0  0  0  0  0  0  0  0  0  0  0
   26.4696  -20.5970  -12.0758 C   0  0  1  0  0  0  0  0  0  0  0  0
   25.6423  -21.4512  -11.2578 C   0  0  0  0  0  0  0  0  0  0  0  0
   26.3279  -21.8493   -9.9824 C   0  0  0  0  0  0  0  0  0  0  0  0
   26.6186  -20.6814   -9.1433 C   0  0  0  0  0  0  0  0  0  0  0  0
   25.7864  -19.5712   -9.0685 N   0  0  0  0  0  0  0  0  0  0  0  0
   26.3135  -18.6745   -8.2292 C   0  0  0  0  0  0  0  0  0  0  0  0
   27.4686  -19.1529   -7.7440 C   0  0  0  0  0  0  0  0  0  0  0  0
   28.3670  -18.6000   -6.8545 C   0  0  0  0  0  0  0  0  0  0  0  0
   29.5018  -19.3326   -6.5242 C   0  0  0  0  0  0  0  0  0  0  0  0
   29.6876  -20.5717   -7.0902 C   0  0  0  0  0  0  0  0  0  0  0  0
   28.7814  -21.1288   -7.9869 C   0  0  0  0  0  0  0  0  0  0  0  0
   27.6702  -20.4019   -8.3052 C   0  0  0  0  0  0  0  0  0  0  0  0
   24.2969  -20.8743  -11.0533 O   0  0  0  0  0  0  0  0  0  0  0  0
   24.0746  -19.6436  -11.1752 O   0  0  0  0  0  0  0  0  0  0  0  0
  2  3  2  0
  2  1  1  0
  4  2  1  0
  5  4  1  0
  6  5  1  0
  7  6  1  0
  7  8  1  0
  8  9  1  1
 10  8  1  0
 10 12  1  0
 11 10  2  0
 13 12  1  0
 14 13  1  0
 15 14  2  0
 16 14  1  0
 17 28  1  0
 17 16  1  0
 17 18  1  1
 19 18  1  0
 20 19  2  0
 21 22  1  0
 21 20  1  0
 22 27  2  0
 23 22  1  0
 23 24  2  0
 24 25  1  0
 25 26  2  0
 27 19  1  0
 27 26  1  0
 28 30  1  0
 29 28  2  0
M  END
$$$$
