RGW.pdb
     RDKit          3D

 30 31  0  0  1  0  0  0  0  0999 V2000
   26.0387  -25.5764  -16.1122 N   0  0  0  0  0  0  0  0  0  0  0  0
   24.7724  -26.2089  -16.2745 C   0  0  0  0  0  0  0  0  0  0  0  0
   24.6205  -27.4231  -15.8701 N   0  0  0  0  0  0  0  0  0  0  0  0
   23.6757  -25.5212  -16.8748 N   0  0  0  0  0  0  0  0  0  0  0  0
   23.6830  -24.0566  -17.0033 C   0  0  0  0  0  0  0  0  0  0  0  0
   22.9755  -23.4124  -15.8536 C   0  0  0  0  0  0  0  0  0  0  0  0
   23.3848  -22.0104  -15.5450 C   0  0  0  0  0  0  0  0  0  0  0  0
   24.8392  -21.7067  -15.6477 C   0  0  2  0  0  0  0  0  0  0  0  0
   25.6570  -22.8629  -15.9326 N   0  0  0  0  0  0  0  0  0  0  0  0
   25.3855  -21.0307  -14.4537 C   0  0  0  0  0  0  0  0  0  0  0  0
   24.7611  -20.0518  -13.9827 O   0  0  0  0  0  0  0  0  0  0  0  0
   23.7391  -27.9281  -16.0482 N   0  0  0  0  0  0  0  0  0  0  0  0
   26.5797  -21.4266  -13.8070 C   0  0  0  0  0  0  0  0  0  0  0  0
   27.1251  -20.8480  -12.6228 C   0  0  0  0  0  0  0  0  0  0  0  0
   26.6231  -21.4704  -11.3676 O   0  0  0  0  0  0  0  0  0  0  0  0
   26.3506  -22.6708  -11.2342 N   0  0  0  0  0  0  0  0  0  0  0  0
   26.4512  -20.6015  -10.2516 C   0  0  1  0  0  0  0  0  0  0  0  0
   25.5858  -20.8907   -9.1334 C   0  0  0  0  0  0  0  0  0  0  0  0
   25.8451  -19.9803   -7.9674 C   0  0  0  0  0  0  0  0  0  0  0  0
   27.2474  -20.0427   -7.5405 C   0  0  0  0  0  0  0  0  0  0  0  0
   28.3062  -20.2067   -8.4252 N   0  0  0  0  0  0  0  0  0  0  0  0
   29.4565  -20.2282   -7.7449 C   0  0  0  0  0  0  0  0  0  0  0  0
   29.1962  -20.0836   -6.4372 C   0  0  0  0  0  0  0  0  0  0  0  0
   30.0462  -20.0442   -5.3510 C   0  0  0  0  0  0  0  0  0  0  0  0
   29.4913  -19.8823   -4.0864 C   0  0  0  0  0  0  0  0  0  0  0  0
   28.1267  -19.7679   -3.9632 C   0  0  0  0  0  0  0  0  0  0  0  0
   27.2700  -19.8077   -5.0588 C   0  0  0  0  0  0  0  0  0  0  0  0
   27.8243  -19.9670   -6.2964 C   0  0  0  0  0  0  0  0  0  0  0  0
   24.1661  -20.9430   -9.5413 O   0  0  0  0  0  0  0  0  0  0  0  0
   23.7620  -20.4267  -10.6132 O   0  0  0  0  0  0  0  0  0  0  0  0
  2  3  2  0
  2  1  1  0
  4  2  1  0
  5  4  1  0
  6  5  1  0
  7  6  1  0
  7  8  1  0
  8  9  1  1
 10  8  1  0
 10 12  1  0
 11 10  2  0
 13 12  1  0
 14 13  1  0
 15 14  2  0
 16 14  1  0
 17 28  1  0
 17 16  1  0
 17 18  1  1
 19 18  1  0
 20 19  2  0
 21 22  1  0
 21 20  1  0
 22 27  2  0
 23 22  1  0
 23 24  2  0
 24 25  1  0
 25 26  2  0
 27 19  1  0
 27 26  1  0
 28 30  1  0
 29 28  2  0
M  END
$$$$
