RGW.pdb
     RDKit          3D

 30 31  0  0  1  0  0  0  0  0999 V2000
   30.6063  -20.7612  -20.3425 N   0  0  0  0  0  0  0  0  0  0  0  0
   29.4257  -21.5487  -20.4677 C   0  0  0  0  0  0  0  0  0  0  0  0
   29.0763  -21.9758  -21.6325 N   0  0  0  0  0  0  0  0  0  0  0  0
   28.6288  -21.8700  -19.3285 N   0  0  0  0  0  0  0  0  0  0  0  0
   29.2538  -22.2752  -18.0609 C   0  0  0  0  0  0  0  0  0  0  0  0
   29.8510  -21.0990  -17.3557 C   0  0  0  0  0  0  0  0  0  0  0  0
   29.1871  -20.7046  -16.0781 C   0  0  0  0  0  0  0  0  0  0  0  0
   27.9654  -19.8615  -16.1987 C   0  0  2  0  0  0  0  0  0  0  0  0
   28.2350  -18.4982  -16.5930 N   0  0  0  0  0  0  0  0  0  0  0  0
   27.1417  -19.8393  -14.9731 C   0  0  0  0  0  0  0  0  0  0  0  0
   26.8598  -20.9289  -14.4224 O   0  0  0  0  0  0  0  0  0  0  0  0
   28.2157  -22.5320  -21.7498 N   0  0  0  0  0  0  0  0  0  0  0  0
   26.6499  -18.6523  -14.3813 C   0  0  0  0  0  0  0  0  0  0  0  0
   25.7667  -18.5746  -13.2638 C   0  0  0  0  0  0  0  0  0  0  0  0
   26.3389  -19.1353  -12.0096 O   0  0  0  0  0  0  0  0  0  0  0  0
   27.0491  -18.5061  -11.2141 N   0  0  0  0  0  0  0  0  0  0  0  0
   26.0339  -20.4976  -11.7249 C   0  0  2  0  0  0  0  0  0  0  0  0
   25.9640  -21.0440  -10.3909 C   0  0  0  0  0  0  0  0  0  0  0  0
   27.2027  -20.7504   -9.5940 C   0  0  0  0  0  0  0  0  0  0  0  0
   26.9008  -20.6169   -8.1645 C   0  0  0  0  0  0  0  0  0  0  0  0
   25.6810  -20.9795   -7.6065 N   0  0  0  0  0  0  0  0  0  0  0  0
   25.7036  -20.7412   -6.2916 C   0  0  0  0  0  0  0  0  0  0  0  0
   26.8987  -20.2322   -5.9579 C   0  0  0  0  0  0  0  0  0  0  0  0
   27.3943  -19.8310   -4.7342 C   0  0  0  0  0  0  0  0  0  0  0  0
   28.6911  -19.3319   -4.6809 C   0  0  0  0  0  0  0  0  0  0  0  0
   29.4281  -19.2563   -5.8391 C   0  0  0  0  0  0  0  0  0  0  0  0
   28.9279  -19.6611   -7.0726 C   0  0  0  0  0  0  0  0  0  0  0  0
   27.6536  -20.1497   -7.1150 C   0  0  0  0  0  0  0  0  0  0  0  0
   24.7125  -20.6559   -9.7071 O   0  0  0  0  0  0  0  0  0  0  0  0
   24.4403  -21.0468   -8.5443 O   0  0  0  0  0  0  0  0  0  0  0  0
  2  3  2  0
  2  1  1  0
  4  2  1  0
  5  4  1  0
  6  5  1  0
  7  6  1  0
  7  8  1  0
  8  9  1  1
 10  8  1  0
 10 12  1  0
 11 10  2  0
 13 12  1  0
 14 13  1  0
 15 14  2  0
 16 14  1  0
 17 28  1  0
 17 16  1  0
 17 18  1  6
 19 18  1  0
 20 19  2  0
 21 22  1  0
 21 20  1  0
 22 27  2  0
 23 22  1  0
 23 24  2  0
 24 25  1  0
 25 26  2  0
 27 19  1  0
 27 26  1  0
 28 30  1  0
 29 28  2  0
M  END
$$$$
