RGW.pdb
     RDKit          3D

 30 31  0  0  1  0  0  0  0  0999 V2000
   29.5083  -25.9296  -16.1387 N   0  0  0  0  0  0  0  0  0  0  0  0
   28.3067  -26.6484  -16.4016 C   0  0  0  0  0  0  0  0  0  0  0  0
   28.2893  -27.9259  -16.2320 N   0  0  0  0  0  0  0  0  0  0  0  0
   27.1285  -25.9783  -16.8475 N   0  0  0  0  0  0  0  0  0  0  0  0
   27.0763  -24.5107  -16.9175 C   0  0  0  0  0  0  0  0  0  0  0  0
   28.3671  -23.9502  -17.4248 C   0  0  0  0  0  0  0  0  0  0  0  0
   28.4345  -22.4618  -17.5177 C   0  0  0  0  0  0  0  0  0  0  0  0
   29.0763  -21.7548  -16.3748 C   0  0  2  0  0  0  0  0  0  0  0  0
   29.7633  -22.6342  -15.4575 N   0  0  0  0  0  0  0  0  0  0  0  0
   28.1402  -20.9129  -15.6025 C   0  0  0  0  0  0  0  0  0  0  0  0
   27.1337  -20.4480  -16.1861 O   0  0  0  0  0  0  0  0  0  0  0  0
   27.4497  -28.4747  -16.4717 N   0  0  0  0  0  0  0  0  0  0  0  0
   28.3152  -20.5994  -14.2343 C   0  0  0  0  0  0  0  0  0  0  0  0
   27.2816  -20.5035  -13.2559 C   0  0  0  0  0  0  0  0  0  0  0  0
   27.6506  -21.0868  -11.9374 O   0  0  0  0  0  0  0  0  0  0  0  0
   28.8105  -21.2870  -11.5533 N   0  0  0  0  0  0  0  0  0  0  0  0
   26.5735  -21.4326  -11.0712 C   0  0  2  0  0  0  0  0  0  0  0  0
   26.5612  -21.1576   -9.6544 C   0  0  0  0  0  0  0  0  0  0  0  0
   27.7380  -20.3270   -9.2293 C   0  0  0  0  0  0  0  0  0  0  0  0
   27.6892  -20.0235   -7.7947 C   0  0  0  0  0  0  0  0  0  0  0  0
   26.7056  -19.2300   -7.2172 N   0  0  0  0  0  0  0  0  0  0  0  0
   26.9255  -19.1334   -5.9024 C   0  0  0  0  0  0  0  0  0  0  0  0
   28.0231  -19.8369   -5.5878 C   0  0  0  0  0  0  0  0  0  0  0  0
   28.6439  -20.0372   -4.3719 C   0  0  0  0  0  0  0  0  0  0  0  0
   29.7885  -20.8260   -4.3393 C   0  0  0  0  0  0  0  0  0  0  0  0
   30.2578  -21.3745   -5.5094 C   0  0  0  0  0  0  0  0  0  0  0  0
   29.6315  -21.1723   -6.7352 C   0  0  0  0  0  0  0  0  0  0  0  0
   28.5082  -20.3962   -6.7572 C   0  0  0  0  0  0  0  0  0  0  0  0
   25.2597  -20.6112   -9.2159 O   0  0  0  0  0  0  0  0  0  0  0  0
   24.6623  -19.7145   -9.8623 O   0  0  0  0  0  0  0  0  0  0  0  0
  2  3  2  0
  2  1  1  0
  4  2  1  0
  5  4  1  0
  6  5  1  0
  7  6  1  0
  7  8  1  0
  8  9  1  1
 10  8  1  0
 10 12  1  0
 11 10  2  0
 13 12  1  0
 14 13  1  0
 15 14  2  0
 16 14  1  0
 17 28  1  0
 17 16  1  0
 17 18  1  1
 19 18  1  0
 20 19  2  0
 21 22  1  0
 21 20  1  0
 22 27  2  0
 23 22  1  0
 23 24  2  0
 24 25  1  0
 25 26  2  0
 27 19  1  0
 27 26  1  0
 28 30  1  0
 29 28  2  0
M  END
$$$$
