RGW.pdb
     RDKit          3D

 30 31  0  0  1  0  0  0  0  0999 V2000
   24.2317  -27.5666  -18.5956 N   0  0  0  0  0  0  0  0  0  0  0  0
   22.9932  -28.0914  -18.1262 C   0  0  0  0  0  0  0  0  0  0  0  0
   22.3903  -28.9945  -18.8206 N   0  0  0  0  0  0  0  0  0  0  0  0
   22.4136  -27.6345  -16.9050 N   0  0  0  0  0  0  0  0  0  0  0  0
   23.1730  -26.7754  -15.9848 C   0  0  0  0  0  0  0  0  0  0  0  0
   23.3643  -25.4080  -16.5600 C   0  0  0  0  0  0  0  0  0  0  0  0
   23.0073  -24.2714  -15.6604 C   0  0  0  0  0  0  0  0  0  0  0  0
   23.8141  -24.1322  -14.4163 C   0  0  2  0  0  0  0  0  0  0  0  0
   23.6842  -25.2493  -13.5097 N   0  0  0  0  0  0  0  0  0  0  0  0
   23.5348  -22.8892  -13.6692 C   0  0  0  0  0  0  0  0  0  0  0  0
   23.1126  -22.9806  -12.4931 O   0  0  0  0  0  0  0  0  0  0  0  0
   21.4744  -29.3613  -18.5203 N   0  0  0  0  0  0  0  0  0  0  0  0
   23.7174  -21.5939  -14.2077 C   0  0  0  0  0  0  0  0  0  0  0  0
   23.6537  -20.3667  -13.4833 C   0  0  0  0  0  0  0  0  0  0  0  0
   24.9196  -20.0206  -12.7814 O   0  0  0  0  0  0  0  0  0  0  0  0
   25.1379  -18.9454  -12.2076 N   0  0  0  0  0  0  0  0  0  0  0  0
   25.9401  -21.0148  -12.7835 C   0  0  1  0  0  0  0  0  0  0  0  0
   27.2765  -20.7962  -12.2841 C   0  0  0  0  0  0  0  0  0  0  0  0
   27.5691  -21.6285  -11.0687 C   0  0  0  0  0  0  0  0  0  0  0  0
   27.0241  -21.0126   -9.8537 C   0  0  0  0  0  0  0  0  0  0  0  0
   25.6696  -20.7651   -9.6671 N   0  0  0  0  0  0  0  0  0  0  0  0
   25.4804  -20.1984   -8.4716 C   0  0  0  0  0  0  0  0  0  0  0  0
   26.6650  -20.0614   -7.8580 C   0  0  0  0  0  0  0  0  0  0  0  0
   26.9810  -19.5363   -6.6217 C   0  0  0  0  0  0  0  0  0  0  0  0
   28.3167  -19.5201   -6.2353 C   0  0  0  0  0  0  0  0  0  0  0  0
   29.2678  -20.0236   -7.0909 C   0  0  0  0  0  0  0  0  0  0  0  0
   28.9487  -20.5531   -8.3373 C   0  0  0  0  0  0  0  0  0  0  0  0
   27.6346  -20.5646   -8.7079 C   0  0  0  0  0  0  0  0  0  0  0  0
   28.2877  -20.9314  -13.3535 O   0  0  0  0  0  0  0  0  0  0  0  0
   27.9852  -21.3153  -14.5112 O   0  0  0  0  0  0  0  0  0  0  0  0
  2  3  2  0
  2  1  1  0
  4  2  1  0
  5  4  1  0
  6  5  1  0
  7  6  1  0
  7  8  1  0
  8  9  1  1
 10  8  1  0
 10 12  1  0
 11 10  2  0
 13 12  1  0
 14 13  1  0
 15 14  2  0
 16 14  1  0
 17 28  1  0
 17 16  1  0
 17 18  1  6
 19 18  1  0
 20 19  2  0
 21 22  1  0
 21 20  1  0
 22 27  2  0
 23 22  1  0
 23 24  2  0
 24 25  1  0
 25 26  2  0
 27 19  1  0
 27 26  1  0
 28 30  1  0
 29 28  2  0
M  END
$$$$
