RGW.pdb
     RDKit          3D

 30 31  0  0  1  0  0  0  0  0999 V2000
   24.8086  -17.1740  -20.2126 N   0  0  0  0  0  0  0  0  0  0  0  0
   24.0396  -17.1345  -19.0139 C   0  0  0  0  0  0  0  0  0  0  0  0
   22.8706  -16.5924  -19.0354 N   0  0  0  0  0  0  0  0  0  0  0  0
   24.5421  -17.6836  -17.7965 N   0  0  0  0  0  0  0  0  0  0  0  0
   25.8440  -18.3655  -17.7573 C   0  0  0  0  0  0  0  0  0  0  0  0
   26.9101  -17.4591  -17.2289 C   0  0  0  0  0  0  0  0  0  0  0  0
   27.7348  -18.0109  -16.1136 C   0  0  0  0  0  0  0  0  0  0  0  0
   27.0312  -18.8958  -15.1440 C   0  0  2  0  0  0  0  0  0  0  0  0
   26.2247  -18.1809  -14.1822 N   0  0  0  0  0  0  0  0  0  0  0  0
   27.9365  -19.8042  -14.4116 C   0  0  0  0  0  0  0  0  0  0  0  0
   29.0258  -20.1200  -14.9440 O   0  0  0  0  0  0  0  0  0  0  0  0
   22.2978  -16.5486  -18.1788 N   0  0  0  0  0  0  0  0  0  0  0  0
   27.6433  -20.3416  -13.1363 C   0  0  0  0  0  0  0  0  0  0  0  0
   28.4952  -21.1864  -12.3649 C   0  0  0  0  0  0  0  0  0  0  0  0
   27.9036  -21.6057  -11.0653 O   0  0  0  0  0  0  0  0  0  0  0  0
   28.4499  -22.3625  -10.2518 N   0  0  0  0  0  0  0  0  0  0  0  0
   26.6134  -21.0859  -10.7568 C   0  0  1  0  0  0  0  0  0  0  0  0
   25.8154  -21.5268   -9.6379 C   0  0  0  0  0  0  0  0  0  0  0  0
   26.6507  -21.7971   -8.4194 C   0  0  0  0  0  0  0  0  0  0  0  0
   27.0575  -20.5504   -7.7615 C   0  0  0  0  0  0  0  0  0  0  0  0
   26.8152  -19.2918   -8.2981 N   0  0  0  0  0  0  0  0  0  0  0  0
   27.3012  -18.3558   -7.4772 C   0  0  0  0  0  0  0  0  0  0  0  0
   27.8584  -18.9516   -6.4127 C   0  0  0  0  0  0  0  0  0  0  0  0
   28.4843  -18.4132   -5.3071 C   0  0  0  0  0  0  0  0  0  0  0  0
   28.9775  -19.2832   -4.3410 C   0  0  0  0  0  0  0  0  0  0  0  0
   28.8256  -20.6381   -4.5193 C   0  0  0  0  0  0  0  0  0  0  0  0
   28.1944  -21.1805   -5.6342 C   0  0  0  0  0  0  0  0  0  0  0  0
   27.7134  -20.3182   -6.5774 C   0  0  0  0  0  0  0  0  0  0  0  0
   24.6772  -20.6178   -9.3875 O   0  0  0  0  0  0  0  0  0  0  0  0
   23.8585  -20.8172   -8.4553 O   0  0  0  0  0  0  0  0  0  0  0  0
  2  3  2  0
  2  1  1  0
  4  2  1  0
  5  4  1  0
  6  5  1  0
  7  6  1  0
  7  8  1  0
  8  9  1  1
 10  8  1  0
 10 12  1  0
 11 10  2  0
 13 12  1  0
 14 13  1  0
 15 14  2  0
 16 14  1  0
 17 28  1  0
 17 16  1  0
 17 18  1  1
 19 18  1  0
 20 19  2  0
 21 22  1  0
 21 20  1  0
 22 27  2  0
 23 22  1  0
 23 24  2  0
 24 25  1  0
 25 26  2  0
 27 19  1  0
 27 26  1  0
 28 30  1  0
 29 28  2  0
M  END
$$$$
