HRT.pdb
     RDKit          3D

 29 29  0  0  1  0  0  0  0  0999 V2000
   26.5319  -20.8548  -17.6138 N   0  0  0  0  0  0  0  0  0  0  0  0
   26.4217  -19.8607  -16.5750 C   0  0  1  0  0  0  0  0  0  0  0  0
   25.1934  -19.0093  -16.7102 C   0  0  0  0  0  0  0  0  0  0  0  0
   25.3347  -18.2169  -17.9661 C   0  0  0  0  0  0  0  0  0  0  0  0
   26.3728  -17.3725  -18.2982 C   0  0  0  0  0  0  0  0  0  0  0  0
   26.1324  -16.8461  -19.5113 N   0  0  0  0  0  0  0  0  0  0  0  0
   24.9547  -17.3393  -19.9651 C   0  0  0  0  0  0  0  0  0  0  0  0
   24.4832  -18.1694  -19.0162 N   0  0  0  0  0  0  0  0  0  0  0  0
   26.5898  -20.4817  -15.2661 C   0  0  0  0  0  0  0  0  0  0  0  0
   25.7419  -21.3328  -14.8936 O   0  0  0  0  0  0  0  0  0  0  0  0
   33.3797  -22.6399  -10.5474 N   0  0  0  0  0  0  0  0  0  0  0  0
   33.2019  -23.0342  -11.8864 C   0  0  0  0  0  0  0  0  0  0  0  0
   33.7336  -24.1027  -12.3704 N   0  0  0  0  0  0  0  0  0  0  0  0
   32.4058  -22.2241  -12.7378 N   0  0  0  0  0  0  0  0  0  0  0  0
   31.4194  -21.3341  -12.1804 C   0  0  0  0  0  0  0  0  0  0  0  0
   30.0905  -21.4778  -12.8997 C   0  0  0  0  0  0  0  0  0  0  0  0
   29.0573  -20.5134  -12.3728 C   0  0  0  0  0  0  0  0  0  0  0  0
   27.7085  -20.6884  -12.9932 C   0  0  2  0  0  0  0  0  0  0  0  0
   27.6450  -20.2061  -14.3576 N   0  0  0  0  0  0  0  0  0  0  0  0
   26.6331  -20.0393  -12.1667 C   0  0  0  0  0  0  0  0  0  0  0  0
   26.5407  -18.7865  -12.1920 O   0  0  0  0  0  0  0  0  0  0  0  0
   33.5879  -24.4035  -13.3435 C   0  0  0  0  0  0  0  0  0  0  0  0
   23.2387  -21.9252  -11.4680 C   0  0  2  0  0  0  0  0  0  0  0  0
   23.3803  -20.4515  -11.1955 O   0  0  0  0  0  0  0  0  0  0  0  0
   22.3387  -20.0126  -10.3856 C   0  0  1  0  0  0  0  0  0  0  0  0
   24.7268  -20.1536  -10.5213 N   0  0  0  0  0  0  0  0  0  0  0  0
   25.7342  -20.7616  -11.3740 C   0  0  0  0  0  0  0  0  0  0  0  0
   24.7412  -20.9079   -9.2345 O   0  0  0  0  0  0  0  0  0  0  0  0
   23.8765  -20.6227   -8.1854 O   0  0  0  0  0  0  0  0  0  0  0  0
  2  1  1  6
  3  2  1  0
  3  4  1  0
  4  5  2  0
  4  8  1  0
  5  6  1  0
  6  7  1  0
  8  7  2  0
  9  2  1  0
 10  9  2  0
 11 12  1  0
 12 14  1  0
 12 13  2  0
 14 15  1  0
 16 17  1  0
 16 15  1  0
 18 17  1  1
 18 19  1  0
 19  9  1  0
 20 18  1  0
 21 20  2  0
 23 25  1  0
 23 22  1  6
 24 23  1  0
 25 26  1  6
 26 20  1  0
 27 25  1  0
 27 28  1  0
 29 27  2  0
M  END
$$$$
