HRT.pdb
     RDKit          3D

 29 29  0  0  1  0  0  0  0  0999 V2000
   27.9890  -20.8174  -17.1753 N   0  0  0  0  0  0  0  0  0  0  0  0
   27.2650  -21.7463  -16.3433 C   0  0  1  0  0  0  0  0  0  0  0  0
   28.1677  -22.6455  -15.5505 C   0  0  0  0  0  0  0  0  0  0  0  0
   29.0039  -23.4085  -16.5219 C   0  0  0  0  0  0  0  0  0  0  0  0
   30.3780  -23.3779  -16.6322 C   0  0  0  0  0  0  0  0  0  0  0  0
   30.7517  -24.2024  -17.6257 N   0  0  0  0  0  0  0  0  0  0  0  0
   29.6383  -24.7635  -18.1567 C   0  0  0  0  0  0  0  0  0  0  0  0
   28.5863  -24.2716  -17.4761 N   0  0  0  0  0  0  0  0  0  0  0  0
   26.2655  -21.0378  -15.5520 C   0  0  0  0  0  0  0  0  0  0  0  0
   26.6571  -20.1685  -14.7317 O   0  0  0  0  0  0  0  0  0  0  0  0
   18.7547  -18.0058  -18.1537 N   0  0  0  0  0  0  0  0  0  0  0  0
   19.8328  -17.1034  -18.0955 C   0  0  0  0  0  0  0  0  0  0  0  0
   19.7880  -15.9347  -18.6348 N   0  0  0  0  0  0  0  0  0  0  0  0
   21.0162  -17.4949  -17.4164 N   0  0  0  0  0  0  0  0  0  0  0  0
   21.0936  -18.7824  -16.7742 C   0  0  0  0  0  0  0  0  0  0  0  0
   22.4579  -18.9930  -16.1430 C   0  0  0  0  0  0  0  0  0  0  0  0
   22.5790  -20.3536  -15.5036 C   0  0  0  0  0  0  0  0  0  0  0  0
   23.8823  -20.5685  -14.8034 C   0  0  2  0  0  0  0  0  0  0  0  0
   24.8633  -21.2455  -15.6264 N   0  0  0  0  0  0  0  0  0  0  0  0
   23.6967  -21.3095  -13.5082 C   0  0  0  0  0  0  0  0  0  0  0  0
   23.5713  -22.5589  -13.5526 O   0  0  0  0  0  0  0  0  0  0  0  0
   20.6004  -15.3038  -18.6607 C   0  0  0  0  0  0  0  0  0  0  0  0
   25.8992  -21.2118  -10.4337 C   0  0  2  0  0  0  0  0  0  0  0  0
   24.5125  -20.7770  -10.0415 O   0  0  0  0  0  0  0  0  0  0  0  0
   24.4262  -19.3892  -10.0492 C   0  0  2  0  0  0  0  0  0  0  0  0
   23.4692  -21.3701  -10.9986 N   0  0  0  0  0  0  0  0  0  0  0  0
   23.6572  -20.6759  -12.2612 C   0  0  0  0  0  0  0  0  0  0  0  0
   22.1299  -20.9654  -10.4812 O   0  0  0  0  0  0  0  0  0  0  0  0
   21.5709  -21.5104   -9.3323 O   0  0  0  0  0  0  0  0  0  0  0  0
  2  1  1  1
  3  2  1  0
  3  4  1  0
  4  5  2  0
  4  8  1  0
  5  6  1  0
  6  7  1  0
  8  7  2  0
  9  2  1  0
 10  9  2  0
 11 12  1  0
 12 14  1  0
 12 13  2  0
 14 15  1  0
 16 17  1  0
 16 15  1  0
 18 17  1  6
 18 19  1  0
 19  9  1  0
 20 18  1  0
 21 20  2  0
 23 25  1  0
 23 22  1  1
 24 23  1  0
 25 26  1  1
 26 20  1  0
 27 25  1  0
 27 28  1  0
 29 27  2  0
M  END
$$$$
