HRT.pdb
     RDKit          3D

 29 29  0  0  1  0  0  0  0  0999 V2000
   19.5488   -7.2129  -15.3646 N   0  0  0  0  0  0  0  0  0  0  0  0
   20.7639   -7.9631  -15.5640 C   0  0  1  0  0  0  0  0  0  0  0  0
   21.6481   -7.9746  -14.3516 C   0  0  0  0  0  0  0  0  0  0  0  0
   21.8990   -6.5552  -13.9677 C   0  0  0  0  0  0  0  0  0  0  0  0
   22.8540   -5.7126  -14.4959 C   0  0  0  0  0  0  0  0  0  0  0  0
   22.7618   -4.5175  -13.8880 N   0  0  0  0  0  0  0  0  0  0  0  0
   21.7613   -4.5783  -12.9760 C   0  0  0  0  0  0  0  0  0  0  0  0
   21.2479   -5.8211  -13.0366 N   0  0  0  0  0  0  0  0  0  0  0  0
   20.4564   -9.2823  -16.1047 C   0  0  0  0  0  0  0  0  0  0  0  0
   21.4001  -10.0978  -16.2673 O   0  0  0  0  0  0  0  0  0  0  0  0
   14.3838  -10.8125  -12.6645 N   0  0  0  0  0  0  0  0  0  0  0  0
   13.6982  -11.3575  -13.7659 C   0  0  0  0  0  0  0  0  0  0  0  0
   12.5053  -11.8338  -13.6729 N   0  0  0  0  0  0  0  0  0  0  0  0
   14.3453  -11.3841  -15.0291 N   0  0  0  0  0  0  0  0  0  0  0  0
   15.6217  -12.0354  -15.1783 C   0  0  0  0  0  0  0  0  0  0  0  0
   16.5901  -11.1607  -15.9535 C   0  0  0  0  0  0  0  0  0  0  0  0
   17.9263  -11.8333  -16.1468 C   0  0  0  0  0  0  0  0  0  0  0  0
   18.8682  -11.0508  -17.0045 C   0  0  2  0  0  0  0  0  0  0  0  0
   19.1625   -9.7368  -16.4708 N   0  0  0  0  0  0  0  0  0  0  0  0
   18.3603  -10.9322  -18.4149 C   0  0  0  0  0  0  0  0  0  0  0  0
   17.4241  -10.1257  -18.6421 O   0  0  0  0  0  0  0  0  0  0  0  0
   12.0029  -12.2335  -14.4769 C   0  0  0  0  0  0  0  0  0  0  0  0
   20.2518  -10.0544  -21.5654 C   0  0  2  0  0  0  0  0  0  0  0  0
   19.6621  -11.4311  -21.7169 O   0  0  0  0  0  0  0  0  0  0  0  0
   20.5980  -12.3946  -21.3574 C   0  0  2  0  0  0  0  0  0  0  0  0
   18.4030  -11.5779  -20.8511 N   0  0  0  0  0  0  0  0  0  0  0  0
   18.8790  -11.6746  -19.4816 C   0  0  0  0  0  0  0  0  0  0  0  0
   17.7982  -12.8987  -21.1898 O   0  0  0  0  0  0  0  0  0  0  0  0
   17.0891  -13.1229  -22.3630 O   0  0  0  0  0  0  0  0  0  0  0  0
  2  1  1  1
  3  2  1  0
  3  4  1  0
  4  5  2  0
  4  8  1  0
  5  6  1  0
  6  7  1  0
  8  7  2  0
  9  2  1  0
 10  9  2  0
 11 12  1  0
 12 14  1  0
 12 13  2  0
 14 15  1  0
 16 17  1  0
 16 15  1  0
 18 17  1  1
 18 19  1  0
 19  9  1  0
 20 18  1  0
 21 20  2  0
 23 25  1  0
 23 22  1  6
 24 23  1  0
 25 26  1  6
 26 20  1  0
 27 25  1  0
 27 28  1  0
 29 27  2  0
M  END
$$$$
