HRT.pdb
     RDKit          3D

 29 29  0  0  1  0  0  0  0  0999 V2000
   24.7873  -13.7780  -17.6266 N   0  0  0  0  0  0  0  0  0  0  0  0
   24.1719  -14.9057  -18.2812 C   0  0  1  0  0  0  0  0  0  0  0  0
   25.0284  -16.1375  -18.2496 C   0  0  0  0  0  0  0  0  0  0  0  0
   26.2935  -15.8210  -18.9737 C   0  0  0  0  0  0  0  0  0  0  0  0
   26.5221  -14.7469  -19.8074 C   0  0  0  0  0  0  0  0  0  0  0  0
   27.7841  -14.8141  -20.2650 N   0  0  0  0  0  0  0  0  0  0  0  0
   28.3714  -15.9159  -19.7382 C   0  0  0  0  0  0  0  0  0  0  0  0
   27.4540  -16.5160  -18.9570 N   0  0  0  0  0  0  0  0  0  0  0  0
   22.8145  -15.0962  -17.7826 C   0  0  0  0  0  0  0  0  0  0  0  0
   22.6135  -15.0079  -16.5442 O   0  0  0  0  0  0  0  0  0  0  0  0
   15.3519  -11.4713  -18.4499 N   0  0  0  0  0  0  0  0  0  0  0  0
   15.0651  -12.6012  -17.6619 C   0  0  0  0  0  0  0  0  0  0  0  0
   14.0347  -12.6655  -16.8919 N   0  0  0  0  0  0  0  0  0  0  0  0
   15.9445  -13.7142  -17.7168 N   0  0  0  0  0  0  0  0  0  0  0  0
   17.2474  -13.5820  -18.3174 C   0  0  0  0  0  0  0  0  0  0  0  0
   17.9010  -14.9398  -18.5002 C   0  0  0  0  0  0  0  0  0  0  0  0
   19.3221  -14.8196  -18.9912 C   0  0  0  0  0  0  0  0  0  0  0  0
   20.3202  -15.4746  -18.0914 C   0  0  2  0  0  0  0  0  0  0  0  0
   21.6784  -15.3779  -18.5855 N   0  0  0  0  0  0  0  0  0  0  0  0
   19.9677  -16.9131  -17.8316 C   0  0  0  0  0  0  0  0  0  0  0  0
   20.0801  -17.7315  -18.7783 O   0  0  0  0  0  0  0  0  0  0  0  0
   13.8893  -13.4328  -16.2220 C   0  0  0  0  0  0  0  0  0  0  0  0
   20.9283  -18.8896  -14.4890 C   0  0  2  0  0  0  0  0  0  0  0  0
   19.4566  -18.9491  -14.7998 O   0  0  0  0  0  0  0  0  0  0  0  0
   18.7782  -17.9623  -14.0930 C   0  0  2  0  0  0  0  0  0  0  0  0
   19.2147  -18.7725  -16.3053 N   0  0  0  0  0  0  0  0  0  0  0  0
   19.5222  -17.3813  -16.5904 C   0  0  0  0  0  0  0  0  0  0  0  0
   17.7499  -18.9434  -16.5298 O   0  0  0  0  0  0  0  0  0  0  0  0
   17.1282  -20.1855  -16.5274 O   0  0  0  0  0  0  0  0  0  0  0  0
  2  1  1  1
  3  2  1  0
  3  4  1  0
  4  5  2  0
  4  8  1  0
  5  6  1  0
  6  7  1  0
  8  7  2  0
  9  2  1  0
 10  9  2  0
 11 12  1  0
 12 14  1  0
 12 13  2  0
 14 15  1  0
 16 17  1  0
 16 15  1  0
 18 17  1  6
 18 19  1  0
 19  9  1  0
 20 18  1  0
 21 20  2  0
 23 25  1  0
 23 22  1  1
 24 23  1  0
 25 26  1  6
 26 20  1  0
 27 25  1  0
 27 28  1  0
 29 27  2  0
M  END
$$$$
