HRT.pdb
     RDKit          3D

 29 29  0  0  1  0  0  0  0  0999 V2000
   26.7831  -18.6842  -19.2030 N   0  0  0  0  0  0  0  0  0  0  0  0
   26.3904  -17.9920  -18.0006 C   0  0  1  0  0  0  0  0  0  0  0  0
   25.5616  -16.7713  -18.2744 C   0  0  0  0  0  0  0  0  0  0  0  0
   26.4332  -15.7886  -18.9812 C   0  0  0  0  0  0  0  0  0  0  0  0
   26.2939  -15.3438  -20.2789 C   0  0  0  0  0  0  0  0  0  0  0  0
   27.2751  -14.4641  -20.5434 N   0  0  0  0  0  0  0  0  0  0  0  0
   28.0440  -14.3359  -19.4350 C   0  0  0  0  0  0  0  0  0  0  0  0
   27.5202  -15.1459  -18.4961 N   0  0  0  0  0  0  0  0  0  0  0  0
   25.7978  -18.9289  -17.0528 C   0  0  0  0  0  0  0  0  0  0  0  0
   24.8938  -19.7025  -17.4609 O   0  0  0  0  0  0  0  0  0  0  0  0
   25.5879  -19.3508   -9.0189 N   0  0  0  0  0  0  0  0  0  0  0  0
   25.1433  -20.6842   -9.0835 C   0  0  0  0  0  0  0  0  0  0  0  0
   24.2446  -21.1542   -8.2898 N   0  0  0  0  0  0  0  0  0  0  0  0
   25.7063  -21.5460  -10.0610 N   0  0  0  0  0  0  0  0  0  0  0  0
   26.4661  -21.0027  -11.1580 C   0  0  0  0  0  0  0  0  0  0  0  0
   25.5794  -20.7637  -12.3665 C   0  0  0  0  0  0  0  0  0  0  0  0
   26.3596  -20.2270  -13.5406 C   0  0  0  0  0  0  0  0  0  0  0  0
   25.5097  -19.9281  -14.7336 C   0  0  2  0  0  0  0  0  0  0  0  0
   26.1569  -19.0480  -15.6847 N   0  0  0  0  0  0  0  0  0  0  0  0
   24.1759  -19.3614  -14.3322 C   0  0  0  0  0  0  0  0  0  0  0  0
   24.1611  -18.3616  -13.5715 O   0  0  0  0  0  0  0  0  0  0  0  0
   23.9128  -22.1268   -8.3406 C   0  0  0  0  0  0  0  0  0  0  0  0
   21.1959  -18.1942  -16.5090 C   0  0  2  0  0  0  0  0  0  0  0  0
   20.8064  -19.3589  -15.6384 O   0  0  0  0  0  0  0  0  0  0  0  0
   20.9645  -20.5514  -16.3359 C   0  0  2  0  0  0  0  0  0  0  0  0
   21.6555  -19.3854  -14.3599 N   0  0  0  0  0  0  0  0  0  0  0  0
   22.9557  -19.8929  -14.7642 C   0  0  0  0  0  0  0  0  0  0  0  0
   21.0528  -20.4140  -13.4632 O   0  0  0  0  0  0  0  0  0  0  0  0
   21.5963  -21.6819  -13.3005 O   0  0  0  0  0  0  0  0  0  0  0  0
  2  1  1  6
  3  2  1  0
  3  4  1  0
  4  5  2  0
  4  8  1  0
  5  6  1  0
  6  7  1  0
  8  7  2  0
  9  2  1  0
 10  9  2  0
 11 12  1  0
 12 14  1  0
 12 13  2  0
 14 15  1  0
 16 17  1  0
 16 15  1  0
 18 17  1  1
 18 19  1  0
 19  9  1  0
 20 18  1  0
 21 20  2  0
 23 25  1  0
 23 22  1  6
 24 23  1  0
 25 26  1  1
 26 20  1  0
 27 25  1  0
 27 28  1  0
 29 27  2  0
M  END
$$$$
