HRT.pdb
     RDKit          3D

 29 29  0  0  1  0  0  0  0  0999 V2000
   23.2064   -3.6725  -18.8671 N   0  0  0  0  0  0  0  0  0  0  0  0
   22.9415   -5.0435  -19.2267 C   0  0  1  0  0  0  0  0  0  0  0  0
   24.1564   -5.7559  -19.7448 C   0  0  0  0  0  0  0  0  0  0  0  0
   24.5222   -5.1269  -21.0469 C   0  0  0  0  0  0  0  0  0  0  0  0
   24.0159   -5.4446  -22.2894 C   0  0  0  0  0  0  0  0  0  0  0  0
   24.5963   -4.6547  -23.2091 N   0  0  0  0  0  0  0  0  0  0  0  0
   25.4690   -3.8331  -22.5768 C   0  0  0  0  0  0  0  0  0  0  0  0
   25.4124   -4.1321  -21.2656 N   0  0  0  0  0  0  0  0  0  0  0  0
   22.2564   -5.7256  -18.1346 C   0  0  0  0  0  0  0  0  0  0  0  0
   22.7404   -5.6387  -16.9769 O   0  0  0  0  0  0  0  0  0  0  0  0
   14.0398   -6.4328  -17.8217 N   0  0  0  0  0  0  0  0  0  0  0  0
   14.9938   -6.2561  -18.8409 C   0  0  0  0  0  0  0  0  0  0  0  0
   14.6697   -6.1526  -20.0830 N   0  0  0  0  0  0  0  0  0  0  0  0
   16.3671   -6.1893  -18.4878 N   0  0  0  0  0  0  0  0  0  0  0  0
   16.7574   -6.0716  -17.1059 C   0  0  0  0  0  0  0  0  0  0  0  0
   18.2664   -5.9746  -16.9744 C   0  0  0  0  0  0  0  0  0  0  0  0
   18.9465   -7.2777  -17.3124 C   0  0  0  0  0  0  0  0  0  0  0  0
   20.4351   -7.2229  -17.1855 C   0  0  2  0  0  0  0  0  0  0  0  0
   21.0696   -6.4934  -18.2640 N   0  0  0  0  0  0  0  0  0  0  0  0
   21.0300   -8.5994  -17.0744 C   0  0  0  0  0  0  0  0  0  0  0  0
   21.2406   -9.2416  -18.1336 O   0  0  0  0  0  0  0  0  0  0  0  0
   15.3630   -5.9926  -20.8262 C   0  0  0  0  0  0  0  0  0  0  0  0
   23.6258  -11.7856  -14.4282 C   0  0  2  0  0  0  0  0  0  0  0  0
   23.1201  -10.4237  -14.8228 O   0  0  0  0  0  0  0  0  0  0  0  0
   24.1156   -9.7186  -15.4901 C   0  0  1  0  0  0  0  0  0  0  0  0
   21.8785  -10.5466  -15.7170 N   0  0  0  0  0  0  0  0  0  0  0  0
   21.3587   -9.1964  -15.8522 C   0  0  0  0  0  0  0  0  0  0  0  0
   20.8651  -11.3215  -14.9439 O   0  0  0  0  0  0  0  0  0  0  0  0
   20.6279  -12.6733  -15.1580 O   0  0  0  0  0  0  0  0  0  0  0  0
  2  1  1  1
  3  2  1  0
  3  4  1  0
  4  5  2  0
  4  8  1  0
  5  6  1  0
  6  7  1  0
  8  7  2  0
  9  2  1  0
 10  9  2  0
 11 12  1  0
 12 14  1  0
 12 13  2  0
 14 15  1  0
 16 17  1  0
 16 15  1  0
 18 17  1  6
 18 19  1  0
 19  9  1  0
 20 18  1  0
 21 20  2  0
 23 25  1  0
 23 22  1  1
 24 23  1  0
 25 26  1  1
 26 20  1  0
 27 25  1  0
 27 28  1  0
 29 27  2  0
M  END
$$$$
