HRT.pdb
     RDKit          3D

 29 29  0  0  1  0  0  0  0  0999 V2000
   21.1025  -26.2976  -14.1306 N   0  0  0  0  0  0  0  0  0  0  0  0
   19.9862  -25.6059  -13.5353 C   0  0  1  0  0  0  0  0  0  0  0  0
   18.8033  -25.5085  -14.4534 C   0  0  0  0  0  0  0  0  0  0  0  0
   19.1993  -24.6437  -15.6026 C   0  0  0  0  0  0  0  0  0  0  0  0
   19.4989  -25.0571  -16.8833 C   0  0  0  0  0  0  0  0  0  0  0  0
   19.8080  -23.9800  -17.6255 N   0  0  0  0  0  0  0  0  0  0  0  0
   19.7118  -22.8791  -16.8413 C   0  0  0  0  0  0  0  0  0  0  0  0
   19.3416  -23.2985  -15.6170 N   0  0  0  0  0  0  0  0  0  0  0  0
   19.6913  -26.1663  -12.2214 C   0  0  0  0  0  0  0  0  0  0  0  0
   19.9841  -27.3701  -12.0043 O   0  0  0  0  0  0  0  0  0  0  0  0
   16.1004  -24.7826   -5.4859 N   0  0  0  0  0  0  0  0  0  0  0  0
   17.0747  -25.3709   -4.6584 C   0  0  0  0  0  0  0  0  0  0  0  0
   16.7716  -26.0620   -3.6148 N   0  0  0  0  0  0  0  0  0  0  0  0
   18.4450  -25.1970   -4.9855 N   0  0  0  0  0  0  0  0  0  0  0  0
   18.8232  -24.6380   -6.2584 C   0  0  0  0  0  0  0  0  0  0  0  0
   18.6102  -25.6419   -7.3768 C   0  0  0  0  0  0  0  0  0  0  0  0
   18.9782  -25.0715   -8.7237 C   0  0  0  0  0  0  0  0  0  0  0  0
   18.7834  -26.0339   -9.8511 C   0  0  2  0  0  0  0  0  0  0  0  0
   19.0918  -25.4611  -11.1453 N   0  0  0  0  0  0  0  0  0  0  0  0
   17.3909  -26.6012   -9.8573 C   0  0  0  0  0  0  0  0  0  0  0  0
   16.4268  -25.8050   -9.9808 O   0  0  0  0  0  0  0  0  0  0  0  0
   17.4825  -26.4958   -3.0106 C   0  0  0  0  0  0  0  0  0  0  0  0
   16.2578  -30.1408  -11.5974 C   0  0  2  0  0  0  0  0  0  0  0  0
   15.9643  -30.0127  -10.1265 O   0  0  0  0  0  0  0  0  0  0  0  0
   16.9959  -30.5742   -9.3822 C   0  0  2  0  0  0  0  0  0  0  0  0
   15.7829  -28.5387   -9.7381 N   0  0  0  0  0  0  0  0  0  0  0  0
   17.1193  -27.9682   -9.7326 C   0  0  0  0  0  0  0  0  0  0  0  0
   15.3025  -28.5208   -8.3260 O   0  0  0  0  0  0  0  0  0  0  0  0
   13.9835  -28.7808   -7.9766 O   0  0  0  0  0  0  0  0  0  0  0  0
  2  1  1  6
  3  2  1  0
  3  4  1  0
  4  5  2  0
  4  8  1  0
  5  6  1  0
  6  7  1  0
  8  7  2  0
  9  2  1  0
 10  9  2  0
 11 12  1  0
 12 14  1  0
 12 13  2  0
 14 15  1  0
 16 17  1  0
 16 15  1  0
 18 17  1  1
 18 19  1  0
 19  9  1  0
 20 18  1  0
 21 20  2  0
 23 25  1  0
 23 22  1  6
 24 23  1  0
 25 26  1  1
 26 20  1  0
 27 25  1  0
 27 28  1  0
 29 27  2  0
M  END
$$$$
