HRT.pdb
     RDKit          3D

 29 29  0  0  1  0  0  0  0  0999 V2000
   28.1727  -25.1747  -16.4734 N   0  0  0  0  0  0  0  0  0  0  0  0
   27.7280  -26.1732  -17.4138 C   0  0  1  0  0  0  0  0  0  0  0  0
   27.8543  -25.7277  -18.8412 C   0  0  0  0  0  0  0  0  0  0  0  0
   26.9970  -24.5187  -19.0098 C   0  0  0  0  0  0  0  0  0  0  0  0
   25.6206  -24.4854  -19.0838 C   0  0  0  0  0  0  0  0  0  0  0  0
   25.2253  -23.2097  -19.2355 N   0  0  0  0  0  0  0  0  0  0  0  0
   26.3271  -22.4213  -19.2603 C   0  0  0  0  0  0  0  0  0  0  0  0
   27.3939  -23.2304  -19.1222 N   0  0  0  0  0  0  0  0  0  0  0  0
   28.3572  -27.4556  -17.1194 C   0  0  0  0  0  0  0  0  0  0  0  0
   29.5950  -27.4785  -16.8971 O   0  0  0  0  0  0  0  0  0  0  0  0
   28.0091  -35.0057  -17.0475 N   0  0  0  0  0  0  0  0  0  0  0  0
   28.1316  -35.3053  -15.6781 C   0  0  0  0  0  0  0  0  0  0  0  0
   28.7843  -36.3291  -15.2486 N   0  0  0  0  0  0  0  0  0  0  0  0
   27.5123  -34.4469  -14.7322 N   0  0  0  0  0  0  0  0  0  0  0  0
   26.8932  -33.2188  -15.1615 C   0  0  0  0  0  0  0  0  0  0  0  0
   27.9325  -32.2346  -15.6665 C   0  0  0  0  0  0  0  0  0  0  0  0
   27.3162  -30.9139  -16.0552 C   0  0  0  0  0  0  0  0  0  0  0  0
   28.2941  -29.9530  -16.6514 C   0  0  2  0  0  0  0  0  0  0  0  0
   27.6846  -28.7042  -17.0601 N   0  0  0  0  0  0  0  0  0  0  0  0
   29.0357  -30.5668  -17.8065 C   0  0  0  0  0  0  0  0  0  0  0  0
   28.4775  -30.5757  -18.9321 O   0  0  0  0  0  0  0  0  0  0  0  0
   28.8628  -36.5577  -14.2485 C   0  0  0  0  0  0  0  0  0  0  0  0
   33.4229  -31.8693  -19.5943 C   0  0  2  0  0  0  0  0  0  0  0  0
   32.4916  -31.1615  -18.6468 O   0  0  0  0  0  0  0  0  0  0  0  0
   32.5120  -29.7925  -18.8895 C   0  0  1  0  0  0  0  0  0  0  0  0
   31.0606  -31.6966  -18.7952 N   0  0  0  0  0  0  0  0  0  0  0  0
   30.3129  -31.1262  -17.6875 C   0  0  0  0  0  0  0  0  0  0  0  0
   31.1236  -33.1680  -18.5583 O   0  0  0  0  0  0  0  0  0  0  0  0
   31.2403  -33.7216  -17.2896 O   0  0  0  0  0  0  0  0  0  0  0  0
  2  1  1  1
  3  2  1  0
  3  4  1  0
  4  5  2  0
  4  8  1  0
  5  6  1  0
  6  7  1  0
  8  7  2  0
  9  2  1  0
 10  9  2  0
 11 12  1  0
 12 14  1  0
 12 13  2  0
 14 15  1  0
 16 17  1  0
 16 15  1  0
 18 17  1  6
 18 19  1  0
 19  9  1  0
 20 18  1  0
 21 20  2  0
 23 25  1  0
 23 22  1  1
 24 23  1  0
 25 26  1  1
 26 20  1  0
 27 25  1  0
 27 28  1  0
 29 27  2  0
M  END
$$$$
