HRT.pdb
     RDKit          3D

 29 29  0  0  1  0  0  0  0  0999 V2000
   18.4517  -12.4837  -16.1009 N   0  0  0  0  0  0  0  0  0  0  0  0
   18.9489  -11.4736  -17.0018 C   0  0  1  0  0  0  0  0  0  0  0  0
   17.8533  -10.7446  -17.7229 C   0  0  0  0  0  0  0  0  0  0  0  0
   17.1649  -11.7312  -18.6049 C   0  0  0  0  0  0  0  0  0  0  0  0
   17.5348  -12.0976  -19.8816 C   0  0  0  0  0  0  0  0  0  0  0  0
   16.6621  -13.0110  -20.3406 N   0  0  0  0  0  0  0  0  0  0  0  0
   15.7358  -13.2381  -19.3781 C   0  0  0  0  0  0  0  0  0  0  0  0
   16.0547  -12.4541  -18.3313 N   0  0  0  0  0  0  0  0  0  0  0  0
   19.9015  -10.6109  -16.3122 C   0  0  0  0  0  0  0  0  0  0  0  0
   19.5102   -9.9756  -15.2996 O   0  0  0  0  0  0  0  0  0  0  0  0
   28.5517  -10.8258  -16.2637 N   0  0  0  0  0  0  0  0  0  0  0  0
   27.4940  -11.5954  -15.7452 C   0  0  0  0  0  0  0  0  0  0  0  0
   27.6271  -12.8394  -15.4398 N   0  0  0  0  0  0  0  0  0  0  0  0
   26.2306  -10.9780  -15.5505 N   0  0  0  0  0  0  0  0  0  0  0  0
   26.0640   -9.5689  -15.8008 C   0  0  0  0  0  0  0  0  0  0  0  0
   24.6379   -9.1325  -15.5186 C   0  0  0  0  0  0  0  0  0  0  0  0
   23.6304  -10.0208  -16.2047 C   0  0  0  0  0  0  0  0  0  0  0  0
   22.2129   -9.6151  -15.9574 C   0  0  2  0  0  0  0  0  0  0  0  0
   21.2567  -10.4205  -16.6889 N   0  0  0  0  0  0  0  0  0  0  0  0
   21.9961   -8.1578  -16.2580 C   0  0  0  0  0  0  0  0  0  0  0  0
   22.0148   -7.7911  -17.4596 O   0  0  0  0  0  0  0  0  0  0  0  0
   26.8388  -13.4214  -15.1259 C   0  0  0  0  0  0  0  0  0  0  0  0
   20.1330   -3.9064  -14.6764 C   0  0  2  0  0  0  0  0  0  0  0  0
   20.3311   -5.3986  -14.6707 O   0  0  0  0  0  0  0  0  0  0  0  0
   19.1880   -6.0347  -15.1421 C   0  0  1  0  0  0  0  0  0  0  0  0
   21.5386   -5.7867  -15.5353 N   0  0  0  0  0  0  0  0  0  0  0  0
   21.7755   -7.1950  -15.2668 C   0  0  0  0  0  0  0  0  0  0  0  0
   22.7131   -5.0429  -14.9945 O   0  0  0  0  0  0  0  0  0  0  0  0
   23.2105   -3.8889  -15.5864 O   0  0  0  0  0  0  0  0  0  0  0  0
  2  1  1  1
  3  2  1  0
  3  4  1  0
  4  5  2  0
  4  8  1  0
  5  6  1  0
  6  7  1  0
  8  7  2  0
  9  2  1  0
 10  9  2  0
 11 12  1  0
 12 14  1  0
 12 13  2  0
 14 15  1  0
 16 17  1  0
 16 15  1  0
 18 17  1  6
 18 19  1  0
 19  9  1  0
 20 18  1  0
 21 20  2  0
 23 25  1  0
 23 22  1  1
 24 23  1  0
 25 26  1  1
 26 20  1  0
 27 25  1  0
 27 28  1  0
 29 27  2  0
M  END
$$$$
