HRT.pdb
     RDKit          3D

 29 29  0  0  1  0  0  0  0  0999 V2000
   27.7974  -21.0682  -17.2321 N   0  0  0  0  0  0  0  0  0  0  0  0
   26.8121  -21.7156  -16.4018 C   0  0  1  0  0  0  0  0  0  0  0  0
   27.4046  -22.3412  -15.1732 C   0  0  0  0  0  0  0  0  0  0  0  0
   28.3580  -23.3962  -15.6241 C   0  0  0  0  0  0  0  0  0  0  0  0
   28.0436  -24.6773  -16.0253 C   0  0  0  0  0  0  0  0  0  0  0  0
   29.1778  -25.3190  -16.3547 N   0  0  0  0  0  0  0  0  0  0  0  0
   30.2177  -24.4698  -16.1714 C   0  0  0  0  0  0  0  0  0  0  0  0
   29.7038  -23.3074  -15.7279 N   0  0  0  0  0  0  0  0  0  0  0  0
   25.6981  -20.8097  -16.1457 C   0  0  0  0  0  0  0  0  0  0  0  0
   25.9178  -19.7618  -15.4856 O   0  0  0  0  0  0  0  0  0  0  0  0
   18.6479  -18.0251  -20.1166 N   0  0  0  0  0  0  0  0  0  0  0  0
   18.7842  -17.0436  -19.1175 C   0  0  0  0  0  0  0  0  0  0  0  0
   17.8599  -16.1848  -18.8592 N   0  0  0  0  0  0  0  0  0  0  0  0
   19.9865  -16.9971  -18.3643 N   0  0  0  0  0  0  0  0  0  0  0  0
   21.0467  -17.9361  -18.6289 C   0  0  0  0  0  0  0  0  0  0  0  0
   21.5579  -18.5548  -17.3405 C   0  0  0  0  0  0  0  0  0  0  0  0
   22.7524  -19.4446  -17.5777 C   0  0  0  0  0  0  0  0  0  0  0  0
   23.2660  -20.0958  -16.3339 C   0  0  2  0  0  0  0  0  0  0  0  0
   24.3625  -21.0088  -16.5832 N   0  0  0  0  0  0  0  0  0  0  0  0
   22.1679  -20.8011  -15.5871 C   0  0  0  0  0  0  0  0  0  0  0  0
   21.7001  -21.8582  -16.0793 O   0  0  0  0  0  0  0  0  0  0  0  0
   17.9582  -15.4659  -18.1297 C   0  0  0  0  0  0  0  0  0  0  0  0
   22.0045  -21.4098  -11.6551 C   0  0  2  0  0  0  0  0  0  0  0  0
   20.8040  -20.6622  -12.1711 O   0  0  0  0  0  0  0  0  0  0  0  0
   20.9867  -19.2934  -12.0086 C   0  0  2  0  0  0  0  0  0  0  0  0
   20.5625  -20.9844  -13.6524 N   0  0  0  0  0  0  0  0  0  0  0  0
   21.6446  -20.3375  -14.3749 C   0  0  0  0  0  0  0  0  0  0  0  0
   19.3049  -20.2855  -14.0463 O   0  0  0  0  0  0  0  0  0  0  0  0
   19.2905  -19.1780  -14.8845 O   0  0  0  0  0  0  0  0  0  0  0  0
  2  1  1  1
  3  2  1  0
  3  4  1  0
  4  5  2  0
  4  8  1  0
  5  6  1  0
  6  7  1  0
  8  7  2  0
  9  2  1  0
 10  9  2  0
 11 12  1  0
 12 14  1  0
 12 13  2  0
 14 15  1  0
 16 17  1  0
 16 15  1  0
 18 17  1  6
 18 19  1  0
 19  9  1  0
 20 18  1  0
 21 20  2  0
 23 25  1  0
 23 22  1  1
 24 23  1  0
 25 26  1  6
 26 20  1  0
 27 25  1  0
 27 28  1  0
 29 27  2  0
M  END
$$$$
