SIK.pdb
     RDKit          3D

 24 23  0  0  1  0  0  0  0  0999 V2000
    7.5764  -17.2780   20.6436 O   0  0  0  0  0  0  0  0  0  0  0  0
    6.7701  -16.5786   21.5282 C   0  0  0  0  0  0  0  0  0  0  0  0
    7.1161  -15.0961   21.5171 C   0  0  2  0  0  0  0  0  0  0  0  0
    7.9011  -14.7843   20.3110 N   0  0  0  0  0  0  0  0  0  0  0  0
    7.9534  -14.7693   22.6883 C   0  0  0  0  0  0  0  0  0  0  0  0
    9.2156  -14.7454   22.6123 O   0  0  0  0  0  0  0  0  0  0  0  0
    5.9743  -11.4807   26.3849 C   0  0  0  0  0  0  0  0  0  0  0  0
    7.0217  -12.0717   25.4196 C   0  0  0  0  0  0  0  0  0  0  0  0
    7.4487  -13.3637   26.0135 C   0  0  2  0  0  0  0  0  0  0  0  0
    8.2252  -13.1752   27.3110 C   0  0  0  0  0  0  0  0  0  0  0  0
    8.2163  -14.2983   25.1399 C   0  0  2  0  0  0  0  0  0  0  0  0
    7.3787  -14.4715   23.9344 N   0  0  0  0  0  0  0  0  0  0  0  0
    8.5870  -15.5823   25.7029 C   0  0  0  0  0  0  0  0  0  0  0  0
    7.7538  -16.5469   25.7601 O   0  0  0  0  0  0  0  0  0  0  0  0
    9.8784  -15.8396   26.2098 N   0  0  0  0  0  0  0  0  0  0  0  0
   10.2432  -17.2079   26.6444 C   0  0  1  0  0  0  0  0  0  0  0  0
   11.4145  -17.5675   25.7565 C   0  0  0  0  0  0  0  0  0  0  0  0
   11.1442  -18.6420   24.7660 C   0  0  0  0  0  0  0  0  0  0  0  0
   12.4283  -18.7878   23.9319 C   0  0  0  0  0  0  0  0  0  0  0  0
   12.1057  -19.7627   22.8184 C   0  0  0  0  0  0  0  0  0  0  0  0
   13.2656  -19.8478   21.9266 N   0  0  0  0  0  0  0  0  0  0  0  0
   10.6773  -17.1381   28.0530 C   0  0  0  0  0  0  0  0  0  0  0  0
   11.0115  -18.1925   28.6775 O   0  0  0  0  0  0  0  0  0  0  0  0
   10.7493  -15.9695   28.7656 O   0  0  0  0  0  0  0  0  0  0  0  0
  1  2  1  0
  2  3  1  0
  3  5  1  0
  3  4  1  6
  5 12  1  0
  6  5  2  0
  7  8  1  0
  9 11  1  0
  9 10  1  1
  9  8  1  0
 11 12  1  6
 13 11  1  0
 13 14  2  0
 15 13  1  0
 16 15  1  0
 16 22  1  0
 16 17  1  6
 18 17  1  0
 18 19  1  0
 20 19  1  0
 21 20  1  0
 22 23  2  0
 22 24  1  0
M  END
$$$$
