SIK.pdb
     RDKit          3D

 24 23  0  0  1  0  0  0  0  0999 V2000
    8.8388  -19.1957   18.9930 O   0  0  0  0  0  0  0  0  0  0  0  0
   10.0767  -18.9497   18.4196 C   0  0  0  0  0  0  0  0  0  0  0  0
   10.2738  -17.4593   18.1798 C   0  0  2  0  0  0  0  0  0  0  0  0
   11.6450  -17.2164   17.7009 N   0  0  0  0  0  0  0  0  0  0  0  0
   10.1100  -16.7227   19.4487 C   0  0  0  0  0  0  0  0  0  0  0  0
   11.0408  -16.6626   20.3029 O   0  0  0  0  0  0  0  0  0  0  0  0
    7.2724  -12.1352   19.5282 C   0  0  0  0  0  0  0  0  0  0  0  0
    8.4086  -13.1521   19.7581 C   0  0  0  0  0  0  0  0  0  0  0  0
    7.8715  -14.1663   20.7001 C   0  0  2  0  0  0  0  0  0  0  0  0
    7.3894  -13.5451   22.0054 C   0  0  0  0  0  0  0  0  0  0  0  0
    8.7488  -15.3269   21.0299 C   0  0  2  0  0  0  0  0  0  0  0  0
    8.9114  -16.0588   19.7561 N   0  0  0  0  0  0  0  0  0  0  0  0
    8.3065  -16.2164   22.0864 C   0  0  0  0  0  0  0  0  0  0  0  0
    7.3663  -17.0575   21.8951 O   0  0  0  0  0  0  0  0  0  0  0  0
    8.8872  -16.2084   23.3723 N   0  0  0  0  0  0  0  0  0  0  0  0
    8.4120  -17.1589   24.4044 C   0  0  1  0  0  0  0  0  0  0  0  0
    9.6370  -17.4064   25.2574 C   0  0  0  0  0  0  0  0  0  0  0  0
    9.4284  -18.3322   26.4011 C   0  0  0  0  0  0  0  0  0  0  0  0
   10.7672  -18.3878   27.1562 C   0  0  0  0  0  0  0  0  0  0  0  0
   10.5600  -19.3302   28.3239 C   0  0  0  0  0  0  0  0  0  0  0  0
   11.8321  -19.4693   29.0383 N   0  0  0  0  0  0  0  0  0  0  0  0
    7.3682  -16.4838   25.1995 C   0  0  0  0  0  0  0  0  0  0  0  0
    7.3340  -15.2163   25.2747 O   0  0  0  0  0  0  0  0  0  0  0  0
    6.3925  -17.1532   25.8912 O   0  0  0  0  0  0  0  0  0  0  0  0
  1  2  1  0
  2  3  1  0
  3  5  1  0
  3  4  1  1
  5 12  1  0
  6  5  2  0
  7  8  1  0
  9 11  1  0
  9 10  1  1
  9  8  1  0
 11 12  1  6
 13 11  1  0
 13 14  2  0
 15 13  1  0
 16 15  1  0
 16 22  1  0
 16 17  1  1
 18 17  1  0
 18 19  1  0
 20 19  1  0
 21 20  1  0
 22 23  2  0
 22 24  1  0
M  END
$$$$
