SIK.pdb
     RDKit          3D

 24 23  0  0  1  0  0  0  0  0999 V2000
    6.6266  -16.2654   21.0685 O   0  0  0  0  0  0  0  0  0  0  0  0
    7.2149  -15.3336   20.2275 C   0  0  0  0  0  0  0  0  0  0  0  0
    7.1848  -13.9463   20.8538 C   0  0  2  0  0  0  0  0  0  0  0  0
    7.8797  -12.9943   19.9713 N   0  0  0  0  0  0  0  0  0  0  0  0
    7.9051  -13.9639   22.1424 C   0  0  0  0  0  0  0  0  0  0  0  0
    9.1688  -13.9569   22.1932 O   0  0  0  0  0  0  0  0  0  0  0  0
    5.9590  -11.2582   26.2981 C   0  0  0  0  0  0  0  0  0  0  0  0
    6.9183  -11.8284   25.2338 C   0  0  0  0  0  0  0  0  0  0  0  0
    7.1451  -13.2492   25.6005 C   0  0  2  0  0  0  0  0  0  0  0  0
    7.7558  -13.3977   26.9887 C   0  0  0  0  0  0  0  0  0  0  0  0
    7.9354  -14.0839   24.6496 C   0  0  2  0  0  0  0  0  0  0  0  0
    7.2127  -13.9886   23.3638 N   0  0  0  0  0  0  0  0  0  0  0  0
    8.1667  -15.4686   25.0132 C   0  0  0  0  0  0  0  0  0  0  0  0
    7.3414  -16.3861   24.6893 O   0  0  0  0  0  0  0  0  0  0  0  0
    9.3082  -15.8791   25.7338 N   0  0  0  0  0  0  0  0  0  0  0  0
    9.8455  -17.2475   25.5513 C   0  0  1  0  0  0  0  0  0  0  0  0
   10.5710  -17.1756   24.2254 C   0  0  0  0  0  0  0  0  0  0  0  0
   10.2434  -18.2668   23.2711 C   0  0  0  0  0  0  0  0  0  0  0  0
   11.0965  -18.0091   22.0174 C   0  0  0  0  0  0  0  0  0  0  0  0
   10.6615  -19.0312   20.9875 C   0  0  0  0  0  0  0  0  0  0  0  0
   11.2766  -18.6853   19.7030 N   0  0  0  0  0  0  0  0  0  0  0  0
   10.8053  -17.5093   26.6411 C   0  0  0  0  0  0  0  0  0  0  0  0
   11.1984  -18.6926   26.8833 O   0  0  0  0  0  0  0  0  0  0  0  0
   11.3251  -16.5274   27.4438 O   0  0  0  0  0  0  0  0  0  0  0  0
  1  2  1  0
  2  3  1  0
  3  5  1  0
  3  4  1  6
  5 12  1  0
  6  5  2  0
  7  8  1  0
  9 11  1  0
  9 10  1  1
  9  8  1  0
 11 12  1  6
 13 11  1  0
 13 14  2  0
 15 13  1  0
 16 15  1  0
 16 22  1  0
 16 17  1  6
 18 17  1  0
 18 19  1  0
 20 19  1  0
 21 20  1  0
 22 23  2  0
 22 24  1  0
M  END
$$$$
