SIK.pdb
     RDKit          3D

 24 23  0  0  1  0  0  0  0  0999 V2000
    6.7353  -17.2243   22.0395 O   0  0  0  0  0  0  0  0  0  0  0  0
    7.2226  -16.4517   20.9968 C   0  0  0  0  0  0  0  0  0  0  0  0
    7.1358  -14.9702   21.3364 C   0  0  2  0  0  0  0  0  0  0  0  0
    7.7378  -14.1813   20.2485 N   0  0  0  0  0  0  0  0  0  0  0  0
    7.9066  -14.6929   22.5647 C   0  0  0  0  0  0  0  0  0  0  0  0
    9.1680  -14.6030   22.5471 O   0  0  0  0  0  0  0  0  0  0  0  0
    5.8996  -11.4848   26.3711 C   0  0  0  0  0  0  0  0  0  0  0  0
    6.8841  -12.1183   25.3674 C   0  0  0  0  0  0  0  0  0  0  0  0
    7.2194  -13.4599   25.9079 C   0  0  2  0  0  0  0  0  0  0  0  0
    7.8705  -13.3830   27.2834 C   0  0  0  0  0  0  0  0  0  0  0  0
    8.0450  -14.3574   25.0485 C   0  0  2  0  0  0  0  0  0  0  0  0
    7.2667  -14.5175   23.8022 N   0  0  0  0  0  0  0  0  0  0  0  0
    8.4164  -15.6473   25.5974 C   0  0  0  0  0  0  0  0  0  0  0  0
    7.5379  -16.5349   25.8585 O   0  0  0  0  0  0  0  0  0  0  0  0
    9.7571  -15.9952   25.8666 N   0  0  0  0  0  0  0  0  0  0  0  0
   10.0780  -17.3330   26.4158 C   0  0  1  0  0  0  0  0  0  0  0  0
   11.2644  -17.7852   25.5925 C   0  0  0  0  0  0  0  0  0  0  0  0
   11.8563  -19.0842   26.0059 C   0  0  0  0  0  0  0  0  0  0  0  0
   13.0754  -19.3079   25.0951 C   0  0  0  0  0  0  0  0  0  0  0  0
   13.6951  -20.6212   25.5262 C   0  0  0  0  0  0  0  0  0  0  0  0
   14.9182  -20.8341   24.7472 N   0  0  0  0  0  0  0  0  0  0  0  0
   10.4751  -17.1631   27.8268 C   0  0  0  0  0  0  0  0  0  0  0  0
   10.7813  -16.0154   28.2765 O   0  0  0  0  0  0  0  0  0  0  0  0
   10.5397  -18.1970   28.7244 O   0  0  0  0  0  0  0  0  0  0  0  0
  1  2  1  0
  2  3  1  0
  3  5  1  0
  3  4  1  6
  5 12  1  0
  6  5  2  0
  7  8  1  0
  9 11  1  0
  9 10  1  1
  9  8  1  0
 11 12  1  6
 13 11  1  0
 13 14  2  0
 15 13  1  0
 16 15  1  0
 16 22  1  0
 16 17  1  6
 18 17  1  0
 18 19  1  0
 20 19  1  0
 21 20  1  0
 22 23  2  0
 22 24  1  0
M  END
$$$$
