SIK.pdb
     RDKit          3D

 24 23  0  0  1  0  0  0  0  0999 V2000
    8.2140  -19.3548   18.9949 O   0  0  0  0  0  0  0  0  0  0  0  0
    8.9882  -19.1734   17.8594 C   0  0  0  0  0  0  0  0  0  0  0  0
    8.9903  -17.7112   17.4355 C   0  0  2  0  0  0  0  0  0  0  0  0
    9.9373  -17.5240   16.3236 N   0  0  0  0  0  0  0  0  0  0  0  0
    9.4490  -16.8664   18.5560 C   0  0  0  0  0  0  0  0  0  0  0  0
   10.6759  -16.6203   18.7389 O   0  0  0  0  0  0  0  0  0  0  0  0
    6.8556  -12.4088   19.9218 C   0  0  0  0  0  0  0  0  0  0  0  0
    8.0386  -13.3554   19.6343 C   0  0  0  0  0  0  0  0  0  0  0  0
    8.0265  -14.3725   20.7159 C   0  0  2  0  0  0  0  0  0  0  0  0
    8.1630  -13.7476   22.0989 C   0  0  0  0  0  0  0  0  0  0  0  0
    9.0034  -15.4951   20.6108 C   0  0  2  0  0  0  0  0  0  0  0  0
    8.5378  -16.3024   19.4635 N   0  0  0  0  0  0  0  0  0  0  0  0
    9.1931  -16.3242   21.7854 C   0  0  0  0  0  0  0  0  0  0  0  0
    8.2672  -17.0909   22.2128 O   0  0  0  0  0  0  0  0  0  0  0  0
   10.4017  -16.3361   22.5136 N   0  0  0  0  0  0  0  0  0  0  0  0
   10.5750  -17.2779   23.6437 C   0  0  1  0  0  0  0  0  0  0  0  0
   11.8822  -17.9746   23.3348 C   0  0  0  0  0  0  0  0  0  0  0  0
   12.3828  -18.8735   24.4072 C   0  0  0  0  0  0  0  0  0  0  0  0
   13.7039  -19.4652   23.8874 C   0  0  0  0  0  0  0  0  0  0  0  0
   14.2050  -20.4035   24.9658 C   0  0  0  0  0  0  0  0  0  0  0  0
   15.4317  -21.0468   24.4868 N   0  0  0  0  0  0  0  0  0  0  0  0
   10.7030  -16.4854   24.8819 C   0  0  0  0  0  0  0  0  0  0  0  0
   10.9753  -15.2458   24.8285 O   0  0  0  0  0  0  0  0  0  0  0  0
   10.5425  -17.0117   26.1372 O   0  0  0  0  0  0  0  0  0  0  0  0
  1  2  1  0
  2  3  1  0
  3  5  1  0
  3  4  1  6
  5 12  1  0
  6  5  2  0
  7  8  1  0
  9 11  1  0
  9 10  1  1
  9  8  1  0
 11 12  1  6
 13 11  1  0
 13 14  2  0
 15 13  1  0
 16 15  1  0
 16 22  1  0
 16 17  1  6
 18 17  1  0
 18 19  1  0
 20 19  1  0
 21 20  1  0
 22 23  2  0
 22 24  1  0
M  END
$$$$
