SIK.pdb
     RDKit          3D

 24 23  0  0  1  0  0  0  0  0999 V2000
    7.8017  -19.2801   19.0582 O   0  0  0  0  0  0  0  0  0  0  0  0
    8.5684  -19.2243   17.9047 C   0  0  0  0  0  0  0  0  0  0  0  0
    8.7032  -17.7890   17.4151 C   0  0  2  0  0  0  0  0  0  0  0  0
    9.6349  -17.7447   16.2757 N   0  0  0  0  0  0  0  0  0  0  0  0
    9.2717  -16.9468   18.4862 C   0  0  0  0  0  0  0  0  0  0  0  0
   10.5136  -16.9297   18.7245 O   0  0  0  0  0  0  0  0  0  0  0  0
    6.8562  -12.2781   19.8496 C   0  0  0  0  0  0  0  0  0  0  0  0
    8.0098  -13.2377   19.4941 C   0  0  0  0  0  0  0  0  0  0  0  0
    8.0928  -14.2152   20.6085 C   0  0  2  0  0  0  0  0  0  0  0  0
    8.4216  -13.5490   21.9389 C   0  0  0  0  0  0  0  0  0  0  0  0
    9.0067  -15.3808   20.4301 C   0  0  2  0  0  0  0  0  0  0  0  0
    8.4528  -16.1303   19.2828 N   0  0  0  0  0  0  0  0  0  0  0  0
    9.2043  -16.2524   21.5722 C   0  0  0  0  0  0  0  0  0  0  0  0
    8.2454  -16.9429   22.0535 O   0  0  0  0  0  0  0  0  0  0  0  0
   10.4563  -16.3911   22.2080 N   0  0  0  0  0  0  0  0  0  0  0  0
   10.5993  -17.2990   23.3697 C   0  0  1  0  0  0  0  0  0  0  0  0
   11.3705  -18.4763   22.8138 C   0  0  0  0  0  0  0  0  0  0  0  0
   10.6555  -19.7779   22.8708 C   0  0  0  0  0  0  0  0  0  0  0  0
   11.6202  -20.8220   22.2833 C   0  0  0  0  0  0  0  0  0  0  0  0
   10.8652  -22.1350   22.2593 C   0  0  0  0  0  0  0  0  0  0  0  0
   11.7250  -23.1526   21.6485 N   0  0  0  0  0  0  0  0  0  0  0  0
   11.4026  -16.6049   24.3945 C   0  0  0  0  0  0  0  0  0  0  0  0
   12.1380  -15.6187   24.0781 O   0  0  0  0  0  0  0  0  0  0  0  0
   11.4128  -16.9617   25.7178 O   0  0  0  0  0  0  0  0  0  0  0  0
  1  2  1  0
  2  3  1  0
  3  5  1  0
  3  4  1  6
  5 12  1  0
  6  5  2  0
  7  8  1  0
  9 11  1  0
  9 10  1  1
  9  8  1  0
 11 12  1  6
 13 11  1  0
 13 14  2  0
 15 13  1  0
 16 15  1  0
 16 22  1  0
 16 17  1  6
 18 17  1  0
 18 19  1  0
 20 19  1  0
 21 20  1  0
 22 23  2  0
 22 24  1  0
M  END
$$$$
