SIK.pdb
     RDKit          3D

 24 23  0  0  1  0  0  0  0  0999 V2000
    6.2022  -16.9545   21.9347 O   0  0  0  0  0  0  0  0  0  0  0  0
    6.7864  -16.2521   20.8920 C   0  0  0  0  0  0  0  0  0  0  0  0
    6.9208  -14.7769   21.2434 C   0  0  2  0  0  0  0  0  0  0  0  0
    7.6151  -14.0737   20.1518 N   0  0  0  0  0  0  0  0  0  0  0  0
    7.7416  -14.6258   22.4613 C   0  0  0  0  0  0  0  0  0  0  0  0
    9.0037  -14.6955   22.4204 O   0  0  0  0  0  0  0  0  0  0  0  0
    5.9071  -11.3416   26.3009 C   0  0  0  0  0  0  0  0  0  0  0  0
    6.8129  -12.0110   25.2477 C   0  0  0  0  0  0  0  0  0  0  0  0
    7.2018  -13.3275   25.8135 C   0  0  2  0  0  0  0  0  0  0  0  0
    7.9479  -13.1912   27.1351 C   0  0  0  0  0  0  0  0  0  0  0  0
    7.9751  -14.2500   24.9322 C   0  0  2  0  0  0  0  0  0  0  0  0
    7.1505  -14.3980   23.7145 N   0  0  0  0  0  0  0  0  0  0  0  0
    8.3336  -15.5455   25.4764 C   0  0  0  0  0  0  0  0  0  0  0  0
    7.4507  -16.4398   25.6968 O   0  0  0  0  0  0  0  0  0  0  0  0
    9.6661  -15.8917   25.7856 N   0  0  0  0  0  0  0  0  0  0  0  0
    9.9851  -17.2607   26.2529 C   0  0  1  0  0  0  0  0  0  0  0  0
   11.0899  -17.7107   25.3220 C   0  0  0  0  0  0  0  0  0  0  0  0
   11.7226  -19.0070   25.6798 C   0  0  0  0  0  0  0  0  0  0  0  0
   12.7835  -19.2778   24.5996 C   0  0  0  0  0  0  0  0  0  0  0  0
   13.4154  -20.6101   24.9463 C   0  0  0  0  0  0  0  0  0  0  0  0
   14.3573  -20.9672   23.8817 N   0  0  0  0  0  0  0  0  0  0  0  0
   10.4944  -17.1634   27.6345 C   0  0  0  0  0  0  0  0  0  0  0  0
   10.8674  -16.0448   28.1067 O   0  0  0  0  0  0  0  0  0  0  0  0
   10.5979  -18.2371   28.4801 O   0  0  0  0  0  0  0  0  0  0  0  0
  1  2  1  0
  2  3  1  0
  3  5  1  0
  3  4  1  6
  5 12  1  0
  6  5  2  0
  7  8  1  0
  9 11  1  0
  9 10  1  1
  9  8  1  0
 11 12  1  6
 13 11  1  0
 13 14  2  0
 15 13  1  0
 16 15  1  0
 16 22  1  0
 16 17  1  6
 18 17  1  0
 18 19  1  0
 20 19  1  0
 21 20  1  0
 22 23  2  0
 22 24  1  0
M  END
$$$$
