PSF.pdb
     RDKit          3D

 25 26  0  0  1  0  0  0  0  0999 V2000
    8.8083  -14.3688   18.9751 N   0  0  0  0  0  0  0  0  0  0  0  0
    7.4727  -14.2464   18.4736 C   0  0  0  0  0  0  0  0  0  0  0  0
    7.2396  -12.7375   18.6428 C   0  0  0  0  0  0  0  0  0  0  0  0
    7.7752  -12.5745   20.0722 C   0  0  0  0  0  0  0  0  0  0  0  0
    8.7705  -13.7034   20.2359 C   0  0  1  0  0  0  0  0  0  0  0  0
    8.3503  -14.5741   21.3512 C   0  0  0  0  0  0  0  0  0  0  0  0
    7.2845  -14.2927   21.9682 O   0  0  0  0  0  0  0  0  0  0  0  0
   10.2228  -18.1357   22.2718 O   0  0  0  0  0  0  0  0  0  0  0  0
    8.9205  -17.9780   22.7272 C   0  0  0  0  0  0  0  0  0  0  0  0
    8.6023  -16.5089   22.9304 C   0  0  2  0  0  0  0  0  0  0  0  0
    9.0564  -15.7220   21.7968 N   0  0  0  0  0  0  0  0  0  0  0  0
    9.3088  -16.0022   24.1371 C   0  0  0  0  0  0  0  0  0  0  0  0
   10.4718  -15.4960   24.0034 O   0  0  0  0  0  0  0  0  0  0  0  0
    8.7616  -16.0494   25.4312 N   0  0  0  0  0  0  0  0  0  0  0  0
    9.6378  -16.0126   26.5907 C   0  0  1  0  0  0  0  0  0  0  0  0
    9.2542  -14.8453   27.4628 C   0  0  0  0  0  0  0  0  0  0  0  0
    8.2371  -14.0175   26.7809 C   0  0  0  0  0  0  0  0  0  0  0  0
    6.9016  -14.2379   27.0447 C   0  0  0  0  0  0  0  0  0  0  0  0
    5.9476  -13.4573   26.4195 C   0  0  0  0  0  0  0  0  0  0  0  0
    6.2893  -12.4607   25.5364 C   0  0  0  0  0  0  0  0  0  0  0  0
    7.6201  -12.2420   25.2745 C   0  0  0  0  0  0  0  0  0  0  0  0
    8.5802  -13.0271   25.9034 C   0  0  0  0  0  0  0  0  0  0  0  0
    9.6076  -17.3192   27.2866 C   0  0  0  0  0  0  0  0  0  0  0  0
   10.4561  -17.5655   28.3875 O   0  0  0  0  0  0  0  0  0  0  0  0
    8.8595  -18.2778   26.9730 O   0  0  0  0  0  0  0  0  0  0  0  0
  1  2  1  0
  3  2  1  0
  4  3  1  0
  5  4  1  0
  5  6  1  1
  5  1  1  0
  6  7  2  0
  9  8  1  0
 10  9  1  6
 10 12  1  0
 11 10  1  0
 11  6  1  0
 12 14  1  0
 13 12  2  0
 14 15  1  0
 15 16  1  1
 16 17  1  0
 17 22  1  0
 17 18  2  0
 18 19  1  0
 19 20  2  0
 21 20  1  0
 22 21  2  0
 23 24  1  0
 23 15  1  0
 25 23  2  0
M  END
$$$$
