PSF.pdb
     RDKit          3D

 25 26  0  0  1  0  0  0  0  0999 V2000
    9.1895  -14.6642   18.3992 N   0  0  0  0  0  0  0  0  0  0  0  0
    7.9102  -14.7289   17.7593 C   0  0  0  0  0  0  0  0  0  0  0  0
    7.5395  -13.2391   17.7072 C   0  0  0  0  0  0  0  0  0  0  0  0
    7.9031  -12.8546   19.1483 C   0  0  0  0  0  0  0  0  0  0  0  0
    8.9627  -13.8573   19.5530 C   0  0  1  0  0  0  0  0  0  0  0  0
    8.4963  -14.6217   20.7264 C   0  0  0  0  0  0  0  0  0  0  0  0
    7.8557  -14.0119   21.6284 O   0  0  0  0  0  0  0  0  0  0  0  0
    9.7747  -18.5091   21.6906 O   0  0  0  0  0  0  0  0  0  0  0  0
    8.4707  -18.1773   22.0337 C   0  0  0  0  0  0  0  0  0  0  0  0
    8.3208  -16.6733   22.1619 C   0  0  2  0  0  0  0  0  0  0  0  0
    8.7113  -16.0100   20.9300 N   0  0  0  0  0  0  0  0  0  0  0  0
    9.2097  -16.1683   23.2420 C   0  0  0  0  0  0  0  0  0  0  0  0
   10.3592  -15.7114   22.9312 O   0  0  0  0  0  0  0  0  0  0  0  0
    8.8511  -16.1651   24.6014 N   0  0  0  0  0  0  0  0  0  0  0  0
    9.8054  -15.7158   25.6019 C   0  0  1  0  0  0  0  0  0  0  0  0
    9.8780  -14.2111   25.5745 C   0  0  0  0  0  0  0  0  0  0  0  0
    8.5504  -13.6351   25.8752 C   0  0  0  0  0  0  0  0  0  0  0  0
    7.5952  -13.5888   24.8815 C   0  0  0  0  0  0  0  0  0  0  0  0
    6.3480  -13.0633   25.1617 C   0  0  0  0  0  0  0  0  0  0  0  0
    6.0260  -12.5815   26.4084 C   0  0  0  0  0  0  0  0  0  0  0  0
    6.9784  -12.6283   27.3975 C   0  0  0  0  0  0  0  0  0  0  0  0
    8.2333  -13.1571   27.1159 C   0  0  0  0  0  0  0  0  0  0  0  0
    9.4498  -16.2771   26.9251 C   0  0  0  0  0  0  0  0  0  0  0  0
    8.3251  -17.1180   27.0689 O   0  0  0  0  0  0  0  0  0  0  0  0
   10.0876  -16.0642   27.9856 O   0  0  0  0  0  0  0  0  0  0  0  0
  1  2  1  0
  3  2  1  0
  4  3  1  0
  5  4  1  0
  5  6  1  1
  5  1  1  0
  6  7  2  0
  9  8  1  0
 10  9  1  6
 10 12  1  0
 11 10  1  0
 11  6  1  0
 12 14  1  0
 13 12  2  0
 14 15  1  0
 15 16  1  1
 16 17  1  0
 17 22  1  0
 17 18  2  0
 18 19  1  0
 19 20  2  0
 21 20  1  0
 22 21  2  0
 23 24  1  0
 23 15  1  0
 25 23  2  0
M  END
$$$$
