PSF.pdb
     RDKit          3D

 25 26  0  0  1  0  0  0  0  0999 V2000
    8.9392  -14.5355   18.8573 N   0  0  0  0  0  0  0  0  0  0  0  0
    7.6932  -14.3968   18.1655 C   0  0  0  0  0  0  0  0  0  0  0  0
    7.5309  -12.8693   18.1699 C   0  0  0  0  0  0  0  0  0  0  0  0
    7.8778  -12.5990   19.6408 C   0  0  0  0  0  0  0  0  0  0  0  0
    8.7720  -13.7540   20.0384 C   0  0  1  0  0  0  0  0  0  0  0  0
    8.1536  -14.4954   21.1549 C   0  0  0  0  0  0  0  0  0  0  0  0
    7.5562  -13.8419   22.0559 O   0  0  0  0  0  0  0  0  0  0  0  0
    8.5379  -18.6257   21.8418 O   0  0  0  0  0  0  0  0  0  0  0  0
    7.2851  -18.0608   22.0409 C   0  0  0  0  0  0  0  0  0  0  0  0
    7.4114  -16.5793   22.3411 C   0  0  2  0  0  0  0  0  0  0  0  0
    8.1744  -15.9069   21.3038 N   0  0  0  0  0  0  0  0  0  0  0  0
    8.1361  -16.3850   23.6252 C   0  0  0  0  0  0  0  0  0  0  0  0
    9.3874  -16.1399   23.5960 O   0  0  0  0  0  0  0  0  0  0  0  0
    7.5136  -16.4564   24.8837 N   0  0  0  0  0  0  0  0  0  0  0  0
    8.2825  -16.1924   26.0890 C   0  0  1  0  0  0  0  0  0  0  0  0
    7.4141  -15.4591   27.0781 C   0  0  0  0  0  0  0  0  0  0  0  0
    7.1738  -14.0769   26.6129 C   0  0  0  0  0  0  0  0  0  0  0  0
    5.9122  -13.7193   26.1860 C   0  0  0  0  0  0  0  0  0  0  0  0
    5.6798  -12.4243   25.7626 C   0  0  0  0  0  0  0  0  0  0  0  0
    6.6729  -11.4738   25.7530 C   0  0  0  0  0  0  0  0  0  0  0  0
    7.9293  -11.8313   26.1786 C   0  0  0  0  0  0  0  0  0  0  0  0
    8.1635  -13.1341   26.6047 C   0  0  0  0  0  0  0  0  0  0  0  0
    8.8528  -17.4557   26.6095 C   0  0  0  0  0  0  0  0  0  0  0  0
    8.4726  -18.6968   26.0547 O   0  0  0  0  0  0  0  0  0  0  0  0
    9.6857  -17.5303   27.5464 O   0  0  0  0  0  0  0  0  0  0  0  0
  1  2  1  0
  3  2  1  0
  4  3  1  0
  5  4  1  0
  5  6  1  1
  5  1  1  0
  6  7  2  0
  9  8  1  0
 10  9  1  6
 10 12  1  0
 11 10  1  0
 11  6  1  0
 12 14  1  0
 13 12  2  0
 14 15  1  0
 15 16  1  1
 16 17  1  0
 17 22  1  0
 17 18  2  0
 18 19  1  0
 19 20  2  0
 21 20  1  0
 22 21  2  0
 23 24  1  0
 23 15  1  0
 25 23  2  0
M  END
$$$$
