PSF.pdb
     RDKit          3D

 25 26  0  0  1  0  0  0  0  0999 V2000
    8.9553  -14.3445   18.6863 N   0  0  0  0  0  0  0  0  0  0  0  0
    7.6345  -14.3237   18.1336 C   0  0  0  0  0  0  0  0  0  0  0  0
    7.2694  -12.8430   18.3181 C   0  0  0  0  0  0  0  0  0  0  0  0
    7.7336  -12.6644   19.7705 C   0  0  0  0  0  0  0  0  0  0  0  0
    8.8130  -13.7097   19.9554 C   0  0  1  0  0  0  0  0  0  0  0  0
    8.4244  -14.6342   21.0384 C   0  0  0  0  0  0  0  0  0  0  0  0
    7.3146  -14.4561   21.6150 O   0  0  0  0  0  0  0  0  0  0  0  0
   10.6555  -17.9972   22.1069 O   0  0  0  0  0  0  0  0  0  0  0  0
    9.2753  -18.0500   22.2501 C   0  0  0  0  0  0  0  0  0  0  0  0
    8.7120  -16.6621   22.4895 C   0  0  2  0  0  0  0  0  0  0  0  0
    9.2076  -15.7266   21.4947 N   0  0  0  0  0  0  0  0  0  0  0  0
    9.1440  -16.1658   23.8232 C   0  0  0  0  0  0  0  0  0  0  0  0
   10.2052  -15.4630   23.9054 O   0  0  0  0  0  0  0  0  0  0  0  0
    8.4413  -16.4293   25.0120 N   0  0  0  0  0  0  0  0  0  0  0  0
    9.0229  -16.0660   26.2939 C   0  0  1  0  0  0  0  0  0  0  0  0
    7.9409  -15.5231   27.1910 C   0  0  0  0  0  0  0  0  0  0  0  0
    7.5457  -14.1705   26.7451 C   0  0  0  0  0  0  0  0  0  0  0  0
    8.3981  -13.1104   26.9719 C   0  0  0  0  0  0  0  0  0  0  0  0
    8.0387  -11.8460   26.5448 C   0  0  0  0  0  0  0  0  0  0  0  0
    6.8499  -11.6088   25.8964 C   0  0  0  0  0  0  0  0  0  0  0  0
    6.0016  -12.6658   25.6710 C   0  0  0  0  0  0  0  0  0  0  0  0
    6.3630  -13.9380   26.1005 C   0  0  0  0  0  0  0  0  0  0  0  0
    9.7518  -17.2227   26.8623 C   0  0  0  0  0  0  0  0  0  0  0  0
    9.7274  -18.4757   26.2126 O   0  0  0  0  0  0  0  0  0  0  0  0
   10.4241  -17.1917   27.9224 O   0  0  0  0  0  0  0  0  0  0  0  0
  1  2  1  0
  3  2  1  0
  4  3  1  0
  5  4  1  0
  5  6  1  1
  5  1  1  0
  6  7  2  0
  9  8  1  0
 10  9  1  6
 10 12  1  0
 11 10  1  0
 11  6  1  0
 12 14  1  0
 13 12  2  0
 14 15  1  0
 15 16  1  1
 16 17  1  0
 17 22  1  0
 17 18  2  0
 18 19  1  0
 19 20  2  0
 21 20  1  0
 22 21  2  0
 23 24  1  0
 23 15  1  0
 25 23  2  0
M  END
$$$$
