PSF.pdb
     RDKit          3D

 25 26  0  0  1  0  0  0  0  0999 V2000
    8.5624  -14.3506   18.5813 N   0  0  0  0  0  0  0  0  0  0  0  0
    7.2424  -13.8723   18.2999 C   0  0  0  0  0  0  0  0  0  0  0  0
    7.3625  -12.4114   18.7596 C   0  0  0  0  0  0  0  0  0  0  0  0
    8.0609  -12.6442   20.1067 C   0  0  0  0  0  0  0  0  0  0  0  0
    8.7970  -13.9554   19.9313 C   0  0  1  0  0  0  0  0  0  0  0  0
    8.3105  -14.9315   20.9259 C   0  0  0  0  0  0  0  0  0  0  0  0
    7.0648  -15.1069   21.0402 O   0  0  0  0  0  0  0  0  0  0  0  0
   10.4862  -18.0340   22.3752 O   0  0  0  0  0  0  0  0  0  0  0  0
    9.1033  -18.0383   22.5021 C   0  0  0  0  0  0  0  0  0  0  0  0
    8.5877  -16.6335   22.7499 C   0  0  2  0  0  0  0  0  0  0  0  0
    9.1404  -15.7035   21.7803 N   0  0  0  0  0  0  0  0  0  0  0  0
    9.0080  -16.1729   24.1001 C   0  0  0  0  0  0  0  0  0  0  0  0
   10.0881  -15.5043   24.2148 O   0  0  0  0  0  0  0  0  0  0  0  0
    8.2744  -16.4348   25.2704 N   0  0  0  0  0  0  0  0  0  0  0  0
    8.8359  -16.0989   26.5686 C   0  0  1  0  0  0  0  0  0  0  0  0
    7.7607  -15.4862   27.4281 C   0  0  0  0  0  0  0  0  0  0  0  0
    7.3576  -14.1757   26.8761 C   0  0  0  0  0  0  0  0  0  0  0  0
    8.1829  -13.0857   27.0567 C   0  0  0  0  0  0  0  0  0  0  0  0
    7.8163  -11.8613   26.5309 C   0  0  0  0  0  0  0  0  0  0  0  0
    6.6467  -11.6931   25.8282 C   0  0  0  0  0  0  0  0  0  0  0  0
    5.8254  -12.7798   25.6488 C   0  0  0  0  0  0  0  0  0  0  0  0
    6.1940  -14.0119   26.1777 C   0  0  0  0  0  0  0  0  0  0  0  0
    9.4754  -17.2936   27.1653 C   0  0  0  0  0  0  0  0  0  0  0  0
   10.2962  -17.1729   28.3074 O   0  0  0  0  0  0  0  0  0  0  0  0
    9.3495  -18.4640   26.7281 O   0  0  0  0  0  0  0  0  0  0  0  0
  1  2  1  0
  3  2  1  0
  4  3  1  0
  5  4  1  0
  5  6  1  1
  5  1  1  0
  6  7  2  0
  9  8  1  0
 10  9  1  6
 10 12  1  0
 11 10  1  0
 11  6  1  0
 12 14  1  0
 13 12  2  0
 14 15  1  0
 15 16  1  1
 16 17  1  0
 17 22  1  0
 17 18  2  0
 18 19  1  0
 19 20  2  0
 21 20  1  0
 22 21  2  0
 23 24  1  0
 23 15  1  0
 25 23  2  0
M  END
$$$$
