SKV.pdb
     RDKit          3D

 23 22  0  0  1  0  0  0  0  0999 V2000
   27.0709  -19.6728  -17.9263 O   0  0  0  0  0  0  0  0  0  0  0  0
   27.7890  -19.4288  -16.7683 C   0  0  0  0  0  0  0  0  0  0  0  0
   28.2092  -20.7845  -16.2006 C   0  0  2  0  0  0  0  0  0  0  0  0
   28.4308  -21.6576  -17.3077 N   0  0  0  0  0  0  0  0  0  0  0  0
   27.1393  -21.2217  -15.2950 C   0  0  0  0  0  0  0  0  0  0  0  0
   26.2815  -22.0337  -15.7106 O   0  0  0  0  0  0  0  0  0  0  0  0
   27.0712  -20.7436  -13.9856 N   0  0  0  0  0  0  0  0  0  0  0  0
   25.9492  -21.0086  -13.0771 C   0  0  1  0  0  0  0  0  0  0  0  0
   26.4145  -20.6058  -11.7210 C   0  0  0  0  0  0  0  0  0  0  0  0
   25.3971  -20.8853  -10.6700 C   0  0  0  0  0  0  0  0  0  0  0  0
   25.9035  -20.4698   -9.2863 C   0  0  0  0  0  0  0  0  0  0  0  0
   24.8273  -20.8751   -8.2899 C   0  0  0  0  0  0  0  0  0  0  0  0
   25.1915  -20.5985   -6.9344 N   0  0  0  0  0  0  0  0  0  0  0  0
   24.7247  -20.3672  -13.5575 C   0  0  0  0  0  0  0  0  0  0  0  0
   24.6607  -19.1667  -13.9127 O   0  0  0  0  0  0  0  0  0  0  0  0
   20.5103  -20.4472  -15.8179 C   0  0  0  0  0  0  0  0  0  0  0  0
   21.7524  -21.1699  -15.3824 C   0  0  2  0  0  0  0  0  0  0  0  0
   21.3995  -22.5972  -15.0976 C   0  0  0  0  0  0  0  0  0  0  0  0
   22.3008  -20.4513  -14.1506 C   0  0  2  0  0  0  0  0  0  0  0  0
   23.4847  -21.1010  -13.6527 N   0  0  0  0  0  0  0  0  0  0  0  0
   21.2449  -20.4500  -13.1107 C   0  0  0  0  0  0  0  0  0  0  0  0
   21.2268  -21.3523  -12.2468 O   0  0  0  0  0  0  0  0  0  0  0  0
   20.2554  -19.4851  -13.0397 O   0  0  0  0  0  0  0  0  0  0  0  0
  2  1  1  0
  2  3  1  0
  3  4  1  6
  3  5  1  0
  5  6  2  0
  7  5  1  0
  7  8  1  0
  8  9  1  1
  9 10  1  0
 11 12  1  0
 11 10  1  0
 12 13  1  0
 14  8  1  0
 14 15  2  0
 17 16  1  1
 17 19  1  0
 18 17  1  0
 19 21  1  0
 19 20  1  1
 20 14  1  0
 21 23  1  0
 22 21  2  0
M  END
$$$$
