SKV.pdb
     RDKit          3D

 23 22  0  0  1  0  0  0  0  0999 V2000
   34.8449  -33.1054  -19.2031 O   0  0  0  0  0  0  0  0  0  0  0  0
   34.0789  -32.5150  -18.2126 C   0  0  0  0  0  0  0  0  0  0  0  0
   33.8232  -31.0692  -18.6378 C   0  0  2  0  0  0  0  0  0  0  0  0
   35.0757  -30.3864  -18.5940 N   0  0  0  0  0  0  0  0  0  0  0  0
   32.8098  -30.5253  -17.7251 C   0  0  0  0  0  0  0  0  0  0  0  0
   33.1579  -29.7054  -16.8451 O   0  0  0  0  0  0  0  0  0  0  0  0
   31.4727  -30.9116  -17.8295 N   0  0  0  0  0  0  0  0  0  0  0  0
   30.3803  -30.2830  -17.0772 C   0  0  1  0  0  0  0  0  0  0  0  0
   30.3735  -28.8501  -17.4826 C   0  0  0  0  0  0  0  0  0  0  0  0
   29.2903  -28.0796  -16.8113 C   0  0  0  0  0  0  0  0  0  0  0  0
   29.3214  -26.6062  -17.2262 C   0  0  0  0  0  0  0  0  0  0  0  0
   27.8791  -26.1215  -17.2167 C   0  0  0  0  0  0  0  0  0  0  0  0
   27.7531  -24.7429  -17.5775 N   0  0  0  0  0  0  0  0  0  0  0  0
   29.1269  -31.0142  -17.2660 C   0  0  0  0  0  0  0  0  0  0  0  0
   28.7293  -31.4395  -18.3763 O   0  0  0  0  0  0  0  0  0  0  0  0
   25.9640  -34.1785  -15.5081 C   0  0  0  0  0  0  0  0  0  0  0  0
   27.2003  -33.3466  -15.3233 C   0  0  2  0  0  0  0  0  0  0  0  0
   27.2467  -32.8684  -13.9048 C   0  0  0  0  0  0  0  0  0  0  0  0
   27.1379  -32.1924  -16.3226 C   0  0  2  0  0  0  0  0  0  0  0  0
   28.2511  -31.2960  -16.1530 N   0  0  0  0  0  0  0  0  0  0  0  0
   25.8630  -31.4675  -16.1090 C   0  0  0  0  0  0  0  0  0  0  0  0
   24.7999  -31.9386  -16.5658 O   0  0  0  0  0  0  0  0  0  0  0  0
   25.7803  -30.2719  -15.4171 O   0  0  0  0  0  0  0  0  0  0  0  0
  2  1  1  0
  2  3  1  0
  3  4  1  1
  3  5  1  0
  5  6  2  0
  7  5  1  0
  7  8  1  0
  8  9  1  6
  9 10  1  0
 11 12  1  0
 11 10  1  0
 12 13  1  0
 14  8  1  0
 14 15  2  0
 17 16  1  1
 17 19  1  0
 18 17  1  0
 19 21  1  0
 19 20  1  1
 20 14  1  0
 21 23  1  0
 22 21  2  0
M  END
$$$$
