SKV.pdb
     RDKit          3D

 23 22  0  0  1  0  0  0  0  0999 V2000
   23.1506   -9.3835  -13.6391 O   0  0  0  0  0  0  0  0  0  0  0  0
   22.2274   -8.5406  -14.2336 C   0  0  0  0  0  0  0  0  0  0  0  0
   21.4665   -9.3624  -15.2740 C   0  0  2  0  0  0  0  0  0  0  0  0
   22.3956   -9.7145  -16.2985 N   0  0  0  0  0  0  0  0  0  0  0  0
   20.3447   -8.5364  -15.7377 C   0  0  0  0  0  0  0  0  0  0  0  0
   20.5033   -7.7958  -16.7348 O   0  0  0  0  0  0  0  0  0  0  0  0
   19.1133   -8.5697  -15.0817 N   0  0  0  0  0  0  0  0  0  0  0  0
   17.9627   -7.7419  -15.4628 C   0  0  1  0  0  0  0  0  0  0  0  0
   16.7552   -8.4734  -14.9889 C   0  0  0  0  0  0  0  0  0  0  0  0
   15.4924   -7.7764  -15.3597 C   0  0  0  0  0  0  0  0  0  0  0  0
   14.2679   -8.6185  -14.9917 C   0  0  0  0  0  0  0  0  0  0  0  0
   13.0516   -7.8682  -15.5142 C   0  0  0  0  0  0  0  0  0  0  0  0
   11.8509   -8.6434  -15.4526 N   0  0  0  0  0  0  0  0  0  0  0  0
   18.1207   -6.3710  -14.9759 C   0  0  0  0  0  0  0  0  0  0  0  0
   18.5401   -6.0830  -13.8301 O   0  0  0  0  0  0  0  0  0  0  0  0
   18.5835   -1.5894  -15.9478 C   0  0  0  0  0  0  0  0  0  0  0  0
   18.3301   -2.9561  -16.5159 C   0  0  2  0  0  0  0  0  0  0  0  0
   17.1705   -2.8734  -17.4601 C   0  0  0  0  0  0  0  0  0  0  0  0
   18.0599   -3.9027  -15.3473 C   0  0  2  0  0  0  0  0  0  0  0  0
   17.7933   -5.2390  -15.8106 N   0  0  0  0  0  0  0  0  0  0  0  0
   16.8943   -3.3826  -14.5941 C   0  0  0  0  0  0  0  0  0  0  0  0
   15.7505   -3.8160  -14.8484 O   0  0  0  0  0  0  0  0  0  0  0  0
   17.0022   -2.4230  -13.6029 O   0  0  0  0  0  0  0  0  0  0  0  0
  2  1  1  0
  2  3  1  0
  3  4  1  6
  3  5  1  0
  5  6  2  0
  7  5  1  0
  7  8  1  0
  8  9  1  1
  9 10  1  0
 11 12  1  0
 11 10  1  0
 12 13  1  0
 14  8  1  0
 14 15  2  0
 17 16  1  1
 17 19  1  0
 18 17  1  0
 19 21  1  0
 19 20  1  6
 20 14  1  0
 21 23  1  0
 22 21  2  0
M  END
$$$$
