SKV.pdb
     RDKit          3D

 23 22  0  0  1  0  0  0  0  0999 V2000
   15.1745  -13.0283  -14.9042 O   0  0  0  0  0  0  0  0  0  0  0  0
   16.3244  -12.4855  -15.4514 C   0  0  0  0  0  0  0  0  0  0  0  0
   16.1652  -10.9655  -15.4263 C   0  0  2  0  0  0  0  0  0  0  0  0
   15.2801  -10.6141  -16.4892 N   0  0  0  0  0  0  0  0  0  0  0  0
   17.5106  -10.3902  -15.5493 C   0  0  0  0  0  0  0  0  0  0  0  0
   18.3909  -10.7137  -14.7197 O   0  0  0  0  0  0  0  0  0  0  0  0
   17.8135   -9.4932  -16.5747 N   0  0  0  0  0  0  0  0  0  0  0  0
   19.1358   -8.8844  -16.7624 C   0  0  1  0  0  0  0  0  0  0  0  0
   19.1573   -8.3713  -18.1603 C   0  0  0  0  0  0  0  0  0  0  0  0
   20.4689   -7.7632  -18.5174 C   0  0  0  0  0  0  0  0  0  0  0  0
   20.4805   -7.2897  -19.9732 C   0  0  0  0  0  0  0  0  0  0  0  0
   21.8784   -6.7534  -20.2448 C   0  0  0  0  0  0  0  0  0  0  0  0
   21.9903   -6.1115  -21.5183 N   0  0  0  0  0  0  0  0  0  0  0  0
   19.4153   -7.9063  -15.7104 C   0  0  0  0  0  0  0  0  0  0  0  0
   18.5992   -7.0297  -15.3400 O   0  0  0  0  0  0  0  0  0  0  0  0
   22.5217   -8.5332  -13.0104 C   0  0  0  0  0  0  0  0  0  0  0  0
   21.3494   -7.6570  -12.6743 C   0  0  2  0  0  0  0  0  0  0  0  0
   20.2626   -8.5126  -12.1000 C   0  0  0  0  0  0  0  0  0  0  0  0
   20.9142   -6.9503  -13.9572 C   0  0  2  0  0  0  0  0  0  0  0  0
   20.6829   -7.8942  -15.0189 N   0  0  0  0  0  0  0  0  0  0  0  0
   21.9835   -6.0001  -14.3443 C   0  0  0  0  0  0  0  0  0  0  0  0
   22.2312   -5.0171  -13.6141 O   0  0  0  0  0  0  0  0  0  0  0  0
   22.7406   -6.1419  -15.4940 O   0  0  0  0  0  0  0  0  0  0  0  0
  2  1  1  0
  2  3  1  0
  3  4  1  6
  3  5  1  0
  5  6  2  0
  7  5  1  0
  7  8  1  0
  8  9  1  6
  9 10  1  0
 11 12  1  0
 11 10  1  0
 12 13  1  0
 14  8  1  0
 14 15  2  0
 17 16  1  6
 17 19  1  0
 18 17  1  0
 19 21  1  0
 19 20  1  6
 20 14  1  0
 21 23  1  0
 22 21  2  0
M  END
$$$$
