SKV.pdb
     RDKit          3D

 23 22  0  0  1  0  0  0  0  0999 V2000
   15.1667   -5.8915  -18.6434 O   0  0  0  0  0  0  0  0  0  0  0  0
   15.5404   -6.3063  -17.3767 C   0  0  0  0  0  0  0  0  0  0  0  0
   16.0139   -7.7549  -17.4948 C   0  0  2  0  0  0  0  0  0  0  0  0
   14.9096   -8.5914  -17.1519 N   0  0  0  0  0  0  0  0  0  0  0  0
   17.1763   -7.9009  -16.6096 C   0  0  0  0  0  0  0  0  0  0  0  0
   17.0169   -7.8025  -15.3716 O   0  0  0  0  0  0  0  0  0  0  0  0
   18.4468   -8.1464  -17.1326 N   0  0  0  0  0  0  0  0  0  0  0  0
   19.6653   -8.2174  -16.3174 C   0  0  1  0  0  0  0  0  0  0  0  0
   20.4942   -9.3028  -16.9111 C   0  0  0  0  0  0  0  0  0  0  0  0
   20.3202  -10.5988  -16.1985 C   0  0  0  0  0  0  0  0  0  0  0  0
   19.1477  -11.3948  -16.7776 C   0  0  0  0  0  0  0  0  0  0  0  0
   18.9568  -12.6056  -15.8759 C   0  0  0  0  0  0  0  0  0  0  0  0
   17.8876  -13.4545  -16.3032 N   0  0  0  0  0  0  0  0  0  0  0  0
   20.3006   -6.9034  -16.2110 C   0  0  0  0  0  0  0  0  0  0  0  0
   20.5995   -6.1924  -17.1994 O   0  0  0  0  0  0  0  0  0  0  0  0
   19.1773   -3.8869  -15.5871 C   0  0  0  0  0  0  0  0  0  0  0  0
   20.1724   -3.9723  -14.4658 C   0  0  2  0  0  0  0  0  0  0  0  0
   20.7779   -2.6180  -14.2603 C   0  0  0  0  0  0  0  0  0  0  0  0
   21.2150   -5.0217  -14.8482 C   0  0  2  0  0  0  0  0  0  0  0  0
   20.6290   -6.3340  -14.9253 N   0  0  0  0  0  0  0  0  0  0  0  0
   22.2856   -5.0012  -13.8236 C   0  0  0  0  0  0  0  0  0  0  0  0
   22.2173   -5.7719  -12.8426 O   0  0  0  0  0  0  0  0  0  0  0  0
   23.3813   -4.1588  -13.8923 O   0  0  0  0  0  0  0  0  0  0  0  0
  2  1  1  0
  2  3  1  0
  3  4  1  1
  3  5  1  0
  5  6  2  0
  7  5  1  0
  7  8  1  0
  8  9  1  6
  9 10  1  0
 11 12  1  0
 11 10  1  0
 12 13  1  0
 14  8  1  0
 14 15  2  0
 17 16  1  6
 17 19  1  0
 18 17  1  0
 19 21  1  0
 19 20  1  1
 20 14  1  0
 21 23  1  0
 22 21  2  0
M  END
$$$$
