FPE.pdb
     RDKit          3D

 28 29  0  0  1  0  0  0  0  0999 V2000
   27.8124  -20.8091  -17.1722 N   0  0  0  0  0  0  0  0  0  0  0  0
   27.4775  -20.2575  -15.9169 C   0  0  1  0  0  0  0  0  0  0  0  0
   27.1444  -18.7852  -16.1031 C   0  0  0  0  0  0  0  0  0  0  0  0
   28.2063  -18.0849  -16.8300 C   0  0  0  0  0  0  0  0  0  0  0  0
   29.4307  -17.9133  -16.1791 C   0  0  0  0  0  0  0  0  0  0  0  0
   30.4634  -17.2649  -16.8145 C   0  0  0  0  0  0  0  0  0  0  0  0
   30.3199  -16.7723  -18.0922 C   0  0  0  0  0  0  0  0  0  0  0  0
   29.0901  -16.9466  -18.7366 C   0  0  0  0  0  0  0  0  0  0  0  0
   28.0628  -17.5930  -18.1050 C   0  0  0  0  0  0  0  0  0  0  0  0
   26.3952  -20.9045  -15.1664 C   0  0  0  0  0  0  0  0  0  0  0  0
   25.5026  -21.4895  -15.8718 O   0  0  0  0  0  0  0  0  0  0  0  0
   26.2351  -20.9509  -13.7759 N   0  0  0  0  0  0  0  0  0  0  0  0
   27.0574  -20.2629  -12.8074 C   0  0  0  0  0  0  0  0  0  0  0  0
   26.4521  -20.6287  -11.4363 C   0  0  0  0  0  0  0  0  0  0  0  0
   25.9479  -22.0286  -11.7522 C   0  0  0  0  0  0  0  0  0  0  0  0
   25.2018  -21.7088  -13.0735 C   0  0  1  0  0  0  0  0  0  0  0  0
   24.0290  -20.8851  -12.7374 C   0  0  0  0  0  0  0  0  0  0  0  0
   24.0932  -19.7494  -12.2179 O   0  0  0  0  0  0  0  0  0  0  0  0
   22.7204  -21.3995  -13.0148 N   0  0  0  0  0  0  0  0  0  0  0  0
   21.5394  -20.5467  -12.8347 C   0  0  1  0  0  0  0  0  0  0  0  0
   21.2488  -19.8875  -14.1675 C   0  0  0  0  0  0  0  0  0  0  0  0
   20.9788  -20.9788  -15.1766 C   0  0  0  0  0  0  0  0  0  0  0  0
   20.4671  -20.3284  -16.4181 C   0  0  0  0  0  0  0  0  0  0  0  0
   20.2273  -21.1101  -17.3958 O   0  0  0  0  0  0  0  0  0  0  0  0
   20.4184  -21.3766  -12.3604 C   0  0  0  0  0  0  0  0  0  0  0  0
   20.5054  -22.6299  -12.4413 O   0  0  0  0  0  0  0  0  0  0  0  0
   20.2526  -18.9812  -16.5401 O   0  0  0  0  0  0  0  0  0  0  0  0
   19.2366  -20.8575  -11.8190 O   0  0  0  0  0  0  0  0  0  0  0  0
  2 10  1  0
  2  1  1  6
  3  2  1  0
  4  3  1  0
  4  5  2  0
  6  5  1  0
  7  6  2  0
  8  9  2  0
  8  7  1  0
  9  4  1  0
 10 12  1  0
 11 10  2  0
 12 13  1  0
 12 16  1  0
 13 14  1  0
 14 15  1  0
 16 15  1  0
 17 19  1  0
 16 17  1  1
 18 17  2  0
 20 21  1  6
 20 25  1  0
 20 19  1  0
 21 22  1  0
 22 23  1  0
 23 24  2  0
 25 28  1  0
 26 25  2  0
 27 23  1  0
M  END
$$$$
