FPE.pdb
     RDKit          3D

 28 29  0  0  1  0  0  0  0  0999 V2000
   20.4661  -14.2038  -19.2608 N   0  0  0  0  0  0  0  0  0  0  0  0
   19.5241  -13.5650  -18.4261 C   0  0  1  0  0  0  0  0  0  0  0  0
   19.5098  -14.2681  -17.0775 C   0  0  0  0  0  0  0  0  0  0  0  0
   19.0896  -15.6655  -17.2079 C   0  0  0  0  0  0  0  0  0  0  0  0
   17.7183  -15.9331  -17.1865 C   0  0  0  0  0  0  0  0  0  0  0  0
   17.2671  -17.2263  -17.3068 C   0  0  0  0  0  0  0  0  0  0  0  0
   18.1431  -18.2790  -17.4481 C   0  0  0  0  0  0  0  0  0  0  0  0
   19.5148  -18.0031  -17.4669 C   0  0  0  0  0  0  0  0  0  0  0  0
   19.9640  -16.7161  -17.3485 C   0  0  0  0  0  0  0  0  0  0  0  0
   19.6842  -12.1218  -18.2145 C   0  0  0  0  0  0  0  0  0  0  0  0
   20.8895  -11.6936  -18.1940 O   0  0  0  0  0  0  0  0  0  0  0  0
   18.6710  -11.1718  -18.0349 N   0  0  0  0  0  0  0  0  0  0  0  0
   17.2651  -11.4580  -17.8642 C   0  0  0  0  0  0  0  0  0  0  0  0
   16.5944  -10.0799  -17.6885 C   0  0  0  0  0  0  0  0  0  0  0  0
   17.5152   -9.2417  -18.5621 C   0  0  0  0  0  0  0  0  0  0  0  0
   18.8733   -9.7252  -17.9905 C   0  0  1  0  0  0  0  0  0  0  0  0
   18.9877   -9.2140  -16.6149 C   0  0  0  0  0  0  0  0  0  0  0  0
   18.5354   -9.8005  -15.6071 O   0  0  0  0  0  0  0  0  0  0  0  0
   19.6562   -7.9656  -16.3945 N   0  0  0  0  0  0  0  0  0  0  0  0
   19.9316   -7.5079  -15.0274 C   0  0  1  0  0  0  0  0  0  0  0  0
   21.0319   -6.4697  -15.1099 C   0  0  0  0  0  0  0  0  0  0  0  0
   21.3580   -6.0255  -13.7033 C   0  0  0  0  0  0  0  0  0  0  0  0
   22.3816   -4.9442  -13.7979 C   0  0  0  0  0  0  0  0  0  0  0  0
   23.3266   -5.1456  -14.6291 O   0  0  0  0  0  0  0  0  0  0  0  0
   18.6907   -6.9685  -14.4447 C   0  0  0  0  0  0  0  0  0  0  0  0
   17.8000   -6.5150  -15.2101 O   0  0  0  0  0  0  0  0  0  0  0  0
   22.3440   -3.7920  -13.0585 O   0  0  0  0  0  0  0  0  0  0  0  0
   18.4297   -6.9199  -13.0704 O   0  0  0  0  0  0  0  0  0  0  0  0
  2 10  1  0
  2  1  1  6
  3  2  1  0
  4  3  1  0
  4  5  2  0
  6  5  1  0
  7  6  2  0
  8  9  2  0
  8  7  1  0
  9  4  1  0
 10 12  1  0
 11 10  2  0
 12 13  1  0
 12 16  1  0
 13 14  1  0
 14 15  1  0
 16 15  1  0
 17 19  1  0
 16 17  1  1
 18 17  2  0
 20 21  1  6
 20 25  1  0
 20 19  1  0
 21 22  1  0
 22 23  1  0
 23 24  2  0
 25 28  1  0
 26 25  2  0
 27 23  1  0
M  END
$$$$
