FPE.pdb
     RDKit          3D

 28 29  0  0  1  0  0  0  0  0999 V2000
   27.1363  -24.2781  -17.4714 N   0  0  0  0  0  0  0  0  0  0  0  0
   26.7697  -25.6334  -17.3262 C   0  0  1  0  0  0  0  0  0  0  0  0
   25.2576  -25.7462  -17.4447 C   0  0  0  0  0  0  0  0  0  0  0  0
   24.5819  -25.0373  -16.3552 C   0  0  0  0  0  0  0  0  0  0  0  0
   24.6066  -25.6253  -15.0879 C   0  0  0  0  0  0  0  0  0  0  0  0
   23.9900  -25.0032  -14.0279 C   0  0  0  0  0  0  0  0  0  0  0  0
   23.3389  -23.8003  -14.1852 C   0  0  0  0  0  0  0  0  0  0  0  0
   23.3170  -23.2187  -15.4578 C   0  0  0  0  0  0  0  0  0  0  0  0
   23.9316  -23.8371  -16.5124 C   0  0  0  0  0  0  0  0  0  0  0  0
   27.3970  -26.5996  -18.2351 C   0  0  0  0  0  0  0  0  0  0  0  0
   27.5570  -26.2048  -19.4414 O   0  0  0  0  0  0  0  0  0  0  0  0
   27.8355  -27.8938  -17.9285 N   0  0  0  0  0  0  0  0  0  0  0  0
   27.7104  -28.5464  -16.6454 C   0  0  0  0  0  0  0  0  0  0  0  0
   28.3260  -29.9466  -16.8467 C   0  0  0  0  0  0  0  0  0  0  0  0
   29.3869  -29.6057  -17.8821 C   0  0  0  0  0  0  0  0  0  0  0  0
   28.4959  -28.8014  -18.8642 C   0  0  1  0  0  0  0  0  0  0  0  0
   27.5568  -29.7451  -19.4921 C   0  0  0  0  0  0  0  0  0  0  0  0
   26.5664  -30.2418  -18.9121 O   0  0  0  0  0  0  0  0  0  0  0  0
   27.7736  -30.1328  -20.8547 N   0  0  0  0  0  0  0  0  0  0  0  0
   26.8032  -30.9953  -21.5392 C   0  0  1  0  0  0  0  0  0  0  0  0
   27.0221  -30.8306  -23.0293 C   0  0  0  0  0  0  0  0  0  0  0  0
   25.9654  -31.6378  -23.7462 C   0  0  0  0  0  0  0  0  0  0  0  0
   26.2833  -31.6035  -25.2035 C   0  0  0  0  0  0  0  0  0  0  0  0
   27.3845  -31.0442  -25.5183 O   0  0  0  0  0  0  0  0  0  0  0  0
   26.9995  -32.3850  -21.0913 C   0  0  0  0  0  0  0  0  0  0  0  0
   28.1345  -32.7430  -20.6810 O   0  0  0  0  0  0  0  0  0  0  0  0
   25.4722  -32.1300  -26.1734 O   0  0  0  0  0  0  0  0  0  0  0  0
   25.9919  -33.3566  -21.0946 O   0  0  0  0  0  0  0  0  0  0  0  0
  2 10  1  0
  2  1  1  6
  3  2  1  0
  4  3  1  0
  4  5  2  0
  6  5  1  0
  7  6  2  0
  8  9  2  0
  8  7  1  0
  9  4  1  0
 10 12  1  0
 11 10  2  0
 12 13  1  0
 12 16  1  0
 13 14  1  0
 14 15  1  0
 16 15  1  0
 17 19  1  0
 16 17  1  1
 18 17  2  0
 20 21  1  6
 20 25  1  0
 20 19  1  0
 21 22  1  0
 22 23  1  0
 23 24  2  0
 25 28  1  0
 26 25  2  0
 27 23  1  0
M  END
$$$$
