FPE.pdb
     RDKit          3D

 28 29  0  0  1  0  0  0  0  0999 V2000
   18.3243  -11.7277  -17.5865 N   0  0  0  0  0  0  0  0  0  0  0  0
   18.5099  -10.3299  -17.6495 C   0  0  1  0  0  0  0  0  0  0  0  0
   17.1752   -9.6474  -17.3920 C   0  0  0  0  0  0  0  0  0  0  0  0
   16.3375   -9.6416  -18.5938 C   0  0  0  0  0  0  0  0  0  0  0  0
   16.5777   -8.6463  -19.5446 C   0  0  0  0  0  0  0  0  0  0  0  0
   15.8228   -8.5939  -20.6926 C   0  0  0  0  0  0  0  0  0  0  0  0
   14.8216   -9.5082  -20.9322 C   0  0  0  0  0  0  0  0  0  0  0  0
   14.5860  -10.5008  -19.9745 C   0  0  0  0  0  0  0  0  0  0  0  0
   15.3380  -10.5538  -18.8326 C   0  0  0  0  0  0  0  0  0  0  0  0
   19.5266   -9.7470  -16.7664 C   0  0  0  0  0  0  0  0  0  0  0  0
   19.5897  -10.2427  -15.5888 O   0  0  0  0  0  0  0  0  0  0  0  0
   20.4265   -8.7177  -17.0698 N   0  0  0  0  0  0  0  0  0  0  0  0
   20.5552   -8.0578  -18.3487 C   0  0  0  0  0  0  0  0  0  0  0  0
   21.6616   -7.0022  -18.1449 C   0  0  0  0  0  0  0  0  0  0  0  0
   22.5155   -7.7314  -17.1187 C   0  0  0  0  0  0  0  0  0  0  0  0
   21.3888   -8.1396  -16.1344 C   0  0  1  0  0  0  0  0  0  0  0  0
   20.8863   -6.9125  -15.4952 C   0  0  0  0  0  0  0  0  0  0  0  0
   20.1745   -6.0607  -16.0713 O   0  0  0  0  0  0  0  0  0  0  0  0
   21.2232   -6.6584  -14.1256 N   0  0  0  0  0  0  0  0  0  0  0  0
   20.4902   -5.6414  -13.3623 C   0  0  1  0  0  0  0  0  0  0  0  0
   19.9930   -6.2993  -12.0914 C   0  0  0  0  0  0  0  0  0  0  0  0
   19.3415   -5.2341  -11.2410 C   0  0  0  0  0  0  0  0  0  0  0  0
   18.9144   -5.8758   -9.9635 C   0  0  0  0  0  0  0  0  0  0  0  0
   19.0893   -7.1362   -9.8899 O   0  0  0  0  0  0  0  0  0  0  0  0
   21.3887   -4.5051  -13.0941 C   0  0  0  0  0  0  0  0  0  0  0  0
   20.8960   -3.4072  -12.7244 O   0  0  0  0  0  0  0  0  0  0  0  0
   18.3673   -5.1903   -8.9117 O   0  0  0  0  0  0  0  0  0  0  0  0
   22.7807   -4.5612  -13.2290 O   0  0  0  0  0  0  0  0  0  0  0  0
  2 10  1  0
  2  1  1  1
  3  2  1  0
  4  3  1  0
  4  5  2  0
  6  5  1  0
  7  6  2  0
  8  9  2  0
  8  7  1  0
  9  4  1  0
 10 12  1  0
 11 10  2  0
 12 13  1  0
 12 16  1  0
 13 14  1  0
 14 15  1  0
 16 15  1  0
 17 19  1  0
 16 17  1  6
 18 17  2  0
 20 21  1  1
 20 25  1  0
 20 19  1  0
 21 22  1  0
 22 23  1  0
 23 24  2  0
 25 28  1  0
 26 25  2  0
 27 23  1  0
M  END
$$$$
