FPE.pdb
     RDKit          3D

 28 29  0  0  1  0  0  0  0  0999 V2000
   27.4529  -20.6472  -10.0567 N   0  0  0  0  0  0  0  0  0  0  0  0
   27.2443  -20.5672   -8.6630 C   0  0  1  0  0  0  0  0  0  0  0  0
   27.5817  -19.1588   -8.1982 C   0  0  0  0  0  0  0  0  0  0  0  0
   28.1875  -19.1671   -6.8643 C   0  0  0  0  0  0  0  0  0  0  0  0
   27.5246  -18.4728   -5.8489 C   0  0  0  0  0  0  0  0  0  0  0  0
   28.0468  -18.4484   -4.5771 C   0  0  0  0  0  0  0  0  0  0  0  0
   29.2225  -19.0978   -4.2744 C   0  0  0  0  0  0  0  0  0  0  0  0
   29.8812  -19.7893   -5.2971 C   0  0  0  0  0  0  0  0  0  0  0  0
   29.3611  -19.8148   -6.5624 C   0  0  0  0  0  0  0  0  0  0  0  0
   25.9153  -20.9341   -8.1608 C   0  0  0  0  0  0  0  0  0  0  0  0
   24.9405  -20.7201   -8.9610 O   0  0  0  0  0  0  0  0  0  0  0  0
   25.6014  -21.4880   -6.9134 N   0  0  0  0  0  0  0  0  0  0  0  0
   26.3268  -21.2658   -5.6837 C   0  0  0  0  0  0  0  0  0  0  0  0
   25.5655  -22.0799   -4.6171 C   0  0  0  0  0  0  0  0  0  0  0  0
   25.0681  -23.2250   -5.4860 C   0  0  0  0  0  0  0  0  0  0  0  0
   24.4800  -22.3875   -6.6512 C   0  0  1  0  0  0  0  0  0  0  0  0
   23.2960  -21.6782   -6.1397 C   0  0  0  0  0  0  0  0  0  0  0  0
   23.3168  -20.5142   -5.6828 O   0  0  0  0  0  0  0  0  0  0  0  0
   22.0284  -22.3466   -6.1569 N   0  0  0  0  0  0  0  0  0  0  0  0
   20.8689  -21.7125   -6.7955 C   0  0  1  0  0  0  0  0  0  0  0  0
   21.0639  -21.8159   -8.2944 C   0  0  0  0  0  0  0  0  0  0  0  0
   19.8307  -21.2554   -8.9631 C   0  0  0  0  0  0  0  0  0  0  0  0
   20.0260  -21.3701  -10.4378 C   0  0  0  0  0  0  0  0  0  0  0  0
   21.1708  -21.7839  -10.8156 O   0  0  0  0  0  0  0  0  0  0  0  0
   19.6424  -22.3889   -6.3390 C   0  0  0  0  0  0  0  0  0  0  0  0
   19.6897  -23.6118   -6.0437 O   0  0  0  0  0  0  0  0  0  0  0  0
   19.0618  -21.0629  -11.3607 O   0  0  0  0  0  0  0  0  0  0  0  0
   18.4012  -21.7544   -6.2125 O   0  0  0  0  0  0  0  0  0  0  0  0
  2 10  1  0
  2  1  1  6
  3  2  1  0
  4  3  1  0
  4  5  2  0
  6  5  1  0
  7  6  2  0
  8  9  2  0
  8  7  1  0
  9  4  1  0
 10 12  1  0
 11 10  2  0
 12 13  1  0
 12 16  1  0
 13 14  1  0
 14 15  1  0
 16 15  1  0
 17 19  1  0
 16 17  1  1
 18 17  2  0
 20 21  1  6
 20 25  1  0
 20 19  1  0
 21 22  1  0
 22 23  1  0
 23 24  2  0
 25 28  1  0
 26 25  2  0
 27 23  1  0
M  END
$$$$
