FPE.pdb
     RDKit          3D

 28 29  0  0  1  0  0  0  0  0999 V2000
   27.6017  -19.8640  -16.3516 N   0  0  0  0  0  0  0  0  0  0  0  0
   26.9247  -19.4993  -15.1680 C   0  0  1  0  0  0  0  0  0  0  0  0
   25.9773  -18.3513  -15.4806 C   0  0  0  0  0  0  0  0  0  0  0  0
   26.7108  -17.1430  -15.8656 C   0  0  0  0  0  0  0  0  0  0  0  0
   27.2883  -16.3842  -14.8441 C   0  0  0  0  0  0  0  0  0  0  0  0
   27.9898  -15.2413  -15.1477 C   0  0  0  0  0  0  0  0  0  0  0  0
   28.1388  -14.8184  -16.4495 C   0  0  0  0  0  0  0  0  0  0  0  0
   27.5560  -15.5826  -17.4665 C   0  0  0  0  0  0  0  0  0  0  0  0
   26.8590  -16.7207  -17.1647 C   0  0  0  0  0  0  0  0  0  0  0  0
   26.1864  -20.5544  -14.4645 C   0  0  0  0  0  0  0  0  0  0  0  0
   25.8012  -21.5383  -15.1856 O   0  0  0  0  0  0  0  0  0  0  0  0
   25.8614  -20.6010  -13.1030 N   0  0  0  0  0  0  0  0  0  0  0  0
   26.3392  -19.6896  -12.0887 C   0  0  0  0  0  0  0  0  0  0  0  0
   25.6746  -20.1635  -10.7796 C   0  0  0  0  0  0  0  0  0  0  0  0
   25.6010  -21.6560  -11.0638 C   0  0  0  0  0  0  0  0  0  0  0  0
   24.9789  -21.5868  -12.4827 C   0  0  1  0  0  0  0  0  0  0  0  0
   23.5976  -21.0978  -12.3427 C   0  0  0  0  0  0  0  0  0  0  0  0
   23.2943  -19.9115  -12.0881 O   0  0  0  0  0  0  0  0  0  0  0  0
   22.5163  -22.0244  -12.5041 N   0  0  0  0  0  0  0  0  0  0  0  0
   21.2365  -21.5740  -13.0641 C   0  0  1  0  0  0  0  0  0  0  0  0
   20.6169  -22.7536  -13.7852 C   0  0  0  0  0  0  0  0  0  0  0  0
   19.2529  -22.3320  -14.2790 C   0  0  0  0  0  0  0  0  0  0  0  0
   18.6426  -23.5035  -14.9727 C   0  0  0  0  0  0  0  0  0  0  0  0
   17.4535  -23.3376  -15.4005 O   0  0  0  0  0  0  0  0  0  0  0  0
   20.3863  -21.0724  -11.9705 C   0  0  0  0  0  0  0  0  0  0  0  0
   20.5998  -21.4702  -10.7954 O   0  0  0  0  0  0  0  0  0  0  0  0
   19.2856  -24.6981  -15.1607 O   0  0  0  0  0  0  0  0  0  0  0  0
   19.3326  -20.1691  -12.1517 O   0  0  0  0  0  0  0  0  0  0  0  0
  2 10  1  0
  2  1  1  6
  3  2  1  0
  4  3  1  0
  4  5  2  0
  6  5  1  0
  7  6  2  0
  8  9  2  0
  8  7  1  0
  9  4  1  0
 10 12  1  0
 11 10  2  0
 12 13  1  0
 12 16  1  0
 13 14  1  0
 14 15  1  0
 16 15  1  0
 17 19  1  0
 16 17  1  1
 18 17  2  0
 20 21  1  1
 20 25  1  0
 20 19  1  0
 21 22  1  0
 22 23  1  0
 23 24  2  0
 25 28  1  0
 26 25  2  0
 27 23  1  0
M  END
$$$$
