FPE.pdb
     RDKit          3D

 28 29  0  0  1  0  0  0  0  0999 V2000
   26.4444  -18.7043  -10.2917 N   0  0  0  0  0  0  0  0  0  0  0  0
   26.2021  -20.0576  -10.6114 C   0  0  1  0  0  0  0  0  0  0  0  0
   25.9469  -20.8259   -9.3238 C   0  0  0  0  0  0  0  0  0  0  0  0
   26.9984  -20.5756   -8.3349 C   0  0  0  0  0  0  0  0  0  0  0  0
   26.6380  -19.9036   -7.1639 C   0  0  0  0  0  0  0  0  0  0  0  0
   27.5838  -19.6433   -6.2004 C   0  0  0  0  0  0  0  0  0  0  0  0
   28.8948  -20.0315   -6.3622 C   0  0  0  0  0  0  0  0  0  0  0  0
   29.2482  -20.7023   -7.5383 C   0  0  0  0  0  0  0  0  0  0  0  0
   28.3069  -20.9625   -8.4966 C   0  0  0  0  0  0  0  0  0  0  0  0
   25.1208  -20.3397  -11.5624 C   0  0  0  0  0  0  0  0  0  0  0  0
   24.0203  -19.7226  -11.3513 O   0  0  0  0  0  0  0  0  0  0  0  0
   25.1624  -21.2021  -12.6650 N   0  0  0  0  0  0  0  0  0  0  0  0
   26.1153  -22.2691  -12.8676 C   0  0  0  0  0  0  0  0  0  0  0  0
   25.7136  -22.9153  -14.2096 C   0  0  0  0  0  0  0  0  0  0  0  0
   25.1697  -21.6875  -14.9241 C   0  0  0  0  0  0  0  0  0  0  0  0
   24.2411  -21.1622  -13.7986 C   0  0  1  0  0  0  0  0  0  0  0  0
   23.1286  -22.1153  -13.6546 C   0  0  0  0  0  0  0  0  0  0  0  0
   23.2565  -23.2873  -13.2373 O   0  0  0  0  0  0  0  0  0  0  0  0
   21.8060  -21.6932  -14.0105 N   0  0  0  0  0  0  0  0  0  0  0  0
   20.6697  -22.6065  -13.8402 C   0  0  1  0  0  0  0  0  0  0  0  0
   19.4107  -21.7640  -13.8148 C   0  0  0  0  0  0  0  0  0  0  0  0
   19.4707  -20.8756  -12.5945 C   0  0  0  0  0  0  0  0  0  0  0  0
   18.1760  -20.1390  -12.5090 C   0  0  0  0  0  0  0  0  0  0  0  0
   18.2014  -18.9252  -12.8971 O   0  0  0  0  0  0  0  0  0  0  0  0
   20.6718  -23.5831  -14.9432 C   0  0  0  0  0  0  0  0  0  0  0  0
   21.3323  -23.3309  -15.9848 O   0  0  0  0  0  0  0  0  0  0  0  0
   17.0112  -20.6952  -12.0512 O   0  0  0  0  0  0  0  0  0  0  0  0
   19.9721  -24.7950  -14.9149 O   0  0  0  0  0  0  0  0  0  0  0  0
  2 10  1  0
  2  1  1  1
  3  2  1  0
  4  3  1  0
  4  5  2  0
  6  5  1  0
  7  6  2  0
  8  9  2  0
  8  7  1  0
  9  4  1  0
 10 12  1  0
 11 10  2  0
 12 13  1  0
 12 16  1  0
 13 14  1  0
 14 15  1  0
 16 15  1  0
 17 19  1  0
 16 17  1  1
 18 17  2  0
 20 21  1  6
 20 25  1  0
 20 19  1  0
 21 22  1  0
 22 23  1  0
 23 24  2  0
 25 28  1  0
 26 25  2  0
 27 23  1  0
M  END
$$$$
