NSL.pdb
     RDKit          3D

 23 22  0  0  1  0  0  0  0  0999 V2000
   15.1987  -13.2324  -16.3872 N   0  0  0  0  0  0  0  0  0  0  0  0
   16.2855  -13.0525  -15.4943 C   0  0  0  0  0  0  0  0  0  0  0  0
   16.3892  -13.7161  -14.4238 O   0  0  0  0  0  0  0  0  0  0  0  0
   17.3425  -12.0833  -15.7805 C   0  0  0  0  0  0  0  0  0  0  0  0
   17.1516  -11.2547  -17.0218 C   0  0  2  0  0  0  0  0  0  0  0  0
   17.6741  -12.0713  -18.1229 N   0  0  0  0  0  0  0  0  0  0  0  0
   17.9724  -10.0209  -16.8895 C   0  0  0  0  0  0  0  0  0  0  0  0
   19.1743  -10.0153  -17.2174 O   0  0  0  0  0  0  0  0  0  0  0  0
   17.9649   -5.2291  -16.2284 O   0  0  0  0  0  0  0  0  0  0  0  0
   17.3140   -6.4341  -16.0969 C   0  0  0  0  0  0  0  0  0  0  0  0
   18.2363   -7.6012  -16.4062 C   0  0  2  0  0  0  0  0  0  0  0  0
   17.4487   -8.7999  -16.3918 N   0  0  0  0  0  0  0  0  0  0  0  0
   19.3313   -7.6186  -15.4084 C   0  0  0  0  0  0  0  0  0  0  0  0
   19.0967   -8.1542  -14.2986 O   0  0  0  0  0  0  0  0  0  0  0  0
   23.1134   -9.9307  -13.4569 C   0  0  0  0  0  0  0  0  0  0  0  0
   23.6390   -8.9681  -14.4803 C   0  0  1  0  0  0  0  0  0  0  0  0
   24.5909   -9.7749  -15.3667 C   0  0  0  0  0  0  0  0  0  0  0  0
   22.6647   -8.1955  -15.2493 C   0  0  0  0  0  0  0  0  0  0  0  0
   21.7160   -7.2598  -14.6243 C   0  0  2  0  0  0  0  0  0  0  0  0
   20.6121   -7.0711  -15.6321 N   0  0  0  0  0  0  0  0  0  0  0  0
   22.2047   -5.9089  -14.3564 C   0  0  0  0  0  0  0  0  0  0  0  0
   22.9222   -5.6629  -13.3263 O   0  0  0  0  0  0  0  0  0  0  0  0
   21.9563   -4.8171  -15.1601 O   0  0  0  0  0  0  0  0  0  0  0  0
  1  2  1  0
  2  3  2  0
  4  5  1  0
  4  2  1  0
  5  6  1  6
  7 12  1  0
  7  5  1  0
  8  7  2  0
 11 10  1  1
 10  9  1  0
 11 13  1  0
 11 12  1  0
 13 20  1  0
 14 13  2  0
 16 17  1  6
 16 15  1  0
 18 16  1  0
 19 21  1  0
 19 18  1  6
 20 19  1  0
 21 23  1  0
 22 21  2  0
M  END
$$$$
