NSL.pdb
     RDKit          3D

 23 22  0  0  1  0  0  0  0  0999 V2000
   15.5003  -17.0152  -17.3284 N   0  0  0  0  0  0  0  0  0  0  0  0
   15.6239  -16.4196  -16.0474 C   0  0  0  0  0  0  0  0  0  0  0  0
   15.1071  -16.9363  -15.0163 O   0  0  0  0  0  0  0  0  0  0  0  0
   16.3643  -15.1717  -15.8657 C   0  0  0  0  0  0  0  0  0  0  0  0
   17.0102  -14.6082  -17.1022 C   0  0  2  0  0  0  0  0  0  0  0  0
   18.1846  -15.4516  -17.3505 N   0  0  0  0  0  0  0  0  0  0  0  0
   17.4536  -13.2194  -16.8050 C   0  0  0  0  0  0  0  0  0  0  0  0
   18.2395  -12.9871  -15.8668 O   0  0  0  0  0  0  0  0  0  0  0  0
   15.8042   -9.8585  -18.7011 O   0  0  0  0  0  0  0  0  0  0  0  0
   17.1441   -9.8627  -18.3883 C   0  0  0  0  0  0  0  0  0  0  0  0
   17.4362  -10.7705  -17.2056 C   0  0  2  0  0  0  0  0  0  0  0  0
   17.0178  -12.0970  -17.5555 N   0  0  0  0  0  0  0  0  0  0  0  0
   16.7335  -10.2395  -16.0143 C   0  0  0  0  0  0  0  0  0  0  0  0
   15.6986  -10.8390  -15.6358 O   0  0  0  0  0  0  0  0  0  0  0  0
   15.2856   -9.9592  -11.1078 C   0  0  0  0  0  0  0  0  0  0  0  0
   16.5344   -9.2629  -11.5613 C   0  0  1  0  0  0  0  0  0  0  0  0
   17.6215   -9.6521  -10.5566 C   0  0  0  0  0  0  0  0  0  0  0  0
   16.9508   -9.4516  -12.9500 C   0  0  0  0  0  0  0  0  0  0  0  0
   16.4065   -8.6551  -14.0616 C   0  0  2  0  0  0  0  0  0  0  0  0
   17.1570   -9.1071  -15.2873 N   0  0  0  0  0  0  0  0  0  0  0  0
   16.6274   -7.2116  -14.0062 C   0  0  0  0  0  0  0  0  0  0  0  0
   17.6362   -6.6794  -14.5854 O   0  0  0  0  0  0  0  0  0  0  0  0
   15.7987   -6.3212  -13.3581 O   0  0  0  0  0  0  0  0  0  0  0  0
  1  2  1  0
  2  3  2  0
  4  5  1  0
  4  2  1  0
  5  6  1  1
  7 12  1  0
  7  5  1  0
  8  7  2  0
 11 10  1  6
 10  9  1  0
 11 13  1  0
 11 12  1  0
 13 20  1  0
 14 13  2  0
 16 17  1  1
 16 15  1  0
 18 16  1  0
 19 21  1  0
 19 18  1  1
 20 19  1  0
 21 23  1  0
 22 21  2  0
M  END
$$$$
