NSL.pdb
     RDKit          3D

 23 22  0  0  1  0  0  0  0  0999 V2000
   13.5106  -13.5437  -15.7163 N   0  0  0  0  0  0  0  0  0  0  0  0
   13.0627  -13.0065  -14.4827 C   0  0  0  0  0  0  0  0  0  0  0  0
   11.8428  -13.0141  -14.1529 O   0  0  0  0  0  0  0  0  0  0  0  0
   14.0048  -12.4185  -13.5313 C   0  0  0  0  0  0  0  0  0  0  0  0
   15.4551  -12.4731  -13.9281 C   0  0  2  0  0  0  0  0  0  0  0  0
   15.9150  -13.8140  -13.5505 N   0  0  0  0  0  0  0  0  0  0  0  0
   16.1945  -11.4555  -13.1336 C   0  0  0  0  0  0  0  0  0  0  0  0
   16.4945  -11.6692  -11.9435 O   0  0  0  0  0  0  0  0  0  0  0  0
   18.9781   -7.5538  -13.0723 O   0  0  0  0  0  0  0  0  0  0  0  0
   18.2728   -8.5085  -13.7682 C   0  0  0  0  0  0  0  0  0  0  0  0
   17.3025   -9.2513  -12.8654 C   0  0  2  0  0  0  0  0  0  0  0  0
   16.5951  -10.2048  -13.6702 N   0  0  0  0  0  0  0  0  0  0  0  0
   16.4061   -8.2652  -12.2181 C   0  0  0  0  0  0  0  0  0  0  0  0
   15.3960   -7.8898  -12.8603 O   0  0  0  0  0  0  0  0  0  0  0  0
   14.0434   -7.2978   -6.8615 C   0  0  0  0  0  0  0  0  0  0  0  0
   14.1201   -7.0982   -8.3462 C   0  0  1  0  0  0  0  0  0  0  0  0
   13.3443   -5.8115   -8.6382 C   0  0  0  0  0  0  0  0  0  0  0  0
   15.4440   -7.1160   -8.9662 C   0  0  0  0  0  0  0  0  0  0  0  0
   15.6786   -6.7017  -10.3589 C   0  0  2  0  0  0  0  0  0  0  0  0
   16.6217   -7.7275  -10.9317 N   0  0  0  0  0  0  0  0  0  0  0  0
   16.3588   -5.4239  -10.5592 C   0  0  0  0  0  0  0  0  0  0  0  0
   17.6281   -5.3726  -10.7093 O   0  0  0  0  0  0  0  0  0  0  0  0
   15.7222   -4.2026  -10.6121 O   0  0  0  0  0  0  0  0  0  0  0  0
  1  2  1  0
  2  3  2  0
  4  5  1  0
  4  2  1  0
  5  6  1  1
  7 12  1  0
  7  5  1  0
  8  7  2  0
 11 10  1  6
 10  9  1  0
 11 13  1  0
 11 12  1  0
 13 20  1  0
 14 13  2  0
 16 17  1  1
 16 15  1  0
 18 16  1  0
 19 21  1  0
 19 18  1  1
 20 19  1  0
 21 23  1  0
 22 21  2  0
M  END
$$$$
