NSL.pdb
     RDKit          3D

 23 22  0  0  1  0  0  0  0  0999 V2000
   18.7054  -23.2753  -12.6152 N   0  0  0  0  0  0  0  0  0  0  0  0
   19.0421  -22.1857  -13.4579 C   0  0  0  0  0  0  0  0  0  0  0  0
   18.2171  -21.6959  -14.2805 O   0  0  0  0  0  0  0  0  0  0  0  0
   20.3707  -21.5768  -13.4066 C   0  0  0  0  0  0  0  0  0  0  0  0
   21.0828  -21.4481  -14.7258 C   0  0  2  0  0  0  0  0  0  0  0  0
   21.2552  -22.8206  -15.2141 N   0  0  0  0  0  0  0  0  0  0  0  0
   22.4181  -20.8409  -14.4774 C   0  0  0  0  0  0  0  0  0  0  0  0
   22.5204  -19.7168  -13.9503 O   0  0  0  0  0  0  0  0  0  0  0  0
   27.2225  -21.3916  -14.4435 O   0  0  0  0  0  0  0  0  0  0  0  0
   25.9861  -21.8912  -14.7823 C   0  0  0  0  0  0  0  0  0  0  0  0
   24.8965  -20.8477  -14.6033 C   0  0  2  0  0  0  0  0  0  0  0  0
   23.6325  -21.4904  -14.8187 N   0  0  0  0  0  0  0  0  0  0  0  0
   25.1455  -19.7340  -15.5481 C   0  0  0  0  0  0  0  0  0  0  0  0
   24.6580  -19.8301  -16.6999 O   0  0  0  0  0  0  0  0  0  0  0  0
   25.4043  -14.3318  -16.7143 C   0  0  0  0  0  0  0  0  0  0  0  0
   26.6121  -14.9736  -16.0986 C   0  0  1  0  0  0  0  0  0  0  0  0
   27.1959  -13.9356  -15.1371 C   0  0  0  0  0  0  0  0  0  0  0  0
   26.4421  -16.2876  -15.4806 C   0  0  0  0  0  0  0  0  0  0  0  0
   26.1049  -17.4947  -16.2522 C   0  0  2  0  0  0  0  0  0  0  0  0
   25.8942  -18.5813  -15.2300 N   0  0  0  0  0  0  0  0  0  0  0  0
   27.1413  -18.0194  -17.1388 C   0  0  0  0  0  0  0  0  0  0  0  0
   28.0412  -18.8145  -16.6980 O   0  0  0  0  0  0  0  0  0  0  0  0
   27.2388  -17.7263  -18.4820 O   0  0  0  0  0  0  0  0  0  0  0  0
  1  2  1  0
  2  3  2  0
  4  5  1  0
  4  2  1  0
  5  6  1  1
  7 12  1  0
  7  5  1  0
  8  7  2  0
 11 10  1  6
 10  9  1  0
 11 13  1  0
 11 12  1  0
 13 20  1  0
 14 13  2  0
 16 17  1  1
 16 15  1  0
 18 16  1  0
 19 21  1  0
 19 18  1  1
 20 19  1  0
 21 23  1  0
 22 21  2  0
M  END
$$$$
