NSL.pdb
     RDKit          3D

 23 22  0  0  1  0  0  0  0  0999 V2000
   15.5964  -15.4869  -16.3914 N   0  0  0  0  0  0  0  0  0  0  0  0
   16.6293  -15.1507  -15.4798 C   0  0  0  0  0  0  0  0  0  0  0  0
   16.6572  -15.6076  -14.3018 O   0  0  0  0  0  0  0  0  0  0  0  0
   17.7167  -14.2546  -15.8711 C   0  0  0  0  0  0  0  0  0  0  0  0
   17.6629  -13.7385  -17.2834 C   0  0  2  0  0  0  0  0  0  0  0  0
   18.2723  -14.7876  -18.1080 N   0  0  0  0  0  0  0  0  0  0  0  0
   18.4918  -12.5055  -17.3610 C   0  0  0  0  0  0  0  0  0  0  0  0
   19.7156  -12.5718  -17.5848 O   0  0  0  0  0  0  0  0  0  0  0  0
   16.9093   -8.6764  -16.7235 O   0  0  0  0  0  0  0  0  0  0  0  0
   17.8420   -8.8785  -17.7146 C   0  0  0  0  0  0  0  0  0  0  0  0
   18.7644  -10.0390  -17.3821 C   0  0  2  0  0  0  0  0  0  0  0  0
   17.9518  -11.2049  -17.1883 N   0  0  0  0  0  0  0  0  0  0  0  0
   19.5602   -9.6850  -16.1837 C   0  0  0  0  0  0  0  0  0  0  0  0
   19.0924   -9.9989  -15.0629 O   0  0  0  0  0  0  0  0  0  0  0  0
   25.0582  -10.1701  -15.7111 C   0  0  0  0  0  0  0  0  0  0  0  0
   23.5987  -10.1330  -15.3671 C   0  0  1  0  0  0  0  0  0  0  0  0
   23.4442  -10.9742  -14.0978 C   0  0  0  0  0  0  0  0  0  0  0  0
   22.9591   -8.8225  -15.2612 C   0  0  0  0  0  0  0  0  0  0  0  0
   21.5282   -8.6551  -14.9602 C   0  0  2  0  0  0  0  0  0  0  0  0
   20.8035   -9.0198  -16.2297 N   0  0  0  0  0  0  0  0  0  0  0  0
   21.0747   -7.3001  -14.6539 C   0  0  0  0  0  0  0  0  0  0  0  0
   20.5600   -6.5595  -15.5611 O   0  0  0  0  0  0  0  0  0  0  0  0
   21.1476   -6.7176  -13.4069 O   0  0  0  0  0  0  0  0  0  0  0  0
  1  2  1  0
  2  3  2  0
  4  5  1  0
  4  2  1  0
  5  6  1  6
  7 12  1  0
  7  5  1  0
  8  7  2  0
 11 10  1  1
 10  9  1  0
 11 13  1  0
 11 12  1  0
 13 20  1  0
 14 13  2  0
 16 17  1  1
 16 15  1  0
 18 16  1  0
 19 21  1  0
 19 18  1  6
 20 19  1  0
 21 23  1  0
 22 21  2  0
M  END
$$$$
