NSL.pdb
     RDKit          3D

 23 22  0  0  1  0  0  0  0  0999 V2000
   18.5348  -20.8974  -12.5308 N   0  0  0  0  0  0  0  0  0  0  0  0
   19.1249  -19.6540  -12.1893 C   0  0  0  0  0  0  0  0  0  0  0  0
   18.4489  -18.7033  -11.7034 O   0  0  0  0  0  0  0  0  0  0  0  0
   20.5551  -19.4203  -12.3854 C   0  0  0  0  0  0  0  0  0  0  0  0
   21.3292  -20.5645  -12.9818 C   0  0  2  0  0  0  0  0  0  0  0  0
   21.1360  -21.6907  -12.0618 N   0  0  0  0  0  0  0  0  0  0  0  0
   22.7688  -20.1898  -13.0082 C   0  0  0  0  0  0  0  0  0  0  0  0
   23.1435  -19.1321  -13.5494 O   0  0  0  0  0  0  0  0  0  0  0  0
   25.7029  -22.7964  -11.6262 O   0  0  0  0  0  0  0  0  0  0  0  0
   25.9689  -21.4472  -11.5823 C   0  0  0  0  0  0  0  0  0  0  0  0
   25.1699  -20.6884  -12.6282 C   0  0  2  0  0  0  0  0  0  0  0  0
   23.7831  -20.9969  -12.4313 N   0  0  0  0  0  0  0  0  0  0  0  0
   25.6610  -21.0725  -13.9721 C   0  0  0  0  0  0  0  0  0  0  0  0
   25.0357  -21.9721  -14.5832 O   0  0  0  0  0  0  0  0  0  0  0  0
   24.1485  -19.5551  -18.5644 C   0  0  0  0  0  0  0  0  0  0  0  0
   25.2704  -20.3713  -17.9943 C   0  0  1  0  0  0  0  0  0  0  0  0
   26.3358  -20.4458  -19.0907 C   0  0  0  0  0  0  0  0  0  0  0  0
   25.8155  -19.9657  -16.6997 C   0  0  0  0  0  0  0  0  0  0  0  0
   26.9844  -20.6169  -16.0867 C   0  0  2  0  0  0  0  0  0  0  0  0
   26.7828  -20.4904  -14.5990 N   0  0  0  0  0  0  0  0  0  0  0  0
   28.2861  -20.0009  -16.3354 C   0  0  0  0  0  0  0  0  0  0  0  0
   28.6353  -18.9343  -15.7215 O   0  0  0  0  0  0  0  0  0  0  0  0
   29.2267  -20.4952  -17.2131 O   0  0  0  0  0  0  0  0  0  0  0  0
  1  2  1  0
  2  3  2  0
  4  5  1  0
  4  2  1  0
  5  6  1  1
  7 12  1  0
  7  5  1  0
  8  7  2  0
 11 10  1  1
 10  9  1  0
 11 13  1  0
 11 12  1  0
 13 20  1  0
 14 13  2  0
 16 17  1  6
 16 15  1  0
 18 16  1  0
 19 21  1  0
 19 18  1  6
 20 19  1  0
 21 23  1  0
 22 21  2  0
M  END
$$$$
