NSL.pdb
     RDKit          3D

 23 22  0  0  1  0  0  0  0  0999 V2000
   18.5411  -12.8204  -16.7468 N   0  0  0  0  0  0  0  0  0  0  0  0
   18.8600  -11.7408  -17.6092 C   0  0  0  0  0  0  0  0  0  0  0  0
   19.1619  -11.9204  -18.8231 O   0  0  0  0  0  0  0  0  0  0  0  0
   18.8495  -10.3613  -17.1239 C   0  0  0  0  0  0  0  0  0  0  0  0
   18.4586  -10.1778  -15.6826 C   0  0  2  0  0  0  0  0  0  0  0  0
   17.0092  -10.3999  -15.6378 N   0  0  0  0  0  0  0  0  0  0  0  0
   18.7549   -8.7724  -15.2945 C   0  0  0  0  0  0  0  0  0  0  0  0
   17.9276   -7.8645  -15.5026 O   0  0  0  0  0  0  0  0  0  0  0  0
   20.9620   -7.3590  -12.1092 O   0  0  0  0  0  0  0  0  0  0  0  0
   21.3777   -6.9725  -13.3626 C   0  0  0  0  0  0  0  0  0  0  0  0
   20.2359   -7.0120  -14.3641 C   0  0  2  0  0  0  0  0  0  0  0  0
   19.9726   -8.3867  -14.6768 N   0  0  0  0  0  0  0  0  0  0  0  0
   20.6181   -6.2134  -15.5519 C   0  0  0  0  0  0  0  0  0  0  0  0
   20.8367   -6.8318  -16.6212 O   0  0  0  0  0  0  0  0  0  0  0  0
   20.9360   -4.2125  -20.0825 C   0  0  0  0  0  0  0  0  0  0  0  0
   19.9181   -3.7488  -19.0831 C   0  0  1  0  0  0  0  0  0  0  0  0
   18.5544   -3.9437  -19.7503 C   0  0  0  0  0  0  0  0  0  0  0  0
   19.9787   -4.3184  -17.7380 C   0  0  0  0  0  0  0  0  0  0  0  0
   21.0968   -4.0669  -16.8145 C   0  0  2  0  0  0  0  0  0  0  0  0
   20.7504   -4.8087  -15.5498 N   0  0  0  0  0  0  0  0  0  0  0  0
   21.2982   -2.6841  -16.3867 C   0  0  0  0  0  0  0  0  0  0  0  0
   20.6756   -2.2136  -15.3732 O   0  0  0  0  0  0  0  0  0  0  0  0
   22.1501   -1.7940  -17.0044 O   0  0  0  0  0  0  0  0  0  0  0  0
  1  2  1  0
  2  3  2  0
  4  5  1  0
  4  2  1  0
  5  6  1  6
  7 12  1  0
  7  5  1  0
  8  7  2  0
 11 10  1  1
 10  9  1  0
 11 13  1  0
 11 12  1  0
 13 20  1  0
 14 13  2  0
 16 17  1  6
 16 15  1  0
 18 16  1  0
 19 21  1  0
 19 18  1  6
 20 19  1  0
 21 23  1  0
 22 21  2  0
M  END
$$$$
