NSL.pdb
     RDKit          3D

 23 22  0  0  1  0  0  0  0  0999 V2000
   17.0519  -14.3845  -18.3008 N   0  0  0  0  0  0  0  0  0  0  0  0
   17.7379  -13.9436  -17.1406 C   0  0  0  0  0  0  0  0  0  0  0  0
   17.6231  -14.5352  -16.0298 O   0  0  0  0  0  0  0  0  0  0  0  0
   18.6171  -12.7758  -17.1841 C   0  0  0  0  0  0  0  0  0  0  0  0
   18.6735  -12.0480  -18.4997 C   0  0  2  0  0  0  0  0  0  0  0  0
   19.6099  -12.8123  -19.3311 N   0  0  0  0  0  0  0  0  0  0  0  0
   19.2256  -10.6880  -18.2568 C   0  0  0  0  0  0  0  0  0  0  0  0
   20.4548  -10.5033  -18.1737 O   0  0  0  0  0  0  0  0  0  0  0  0
   18.3345   -5.9559  -17.6592 O   0  0  0  0  0  0  0  0  0  0  0  0
   17.8551   -7.2318  -17.8468 C   0  0  0  0  0  0  0  0  0  0  0  0
   18.9778   -8.2554  -17.8335 C   0  0  2  0  0  0  0  0  0  0  0  0
   18.4040   -9.5410  -18.1075 N   0  0  0  0  0  0  0  0  0  0  0  0
   19.6590   -8.1962  -16.5192 C   0  0  0  0  0  0  0  0  0  0  0  0
   19.3641   -9.0736  -15.6726 O   0  0  0  0  0  0  0  0  0  0  0  0
   22.4942   -9.5016  -12.6838 C   0  0  0  0  0  0  0  0  0  0  0  0
   23.1238   -8.9332  -13.9208 C   0  0  1  0  0  0  0  0  0  0  0  0
   24.1426   -9.9744  -14.3907 C   0  0  0  0  0  0  0  0  0  0  0  0
   22.2342   -8.4858  -14.9913 C   0  0  0  0  0  0  0  0  0  0  0  0
   21.3617   -7.3074  -14.8635 C   0  0  2  0  0  0  0  0  0  0  0  0
   20.6119   -7.2172  -16.1672 N   0  0  0  0  0  0  0  0  0  0  0  0
   22.0228   -6.0111  -14.7287 C   0  0  0  0  0  0  0  0  0  0  0  0
   22.3421   -5.3268  -15.7613 O   0  0  0  0  0  0  0  0  0  0  0  0
   22.3444   -5.4222  -13.5248 O   0  0  0  0  0  0  0  0  0  0  0  0
  1  2  1  0
  2  3  2  0
  4  5  1  0
  4  2  1  0
  5  6  1  6
  7 12  1  0
  7  5  1  0
  8  7  2  0
 11 10  1  1
 10  9  1  0
 11 13  1  0
 11 12  1  0
 13 20  1  0
 14 13  2  0
 16 17  1  6
 16 15  1  0
 18 16  1  0
 19 21  1  0
 19 18  1  6
 20 19  1  0
 21 23  1  0
 22 21  2  0
M  END
$$$$
