NSL.pdb
     RDKit          3D

 23 22  0  0  1  0  0  0  0  0999 V2000
   17.3045  -13.8367  -18.1900 N   0  0  0  0  0  0  0  0  0  0  0  0
   17.1032  -12.7675  -19.0994 C   0  0  0  0  0  0  0  0  0  0  0  0
   16.8253  -12.9669  -20.3160 O   0  0  0  0  0  0  0  0  0  0  0  0
   17.2075  -11.3763  -18.6609 C   0  0  0  0  0  0  0  0  0  0  0  0
   17.5686  -11.1716  -17.2146 C   0  0  2  0  0  0  0  0  0  0  0  0
   16.3103  -11.3087  -16.4729 N   0  0  0  0  0  0  0  0  0  0  0  0
   18.0873   -9.7863  -17.0552 C   0  0  0  0  0  0  0  0  0  0  0  0
   19.2684   -9.5101  -17.3391 O   0  0  0  0  0  0  0  0  0  0  0  0
   17.2182   -5.2503  -15.5583 O   0  0  0  0  0  0  0  0  0  0  0  0
   16.7520   -6.5203  -15.8091 C   0  0  0  0  0  0  0  0  0  0  0  0
   17.8652   -7.4372  -16.2868 C   0  0  2  0  0  0  0  0  0  0  0  0
   17.2862   -8.7164  -16.5795 N   0  0  0  0  0  0  0  0  0  0  0  0
   18.9093   -7.5033  -15.2378 C   0  0  0  0  0  0  0  0  0  0  0  0
   18.8197   -8.4205  -14.3868 O   0  0  0  0  0  0  0  0  0  0  0  0
   22.7183   -9.1685  -12.4666 C   0  0  0  0  0  0  0  0  0  0  0  0
   22.9311   -8.5825  -13.8309 C   0  0  1  0  0  0  0  0  0  0  0  0
   23.6742   -9.6509  -14.6364 C   0  0  0  0  0  0  0  0  0  0  0  0
   21.7626   -8.0530  -14.5323 C   0  0  0  0  0  0  0  0  0  0  0  0
   21.0809   -6.8139  -14.1246 C   0  0  2  0  0  0  0  0  0  0  0  0
   19.9893   -6.6008  -15.1408 N   0  0  0  0  0  0  0  0  0  0  0  0
   21.8696   -5.5845  -14.1682 C   0  0  0  0  0  0  0  0  0  0  0  0
   21.8827   -4.8500  -15.2155 O   0  0  0  0  0  0  0  0  0  0  0  0
   22.6366   -5.1137  -13.1243 O   0  0  0  0  0  0  0  0  0  0  0  0
  1  2  1  0
  2  3  2  0
  4  5  1  0
  4  2  1  0
  5  6  1  1
  7 12  1  0
  7  5  1  0
  8  7  2  0
 11 10  1  1
 10  9  1  0
 11 13  1  0
 11 12  1  0
 13 20  1  0
 14 13  2  0
 16 17  1  6
 16 15  1  0
 18 16  1  0
 19 21  1  0
 19 18  1  6
 20 19  1  0
 21 23  1  0
 22 21  2  0
M  END
$$$$
