APH.pdb
     RDKit          3D

 23 24  0  0  1  0  0  0  0  0999 V2000
    7.1529  -17.4968   18.1182 C   0  0  0  0  0  0  0  0  0  0  0  0
    8.2177  -16.4835   17.7219 C   0  0  2  0  0  0  0  0  0  0  0  0
    9.1160  -17.1290   16.8260 N   0  0  0  0  0  0  0  0  0  0  0  0
    8.8654  -15.8787   18.8862 C   0  0  0  0  0  0  0  0  0  0  0  0
    9.9610  -16.3874   19.2583 O   0  0  0  0  0  0  0  0  0  0  0  0
    8.3297  -14.7992   19.5711 N   0  0  0  0  0  0  0  0  0  0  0  0
    7.0935  -14.1005   19.1699 C   0  0  0  0  0  0  0  0  0  0  0  0
    7.4606  -12.6585   19.5577 C   0  0  0  0  0  0  0  0  0  0  0  0
    7.9314  -12.9314   20.9931 C   0  0  0  0  0  0  0  0  0  0  0  0
    8.8267  -14.1603   20.7515 C   0  0  1  0  0  0  0  0  0  0  0  0
    8.5968  -15.0073   21.9778 C   0  0  0  0  0  0  0  0  0  0  0  0
    7.4539  -15.4340   22.2845 O   0  0  0  0  0  0  0  0  0  0  0  0
    9.6628  -15.3597   22.8395 N   0  0  0  0  0  0  0  0  0  0  0  0
    9.4990  -16.0873   24.0797 C   0  0  1  0  0  0  0  0  0  0  0  0
    9.4986  -17.5525   23.7074 C   0  0  0  0  0  0  0  0  0  0  0  0
   10.7333  -18.0238   23.0822 C   0  0  0  0  0  0  0  0  0  0  0  0
   11.6180  -17.3563   22.2648 C   0  0  0  0  0  0  0  0  0  0  0  0
   12.6229  -18.2058   21.9199 N   0  0  0  0  0  0  0  0  0  0  0  0
   12.3709  -19.3855   22.5116 C   0  0  0  0  0  0  0  0  0  0  0  0
   11.2379  -19.2741   23.2077 N   0  0  0  0  0  0  0  0  0  0  0  0
   10.5815  -15.8478   25.0338 C   0  0  0  0  0  0  0  0  0  0  0  0
   10.6051  -16.3102   26.3328 O   0  0  0  0  0  0  0  0  0  0  0  0
   11.5734  -15.1654   24.6444 O   0  0  0  0  0  0  0  0  0  0  0  0
  2  3  1  0
  2  1  1  1
  4  2  1  0
  5  4  2  0
  6  4  1  0
  7  6  1  0
  8  7  1  0
  9  8  1  0
  9 10  1  0
 10 11  1  1
 10  6  1  0
 11 13  1  0
 12 11  2  0
 13 14  1  0
 14 15  1  6
 14 21  1  0
 16 15  1  0
 17 16  2  0
 18 17  1  0
 19 18  1  0
 19 20  2  0
 20 16  1  0
 21 23  2  0
 21 22  1  0
M  END
$$$$
