APH.pdb
     RDKit          3D

 23 24  0  0  1  0  0  0  0  0999 V2000
    5.0551  -17.0561   21.7163 C   0  0  0  0  0  0  0  0  0  0  0  0
    5.7004  -17.1358   20.3397 C   0  0  2  0  0  0  0  0  0  0  0  0
    5.4637  -18.4424   19.8269 N   0  0  0  0  0  0  0  0  0  0  0  0
    7.1116  -16.7506   20.3679 C   0  0  0  0  0  0  0  0  0  0  0  0
    7.9525  -17.6766   20.5494 O   0  0  0  0  0  0  0  0  0  0  0  0
    7.5395  -15.4420   20.2068 N   0  0  0  0  0  0  0  0  0  0  0  0
    6.6323  -14.3013   19.9758 C   0  0  0  0  0  0  0  0  0  0  0  0
    7.4956  -13.4587   19.0223 C   0  0  0  0  0  0  0  0  0  0  0  0
    8.7876  -13.4457   19.8514 C   0  0  0  0  0  0  0  0  0  0  0  0
    8.8779  -14.9355   20.2286 C   0  0  1  0  0  0  0  0  0  0  0  0
    9.4367  -14.9087   21.6290 C   0  0  0  0  0  0  0  0  0  0  0  0
    9.0726  -14.0489   22.4721 O   0  0  0  0  0  0  0  0  0  0  0  0
   10.3991  -15.8544   22.0558 N   0  0  0  0  0  0  0  0  0  0  0  0
   11.0830  -15.7999   23.3302 C   0  0  1  0  0  0  0  0  0  0  0  0
   10.4062  -16.8248   24.2115 C   0  0  0  0  0  0  0  0  0  0  0  0
    8.9763  -16.6022   24.4194 C   0  0  0  0  0  0  0  0  0  0  0  0
    8.3299  -15.5799   25.0778 C   0  0  0  0  0  0  0  0  0  0  0  0
    6.9886  -15.7987   25.0178 N   0  0  0  0  0  0  0  0  0  0  0  0
    6.7990  -16.9392   24.3334 C   0  0  0  0  0  0  0  0  0  0  0  0
    7.9917  -17.4191   23.9757 N   0  0  0  0  0  0  0  0  0  0  0  0
   12.5044  -16.1315   23.2342 C   0  0  0  0  0  0  0  0  0  0  0  0
   13.4111  -16.0246   24.2677 O   0  0  0  0  0  0  0  0  0  0  0  0
   12.9412  -16.5478   22.1220 O   0  0  0  0  0  0  0  0  0  0  0  0
  2  3  1  0
  2  1  1  1
  4  2  1  0
  5  4  2  0
  6  4  1  0
  7  6  1  0
  8  7  1  0
  9  8  1  0
  9 10  1  0
 10 11  1  1
 10  6  1  0
 11 13  1  0
 12 11  2  0
 13 14  1  0
 14 15  1  1
 14 21  1  0
 16 15  1  0
 17 16  2  0
 18 17  1  0
 19 18  1  0
 19 20  2  0
 20 16  1  0
 21 23  2  0
 21 22  1  0
M  END
$$$$
