APH.pdb
     RDKit          3D

 23 24  0  0  1  0  0  0  0  0999 V2000
    6.4807  -16.6270   20.4678 C   0  0  0  0  0  0  0  0  0  0  0  0
    7.5223  -15.5601   20.1604 C   0  0  2  0  0  0  0  0  0  0  0  0
    8.1140  -15.8828   18.9066 N   0  0  0  0  0  0  0  0  0  0  0  0
    8.4837  -15.3959   21.2511 C   0  0  0  0  0  0  0  0  0  0  0  0
    9.6301  -15.9006   21.0823 O   0  0  0  0  0  0  0  0  0  0  0  0
    8.1834  -14.7250   22.4263 N   0  0  0  0  0  0  0  0  0  0  0  0
    6.9080  -14.0247   22.6722 C   0  0  0  0  0  0  0  0  0  0  0  0
    7.4105  -12.8326   23.5033 C   0  0  0  0  0  0  0  0  0  0  0  0
    8.2360  -13.6167   24.5330 C   0  0  0  0  0  0  0  0  0  0  0  0
    8.9955  -14.5722   23.5949 C   0  0  1  0  0  0  0  0  0  0  0  0
    9.0721  -15.8531   24.3870 C   0  0  0  0  0  0  0  0  0  0  0  0
    8.0606  -16.5762   24.5782 O   0  0  0  0  0  0  0  0  0  0  0  0
   10.2913  -16.2978   24.9516 N   0  0  0  0  0  0  0  0  0  0  0  0
   10.4371  -17.5214   25.7106 C   0  0  1  0  0  0  0  0  0  0  0  0
   11.9183  -17.8228   25.7363 C   0  0  0  0  0  0  0  0  0  0  0  0
   12.2900  -18.9895   26.5350 C   0  0  0  0  0  0  0  0  0  0  0  0
   11.4956  -19.8581   27.2497 C   0  0  0  0  0  0  0  0  0  0  0  0
   12.2883  -20.7921   27.8409 N   0  0  0  0  0  0  0  0  0  0  0  0
   13.5579  -20.5125   27.5018 C   0  0  0  0  0  0  0  0  0  0  0  0
   13.5566  -19.4317   26.7191 N   0  0  0  0  0  0  0  0  0  0  0  0
    9.9602  -17.4034   27.0883 C   0  0  0  0  0  0  0  0  0  0  0  0
    9.5956  -18.4640   27.8907 O   0  0  0  0  0  0  0  0  0  0  0  0
    9.8729  -16.2437   27.5871 O   0  0  0  0  0  0  0  0  0  0  0  0
  2  3  1  0
  2  1  1  1
  4  2  1  0
  5  4  2  0
  6  4  1  0
  7  6  1  0
  8  7  1  0
  9  8  1  0
  9 10  1  0
 10 11  1  1
 10  6  1  0
 11 13  1  0
 12 11  2  0
 13 14  1  0
 14 15  1  1
 14 21  1  0
 16 15  1  0
 17 16  2  0
 18 17  1  0
 19 18  1  0
 19 20  2  0
 20 16  1  0
 21 23  2  0
 21 22  1  0
M  END
$$$$
