APH.pdb
     RDKit          3D

 23 24  0  0  1  0  0  0  0  0999 V2000
   10.1513  -12.9785   19.3647 C   0  0  0  0  0  0  0  0  0  0  0  0
    8.7758  -13.5773   19.1053 C   0  0  2  0  0  0  0  0  0  0  0  0
    7.9113  -12.5180   18.7096 N   0  0  0  0  0  0  0  0  0  0  0  0
    8.2875  -14.3540   20.2452 C   0  0  0  0  0  0  0  0  0  0  0  0
    7.5612  -13.7452   21.0815 O   0  0  0  0  0  0  0  0  0  0  0  0
    8.5886  -15.6945   20.4287 N   0  0  0  0  0  0  0  0  0  0  0  0
    9.3673  -16.5026   19.4705 C   0  0  0  0  0  0  0  0  0  0  0  0
    8.6521  -17.8560   19.6150 C   0  0  0  0  0  0  0  0  0  0  0  0
    8.6935  -17.9625   21.1459 C   0  0  0  0  0  0  0  0  0  0  0  0
    8.2332  -16.5432   21.5250 C   0  0  1  0  0  0  0  0  0  0  0  0
    9.0467  -16.2283   22.7551 C   0  0  0  0  0  0  0  0  0  0  0  0
   10.1821  -15.6920   22.6800 O   0  0  0  0  0  0  0  0  0  0  0  0
    8.5646  -16.5244   24.0523 N   0  0  0  0  0  0  0  0  0  0  0  0
    9.2831  -16.2298   25.2736 C   0  0  1  0  0  0  0  0  0  0  0  0
    8.2397  -15.7956   26.2776 C   0  0  0  0  0  0  0  0  0  0  0  0
    7.5296  -14.5667   25.9271 C   0  0  0  0  0  0  0  0  0  0  0  0
    7.9775  -13.4501   25.2570 C   0  0  0  0  0  0  0  0  0  0  0  0
    6.9586  -12.5532   25.1691 N   0  0  0  0  0  0  0  0  0  0  0  0
    5.8907  -13.0995   25.7743 C   0  0  0  0  0  0  0  0  0  0  0  0
    6.2352  -14.3063   26.2280 N   0  0  0  0  0  0  0  0  0  0  0  0
    9.9981  -17.3863   25.8129 C   0  0  0  0  0  0  0  0  0  0  0  0
   10.9896  -17.3253   26.7693 O   0  0  0  0  0  0  0  0  0  0  0  0
    9.6885  -18.5316   25.3726 O   0  0  0  0  0  0  0  0  0  0  0  0
  2  3  1  0
  2  1  1  1
  4  2  1  0
  5  4  2  0
  6  4  1  0
  7  6  1  0
  8  7  1  0
  9  8  1  0
  9 10  1  0
 10 11  1  1
 10  6  1  0
 11 13  1  0
 12 11  2  0
 13 14  1  0
 14 15  1  1
 14 21  1  0
 16 15  1  0
 17 16  2  0
 18 17  1  0
 19 18  1  0
 19 20  2  0
 20 16  1  0
 21 23  2  0
 21 22  1  0
M  END
$$$$
