APH.pdb
     RDKit          3D

 23 24  0  0  1  0  0  0  0  0999 V2000
    6.8347  -17.8939   19.4194 C   0  0  0  0  0  0  0  0  0  0  0  0
    7.6273  -17.1561   18.3493 C   0  0  2  0  0  0  0  0  0  0  0  0
    8.0960  -18.1229   17.4155 N   0  0  0  0  0  0  0  0  0  0  0  0
    8.6807  -16.3173   18.9217 C   0  0  0  0  0  0  0  0  0  0  0  0
    9.8232  -16.8429   19.0485 O   0  0  0  0  0  0  0  0  0  0  0  0
    8.4690  -15.0055   19.3165 N   0  0  0  0  0  0  0  0  0  0  0  0
    7.1540  -14.3369   19.2820 C   0  0  0  0  0  0  0  0  0  0  0  0
    7.5857  -12.9122   18.8971 C   0  0  0  0  0  0  0  0  0  0  0  0
    8.6802  -12.7219   19.9565 C   0  0  0  0  0  0  0  0  0  0  0  0
    9.4227  -14.0632   19.8174 C   0  0  1  0  0  0  0  0  0  0  0  0
    9.8293  -14.3867   21.2332 C   0  0  0  0  0  0  0  0  0  0  0  0
    9.5635  -13.6169   22.1919 O   0  0  0  0  0  0  0  0  0  0  0  0
   10.5304  -15.5760   21.5442 N   0  0  0  0  0  0  0  0  0  0  0  0
   10.9732  -15.9343   22.8747 C   0  0  1  0  0  0  0  0  0  0  0  0
   10.0817  -17.0713   23.3194 C   0  0  0  0  0  0  0  0  0  0  0  0
    8.6573  -16.7461   23.3703 C   0  0  0  0  0  0  0  0  0  0  0  0
    8.0333  -15.5725   23.7301 C   0  0  0  0  0  0  0  0  0  0  0  0
    6.6875  -15.7421   23.6283 N   0  0  0  0  0  0  0  0  0  0  0  0
    6.4729  -17.0014   23.2118 C   0  0  0  0  0  0  0  0  0  0  0  0
    7.6549  -17.6013   23.0579 N   0  0  0  0  0  0  0  0  0  0  0  0
   12.3635  -16.3870   22.9152 C   0  0  0  0  0  0  0  0  0  0  0  0
   13.1521  -16.6140   21.8070 O   0  0  0  0  0  0  0  0  0  0  0  0
   12.8877  -16.5878   24.0493 O   0  0  0  0  0  0  0  0  0  0  0  0
  2  3  1  0
  2  1  1  1
  4  2  1  0
  5  4  2  0
  6  4  1  0
  7  6  1  0
  8  7  1  0
  9  8  1  0
  9 10  1  0
 10 11  1  1
 10  6  1  0
 11 13  1  0
 12 11  2  0
 13 14  1  0
 14 15  1  6
 14 21  1  0
 16 15  1  0
 17 16  2  0
 18 17  1  0
 19 18  1  0
 19 20  2  0
 20 16  1  0
 21 23  2  0
 21 22  1  0
M  END
$$$$
