APH.pdb
     RDKit          3D

 23 24  0  0  1  0  0  0  0  0999 V2000
    6.1269  -17.9126   19.5003 C   0  0  0  0  0  0  0  0  0  0  0  0
    7.2487  -17.1788   18.7785 C   0  0  2  0  0  0  0  0  0  0  0  0
    7.9119  -18.1201   17.9416 N   0  0  0  0  0  0  0  0  0  0  0  0
    8.1344  -16.4743   19.7058 C   0  0  0  0  0  0  0  0  0  0  0  0
    9.1456  -17.1081   20.1220 O   0  0  0  0  0  0  0  0  0  0  0  0
    7.9042  -15.1742   20.1277 N   0  0  0  0  0  0  0  0  0  0  0  0
    6.7718  -14.3473   19.6678 C   0  0  0  0  0  0  0  0  0  0  0  0
    7.4449  -12.9653   19.6294 C   0  0  0  0  0  0  0  0  0  0  0  0
    8.0533  -12.9794   21.0387 C   0  0  0  0  0  0  0  0  0  0  0  0
    8.6681  -14.3907   21.0502 C   0  0  1  0  0  0  0  0  0  0  0  0
    8.4610  -14.8511   22.4712 C   0  0  0  0  0  0  0  0  0  0  0  0
    7.3899  -14.6272   23.0916 O   0  0  0  0  0  0  0  0  0  0  0  0
    9.4683  -15.5581   23.1702 N   0  0  0  0  0  0  0  0  0  0  0  0
    9.4120  -15.8695   24.5824 C   0  0  1  0  0  0  0  0  0  0  0  0
    9.1209  -17.3502   24.6722 C   0  0  0  0  0  0  0  0  0  0  0  0
    7.8742  -17.7671   24.0325 C   0  0  0  0  0  0  0  0  0  0  0  0
    6.6025  -17.2550   24.1623 C   0  0  0  0  0  0  0  0  0  0  0  0
    5.7580  -17.9726   23.3735 N   0  0  0  0  0  0  0  0  0  0  0  0
    6.4893  -18.9183   22.7603 C   0  0  0  0  0  0  0  0  0  0  0  0
    7.7573  -18.7934   23.1567 N   0  0  0  0  0  0  0  0  0  0  0  0
   10.6675  -15.5967   25.2816 C   0  0  0  0  0  0  0  0  0  0  0  0
   11.8318  -15.1729   24.6763 O   0  0  0  0  0  0  0  0  0  0  0  0
   10.6939  -15.7604   26.5361 O   0  0  0  0  0  0  0  0  0  0  0  0
  2  3  1  0
  2  1  1  1
  4  2  1  0
  5  4  2  0
  6  4  1  0
  7  6  1  0
  8  7  1  0
  9  8  1  0
  9 10  1  0
 10 11  1  1
 10  6  1  0
 11 13  1  0
 12 11  2  0
 13 14  1  0
 14 15  1  6
 14 21  1  0
 16 15  1  0
 17 16  2  0
 18 17  1  0
 19 18  1  0
 19 20  2  0
 20 16  1  0
 21 23  2  0
 21 22  1  0
M  END
$$$$
