DFA.pdb
     RDKit          3D

 25 25  0  0  1  0  0  0  0  0999 V2000
   23.4500  -14.7369  -18.2783 N   0  0  0  0  0  0  0  0  0  0  0  0
   22.9948  -13.4170  -18.7669 C   0  0  1  0  0  0  0  0  0  0  0  0
   21.5348  -13.5336  -19.1078 C   0  0  0  0  0  0  0  0  0  0  0  0
   21.2870  -14.4376  -20.2262 C   0  0  0  0  0  0  0  0  0  0  0  0
   20.7378  -15.5443  -20.0040 O   0  0  0  0  0  0  0  0  0  0  0  0
   23.2189  -12.3971  -17.7583 C   0  0  0  0  0  0  0  0  0  0  0  0
   22.9322  -12.6422  -16.5441 O   0  0  0  0  0  0  0  0  0  0  0  0
   21.6483  -14.0945  -21.5273 O   0  0  0  0  0  0  0  0  0  0  0  0
   23.7494  -11.1141  -17.9967 N   0  0  0  0  0  0  0  0  0  0  0  0
   24.0250  -10.1853  -16.8884 C   0  0  1  0  0  0  0  0  0  0  0  0
   25.4405   -9.7005  -17.0720 C   0  0  0  0  0  0  0  0  0  0  0  0
   26.4661  -10.7158  -16.8584 C   0  0  0  0  0  0  0  0  0  0  0  0
   27.1949  -11.1344  -17.9743 C   0  0  0  0  0  0  0  0  0  0  0  0
   28.1872  -12.0905  -17.8782 C   0  0  0  0  0  0  0  0  0  0  0  0
   28.4911  -12.6664  -16.6645 C   0  0  0  0  0  0  0  0  0  0  0  0
   27.7780  -12.2596  -15.5616 C   0  0  0  0  0  0  0  0  0  0  0  0
   26.7919  -11.3046  -15.6773 C   0  0  0  0  0  0  0  0  0  0  0  0
   23.1532   -9.0194  -17.0776 C   0  0  0  0  0  0  0  0  0  0  0  0
   23.0236   -8.3539  -18.1207 O   0  0  0  0  0  0  0  0  0  0  0  0
   20.5308   -7.6475  -14.8360 C   0  0  0  0  0  0  0  0  0  0  0  0
   21.4432   -7.5632  -16.0565 C   0  0  2  0  0  0  0  0  0  0  0  0
   22.3857   -8.6347  -15.9215 N   0  0  0  0  0  0  0  0  0  0  0  0
   22.0686   -6.2370  -16.0465 C   0  0  0  0  0  0  0  0  0  0  0  0
   21.3864   -5.0866  -16.3959 O   0  0  0  0  0  0  0  0  0  0  0  0
   23.2697   -6.1270  -15.7096 O   0  0  0  0  0  0  0  0  0  0  0  0
  2  3  1  0
  2  1  1  1
  3  4  1  0
  4  8  1  0
  4  5  2  0
  6  2  1  0
  7  6  2  0
  9  6  1  0
 10  9  1  0
 10 11  1  6
 11 12  1  0
 12 13  2  0
 13 14  1  0
 15 14  2  0
 16 15  1  0
 17 12  1  0
 17 16  2  0
 18 22  1  0
 18 10  1  0
 19 18  2  0
 21 20  1  1
 21 23  1  0
 21 22  1  0
 23 24  1  0
 25 23  2  0
M  END
$$$$
