DFA.pdb
     RDKit          3D

 25 25  0  0  1  0  0  0  0  0999 V2000
   22.2417  -12.5531  -18.3429 N   0  0  0  0  0  0  0  0  0  0  0  0
   21.9551  -11.1100  -18.4966 C   0  0  1  0  0  0  0  0  0  0  0  0
   20.4642  -10.9488  -18.6090 C   0  0  0  0  0  0  0  0  0  0  0  0
   19.9262  -11.5190  -19.8397 C   0  0  0  0  0  0  0  0  0  0  0  0
   20.6794  -11.6341  -20.8372 O   0  0  0  0  0  0  0  0  0  0  0  0
   22.4805  -10.3646  -17.3669 C   0  0  0  0  0  0  0  0  0  0  0  0
   22.3321  -10.8222  -16.1901 O   0  0  0  0  0  0  0  0  0  0  0  0
   18.5990  -11.9342  -19.9246 O   0  0  0  0  0  0  0  0  0  0  0  0
   23.1717   -9.1397  -17.4459 N   0  0  0  0  0  0  0  0  0  0  0  0
   23.5947   -8.4235  -16.2314 C   0  0  1  0  0  0  0  0  0  0  0  0
   25.0689   -8.1477  -16.3832 C   0  0  0  0  0  0  0  0  0  0  0  0
   25.9142   -9.3365  -16.3978 C   0  0  0  0  0  0  0  0  0  0  0  0
   26.2438   -9.9031  -15.1641 C   0  0  0  0  0  0  0  0  0  0  0  0
   27.0383  -11.0291  -15.0696 C   0  0  0  0  0  0  0  0  0  0  0  0
   27.5351  -11.6339  -16.2030 C   0  0  0  0  0  0  0  0  0  0  0  0
   27.2153  -11.0820  -17.4210 C   0  0  0  0  0  0  0  0  0  0  0  0
   26.4213   -9.9587  -17.4950 C   0  0  0  0  0  0  0  0  0  0  0  0
   22.9194   -7.1202  -16.2436 C   0  0  0  0  0  0  0  0  0  0  0  0
   22.7051   -6.4071  -17.2402 O   0  0  0  0  0  0  0  0  0  0  0  0
   21.1472   -5.3405  -13.5013 C   0  0  0  0  0  0  0  0  0  0  0  0
   21.7581   -5.4088  -14.8982 C   0  0  2  0  0  0  0  0  0  0  0  0
   22.4731   -6.6498  -14.9578 N   0  0  0  0  0  0  0  0  0  0  0  0
   22.6217   -4.2346  -15.0578 C   0  0  0  0  0  0  0  0  0  0  0  0
   22.1438   -3.0072  -15.4773 O   0  0  0  0  0  0  0  0  0  0  0  0
   23.8447   -4.3330  -14.8071 O   0  0  0  0  0  0  0  0  0  0  0  0
  2  3  1  0
  2  1  1  1
  3  4  1  0
  4  8  1  0
  4  5  2  0
  6  2  1  0
  7  6  2  0
  9  6  1  0
 10  9  1  0
 10 11  1  6
 11 12  1  0
 12 13  2  0
 13 14  1  0
 15 14  2  0
 16 15  1  0
 17 12  1  0
 17 16  2  0
 18 22  1  0
 18 10  1  0
 19 18  2  0
 21 20  1  1
 21 23  1  0
 21 22  1  0
 23 24  1  0
 25 23  2  0
M  END
$$$$
