DFA.pdb
     RDKit          3D

 25 25  0  0  1  0  0  0  0  0999 V2000
   12.9835  -12.9574    4.8770 N   0  0  0  0  0  0  0  0  0  0  0  0
   13.2563  -13.8854    5.9961 C   0  0  1  0  0  0  0  0  0  0  0  0
   11.9584  -14.5469    6.3692 C   0  0  0  0  0  0  0  0  0  0  0  0
   12.0366  -15.2691    7.6348 C   0  0  0  0  0  0  0  0  0  0  0  0
   12.9811  -15.0168    8.4221 O   0  0  0  0  0  0  0  0  0  0  0  0
   14.2543  -14.8667    5.6104 C   0  0  0  0  0  0  0  0  0  0  0  0
   14.1201  -15.5012    4.5169 O   0  0  0  0  0  0  0  0  0  0  0  0
   11.0865  -16.2278    7.9802 O   0  0  0  0  0  0  0  0  0  0  0  0
   15.4063  -15.1960    6.3514 N   0  0  0  0  0  0  0  0  0  0  0  0
   16.4009  -16.1482    5.8310 C   0  0  1  0  0  0  0  0  0  0  0  0
   17.7519  -15.5040    6.0107 C   0  0  0  0  0  0  0  0  0  0  0  0
   18.1252  -14.5645    4.9590 C   0  0  0  0  0  0  0  0  0  0  0  0
   18.1977  -15.0593    3.6546 C   0  0  0  0  0  0  0  0  0  0  0  0
   18.5423  -14.2516    2.5883 C   0  0  0  0  0  0  0  0  0  0  0  0
   18.8281  -12.9182    2.7821 C   0  0  0  0  0  0  0  0  0  0  0  0
   18.7590  -12.4239    4.0632 C   0  0  0  0  0  0  0  0  0  0  0  0
   18.4135  -13.2451    5.1139 C   0  0  0  0  0  0  0  0  0  0  0  0
   16.3741  -17.3223    6.7117 C   0  0  0  0  0  0  0  0  0  0  0  0
   16.1892  -17.3204    7.9419 O   0  0  0  0  0  0  0  0  0  0  0  0
   16.4960  -20.9409    5.8555 C   0  0  0  0  0  0  0  0  0  0  0  0
   16.5418  -19.7802    6.8456 C   0  0  2  0  0  0  0  0  0  0  0  0
   16.5861  -18.5859    6.0542 N   0  0  0  0  0  0  0  0  0  0  0  0
   17.7310  -19.9643    7.6834 C   0  0  0  0  0  0  0  0  0  0  0  0
   17.7210  -20.7240    8.8383 O   0  0  0  0  0  0  0  0  0  0  0  0
   18.8072  -19.4168    7.3511 O   0  0  0  0  0  0  0  0  0  0  0  0
  2  3  1  0
  2  1  1  6
  3  4  1  0
  4  8  1  0
  4  5  2  0
  6  2  1  0
  7  6  2  0
  9  6  1  0
 10  9  1  0
 10 11  1  1
 11 12  1  0
 12 13  2  0
 13 14  1  0
 15 14  2  0
 16 15  1  0
 17 12  1  0
 17 16  2  0
 18 22  1  0
 18 10  1  0
 19 18  2  0
 21 20  1  6
 21 23  1  0
 21 22  1  0
 23 24  1  0
 25 23  2  0
M  END
$$$$
