DFA.pdb
     RDKit          3D

 25 25  0  0  1  0  0  0  0  0999 V2000
   27.7492  -23.2882  -17.7745 N   0  0  0  0  0  0  0  0  0  0  0  0
   27.3509  -21.9674  -17.2407 C   0  0  1  0  0  0  0  0  0  0  0  0
   26.5351  -21.2738  -18.2966 C   0  0  0  0  0  0  0  0  0  0  0  0
   27.1707  -20.0574  -18.7922 C   0  0  0  0  0  0  0  0  0  0  0  0
   28.4239  -20.0004  -18.8370 O   0  0  0  0  0  0  0  0  0  0  0  0
   26.5950  -22.1234  -16.0110 C   0  0  0  0  0  0  0  0  0  0  0  0
   26.0564  -23.2437  -15.7439 O   0  0  0  0  0  0  0  0  0  0  0  0
   26.4140  -18.9658  -19.2127 O   0  0  0  0  0  0  0  0  0  0  0  0
   26.3953  -21.1213  -15.0413 N   0  0  0  0  0  0  0  0  0  0  0  0
   25.6527  -21.3982  -13.8009 C   0  0  1  0  0  0  0  0  0  0  0  0
   26.2353  -20.5013  -12.7386 C   0  0  0  0  0  0  0  0  0  0  0  0
   25.6028  -20.6153  -11.4289 C   0  0  0  0  0  0  0  0  0  0  0  0
   24.4289  -19.8876  -11.2193 C   0  0  0  0  0  0  0  0  0  0  0  0
   23.7537  -19.9273  -10.0149 C   0  0  0  0  0  0  0  0  0  0  0  0
   24.2238  -20.6948   -8.9722 C   0  0  0  0  0  0  0  0  0  0  0  0
   25.3788  -21.4138   -9.1709 C   0  0  0  0  0  0  0  0  0  0  0  0
   26.0381  -21.3615  -10.3793 C   0  0  0  0  0  0  0  0  0  0  0  0
   24.2714  -20.9512  -14.0177 C   0  0  0  0  0  0  0  0  0  0  0  0
   23.9093  -19.8205  -14.3894 O   0  0  0  0  0  0  0  0  0  0  0  0
   21.1920  -22.7471  -14.5876 C   0  0  0  0  0  0  0  0  0  0  0  0
   21.8846  -21.5670  -13.9115 C   0  0  2  0  0  0  0  0  0  0  0  0
   23.2597  -21.9447  -13.7663 N   0  0  0  0  0  0  0  0  0  0  0  0
   21.2089  -21.3363  -12.6308 C   0  0  0  0  0  0  0  0  0  0  0  0
   21.4981  -22.0643  -11.4918 O   0  0  0  0  0  0  0  0  0  0  0  0
   20.3317  -20.4461  -12.5507 O   0  0  0  0  0  0  0  0  0  0  0  0
  2  3  1  0
  2  1  1  6
  3  4  1  0
  4  8  1  0
  4  5  2  0
  6  2  1  0
  7  6  2  0
  9  6  1  0
 10  9  1  0
 10 11  1  1
 11 12  1  0
 12 13  2  0
 13 14  1  0
 15 14  2  0
 16 15  1  0
 17 12  1  0
 17 16  2  0
 18 22  1  0
 18 10  1  0
 19 18  2  0
 21 20  1  1
 21 23  1  0
 21 22  1  0
 23 24  1  0
 25 23  2  0
M  END
$$$$
