DFA.pdb
     RDKit          3D

 25 25  0  0  1  0  0  0  0  0999 V2000
   45.1425   -8.2314   -9.9403 N   0  0  0  0  0  0  0  0  0  0  0  0
   44.6244   -7.6102   -8.7018 C   0  0  1  0  0  0  0  0  0  0  0  0
   45.3059   -6.2799   -8.5371 C   0  0  0  0  0  0  0  0  0  0  0  0
   46.7403   -6.4063   -8.3009 C   0  0  0  0  0  0  0  0  0  0  0  0
   47.1371   -6.9524   -7.2426 O   0  0  0  0  0  0  0  0  0  0  0  0
   43.1826   -7.4564   -8.7754 C   0  0  0  0  0  0  0  0  0  0  0  0
   42.6244   -7.3123   -9.9086 O   0  0  0  0  0  0  0  0  0  0  0  0
   47.6698   -5.9331   -9.2247 O   0  0  0  0  0  0  0  0  0  0  0  0
   42.3031   -7.4572   -7.6750 N   0  0  0  0  0  0  0  0  0  0  0  0
   40.8563   -7.2543   -7.8556 C   0  0  1  0  0  0  0  0  0  0  0  0
   40.1660   -8.1589   -6.8669 C   0  0  0  0  0  0  0  0  0  0  0  0
   38.7118   -8.0434   -6.8455 C   0  0  0  0  0  0  0  0  0  0  0  0
   37.9968   -9.0717   -6.2268 C   0  0  0  0  0  0  0  0  0  0  0  0
   36.6175   -9.0569   -6.1536 C   0  0  0  0  0  0  0  0  0  0  0  0
   35.8976   -8.0150   -6.6953 C   0  0  0  0  0  0  0  0  0  0  0  0
   36.5943   -6.9992   -7.3061 C   0  0  0  0  0  0  0  0  0  0  0  0
   37.9701   -7.0316   -7.3691 C   0  0  0  0  0  0  0  0  0  0  0  0
   40.5604   -5.8769   -7.4433 C   0  0  0  0  0  0  0  0  0  0  0  0
   40.7160   -5.3950   -6.3070 O   0  0  0  0  0  0  0  0  0  0  0  0
   39.7813   -2.9199   -9.5275 C   0  0  0  0  0  0  0  0  0  0  0  0
   39.8288   -3.6395   -8.1823 C   0  0  2  0  0  0  0  0  0  0  0  0
   40.0401   -5.0253   -8.4815 N   0  0  0  0  0  0  0  0  0  0  0  0
   38.5562   -3.3815   -7.5012 C   0  0  0  0  0  0  0  0  0  0  0  0
   37.3668   -3.9666   -7.8934 O   0  0  0  0  0  0  0  0  0  0  0  0
   38.5309   -2.6012   -6.5220 O   0  0  0  0  0  0  0  0  0  0  0  0
  2  3  1  0
  2  1  1  6
  3  4  1  0
  4  8  1  0
  4  5  2  0
  6  2  1  0
  7  6  2  0
  9  6  1  0
 10  9  1  0
 10 11  1  1
 11 12  1  0
 12 13  2  0
 13 14  1  0
 15 14  2  0
 16 15  1  0
 17 12  1  0
 17 16  2  0
 18 22  1  0
 18 10  1  0
 19 18  2  0
 21 20  1  6
 21 23  1  0
 21 22  1  0
 23 24  1  0
 25 23  2  0
M  END
$$$$
