DFA.pdb
     RDKit          3D

 25 25  0  0  1  0  0  0  0  0999 V2000
   25.1443  -11.8784  -19.8520 N   0  0  0  0  0  0  0  0  0  0  0  0
   24.6685  -10.5364  -20.2530 C   0  0  1  0  0  0  0  0  0  0  0  0
   23.6957  -10.7150  -21.3857 C   0  0  0  0  0  0  0  0  0  0  0  0
   24.3365  -11.1785  -22.6120 C   0  0  0  0  0  0  0  0  0  0  0  0
   25.4681  -10.7276  -22.9153 O   0  0  0  0  0  0  0  0  0  0  0  0
   24.0470   -9.8608  -19.1282 C   0  0  0  0  0  0  0  0  0  0  0  0
   23.1754  -10.4722  -18.4332 O   0  0  0  0  0  0  0  0  0  0  0  0
   23.7165  -12.1066  -23.4458 O   0  0  0  0  0  0  0  0  0  0  0  0
   24.3276   -8.5460  -18.7075 N   0  0  0  0  0  0  0  0  0  0  0  0
   23.6972   -7.9801  -17.5037 C   0  0  1  0  0  0  0  0  0  0  0  0
   24.8162   -7.5103  -16.6096 C   0  0  0  0  0  0  0  0  0  0  0  0
   25.6500   -8.5757  -16.0639 C   0  0  0  0  0  0  0  0  0  0  0  0
   25.1281   -9.3162  -15.0005 C   0  0  0  0  0  0  0  0  0  0  0  0
   25.8377  -10.3457  -14.4133 C   0  0  0  0  0  0  0  0  0  0  0  0
   27.0964  -10.6764  -14.8646 C   0  0  0  0  0  0  0  0  0  0  0  0
   27.6170   -9.9520  -15.9108 C   0  0  0  0  0  0  0  0  0  0  0  0
   26.8939   -8.9288  -16.4835 C   0  0  0  0  0  0  0  0  0  0  0  0
   22.9640   -6.7803  -17.9258 C   0  0  0  0  0  0  0  0  0  0  0  0
   23.3844   -5.8825  -18.6774 O   0  0  0  0  0  0  0  0  0  0  0  0
   19.5302   -6.0032  -18.2690 C   0  0  0  0  0  0  0  0  0  0  0  0
   20.8666   -5.4951  -17.7349 C   0  0  2  0  0  0  0  0  0  0  0  0
   21.6287   -6.6620  -17.3997 N   0  0  0  0  0  0  0  0  0  0  0  0
   20.5808   -4.6386  -16.5797 C   0  0  0  0  0  0  0  0  0  0  0  0
   20.5644   -5.1150  -15.2821 O   0  0  0  0  0  0  0  0  0  0  0  0
   20.3399   -3.4231  -16.7610 O   0  0  0  0  0  0  0  0  0  0  0  0
  2  3  1  0
  2  1  1  1
  3  4  1  0
  4  8  1  0
  4  5  2  0
  6  2  1  0
  7  6  2  0
  9  6  1  0
 10  9  1  0
 10 11  1  1
 11 12  1  0
 12 13  2  0
 13 14  1  0
 15 14  2  0
 16 15  1  0
 17 12  1  0
 17 16  2  0
 18 22  1  0
 18 10  1  0
 19 18  2  0
 21 20  1  1
 21 23  1  0
 21 22  1  0
 23 24  1  0
 25 23  2  0
M  END
$$$$
