DFA.pdb
     RDKit          3D

 25 25  0  0  1  0  0  0  0  0999 V2000
   26.1411  -21.6277  -12.7668 N   0  0  0  0  0  0  0  0  0  0  0  0
   25.5225  -20.7192  -11.7768 C   0  0  1  0  0  0  0  0  0  0  0  0
   24.0354  -20.9378  -11.8211 C   0  0  0  0  0  0  0  0  0  0  0  0
   23.4248  -20.4181  -13.0403 C   0  0  0  0  0  0  0  0  0  0  0  0
   23.0228  -21.2268  -13.9121 O   0  0  0  0  0  0  0  0  0  0  0  0
   26.0522  -20.9774  -10.4499 C   0  0  0  0  0  0  0  0  0  0  0  0
   26.1226  -22.1735  -10.0247 O   0  0  0  0  0  0  0  0  0  0  0  0
   23.2824  -19.0482  -13.2506 O   0  0  0  0  0  0  0  0  0  0  0  0
   26.5212  -19.9985   -9.5520 N   0  0  0  0  0  0  0  0  0  0  0  0
   27.0370  -20.3673   -8.2236 C   0  0  1  0  0  0  0  0  0  0  0  0
   27.9096  -19.2264   -7.7662 C   0  0  0  0  0  0  0  0  0  0  0  0
   28.4601  -19.3788   -6.4238 C   0  0  0  0  0  0  0  0  0  0  0  0
   29.2230  -20.5214   -6.1706 C   0  0  0  0  0  0  0  0  0  0  0  0
   29.7880  -20.7593   -4.9328 C   0  0  0  0  0  0  0  0  0  0  0  0
   29.6137  -19.8660   -3.8989 C   0  0  0  0  0  0  0  0  0  0  0  0
   28.8639  -18.7391   -4.1404 C   0  0  0  0  0  0  0  0  0  0  0  0
   28.3085  -18.5192   -5.3817 C   0  0  0  0  0  0  0  0  0  0  0  0
   25.8869  -20.4090   -7.3121 C   0  0  0  0  0  0  0  0  0  0  0  0
   24.9986  -19.5451   -7.2019 O   0  0  0  0  0  0  0  0  0  0  0  0
   24.3984  -23.1428   -5.4005 C   0  0  0  0  0  0  0  0  0  0  0  0
   24.7476  -21.6617   -5.5177 C   0  0  2  0  0  0  0  0  0  0  0  0
   25.8094  -21.5797   -6.4772 N   0  0  0  0  0  0  0  0  0  0  0  0
   25.1358  -21.1950   -4.1830 C   0  0  0  0  0  0  0  0  0  0  0  0
   26.4330  -20.8397   -3.8637 O   0  0  0  0  0  0  0  0  0  0  0  0
   24.2667  -21.1096   -3.2854 O   0  0  0  0  0  0  0  0  0  0  0  0
  2  3  1  0
  2  1  1  6
  3  4  1  0
  4  8  1  0
  4  5  2  0
  6  2  1  0
  7  6  2  0
  9  6  1  0
 10  9  1  0
 10 11  1  1
 11 12  1  0
 12 13  2  0
 13 14  1  0
 15 14  2  0
 16 15  1  0
 17 12  1  0
 17 16  2  0
 18 22  1  0
 18 10  1  0
 19 18  2  0
 21 20  1  1
 21 23  1  0
 21 22  1  0
 23 24  1  0
 25 23  2  0
M  END
$$$$
