DFA.pdb
     RDKit          3D

 25 25  0  0  1  0  0  0  0  0999 V2000
   21.1968  -10.0564  -18.2137 N   0  0  0  0  0  0  0  0  0  0  0  0
   20.7833   -8.6769  -18.5517 C   0  0  1  0  0  0  0  0  0  0  0  0
   19.5696   -8.7661  -19.4349 C   0  0  0  0  0  0  0  0  0  0  0  0
   19.8727   -9.3013  -20.7582 C   0  0  0  0  0  0  0  0  0  0  0  0
   19.4612  -10.4483  -21.0596 O   0  0  0  0  0  0  0  0  0  0  0  0
   20.5004   -7.9212  -17.3448 C   0  0  0  0  0  0  0  0  0  0  0  0
   19.7320   -8.4159  -16.4608 O   0  0  0  0  0  0  0  0  0  0  0  0
   20.6070   -8.5649  -21.6854 O   0  0  0  0  0  0  0  0  0  0  0  0
   21.0168   -6.6470  -17.0380 N   0  0  0  0  0  0  0  0  0  0  0  0
   20.7485   -6.0083  -15.7392 C   0  0  1  0  0  0  0  0  0  0  0  0
   22.0786   -5.8658  -15.0442 C   0  0  0  0  0  0  0  0  0  0  0  0
   22.7262   -7.1271  -14.7005 C   0  0  0  0  0  0  0  0  0  0  0  0
   22.2514   -7.8046  -13.5748 C   0  0  0  0  0  0  0  0  0  0  0  0
   22.7965   -9.0060  -13.1652 C   0  0  0  0  0  0  0  0  0  0  0  0
   23.8371   -9.5782  -13.8630 C   0  0  0  0  0  0  0  0  0  0  0  0
   24.3100   -8.9171  -14.9720 C   0  0  0  0  0  0  0  0  0  0  0  0
   23.7532   -7.7199  -15.3651 C   0  0  0  0  0  0  0  0  0  0  0  0
   20.2723   -4.6482  -16.0190 C   0  0  0  0  0  0  0  0  0  0  0  0
   20.8247   -3.8065  -16.7496 O   0  0  0  0  0  0  0  0  0  0  0  0
   17.0933   -2.9873  -15.0228 C   0  0  0  0  0  0  0  0  0  0  0  0
   18.5010   -2.9795  -15.6126 C   0  0  2  0  0  0  0  0  0  0  0  0
   19.0406   -4.2846  -15.3674 N   0  0  0  0  0  0  0  0  0  0  0  0
   19.2499   -1.9087  -14.9474 C   0  0  0  0  0  0  0  0  0  0  0  0
   19.4087   -0.6523  -15.5017 O   0  0  0  0  0  0  0  0  0  0  0  0
   19.7725   -2.1271  -13.8305 O   0  0  0  0  0  0  0  0  0  0  0  0
  2  3  1  0
  2  1  1  1
  3  4  1  0
  4  8  1  0
  4  5  2  0
  6  2  1  0
  7  6  2  0
  9  6  1  0
 10  9  1  0
 10 11  1  1
 11 12  1  0
 12 13  2  0
 13 14  1  0
 15 14  2  0
 16 15  1  0
 17 12  1  0
 17 16  2  0
 18 22  1  0
 18 10  1  0
 19 18  2  0
 21 20  1  1
 21 23  1  0
 21 22  1  0
 23 24  1  0
 25 23  2  0
M  END
$$$$
