DFA.pdb
     RDKit          3D

 25 25  0  0  1  0  0  0  0  0999 V2000
   22.1176  -18.6740  -15.4117 N   0  0  0  0  0  0  0  0  0  0  0  0
   21.7917  -20.1163  -15.4523 C   0  0  1  0  0  0  0  0  0  0  0  0
   20.5189  -20.2762  -16.2370 C   0  0  0  0  0  0  0  0  0  0  0  0
   19.3292  -20.2582  -15.3923 C   0  0  0  0  0  0  0  0  0  0  0  0
   19.2695  -21.0355  -14.4084 O   0  0  0  0  0  0  0  0  0  0  0  0
   22.8787  -20.8659  -16.0559 C   0  0  0  0  0  0  0  0  0  0  0  0
   23.4944  -20.3813  -17.0571 O   0  0  0  0  0  0  0  0  0  0  0  0
   18.2658  -19.3984  -15.6589 O   0  0  0  0  0  0  0  0  0  0  0  0
   23.3437  -22.1233  -15.6234 N   0  0  0  0  0  0  0  0  0  0  0  0
   24.4469  -22.8078  -16.3172 C   0  0  1  0  0  0  0  0  0  0  0  0
   25.2558  -23.5097  -15.2563 C   0  0  0  0  0  0  0  0  0  0  0  0
   26.3713  -24.3016  -15.7631 C   0  0  0  0  0  0  0  0  0  0  0  0
   27.4747  -23.6063  -16.2638 C   0  0  0  0  0  0  0  0  0  0  0  0
   28.5812  -24.2627  -16.7667 C   0  0  0  0  0  0  0  0  0  0  0  0
   28.6298  -25.6391  -16.7895 C   0  0  0  0  0  0  0  0  0  0  0  0
   27.5474  -26.3304  -16.2986 C   0  0  0  0  0  0  0  0  0  0  0  0
   26.4529  -25.6580  -15.8011 C   0  0  0  0  0  0  0  0  0  0  0  0
   23.8461  -23.8563  -17.1506 C   0  0  0  0  0  0  0  0  0  0  0  0
   22.9150  -24.6154  -16.8276 O   0  0  0  0  0  0  0  0  0  0  0  0
   24.5709  -24.8014  -20.6839 C   0  0  0  0  0  0  0  0  0  0  0  0
   23.8790  -24.9977  -19.3377 C   0  0  2  0  0  0  0  0  0  0  0  0
   24.4142  -23.9928  -18.4669 N   0  0  0  0  0  0  0  0  0  0  0  0
   24.1669  -26.3642  -18.8911 C   0  0  0  0  0  0  0  0  0  0  0  0
   25.0189  -26.6424  -17.8387 O   0  0  0  0  0  0  0  0  0  0  0  0
   23.6255  -27.3291  -19.4779 O   0  0  0  0  0  0  0  0  0  0  0  0
  2  3  1  0
  2  1  1  6
  3  4  1  0
  4  8  1  0
  4  5  2  0
  6  2  1  0
  7  6  2  0
  9  6  1  0
 10  9  1  0
 10 11  1  1
 11 12  1  0
 12 13  2  0
 13 14  1  0
 15 14  2  0
 16 15  1  0
 17 12  1  0
 17 16  2  0
 18 22  1  0
 18 10  1  0
 19 18  2  0
 21 20  1  6
 21 23  1  0
 21 22  1  0
 23 24  1  0
 25 23  2  0
M  END
$$$$
