IAP.pdb
     RDKit          3D

 21 21  0  0  1  0  0  0  0  0999 V2000
    7.9250  -12.3280   18.4743 C   0  0  0  0  0  0  0  0  0  0  0  0
    7.9310  -13.7887   18.8926 C   0  0  0  0  0  0  0  0  0  0  0  0
    7.6412  -13.8405   20.3753 C   0  0  2  0  0  0  0  0  0  0  0  0
    8.6220  -12.9797   21.1441 C   0  0  0  0  0  0  0  0  0  0  0  0
    7.5380  -15.2210   20.9099 C   0  0  2  0  0  0  0  0  0  0  0  0
    6.6539  -16.0205   20.0617 N   0  0  0  0  0  0  0  0  0  0  0  0
    7.2014  -15.3568   22.3296 C   0  0  0  0  0  0  0  0  0  0  0  0
    6.1566  -14.8476   22.7776 O   0  0  0  0  0  0  0  0  0  0  0  0
    7.1199  -17.2277   25.0678 C   0  0  0  0  0  0  0  0  0  0  0  0
    7.8106  -15.9416   24.6465 C   0  0  2  0  0  0  0  0  0  0  0  0
    8.0435  -16.0630   23.2260 N   0  0  0  0  0  0  0  0  0  0  0  0
    9.0753  -15.7374   25.3887 C   0  0  0  0  0  0  0  0  0  0  0  0
   10.1614  -16.0316   24.8428 O   0  0  0  0  0  0  0  0  0  0  0  0
    9.0897  -15.2155   26.7064 N   0  0  0  0  0  0  0  0  0  0  0  0
    7.9522  -14.9275   27.5514 C   0  0  0  0  0  0  0  0  0  0  0  0
    8.3374  -13.5682   28.1244 C   0  0  0  0  0  0  0  0  0  0  0  0
    9.8495  -13.5529   28.1209 C   0  0  0  0  0  0  0  0  0  0  0  0
   10.2522  -14.8606   27.4838 C   0  0  1  0  0  0  0  0  0  0  0  0
   10.4747  -15.8644   28.5384 C   0  0  0  0  0  0  0  0  0  0  0  0
    9.6767  -16.7731   28.8572 O   0  0  0  0  0  0  0  0  0  0  0  0
   11.6733  -15.8412   29.2799 O   0  0  0  0  0  0  0  0  0  0  0  0
  2  1  1  0
  3  4  1  1
  3  2  1  0
  5  7  1  0
  5  3  1  0
  5  6  1  6
  7 11  1  0
  8  7  2  0
 10  9  1  1
 10 12  1  0
 11 10  1  0
 12 13  2  0
 12 14  1  0
 14 18  1  0
 14 15  1  0
 15 16  1  0
 17 16  1  0
 18 17  1  0
 19 21  1  0
 18 19  1  1
 20 19  2  0
M  END
$$$$
