IAP.pdb
     RDKit          3D

 21 21  0  0  1  0  0  0  0  0999 V2000
    8.0513  -12.4322   18.0570 C   0  0  0  0  0  0  0  0  0  0  0  0
    8.2830  -13.8463   18.5626 C   0  0  0  0  0  0  0  0  0  0  0  0
    7.6406  -13.9548   19.9266 C   0  0  2  0  0  0  0  0  0  0  0  0
    8.2142  -12.9212   20.8735 C   0  0  0  0  0  0  0  0  0  0  0  0
    7.6656  -15.3297   20.4845 C   0  0  2  0  0  0  0  0  0  0  0  0
    7.0784  -16.2679   19.5278 N   0  0  0  0  0  0  0  0  0  0  0  0
    7.1147  -15.5071   21.8307 C   0  0  0  0  0  0  0  0  0  0  0  0
    5.8959  -15.3507   22.0349 O   0  0  0  0  0  0  0  0  0  0  0  0
    7.0759  -17.0805   24.7612 C   0  0  0  0  0  0  0  0  0  0  0  0
    7.4315  -15.6876   24.2696 C   0  0  2  0  0  0  0  0  0  0  0  0
    7.9411  -15.8579   22.9287 N   0  0  0  0  0  0  0  0  0  0  0  0
    8.4290  -15.0399   25.1515 C   0  0  0  0  0  0  0  0  0  0  0  0
    9.6355  -15.0470   24.8219 O   0  0  0  0  0  0  0  0  0  0  0  0
    8.0532  -14.4093   26.3638 N   0  0  0  0  0  0  0  0  0  0  0  0
    6.7343  -14.3511   26.9537 C   0  0  0  0  0  0  0  0  0  0  0  0
    6.6589  -12.8901   27.3828 C   0  0  0  0  0  0  0  0  0  0  0  0
    8.0921  -12.4782   27.6335 C   0  0  0  0  0  0  0  0  0  0  0  0
    8.9164  -13.6887   27.2680 C   0  0  1  0  0  0  0  0  0  0  0  0
    9.1573  -14.4933   28.4780 C   0  0  0  0  0  0  0  0  0  0  0  0
    8.5300  -15.5259   28.8013 O   0  0  0  0  0  0  0  0  0  0  0  0
   10.1700  -14.1083   29.3798 O   0  0  0  0  0  0  0  0  0  0  0  0
  2  1  1  0
  3  4  1  1
  3  2  1  0
  5  7  1  0
  5  3  1  0
  5  6  1  6
  7 11  1  0
  8  7  2  0
 10  9  1  1
 10 12  1  0
 11 10  1  0
 12 13  2  0
 12 14  1  0
 14 18  1  0
 14 15  1  0
 15 16  1  0
 17 16  1  0
 18 17  1  0
 19 21  1  0
 18 19  1  1
 20 19  2  0
M  END
$$$$
