IAP.pdb
     RDKit          3D

 21 21  0  0  1  0  0  0  0  0999 V2000
   10.4429  -19.5974   20.1120 C   0  0  0  0  0  0  0  0  0  0  0  0
    9.6606  -18.2981   20.0179 C   0  0  0  0  0  0  0  0  0  0  0  0
    9.7334  -17.6222   21.3680 C   0  0  2  0  0  0  0  0  0  0  0  0
    9.3093  -18.5732   22.4678 C   0  0  0  0  0  0  0  0  0  0  0  0
    9.0194  -16.3223   21.4179 C   0  0  2  0  0  0  0  0  0  0  0  0
    9.3755  -15.5115   20.2534 N   0  0  0  0  0  0  0  0  0  0  0  0
    9.1206  -15.5597   22.6651 C   0  0  0  0  0  0  0  0  0  0  0  0
   10.2067  -15.0517   23.0027 O   0  0  0  0  0  0  0  0  0  0  0  0
    6.8055  -14.5473   25.3818 C   0  0  0  0  0  0  0  0  0  0  0  0
    8.1956  -14.7641   24.8081 C   0  0  2  0  0  0  0  0  0  0  0  0
    8.0001  -15.3786   23.5155 N   0  0  0  0  0  0  0  0  0  0  0  0
    9.0211  -15.6152   25.6948 C   0  0  0  0  0  0  0  0  0  0  0  0
    9.3249  -16.7712   25.3266 O   0  0  0  0  0  0  0  0  0  0  0  0
    9.4787  -15.1545   26.9546 N   0  0  0  0  0  0  0  0  0  0  0  0
    8.9764  -14.0335   27.7173 C   0  0  0  0  0  0  0  0  0  0  0  0
   10.2724  -13.3712   28.1712 C   0  0  0  0  0  0  0  0  0  0  0  0
   11.2872  -14.4907   28.2318 C   0  0  0  0  0  0  0  0  0  0  0  0
   10.5497  -15.7137   27.7435 C   0  0  1  0  0  0  0  0  0  0  0  0
    9.9944  -16.4378   28.8997 C   0  0  0  0  0  0  0  0  0  0  0  0
    8.7921  -16.4445   29.2442 O   0  0  0  0  0  0  0  0  0  0  0  0
   10.8498  -17.2024   29.7185 O   0  0  0  0  0  0  0  0  0  0  0  0
  2  1  1  0
  3  4  1  1
  3  2  1  0
  5  7  1  0
  5  3  1  0
  5  6  1  6
  7 11  1  0
  8  7  2  0
 10  9  1  1
 10 12  1  0
 11 10  1  0
 12 13  2  0
 12 14  1  0
 14 18  1  0
 14 15  1  0
 15 16  1  0
 17 16  1  0
 18 17  1  0
 19 21  1  0
 18 19  1  1
 20 19  2  0
M  END
$$$$
