IAP.pdb
     RDKit          3D

 21 21  0  0  1  0  0  0  0  0999 V2000
   13.3075  -18.2025   24.2150 C   0  0  0  0  0  0  0  0  0  0  0  0
   12.7569  -17.2710   23.1482 C   0  0  0  0  0  0  0  0  0  0  0  0
   11.6098  -17.9826   22.4680 C   0  0  2  0  0  0  0  0  0  0  0  0
   12.0780  -19.2810   21.8443 C   0  0  0  0  0  0  0  0  0  0  0  0
   10.8580  -17.1222   21.5211 C   0  0  2  0  0  0  0  0  0  0  0  0
   11.7286  -16.7128   20.4189 N   0  0  0  0  0  0  0  0  0  0  0  0
   10.1321  -15.9854   22.0939 C   0  0  0  0  0  0  0  0  0  0  0  0
   10.7531  -14.9827   22.4945 O   0  0  0  0  0  0  0  0  0  0  0  0
    6.5817  -15.0628   22.6247 C   0  0  0  0  0  0  0  0  0  0  0  0
    8.0681  -14.8980   22.8929 C   0  0  2  0  0  0  0  0  0  0  0  0
    8.7185  -15.9914   22.2087 N   0  0  0  0  0  0  0  0  0  0  0  0
    8.3620  -14.9137   24.3440 C   0  0  0  0  0  0  0  0  0  0  0  0
    9.2379  -15.6904   24.7841 O   0  0  0  0  0  0  0  0  0  0  0  0
    7.6756  -14.0694   25.2521 N   0  0  0  0  0  0  0  0  0  0  0  0
    6.6025  -13.1463   24.9565 C   0  0  0  0  0  0  0  0  0  0  0  0
    7.0281  -11.9210   25.7576 C   0  0  0  0  0  0  0  0  0  0  0  0
    7.8438  -12.4660   26.9084 C   0  0  0  0  0  0  0  0  0  0  0  0
    7.9075  -13.9553   26.6716 C   0  0  1  0  0  0  0  0  0  0  0  0
    6.8152  -14.6101   27.4115 C   0  0  0  0  0  0  0  0  0  0  0  0
    5.6941  -14.9055   26.9423 O   0  0  0  0  0  0  0  0  0  0  0  0
    6.9997  -14.9530   28.7662 O   0  0  0  0  0  0  0  0  0  0  0  0
  2  1  1  0
  3  4  1  6
  3  2  1  0
  5  7  1  0
  5  3  1  0
  5  6  1  6
  7 11  1  0
  8  7  2  0
 10  9  1  1
 10 12  1  0
 11 10  1  0
 12 13  2  0
 12 14  1  0
 14 18  1  0
 14 15  1  0
 15 16  1  0
 17 16  1  0
 18 17  1  0
 19 21  1  0
 18 19  1  1
 20 19  2  0
M  END
$$$$
