IAP.pdb
     RDKit          3D

 21 21  0  0  1  0  0  0  0  0999 V2000
    8.2264  -12.6049   18.1952 C   0  0  0  0  0  0  0  0  0  0  0  0
    8.3302  -14.0398   18.6842 C   0  0  0  0  0  0  0  0  0  0  0  0
    7.7980  -14.0802   20.0984 C   0  0  2  0  0  0  0  0  0  0  0  0
    8.5594  -13.1176   20.9860 C   0  0  0  0  0  0  0  0  0  0  0  0
    7.7198  -15.4507   20.6621 C   0  0  2  0  0  0  0  0  0  0  0  0
    7.0532  -16.3437   19.7142 N   0  0  0  0  0  0  0  0  0  0  0  0
    7.1677  -15.5795   22.0134 C   0  0  0  0  0  0  0  0  0  0  0  0
    6.0079  -15.1954   22.2558 O   0  0  0  0  0  0  0  0  0  0  0  0
    7.3101  -17.3122   25.0335 C   0  0  0  0  0  0  0  0  0  0  0  0
    7.4882  -15.9277   24.4336 C   0  0  2  0  0  0  0  0  0  0  0  0
    7.9267  -16.1380   23.0733 N   0  0  0  0  0  0  0  0  0  0  0  0
    8.4673  -15.1258   25.2020 C   0  0  0  0  0  0  0  0  0  0  0  0
    9.6491  -15.0508   24.7999 O   0  0  0  0  0  0  0  0  0  0  0  0
    8.1009  -14.4378   26.3857 N   0  0  0  0  0  0  0  0  0  0  0  0
    6.7875  -14.3548   26.9849 C   0  0  0  0  0  0  0  0  0  0  0  0
    6.7112  -12.8748   27.3429 C   0  0  0  0  0  0  0  0  0  0  0  0
    8.1453  -12.4469   27.5591 C   0  0  0  0  0  0  0  0  0  0  0  0
    8.9702  -13.6713   27.2452 C   0  0  1  0  0  0  0  0  0  0  0  0
    9.2257  -14.4150   28.4906 C   0  0  0  0  0  0  0  0  0  0  0  0
   10.0513  -14.0932   29.3733 O   0  0  0  0  0  0  0  0  0  0  0  0
    8.5039  -15.5962   28.7565 O   0  0  0  0  0  0  0  0  0  0  0  0
  2  1  1  0
  3  4  1  1
  3  2  1  0
  5  7  1  0
  5  3  1  0
  5  6  1  6
  7 11  1  0
  8  7  2  0
 10  9  1  1
 10 12  1  0
 11 10  1  0
 12 13  2  0
 12 14  1  0
 14 18  1  0
 14 15  1  0
 15 16  1  0
 17 16  1  0
 18 17  1  0
 19 21  1  0
 18 19  1  1
 20 19  2  0
M  END
$$$$
