IAP.pdb
     RDKit          3D

 21 21  0  0  1  0  0  0  0  0999 V2000
   11.0397  -14.7126   30.1023 C   0  0  0  0  0  0  0  0  0  0  0  0
    9.9164  -15.6453   29.6816 C   0  0  0  0  0  0  0  0  0  0  0  0
    9.6444  -15.4005   28.2150 C   0  0  2  0  0  0  0  0  0  0  0  0
    9.5984  -13.9160   27.9182 C   0  0  0  0  0  0  0  0  0  0  0  0
    8.4585  -16.1313   27.7032 C   0  0  2  0  0  0  0  0  0  0  0  0
    8.5404  -17.5426   28.0799 N   0  0  0  0  0  0  0  0  0  0  0  0
    8.1406  -15.9634   26.2827 C   0  0  0  0  0  0  0  0  0  0  0  0
    8.5967  -16.7594   25.4400 O   0  0  0  0  0  0  0  0  0  0  0  0
    7.1339  -13.1763   24.2210 C   0  0  0  0  0  0  0  0  0  0  0  0
    7.1775  -14.6835   24.4078 C   0  0  2  0  0  0  0  0  0  0  0  0
    7.3147  -14.9035   25.8289 N   0  0  0  0  0  0  0  0  0  0  0  0
    8.2974  -15.2910   23.6535 C   0  0  0  0  0  0  0  0  0  0  0  0
    9.2384  -15.8275   24.2786 O   0  0  0  0  0  0  0  0  0  0  0  0
    8.3328  -15.2815   22.2367 N   0  0  0  0  0  0  0  0  0  0  0  0
    7.6518  -14.3691   21.3452 C   0  0  0  0  0  0  0  0  0  0  0  0
    7.1121  -15.3256   20.2878 C   0  0  0  0  0  0  0  0  0  0  0  0
    8.0717  -16.4942   20.2864 C   0  0  0  0  0  0  0  0  0  0  0  0
    9.0622  -16.1880   21.3834 C   0  0  1  0  0  0  0  0  0  0  0  0
   10.2289  -15.5007   20.8039 C   0  0  0  0  0  0  0  0  0  0  0  0
   11.1371  -16.0454   20.1385 O   0  0  0  0  0  0  0  0  0  0  0  0
   10.3802  -14.1113   20.9871 O   0  0  0  0  0  0  0  0  0  0  0  0
  2  1  1  0
  3  4  1  1
  3  2  1  0
  5  7  1  0
  5  3  1  0
  5  6  1  6
  7 11  1  0
  8  7  2  0
 10  9  1  1
 10 12  1  0
 11 10  1  0
 12 13  2  0
 12 14  1  0
 14 18  1  0
 14 15  1  0
 15 16  1  0
 17 16  1  0
 18 17  1  0
 19 21  1  0
 18 19  1  6
 20 19  2  0
M  END
$$$$
