IAP.pdb
     RDKit          3D

 21 21  0  0  1  0  0  0  0  0999 V2000
    8.2617  -12.1427   19.1436 C   0  0  0  0  0  0  0  0  0  0  0  0
    7.4964  -13.3464   19.6675 C   0  0  0  0  0  0  0  0  0  0  0  0
    8.4792  -14.4860   19.8101 C   0  0  2  0  0  0  0  0  0  0  0  0
    9.1907  -14.7482   18.4989 C   0  0  0  0  0  0  0  0  0  0  0  0
    7.8840  -15.7099   20.4018 C   0  0  2  0  0  0  0  0  0  0  0  0
    6.9055  -16.2859   19.4793 N   0  0  0  0  0  0  0  0  0  0  0  0
    7.3498  -15.5945   21.7614 C   0  0  0  0  0  0  0  0  0  0  0  0
    6.2139  -15.1195   21.9504 O   0  0  0  0  0  0  0  0  0  0  0  0
    7.1989  -17.1481   24.7620 C   0  0  0  0  0  0  0  0  0  0  0  0
    7.5646  -15.7803   24.2110 C   0  0  2  0  0  0  0  0  0  0  0  0
    8.0994  -16.0146   22.8897 N   0  0  0  0  0  0  0  0  0  0  0  0
    8.5456  -15.0906   25.0795 C   0  0  0  0  0  0  0  0  0  0  0  0
    9.7599  -15.1272   24.7827 O   0  0  0  0  0  0  0  0  0  0  0  0
    8.1450  -14.3871   26.2429 N   0  0  0  0  0  0  0  0  0  0  0  0
    6.7988  -14.1900   26.7325 C   0  0  0  0  0  0  0  0  0  0  0  0
    6.8286  -12.7142   27.1139 C   0  0  0  0  0  0  0  0  0  0  0  0
    8.2725  -12.4246   27.4574 C   0  0  0  0  0  0  0  0  0  0  0  0
    9.0052  -13.7164   27.1874 C   0  0  1  0  0  0  0  0  0  0  0  0
    9.0849  -14.4970   28.4339 C   0  0  0  0  0  0  0  0  0  0  0  0
    8.3326  -15.4459   28.7469 O   0  0  0  0  0  0  0  0  0  0  0  0
   10.0761  -14.1873   29.3870 O   0  0  0  0  0  0  0  0  0  0  0  0
  2  1  1  0
  3  4  1  6
  3  2  1  0
  5  7  1  0
  5  3  1  0
  5  6  1  6
  7 11  1  0
  8  7  2  0
 10  9  1  1
 10 12  1  0
 11 10  1  0
 12 13  2  0
 12 14  1  0
 14 18  1  0
 14 15  1  0
 15 16  1  0
 17 16  1  0
 18 17  1  0
 19 21  1  0
 18 19  1  1
 20 19  2  0
M  END
$$$$
