IAP.pdb
     RDKit          3D

 21 21  0  0  1  0  0  0  0  0999 V2000
    6.4937  -10.9955   26.6377 C   0  0  0  0  0  0  0  0  0  0  0  0
    7.3415  -12.2521   26.7431 C   0  0  0  0  0  0  0  0  0  0  0  0
    6.5492  -13.3898   26.1408 C   0  0  2  0  0  0  0  0  0  0  0  0
    5.2496  -13.5949   26.8913 C   0  0  0  0  0  0  0  0  0  0  0  0
    7.3334  -14.6401   25.9864 C   0  0  2  0  0  0  0  0  0  0  0  0
    7.8819  -15.0488   27.2796 N   0  0  0  0  0  0  0  0  0  0  0  0
    8.3513  -14.6564   24.9325 C   0  0  0  0  0  0  0  0  0  0  0  0
    9.4090  -14.0135   25.0726 O   0  0  0  0  0  0  0  0  0  0  0  0
   10.0162  -16.1927   22.4935 C   0  0  0  0  0  0  0  0  0  0  0  0
    8.9847  -15.0812   22.5874 C   0  0  2  0  0  0  0  0  0  0  0  0
    8.1665  -15.3948   23.7358 N   0  0  0  0  0  0  0  0  0  0  0  0
    8.1739  -14.9884   21.3519 C   0  0  0  0  0  0  0  0  0  0  0  0
    7.0093  -15.4441   21.3469 O   0  0  0  0  0  0  0  0  0  0  0  0
    8.6831  -14.3949   20.1699 N   0  0  0  0  0  0  0  0  0  0  0  0
    9.9958  -13.8236   19.9667 C   0  0  0  0  0  0  0  0  0  0  0  0
    9.6543  -12.5382   19.2214 C   0  0  0  0  0  0  0  0  0  0  0  0
    8.3619  -12.8351   18.4947 C   0  0  0  0  0  0  0  0  0  0  0  0
    7.9908  -14.2368   18.9138 C   0  0  1  0  0  0  0  0  0  0  0  0
    8.5202  -15.1932   17.9266 C   0  0  0  0  0  0  0  0  0  0  0  0
    9.6071  -15.8054   18.0177 O   0  0  0  0  0  0  0  0  0  0  0  0
    7.7762  -15.4764   16.7634 O   0  0  0  0  0  0  0  0  0  0  0  0
  2  1  1  0
  3  4  1  1
  3  2  1  0
  5  7  1  0
  5  3  1  0
  5  6  1  1
  7 11  1  0
  8  7  2  0
 10  9  1  6
 10 12  1  0
 11 10  1  0
 12 13  2  0
 12 14  1  0
 14 18  1  0
 14 15  1  0
 15 16  1  0
 17 16  1  0
 18 17  1  0
 19 21  1  0
 18 19  1  6
 20 19  2  0
M  END
$$$$
