IAP.pdb
     RDKit          3D

 21 21  0  0  1  0  0  0  0  0999 V2000
    8.1257  -12.3084   18.1026 C   0  0  0  0  0  0  0  0  0  0  0  0
    8.2539  -13.7540   18.5528 C   0  0  0  0  0  0  0  0  0  0  0  0
    7.6422  -13.8593   19.9310 C   0  0  2  0  0  0  0  0  0  0  0  0
    8.2687  -12.8535   20.8744 C   0  0  0  0  0  0  0  0  0  0  0  0
    7.6407  -15.2405   20.4736 C   0  0  2  0  0  0  0  0  0  0  0  0
    6.9917  -16.1483   19.5275 N   0  0  0  0  0  0  0  0  0  0  0  0
    7.1292  -15.4154   21.8356 C   0  0  0  0  0  0  0  0  0  0  0  0
    5.9207  -15.2372   22.0790 O   0  0  0  0  0  0  0  0  0  0  0  0
    7.1494  -17.0858   24.7002 C   0  0  0  0  0  0  0  0  0  0  0  0
    7.4965  -15.6736   24.2604 C   0  0  2  0  0  0  0  0  0  0  0  0
    7.9829  -15.7881   22.9050 N   0  0  0  0  0  0  0  0  0  0  0  0
    8.5089  -15.0619   25.1509 C   0  0  0  0  0  0  0  0  0  0  0  0
    9.7165  -15.1072   24.8289 O   0  0  0  0  0  0  0  0  0  0  0  0
    8.1461  -14.4238   26.3633 N   0  0  0  0  0  0  0  0  0  0  0  0
    6.8246  -14.3168   26.9405 C   0  0  0  0  0  0  0  0  0  0  0  0
    6.8028  -12.8564   27.3778 C   0  0  0  0  0  0  0  0  0  0  0  0
    8.2486  -12.5031   27.6451 C   0  0  0  0  0  0  0  0  0  0  0  0
    9.0280  -13.7432   27.2804 C   0  0  1  0  0  0  0  0  0  0  0  0
    9.2247  -14.5636   28.4877 C   0  0  0  0  0  0  0  0  0  0  0  0
    8.5621  -15.5798   28.7921 O   0  0  0  0  0  0  0  0  0  0  0  0
   10.2326  -14.2153   29.4095 O   0  0  0  0  0  0  0  0  0  0  0  0
  2  1  1  0
  3  4  1  1
  3  2  1  0
  5  7  1  0
  5  3  1  0
  5  6  1  6
  7 11  1  0
  8  7  2  0
 10  9  1  1
 10 12  1  0
 11 10  1  0
 12 13  2  0
 12 14  1  0
 14 18  1  0
 14 15  1  0
 15 16  1  0
 17 16  1  0
 18 17  1  0
 19 21  1  0
 18 19  1  1
 20 19  2  0
M  END
$$$$
