IAP.pdb
     RDKit          3D

 21 21  0  0  1  0  0  0  0  0999 V2000
   11.2002  -15.2823   30.3848 C   0  0  0  0  0  0  0  0  0  0  0  0
    9.7924  -15.7405   30.0426 C   0  0  0  0  0  0  0  0  0  0  0  0
    9.6210  -15.6119   28.5463 C   0  0  2  0  0  0  0  0  0  0  0  0
   10.0556  -14.2405   28.0723 C   0  0  0  0  0  0  0  0  0  0  0  0
    8.2660  -15.9872   28.0717 C   0  0  2  0  0  0  0  0  0  0  0  0
    7.9221  -17.3263   28.5499 N   0  0  0  0  0  0  0  0  0  0  0  0
    8.0019  -15.8354   26.6383 C   0  0  0  0  0  0  0  0  0  0  0  0
    8.0711  -16.8214   25.8803 O   0  0  0  0  0  0  0  0  0  0  0  0
    7.2150  -13.0174   24.3547 C   0  0  0  0  0  0  0  0  0  0  0  0
    7.3893  -14.4954   24.6609 C   0  0  2  0  0  0  0  0  0  0  0  0
    7.6636  -14.5777   26.0768 N   0  0  0  0  0  0  0  0  0  0  0  0
    8.4839  -15.0894   23.8602 C   0  0  0  0  0  0  0  0  0  0  0  0
    9.5441  -15.4311   24.4288 O   0  0  0  0  0  0  0  0  0  0  0  0
    8.3633  -15.2823   22.4613 N   0  0  0  0  0  0  0  0  0  0  0  0
    7.4116  -14.6628   21.5661 C   0  0  0  0  0  0  0  0  0  0  0  0
    6.9766  -15.8519   20.7168 C   0  0  0  0  0  0  0  0  0  0  0  0
    8.1569  -16.7970   20.7276 C   0  0  0  0  0  0  0  0  0  0  0  0
    9.1722  -16.1442   21.6338 C   0  0  1  0  0  0  0  0  0  0  0  0
   10.0965  -15.3349   20.8214 C   0  0  0  0  0  0  0  0  0  0  0  0
   11.1233  -15.7602   20.2477 O   0  0  0  0  0  0  0  0  0  0  0  0
    9.8462  -13.9590   20.6453 O   0  0  0  0  0  0  0  0  0  0  0  0
  2  1  1  0
  3  4  1  1
  3  2  1  0
  5  7  1  0
  5  3  1  0
  5  6  1  6
  7 11  1  0
  8  7  2  0
 10  9  1  6
 10 12  1  0
 11 10  1  0
 12 13  2  0
 12 14  1  0
 14 18  1  0
 14 15  1  0
 15 16  1  0
 17 16  1  0
 18 17  1  0
 19 21  1  0
 18 19  1  6
 20 19  2  0
M  END
$$$$
