YDG.pdb
     RDKit          3D

 25 25  0  0  1  0  0  0  0  0999 V2000
-24241.6934-15307.3584-16708.5918 O   0  0  0  0  0  0  0  0  0  0  0  0
-24242.9395-15306.9375-16708.1328 C   0  0  0  0  0  0  0  0  0  0  0  0
-24243.8516-15307.8516-16707.6543 C   0  0  0  0  0  0  0  0  0  0  0  0
-24245.1016-15307.4922-16707.1875 C   0  0  0  0  0  0  0  0  0  0  0  0
-24245.4492-15306.1475-16707.1875 C   0  0  0  0  0  0  0  0  0  0  0  0
-24246.7559-15305.7100-16706.7031 C   0  0  0  0  0  0  0  0  0  0  0  0
-24247.8008-15305.5713-16707.7832 C   0  0  2  0  0  0  0  0  0  0  0  0
-24247.2988-15304.8652-16708.9414 N   0  0  0  0  0  0  0  0  0  0  0  0
-24248.8965-15304.7393-16707.1914 C   0  0  0  0  0  0  0  0  0  0  0  0
-24248.6055-15303.9541-16706.2656 O   0  0  0  0  0  0  0  0  0  0  0  0
-24244.5684-15305.2031-16707.6523 C   0  0  0  0  0  0  0  0  0  0  0  0
-24243.3242-15305.6094-16708.1133 C   0  0  0  0  0  0  0  0  0  0  0  0
-24250.2266-15304.8145-16707.6406 N   0  0  0  0  0  0  0  0  0  0  0  0
-24251.0371-15305.9619-16707.1934 C   0  0  1  0  0  0  0  0  0  0  0  0
-24250.8438-15306.9893-16708.3066 C   0  0  0  0  0  0  0  0  0  0  0  0
-24249.6211-15307.7520-16708.0547 C   0  0  0  0  0  0  0  0  0  0  0  0
-24248.8438-15307.9531-16709.0586 O   0  0  0  0  0  0  0  0  0  0  0  0
-24250.5645-15306.4609-16705.9141 C   0  0  0  0  0  0  0  0  0  0  0  0
-24249.8867-15307.5205-16705.7715 O   0  0  0  0  0  0  0  0  0  0  0  0
-24249.3027-15308.2490-16706.7949 O   0  0  0  0  0  0  0  0  0  0  0  0
-24250.8633-15305.7529-16704.7109 N   0  0  0  0  0  0  0  0  0  0  0  0
-24251.6641-15304.5322-16704.7363 C   0  0  0  0  0  0  0  0  0  0  0  0
-24252.7207-15304.6133-16705.7578 C   0  0  0  0  0  0  0  0  0  0  0  0
-24253.9180-15304.6924-16705.4121 O   0  0  0  0  0  0  0  0  0  0  0  0
-24252.3965-15304.5986-16707.0977 O   0  0  0  0  0  0  0  0  0  0  0  0
  2  1  1  0
  3  2  2  0
  4  5  2  0
  4  3  1  0
  5 11  1  0
  6  5  1  0
  7  6  1  0
  7  8  1  6
  9  7  1  0
  9 10  2  0
 11 12  2  0
 12  2  1  0
 13  9  1  0
 14 13  1  0
 14 15  1  6
 16 15  1  0
 16 17  2  0
 18 14  1  0
 19 18  2  0
 20 16  1  0
 21 18  1  0
 22 21  1  0
 23 22  1  0
 24 23  2  0
 25 23  1  0
M  END
$$$$
