YDG.pdb
     RDKit          3D

 25 25  0  0  1  0  0  0  0  0999 V2000
    5.4352  -10.8838   27.8574 O   0  0  0  0  0  0  0  0  0  0  0  0
    6.1356  -11.7960   27.0762 C   0  0  0  0  0  0  0  0  0  0  0  0
    7.5034  -11.9100   27.2045 C   0  0  0  0  0  0  0  0  0  0  0  0
    8.2489  -12.7976   26.4556 C   0  0  0  0  0  0  0  0  0  0  0  0
    7.6100  -13.6112   25.5356 C   0  0  0  0  0  0  0  0  0  0  0  0
    8.3512  -14.5671   24.7140 C   0  0  0  0  0  0  0  0  0  0  0  0
    7.5642  -15.7957   24.3316 C   0  0  2  0  0  0  0  0  0  0  0  0
    7.1849  -16.5792   25.4891 N   0  0  0  0  0  0  0  0  0  0  0  0
    8.4909  -16.6350   23.5102 C   0  0  0  0  0  0  0  0  0  0  0  0
    8.8681  -17.7254   23.9766 O   0  0  0  0  0  0  0  0  0  0  0  0
    6.2464  -13.5272   25.3783 C   0  0  0  0  0  0  0  0  0  0  0  0
    5.5276  -12.6197   26.1517 C   0  0  0  0  0  0  0  0  0  0  0  0
    8.9420  -16.2277   22.2363 N   0  0  0  0  0  0  0  0  0  0  0  0
    9.7424  -17.1876   21.4590 C   0  0  1  0  0  0  0  0  0  0  0  0
    9.2586  -16.9833   20.0287 C   0  0  0  0  0  0  0  0  0  0  0  0
    7.9769  -17.6740   19.8424 C   0  0  0  0  0  0  0  0  0  0  0  0
    7.8324  -18.7971   20.4459 O   0  0  0  0  0  0  0  0  0  0  0  0
   11.1691  -16.9119   21.5921 C   0  0  0  0  0  0  0  0  0  0  0  0
   12.0604  -17.4336   20.8630 O   0  0  0  0  0  0  0  0  0  0  0  0
    6.9630  -17.1437   19.0520 O   0  0  0  0  0  0  0  0  0  0  0  0
   11.6316  -16.0065   22.5837 N   0  0  0  0  0  0  0  0  0  0  0  0
   13.0557  -15.7162   22.7452 C   0  0  0  0  0  0  0  0  0  0  0  0
   13.5834  -16.3330   23.9648 C   0  0  0  0  0  0  0  0  0  0  0  0
   12.9297  -17.2275   24.5520 O   0  0  0  0  0  0  0  0  0  0  0  0
   14.8062  -15.9404   24.4868 O   0  0  0  0  0  0  0  0  0  0  0  0
  2  1  1  0
  3  2  2  0
  4  5  2  0
  4  3  1  0
  5 11  1  0
  6  5  1  0
  7  6  1  0
  7  8  1  1
  9  7  1  0
  9 10  2  0
 11 12  2  0
 12  2  1  0
 13  9  1  0
 14 13  1  0
 14 15  1  6
 16 15  1  0
 16 17  2  0
 18 14  1  0
 19 18  2  0
 20 16  1  0
 21 18  1  0
 22 21  1  0
 23 22  1  0
 24 23  2  0
 25 23  1  0
M  END
$$$$
