YDG.pdb
     RDKit          3D

 25 25  0  0  1  0  0  0  0  0999 V2000
    4.9653  -10.6869   27.7690 O   0  0  0  0  0  0  0  0  0  0  0  0
    5.8330  -11.5700   27.1363 C   0  0  0  0  0  0  0  0  0  0  0  0
    5.4825  -12.1398   25.9310 C   0  0  0  0  0  0  0  0  0  0  0  0
    6.3039  -13.0221   25.2591 C   0  0  0  0  0  0  0  0  0  0  0  0
    7.5308  -13.3563   25.8065 C   0  0  0  0  0  0  0  0  0  0  0  0
    8.4389  -14.2878   25.1388 C   0  0  0  0  0  0  0  0  0  0  0  0
    7.7810  -15.5581   24.6607 C   0  0  2  0  0  0  0  0  0  0  0  0
    7.2843  -16.3592   25.7603 N   0  0  0  0  0  0  0  0  0  0  0  0
    8.8583  -16.3472   23.9862 C   0  0  0  0  0  0  0  0  0  0  0  0
    9.4085  -17.2611   24.6270 O   0  0  0  0  0  0  0  0  0  0  0  0
    7.9165  -12.8087   27.0075 C   0  0  0  0  0  0  0  0  0  0  0  0
    7.0612  -11.9222   27.6563 C   0  0  0  0  0  0  0  0  0  0  0  0
    9.2611  -16.0854   22.6590 N   0  0  0  0  0  0  0  0  0  0  0  0
   10.4056  -16.8467   22.1328 C   0  0  1  0  0  0  0  0  0  0  0  0
   10.2016  -16.8042   20.6235 C   0  0  0  0  0  0  0  0  0  0  0  0
   11.2359  -17.6128   19.9670 C   0  0  0  0  0  0  0  0  0  0  0  0
   12.2539  -16.9839   19.5039 O   0  0  0  0  0  0  0  0  0  0  0  0
   11.6701  -16.2332   22.5251 C   0  0  0  0  0  0  0  0  0  0  0  0
   11.9159  -14.9970   22.4272 O   0  0  0  0  0  0  0  0  0  0  0  0
   11.1256  -18.9941   19.8487 O   0  0  0  0  0  0  0  0  0  0  0  0
   12.7160  -17.0325   23.0581 N   0  0  0  0  0  0  0  0  0  0  0  0
   14.0019  -16.4493   23.4388 C   0  0  0  0  0  0  0  0  0  0  0  0
   14.8935  -17.4651   24.0042 C   0  0  0  0  0  0  0  0  0  0  0  0
   14.5008  -18.6493   24.1284 O   0  0  0  0  0  0  0  0  0  0  0  0
   16.1779  -17.1359   24.4090 O   0  0  0  0  0  0  0  0  0  0  0  0
  2  1  1  0
  3  2  2  0
  4  5  2  0
  4  3  1  0
  5 11  1  0
  6  5  1  0
  7  6  1  0
  7  8  1  1
  9  7  1  0
  9 10  2  0
 11 12  2  0
 12  2  1  0
 13  9  1  0
 14 13  1  0
 14 15  1  6
 16 15  1  0
 16 17  2  0
 18 14  1  0
 19 18  2  0
 20 16  1  0
 21 18  1  0
 22 21  1  0
 23 22  1  0
 24 23  2  0
 25 23  1  0
M  END
$$$$
