LDK.pdb
     RDKit          3D

 26 25  0  0  1  0  0  0  0  0999 V2000
   17.9126  -12.4636  -19.0549 C   0  0  0  0  0  0  0  0  0  0  0  0
   16.7141  -11.9310  -18.2585 C   0  0  2  0  0  0  0  0  0  0  0  0
   15.6425  -11.4769  -19.2147 C   0  0  0  0  0  0  0  0  0  0  0  0
   17.1510  -10.7669  -17.4246 C   0  0  0  0  0  0  0  0  0  0  0  0
   18.2752  -11.1038  -16.4744 C   0  0  2  0  0  0  0  0  0  0  0  0
   17.8169  -11.9840  -15.4591 N   0  0  0  0  0  0  0  0  0  0  0  0
   18.8392   -9.8274  -15.9726 C   0  0  0  0  0  0  0  0  0  0  0  0
   18.1494   -9.1963  -15.1306 O   0  0  0  0  0  0  0  0  0  0  0  0
   20.0720   -9.2919  -16.3729 N   0  0  0  0  0  0  0  0  0  0  0  0
   20.5385   -8.0626  -15.7728 C   0  0  1  0  0  0  0  0  0  0  0  0
   21.9890   -8.2192  -15.4200 C   0  0  0  0  0  0  0  0  0  0  0  0
   22.2241   -9.0663  -14.2335 C   0  0  0  0  0  0  0  0  0  0  0  0
   21.2984   -9.1894  -13.3785 O   0  0  0  0  0  0  0  0  0  0  0  0
   20.3062   -6.8931  -16.6664 C   0  0  0  0  0  0  0  0  0  0  0  0
   20.6773   -7.0000  -17.8599 O   0  0  0  0  0  0  0  0  0  0  0  0
   23.3965   -9.7433  -13.9846 O   0  0  0  0  0  0  0  0  0  0  0  0
   19.6934   -5.7541  -16.1278 N   0  0  0  0  0  0  0  0  0  0  0  0
   19.3643   -4.6289  -17.0841 C   0  0  1  0  0  0  0  0  0  0  0  0
   17.8944   -4.7207  -17.1862 C   0  0  0  0  0  0  0  0  0  0  0  0
   17.0577   -3.6758  -17.7597 C   0  0  0  0  0  0  0  0  0  0  0  0
   15.5883   -3.7848  -17.7996 C   0  0  0  0  0  0  0  0  0  0  0  0
   15.0587   -2.5499  -18.5728 C   0  0  0  0  0  0  0  0  0  0  0  0
   13.6253   -2.5782  -18.5890 N   0  0  0  0  0  0  0  0  0  0  0  0
   19.9426   -3.4424  -16.4483 C   0  0  0  0  0  0  0  0  0  0  0  0
   20.4639   -3.2955  -15.1972 O   0  0  0  0  0  0  0  0  0  0  0  0
   19.9714   -2.3620  -17.1529 O   0  0  0  0  0  0  0  0  0  0  0  0
  2  1  1  6
  2  4  1  0
  3  2  1  0
  5  4  1  0
  5  6  1  1
  7  5  1  0
  8  7  2  0
  9  7  1  0
 10 14  1  0
 10  9  1  0
 10 11  1  6
 12 13  2  0
 12 11  1  0
 14 15  2  0
 16 12  1  0
 17 18  1  0
 17 14  1  0
 18 19  1  1
 20 19  1  0
 21 20  1  0
 22 21  1  0
 23 22  1  0
 24 25  1  0
 24 18  1  0
 26 24  2  0
M  END
$$$$
