LDK.pdb
     RDKit          3D

 26 25  0  0  1  0  0  0  0  0999 V2000
   25.5606  -12.6254  -19.7638 C   0  0  0  0  0  0  0  0  0  0  0  0
   24.1878  -13.3070  -19.6918 C   0  0  2  0  0  0  0  0  0  0  0  0
   23.9127  -14.0124  -20.9939 C   0  0  0  0  0  0  0  0  0  0  0  0
   23.1314  -12.2710  -19.4638 C   0  0  0  0  0  0  0  0  0  0  0  0
   23.3651  -11.4458  -18.2210 C   0  0  2  0  0  0  0  0  0  0  0  0
   23.5153  -12.2893  -17.0889 N   0  0  0  0  0  0  0  0  0  0  0  0
   22.2567  -10.4664  -18.1149 C   0  0  0  0  0  0  0  0  0  0  0  0
   22.0164   -9.7712  -19.1357 O   0  0  0  0  0  0  0  0  0  0  0  0
   21.4753  -10.2723  -16.9667 N   0  0  0  0  0  0  0  0  0  0  0  0
   20.4054   -9.3010  -16.9941 C   0  0  1  0  0  0  0  0  0  0  0  0
   19.4070   -9.6543  -15.9303 C   0  0  0  0  0  0  0  0  0  0  0  0
   18.6341  -10.8780  -16.2234 C   0  0  0  0  0  0  0  0  0  0  0  0
   18.2829  -11.1065  -17.4182 O   0  0  0  0  0  0  0  0  0  0  0  0
   20.9209   -7.9121  -16.8342 C   0  0  0  0  0  0  0  0  0  0  0  0
   21.8022   -7.7239  -15.9615 O   0  0  0  0  0  0  0  0  0  0  0  0
   18.2607  -11.8042  -15.2761 O   0  0  0  0  0  0  0  0  0  0  0  0
   20.3972   -6.9078  -17.6588 N   0  0  0  0  0  0  0  0  0  0  0  0
   20.8758   -5.4936  -17.4144 C   0  0  1  0  0  0  0  0  0  0  0  0
   20.7501   -4.8819  -18.7522 C   0  0  0  0  0  0  0  0  0  0  0  0
   21.1023   -3.4994  -19.0446 C   0  0  0  0  0  0  0  0  0  0  0  0
   20.9452   -2.9207  -20.3911 C   0  0  0  0  0  0  0  0  0  0  0  0
   21.4632   -1.4610  -20.3250 C   0  0  0  0  0  0  0  0  0  0  0  0
   21.1819   -0.8003  -21.5660 N   0  0  0  0  0  0  0  0  0  0  0  0
   20.0042   -5.0041  -16.3434 C   0  0  0  0  0  0  0  0  0  0  0  0
   18.7363   -5.3828  -16.0153 O   0  0  0  0  0  0  0  0  0  0  0  0
   20.4806   -4.0743  -15.5865 O   0  0  0  0  0  0  0  0  0  0  0  0
  2  1  1  6
  2  4  1  0
  3  2  1  0
  5  4  1  0
  5  6  1  1
  7  5  1  0
  8  7  2  0
  9  7  1  0
 10 14  1  0
 10  9  1  0
 10 11  1  1
 12 13  2  0
 12 11  1  0
 14 15  2  0
 16 12  1  0
 17 18  1  0
 17 14  1  0
 18 19  1  6
 20 19  1  0
 21 20  1  0
 22 21  1  0
 23 22  1  0
 24 25  1  0
 24 18  1  0
 26 24  2  0
M  END
$$$$
