LDK.pdb
     RDKit          3D

 26 25  0  0  1  0  0  0  0  0999 V2000
   18.1966  -15.1176  -16.6235 C   0  0  0  0  0  0  0  0  0  0  0  0
   19.7003  -14.8151  -16.5802 C   0  0  2  0  0  0  0  0  0  0  0  0
   20.3801  -15.7982  -15.6634 C   0  0  0  0  0  0  0  0  0  0  0  0
   19.9122  -13.4292  -16.0551 C   0  0  0  0  0  0  0  0  0  0  0  0
   19.2307  -12.3675  -16.8849 C   0  0  2  0  0  0  0  0  0  0  0  0
   19.7168  -12.3952  -18.2185 N   0  0  0  0  0  0  0  0  0  0  0  0
   19.4108  -11.0690  -16.1919 C   0  0  0  0  0  0  0  0  0  0  0  0
   18.9887  -10.9957  -15.0088 O   0  0  0  0  0  0  0  0  0  0  0  0
   20.0119   -9.9391  -16.7653 N   0  0  0  0  0  0  0  0  0  0  0  0
   20.1262   -8.7262  -15.9877 C   0  0  1  0  0  0  0  0  0  0  0  0
   21.5009   -8.1563  -16.1838 C   0  0  0  0  0  0  0  0  0  0  0  0
   22.5801   -9.0090  -15.6463 C   0  0  0  0  0  0  0  0  0  0  0  0
   23.4182   -9.5121  -16.4508 O   0  0  0  0  0  0  0  0  0  0  0  0
   19.0615   -7.7454  -16.3412 C   0  0  0  0  0  0  0  0  0  0  0  0
   18.7528   -7.6451  -17.5529 O   0  0  0  0  0  0  0  0  0  0  0  0
   22.7440   -9.3022  -14.3114 O   0  0  0  0  0  0  0  0  0  0  0  0
   18.4733   -7.0002  -15.3109 N   0  0  0  0  0  0  0  0  0  0  0  0
   17.3716   -6.0376  -15.6964 C   0  0  1  0  0  0  0  0  0  0  0  0
   16.2897   -6.4047  -14.7615 C   0  0  0  0  0  0  0  0  0  0  0  0
   14.9204   -5.9239  -14.8817 C   0  0  0  0  0  0  0  0  0  0  0  0
   13.7704   -6.8445  -14.9356 C   0  0  0  0  0  0  0  0  0  0  0  0
   12.5042   -5.9816  -15.1706 C   0  0  0  0  0  0  0  0  0  0  0  0
   11.3359   -6.7924  -14.9878 N   0  0  0  0  0  0  0  0  0  0  0  0
   17.9899   -4.7167  -15.5574 C   0  0  0  0  0  0  0  0  0  0  0  0
   17.6807   -3.5440  -16.1803 O   0  0  0  0  0  0  0  0  0  0  0  0
   18.9781   -4.6220  -14.7334 O   0  0  0  0  0  0  0  0  0  0  0  0
  2  1  1  1
  2  4  1  0
  3  2  1  0
  5  4  1  0
  5  6  1  6
  7  5  1  0
  8  7  2  0
  9  7  1  0
 10 14  1  0
 10  9  1  0
 10 11  1  6
 12 13  2  0
 12 11  1  0
 14 15  2  0
 16 12  1  0
 17 18  1  0
 17 14  1  0
 18 19  1  1
 20 19  1  0
 21 20  1  0
 22 21  1  0
 23 22  1  0
 24 25  1  0
 24 18  1  0
 26 24  2  0
M  END
$$$$
