LDK.pdb
     RDKit          3D

 26 25  0  0  1  0  0  0  0  0999 V2000
   22.4031  -12.1318  -18.4031 C   0  0  0  0  0  0  0  0  0  0  0  0
   22.2319  -12.8313  -17.0482 C   0  0  2  0  0  0  0  0  0  0  0  0
   21.0898  -13.8097  -17.1333 C   0  0  0  0  0  0  0  0  0  0  0  0
   21.9237  -11.8095  -15.9983 C   0  0  0  0  0  0  0  0  0  0  0  0
   23.0351  -10.8071  -15.7985 C   0  0  2  0  0  0  0  0  0  0  0  0
   24.1525  -11.4255  -15.1784 N   0  0  0  0  0  0  0  0  0  0  0  0
   22.4753   -9.6564  -15.0493 C   0  0  0  0  0  0  0  0  0  0  0  0
   22.1934   -9.8526  -13.8388 O   0  0  0  0  0  0  0  0  0  0  0  0
   22.2455   -8.3867  -15.5987 N   0  0  0  0  0  0  0  0  0  0  0  0
   21.6406   -7.3601  -14.7809 C   0  0  1  0  0  0  0  0  0  0  0  0
   22.6315   -6.2486  -14.5920 C   0  0  0  0  0  0  0  0  0  0  0  0
   22.1461   -5.1615  -13.7184 C   0  0  0  0  0  0  0  0  0  0  0  0
   21.4473   -5.4587  -12.7054 O   0  0  0  0  0  0  0  0  0  0  0  0
   20.3621   -6.8716  -15.3701 C   0  0  0  0  0  0  0  0  0  0  0  0
   20.3879   -6.4968  -16.5670 O   0  0  0  0  0  0  0  0  0  0  0  0
   22.4020   -3.8255  -13.9288 O   0  0  0  0  0  0  0  0  0  0  0  0
   19.2176   -6.8593  -14.5621 N   0  0  0  0  0  0  0  0  0  0  0  0
   17.9117   -6.4700  -15.2194 C   0  0  1  0  0  0  0  0  0  0  0  0
   17.0061   -7.5537  -14.7893 C   0  0  0  0  0  0  0  0  0  0  0  0
   15.5886   -7.6007  -15.1199 C   0  0  0  0  0  0  0  0  0  0  0  0
   14.7346   -8.7404  -14.7395 C   0  0  0  0  0  0  0  0  0  0  0  0
   13.3243   -8.4702  -15.3238 C   0  0  0  0  0  0  0  0  0  0  0  0
   12.4555   -9.5616  -14.9921 N   0  0  0  0  0  0  0  0  0  0  0  0
   17.6557   -5.1149  -14.7249 C   0  0  0  0  0  0  0  0  0  0  0  0
   18.3619   -4.3712  -13.8265 O   0  0  0  0  0  0  0  0  0  0  0  0
   16.6116   -4.5153  -15.1884 O   0  0  0  0  0  0  0  0  0  0  0  0
  2  1  1  6
  2  4  1  0
  3  2  1  0
  5  4  1  0
  5  6  1  1
  7  5  1  0
  8  7  2  0
  9  7  1  0
 10 14  1  0
 10  9  1  0
 10 11  1  6
 12 13  2  0
 12 11  1  0
 14 15  2  0
 16 12  1  0
 17 18  1  0
 17 14  1  0
 18 19  1  1
 20 19  1  0
 21 20  1  0
 22 21  1  0
 23 22  1  0
 24 25  1  0
 24 18  1  0
 26 24  2  0
M  END
$$$$
