LDK.pdb
     RDKit          3D

 26 25  0  0  1  0  0  0  0  0999 V2000
   25.1944  -15.5131  -20.0160 C   0  0  0  0  0  0  0  0  0  0  0  0
   25.6521  -16.9543  -20.2764 C   0  0  2  0  0  0  0  0  0  0  0  0
   25.0294  -17.4517  -21.5546 C   0  0  0  0  0  0  0  0  0  0  0  0
   25.2086  -17.8274  -19.1440 C   0  0  0  0  0  0  0  0  0  0  0  0
   25.7846  -17.4124  -17.8113 C   0  0  2  0  0  0  0  0  0  0  0  0
   27.0361  -16.7673  -17.9934 N   0  0  0  0  0  0  0  0  0  0  0  0
   25.8338  -18.6162  -16.9467 C   0  0  0  0  0  0  0  0  0  0  0  0
   24.7711  -19.2820  -16.8430 O   0  0  0  0  0  0  0  0  0  0  0  0
   26.9720  -19.0487  -16.2510 N   0  0  0  0  0  0  0  0  0  0  0  0
   26.9133  -20.2763  -15.4906 C   0  0  1  0  0  0  0  0  0  0  0  0
   28.3039  -20.8243  -15.3527 C   0  0  0  0  0  0  0  0  0  0  0  0
   28.4613  -22.1892  -15.8940 C   0  0  0  0  0  0  0  0  0  0  0  0
   27.7291  -23.1153  -15.4367 O   0  0  0  0  0  0  0  0  0  0  0  0
   26.2623  -20.0708  -14.1661 C   0  0  0  0  0  0  0  0  0  0  0  0
   26.6198  -19.0698  -13.4999 O   0  0  0  0  0  0  0  0  0  0  0  0
   29.3618  -22.5343  -16.8762 O   0  0  0  0  0  0  0  0  0  0  0  0
   25.2990  -20.9974  -13.7460 N   0  0  0  0  0  0  0  0  0  0  0  0
   24.6160  -20.7322  -12.4223 C   0  0  1  0  0  0  0  0  0  0  0  0
   23.1896  -20.9003  -12.7635 C   0  0  0  0  0  0  0  0  0  0  0  0
   22.1002  -20.6396  -11.8329 C   0  0  0  0  0  0  0  0  0  0  0  0
   20.6944  -20.9193  -12.1768 C   0  0  0  0  0  0  0  0  0  0  0  0
   19.8329  -20.4973  -10.9590 C   0  0  0  0  0  0  0  0  0  0  0  0
   18.4461  -20.6891  -11.2687 N   0  0  0  0  0  0  0  0  0  0  0  0
   25.2287  -21.6983  -11.5071 C   0  0  0  0  0  0  0  0  0  0  0  0
   25.3952  -21.6282  -10.1557 O   0  0  0  0  0  0  0  0  0  0  0  0
   25.6911  -22.7824  -12.0316 O   0  0  0  0  0  0  0  0  0  0  0  0
  2  1  1  1
  2  4  1  0
  3  2  1  0
  5  4  1  0
  5  6  1  6
  7  5  1  0
  8  7  2  0
  9  7  1  0
 10 14  1  0
 10  9  1  0
 10 11  1  1
 12 13  2  0
 12 11  1  0
 14 15  2  0
 16 12  1  0
 17 18  1  0
 17 14  1  0
 18 19  1  6
 20 19  1  0
 21 20  1  0
 22 21  1  0
 23 22  1  0
 24 25  1  0
 24 18  1  0
 26 24  2  0
M  END
$$$$
