LDK.pdb
     RDKit          3D

 26 25  0  0  1  0  0  0  0  0999 V2000
   28.0914  -21.4997   -7.6029 C   0  0  0  0  0  0  0  0  0  0  0  0
   27.7245  -20.1677   -8.2703 C   0  0  2  0  0  0  0  0  0  0  0  0
   27.5173  -19.1190   -7.2090 C   0  0  0  0  0  0  0  0  0  0  0  0
   26.4556  -20.3353   -9.0469 C   0  0  0  0  0  0  0  0  0  0  0  0
   26.5789  -21.3223  -10.1830 C   0  0  2  0  0  0  0  0  0  0  0  0
   27.9048  -21.3283  -10.6905 N   0  0  0  0  0  0  0  0  0  0  0  0
   25.5387  -20.9880  -11.1856 C   0  0  0  0  0  0  0  0  0  0  0  0
   24.4398  -20.5657  -10.7414 O   0  0  0  0  0  0  0  0  0  0  0  0
   25.7032  -21.1121  -12.5728 N   0  0  0  0  0  0  0  0  0  0  0  0
   24.6166  -20.7417  -13.4508 C   0  0  1  0  0  0  0  0  0  0  0  0
   25.1756  -20.4537  -14.8137 C   0  0  0  0  0  0  0  0  0  0  0  0
   25.9971  -19.2279  -14.8723 C   0  0  0  0  0  0  0  0  0  0  0  0
   27.0772  -19.2482  -15.5325 O   0  0  0  0  0  0  0  0  0  0  0  0
   23.5622  -21.7938  -13.4928 C   0  0  0  0  0  0  0  0  0  0  0  0
   23.9397  -22.9880  -13.4228 O   0  0  0  0  0  0  0  0  0  0  0  0
   25.6689  -18.0446  -14.2505 O   0  0  0  0  0  0  0  0  0  0  0  0
   22.2247  -21.3925  -13.6068 N   0  0  0  0  0  0  0  0  0  0  0  0
   21.1726  -22.4795  -13.5824 C   0  0  1  0  0  0  0  0  0  0  0  0
   20.0739  -21.8392  -12.8326 C   0  0  0  0  0  0  0  0  0  0  0  0
   18.8483  -22.5268  -12.4508 C   0  0  0  0  0  0  0  0  0  0  0  0
   17.7403  -21.8308  -11.7722 C   0  0  0  0  0  0  0  0  0  0  0  0
   16.6311  -22.8819  -11.5113 C   0  0  0  0  0  0  0  0  0  0  0  0
   15.6556  -22.3313  -10.6163 N   0  0  0  0  0  0  0  0  0  0  0  0
   20.9556  -22.7950  -14.9965 C   0  0  0  0  0  0  0  0  0  0  0  0
   20.3549  -23.8809  -15.5610 O   0  0  0  0  0  0  0  0  0  0  0  0
   21.3912  -21.9373  -15.8562 O   0  0  0  0  0  0  0  0  0  0  0  0
  2  1  1  1
  2  4  1  0
  3  2  1  0
  5  4  1  0
  5  6  1  6
  7  5  1  0
  8  7  2  0
  9  7  1  0
 10 14  1  0
 10  9  1  0
 10 11  1  6
 12 13  2  0
 12 11  1  0
 14 15  2  0
 16 12  1  0
 17 18  1  0
 17 14  1  0
 18 19  1  6
 20 19  1  0
 21 20  1  0
 22 21  1  0
 23 22  1  0
 24 25  1  0
 24 18  1  0
 26 24  2  0
M  END
$$$$
