TGV.pdb
     RDKit          3D

 19 18  0  0  1  0  0  0  0  0999 V2000
    7.9051  -12.6569   18.4807 C   0  0  0  0  0  0  0  0  0  0  0  0
    8.0916  -14.1333   18.3062 C   0  0  1  0  0  0  0  0  0  0  0  0
    8.9406  -14.4073   17.2092 O   0  0  0  0  0  0  0  0  0  0  0  0
    8.8105  -14.6899   19.5254 C   0  0  2  0  0  0  0  0  0  0  0  0
    8.9064  -16.1164   19.3278 N   0  0  0  0  0  0  0  0  0  0  0  0
    8.0547  -14.4322   20.7684 C   0  0  0  0  0  0  0  0  0  0  0  0
    7.9172  -13.2466   21.2324 O   0  0  0  0  0  0  0  0  0  0  0  0
    7.4428  -15.4518   21.5181 N   0  0  0  0  0  0  0  0  0  0  0  0
    6.6356  -15.1965   22.6985 C   0  0  0  0  0  0  0  0  0  0  0  0
    7.5443  -14.7449   23.7999 C   0  0  0  0  0  0  0  0  0  0  0  0
    8.8040  -14.7303   23.6186 O   0  0  0  0  0  0  0  0  0  0  0  0
    5.9737  -12.9002   27.2951 C   0  0  0  0  0  0  0  0  0  0  0  0
    7.3378  -12.5370   26.7062 C   0  0  2  0  0  0  0  0  0  0  0  0
    7.1803  -11.4492   25.6643 C   0  0  0  0  0  0  0  0  0  0  0  0
    7.9541  -13.7351   26.0190 C   0  0  2  0  0  0  0  0  0  0  0  0
    7.0599  -14.3255   25.0566 N   0  0  0  0  0  0  0  0  0  0  0  0
    8.3526  -14.7183   27.0421 C   0  0  0  0  0  0  0  0  0  0  0  0
    7.7828  -15.8172   27.1596 O   0  0  0  0  0  0  0  0  0  0  0  0
    9.3930  -14.4066   27.8971 O   0  0  0  0  0  0  0  0  0  0  0  0
  2  1  1  1
  2  3  1  0
  4  6  1  0
  4  2  1  0
  4  5  1  6
  6  7  2  0
  6  8  1  0
  8  9  1  0
  9 10  1  0
 10 11  2  0
 13 12  1  6
 13 15  1  0
 14 13  1  0
 15 17  1  0
 16 10  1  0
 15 16  1  6
 17 18  2  0
 17 19  1  0
M  END
$$$$
