TGV.pdb
     RDKit          3D

 19 18  0  0  1  0  0  0  0  0999 V2000
    8.5965  -12.3421   20.3248 C   0  0  0  0  0  0  0  0  0  0  0  0
    7.4538  -13.1779   19.8343 C   0  0  1  0  0  0  0  0  0  0  0  0
    7.2951  -13.0427   18.4358 O   0  0  0  0  0  0  0  0  0  0  0  0
    7.7773  -14.6456   20.0666 C   0  0  2  0  0  0  0  0  0  0  0  0
    6.6545  -15.3972   19.5591 N   0  0  0  0  0  0  0  0  0  0  0  0
    7.9401  -14.9469   21.5038 C   0  0  0  0  0  0  0  0  0  0  0  0
    6.9659  -15.3882   22.2078 O   0  0  0  0  0  0  0  0  0  0  0  0
    9.1549  -14.7738   22.1897 N   0  0  0  0  0  0  0  0  0  0  0  0
    9.6885  -15.7516   23.1221 C   0  0  0  0  0  0  0  0  0  0  0  0
    9.5562  -15.1998   24.5079 C   0  0  0  0  0  0  0  0  0  0  0  0
   10.2624  -15.6783   25.4526 O   0  0  0  0  0  0  0  0  0  0  0  0
    6.0179  -13.4647   25.8627 C   0  0  0  0  0  0  0  0  0  0  0  0
    7.3077  -12.8023   26.3499 C   0  0  2  0  0  0  0  0  0  0  0  0
    7.6037  -11.5702   25.5203 C   0  0  0  0  0  0  0  0  0  0  0  0
    8.4796  -13.7454   26.1925 C   0  0  2  0  0  0  0  0  0  0  0  0
    8.6666  -14.1515   24.8234 N   0  0  0  0  0  0  0  0  0  0  0  0
    8.2714  -14.9139   27.0661 C   0  0  0  0  0  0  0  0  0  0  0  0
    8.5701  -14.8980   28.2730 O   0  0  0  0  0  0  0  0  0  0  0  0
    7.7266  -16.0630   26.5243 O   0  0  0  0  0  0  0  0  0  0  0  0
  2  1  1  6
  2  3  1  0
  4  6  1  0
  4  2  1  0
  4  5  1  1
  6  7  2  0
  6  8  1  0
  8  9  1  0
  9 10  1  0
 10 11  2  0
 13 12  1  6
 13 15  1  0
 14 13  1  0
 15 17  1  0
 16 10  1  0
 15 16  1  6
 17 18  2  0
 17 19  1  0
M  END
$$$$
