TGV.pdb
     RDKit          3D

 19 18  0  0  1  0  0  0  0  0999 V2000
    8.8294  -18.8140   22.1975 C   0  0  0  0  0  0  0  0  0  0  0  0
    9.7084  -18.3999   21.0569 C   0  0  1  0  0  0  0  0  0  0  0  0
   10.1090  -19.5227   20.2967 O   0  0  0  0  0  0  0  0  0  0  0  0
    8.9057  -17.5287   20.1031 C   0  0  2  0  0  0  0  0  0  0  0  0
    9.7348  -17.3248   18.9395 N   0  0  0  0  0  0  0  0  0  0  0  0
    8.5919  -16.2139   20.6994 C   0  0  0  0  0  0  0  0  0  0  0  0
    9.4629  -15.2763   20.7442 O   0  0  0  0  0  0  0  0  0  0  0  0
    7.3367  -15.9029   21.2506 N   0  0  0  0  0  0  0  0  0  0  0  0
    6.9942  -14.5848   21.7562 C   0  0  0  0  0  0  0  0  0  0  0  0
    7.4928  -14.4780   23.1643 C   0  0  0  0  0  0  0  0  0  0  0  0
    8.2730  -15.3685   23.6314 O   0  0  0  0  0  0  0  0  0  0  0  0
    7.9005  -11.9735   27.4348 C   0  0  0  0  0  0  0  0  0  0  0  0
    7.2051  -12.0935   26.0778 C   0  0  2  0  0  0  0  0  0  0  0  0
    5.7104  -12.2425   26.2720 C   0  0  0  0  0  0  0  0  0  0  0  0
    7.6897  -13.3222   25.3409 C   0  0  2  0  0  0  0  0  0  0  0  0
    7.1310  -13.4137   24.0166 N   0  0  0  0  0  0  0  0  0  0  0  0
    7.3582  -14.5171   26.1375 C   0  0  0  0  0  0  0  0  0  0  0  0
    6.2675  -15.1036   26.0261 O   0  0  0  0  0  0  0  0  0  0  0  0
    8.2911  -14.9991   27.0365 O   0  0  0  0  0  0  0  0  0  0  0  0
  2  1  1  1
  2  3  1  0
  4  6  1  0
  4  2  1  0
  4  5  1  6
  6  7  2  0
  6  8  1  0
  8  9  1  0
  9 10  1  0
 10 11  2  0
 13 12  1  1
 13 15  1  0
 14 13  1  0
 15 17  1  0
 16 10  1  0
 15 16  1  6
 17 18  2  0
 17 19  1  0
M  END
$$$$
