TGV.pdb
     RDKit          3D

 19 18  0  0  1  0  0  0  0  0999 V2000
    7.7397  -12.7286   18.8319 C   0  0  0  0  0  0  0  0  0  0  0  0
    7.8274  -14.1787   18.4652 C   0  0  1  0  0  0  0  0  0  0  0  0
    8.5590  -14.3518   17.2676 O   0  0  0  0  0  0  0  0  0  0  0  0
    8.6197  -14.9138   19.5352 C   0  0  2  0  0  0  0  0  0  0  0  0
    8.6330  -16.3050   19.1510 N   0  0  0  0  0  0  0  0  0  0  0  0
    7.9836  -14.7937   20.8632 C   0  0  0  0  0  0  0  0  0  0  0  0
    7.9681  -13.6816   21.4978 O   0  0  0  0  0  0  0  0  0  0  0  0
    7.3606  -15.8725   21.5144 N   0  0  0  0  0  0  0  0  0  0  0  0
    6.5565  -15.7205   22.7146 C   0  0  0  0  0  0  0  0  0  0  0  0
    7.4542  -15.2759   23.8278 C   0  0  0  0  0  0  0  0  0  0  0  0
    8.7037  -15.1462   23.6233 O   0  0  0  0  0  0  0  0  0  0  0  0
    6.1474  -12.3102   25.8824 C   0  0  0  0  0  0  0  0  0  0  0  0
    6.9250  -13.2298   26.8254 C   0  0  2  0  0  0  0  0  0  0  0  0
    7.8689  -12.4141   27.6843 C   0  0  0  0  0  0  0  0  0  0  0  0
    7.7645  -14.2099   26.0368 C   0  0  2  0  0  0  0  0  0  0  0  0
    6.9702  -14.9877   25.1211 N   0  0  0  0  0  0  0  0  0  0  0  0
    8.4897  -15.0815   26.9784 C   0  0  0  0  0  0  0  0  0  0  0  0
    7.9694  -16.0962   27.4739 O   0  0  0  0  0  0  0  0  0  0  0  0
    9.7896  -14.7585   27.3200 O   0  0  0  0  0  0  0  0  0  0  0  0
  2  1  1  1
  2  3  1  0
  4  6  1  0
  4  2  1  0
  4  5  1  6
  6  7  2  0
  6  8  1  0
  8  9  1  0
  9 10  1  0
 10 11  2  0
 13 12  1  6
 13 15  1  0
 14 13  1  0
 15 17  1  0
 16 10  1  0
 15 16  1  6
 17 18  2  0
 17 19  1  0
M  END
$$$$
