TGV.pdb
     RDKit          3D

 19 18  0  0  1  0  0  0  0  0999 V2000
    9.5082  -18.1101   17.5208 C   0  0  0  0  0  0  0  0  0  0  0  0
    8.5433  -17.4024   18.4226 C   0  0  1  0  0  0  0  0  0  0  0  0
    7.5249  -18.2809   18.8588 O   0  0  0  0  0  0  0  0  0  0  0  0
    9.2720  -16.9665   19.6843 C   0  0  2  0  0  0  0  0  0  0  0  0
    9.5703  -18.1711   20.4211 N   0  0  0  0  0  0  0  0  0  0  0  0
    8.4295  -16.0914   20.5252 C   0  0  0  0  0  0  0  0  0  0  0  0
    8.1712  -14.8847   20.1836 O   0  0  0  0  0  0  0  0  0  0  0  0
    7.8607  -16.5130   21.7397 N   0  0  0  0  0  0  0  0  0  0  0  0
    6.8915  -15.7245   22.4806 C   0  0  0  0  0  0  0  0  0  0  0  0
    7.6303  -14.8960   23.4857 C   0  0  0  0  0  0  0  0  0  0  0  0
    8.8852  -14.7205   23.3654 O   0  0  0  0  0  0  0  0  0  0  0  0
    7.7036  -11.3704   26.8951 C   0  0  0  0  0  0  0  0  0  0  0  0
    6.8840  -12.2697   25.9682 C   0  0  2  0  0  0  0  0  0  0  0  0
    5.7096  -12.8588   26.7217 C   0  0  0  0  0  0  0  0  0  0  0  0
    7.7253  -13.4233   25.4693 C   0  0  2  0  0  0  0  0  0  0  0  0
    6.9875  -14.2872   24.5840 N   0  0  0  0  0  0  0  0  0  0  0  0
    8.2421  -14.1724   26.6285 C   0  0  0  0  0  0  0  0  0  0  0  0
    7.7799  -15.2781   26.9599 O   0  0  0  0  0  0  0  0  0  0  0  0
    9.2733  -13.6263   27.3695 O   0  0  0  0  0  0  0  0  0  0  0  0
  2  1  1  6
  2  3  1  0
  4  6  1  0
  4  2  1  0
  4  5  1  1
  6  7  2  0
  6  8  1  0
  8  9  1  0
  9 10  1  0
 10 11  2  0
 13 12  1  1
 13 15  1  0
 14 13  1  0
 15 17  1  0
 16 10  1  0
 15 16  1  6
 17 18  2  0
 17 19  1  0
M  END
$$$$
