TGV.pdb
     RDKit          3D

 19 18  0  0  1  0  0  0  0  0999 V2000
   10.3097  -16.6812   18.4626 C   0  0  0  0  0  0  0  0  0  0  0  0
    9.3654  -17.6972   19.0291 C   0  0  1  0  0  0  0  0  0  0  0  0
    9.7757  -19.0081   18.6936 O   0  0  0  0  0  0  0  0  0  0  0  0
    9.4181  -17.6310   20.5476 C   0  0  2  0  0  0  0  0  0  0  0  0
    8.5102  -18.6426   21.0329 N   0  0  0  0  0  0  0  0  0  0  0  0
    8.9757  -16.3144   21.0512 C   0  0  0  0  0  0  0  0  0  0  0  0
    9.6644  -15.2548   20.8444 O   0  0  0  0  0  0  0  0  0  0  0  0
    7.7878  -16.1332   21.7808 N   0  0  0  0  0  0  0  0  0  0  0  0
    7.2417  -14.8255   22.1000 C   0  0  0  0  0  0  0  0  0  0  0  0
    7.7818  -14.4035   23.4314 C   0  0  0  0  0  0  0  0  0  0  0  0
    8.9993  -14.6309   23.7244 O   0  0  0  0  0  0  0  0  0  0  0  0
    6.0181  -11.3549   25.6045 C   0  0  0  0  0  0  0  0  0  0  0  0
    6.6070  -12.4805   26.4564 C   0  0  2  0  0  0  0  0  0  0  0  0
    7.3843  -11.8991   27.6190 C   0  0  0  0  0  0  0  0  0  0  0  0
    7.5700  -13.3140   25.6406 C   0  0  2  0  0  0  0  0  0  0  0  0
    6.9877  -13.7514   24.3980 N   0  0  0  0  0  0  0  0  0  0  0  0
    8.0098  -14.4636   26.4512 C   0  0  0  0  0  0  0  0  0  0  0  0
    7.3559  -15.5195   26.5096 O   0  0  0  0  0  0  0  0  0  0  0  0
    9.1871  -14.3624   27.1685 O   0  0  0  0  0  0  0  0  0  0  0  0
  2  1  1  6
  2  3  1  0
  4  6  1  0
  4  2  1  0
  4  5  1  1
  6  7  2  0
  6  8  1  0
  8  9  1  0
  9 10  1  0
 10 11  2  0
 13 12  1  6
 13 15  1  0
 14 13  1  0
 15 17  1  0
 16 10  1  0
 15 16  1  6
 17 18  2  0
 17 19  1  0
M  END
$$$$
