TGV.pdb
     RDKit          3D

 19 18  0  0  1  0  0  0  0  0999 V2000
    8.2915  -12.9800   18.3353 C   0  0  0  0  0  0  0  0  0  0  0  0
    8.5410  -13.7214   19.6132 C   0  0  1  0  0  0  0  0  0  0  0  0
    8.3655  -12.8724   20.7302 O   0  0  0  0  0  0  0  0  0  0  0  0
    7.4944  -14.8143   19.7650 C   0  0  2  0  0  0  0  0  0  0  0  0
    6.2172  -14.1480   19.8547 N   0  0  0  0  0  0  0  0  0  0  0  0
    7.7058  -15.6040   20.9957 C   0  0  0  0  0  0  0  0  0  0  0  0
    8.7141  -16.3827   21.1241 O   0  0  0  0  0  0  0  0  0  0  0  0
    6.8307  -15.5582   22.0948 N   0  0  0  0  0  0  0  0  0  0  0  0
    7.0654  -16.2864   23.3297 C   0  0  0  0  0  0  0  0  0  0  0  0
    7.8503  -15.4056   24.2521 C   0  0  0  0  0  0  0  0  0  0  0  0
    9.0917  -15.2154   24.0458 O   0  0  0  0  0  0  0  0  0  0  0  0
    6.0024  -13.1546   27.3824 C   0  0  0  0  0  0  0  0  0  0  0  0
    7.3403  -12.7521   26.7600 C   0  0  2  0  0  0  0  0  0  0  0  0
    7.1073  -11.8392   25.5740 C   0  0  0  0  0  0  0  0  0  0  0  0
    8.0772  -13.9718   26.2533 C   0  0  2  0  0  0  0  0  0  0  0  0
    7.2663  -14.7624   25.3635 N   0  0  0  0  0  0  0  0  0  0  0  0
    8.5268  -14.7703   27.4076 C   0  0  0  0  0  0  0  0  0  0  0  0
    8.0753  -15.9048   27.6421 O   0  0  0  0  0  0  0  0  0  0  0  0
    9.4810  -14.2390   28.2550 O   0  0  0  0  0  0  0  0  0  0  0  0
  2  1  1  6
  2  3  1  0
  4  6  1  0
  4  2  1  0
  4  5  1  1
  6  7  2  0
  6  8  1  0
  8  9  1  0
  9 10  1  0
 10 11  2  0
 13 12  1  6
 13 15  1  0
 14 13  1  0
 15 17  1  0
 16 10  1  0
 15 16  1  6
 17 18  2  0
 17 19  1  0
M  END
$$$$
