TGV.pdb
     RDKit          3D

 19 18  0  0  1  0  0  0  0  0999 V2000
    8.0543  -18.4847   18.2241 C   0  0  0  0  0  0  0  0  0  0  0  0
    7.2424  -17.9362   19.3577 C   0  0  1  0  0  0  0  0  0  0  0  0
    6.5176  -18.9652   20.0019 O   0  0  0  0  0  0  0  0  0  0  0  0
    8.1814  -17.3771   20.4153 C   0  0  2  0  0  0  0  0  0  0  0  0
    8.8430  -18.5108   21.0153 N   0  0  0  0  0  0  0  0  0  0  0  0
    7.4445  -16.6459   21.4665 C   0  0  0  0  0  0  0  0  0  0  0  0
    6.8697  -15.5276   21.2239 O   0  0  0  0  0  0  0  0  0  0  0  0
    7.3233  -17.1167   22.7855 N   0  0  0  0  0  0  0  0  0  0  0  0
    6.5607  -16.4251   23.8103 C   0  0  0  0  0  0  0  0  0  0  0  0
    7.4575  -15.4200   24.4647 C   0  0  0  0  0  0  0  0  0  0  0  0
    8.6670  -15.3054   24.0855 O   0  0  0  0  0  0  0  0  0  0  0  0
    6.0311  -12.5571   27.3468 C   0  0  0  0  0  0  0  0  0  0  0  0
    7.2233  -12.3136   26.4201 C   0  0  2  0  0  0  0  0  0  0  0  0
    6.7502  -11.7132   25.1125 C   0  0  0  0  0  0  0  0  0  0  0  0
    7.9160  -13.6179   26.0940 C   0  0  2  0  0  0  0  0  0  0  0  0
    7.0158  -14.5754   25.5046 N   0  0  0  0  0  0  0  0  0  0  0  0
    8.5256  -14.1541   27.3240 C   0  0  0  0  0  0  0  0  0  0  0  0
    8.1240  -15.2030   27.8574 O   0  0  0  0  0  0  0  0  0  0  0  0
    9.5772  -13.4673   27.9012 O   0  0  0  0  0  0  0  0  0  0  0  0
  2  1  1  6
  2  3  1  0
  4  6  1  0
  4  2  1  0
  4  5  1  1
  6  7  2  0
  6  8  1  0
  8  9  1  0
  9 10  1  0
 10 11  2  0
 13 12  1  1
 13 15  1  0
 14 13  1  0
 15 17  1  0
 16 10  1  0
 15 16  1  1
 17 18  2  0
 17 19  1  0
M  END
$$$$
