TGV.pdb
     RDKit          3D

 19 18  0  0  1  0  0  0  0  0999 V2000
    8.0799  -18.5775   18.0862 C   0  0  0  0  0  0  0  0  0  0  0  0
    7.2843  -18.0284   19.2309 C   0  0  1  0  0  0  0  0  0  0  0  0
    6.3737  -18.9934   19.7198 O   0  0  0  0  0  0  0  0  0  0  0  0
    8.2229  -17.7315   20.3901 C   0  0  2  0  0  0  0  0  0  0  0  0
    8.6635  -19.0089   20.8972 N   0  0  0  0  0  0  0  0  0  0  0  0
    7.5352  -17.0012   21.4748 C   0  0  0  0  0  0  0  0  0  0  0  0
    7.0966  -15.8103   21.3041 O   0  0  0  0  0  0  0  0  0  0  0  0
    7.3166  -17.5514   22.7498 N   0  0  0  0  0  0  0  0  0  0  0  0
    6.4817  -16.9194   23.7566 C   0  0  0  0  0  0  0  0  0  0  0  0
    7.2839  -15.8464   24.4256 C   0  0  0  0  0  0  0  0  0  0  0  0
    8.4981  -15.6598   24.0928 O   0  0  0  0  0  0  0  0  0  0  0  0
    5.6922  -12.3387   25.8445 C   0  0  0  0  0  0  0  0  0  0  0  0
    6.7245  -12.9709   26.7795 C   0  0  2  0  0  0  0  0  0  0  0  0
    7.6693  -11.9092   27.3031 C   0  0  0  0  0  0  0  0  0  0  0  0
    7.5581  -13.9907   26.0362 C   0  0  2  0  0  0  0  0  0  0  0  0
    6.7461  -15.0140   25.4295 N   0  0  0  0  0  0  0  0  0  0  0  0
    8.5367  -14.5773   26.9691 C   0  0  0  0  0  0  0  0  0  0  0  0
    8.2839  -15.5941   27.6385 O   0  0  0  0  0  0  0  0  0  0  0  0
    9.7743  -13.9761   27.1025 O   0  0  0  0  0  0  0  0  0  0  0  0
  2  1  1  6
  2  3  1  0
  4  6  1  0
  4  2  1  0
  4  5  1  1
  6  7  2  0
  6  8  1  0
  8  9  1  0
  9 10  1  0
 10 11  2  0
 13 12  1  6
 13 15  1  0
 14 13  1  0
 15 17  1  0
 16 10  1  0
 15 16  1  1
 17 18  2  0
 17 19  1  0
M  END
$$$$
