TGV.pdb
     RDKit          3D

 19 18  0  0  1  0  0  0  0  0999 V2000
   10.1536  -19.6086   19.2122 C   0  0  0  0  0  0  0  0  0  0  0  0
    9.2114  -19.0561   20.2379 C   0  0  1  0  0  0  0  0  0  0  0  0
    9.8907  -18.7743   21.4455 O   0  0  0  0  0  0  0  0  0  0  0  0
    8.6767  -17.7184   19.7507 C   0  0  2  0  0  0  0  0  0  0  0  0
    9.7979  -16.8097   19.7384 N   0  0  0  0  0  0  0  0  0  0  0  0
    7.6408  -17.1827   20.6578 C   0  0  0  0  0  0  0  0  0  0  0  0
    6.5109  -17.7680   20.8003 O   0  0  0  0  0  0  0  0  0  0  0  0
    7.8179  -16.0125   21.4164 N   0  0  0  0  0  0  0  0  0  0  0  0
    6.8197  -15.5058   22.3421 C   0  0  0  0  0  0  0  0  0  0  0  0
    7.5266  -14.9799   23.5531 C   0  0  0  0  0  0  0  0  0  0  0  0
    8.7980  -15.0034   23.6069 O   0  0  0  0  0  0  0  0  0  0  0  0
    6.1089  -11.8335   25.5544 C   0  0  0  0  0  0  0  0  0  0  0  0
    6.7269  -12.8508   26.5149 C   0  0  2  0  0  0  0  0  0  0  0  0
    7.6439  -12.1488   27.4948 C   0  0  0  0  0  0  0  0  0  0  0  0
    7.5625  -13.8569   25.7553 C   0  0  2  0  0  0  0  0  0  0  0  0
    6.8352  -14.4477   24.6615 N   0  0  0  0  0  0  0  0  0  0  0  0
    8.0347  -14.8898   26.6945 C   0  0  0  0  0  0  0  0  0  0  0  0
    7.3581  -15.8979   26.9627 O   0  0  0  0  0  0  0  0  0  0  0  0
    9.2695  -14.7307   27.2952 O   0  0  0  0  0  0  0  0  0  0  0  0
  2  1  1  6
  2  3  1  0
  4  6  1  0
  4  2  1  0
  4  5  1  1
  6  7  2  0
  6  8  1  0
  8  9  1  0
  9 10  1  0
 10 11  2  0
 13 12  1  6
 13 15  1  0
 14 13  1  0
 15 17  1  0
 16 10  1  0
 15 16  1  6
 17 18  2  0
 17 19  1  0
M  END
$$$$
