TGV.pdb
     RDKit          3D

 19 18  0  0  1  0  0  0  0  0999 V2000
    8.3435  -14.5849   18.3423 C   0  0  0  0  0  0  0  0  0  0  0  0
    8.3257  -15.2358   19.6918 C   0  0  1  0  0  0  0  0  0  0  0  0
    9.4500  -14.8440   20.4545 O   0  0  0  0  0  0  0  0  0  0  0  0
    7.1154  -14.7380   20.4666 C   0  0  2  0  0  0  0  0  0  0  0  0
    7.3255  -13.3278   20.6915 N   0  0  0  0  0  0  0  0  0  0  0  0
    6.9898  -15.4141   21.7742 C   0  0  0  0  0  0  0  0  0  0  0  0
    6.6870  -16.6555   21.8573 O   0  0  0  0  0  0  0  0  0  0  0  0
    7.1900  -14.7551   22.9996 N   0  0  0  0  0  0  0  0  0  0  0  0
    7.0493  -15.4109   24.2881 C   0  0  0  0  0  0  0  0  0  0  0  0
    8.3841  -15.4037   24.9668 C   0  0  0  0  0  0  0  0  0  0  0  0
    9.4189  -15.0251   24.3298 O   0  0  0  0  0  0  0  0  0  0  0  0
    8.7485  -13.1331   27.4185 C   0  0  0  0  0  0  0  0  0  0  0  0
    9.4098  -14.3447   28.0775 C   0  0  2  0  0  0  0  0  0  0  0  0
   10.7193  -13.9359   28.7195 C   0  0  0  0  0  0  0  0  0  0  0  0
    9.7242  -15.4037   27.0445 C   0  0  2  0  0  0  0  0  0  0  0  0
    8.5532  -15.8054   26.3085 N   0  0  0  0  0  0  0  0  0  0  0  0
   10.3455  -16.5575   27.7189 C   0  0  0  0  0  0  0  0  0  0  0  0
   11.5433  -16.5613   28.0526 O   0  0  0  0  0  0  0  0  0  0  0  0
    9.5699  -17.6696   27.9880 O   0  0  0  0  0  0  0  0  0  0  0  0
  2  1  1  6
  2  3  1  0
  4  6  1  0
  4  2  1  0
  4  5  1  1
  6  7  2  0
  6  8  1  0
  8  9  1  0
  9 10  1  0
 10 11  2  0
 13 12  1  6
 13 15  1  0
 14 13  1  0
 15 17  1  0
 16 10  1  0
 15 16  1  1
 17 18  2  0
 17 19  1  0
M  END
$$$$
