ESS.pdb
     RDKit          3D

 22 21  0  0  1  0  0  0  0  0999 V2000
   19.0380  -12.3862  -15.6247 N   0  0  0  0  0  0  0  0  0  0  0  0
   18.1086  -11.2857  -15.4602 C   0  0  1  0  0  0  0  0  0  0  0  0
   16.7098  -11.7768  -15.2725 C   0  0  0  0  0  0  0  0  0  0  0  0
   16.1491  -12.5590  -16.4031 C   0  0  0  0  0  0  0  0  0  0  0  0
   14.7722  -13.0168  -16.1711 C   0  0  0  0  0  0  0  0  0  0  0  0
   13.7743  -12.5472  -16.7484 O   0  0  0  0  0  0  0  0  0  0  0  0
   18.4853  -10.4309  -14.2987 C   0  0  0  0  0  0  0  0  0  0  0  0
   19.6492  -10.5258  -13.8356 O   0  0  0  0  0  0  0  0  0  0  0  0
   14.5299  -14.0450  -15.2485 O   0  0  0  0  0  0  0  0  0  0  0  0
   19.5612   -6.6992  -12.3840 O   0  0  0  0  0  0  0  0  0  0  0  0
   19.0713   -7.5831  -13.3417 C   0  0  0  0  0  0  0  0  0  0  0  0
   18.0712   -8.5500  -12.7150 C   0  0  2  0  0  0  0  0  0  0  0  0
   17.6066   -9.5055  -13.6730 N   0  0  0  0  0  0  0  0  0  0  0  0
   16.9887   -7.7719  -12.0801 C   0  0  0  0  0  0  0  0  0  0  0  0
   16.3042   -7.0237  -12.8241 O   0  0  0  0  0  0  0  0  0  0  0  0
   16.2977   -8.0634   -8.1404 O   0  0  0  0  0  0  0  0  0  0  0  0
   15.1385   -7.6447   -8.8063 C   0  0  0  0  0  0  0  0  0  0  0  0
   15.5944   -7.0363  -10.1177 C   0  0  2  0  0  0  0  0  0  0  0  0
   16.6669   -7.8051  -10.7088 N   0  0  0  0  0  0  0  0  0  0  0  0
   16.0514   -5.6488   -9.9546 C   0  0  0  0  0  0  0  0  0  0  0  0
   17.2173   -5.3325  -10.2444 O   0  0  0  0  0  0  0  0  0  0  0  0
   15.1800   -4.6956   -9.4777 O   0  0  0  0  0  0  0  0  0  0  0  0
  2  1  1  1
  2  7  1  0
  3  4  1  0
  3  2  1  0
  5  4  1  0
  6  5  2  0
  7  8  2  0
  7 13  1  0
  9  5  1  0
 10 11  1  0
 12 14  1  0
 12 11  1  6
 13 12  1  0
 14 19  1  0
 15 14  2  0
 16 17  1  0
 18 17  1  1
 18 20  1  0
 19 18  1  0
 20 21  2  0
 20 22  1  0
M  END
$$$$
