ESS.pdb
     RDKit          3D

 22 21  0  0  1  0  0  0  0  0999 V2000
   27.5363  -35.7884   -6.8138 N   0  0  0  0  0  0  0  0  0  0  0  0
   28.3995  -34.7470   -6.2918 C   0  0  1  0  0  0  0  0  0  0  0  0
   27.6105  -33.6729   -5.6157 C   0  0  0  0  0  0  0  0  0  0  0  0
   26.6108  -34.1417   -4.6231 C   0  0  0  0  0  0  0  0  0  0  0  0
   25.8897  -33.0475   -3.9584 C   0  0  0  0  0  0  0  0  0  0  0  0
   26.0526  -31.8422   -4.2237 O   0  0  0  0  0  0  0  0  0  0  0  0
   29.3924  -35.3022   -5.3288 C   0  0  0  0  0  0  0  0  0  0  0  0
   28.9893  -36.0917   -4.4386 O   0  0  0  0  0  0  0  0  0  0  0  0
   24.9521  -33.3424   -2.9579 O   0  0  0  0  0  0  0  0  0  0  0  0
   33.9924  -35.5943   -3.7258 O   0  0  0  0  0  0  0  0  0  0  0  0
   33.0917  -34.9534   -4.5724 C   0  0  0  0  0  0  0  0  0  0  0  0
   31.6786  -35.4841   -4.3502 C   0  0  2  0  0  0  0  0  0  0  0  0
   30.7800  -34.9950   -5.3501 N   0  0  0  0  0  0  0  0  0  0  0  0
   31.2608  -35.1658   -2.9702 C   0  0  0  0  0  0  0  0  0  0  0  0
   30.4733  -34.1974   -2.8154 O   0  0  0  0  0  0  0  0  0  0  0  0
   29.5427  -35.2181    1.0457 O   0  0  0  0  0  0  0  0  0  0  0  0
   29.7920  -35.5469   -0.2930 C   0  0  0  0  0  0  0  0  0  0  0  0
   31.2959  -35.4914   -0.4743 C   0  0  2  0  0  0  0  0  0  0  0  0
   31.6770  -35.8631   -1.8187 N   0  0  0  0  0  0  0  0  0  0  0  0
   31.9998  -36.3717    0.4691 C   0  0  0  0  0  0  0  0  0  0  0  0
   32.6702  -37.3315    0.0534 O   0  0  0  0  0  0  0  0  0  0  0  0
   31.9142  -36.1290    1.8216 O   0  0  0  0  0  0  0  0  0  0  0  0
  2  1  1  1
  2  7  1  0
  3  4  1  0
  3  2  1  0
  5  4  1  0
  6  5  2  0
  7  8  2  0
  7 13  1  0
  9  5  1  0
 10 11  1  0
 12 14  1  0
 12 11  1  6
 13 12  1  0
 14 19  1  0
 15 14  2  0
 16 17  1  0
 18 17  1  6
 18 20  1  0
 19 18  1  0
 20 21  2  0
 20 22  1  0
M  END
$$$$
