ESS.pdb
     RDKit          3D

 22 21  0  0  1  0  0  0  0  0999 V2000
   22.9743  -11.6134  -19.1638 N   0  0  0  0  0  0  0  0  0  0  0  0
   23.0895  -10.2429  -19.6225 C   0  0  1  0  0  0  0  0  0  0  0  0
   21.8314   -9.7820  -20.2845 C   0  0  0  0  0  0  0  0  0  0  0  0
   21.6160  -10.2801  -21.6665 C   0  0  0  0  0  0  0  0  0  0  0  0
   20.3619   -9.8077  -22.2691 C   0  0  0  0  0  0  0  0  0  0  0  0
   19.7508  -10.4103  -23.1708 O   0  0  0  0  0  0  0  0  0  0  0  0
   23.4129   -9.3226  -18.4957 C   0  0  0  0  0  0  0  0  0  0  0  0
   22.9488   -9.5807  -17.3571 O   0  0  0  0  0  0  0  0  0  0  0  0
   19.7890   -8.6068  -21.8254 O   0  0  0  0  0  0  0  0  0  0  0  0
   25.9285   -5.5778  -16.6819 O   0  0  0  0  0  0  0  0  0  0  0  0
   25.6612   -6.3766  -17.7905 C   0  0  0  0  0  0  0  0  0  0  0  0
   24.4629   -7.2819  -17.5207 C   0  0  2  0  0  0  0  0  0  0  0  0
   24.2199   -8.1597  -18.6239 N   0  0  0  0  0  0  0  0  0  0  0  0
   23.3018   -6.4427  -17.1633 C   0  0  0  0  0  0  0  0  0  0  0  0
   22.6712   -5.8997  -18.1064 O   0  0  0  0  0  0  0  0  0  0  0  0
   21.2201   -6.7820  -13.6885 O   0  0  0  0  0  0  0  0  0  0  0  0
   20.6206   -6.2677  -14.8455 C   0  0  0  0  0  0  0  0  0  0  0  0
   21.6747   -5.4242  -15.5349 C   0  0  2  0  0  0  0  0  0  0  0  0
   22.8496   -6.2060  -15.8500 N   0  0  0  0  0  0  0  0  0  0  0  0
   22.0861   -4.2749  -14.7162 C   0  0  0  0  0  0  0  0  0  0  0  0
   23.2578   -4.1756  -14.3153 O   0  0  0  0  0  0  0  0  0  0  0  0
   21.1655   -3.3036  -14.3930 O   0  0  0  0  0  0  0  0  0  0  0  0
  2  1  1  1
  2  7  1  0
  3  4  1  0
  3  2  1  0
  5  4  1  0
  6  5  2  0
  7  8  2  0
  7 13  1  0
  9  5  1  0
 10 11  1  0
 12 14  1  0
 12 11  1  6
 13 12  1  0
 14 19  1  0
 15 14  2  0
 16 17  1  0
 18 17  1  1
 18 20  1  0
 19 18  1  0
 20 21  2  0
 20 22  1  0
M  END
$$$$
