ESS.pdb
     RDKit          3D

 22 21  0  0  1  0  0  0  0  0999 V2000
   19.3030  -10.7275  -18.5453 N   0  0  0  0  0  0  0  0  0  0  0  0
   19.6897  -10.6866  -17.1485 C   0  0  1  0  0  0  0  0  0  0  0  0
   21.1244  -11.0645  -16.9688 C   0  0  0  0  0  0  0  0  0  0  0  0
   22.0205  -10.7336  -18.1054 C   0  0  0  0  0  0  0  0  0  0  0  0
   23.4087  -11.1700  -17.9014 C   0  0  0  0  0  0  0  0  0  0  0  0
   24.3008  -10.4526  -17.4124 O   0  0  0  0  0  0  0  0  0  0  0  0
   19.4654   -9.3331  -16.5664 C   0  0  0  0  0  0  0  0  0  0  0  0
   19.2936   -8.3642  -17.3474 O   0  0  0  0  0  0  0  0  0  0  0  0
   23.7878  -12.4693  -18.2691 O   0  0  0  0  0  0  0  0  0  0  0  0
   19.6276   -8.5024  -12.4362 O   0  0  0  0  0  0  0  0  0  0  0  0
   18.6741   -7.8375  -13.2026 C   0  0  0  0  0  0  0  0  0  0  0  0
   19.1173   -7.7631  -14.6607 C   0  0  2  0  0  0  0  0  0  0  0  0
   19.4325   -9.0617  -15.1716 N   0  0  0  0  0  0  0  0  0  0  0  0
   20.2271   -6.7957  -14.7734 C   0  0  0  0  0  0  0  0  0  0  0  0
   21.3856   -7.2625  -14.9209 O   0  0  0  0  0  0  0  0  0  0  0  0
   21.8186   -2.2704  -15.3716 O   0  0  0  0  0  0  0  0  0  0  0  0
   20.6817   -3.0771  -15.2328 C   0  0  0  0  0  0  0  0  0  0  0  0
   21.1828   -4.4711  -14.9113 C   0  0  2  0  0  0  0  0  0  0  0  0
   20.0854   -5.3946  -14.7281 N   0  0  0  0  0  0  0  0  0  0  0  0
   22.0170   -4.4938  -13.7013 C   0  0  0  0  0  0  0  0  0  0  0  0
   21.4964   -4.6219  -12.5807 O   0  0  0  0  0  0  0  0  0  0  0  0
   23.3839   -4.3723  -13.8132 O   0  0  0  0  0  0  0  0  0  0  0  0
  2  1  1  6
  2  7  1  0
  3  4  1  0
  3  2  1  0
  5  4  1  0
  6  5  2  0
  7  8  2  0
  7 13  1  0
  9  5  1  0
 10 11  1  0
 12 14  1  0
 12 11  1  1
 13 12  1  0
 14 19  1  0
 15 14  2  0
 16 17  1  0
 18 17  1  1
 18 20  1  0
 19 18  1  0
 20 21  2  0
 20 22  1  0
M  END
$$$$
