ESS.pdb
     RDKit          3D

 22 21  0  0  1  0  0  0  0  0999 V2000
   18.9133  -11.6974  -16.0204 N   0  0  0  0  0  0  0  0  0  0  0  0
   19.5556  -10.5579  -16.6459 C   0  0  1  0  0  0  0  0  0  0  0  0
   18.8128  -10.1145  -17.8645 C   0  0  0  0  0  0  0  0  0  0  0  0
   17.3333  -10.2083  -17.7815 C   0  0  0  0  0  0  0  0  0  0  0  0
   16.6510   -9.7826  -19.0113 C   0  0  0  0  0  0  0  0  0  0  0  0
   16.7619  -10.3625  -20.1072 O   0  0  0  0  0  0  0  0  0  0  0  0
   19.6648   -9.4131  -15.6979 C   0  0  0  0  0  0  0  0  0  0  0  0
   18.7145   -9.1968  -14.9052 O   0  0  0  0  0  0  0  0  0  0  0  0
   15.8148   -8.6569  -18.9858 O   0  0  0  0  0  0  0  0  0  0  0  0
   22.1444   -6.2454  -13.1309 O   0  0  0  0  0  0  0  0  0  0  0  0
   22.1509   -7.3141  -14.0233 C   0  0  0  0  0  0  0  0  0  0  0  0
   20.8121   -7.4131  -14.7485 C   0  0  2  0  0  0  0  0  0  0  0  0
   20.7841   -8.5398  -15.6297 N   0  0  0  0  0  0  0  0  0  0  0  0
   20.5372   -6.1274  -15.4206 C   0  0  0  0  0  0  0  0  0  0  0  0
   21.0824   -5.9326  -16.5371 O   0  0  0  0  0  0  0  0  0  0  0  0
   18.1229   -1.9685  -15.7925 O   0  0  0  0  0  0  0  0  0  0  0  0
   18.2925   -3.1188  -15.0111 C   0  0  0  0  0  0  0  0  0  0  0  0
   19.5123   -3.8325  -15.5593 C   0  0  2  0  0  0  0  0  0  0  0  0
   19.7130   -5.1068  -14.9063 N   0  0  0  0  0  0  0  0  0  0  0  0
   20.7363   -3.0331  -15.4063 C   0  0  0  0  0  0  0  0  0  0  0  0
   21.4203   -3.1218  -14.3730 O   0  0  0  0  0  0  0  0  0  0  0  0
   21.1252   -2.1817  -16.4159 O   0  0  0  0  0  0  0  0  0  0  0  0
  2  1  1  1
  2  7  1  0
  3  4  1  0
  3  2  1  0
  5  4  1  0
  6  5  2  0
  7  8  2  0
  7 13  1  0
  9  5  1  0
 10 11  1  0
 12 14  1  0
 12 11  1  6
 13 12  1  0
 14 19  1  0
 15 14  2  0
 16 17  1  0
 18 17  1  1
 18 20  1  0
 19 18  1  0
 20 21  2  0
 20 22  1  0
M  END
$$$$
