ESS.pdb
     RDKit          3D

 22 21  0  0  1  0  0  0  0  0999 V2000
   15.2393  -10.1521  -17.5845 N   0  0  0  0  0  0  0  0  0  0  0  0
   15.9585   -9.8055  -16.3742 C   0  0  1  0  0  0  0  0  0  0  0  0
   16.6817  -10.9865  -15.8126 C   0  0  0  0  0  0  0  0  0  0  0  0
   15.8189  -12.0756  -15.2892 C   0  0  0  0  0  0  0  0  0  0  0  0
   16.5722  -13.1553  -14.6364 C   0  0  0  0  0  0  0  0  0  0  0  0
   17.1063  -13.0549  -13.5165 O   0  0  0  0  0  0  0  0  0  0  0  0
   16.9361   -8.7084  -16.6235 C   0  0  0  0  0  0  0  0  0  0  0  0
   17.3763   -8.5495  -17.7893 O   0  0  0  0  0  0  0  0  0  0  0  0
   16.7188  -14.3894  -15.2865 O   0  0  0  0  0  0  0  0  0  0  0  0
   17.0152   -5.2417  -14.5767 O   0  0  0  0  0  0  0  0  0  0  0  0
   17.6096   -5.3976  -15.8260 C   0  0  0  0  0  0  0  0  0  0  0  0
   18.3098   -6.7499  -15.9199 C   0  0  2  0  0  0  0  0  0  0  0  0
   17.4089   -7.8200  -15.6198 N   0  0  0  0  0  0  0  0  0  0  0  0
   19.5103   -6.7264  -15.0606 C   0  0  0  0  0  0  0  0  0  0  0  0
   19.3581   -7.0303  -13.8496 O   0  0  0  0  0  0  0  0  0  0  0  0
   23.2567   -7.5041  -16.2432 O   0  0  0  0  0  0  0  0  0  0  0  0
   23.2529   -6.3567  -15.4395 C   0  0  0  0  0  0  0  0  0  0  0  0
   21.9699   -6.4030  -14.6336 C   0  0  2  0  0  0  0  0  0  0  0  0
   20.8081   -6.3903  -15.4943 N   0  0  0  0  0  0  0  0  0  0  0  0
   21.8655   -5.2773  -13.6943 C   0  0  0  0  0  0  0  0  0  0  0  0
   21.1276   -4.3111  -13.9501 O   0  0  0  0  0  0  0  0  0  0  0  0
   22.5909   -5.2960  -12.5243 O   0  0  0  0  0  0  0  0  0  0  0  0
  2  1  1  6
  2  7  1  0
  3  4  1  0
  3  2  1  0
  5  4  1  0
  6  5  2  0
  7  8  2  0
  7 13  1  0
  9  5  1  0
 10 11  1  0
 12 14  1  0
 12 11  1  1
 13 12  1  0
 14 19  1  0
 15 14  2  0
 16 17  1  0
 18 17  1  6
 18 20  1  0
 19 18  1  0
 20 21  2  0
 20 22  1  0
M  END
$$$$
