ESS.pdb
     RDKit          3D

 22 21  0  0  1  0  0  0  0  0999 V2000
   18.9585  -12.4490  -16.6181 N   0  0  0  0  0  0  0  0  0  0  0  0
   19.4113  -11.1644  -17.1151 C   0  0  1  0  0  0  0  0  0  0  0  0
   18.4942  -10.6334  -18.1687 C   0  0  0  0  0  0  0  0  0  0  0  0
   18.4304  -11.4282  -19.4212 C   0  0  0  0  0  0  0  0  0  0  0  0
   17.5077  -10.8715  -20.4202 C   0  0  0  0  0  0  0  0  0  0  0  0
   16.4087  -11.3774  -20.7131 O   0  0  0  0  0  0  0  0  0  0  0  0
   19.5172  -10.1668  -16.0128 C   0  0  0  0  0  0  0  0  0  0  0  0
   18.5285  -10.0011  -15.2556 O   0  0  0  0  0  0  0  0  0  0  0  0
   17.8542   -9.6980  -21.1058 O   0  0  0  0  0  0  0  0  0  0  0  0
   22.9524   -9.2461  -14.1702 O   0  0  0  0  0  0  0  0  0  0  0  0
   21.7196   -8.9441  -13.5978 C   0  0  0  0  0  0  0  0  0  0  0  0
   20.7390   -8.4630  -14.6631 C   0  0  2  0  0  0  0  0  0  0  0  0
   20.6741   -9.3816  -15.7580 N   0  0  0  0  0  0  0  0  0  0  0  0
   21.1042   -7.0891  -15.0622 C   0  0  0  0  0  0  0  0  0  0  0  0
   21.9029   -6.9619  -16.0254 O   0  0  0  0  0  0  0  0  0  0  0  0
   18.8362   -3.8791  -15.1599 O   0  0  0  0  0  0  0  0  0  0  0  0
   19.9970   -3.5517  -14.4473 C   0  0  0  0  0  0  0  0  0  0  0  0
   21.0395   -4.5834  -14.8304 C   0  0  2  0  0  0  0  0  0  0  0  0
   20.6264   -5.9150  -14.4470 N   0  0  0  0  0  0  0  0  0  0  0  0
   22.3450   -4.3058  -14.2147 C   0  0  0  0  0  0  0  0  0  0  0  0
   22.6425   -4.8073  -13.1178 O   0  0  0  0  0  0  0  0  0  0  0  0
   23.2422   -3.4846  -14.8598 O   0  0  0  0  0  0  0  0  0  0  0  0
  2  1  1  1
  2  7  1  0
  3  4  1  0
  3  2  1  0
  5  4  1  0
  6  5  2  0
  7  8  2  0
  7 13  1  0
  9  5  1  0
 10 11  1  0
 12 14  1  0
 12 11  1  1
 13 12  1  0
 14 19  1  0
 15 14  2  0
 16 17  1  0
 18 17  1  1
 18 20  1  0
 19 18  1  0
 20 21  2  0
 20 22  1  0
M  END
$$$$
