PQP.pdb
     RDKit          3D

 24 25  0  0  1  0  0  0  0  0999 V2000
   27.0368  -19.1079  -15.6742 N   0  0  0  0  0  0  0  0  0  0  0  0
   28.2026  -18.3968  -15.1948 C   0  0  0  0  0  0  0  0  0  0  0  0
   29.3358  -19.4165  -15.2585 C   0  0  0  0  0  0  0  0  0  0  0  0
   28.6153  -20.6719  -14.8103 C   0  0  0  0  0  0  0  0  0  0  0  0
   27.2768  -20.5141  -15.4980 C   0  0  1  0  0  0  0  0  0  0  0  0
   26.1735  -21.1137  -14.7454 C   0  0  0  0  0  0  0  0  0  0  0  0
   26.2170  -22.3668  -14.5185 O   0  0  0  0  0  0  0  0  0  0  0  0
   23.9691  -20.3850   -9.2310 N   0  0  0  0  0  0  0  0  0  0  0  0
   25.1509  -20.7445   -9.9255 C   0  0  0  0  0  0  0  0  0  0  0  0
   26.2293  -20.7482   -9.2883 O   0  0  0  0  0  0  0  0  0  0  0  0
   25.1655  -21.1127  -11.3553 C   0  0  0  0  0  0  0  0  0  0  0  0
   23.9393  -20.7283  -12.1095 C   0  0  0  0  0  0  0  0  0  0  0  0
   23.9732  -21.0877  -13.5810 C   0  0  2  0  0  0  0  0  0  0  0  0
   25.0606  -20.4036  -14.2508 N   0  0  0  0  0  0  0  0  0  0  0  0
   22.6584  -20.6851  -14.1908 C   0  0  0  0  0  0  0  0  0  0  0  0
   22.6054  -19.5028  -14.6782 O   0  0  0  0  0  0  0  0  0  0  0  0
   21.5422  -21.5462  -14.2333 N   0  0  0  0  0  0  0  0  0  0  0  0
   21.3875  -22.8850  -13.6978 C   0  0  0  0  0  0  0  0  0  0  0  0
   20.4903  -23.5519  -14.7340 C   0  0  0  0  0  0  0  0  0  0  0  0
   19.5866  -22.4552  -15.1885 C   0  0  0  0  0  0  0  0  0  0  0  0
   20.2865  -21.1770  -14.8934 C   0  0  1  0  0  0  0  0  0  0  0  0
   19.5203  -20.3633  -13.9359 C   0  0  0  0  0  0  0  0  0  0  0  0
   18.3718  -19.6698  -14.2869 O   0  0  0  0  0  0  0  0  0  0  0  0
   19.9314  -20.2960  -12.7407 O   0  0  0  0  0  0  0  0  0  0  0  0
  1  5  1  0
  2  1  1  0
  3  2  1  0
  3  4  1  0
  4  5  1  0
  6  7  2  0
  5  6  1  1
  8  9  1  0
  9 11  1  0
 10  9  2  0
 11 12  1  0
 13 12  1  1
 13 14  1  0
 13 15  1  0
 14  6  1  0
 15 16  2  0
 17 15  1  0
 17 21  1  0
 18 17  1  0
 18 19  1  0
 19 20  1  0
 21 20  1  0
 22 23  1  0
 21 22  1  1
 24 22  2  0
M  END
$$$$
