PQP.pdb
     RDKit          3D

 24 25  0  0  1  0  0  0  0  0999 V2000
   20.1092  -11.3630  -15.6964 N   0  0  0  0  0  0  0  0  0  0  0  0
   19.5351  -12.6371  -15.3199 C   0  0  0  0  0  0  0  0  0  0  0  0
   18.4610  -12.9070  -16.3694 C   0  0  0  0  0  0  0  0  0  0  0  0
   17.8921  -11.5155  -16.5595 C   0  0  0  0  0  0  0  0  0  0  0  0
   19.1434  -10.6668  -16.5015 C   0  0  1  0  0  0  0  0  0  0  0  0
   18.9044   -9.3338  -15.9454 C   0  0  0  0  0  0  0  0  0  0  0  0
   18.0361   -8.5958  -16.5154 O   0  0  0  0  0  0  0  0  0  0  0  0
   18.9774   -7.4893   -9.9933 N   0  0  0  0  0  0  0  0  0  0  0  0
   17.9439   -8.0113  -10.8104 C   0  0  0  0  0  0  0  0  0  0  0  0
   16.9454   -8.5145  -10.2457 O   0  0  0  0  0  0  0  0  0  0  0  0
   17.9925   -7.9868  -12.2859 C   0  0  0  0  0  0  0  0  0  0  0  0
   19.2341   -7.3940  -12.8579 C   0  0  0  0  0  0  0  0  0  0  0  0
   19.3134   -7.4501  -14.3699 C   0  0  2  0  0  0  0  0  0  0  0  0
   19.5676   -8.8035  -14.8201 N   0  0  0  0  0  0  0  0  0  0  0  0
   20.4276   -6.5421  -14.8135 C   0  0  0  0  0  0  0  0  0  0  0  0
   21.5760   -7.0903  -14.9511 O   0  0  0  0  0  0  0  0  0  0  0  0
   20.2359   -5.1683  -15.0685 N   0  0  0  0  0  0  0  0  0  0  0  0
   19.0432   -4.3578  -14.9144 C   0  0  0  0  0  0  0  0  0  0  0  0
   19.1587   -3.3785  -16.0767 C   0  0  0  0  0  0  0  0  0  0  0  0
   20.6257   -3.1357  -16.1998 C   0  0  0  0  0  0  0  0  0  0  0  0
   21.3041   -4.3051  -15.5809 C   0  0  1  0  0  0  0  0  0  0  0  0
   22.1169   -3.8942  -14.4249 C   0  0  0  0  0  0  0  0  0  0  0  0
   23.3862   -3.3501  -14.5521 O   0  0  0  0  0  0  0  0  0  0  0  0
   21.6323   -4.0460  -13.2655 O   0  0  0  0  0  0  0  0  0  0  0  0
  1  5  1  0
  2  1  1  0
  3  2  1  0
  3  4  1  0
  4  5  1  0
  6  7  2  0
  5  6  1  1
  8  9  1  0
  9 11  1  0
 10  9  2  0
 11 12  1  0
 13 12  1  1
 13 14  1  0
 13 15  1  0
 14  6  1  0
 15 16  2  0
 17 15  1  0
 17 21  1  0
 18 17  1  0
 18 19  1  0
 19 20  1  0
 21 20  1  0
 22 23  1  0
 21 22  1  1
 24 22  2  0
M  END
$$$$
