PQP.pdb
     RDKit          3D

 24 25  0  0  1  0  0  0  0  0999 V2000
   18.7290  -16.4705    2.4214 N   0  0  0  0  0  0  0  0  0  0  0  0
   18.4385  -16.0524    1.0666 C   0  0  0  0  0  0  0  0  0  0  0  0
   18.0174  -14.5911    1.1905 C   0  0  0  0  0  0  0  0  0  0  0  0
   17.2080  -14.6352    2.4707 C   0  0  0  0  0  0  0  0  0  0  0  0
   18.0266  -15.5889    3.3132 C   0  0  1  0  0  0  0  0  0  0  0  0
   17.2122  -16.3726    4.2438 C   0  0  0  0  0  0  0  0  0  0  0  0
   16.5934  -15.7491    5.1668 O   0  0  0  0  0  0  0  0  0  0  0  0
   15.0170  -22.3273    3.5136 N   0  0  0  0  0  0  0  0  0  0  0  0
   14.6732  -21.1031    2.8879 C   0  0  0  0  0  0  0  0  0  0  0  0
   13.9673  -21.1489    1.8542 O   0  0  0  0  0  0  0  0  0  0  0  0
   15.1067  -19.7872    3.3984 C   0  0  0  0  0  0  0  0  0  0  0  0
   15.8547  -19.8348    4.6862 C   0  0  0  0  0  0  0  0  0  0  0  0
   16.2971  -18.4805    5.2015 C   0  0  2  0  0  0  0  0  0  0  0  0
   17.0613  -17.7733    4.1940 N   0  0  0  0  0  0  0  0  0  0  0  0
   17.1404  -18.6996    6.4277 C   0  0  0  0  0  0  0  0  0  0  0  0
   18.4056  -18.7391    6.2379 O   0  0  0  0  0  0  0  0  0  0  0  0
   16.5874  -18.8525    7.7160 N   0  0  0  0  0  0  0  0  0  0  0  0
   15.1985  -18.8356    8.1331 C   0  0  0  0  0  0  0  0  0  0  0  0
   15.2742  -18.1690    9.5017 C   0  0  0  0  0  0  0  0  0  0  0  0
   16.5695  -18.6488   10.0658 C   0  0  0  0  0  0  0  0  0  0  0  0
   17.4140  -19.0514    8.9102 C   0  0  1  0  0  0  0  0  0  0  0  0
   17.7446  -20.4842    8.9706 C   0  0  0  0  0  0  0  0  0  0  0  0
   18.6669  -21.0071    9.8646 O   0  0  0  0  0  0  0  0  0  0  0  0
   17.1594  -21.2701    8.1694 O   0  0  0  0  0  0  0  0  0  0  0  0
  1  5  1  0
  2  1  1  0
  3  2  1  0
  3  4  1  0
  4  5  1  0
  6  7  2  0
  5  6  1  1
  8  9  1  0
  9 11  1  0
 10  9  2  0
 11 12  1  0
 13 12  1  6
 13 14  1  0
 13 15  1  0
 14  6  1  0
 15 16  2  0
 17 15  1  0
 17 21  1  0
 18 17  1  0
 18 19  1  0
 19 20  1  0
 21 20  1  0
 22 23  1  0
 21 22  1  1
 24 22  2  0
M  END
$$$$
