PQP.pdb
     RDKit          3D

 24 25  0  0  1  0  0  0  0  0999 V2000
   27.6085  -21.8812  -12.7588 N   0  0  0  0  0  0  0  0  0  0  0  0
   26.8348  -22.1988  -13.9399 C   0  0  0  0  0  0  0  0  0  0  0  0
   27.0598  -21.0206  -14.8829 C   0  0  0  0  0  0  0  0  0  0  0  0
   27.0508  -19.8651  -13.9027 C   0  0  0  0  0  0  0  0  0  0  0  0
   27.8023  -20.4573  -12.7305 C   0  0  1  0  0  0  0  0  0  0  0  0
   27.3612  -19.9236  -11.4405 C   0  0  0  0  0  0  0  0  0  0  0  0
   27.3552  -18.6585  -11.2883 O   0  0  0  0  0  0  0  0  0  0  0  0
   22.2705  -20.8207   -8.2258 N   0  0  0  0  0  0  0  0  0  0  0  0
   22.6672  -20.2094   -9.4412 C   0  0  0  0  0  0  0  0  0  0  0  0
   21.7712  -19.8633  -10.2452 O   0  0  0  0  0  0  0  0  0  0  0  0
   24.0790  -19.9640   -9.7971 C   0  0  0  0  0  0  0  0  0  0  0  0
   25.0681  -20.4705   -8.8044 C   0  0  0  0  0  0  0  0  0  0  0  0
   26.5049  -20.0987   -9.1094 C   0  0  2  0  0  0  0  0  0  0  0  0
   26.9405  -20.7099  -10.3487 N   0  0  0  0  0  0  0  0  0  0  0  0
   27.3632  -20.5764   -7.9702 C   0  0  0  0  0  0  0  0  0  0  0  0
   27.7417  -21.7978   -8.0276 O   0  0  0  0  0  0  0  0  0  0  0  0
   27.7392  -19.7422   -6.8970 N   0  0  0  0  0  0  0  0  0  0  0  0
   27.4406  -18.3418   -6.6669 C   0  0  0  0  0  0  0  0  0  0  0  0
   28.7125  -17.8408   -5.9929 C   0  0  0  0  0  0  0  0  0  0  0  0
   29.1674  -19.0010   -5.1724 C   0  0  0  0  0  0  0  0  0  0  0  0
   28.5649  -20.2158   -5.7822 C   0  0  1  0  0  0  0  0  0  0  0  0
   27.6628  -20.8909   -4.8353 C   0  0  0  0  0  0  0  0  0  0  0  0
   28.1201  -21.5978   -3.7333 O   0  0  0  0  0  0  0  0  0  0  0  0
   26.4157  -20.8209   -5.0398 O   0  0  0  0  0  0  0  0  0  0  0  0
  1  5  1  0
  2  1  1  0
  3  2  1  0
  3  4  1  0
  4  5  1  0
  6  7  2  0
  5  6  1  1
  8  9  1  0
  9 11  1  0
 10  9  2  0
 11 12  1  0
 13 12  1  1
 13 14  1  0
 13 15  1  0
 14  6  1  0
 15 16  2  0
 17 15  1  0
 17 21  1  0
 18 17  1  0
 18 19  1  0
 19 20  1  0
 21 20  1  0
 22 23  1  0
 21 22  1  1
 24 22  2  0
M  END
$$$$
