PQP.pdb
     RDKit          3D

 24 25  0  0  1  0  0  0  0  0999 V2000
   42.9798  -17.8815  -10.0547 N   0  0  0  0  0  0  0  0  0  0  0  0
   43.9891  -18.9052  -10.2224 C   0  0  0  0  0  0  0  0  0  0  0  0
   44.6482  -19.0321   -8.8521 C   0  0  0  0  0  0  0  0  0  0  0  0
   44.6886  -17.5804   -8.4196 C   0  0  0  0  0  0  0  0  0  0  0  0
   43.3532  -17.0777   -8.9232 C   0  0  1  0  0  0  0  0  0  0  0  0
   43.3824  -15.6654   -9.3077 C   0  0  0  0  0  0  0  0  0  0  0  0
   43.3178  -15.3829  -10.5485 O   0  0  0  0  0  0  0  0  0  0  0  0
   39.9968  -11.7658   -5.6678 N   0  0  0  0  0  0  0  0  0  0  0  0
   41.1962  -11.4944   -6.3722 C   0  0  0  0  0  0  0  0  0  0  0  0
   41.9158  -10.5527   -5.9670 O   0  0  0  0  0  0  0  0  0  0  0  0
   41.6308  -12.2681   -7.5522 C   0  0  0  0  0  0  0  0  0  0  0  0
   43.1006  -12.2569   -7.7970 C   0  0  0  0  0  0  0  0  0  0  0  0
   43.5620  -13.2211   -8.8708 C   0  0  2  0  0  0  0  0  0  0  0  0
   43.4772  -14.5893   -8.4019 N   0  0  0  0  0  0  0  0  0  0  0  0
   44.9855  -12.8841   -9.2212 C   0  0  0  0  0  0  0  0  0  0  0  0
   45.8863  -13.5798   -8.6357 O   0  0  0  0  0  0  0  0  0  0  0  0
   45.3249  -11.8679  -10.1384 N   0  0  0  0  0  0  0  0  0  0  0  0
   44.4631  -10.9691  -10.8818 C   0  0  0  0  0  0  0  0  0  0  0  0
   45.2085  -10.8163  -12.2025 C   0  0  0  0  0  0  0  0  0  0  0  0
   46.6478  -10.8623  -11.8122 C   0  0  0  0  0  0  0  0  0  0  0  0
   46.7121  -11.5684  -10.5053 C   0  0  1  0  0  0  0  0  0  0  0  0
   47.2545  -10.6904   -9.4560 C   0  0  0  0  0  0  0  0  0  0  0  0
   46.4496   -9.9525   -8.6012 O   0  0  0  0  0  0  0  0  0  0  0  0
   48.5115  -10.6080   -9.3322 O   0  0  0  0  0  0  0  0  0  0  0  0
  1  5  1  0
  2  1  1  0
  3  2  1  0
  3  4  1  0
  4  5  1  0
  6  7  2  0
  5  6  1  6
  8  9  1  0
  9 11  1  0
 10  9  2  0
 11 12  1  0
 13 12  1  1
 13 14  1  0
 13 15  1  0
 14  6  1  0
 15 16  2  0
 17 15  1  0
 17 21  1  0
 18 17  1  0
 18 19  1  0
 19 20  1  0
 21 20  1  0
 22 23  1  0
 21 22  1  1
 24 22  2  0
M  END
$$$$
