PQP.pdb
     RDKit          3D

 24 25  0  0  1  0  0  0  0  0999 V2000
   29.8101  -22.5950  -18.2801 N   0  0  0  0  0  0  0  0  0  0  0  0
   30.7471  -23.6768  -18.0651 C   0  0  0  0  0  0  0  0  0  0  0  0
   29.8781  -24.9219  -17.9132 C   0  0  0  0  0  0  0  0  0  0  0  0
   28.7184  -24.3643  -17.1131 C   0  0  0  0  0  0  0  0  0  0  0  0
   28.5381  -23.0037  -17.7501 C   0  0  1  0  0  0  0  0  0  0  0  0
   28.0458  -21.9940  -16.8113 C   0  0  0  0  0  0  0  0  0  0  0  0
   28.9048  -21.3194  -16.1551 O   0  0  0  0  0  0  0  0  0  0  0  0
   23.6727  -17.6463  -17.4260 N   0  0  0  0  0  0  0  0  0  0  0  0
   24.0265  -17.5894  -16.0549 C   0  0  0  0  0  0  0  0  0  0  0  0
   23.5369  -16.6702  -15.3590 O   0  0  0  0  0  0  0  0  0  0  0  0
   24.9386  -18.5594  -15.4167 C   0  0  0  0  0  0  0  0  0  0  0  0
   25.4540  -19.6208  -16.3266 C   0  0  0  0  0  0  0  0  0  0  0  0
   26.2830  -20.6854  -15.6374 C   0  0  2  0  0  0  0  0  0  0  0  0
   26.6845  -21.7114  -16.5782 N   0  0  0  0  0  0  0  0  0  0  0  0
   25.4493  -21.2900  -14.5410 C   0  0  0  0  0  0  0  0  0  0  0  0
   24.6064  -22.1817  -14.9050 O   0  0  0  0  0  0  0  0  0  0  0  0
   25.5769  -20.9104  -13.1887 N   0  0  0  0  0  0  0  0  0  0  0  0
   26.4539  -19.9263  -12.5842 C   0  0  0  0  0  0  0  0  0  0  0  0
   26.7846  -20.5626  -11.2392 C   0  0  0  0  0  0  0  0  0  0  0  0
   25.5303  -21.2754  -10.8589 C   0  0  0  0  0  0  0  0  0  0  0  0
   24.7821  -21.5225  -12.1198 C   0  0  1  0  0  0  0  0  0  0  0  0
   23.4801  -20.8367  -12.1053 C   0  0  0  0  0  0  0  0  0  0  0  0
   22.3821  -21.3200  -11.4095 O   0  0  0  0  0  0  0  0  0  0  0  0
   23.3615  -19.7587  -12.7581 O   0  0  0  0  0  0  0  0  0  0  0  0
  1  5  1  0
  2  1  1  0
  3  2  1  0
  3  4  1  0
  4  5  1  0
  6  7  2  0
  5  6  1  1
  8  9  1  0
  9 11  1  0
 10  9  2  0
 11 12  1  0
 13 12  1  6
 13 14  1  0
 13 15  1  0
 14  6  1  0
 15 16  2  0
 17 15  1  0
 17 21  1  0
 18 17  1  0
 18 19  1  0
 19 20  1  0
 21 20  1  0
 22 23  1  0
 21 22  1  1
 24 22  2  0
M  END
$$$$
