PQP.pdb
     RDKit          3D

 24 25  0  0  1  0  0  0  0  0999 V2000
   27.4190  -20.7261  -15.8399 N   0  0  0  0  0  0  0  0  0  0  0  0
   27.0415  -20.7922  -17.2354 C   0  0  0  0  0  0  0  0  0  0  0  0
   27.3302  -19.3983  -17.7848 C   0  0  0  0  0  0  0  0  0  0  0  0
   26.8904  -18.5358  -16.6192 C   0  0  0  0  0  0  0  0  0  0  0  0
   27.3844  -19.3458  -15.4405 C   0  0  1  0  0  0  0  0  0  0  0  0
   26.5435  -19.1958  -14.2514 C   0  0  0  0  0  0  0  0  0  0  0  0
   26.3653  -18.0214  -13.7904 O   0  0  0  0  0  0  0  0  0  0  0  0
   20.9090  -21.3388  -13.1713 N   0  0  0  0  0  0  0  0  0  0  0  0
   21.2745  -20.7165  -11.9517 C   0  0  0  0  0  0  0  0  0  0  0  0
   20.3880  -20.5657  -11.0797 O   0  0  0  0  0  0  0  0  0  0  0  0
   22.6437  -20.2431  -11.6667 C   0  0  0  0  0  0  0  0  0  0  0  0
   23.6328  -20.5117  -12.7483 C   0  0  0  0  0  0  0  0  0  0  0  0
   25.0334  -20.0164  -12.4504 C   0  0  2  0  0  0  0  0  0  0  0  0
   25.9133  -20.2602  -13.5753 N   0  0  0  0  0  0  0  0  0  0  0  0
   25.5379  -20.7447  -11.2347 C   0  0  0  0  0  0  0  0  0  0  0  0
   25.8620  -21.9704  -11.4102 O   0  0  0  0  0  0  0  0  0  0  0  0
   25.6550  -20.1291   -9.9712 N   0  0  0  0  0  0  0  0  0  0  0  0
   25.2762  -18.7921   -9.5563 C   0  0  0  0  0  0  0  0  0  0  0  0
   26.3623  -18.4413   -8.5461 C   0  0  0  0  0  0  0  0  0  0  0  0
   26.6646  -19.7394   -7.8755 C   0  0  0  0  0  0  0  0  0  0  0  0
   26.2384  -20.8121   -8.8128 C   0  0  1  0  0  0  0  0  0  0  0  0
   25.1751  -21.6397   -8.2209 C   0  0  0  0  0  0  0  0  0  0  0  0
   25.4049  -22.5340   -7.1862 O   0  0  0  0  0  0  0  0  0  0  0  0
   24.0007  -21.5273   -8.6796 O   0  0  0  0  0  0  0  0  0  0  0  0
  1  5  1  0
  2  1  1  0
  3  2  1  0
  3  4  1  0
  4  5  1  0
  6  7  2  0
  5  6  1  1
  8  9  1  0
  9 11  1  0
 10  9  2  0
 11 12  1  0
 13 12  1  6
 13 14  1  0
 13 15  1  0
 14  6  1  0
 15 16  2  0
 17 15  1  0
 17 21  1  0
 18 17  1  0
 18 19  1  0
 19 20  1  0
 21 20  1  0
 22 23  1  0
 21 22  1  1
 24 22  2  0
M  END
$$$$
