PQP.pdb
     RDKit          3D

 24 25  0  0  1  0  0  0  0  0999 V2000
   19.6387  -12.3117  -15.7711 N   0  0  0  0  0  0  0  0  0  0  0  0
   18.8509  -13.5237  -15.7008 C   0  0  0  0  0  0  0  0  0  0  0  0
   18.0521  -13.5464  -17.0006 C   0  0  0  0  0  0  0  0  0  0  0  0
   17.7069  -12.0785  -17.1488 C   0  0  0  0  0  0  0  0  0  0  0  0
   18.9896  -11.4187  -16.6915 C   0  0  1  0  0  0  0  0  0  0  0  0
   18.7676  -10.1219  -16.0493 C   0  0  0  0  0  0  0  0  0  0  0  0
   18.3330   -9.1652  -16.7700 O   0  0  0  0  0  0  0  0  0  0  0  0
   17.0119   -8.7488  -10.0807 N   0  0  0  0  0  0  0  0  0  0  0  0
   17.2408   -7.5030  -10.7163 C   0  0  0  0  0  0  0  0  0  0  0  0
   16.9289   -6.4604  -10.0961 O   0  0  0  0  0  0  0  0  0  0  0  0
   17.8272   -7.3823  -12.0660 C   0  0  0  0  0  0  0  0  0  0  0  0
   18.1413   -8.6805  -12.7265 C   0  0  0  0  0  0  0  0  0  0  0  0
   18.7180   -8.5477  -14.1213 C   0  0  2  0  0  0  0  0  0  0  0  0
   19.0006   -9.8519  -14.6854 N   0  0  0  0  0  0  0  0  0  0  0  0
   19.9846   -7.7415  -14.0286 C   0  0  0  0  0  0  0  0  0  0  0  0
   21.0234   -8.3739  -13.6298 O   0  0  0  0  0  0  0  0  0  0  0  0
   20.0422   -6.3716  -14.3589 N   0  0  0  0  0  0  0  0  0  0  0  0
   18.9678   -5.4545  -14.6872 C   0  0  0  0  0  0  0  0  0  0  0  0
   19.6140   -4.5511  -15.7310 C   0  0  0  0  0  0  0  0  0  0  0  0
   21.0337   -4.4423  -15.2852 C   0  0  0  0  0  0  0  0  0  0  0  0
   21.3053   -5.6316  -14.4352 C   0  0  1  0  0  0  0  0  0  0  0  0
   21.6534   -5.2320  -13.0622 C   0  0  0  0  0  0  0  0  0  0  0  0
   22.8869   -4.6964  -12.7236 O   0  0  0  0  0  0  0  0  0  0  0  0
   20.7858   -5.3860  -12.1535 O   0  0  0  0  0  0  0  0  0  0  0  0
  1  5  1  0
  2  1  1  0
  3  2  1  0
  3  4  1  0
  4  5  1  0
  6  7  2  0
  5  6  1  1
  8  9  1  0
  9 11  1  0
 10  9  2  0
 11 12  1  0
 13 12  1  1
 13 14  1  0
 13 15  1  0
 14  6  1  0
 15 16  2  0
 17 15  1  0
 17 21  1  0
 18 17  1  0
 18 19  1  0
 19 20  1  0
 21 20  1  0
 22 23  1  0
 21 22  1  1
 24 22  2  0
M  END
$$$$
