KAT.pdb
     RDKit          3D

 22 21  0  0  1  0  0  0  0  0999 V2000
    6.9921  -15.2094   18.4071 N   0  0  0  0  0  0  0  0  0  0  0  0
    8.2991  -14.5867   18.3705 C   0  0  1  0  0  0  0  0  0  0  0  0
    8.2525  -13.2389   17.6779 C   0  0  0  0  0  0  0  0  0  0  0  0
    7.6037  -13.4123   16.3476 C   0  0  0  0  0  0  0  0  0  0  0  0
    8.4466  -14.0406   15.2983 C   0  0  0  0  0  0  0  0  0  0  0  0
    7.8197  -14.1755   13.9555 C   0  0  0  0  0  0  0  0  0  0  0  0
    8.7084  -14.7470   12.9641 N   0  0  0  0  0  0  0  0  0  0  0  0
    8.8579  -14.5470   19.7152 C   0  0  0  0  0  0  0  0  0  0  0  0
   10.0889  -14.3513   19.8630 O   0  0  0  0  0  0  0  0  0  0  0  0
    7.6263  -14.4728   23.3033 C   0  0  0  0  0  0  0  0  0  0  0  0
    8.6628  -14.7242   22.2212 C   0  0  2  0  0  0  0  0  0  0  0  0
    8.0996  -14.7168   20.9095 N   0  0  0  0  0  0  0  0  0  0  0  0
    9.3612  -15.9904   22.5488 C   0  0  0  0  0  0  0  0  0  0  0  0
    8.8179  -17.1079   22.3488 O   0  0  0  0  0  0  0  0  0  0  0  0
   13.6265  -18.2525   23.6585 C   0  0  0  0  0  0  0  0  0  0  0  0
   12.8513  -17.0431   23.2443 C   0  0  1  0  0  0  0  0  0  0  0  0
   13.0726  -16.8130   21.8881 O   0  0  0  0  0  0  0  0  0  0  0  0
   11.3495  -17.2308   23.4833 C   0  0  2  0  0  0  0  0  0  0  0  0
   10.6706  -15.9981   23.1013 N   0  0  0  0  0  0  0  0  0  0  0  0
   11.0670  -17.5625   24.8824 C   0  0  0  0  0  0  0  0  0  0  0  0
   11.0910  -18.8530   25.4042 O   0  0  0  0  0  0  0  0  0  0  0  0
   10.7817  -16.6335   25.6814 O   0  0  0  0  0  0  0  0  0  0  0  0
  2  1  1  1
  2  8  1  0
  3  2  1  0
  4  3  1  0
  5  4  1  0
  6  5  1  0
  7  6  1  0
  8  9  2  0
 11 10  1  1
 12  8  1  0
 12 11  1  0
 13 19  1  0
 13 11  1  0
 14 13  2  0
 16 15  1  6
 17 16  1  0
 18 19  1  1
 18 16  1  0
 20 21  1  0
 20 18  1  0
 22 20  2  0
M  END
$$$$
