KAT.pdb
     RDKit          3D

 22 21  0  0  1  0  0  0  0  0999 V2000
    8.5350  -16.7959   18.4516 N   0  0  0  0  0  0  0  0  0  0  0  0
    9.8274  -16.2315   18.7806 C   0  0  1  0  0  0  0  0  0  0  0  0
   10.4384  -15.5144   17.5928 C   0  0  0  0  0  0  0  0  0  0  0  0
    9.4900  -15.6032   16.4469 C   0  0  0  0  0  0  0  0  0  0  0  0
    8.9024  -14.3152   15.9974 C   0  0  0  0  0  0  0  0  0  0  0  0
    8.0676  -14.3758   14.7671 C   0  0  0  0  0  0  0  0  0  0  0  0
    7.3919  -13.1285   14.4721 N   0  0  0  0  0  0  0  0  0  0  0  0
    9.7100  -15.4094   19.9775 C   0  0  0  0  0  0  0  0  0  0  0  0
   10.7284  -14.8289   20.4260 O   0  0  0  0  0  0  0  0  0  0  0  0
    6.9692  -14.1061   22.2705 C   0  0  0  0  0  0  0  0  0  0  0  0
    8.4045  -14.4450   21.9049 C   0  0  2  0  0  0  0  0  0  0  0  0
    8.4992  -15.2049   20.7002 N   0  0  0  0  0  0  0  0  0  0  0  0
    9.0209  -15.1218   23.0713 C   0  0  0  0  0  0  0  0  0  0  0  0
    9.0524  -14.5742   24.2040 O   0  0  0  0  0  0  0  0  0  0  0  0
   10.8501  -18.9762   22.5849 C   0  0  0  0  0  0  0  0  0  0  0  0
   10.0711  -18.6329   23.8139 C   0  0  1  0  0  0  0  0  0  0  0  0
   10.6033  -19.3371   24.8919 O   0  0  0  0  0  0  0  0  0  0  0  0
   10.1323  -17.1318   24.1153 C   0  0  2  0  0  0  0  0  0  0  0  0
    9.6016  -16.4144   22.9620 N   0  0  0  0  0  0  0  0  0  0  0  0
   11.5019  -16.6991   24.4058 C   0  0  0  0  0  0  0  0  0  0  0  0
   12.1915  -17.0070   25.5753 O   0  0  0  0  0  0  0  0  0  0  0  0
   12.1123  -16.0023   23.5546 O   0  0  0  0  0  0  0  0  0  0  0  0
  2  1  1  6
  2  8  1  0
  3  2  1  0
  4  3  1  0
  5  4  1  0
  6  5  1  0
  7  6  1  0
  8  9  2  0
 11 10  1  1
 12  8  1  0
 12 11  1  0
 13 19  1  0
 13 11  1  0
 14 13  2  0
 16 15  1  6
 17 16  1  0
 18 19  1  6
 18 16  1  0
 20 21  1  0
 20 18  1  0
 22 20  2  0
M  END
$$$$
