KAT.pdb
     RDKit          3D

 22 21  0  0  1  0  0  0  0  0999 V2000
    6.1515  -16.8192   22.5298 N   0  0  0  0  0  0  0  0  0  0  0  0
    7.3865  -16.0780   22.6798 C   0  0  1  0  0  0  0  0  0  0  0  0
    7.1232  -14.6067   22.9336 C   0  0  0  0  0  0  0  0  0  0  0  0
    6.7991  -13.9526   21.6344 C   0  0  0  0  0  0  0  0  0  0  0  0
    7.9631  -13.6235   20.7724 C   0  0  0  0  0  0  0  0  0  0  0  0
    7.6533  -12.8961   19.5117 C   0  0  0  0  0  0  0  0  0  0  0  0
    8.8034  -12.7382   18.6449 N   0  0  0  0  0  0  0  0  0  0  0  0
    8.2193  -16.7174   23.6895 C   0  0  0  0  0  0  0  0  0  0  0  0
    7.6805  -17.1921   24.7190 O   0  0  0  0  0  0  0  0  0  0  0  0
   11.8008  -17.9291   24.0042 C   0  0  0  0  0  0  0  0  0  0  0  0
   10.4335  -17.5560   24.5518 C   0  0  2  0  0  0  0  0  0  0  0  0
    9.6350  -16.8517   23.6009 N   0  0  0  0  0  0  0  0  0  0  0  0
   10.6407  -16.8020   25.8116 C   0  0  0  0  0  0  0  0  0  0  0  0
   11.4471  -17.2049   26.6899 O   0  0  0  0  0  0  0  0  0  0  0  0
    9.2124  -12.7153   26.2973 C   0  0  0  0  0  0  0  0  0  0  0  0
    9.0909  -13.7365   27.3824 C   0  0  1  0  0  0  0  0  0  0  0  0
    7.8467  -14.3546   27.2775 O   0  0  0  0  0  0  0  0  0  0  0  0
   10.1899  -14.7991   27.2779 C   0  0  2  0  0  0  0  0  0  0  0  0
    9.9404  -15.5953   26.0820 N   0  0  0  0  0  0  0  0  0  0  0  0
   10.2239  -15.6534   28.4680 C   0  0  0  0  0  0  0  0  0  0  0  0
   10.5817  -15.2148   29.7399 O   0  0  0  0  0  0  0  0  0  0  0  0
    9.9127  -16.8670   28.3538 O   0  0  0  0  0  0  0  0  0  0  0  0
  2  1  1  1
  2  8  1  0
  3  2  1  0
  4  3  1  0
  5  4  1  0
  6  5  1  0
  7  6  1  0
  8  9  2  0
 11 10  1  6
 12  8  1  0
 12 11  1  0
 13 19  1  0
 13 11  1  0
 14 13  2  0
 16 15  1  6
 17 16  1  0
 18 19  1  6
 18 16  1  0
 20 21  1  0
 20 18  1  0
 22 20  2  0
M  END
$$$$
