KAT.pdb
     RDKit          3D

 22 21  0  0  1  0  0  0  0  0999 V2000
    7.7519  -16.7158   18.2467 N   0  0  0  0  0  0  0  0  0  0  0  0
    7.0605  -16.7099   19.5191 C   0  0  1  0  0  0  0  0  0  0  0  0
    6.5359  -18.0879   19.8719 C   0  0  0  0  0  0  0  0  0  0  0  0
    5.6814  -18.5707   18.7507 C   0  0  0  0  0  0  0  0  0  0  0  0
    4.4255  -19.2567   19.1489 C   0  0  0  0  0  0  0  0  0  0  0  0
    3.5971  -19.7938   18.0355 C   0  0  0  0  0  0  0  0  0  0  0  0
    4.2846  -20.7908   17.2402 N   0  0  0  0  0  0  0  0  0  0  0  0
    7.9187  -16.1200   20.5376 C   0  0  0  0  0  0  0  0  0  0  0  0
    9.1546  -16.3354   20.4991 O   0  0  0  0  0  0  0  0  0  0  0  0
    7.5551  -13.8747   23.6001 C   0  0  0  0  0  0  0  0  0  0  0  0
    8.2750  -14.8511   22.6853 C   0  0  2  0  0  0  0  0  0  0  0  0
    7.4563  -15.2951   21.6035 N   0  0  0  0  0  0  0  0  0  0  0  0
    8.7878  -15.9621   23.5228 C   0  0  0  0  0  0  0  0  0  0  0  0
    8.0109  -16.8169   24.0226 O   0  0  0  0  0  0  0  0  0  0  0  0
   11.3502  -18.3692   22.3948 C   0  0  0  0  0  0  0  0  0  0  0  0
   11.8421  -17.8652   23.7136 C   0  0  1  0  0  0  0  0  0  0  0  0
   12.8188  -16.8979   23.4866 O   0  0  0  0  0  0  0  0  0  0  0  0
   10.7065  -17.2486   24.5370 C   0  0  2  0  0  0  0  0  0  0  0  0
   10.1744  -16.1103   23.7971 N   0  0  0  0  0  0  0  0  0  0  0  0
   11.1717  -16.8299   25.8621 C   0  0  0  0  0  0  0  0  0  0  0  0
   11.4999  -17.7066   26.8926 O   0  0  0  0  0  0  0  0  0  0  0  0
   11.2892  -15.6011   26.1045 O   0  0  0  0  0  0  0  0  0  0  0  0
  2  1  1  6
  2  8  1  0
  3  2  1  0
  4  3  1  0
  5  4  1  0
  6  5  1  0
  7  6  1  0
  8  9  2  0
 11 10  1  1
 12  8  1  0
 12 11  1  0
 13 19  1  0
 13 11  1  0
 14 13  2  0
 16 15  1  6
 17 16  1  0
 18 19  1  6
 18 16  1  0
 20 21  1  0
 20 18  1  0
 22 20  2  0
M  END
$$$$
