KAT.pdb
     RDKit          3D

 22 21  0  0  1  0  0  0  0  0999 V2000
    8.6868  -18.6848   18.9257 N   0  0  0  0  0  0  0  0  0  0  0  0
    9.5110  -17.6014   18.4315 C   0  0  1  0  0  0  0  0  0  0  0  0
    9.3505  -17.4204   16.9348 C   0  0  0  0  0  0  0  0  0  0  0  0
    8.8379  -18.6943   16.3560 C   0  0  0  0  0  0  0  0  0  0  0  0
    7.6276  -18.5720   15.5036 C   0  0  0  0  0  0  0  0  0  0  0  0
    7.0979  -19.8434   14.9405 C   0  0  0  0  0  0  0  0  0  0  0  0
    5.9301  -19.6558   14.1037 N   0  0  0  0  0  0  0  0  0  0  0  0
    9.2511  -16.3973   19.2089 C   0  0  0  0  0  0  0  0  0  0  0  0
   10.0173  -15.4107   19.0874 O   0  0  0  0  0  0  0  0  0  0  0  0
    6.4302  -14.8781   21.1843 C   0  0  0  0  0  0  0  0  0  0  0  0
    7.9042  -15.0506   20.8587 C   0  0  2  0  0  0  0  0  0  0  0  0
    8.1673  -16.2441   20.1212 N   0  0  0  0  0  0  0  0  0  0  0  0
    8.6611  -14.9726   22.1313 C   0  0  0  0  0  0  0  0  0  0  0  0
    8.5967  -13.9553   22.8694 O   0  0  0  0  0  0  0  0  0  0  0  0
    8.4908  -17.2038   25.0819 C   0  0  0  0  0  0  0  0  0  0  0  0
    9.9220  -17.2082   24.6496 C   0  0  1  0  0  0  0  0  0  0  0  0
   10.1563  -18.3528   23.8905 O   0  0  0  0  0  0  0  0  0  0  0  0
   10.2579  -15.9713   23.8100 C   0  0  2  0  0  0  0  0  0  0  0  0
    9.4899  -16.0396   22.5723 N   0  0  0  0  0  0  0  0  0  0  0  0
   11.6927  -15.8924   23.5225 C   0  0  0  0  0  0  0  0  0  0  0  0
   12.2523  -16.0765   22.2611 O   0  0  0  0  0  0  0  0  0  0  0  0
   12.4883  -15.6428   24.4645 O   0  0  0  0  0  0  0  0  0  0  0  0
  2  1  1  1
  2  8  1  0
  3  2  1  0
  4  3  1  0
  5  4  1  0
  6  5  1  0
  7  6  1  0
  8  9  2  0
 11 10  1  1
 12  8  1  0
 12 11  1  0
 13 19  1  0
 13 11  1  0
 14 13  2  0
 16 15  1  6
 17 16  1  0
 18 19  1  6
 18 16  1  0
 20 21  1  0
 20 18  1  0
 22 20  2  0
M  END
$$$$
