KAT.pdb
     RDKit          3D

 22 21  0  0  1  0  0  0  0  0999 V2000
    5.7743  -16.0017   21.2015 N   0  0  0  0  0  0  0  0  0  0  0  0
    7.1111  -15.5831   21.5690 C   0  0  1  0  0  0  0  0  0  0  0  0
    7.2587  -14.0757   21.5012 C   0  0  0  0  0  0  0  0  0  0  0  0
    7.2411  -13.6621   20.0697 C   0  0  0  0  0  0  0  0  0  0  0  0
    8.5099  -13.0910   19.5499 C   0  0  0  0  0  0  0  0  0  0  0  0
    8.4740  -12.5984   18.1462 C   0  0  0  0  0  0  0  0  0  0  0  0
    9.7405  -12.0558   17.6977 N   0  0  0  0  0  0  0  0  0  0  0  0
    7.4649  -16.1593   22.8593 C   0  0  0  0  0  0  0  0  0  0  0  0
    6.7457  -15.9156   23.8586 O   0  0  0  0  0  0  0  0  0  0  0  0
    9.8044  -18.7711   24.2729 C   0  0  0  0  0  0  0  0  0  0  0  0
    8.9725  -17.5031   24.3662 C   0  0  2  0  0  0  0  0  0  0  0  0
    8.5924  -17.0006   23.0852 N   0  0  0  0  0  0  0  0  0  0  0  0
    9.7334  -16.5211   25.1756 C   0  0  0  0  0  0  0  0  0  0  0  0
   10.6460  -15.8203   24.6657 O   0  0  0  0  0  0  0  0  0  0  0  0
    9.7499  -13.2951   28.7604 C   0  0  0  0  0  0  0  0  0  0  0  0
    9.1123  -14.3813   27.9549 C   0  0  1  0  0  0  0  0  0  0  0  0
    8.3767  -13.8005   26.9240 O   0  0  0  0  0  0  0  0  0  0  0  0
   10.1610  -15.3234   27.3545 C   0  0  2  0  0  0  0  0  0  0  0  0
    9.4668  -16.3285   26.5582 N   0  0  0  0  0  0  0  0  0  0  0  0
   10.9688  -15.9605   28.3981 C   0  0  0  0  0  0  0  0  0  0  0  0
   12.0112  -15.3348   29.0763 O   0  0  0  0  0  0  0  0  0  0  0  0
   10.7197  -17.1517   28.7169 O   0  0  0  0  0  0  0  0  0  0  0  0
  2  1  1  1
  2  8  1  0
  3  2  1  0
  4  3  1  0
  5  4  1  0
  6  5  1  0
  7  6  1  0
  8  9  2  0
 11 10  1  6
 12  8  1  0
 12 11  1  0
 13 19  1  0
 13 11  1  0
 14 13  2  0
 16 15  1  6
 17 16  1  0
 18 19  1  1
 18 16  1  0
 20 21  1  0
 20 18  1  0
 22 20  2  0
M  END
$$$$
