KAT.pdb
     RDKit          3D

 22 21  0  0  1  0  0  0  0  0999 V2000
    8.6798  -12.4977   18.9653 N   0  0  0  0  0  0  0  0  0  0  0  0
    7.9295  -13.5654   19.5933 C   0  0  1  0  0  0  0  0  0  0  0  0
    7.9970  -14.8434   18.7806 C   0  0  0  0  0  0  0  0  0  0  0  0
    7.7967  -14.5023   17.3439 C   0  0  0  0  0  0  0  0  0  0  0  0
    7.8463  -15.6468   16.3984 C   0  0  0  0  0  0  0  0  0  0  0  0
    7.6017  -15.3190   14.9677 C   0  0  0  0  0  0  0  0  0  0  0  0
    7.5216  -16.4899   14.1181 N   0  0  0  0  0  0  0  0  0  0  0  0
    8.3598  -13.7153   20.9769 C   0  0  0  0  0  0  0  0  0  0  0  0
    9.5825  -13.8444   21.2290 O   0  0  0  0  0  0  0  0  0  0  0  0
    6.9018  -13.4414   24.4642 C   0  0  0  0  0  0  0  0  0  0  0  0
    7.9020  -13.9566   23.4430 C   0  0  2  0  0  0  0  0  0  0  0  0
    7.4810  -13.7272   22.0984 N   0  0  0  0  0  0  0  0  0  0  0  0
    8.1548  -15.3874   23.7389 C   0  0  0  0  0  0  0  0  0  0  0  0
    7.2938  -16.2697   23.4859 O   0  0  0  0  0  0  0  0  0  0  0  0
   10.8545  -17.4471   22.3669 C   0  0  0  0  0  0  0  0  0  0  0  0
   10.9822  -17.5760   23.8509 C   0  0  1  0  0  0  0  0  0  0  0  0
   11.9782  -16.7069   24.2911 O   0  0  0  0  0  0  0  0  0  0  0  0
    9.6673  -17.2327   24.5587 C   0  0  2  0  0  0  0  0  0  0  0  0
    9.3764  -15.8240   24.3194 N   0  0  0  0  0  0  0  0  0  0  0  0
    9.7457  -17.5057   25.9963 C   0  0  0  0  0  0  0  0  0  0  0  0
    9.7899  -18.7813   26.5523 O   0  0  0  0  0  0  0  0  0  0  0  0
    9.7760  -16.5367   26.7980 O   0  0  0  0  0  0  0  0  0  0  0  0
  2  1  1  6
  2  8  1  0
  3  2  1  0
  4  3  1  0
  5  4  1  0
  6  5  1  0
  7  6  1  0
  8  9  2  0
 11 10  1  1
 12  8  1  0
 12 11  1  0
 13 19  1  0
 13 11  1  0
 14 13  2  0
 16 15  1  6
 17 16  1  0
 18 19  1  1
 18 16  1  0
 20 21  1  0
 20 18  1  0
 22 20  2  0
M  END
$$$$
