KAT.pdb
     RDKit          3D

 22 21  0  0  1  0  0  0  0  0999 V2000
    4.3754  -20.8588   21.1475 N   0  0  0  0  0  0  0  0  0  0  0  0
    5.7251  -20.7856   21.6671 C   0  0  1  0  0  0  0  0  0  0  0  0
    6.7322  -20.5335   20.5623 C   0  0  0  0  0  0  0  0  0  0  0  0
    6.2104  -21.1306   19.3006 C   0  0  0  0  0  0  0  0  0  0  0  0
    7.1102  -21.0326   18.1228 C   0  0  0  0  0  0  0  0  0  0  0  0
    8.5582  -21.2450   18.3917 C   0  0  0  0  0  0  0  0  0  0  0  0
    9.3789  -21.1663   17.2002 N   0  0  0  0  0  0  0  0  0  0  0  0
    5.7773  -19.8168   22.7538 C   0  0  0  0  0  0  0  0  0  0  0  0
    5.1634  -18.7284   22.6360 O   0  0  0  0  0  0  0  0  0  0  0  0
    6.7911  -19.6594   26.3816 C   0  0  0  0  0  0  0  0  0  0  0  0
    6.5731  -19.0357   25.0134 C   0  0  2  0  0  0  0  0  0  0  0  0
    6.4881  -20.0099   23.9734 N   0  0  0  0  0  0  0  0  0  0  0  0
    7.6494  -18.0400   24.7931 C   0  0  0  0  0  0  0  0  0  0  0  0
    8.7710  -18.3798   24.3342 O   0  0  0  0  0  0  0  0  0  0  0  0
    7.1674  -14.4042   23.1673 C   0  0  0  0  0  0  0  0  0  0  0  0
    7.8272  -14.3397   24.5073 C   0  0  1  0  0  0  0  0  0  0  0  0
    6.8610  -14.0478   25.4679 O   0  0  0  0  0  0  0  0  0  0  0  0
    8.5042  -15.6673   24.8634 C   0  0  2  0  0  0  0  0  0  0  0  0
    7.4628  -16.6626   25.0896 N   0  0  0  0  0  0  0  0  0  0  0  0
    9.3554  -15.5336   26.0487 C   0  0  0  0  0  0  0  0  0  0  0  0
   10.5456  -14.8122   26.0838 O   0  0  0  0  0  0  0  0  0  0  0  0
    9.0050  -16.1009   27.1155 O   0  0  0  0  0  0  0  0  0  0  0  0
  2  1  1  6
  2  8  1  0
  3  2  1  0
  4  3  1  0
  5  4  1  0
  6  5  1  0
  7  6  1  0
  8  9  2  0
 11 10  1  1
 12  8  1  0
 12 11  1  0
 13 19  1  0
 13 11  1  0
 14 13  2  0
 16 15  1  6
 17 16  1  0
 18 19  1  1
 18 16  1  0
 20 21  1  0
 20 18  1  0
 22 20  2  0
M  END
$$$$
