KAT.pdb
     RDKit          3D

 22 21  0  0  1  0  0  0  0  0999 V2000
    7.2361  -17.8065   18.4983 N   0  0  0  0  0  0  0  0  0  0  0  0
    8.6799  -17.8393   18.3897 C   0  0  1  0  0  0  0  0  0  0  0  0
    9.1467  -17.3251   17.0421 C   0  0  0  0  0  0  0  0  0  0  0  0
    8.7013  -18.2816   15.9899 C   0  0  0  0  0  0  0  0  0  0  0  0
    9.0749  -17.9251   14.5972 C   0  0  0  0  0  0  0  0  0  0  0  0
    8.7002  -18.9140   13.5503 C   0  0  0  0  0  0  0  0  0  0  0  0
    9.0788  -18.5031   12.2135 N   0  0  0  0  0  0  0  0  0  0  0  0
    9.2702  -17.1490   19.5285 C   0  0  0  0  0  0  0  0  0  0  0  0
   10.4997  -17.2702   19.7500 O   0  0  0  0  0  0  0  0  0  0  0  0
    8.2343  -14.5608   22.1121 C   0  0  0  0  0  0  0  0  0  0  0  0
    9.1328  -15.6486   21.5482 C   0  0  2  0  0  0  0  0  0  0  0  0
    8.5453  -16.3241   20.4363 N   0  0  0  0  0  0  0  0  0  0  0  0
    9.4926  -16.5603   22.6608 C   0  0  0  0  0  0  0  0  0  0  0  0
    8.6226  -17.2632   23.2378 O   0  0  0  0  0  0  0  0  0  0  0  0
   12.3496  -19.0726   22.5278 C   0  0  0  0  0  0  0  0  0  0  0  0
   12.5133  -18.2902   23.7912 C   0  0  1  0  0  0  0  0  0  0  0  0
   13.5014  -17.3275   23.5962 O   0  0  0  0  0  0  0  0  0  0  0  0
   11.2082  -17.5958   24.1937 C   0  0  2  0  0  0  0  0  0  0  0  0
   10.8312  -16.6803   23.1231 N   0  0  0  0  0  0  0  0  0  0  0  0
   11.3538  -16.8745   25.4610 C   0  0  0  0  0  0  0  0  0  0  0  0
   11.4624  -17.4880   26.7060 O   0  0  0  0  0  0  0  0  0  0  0  0
   11.3849  -15.6170   25.4443 O   0  0  0  0  0  0  0  0  0  0  0  0
  2  1  1  6
  2  8  1  0
  3  2  1  0
  4  3  1  0
  5  4  1  0
  6  5  1  0
  7  6  1  0
  8  9  2  0
 11 10  1  1
 12  8  1  0
 12 11  1  0
 13 19  1  0
 13 11  1  0
 14 13  2  0
 16 15  1  6
 17 16  1  0
 18 19  1  6
 18 16  1  0
 20 21  1  0
 20 18  1  0
 22 20  2  0
M  END
$$$$
