MKA.pdb
     RDKit          3D

 23 22  0  0  1  0  0  0  0  0999 V2000
   22.1589  -22.5102  -16.5391 C   0  0  0  0  0  0  0  0  0  0  0  0
   22.3350  -20.7835  -16.1209 S   0  0  0  0  0  0  0  0  0  0  0  0
   23.9974  -20.1509  -16.2688 C   0  0  0  0  0  0  0  0  0  0  0  0
   24.0930  -18.6636  -16.1693 C   0  0  0  0  0  0  0  0  0  0  0  0
   25.5245  -18.1921  -16.3830 C   0  0  2  0  0  0  0  0  0  0  0  0
   26.4142  -18.6771  -15.3761 N   0  0  0  0  0  0  0  0  0  0  0  0
   25.6090  -16.7181  -16.4685 C   0  0  0  0  0  0  0  0  0  0  0  0
   25.7263  -16.0595  -15.3970 O   0  0  0  0  0  0  0  0  0  0  0  0
   25.5611  -16.0288  -17.7274 N   0  0  0  0  0  0  0  0  0  0  0  0
   25.6871  -14.6102  -17.7781 C   0  0  1  0  0  0  0  0  0  0  0  0
   26.7722  -14.2340  -18.7706 C   0  0  0  0  0  0  0  0  0  0  0  0
   28.1433  -14.6182  -18.2506 C   0  0  0  0  0  0  0  0  0  0  0  0
   29.2256  -14.3337  -19.2419 C   0  0  0  0  0  0  0  0  0  0  0  0
   30.5519  -14.7127  -18.6412 C   0  0  0  0  0  0  0  0  0  0  0  0
   31.6440  -14.5555  -19.5703 N   0  0  0  0  0  0  0  0  0  0  0  0
   24.4275  -13.9232  -18.1708 C   0  0  0  0  0  0  0  0  0  0  0  0
   23.7108  -14.4078  -19.0843 O   0  0  0  0  0  0  0  0  0  0  0  0
   22.1118  -11.2380  -16.8978 C   0  0  0  0  0  0  0  0  0  0  0  0
   22.7152  -12.0861  -18.0010 C   0  0  2  0  0  0  0  0  0  0  0  0
   23.9584  -12.7209  -17.5713 N   0  0  0  0  0  0  0  0  0  0  0  0
   22.9723  -11.3227  -19.2362 C   0  0  0  0  0  0  0  0  0  0  0  0
   24.1008  -10.8517  -19.5304 O   0  0  0  0  0  0  0  0  0  0  0  0
   21.9475  -11.0914  -20.1417 O   0  0  0  0  0  0  0  0  0  0  0  0
  2  3  1  0
  2  1  1  0
  4  5  1  0
  4  3  1  0
  5  6  1  1
  7  8  2  0
  7  5  1  0
  9  7  1  0
 10 11  1  6
 10  9  1  0
 11 12  1  0
 12 13  1  0
 13 14  1  0
 14 15  1  0
 16 10  1  0
 17 16  2  0
 19 18  1  1
 19 20  1  0
 20 16  1  0
 21 19  1  0
 21 23  1  0
 22 21  2  0
M  END
$$$$
