MKA.pdb
     RDKit          3D

 23 22  0  0  1  0  0  0  0  0999 V2000
    8.8552  -12.9785  -11.2519 C   0  0  0  0  0  0  0  0  0  0  0  0
   10.4098  -12.6530  -10.4366 S   0  0  0  0  0  0  0  0  0  0  0  0
   11.7963  -12.4437  -11.5408 C   0  0  0  0  0  0  0  0  0  0  0  0
   13.1090  -12.2873  -10.8455 C   0  0  0  0  0  0  0  0  0  0  0  0
   14.2397  -12.1008  -11.8475 C   0  0  2  0  0  0  0  0  0  0  0  0
   14.8303  -13.3409  -12.2399 N   0  0  0  0  0  0  0  0  0  0  0  0
   15.2795  -11.1822  -11.3355 C   0  0  0  0  0  0  0  0  0  0  0  0
   16.1770  -11.6511  -10.5805 O   0  0  0  0  0  0  0  0  0  0  0  0
   15.2902   -9.7867  -11.6744 N   0  0  0  0  0  0  0  0  0  0  0  0
   16.2789   -8.9190  -11.1262 C   0  0  1  0  0  0  0  0  0  0  0  0
   17.2456   -8.4998  -12.2188 C   0  0  0  0  0  0  0  0  0  0  0  0
   18.3316   -7.5966  -11.6685 C   0  0  0  0  0  0  0  0  0  0  0  0
   19.2521   -7.1012  -12.7373 C   0  0  0  0  0  0  0  0  0  0  0  0
   20.2834   -6.1991  -12.1158 C   0  0  0  0  0  0  0  0  0  0  0  0
   21.2926   -5.7823  -13.0585 N   0  0  0  0  0  0  0  0  0  0  0  0
   15.7058   -7.6946  -10.5057 C   0  0  0  0  0  0  0  0  0  0  0  0
   15.0068   -6.9118  -11.1997 O   0  0  0  0  0  0  0  0  0  0  0  0
   15.3700   -6.0969   -7.0785 C   0  0  0  0  0  0  0  0  0  0  0  0
   15.3371   -6.0983   -8.5948 C   0  0  2  0  0  0  0  0  0  0  0  0
   15.8956   -7.3314   -9.1430 N   0  0  0  0  0  0  0  0  0  0  0  0
   16.0483   -4.9494   -9.1854 C   0  0  0  0  0  0  0  0  0  0  0  0
   17.2470   -5.0036   -9.5626 O   0  0  0  0  0  0  0  0  0  0  0  0
   15.4001   -3.7343   -9.3490 O   0  0  0  0  0  0  0  0  0  0  0  0
  2  3  1  0
  2  1  1  0
  4  5  1  0
  4  3  1  0
  5  6  1  1
  7  8  2  0
  7  5  1  0
  9  7  1  0
 10 11  1  6
 10  9  1  0
 11 12  1  0
 12 13  1  0
 13 14  1  0
 14 15  1  0
 16 10  1  0
 17 16  2  0
 19 18  1  1
 19 20  1  0
 20 16  1  0
 21 19  1  0
 21 23  1  0
 22 21  2  0
M  END
$$$$
