MKA.pdb
     RDKit          3D

 23 22  0  0  1  0  0  0  0  0999 V2000
   29.1326  -19.9382   -7.2128 C   0  0  0  0  0  0  0  0  0  0  0  0
   27.3856  -19.8275   -6.8619 S   0  0  0  0  0  0  0  0  0  0  0  0
   26.3302  -20.5073   -8.1306 C   0  0  0  0  0  0  0  0  0  0  0  0
   26.7715  -20.1913   -9.5222 C   0  0  0  0  0  0  0  0  0  0  0  0
   25.6305  -20.3758  -10.5129 C   0  0  2  0  0  0  0  0  0  0  0  0
   25.1182  -21.7092  -10.5120 N   0  0  0  0  0  0  0  0  0  0  0  0
   26.0259  -19.9842  -11.8831 C   0  0  0  0  0  0  0  0  0  0  0  0
   26.5381  -18.8428  -12.0580 O   0  0  0  0  0  0  0  0  0  0  0  0
   25.8425  -20.8628  -13.0042 N   0  0  0  0  0  0  0  0  0  0  0  0
   26.0289  -20.3842  -14.3335 C   0  0  1  0  0  0  0  0  0  0  0  0
   26.5931  -21.4975  -15.1973 C   0  0  0  0  0  0  0  0  0  0  0  0
   28.0475  -21.7632  -14.8626 C   0  0  0  0  0  0  0  0  0  0  0  0
   28.6235  -22.8741  -15.6805 C   0  0  0  0  0  0  0  0  0  0  0  0
   30.1116  -22.9212  -15.4636 C   0  0  0  0  0  0  0  0  0  0  0  0
   30.7350  -24.0262  -16.1500 N   0  0  0  0  0  0  0  0  0  0  0  0
   24.7740  -19.8886  -14.9599 C   0  0  0  0  0  0  0  0  0  0  0  0
   23.7051  -20.5359  -14.8129 O   0  0  0  0  0  0  0  0  0  0  0  0
   23.4778  -16.7516  -16.6304 C   0  0  0  0  0  0  0  0  0  0  0  0
   23.4175  -18.2246  -16.2739 C   0  0  2  0  0  0  0  0  0  0  0  0
   24.6901  -18.6999  -15.7375 N   0  0  0  0  0  0  0  0  0  0  0  0
   23.0337  -19.0760  -17.4150 C   0  0  0  0  0  0  0  0  0  0  0  0
   23.8666  -19.7240  -18.0993 O   0  0  0  0  0  0  0  0  0  0  0  0
   21.7017  -19.1939  -17.7832 O   0  0  0  0  0  0  0  0  0  0  0  0
  2  3  1  0
  2  1  1  0
  4  5  1  0
  4  3  1  0
  5  6  1  6
  7  8  2  0
  7  5  1  0
  9  7  1  0
 10 11  1  6
 10  9  1  0
 11 12  1  0
 12 13  1  0
 13 14  1  0
 14 15  1  0
 16 10  1  0
 17 16  2  0
 19 18  1  6
 19 20  1  0
 20 16  1  0
 21 19  1  0
 21 23  1  0
 22 21  2  0
M  END
$$$$
