MKA.pdb
     RDKit          3D

 23 22  0  0  1  0  0  0  0  0999 V2000
   22.9899  -13.8990  -19.8978 C   0  0  0  0  0  0  0  0  0  0  0  0
   23.7814  -14.3225  -18.3546 S   0  0  0  0  0  0  0  0  0  0  0  0
   24.6548  -12.9751  -17.5753 C   0  0  0  0  0  0  0  0  0  0  0  0
   23.9788  -11.6505  -17.7155 C   0  0  0  0  0  0  0  0  0  0  0  0
   24.1096  -10.8321  -16.4387 C   0  0  2  0  0  0  0  0  0  0  0  0
   23.9074  -11.6189  -15.2637 N   0  0  0  0  0  0  0  0  0  0  0  0
   23.1941   -9.6706  -16.4362 C   0  0  0  0  0  0  0  0  0  0  0  0
   23.3326   -8.7941  -17.3352 O   0  0  0  0  0  0  0  0  0  0  0  0
   22.1644   -9.5203  -15.4465 N   0  0  0  0  0  0  0  0  0  0  0  0
   21.2026   -8.4748  -15.5595 C   0  0  1  0  0  0  0  0  0  0  0  0
   19.8523   -8.9760  -15.0806 C   0  0  0  0  0  0  0  0  0  0  0  0
   18.7735   -7.9351  -15.3057 C   0  0  0  0  0  0  0  0  0  0  0  0
   17.4358   -8.3906  -14.8176 C   0  0  0  0  0  0  0  0  0  0  0  0
   16.4025   -7.3626  -15.1904 C   0  0  0  0  0  0  0  0  0  0  0  0
   15.0843   -7.7079  -14.7174 N   0  0  0  0  0  0  0  0  0  0  0  0
   21.5613   -7.2608  -14.7782 C   0  0  0  0  0  0  0  0  0  0  0  0
   21.7284   -7.3461  -13.5340 O   0  0  0  0  0  0  0  0  0  0  0  0
   23.3239   -4.0913  -15.2634 C   0  0  0  0  0  0  0  0  0  0  0  0
   22.2077   -4.8381  -14.5586 C   0  0  2  0  0  0  0  0  0  0  0  0
   21.7348   -5.9700  -15.3512 N   0  0  0  0  0  0  0  0  0  0  0  0
   21.0589   -3.9748  -14.2281 C   0  0  0  0  0  0  0  0  0  0  0  0
   20.0077   -3.9363  -14.9176 O   0  0  0  0  0  0  0  0  0  0  0  0
   21.1004   -3.1514  -13.1128 O   0  0  0  0  0  0  0  0  0  0  0  0
  2  3  1  0
  2  1  1  0
  4  5  1  0
  4  3  1  0
  5  6  1  1
  7  8  2  0
  7  5  1  0
  9  7  1  0
 10 11  1  1
 10  9  1  0
 11 12  1  0
 12 13  1  0
 13 14  1  0
 14 15  1  0
 16 10  1  0
 17 16  2  0
 19 18  1  6
 19 20  1  0
 20 16  1  0
 21 19  1  0
 21 23  1  0
 22 21  2  0
M  END
$$$$
