MKA.pdb
     RDKit          3D

 23 22  0  0  1  0  0  0  0  0999 V2000
   13.7896   -7.4204  -17.8124 C   0  0  0  0  0  0  0  0  0  0  0  0
   13.4257   -8.7382  -16.6642 S   0  0  0  0  0  0  0  0  0  0  0  0
   14.7663   -9.8880  -16.4065 C   0  0  0  0  0  0  0  0  0  0  0  0
   16.0786   -9.2365  -16.1159 C   0  0  0  0  0  0  0  0  0  0  0  0
   17.1676  -10.2763  -15.8918 C   0  0  2  0  0  0  0  0  0  0  0  0
   16.8721  -11.1484  -14.7997 N   0  0  0  0  0  0  0  0  0  0  0  0
   18.4925   -9.6488  -15.6969 C   0  0  0  0  0  0  0  0  0  0  0  0
   18.9897   -9.6423  -14.5357 O   0  0  0  0  0  0  0  0  0  0  0  0
   19.2163   -9.0546  -16.7857 N   0  0  0  0  0  0  0  0  0  0  0  0
   20.5669   -8.6353  -16.6101 C   0  0  1  0  0  0  0  0  0  0  0  0
   21.2852   -8.6707  -17.9468 C   0  0  0  0  0  0  0  0  0  0  0  0
   22.7291   -8.2326  -17.8014 C   0  0  0  0  0  0  0  0  0  0  0  0
   23.4700   -8.2828  -19.0989 C   0  0  0  0  0  0  0  0  0  0  0  0
   24.8965   -7.8657  -18.8648 C   0  0  0  0  0  0  0  0  0  0  0  0
   25.6379   -7.7195  -20.0935 N   0  0  0  0  0  0  0  0  0  0  0  0
   20.6868   -7.2647  -16.0444 C   0  0  0  0  0  0  0  0  0  0  0  0
   20.0222   -6.3218  -16.5467 O   0  0  0  0  0  0  0  0  0  0  0  0
   21.8911   -5.5978  -12.9055 C   0  0  0  0  0  0  0  0  0  0  0  0
   21.5488   -5.5818  -14.3830 C   0  0  2  0  0  0  0  0  0  0  0  0
   21.5234   -6.9304  -14.9430 N   0  0  0  0  0  0  0  0  0  0  0  0
   22.4743   -4.7532  -15.1776 C   0  0  0  0  0  0  0  0  0  0  0  0
   23.3718   -5.2386  -15.9131 O   0  0  0  0  0  0  0  0  0  0  0  0
   22.3838   -3.3699  -15.1389 O   0  0  0  0  0  0  0  0  0  0  0  0
  2  3  1  0
  2  1  1  0
  4  5  1  0
  4  3  1  0
  5  6  1  1
  7  8  2  0
  7  5  1  0
  9  7  1  0
 10 11  1  6
 10  9  1  0
 11 12  1  0
 12 13  1  0
 13 14  1  0
 14 15  1  0
 16 10  1  0
 17 16  2  0
 19 18  1  1
 19 20  1  0
 20 16  1  0
 21 19  1  0
 21 23  1  0
 22 21  2  0
M  END
$$$$
