MKA.pdb
     RDKit          3D

 23 22  0  0  1  0  0  0  0  0999 V2000
   24.3730  -12.9690  -15.5223 C   0  0  0  0  0  0  0  0  0  0  0  0
   26.1363  -12.8620  -15.2641 S   0  0  0  0  0  0  0  0  0  0  0  0
   27.0302  -14.3652  -15.6208 C   0  0  0  0  0  0  0  0  0  0  0  0
   26.1793  -15.5928  -15.6215 C   0  0  0  0  0  0  0  0  0  0  0  0
   27.0045  -16.8299  -15.9469 C   0  0  2  0  0  0  0  0  0  0  0  0
   27.5442  -16.7928  -17.2690 N   0  0  0  0  0  0  0  0  0  0  0  0
   26.2288  -18.0734  -15.7494 C   0  0  0  0  0  0  0  0  0  0  0  0
   25.8239  -18.6979  -16.7700 O   0  0  0  0  0  0  0  0  0  0  0  0
   25.9304  -18.5795  -14.4389 N   0  0  0  0  0  0  0  0  0  0  0  0
   25.1897  -19.7870  -14.2836 C   0  0  1  0  0  0  0  0  0  0  0  0
   25.4490  -20.3654  -12.9044 C   0  0  0  0  0  0  0  0  0  0  0  0
   24.7092  -21.6748  -12.7147 C   0  0  0  0  0  0  0  0  0  0  0  0
   25.1144  -22.7053  -13.7191 C   0  0  0  0  0  0  0  0  0  0  0  0
   24.2870  -23.9445  -13.5104 C   0  0  0  0  0  0  0  0  0  0  0  0
   24.5173  -24.9402  -14.5284 N   0  0  0  0  0  0  0  0  0  0  0  0
   23.7233  -19.6013  -14.4511 C   0  0  0  0  0  0  0  0  0  0  0  0
   22.9498  -20.5840  -14.3122 O   0  0  0  0  0  0  0  0  0  0  0  0
   21.2481  -16.7880  -15.1301 C   0  0  0  0  0  0  0  0  0  0  0  0
   21.6637  -18.2307  -14.9149 C   0  0  2  0  0  0  0  0  0  0  0  0
   23.1113  -18.3562  -14.7669 N   0  0  0  0  0  0  0  0  0  0  0  0
   21.2164  -19.1247  -15.9989 C   0  0  0  0  0  0  0  0  0  0  0  0
   21.9311  -19.4086  -16.9941 O   0  0  0  0  0  0  0  0  0  0  0  0
   19.9547  -19.6991  -15.9563 O   0  0  0  0  0  0  0  0  0  0  0  0
  2  3  1  0
  2  1  1  0
  4  5  1  0
  4  3  1  0
  5  6  1  6
  7  8  2  0
  7  5  1  0
  9  7  1  0
 10 11  1  1
 10  9  1  0
 11 12  1  0
 12 13  1  0
 13 14  1  0
 14 15  1  0
 16 10  1  0
 17 16  2  0
 19 18  1  6
 19 20  1  0
 20 16  1  0
 21 19  1  0
 21 23  1  0
 22 21  2  0
M  END
$$$$
