MKA.pdb
     RDKit          3D

 23 22  0  0  1  0  0  0  0  0999 V2000
   25.9528  -14.8272  -15.1985 C   0  0  0  0  0  0  0  0  0  0  0  0
   25.2954  -13.2020  -15.5364 S   0  0  0  0  0  0  0  0  0  0  0  0
   23.5441  -13.1674  -15.8788 C   0  0  0  0  0  0  0  0  0  0  0  0
   23.0049  -11.8014  -16.1516 C   0  0  0  0  0  0  0  0  0  0  0  0
   21.4919  -11.8336  -16.3165 C   0  0  2  0  0  0  0  0  0  0  0  0
   21.0819  -12.6262  -17.4319 N   0  0  0  0  0  0  0  0  0  0  0  0
   20.9234  -10.4725  -16.4239 C   0  0  0  0  0  0  0  0  0  0  0  0
   20.8994   -9.9189  -17.5590 O   0  0  0  0  0  0  0  0  0  0  0  0
   20.4047   -9.7763  -15.2800 N   0  0  0  0  0  0  0  0  0  0  0  0
   19.9936   -8.4162  -15.3888 C   0  0  1  0  0  0  0  0  0  0  0  0
   18.6715   -8.2282  -14.6672 C   0  0  0  0  0  0  0  0  0  0  0  0
   18.7117   -8.8498  -13.2853 C   0  0  0  0  0  0  0  0  0  0  0  0
   17.3887   -8.7781  -12.5928 C   0  0  0  0  0  0  0  0  0  0  0  0
   17.5379   -9.3140  -11.1950 C   0  0  0  0  0  0  0  0  0  0  0  0
   16.3115   -9.2356  -10.4396 N   0  0  0  0  0  0  0  0  0  0  0  0
   20.9814   -7.4578  -14.8245 C   0  0  0  0  0  0  0  0  0  0  0  0
   21.7193   -7.8122  -13.8690 O   0  0  0  0  0  0  0  0  0  0  0  0
   22.3077   -3.9642  -15.5448 C   0  0  0  0  0  0  0  0  0  0  0  0
   22.1888   -5.2505  -14.7498 C   0  0  2  0  0  0  0  0  0  0  0  0
   21.1593   -6.1284  -15.2997 N   0  0  0  0  0  0  0  0  0  0  0  0
   21.9038   -5.0183  -13.3217 C   0  0  0  0  0  0  0  0  0  0  0  0
   20.7419   -5.0411  -12.8406 O   0  0  0  0  0  0  0  0  0  0  0  0
   22.9381   -4.7587  -12.4351 O   0  0  0  0  0  0  0  0  0  0  0  0
  2  3  1  0
  2  1  1  0
  4  5  1  0
  4  3  1  0
  5  6  1  6
  7  8  2  0
  7  5  1  0
  9  7  1  0
 10 11  1  1
 10  9  1  0
 11 12  1  0
 12 13  1  0
 13 14  1  0
 14 15  1  0
 16 10  1  0
 17 16  2  0
 19 18  1  6
 19 20  1  0
 20 16  1  0
 21 19  1  0
 21 23  1  0
 22 21  2  0
M  END
$$$$
