MKA.pdb
     RDKit          3D

 23 22  0  0  1  0  0  0  0  0999 V2000
   19.0028  -15.7575  -16.9629 C   0  0  0  0  0  0  0  0  0  0  0  0
   19.1544  -13.9786  -16.9587 S   0  0  0  0  0  0  0  0  0  0  0  0
   17.6009  -13.1022  -17.0241 C   0  0  0  0  0  0  0  0  0  0  0  0
   17.7416  -11.6151  -17.0295 C   0  0  0  0  0  0  0  0  0  0  0  0
   18.2677  -11.1107  -15.6931 C   0  0  2  0  0  0  0  0  0  0  0  0
   17.4090  -11.4543  -14.6045 N   0  0  0  0  0  0  0  0  0  0  0  0
   18.5038   -9.6509  -15.7130 C   0  0  0  0  0  0  0  0  0  0  0  0
   19.2219   -9.1705  -16.6345 O   0  0  0  0  0  0  0  0  0  0  0  0
   17.9410   -8.7794  -14.7199 N   0  0  0  0  0  0  0  0  0  0  0  0
   18.1926   -7.3774  -14.7647 C   0  0  1  0  0  0  0  0  0  0  0  0
   17.0194   -6.6333  -14.1534 C   0  0  0  0  0  0  0  0  0  0  0  0
   15.7739   -6.7867  -15.0039 C   0  0  0  0  0  0  0  0  0  0  0  0
   14.5874   -6.1077  -14.3988 C   0  0  0  0  0  0  0  0  0  0  0  0
   13.3906   -6.3337  -15.2822 C   0  0  0  0  0  0  0  0  0  0  0  0
   12.1734   -5.8171  -14.7058 N   0  0  0  0  0  0  0  0  0  0  0  0
   19.4322   -6.9807  -14.0443 C   0  0  0  0  0  0  0  0  0  0  0  0
   19.5292   -7.1895  -12.8074 O   0  0  0  0  0  0  0  0  0  0  0  0
   23.0130   -6.3226  -14.6587 C   0  0  0  0  0  0  0  0  0  0  0  0
   21.7388   -5.9821  -13.9098 C   0  0  2  0  0  0  0  0  0  0  0  0
   20.5511   -6.3630  -14.6698 N   0  0  0  0  0  0  0  0  0  0  0  0
   21.6427   -4.5526  -13.5608 C   0  0  0  0  0  0  0  0  0  0  0  0
   20.8580   -3.7561  -14.1367 O   0  0  0  0  0  0  0  0  0  0  0  0
   22.4387   -4.0227  -12.5562 O   0  0  0  0  0  0  0  0  0  0  0  0
  2  3  1  0
  2  1  1  0
  4  5  1  0
  4  3  1  0
  5  6  1  1
  7  8  2  0
  7  5  1  0
  9  7  1  0
 10 11  1  1
 10  9  1  0
 11 12  1  0
 12 13  1  0
 13 14  1  0
 14 15  1  0
 16 10  1  0
 17 16  2  0
 19 18  1  6
 19 20  1  0
 20 16  1  0
 21 19  1  0
 21 23  1  0
 22 21  2  0
M  END
$$$$
