GQM.pdb
     RDKit          3D

 22 21  0  0  1  0  0  0  0  0999 V2000
    3.8594  -18.8616   21.0911 N   0  0  0  0  0  0  0  0  0  0  0  0
    4.4013  -17.5369   21.0429 C   0  0  0  0  0  0  0  0  0  0  0  0
    5.8022  -17.5784   21.5401 C   0  0  0  0  0  0  0  0  0  0  0  0
    6.1282  -18.3160   22.5050 O   0  0  0  0  0  0  0  0  0  0  0  0
   10.0445  -20.4006   20.1989 N   0  0  0  0  0  0  0  0  0  0  0  0
   10.3352  -19.1116   19.6783 C   0  0  0  0  0  0  0  0  0  0  0  0
   11.5119  -18.9068   19.3167 O   0  0  0  0  0  0  0  0  0  0  0  0
    9.3080  -18.1077   19.5783 C   0  0  0  0  0  0  0  0  0  0  0  0
    9.2786  -16.9581   20.4761 C   0  0  0  0  0  0  0  0  0  0  0  0
    8.1760  -16.7684   21.4430 C   0  0  2  0  0  0  0  0  0  0  0  0
    6.8417  -16.7772   20.9382 N   0  0  0  0  0  0  0  0  0  0  0  0
    8.4215  -15.7014   22.4339 C   0  0  0  0  0  0  0  0  0  0  0  0
    8.3676  -14.5174   22.0877 O   0  0  0  0  0  0  0  0  0  0  0  0
    7.0892  -10.9762   27.0336 C   0  0  0  0  0  0  0  0  0  0  0  0
    7.3759  -12.1390   25.6770 S   0  0  0  0  0  0  0  0  0  0  0  0
    6.8632  -13.8124   26.1511 C   0  0  0  0  0  0  0  0  0  0  0  0
    7.1147  -14.7933   25.0352 C   0  0  0  0  0  0  0  0  0  0  0  0
    8.5777  -15.1369   24.8819 C   0  0  2  0  0  0  0  0  0  0  0  0
    8.7135  -16.0425   23.7605 N   0  0  0  0  0  0  0  0  0  0  0  0
    9.0431  -15.7581   26.1483 C   0  0  0  0  0  0  0  0  0  0  0  0
    8.8647  -16.9916   26.2993 O   0  0  0  0  0  0  0  0  0  0  0  0
    9.6538  -15.0444   27.1494 O   0  0  0  0  0  0  0  0  0  0  0  0
  2  1  1  0
  3  2  1  0
  3 11  1  0
  4  3  2  0
  5  6  1  0
  6  7  2  0
  6  8  1  0
  8  9  1  0
 10  9  1  6
 10 12  1  0
 11 10  1  0
 12 13  2  0
 12 19  1  0
 15 14  1  0
 16 15  1  0
 17 16  1  0
 18 17  1  1
 18 20  1  0
 19 18  1  0
 20 22  1  0
 21 20  2  0
M  END
$$$$
