GQM.pdb
     RDKit          3D

 22 21  0  0  1  0  0  0  0  0999 V2000
    7.1222  -13.0975   18.2923 N   0  0  0  0  0  0  0  0  0  0  0  0
    8.3669  -13.1352   18.9994 C   0  0  0  0  0  0  0  0  0  0  0  0
    8.2591  -14.1318   20.0979 C   0  0  0  0  0  0  0  0  0  0  0  0
    7.2490  -14.1684   20.8459 O   0  0  0  0  0  0  0  0  0  0  0  0
    9.0292  -17.3286   18.3796 N   0  0  0  0  0  0  0  0  0  0  0  0
    8.6782  -18.4296   19.2052 C   0  0  0  0  0  0  0  0  0  0  0  0
    8.0341  -19.3515   18.6642 O   0  0  0  0  0  0  0  0  0  0  0  0
    9.0594  -18.4617   20.5932 C   0  0  0  0  0  0  0  0  0  0  0  0
    9.8224  -17.3747   21.1974 C   0  0  0  0  0  0  0  0  0  0  0  0
    9.2191  -16.0421   21.4131 C   0  0  2  0  0  0  0  0  0  0  0  0
    9.3052  -15.0946   20.3499 N   0  0  0  0  0  0  0  0  0  0  0  0
    9.5020  -15.4613   22.7410 C   0  0  0  0  0  0  0  0  0  0  0  0
   10.6218  -15.0016   22.9845 O   0  0  0  0  0  0  0  0  0  0  0  0
    6.5855  -10.5609   26.2765 C   0  0  0  0  0  0  0  0  0  0  0  0
    6.2399  -12.1908   26.9826 S   0  0  0  0  0  0  0  0  0  0  0  0
    7.6287  -13.3200   26.6924 C   0  0  0  0  0  0  0  0  0  0  0  0
    7.4905  -14.0198   25.3651 C   0  0  0  0  0  0  0  0  0  0  0  0
    8.6698  -14.9102   25.0518 C   0  0  2  0  0  0  0  0  0  0  0  0
    8.4953  -15.4366   23.7144 N   0  0  0  0  0  0  0  0  0  0  0  0
    8.7149  -15.9940   26.0665 C   0  0  0  0  0  0  0  0  0  0  0  0
    8.3049  -17.1322   25.7307 O   0  0  0  0  0  0  0  0  0  0  0  0
    9.1818  -15.8024   27.3430 O   0  0  0  0  0  0  0  0  0  0  0  0
  2  1  1  0
  3  2  1  0
  3 11  1  0
  4  3  2  0
  5  6  1  0
  6  7  2  0
  6  8  1  0
  8  9  1  0
 10  9  1  6
 10 12  1  0
 11 10  1  0
 12 13  2  0
 12 19  1  0
 15 14  1  0
 16 15  1  0
 17 16  1  0
 18 17  1  1
 18 20  1  0
 19 18  1  0
 20 22  1  0
 21 20  2  0
M  END
$$$$
