GQM.pdb
     RDKit          3D

 22 21  0  0  1  0  0  0  0  0999 V2000
    7.4610  -13.0181   18.1048 N   0  0  0  0  0  0  0  0  0  0  0  0
    8.7152  -13.6224   18.4401 C   0  0  0  0  0  0  0  0  0  0  0  0
    8.5571  -14.3675   19.7173 C   0  0  0  0  0  0  0  0  0  0  0  0
    7.5589  -14.1819   20.4592 O   0  0  0  0  0  0  0  0  0  0  0  0
   11.4120  -19.1346   19.3840 N   0  0  0  0  0  0  0  0  0  0  0  0
   10.0002  -19.2731   19.4505 C   0  0  0  0  0  0  0  0  0  0  0  0
    9.4753  -20.0525   18.6292 O   0  0  0  0  0  0  0  0  0  0  0  0
    9.2327  -18.5443   20.4266 C   0  0  0  0  0  0  0  0  0  0  0  0
    9.8490  -17.5301   21.2752 C   0  0  0  0  0  0  0  0  0  0  0  0
    9.3346  -16.1443   21.3107 C   0  0  2  0  0  0  0  0  0  0  0  0
    9.5389  -15.3308   20.1567 N   0  0  0  0  0  0  0  0  0  0  0  0
    9.5963  -15.4376   22.5807 C   0  0  0  0  0  0  0  0  0  0  0  0
   10.6047  -14.7346   22.6960 O   0  0  0  0  0  0  0  0  0  0  0  0
    6.4470  -11.2845   28.2144 C   0  0  0  0  0  0  0  0  0  0  0  0
    6.1915  -12.4273   26.8348 S   0  0  0  0  0  0  0  0  0  0  0  0
    7.6704  -13.4405   26.5626 C   0  0  0  0  0  0  0  0  0  0  0  0
    7.6548  -14.0655   25.1915 C   0  0  0  0  0  0  0  0  0  0  0  0
    8.8627  -14.9359   24.9357 C   0  0  2  0  0  0  0  0  0  0  0  0
    8.6961  -15.5710   23.6454 N   0  0  0  0  0  0  0  0  0  0  0  0
    8.9547  -15.9348   26.0311 C   0  0  0  0  0  0  0  0  0  0  0  0
    8.5878  -17.1106   25.7880 O   0  0  0  0  0  0  0  0  0  0  0  0
    9.4197  -15.6265   27.2853 O   0  0  0  0  0  0  0  0  0  0  0  0
  2  1  1  0
  3  2  1  0
  3 11  1  0
  4  3  2  0
  5  6  1  0
  6  7  2  0
  6  8  1  0
  8  9  1  0
 10  9  1  6
 10 12  1  0
 11 10  1  0
 12 13  2  0
 12 19  1  0
 15 14  1  0
 16 15  1  0
 17 16  1  0
 18 17  1  1
 18 20  1  0
 19 18  1  0
 20 22  1  0
 21 20  2  0
M  END
$$$$
