GQM.pdb
     RDKit          3D

 22 21  0  0  1  0  0  0  0  0999 V2000
    6.9321  -14.0140   18.3816 N   0  0  0  0  0  0  0  0  0  0  0  0
    8.2873  -14.3250   18.7244 C   0  0  0  0  0  0  0  0  0  0  0  0
    8.2877  -15.1366   19.9705 C   0  0  0  0  0  0  0  0  0  0  0  0
    7.2275  -15.3370   20.6165 O   0  0  0  0  0  0  0  0  0  0  0  0
   13.0442  -18.9582   22.3143 N   0  0  0  0  0  0  0  0  0  0  0  0
   12.7649  -18.1916   21.1519 C   0  0  0  0  0  0  0  0  0  0  0  0
   13.7486  -17.7754   20.5066 O   0  0  0  0  0  0  0  0  0  0  0  0
   11.4074  -17.9231   20.7541 C   0  0  0  0  0  0  0  0  0  0  0  0
   10.3570  -17.6958   21.7408 C   0  0  0  0  0  0  0  0  0  0  0  0
    9.5155  -16.4807   21.6987 C   0  0  2  0  0  0  0  0  0  0  0  0
    9.5000  -15.7257   20.4883 N   0  0  0  0  0  0  0  0  0  0  0  0
    9.6068  -15.6432   22.9115 C   0  0  0  0  0  0  0  0  0  0  0  0
   10.5306  -14.8326   23.0301 O   0  0  0  0  0  0  0  0  0  0  0  0
    6.7959  -10.7864   27.4022 C   0  0  0  0  0  0  0  0  0  0  0  0
    6.8838  -11.8843   25.9665 S   0  0  0  0  0  0  0  0  0  0  0  0
    6.9591  -13.6181   26.4920 C   0  0  0  0  0  0  0  0  0  0  0  0
    7.1366  -14.5359   25.3102 C   0  0  0  0  0  0  0  0  0  0  0  0
    8.5771  -14.9378   25.0973 C   0  0  2  0  0  0  0  0  0  0  0  0
    8.6424  -15.7757   23.9185 N   0  0  0  0  0  0  0  0  0  0  0  0
    9.0411  -15.6594   26.3099 C   0  0  0  0  0  0  0  0  0  0  0  0
    9.1402  -15.0099   27.3796 O   0  0  0  0  0  0  0  0  0  0  0  0
    9.3624  -16.9940   26.3070 O   0  0  0  0  0  0  0  0  0  0  0  0
  2  1  1  0
  3  2  1  0
  3 11  1  0
  4  3  2  0
  5  6  1  0
  6  7  2  0
  6  8  1  0
  8  9  1  0
 10  9  1  6
 10 12  1  0
 11 10  1  0
 12 13  2  0
 12 19  1  0
 15 14  1  0
 16 15  1  0
 17 16  1  0
 18 17  1  1
 18 20  1  0
 19 18  1  0
 20 22  1  0
 21 20  2  0
M  END
$$$$
