GQM.pdb
     RDKit          3D

 22 21  0  0  1  0  0  0  0  0999 V2000
    8.2925  -12.2850   18.3491 N   0  0  0  0  0  0  0  0  0  0  0  0
    9.0535  -13.4765   18.5771 C   0  0  0  0  0  0  0  0  0  0  0  0
    8.4671  -14.2000   19.7365 C   0  0  0  0  0  0  0  0  0  0  0  0
    7.5723  -13.6740   20.4464 O   0  0  0  0  0  0  0  0  0  0  0  0
    6.5212  -19.4216   22.7494 N   0  0  0  0  0  0  0  0  0  0  0  0
    6.0964  -19.1306   21.4258 C   0  0  0  0  0  0  0  0  0  0  0  0
    5.0095  -19.6266   21.0654 O   0  0  0  0  0  0  0  0  0  0  0  0
    6.8935  -18.2997   20.5613 C   0  0  0  0  0  0  0  0  0  0  0  0
    8.1509  -17.7158   21.0158 C   0  0  0  0  0  0  0  0  0  0  0  0
    8.3053  -16.2534   21.1709 C   0  0  2  0  0  0  0  0  0  0  0  0
    8.8989  -15.5307   20.0936 N   0  0  0  0  0  0  0  0  0  0  0  0
    8.7996  -15.8380   22.4990 C   0  0  0  0  0  0  0  0  0  0  0  0
   10.0140  -15.8062   22.7200 O   0  0  0  0  0  0  0  0  0  0  0  0
    6.2457  -10.9884   28.1478 C   0  0  0  0  0  0  0  0  0  0  0  0
    5.8392  -12.1636   26.8332 S   0  0  0  0  0  0  0  0  0  0  0  0
    7.2990  -13.1347   26.3709 C   0  0  0  0  0  0  0  0  0  0  0  0
    7.0675  -13.8823   25.0832 C   0  0  0  0  0  0  0  0  0  0  0  0
    8.2358  -14.7612   24.7032 C   0  0  2  0  0  0  0  0  0  0  0  0
    7.8847  -15.4827   23.4981 N   0  0  0  0  0  0  0  0  0  0  0  0
    8.5094  -15.6835   25.8349 C   0  0  0  0  0  0  0  0  0  0  0  0
    8.0546  -16.8517   25.7654 O   0  0  0  0  0  0  0  0  0  0  0  0
    9.2319  -15.3132   26.9418 O   0  0  0  0  0  0  0  0  0  0  0  0
  2  1  1  0
  3  2  1  0
  3 11  1  0
  4  3  2  0
  5  6  1  0
  6  7  2  0
  6  8  1  0
  8  9  1  0
 10  9  1  6
 10 12  1  0
 11 10  1  0
 12 13  2  0
 12 19  1  0
 15 14  1  0
 16 15  1  0
 17 16  1  0
 18 17  1  1
 18 20  1  0
 19 18  1  0
 20 22  1  0
 21 20  2  0
M  END
$$$$
