GQM.pdb
     RDKit          3D

 22 21  0  0  1  0  0  0  0  0999 V2000
    7.8350  -12.2884   18.6688 N   0  0  0  0  0  0  0  0  0  0  0  0
    8.7909  -13.3462   18.8031 C   0  0  0  0  0  0  0  0  0  0  0  0
    8.4707  -14.1227   20.0303 C   0  0  0  0  0  0  0  0  0  0  0  0
    7.6719  -13.6760   20.8926 O   0  0  0  0  0  0  0  0  0  0  0  0
    7.2926  -20.1770   21.5261 N   0  0  0  0  0  0  0  0  0  0  0  0
    7.4733  -19.5671   20.2563 C   0  0  0  0  0  0  0  0  0  0  0  0
    6.8762  -20.0913   19.2940 O   0  0  0  0  0  0  0  0  0  0  0  0
    8.3052  -18.4012   20.1097 C   0  0  0  0  0  0  0  0  0  0  0  0
    8.8218  -17.6851   21.2712 C   0  0  0  0  0  0  0  0  0  0  0  0
    8.6748  -16.2190   21.3957 C   0  0  2  0  0  0  0  0  0  0  0  0
    9.0613  -15.4162   20.2816 N   0  0  0  0  0  0  0  0  0  0  0  0
    9.1249  -15.6772   22.6937 C   0  0  0  0  0  0  0  0  0  0  0  0
   10.3185  -15.4140   22.8687 O   0  0  0  0  0  0  0  0  0  0  0  0
    5.9382  -10.8290   26.0740 C   0  0  0  0  0  0  0  0  0  0  0  0
    6.0317  -12.2969   27.1281 S   0  0  0  0  0  0  0  0  0  0  0  0
    7.4820  -13.2982   26.7016 C   0  0  0  0  0  0  0  0  0  0  0  0
    7.2846  -14.0060   25.3861 C   0  0  0  0  0  0  0  0  0  0  0  0
    8.4949  -14.8089   24.9707 C   0  0  2  0  0  0  0  0  0  0  0  0
    8.1919  -15.4658   23.7166 N   0  0  0  0  0  0  0  0  0  0  0  0
    8.7921  -15.7894   26.0460 C   0  0  0  0  0  0  0  0  0  0  0  0
    9.1460  -15.3457   27.1659 O   0  0  0  0  0  0  0  0  0  0  0  0
    8.6964  -17.1469   25.8657 O   0  0  0  0  0  0  0  0  0  0  0  0
  2  1  1  0
  3  2  1  0
  3 11  1  0
  4  3  2  0
  5  6  1  0
  6  7  2  0
  6  8  1  0
  8  9  1  0
 10  9  1  6
 10 12  1  0
 11 10  1  0
 12 13  2  0
 12 19  1  0
 15 14  1  0
 16 15  1  0
 17 16  1  0
 18 17  1  1
 18 20  1  0
 19 18  1  0
 20 22  1  0
 21 20  2  0
M  END
$$$$
