GQM.pdb
     RDKit          3D

 22 21  0  0  1  0  0  0  0  0999 V2000
   12.4463  -17.3224   18.3408 N   0  0  0  0  0  0  0  0  0  0  0  0
   11.2195  -17.6151   19.0190 C   0  0  0  0  0  0  0  0  0  0  0  0
   10.7430  -16.3785   19.6937 C   0  0  0  0  0  0  0  0  0  0  0  0
   10.5752  -15.3106   19.0513 O   0  0  0  0  0  0  0  0  0  0  0  0
    8.0038  -13.0516   18.8788 N   0  0  0  0  0  0  0  0  0  0  0  0
    7.4183  -13.9107   19.8464 C   0  0  0  0  0  0  0  0  0  0  0  0
    6.7851  -13.3621   20.7713 O   0  0  0  0  0  0  0  0  0  0  0  0
    7.5577  -15.3400   19.7443 C   0  0  0  0  0  0  0  0  0  0  0  0
    7.9868  -16.1453   20.8828 C   0  0  0  0  0  0  0  0  0  0  0  0
    9.2295  -15.8305   21.6197 C   0  0  2  0  0  0  0  0  0  0  0  0
   10.4546  -16.3527   21.1083 N   0  0  0  0  0  0  0  0  0  0  0  0
    9.1065  -15.9518   23.0863 C   0  0  0  0  0  0  0  0  0  0  0  0
    9.5498  -16.9517   23.6592 O   0  0  0  0  0  0  0  0  0  0  0  0
    5.6847  -11.3777   26.3623 C   0  0  0  0  0  0  0  0  0  0  0  0
    6.9965  -11.7543   27.5505 S   0  0  0  0  0  0  0  0  0  0  0  0
    7.7950  -13.3302   27.1421 C   0  0  0  0  0  0  0  0  0  0  0  0
    7.7237  -13.6070   25.6627 C   0  0  0  0  0  0  0  0  0  0  0  0
    8.5260  -14.8217   25.2592 C   0  0  2  0  0  0  0  0  0  0  0  0
    8.4873  -14.9292   23.8159 N   0  0  0  0  0  0  0  0  0  0  0  0
    7.9261  -16.0121   25.9144 C   0  0  0  0  0  0  0  0  0  0  0  0
    6.9973  -16.6080   25.3158 O   0  0  0  0  0  0  0  0  0  0  0  0
    8.3426  -16.4813   27.1354 O   0  0  0  0  0  0  0  0  0  0  0  0
  2  1  1  0
  3  2  1  0
  3 11  1  0
  4  3  2  0
  5  6  1  0
  6  7  2  0
  6  8  1  0
  8  9  1  0
 10  9  1  6
 10 12  1  0
 11 10  1  0
 12 13  2  0
 12 19  1  0
 15 14  1  0
 16 15  1  0
 17 16  1  0
 18 17  1  6
 18 20  1  0
 19 18  1  0
 20 22  1  0
 21 20  2  0
M  END
$$$$
