GQM.pdb
     RDKit          3D

 22 21  0  0  1  0  0  0  0  0999 V2000
    7.3529  -13.0112   17.7338 N   0  0  0  0  0  0  0  0  0  0  0  0
    8.6358  -13.2932   18.3043 C   0  0  0  0  0  0  0  0  0  0  0  0
    8.4450  -14.1625   19.4957 C   0  0  0  0  0  0  0  0  0  0  0  0
    7.5267  -13.9373   20.3248 O   0  0  0  0  0  0  0  0  0  0  0  0
   10.7721  -20.2128   20.7879 N   0  0  0  0  0  0  0  0  0  0  0  0
    9.9703  -19.7864   21.8798 C   0  0  0  0  0  0  0  0  0  0  0  0
    9.7904  -20.6124   22.7978 O   0  0  0  0  0  0  0  0  0  0  0  0
    9.4062  -18.4620   21.9077 C   0  0  0  0  0  0  0  0  0  0  0  0
    9.6336  -17.5159   20.8206 C   0  0  0  0  0  0  0  0  0  0  0  0
    9.1389  -16.1246   20.8990 C   0  0  2  0  0  0  0  0  0  0  0  0
    9.3024  -15.2963   19.7490 N   0  0  0  0  0  0  0  0  0  0  0  0
    9.4654  -15.4403   22.1663 C   0  0  0  0  0  0  0  0  0  0  0  0
   10.5199  -14.8061   22.2679 O   0  0  0  0  0  0  0  0  0  0  0  0
    6.0452  -11.4865   27.9236 C   0  0  0  0  0  0  0  0  0  0  0  0
    5.8913  -12.5923   26.4995 S   0  0  0  0  0  0  0  0  0  0  0  0
    7.4723  -13.4093   26.1516 C   0  0  0  0  0  0  0  0  0  0  0  0
    7.4292  -14.1340   24.8312 C   0  0  0  0  0  0  0  0  0  0  0  0
    8.7417  -14.7999   24.4904 C   0  0  2  0  0  0  0  0  0  0  0  0
    8.5739  -15.5166   23.2437 N   0  0  0  0  0  0  0  0  0  0  0  0
    9.1009  -15.7139   25.6048 C   0  0  0  0  0  0  0  0  0  0  0  0
    8.8171  -16.9307   25.4828 O   0  0  0  0  0  0  0  0  0  0  0  0
    9.7240  -15.2853   26.7504 O   0  0  0  0  0  0  0  0  0  0  0  0
  2  1  1  0
  3  2  1  0
  3 11  1  0
  4  3  2  0
  5  6  1  0
  6  7  2  0
  6  8  1  0
  8  9  1  0
 10  9  1  6
 10 12  1  0
 11 10  1  0
 12 13  2  0
 12 19  1  0
 15 14  1  0
 16 15  1  0
 17 16  1  0
 18 17  1  1
 18 20  1  0
 19 18  1  0
 20 22  1  0
 21 20  2  0
M  END
$$$$
