GQM.pdb
     RDKit          3D

 22 21  0  0  1  0  0  0  0  0999 V2000
   13.0225  -16.7162   19.3039 N   0  0  0  0  0  0  0  0  0  0  0  0
   11.9917  -17.6080   19.7432 C   0  0  0  0  0  0  0  0  0  0  0  0
   11.3891  -17.0610   20.9879 C   0  0  0  0  0  0  0  0  0  0  0  0
   11.9029  -16.0791   21.5821 O   0  0  0  0  0  0  0  0  0  0  0  0
    6.7612  -18.8317   24.8472 N   0  0  0  0  0  0  0  0  0  0  0  0
    6.6246  -17.4181   24.8570 C   0  0  0  0  0  0  0  0  0  0  0  0
    5.8516  -16.9368   25.7104 O   0  0  0  0  0  0  0  0  0  0  0  0
    7.3533  -16.6002   23.9228 C   0  0  0  0  0  0  0  0  0  0  0  0
    8.0876  -17.1894   22.8082 C   0  0  0  0  0  0  0  0  0  0  0  0
    9.5567  -17.0587   22.7033 C   0  0  2  0  0  0  0  0  0  0  0  0
   10.1944  -17.6323   21.5633 N   0  0  0  0  0  0  0  0  0  0  0  0
   10.2754  -17.3136   23.9679 C   0  0  0  0  0  0  0  0  0  0  0  0
   10.9069  -18.3645   24.1144 O   0  0  0  0  0  0  0  0  0  0  0  0
    9.9125  -12.7003   28.5065 C   0  0  0  0  0  0  0  0  0  0  0  0
   10.5681  -14.0246   29.5509 S   0  0  0  0  0  0  0  0  0  0  0  0
   11.0551  -15.4510   28.5429 C   0  0  0  0  0  0  0  0  0  0  0  0
   10.4909  -15.3486   27.1494 C   0  0  0  0  0  0  0  0  0  0  0  0
   10.8913  -16.5120   26.2731 C   0  0  2  0  0  0  0  0  0  0  0  0
   10.2346  -16.3590   24.9919 N   0  0  0  0  0  0  0  0  0  0  0  0
   10.4815  -17.7673   26.9533 C   0  0  0  0  0  0  0  0  0  0  0  0
    9.3042  -18.1701   26.7861 O   0  0  0  0  0  0  0  0  0  0  0  0
   11.3299  -18.4963   27.7489 O   0  0  0  0  0  0  0  0  0  0  0  0
  2  1  1  0
  3  2  1  0
  3 11  1  0
  4  3  2  0
  5  6  1  0
  6  7  2  0
  6  8  1  0
  8  9  1  0
 10  9  1  1
 10 12  1  0
 11 10  1  0
 12 13  2  0
 12 19  1  0
 15 14  1  0
 16 15  1  0
 17 16  1  0
 18 17  1  1
 18 20  1  0
 19 18  1  0
 20 22  1  0
 21 20  2  0
M  END
$$$$
