CSR.pdb
     RDKit          3D

 24 23  0  0  1  0  0  0  0  0999 V2000
    7.6297  -13.9976   13.3797 N   0  0  0  0  0  0  0  0  0  0  0  0
    7.5728  -14.8455   14.5336 C   0  0  1  0  0  0  0  0  0  0  0  0
    7.9475  -16.2394   14.1746 C   0  0  0  0  0  0  0  0  0  0  0  0
    7.8923  -17.3703   15.5852 S   0  0  0  0  0  0  0  0  0  0  0  0
    8.3339  -14.3044   15.6868 C   0  0  0  0  0  0  0  0  0  0  0  0
    9.5218  -13.9075   15.5097 O   0  0  0  0  0  0  0  0  0  0  0  0
    7.2584  -14.8417   19.7244 O   0  0  0  0  0  0  0  0  0  0  0  0
    7.6040  -13.5889   19.2830 C   0  0  0  0  0  0  0  0  0  0  0  0
    8.5637  -13.6128   18.1111 C   0  0  2  0  0  0  0  0  0  0  0  0
    7.8244  -14.1949   16.9989 N   0  0  0  0  0  0  0  0  0  0  0  0
    9.7119  -14.4694   18.5070 C   0  0  0  0  0  0  0  0  0  0  0  0
    9.6754  -15.6717   18.1413 O   0  0  0  0  0  0  0  0  0  0  0  0
   16.6050  -14.5931   15.9409 N   0  0  0  0  0  0  0  0  0  0  0  0
   17.3171  -14.8877   17.1248 C   0  0  0  0  0  0  0  0  0  0  0  0
   18.3804  -15.6389   17.0789 N   0  0  0  0  0  0  0  0  0  0  0  0
   16.9042  -14.3824   18.3866 N   0  0  0  0  0  0  0  0  0  0  0  0
   15.6439  -13.6767   18.4600 C   0  0  0  0  0  0  0  0  0  0  0  0
   14.5574  -14.6235   18.9768 C   0  0  0  0  0  0  0  0  0  0  0  0
   13.2305  -13.9080   18.9431 C   0  0  0  0  0  0  0  0  0  0  0  0
   12.0793  -14.7703   19.3421 C   0  0  2  0  0  0  0  0  0  0  0  0
   10.8098  -14.0305   19.2468 N   0  0  0  0  0  0  0  0  0  0  0  0
   12.1625  -15.3024   20.7093 C   0  0  0  0  0  0  0  0  0  0  0  0
   11.3715  -14.9180   21.6272 O   0  0  0  0  0  0  0  0  0  0  0  0
   13.0946  -16.2475   21.0861 O   0  0  0  0  0  0  0  0  0  0  0  0
  2  1  1  6
  2  3  1  0
  4  3  1  0
  5  2  1  0
  6  5  2  0
  7  8  1  0
  9  8  1  1
  9 11  1  0
  9 10  1  0
 10  5  1  0
 11 21  1  0
 12 11  2  0
 14 13  1  0
 15 14  2  0
 16 14  1  0
 17 16  1  0
 18 17  1  0
 19 18  1  0
 20 19  1  1
 20 22  1  0
 21 20  1  0
 22 23  2  0
 22 24  1  0
M  END
$$$$
