CSR.pdb
     RDKit          3D

 24 23  0  0  1  0  0  0  0  0999 V2000
    8.5819  -12.4537   17.8794 N   0  0  0  0  0  0  0  0  0  0  0  0
    8.1816  -13.6625   18.5367 C   0  0  1  0  0  0  0  0  0  0  0  0
    8.4498  -14.8404   17.6691 C   0  0  0  0  0  0  0  0  0  0  0  0
    7.4861  -14.8232   16.1384 S   0  0  0  0  0  0  0  0  0  0  0  0
    8.7450  -13.7913   19.9034 C   0  0  0  0  0  0  0  0  0  0  0  0
    9.8989  -13.3304   20.1405 O   0  0  0  0  0  0  0  0  0  0  0  0
    6.9368  -16.1854   22.9307 O   0  0  0  0  0  0  0  0  0  0  0  0
    7.5738  -15.0062   23.2266 C   0  0  0  0  0  0  0  0  0  0  0  0
    8.7051  -14.6832   22.2723 C   0  0  2  0  0  0  0  0  0  0  0  0
    8.0784  -14.4028   20.9874 N   0  0  0  0  0  0  0  0  0  0  0  0
    9.5717  -15.8885   22.2018 C   0  0  0  0  0  0  0  0  0  0  0  0
    9.4979  -16.5800   21.1545 O   0  0  0  0  0  0  0  0  0  0  0  0
   16.0701  -13.5086   19.3231 N   0  0  0  0  0  0  0  0  0  0  0  0
   15.3214  -14.6107   18.8534 C   0  0  0  0  0  0  0  0  0  0  0  0
   15.1271  -14.7726   17.5755 N   0  0  0  0  0  0  0  0  0  0  0  0
   14.7636  -15.5654   19.7451 N   0  0  0  0  0  0  0  0  0  0  0  0
   14.7947  -15.2758   21.1618 C   0  0  0  0  0  0  0  0  0  0  0  0
   14.0269  -16.3606   21.9221 C   0  0  0  0  0  0  0  0  0  0  0  0
   12.6188  -15.8802   22.1678 C   0  0  0  0  0  0  0  0  0  0  0  0
   11.7899  -16.8430   22.9512 C   0  0  2  0  0  0  0  0  0  0  0  0
   10.4479  -16.2943   23.2083 N   0  0  0  0  0  0  0  0  0  0  0  0
   12.3571  -17.2141   24.2550 C   0  0  0  0  0  0  0  0  0  0  0  0
   11.8728  -16.7758   25.3456 O   0  0  0  0  0  0  0  0  0  0  0  0
   13.4423  -18.0566   24.3834 O   0  0  0  0  0  0  0  0  0  0  0  0
  2  1  1  6
  2  3  1  0
  4  3  1  0
  5  2  1  0
  6  5  2  0
  7  8  1  0
  9  8  1  1
  9 11  1  0
  9 10  1  0
 10  5  1  0
 11 21  1  0
 12 11  2  0
 14 13  1  0
 15 14  2  0
 16 14  1  0
 17 16  1  0
 18 17  1  0
 19 18  1  0
 20 19  1  1
 20 22  1  0
 21 20  1  0
 22 23  2  0
 22 24  1  0
M  END
$$$$
