CSR.pdb
     RDKit          3D

 24 23  0  0  1  0  0  0  0  0999 V2000
    2.7081  -21.9206   22.4077 N   0  0  0  0  0  0  0  0  0  0  0  0
    3.5200  -20.8275   21.9609 C   0  0  1  0  0  0  0  0  0  0  0  0
    2.7100  -19.8702   21.1610 C   0  0  0  0  0  0  0  0  0  0  0  0
    3.6379  -18.3959   20.6740 S   0  0  0  0  0  0  0  0  0  0  0  0
    4.2822  -20.1860   23.0607 C   0  0  0  0  0  0  0  0  0  0  0  0
    3.6513  -19.6107   23.9941 O   0  0  0  0  0  0  0  0  0  0  0  0
    8.2600  -19.8899   25.6838 O   0  0  0  0  0  0  0  0  0  0  0  0
    7.3790  -20.4517   24.7938 C   0  0  0  0  0  0  0  0  0  0  0  0
    6.4296  -19.4448   24.1777 C   0  0  2  0  0  0  0  0  0  0  0  0
    5.6910  -20.1665   23.1500 N   0  0  0  0  0  0  0  0  0  0  0  0
    7.2636  -18.3647   23.5890 C   0  0  0  0  0  0  0  0  0  0  0  0
    7.8799  -18.6381   22.5280 O   0  0  0  0  0  0  0  0  0  0  0  0
    6.6322  -12.8212   18.9830 N   0  0  0  0  0  0  0  0  0  0  0  0
    7.9892  -13.1551   19.1897 C   0  0  0  0  0  0  0  0  0  0  0  0
    8.8282  -13.1300   18.1935 N   0  0  0  0  0  0  0  0  0  0  0  0
    8.4776  -13.5241   20.4716 N   0  0  0  0  0  0  0  0  0  0  0  0
    7.7471  -13.0737   21.6358 C   0  0  0  0  0  0  0  0  0  0  0  0
    8.4071  -13.6306   22.9002 C   0  0  0  0  0  0  0  0  0  0  0  0
    7.5529  -14.7475   23.4448 C   0  0  0  0  0  0  0  0  0  0  0  0
    8.2762  -16.0481   23.5595 C   0  0  2  0  0  0  0  0  0  0  0  0
    7.4033  -17.0871   24.1310 N   0  0  0  0  0  0  0  0  0  0  0  0
    9.4861  -16.0005   24.3922 C   0  0  0  0  0  0  0  0  0  0  0  0
   10.5117  -15.3339   24.0461 O   0  0  0  0  0  0  0  0  0  0  0  0
    9.5900  -16.6681   25.5952 O   0  0  0  0  0  0  0  0  0  0  0  0
  2  1  1  1
  2  3  1  0
  4  3  1  0
  5  2  1  0
  6  5  2  0
  7  8  1  0
  9  8  1  6
  9 11  1  0
  9 10  1  0
 10  5  1  0
 11 21  1  0
 12 11  2  0
 14 13  1  0
 15 14  2  0
 16 14  1  0
 17 16  1  0
 18 17  1  0
 19 18  1  0
 20 19  1  1
 20 22  1  0
 21 20  1  0
 22 23  2  0
 22 24  1  0
M  END
$$$$
