CSR.pdb
     RDKit          3D

 24 23  0  0  1  0  0  0  0  0999 V2000
    8.5777  -13.4082   16.5205 N   0  0  0  0  0  0  0  0  0  0  0  0
    8.6212  -14.5627   17.3682 C   0  0  1  0  0  0  0  0  0  0  0  0
    9.9026  -15.2953   17.1849 C   0  0  0  0  0  0  0  0  0  0  0  0
    9.8352  -16.5109   15.8472 S   0  0  0  0  0  0  0  0  0  0  0  0
    8.3131  -14.2511   18.7859 C   0  0  0  0  0  0  0  0  0  0  0  0
    9.0040  -13.3806   19.3900 O   0  0  0  0  0  0  0  0  0  0  0  0
    5.4443  -16.3978   20.8145 O   0  0  0  0  0  0  0  0  0  0  0  0
    5.6074  -15.0899   21.1975 C   0  0  0  0  0  0  0  0  0  0  0  0
    7.0004  -14.5587   20.9285 C   0  0  2  0  0  0  0  0  0  0  0  0
    7.2839  -14.8646   19.5327 N   0  0  0  0  0  0  0  0  0  0  0  0
    7.9247  -15.2811   21.8410 C   0  0  0  0  0  0  0  0  0  0  0  0
    8.5461  -16.2619   21.3592 O   0  0  0  0  0  0  0  0  0  0  0  0
   10.3367  -13.8342   30.1925 N   0  0  0  0  0  0  0  0  0  0  0  0
   11.1263  -14.9199   29.7526 C   0  0  0  0  0  0  0  0  0  0  0  0
   12.1482  -15.3138   30.4580 N   0  0  0  0  0  0  0  0  0  0  0  0
   10.8370  -15.6086   28.5443 N   0  0  0  0  0  0  0  0  0  0  0  0
    9.6076  -15.2879   27.8533 C   0  0  0  0  0  0  0  0  0  0  0  0
    9.5481  -16.0587   26.5318 C   0  0  0  0  0  0  0  0  0  0  0  0
    8.8911  -15.1896   25.4893 C   0  0  0  0  0  0  0  0  0  0  0  0
    8.7815  -15.8439   24.1522 C   0  0  2  0  0  0  0  0  0  0  0  0
    8.1427  -14.9446   23.1770 N   0  0  0  0  0  0  0  0  0  0  0  0
    8.0113  -17.0954   24.1483 C   0  0  0  0  0  0  0  0  0  0  0  0
    8.5390  -18.2079   24.4647 O   0  0  0  0  0  0  0  0  0  0  0  0
    6.6757  -17.1479   23.8058 O   0  0  0  0  0  0  0  0  0  0  0  0
  2  1  1  6
  2  3  1  0
  4  3  1  0
  5  2  1  0
  6  5  2  0
  7  8  1  0
  9  8  1  1
  9 11  1  0
  9 10  1  0
 10  5  1  0
 11 21  1  0
 12 11  2  0
 14 13  1  0
 15 14  2  0
 16 14  1  0
 17 16  1  0
 18 17  1  0
 19 18  1  0
 20 19  1  1
 20 22  1  0
 21 20  1  0
 22 23  2  0
 22 24  1  0
M  END
$$$$
