CSR.pdb
     RDKit          3D

 24 23  0  0  1  0  0  0  0  0999 V2000
   11.3843  -20.6745   16.8318 N   0  0  0  0  0  0  0  0  0  0  0  0
   12.0676  -20.1356   17.9703 C   0  0  1  0  0  0  0  0  0  0  0  0
   12.9184  -18.9833   17.5697 C   0  0  0  0  0  0  0  0  0  0  0  0
   11.9888  -17.4390   17.4184 S   0  0  0  0  0  0  0  0  0  0  0  0
   11.1568  -19.8357   19.1027 C   0  0  0  0  0  0  0  0  0  0  0  0
    9.9388  -19.5896   18.8657 O   0  0  0  0  0  0  0  0  0  0  0  0
   12.5493  -19.7459   23.0210 O   0  0  0  0  0  0  0  0  0  0  0  0
   11.2867  -20.2260   22.7779 C   0  0  0  0  0  0  0  0  0  0  0  0
   10.6309  -19.5943   21.5672 C   0  0  2  0  0  0  0  0  0  0  0  0
   11.5518  -19.8024   20.4577 N   0  0  0  0  0  0  0  0  0  0  0  0
   10.4625  -18.1488   21.8688 C   0  0  0  0  0  0  0  0  0  0  0  0
   11.4305  -17.3953   21.5940 O   0  0  0  0  0  0  0  0  0  0  0  0
    7.1758  -12.3974   18.9201 N   0  0  0  0  0  0  0  0  0  0  0  0
    8.3807  -12.8696   19.4866 C   0  0  0  0  0  0  0  0  0  0  0  0
    9.5171  -12.6403   18.8924 N   0  0  0  0  0  0  0  0  0  0  0  0
    8.3938  -13.5997   20.7051 N   0  0  0  0  0  0  0  0  0  0  0  0
    7.2004  -13.5857   21.5220 C   0  0  0  0  0  0  0  0  0  0  0  0
    7.4873  -14.2767   22.8578 C   0  0  0  0  0  0  0  0  0  0  0  0
    7.7184  -15.7456   22.6074 C   0  0  0  0  0  0  0  0  0  0  0  0
    9.1552  -16.1430   22.6816 C   0  0  2  0  0  0  0  0  0  0  0  0
    9.3163  -17.5845   22.4287 N   0  0  0  0  0  0  0  0  0  0  0  0
    9.7990  -15.8607   23.9721 C   0  0  0  0  0  0  0  0  0  0  0  0
   10.1006  -14.6775   24.3258 O   0  0  0  0  0  0  0  0  0  0  0  0
   10.1157  -16.8506   24.8797 O   0  0  0  0  0  0  0  0  0  0  0  0
  2  1  1  6
  2  3  1  0
  4  3  1  0
  5  2  1  0
  6  5  2  0
  7  8  1  0
  9  8  1  1
  9 11  1  0
  9 10  1  0
 10  5  1  0
 11 21  1  0
 12 11  2  0
 14 13  1  0
 15 14  2  0
 16 14  1  0
 17 16  1  0
 18 17  1  0
 19 18  1  0
 20 19  1  1
 20 22  1  0
 21 20  1  0
 22 23  2  0
 22 24  1  0
M  END
$$$$
