CSR.pdb
     RDKit          3D

 24 23  0  0  1  0  0  0  0  0999 V2000
    8.3611  -12.7994   17.4195 N   0  0  0  0  0  0  0  0  0  0  0  0
    8.0366  -13.9599   18.1952 C   0  0  1  0  0  0  0  0  0  0  0  0
    8.3758  -15.1989   17.4454 C   0  0  0  0  0  0  0  0  0  0  0  0
    7.3649  -15.4251   15.9626 S   0  0  0  0  0  0  0  0  0  0  0  0
    8.6085  -13.9189   19.5639 C   0  0  0  0  0  0  0  0  0  0  0  0
    9.7868  -13.4888   19.7270 O   0  0  0  0  0  0  0  0  0  0  0  0
    6.7381  -15.8238   22.7946 O   0  0  0  0  0  0  0  0  0  0  0  0
    7.4006  -14.6434   23.0215 C   0  0  0  0  0  0  0  0  0  0  0  0
    8.5357  -14.3996   22.0483 C   0  0  2  0  0  0  0  0  0  0  0  0
    7.9244  -14.3324   20.7276 N   0  0  0  0  0  0  0  0  0  0  0  0
    9.4603  -15.5577   22.1600 C   0  0  0  0  0  0  0  0  0  0  0  0
    9.3639  -16.4479   21.2775 O   0  0  0  0  0  0  0  0  0  0  0  0
   14.6435  -15.0643   17.7567 N   0  0  0  0  0  0  0  0  0  0  0  0
   15.0009  -14.9641   19.1197 C   0  0  0  0  0  0  0  0  0  0  0  0
   15.3965  -13.8240   19.6103 N   0  0  0  0  0  0  0  0  0  0  0  0
   14.9419  -16.0863   19.9887 N   0  0  0  0  0  0  0  0  0  0  0  0
   15.0006  -15.8496   21.4142 C   0  0  0  0  0  0  0  0  0  0  0  0
   13.9358  -16.6959   22.1171 C   0  0  0  0  0  0  0  0  0  0  0  0
   12.7016  -15.8545   22.3232 C   0  0  0  0  0  0  0  0  0  0  0  0
   11.6041  -16.5725   23.0357 C   0  0  2  0  0  0  0  0  0  0  0  0
   10.4131  -15.7167   23.1661 N   0  0  0  0  0  0  0  0  0  0  0  0
   11.9529  -17.0289   24.3883 C   0  0  0  0  0  0  0  0  0  0  0  0
   11.4398  -16.5033   25.4259 O   0  0  0  0  0  0  0  0  0  0  0  0
   12.8511  -18.0499   24.6223 O   0  0  0  0  0  0  0  0  0  0  0  0
  2  1  1  6
  2  3  1  0
  4  3  1  0
  5  2  1  0
  6  5  2  0
  7  8  1  0
  9  8  1  1
  9 11  1  0
  9 10  1  0
 10  5  1  0
 11 21  1  0
 12 11  2  0
 14 13  1  0
 15 14  2  0
 16 14  1  0
 17 16  1  0
 18 17  1  0
 19 18  1  0
 20 19  1  1
 20 22  1  0
 21 20  1  0
 22 23  2  0
 22 24  1  0
M  END
$$$$
