EVQ.pdb
     RDKit          3D

 26 25  0  0  1  0  0  0  0  0999 V2000
   18.1879  -11.6374  -19.1626 N   0  0  0  0  0  0  0  0  0  0  0  0
   17.7340  -10.5014  -18.3867 C   0  0  1  0  0  0  0  0  0  0  0  0
   17.5077  -10.9825  -16.9773 C   0  0  0  0  0  0  0  0  0  0  0  0
   16.2799  -11.8601  -16.8670 C   0  0  0  0  0  0  0  0  0  0  0  0
   16.1345  -12.4212  -15.5126 C   0  0  0  0  0  0  0  0  0  0  0  0
   15.9905  -11.6635  -14.5343 O   0  0  0  0  0  0  0  0  0  0  0  0
   18.7574   -9.4425  -18.4697 C   0  0  0  0  0  0  0  0  0  0  0  0
   19.9578   -9.7473  -18.6584 O   0  0  0  0  0  0  0  0  0  0  0  0
   16.1575  -13.7840  -15.3252 O   0  0  0  0  0  0  0  0  0  0  0  0
   19.7079   -4.6618  -19.2217 C   0  0  0  0  0  0  0  0  0  0  0  0
   18.8602   -5.9114  -19.3059 C   0  0  1  0  0  0  0  0  0  0  0  0
   18.9420   -6.4430  -20.7118 C   0  0  0  0  0  0  0  0  0  0  0  0
   19.4266   -7.0048  -18.3925 C   0  0  2  0  0  0  0  0  0  0  0  0
   18.4610   -8.0549  -18.3455 N   0  0  0  0  0  0  0  0  0  0  0  0
   19.6623   -6.3672  -17.0773 C   0  0  0  0  0  0  0  0  0  0  0  0
   18.6349   -5.9440  -16.4647 O   0  0  0  0  0  0  0  0  0  0  0  0
   21.4312   -8.8892  -12.1616 N   0  0  0  0  0  0  0  0  0  0  0  0
   21.4270   -7.5349  -11.7410 C   0  0  0  0  0  0  0  0  0  0  0  0
   21.5071   -7.3210  -10.5081 O   0  0  0  0  0  0  0  0  0  0  0  0
   21.3327   -6.4444  -12.7077 C   0  0  0  0  0  0  0  0  0  0  0  0
   21.1682   -6.8351  -14.1305 C   0  0  0  0  0  0  0  0  0  0  0  0
   21.0139   -5.7030  -15.1035 C   0  0  2  0  0  0  0  0  0  0  0  0
   20.9113   -6.1995  -16.4702 N   0  0  0  0  0  0  0  0  0  0  0  0
   22.1032   -4.7029  -14.9860 C   0  0  0  0  0  0  0  0  0  0  0  0
   22.0614   -3.8106  -13.9259 O   0  0  0  0  0  0  0  0  0  0  0  0
   23.0620   -4.6155  -15.7895 O   0  0  0  0  0  0  0  0  0  0  0  0
  2  1  1  6
  3  2  1  0
  4  3  1  0
  5  4  1  0
  6  5  2  0
  7  8  2  0
  7  2  1  0
  9  5  1  0
 11 10  1  6
 11 12  1  0
 13 11  1  0
 13 14  1  1
 14  7  1  0
 15 13  1  0
 16 15  2  0
 18 20  1  0
 18 17  1  0
 19 18  2  0
 21 20  1  0
 22 21  1  1
 22 23  1  0
 23 15  1  0
 24 22  1  0
 24 25  1  0
 26 24  2  0
M  END
$$$$
