EVQ.pdb
     RDKit          3D

 26 25  0  0  1  0  0  0  0  0999 V2000
   23.5873  -20.4499   -9.3280 N   0  0  0  0  0  0  0  0  0  0  0  0
   23.4526  -20.8003  -10.7271 C   0  0  1  0  0  0  0  0  0  0  0  0
   22.1112  -20.2941  -11.1890 C   0  0  0  0  0  0  0  0  0  0  0  0
   20.9675  -21.0105  -10.5047 C   0  0  0  0  0  0  0  0  0  0  0  0
   19.6640  -20.4404  -10.8875 C   0  0  0  0  0  0  0  0  0  0  0  0
   19.6070  -19.5118  -11.7159 O   0  0  0  0  0  0  0  0  0  0  0  0
   24.5754  -20.1959  -11.4684 C   0  0  0  0  0  0  0  0  0  0  0  0
   24.9881  -19.0550  -11.1561 O   0  0  0  0  0  0  0  0  0  0  0  0
   18.5063  -20.9327  -10.3305 O   0  0  0  0  0  0  0  0  0  0  0  0
   28.5635  -20.4421  -14.1866 C   0  0  0  0  0  0  0  0  0  0  0  0
   27.4708  -21.0751  -13.3546 C   0  0  1  0  0  0  0  0  0  0  0  0
   27.9174  -21.0836  -11.9170 C   0  0  0  0  0  0  0  0  0  0  0  0
   26.1957  -20.2256  -13.4100 C   0  0  2  0  0  0  0  0  0  0  0  0
   25.2408  -20.8441  -12.5481 N   0  0  0  0  0  0  0  0  0  0  0  0
   25.7738  -20.2011  -14.8288 C   0  0  0  0  0  0  0  0  0  0  0  0
   24.8168  -20.9718  -15.1449 O   0  0  0  0  0  0  0  0  0  0  0  0
   22.5151  -15.8568  -15.8302 N   0  0  0  0  0  0  0  0  0  0  0  0
   22.1315  -16.9955  -16.5834 C   0  0  0  0  0  0  0  0  0  0  0  0
   20.9599  -17.0148  -17.0299 O   0  0  0  0  0  0  0  0  0  0  0  0
   23.0656  -18.0921  -16.8228 C   0  0  0  0  0  0  0  0  0  0  0  0
   24.4023  -17.9718  -16.1882 C   0  0  0  0  0  0  0  0  0  0  0  0
   25.5034  -18.7614  -16.8334 C   0  0  2  0  0  0  0  0  0  0  0  0
   26.3416  -19.4054  -15.8295 N   0  0  0  0  0  0  0  0  0  0  0  0
   26.3235  -17.9395  -17.7567 C   0  0  0  0  0  0  0  0  0  0  0  0
   27.4584  -17.3235  -17.2525 O   0  0  0  0  0  0  0  0  0  0  0  0
   26.0517  -17.7678  -18.9688 O   0  0  0  0  0  0  0  0  0  0  0  0
  2  1  1  1
  3  2  1  0
  4  3  1  0
  5  4  1  0
  6  5  2  0
  7  8  2  0
  7  2  1  0
  9  5  1  0
 11 10  1  6
 11 12  1  0
 13 11  1  0
 13 14  1  1
 14  7  1  0
 15 13  1  0
 16 15  2  0
 18 20  1  0
 18 17  1  0
 19 18  2  0
 21 20  1  0
 22 21  1  1
 22 23  1  0
 23 15  1  0
 24 22  1  0
 24 25  1  0
 26 24  2  0
M  END
$$$$
