EVQ.pdb
     RDKit          3D

 26 25  0  0  1  0  0  0  0  0999 V2000
   27.0221  -17.6728  -19.9772 N   0  0  0  0  0  0  0  0  0  0  0  0
   25.8257  -17.6217  -19.1620 C   0  0  1  0  0  0  0  0  0  0  0  0
   24.6655  -18.0029  -20.0439 C   0  0  0  0  0  0  0  0  0  0  0  0
   23.5717  -16.9575  -20.0269 C   0  0  0  0  0  0  0  0  0  0  0  0
   22.3725  -17.4158  -20.7499 C   0  0  0  0  0  0  0  0  0  0  0  0
   21.2832  -17.5153  -20.1537 O   0  0  0  0  0  0  0  0  0  0  0  0
   26.0001  -18.5405  -18.0215 C   0  0  0  0  0  0  0  0  0  0  0  0
   26.8653  -19.4450  -18.0746 O   0  0  0  0  0  0  0  0  0  0  0  0
   22.4532  -17.7349  -22.0857 O   0  0  0  0  0  0  0  0  0  0  0  0
   27.6280  -18.0341  -15.3930 C   0  0  0  0  0  0  0  0  0  0  0  0
   26.3265  -18.4009  -14.7160 C   0  0  1  0  0  0  0  0  0  0  0  0
   25.5623  -17.1328  -14.4442 C   0  0  0  0  0  0  0  0  0  0  0  0
   25.4540  -19.2431  -15.6542 C   0  0  2  0  0  0  0  0  0  0  0  0
   25.2261  -18.4641  -16.8283 N   0  0  0  0  0  0  0  0  0  0  0  0
   24.2141  -19.5496  -14.9055 C   0  0  0  0  0  0  0  0  0  0  0  0
   23.3906  -18.5947  -14.7651 O   0  0  0  0  0  0  0  0  0  0  0  0
   23.4141  -25.0326  -13.7908 N   0  0  0  0  0  0  0  0  0  0  0  0
   22.7037  -24.4667  -14.8799 C   0  0  0  0  0  0  0  0  0  0  0  0
   22.6104  -25.1596  -15.9208 O   0  0  0  0  0  0  0  0  0  0  0  0
   22.1111  -23.1355  -14.7847 C   0  0  0  0  0  0  0  0  0  0  0  0
   22.2910  -22.4228  -13.4949 C   0  0  0  0  0  0  0  0  0  0  0  0
   22.6530  -20.9700  -13.5980 C   0  0  2  0  0  0  0  0  0  0  0  0
   23.8885  -20.7919  -14.3509 N   0  0  0  0  0  0  0  0  0  0  0  0
   22.7450  -20.3138  -12.2708 C   0  0  0  0  0  0  0  0  0  0  0  0
   21.5911  -20.2121  -11.5092 O   0  0  0  0  0  0  0  0  0  0  0  0
   23.8059  -19.8443  -11.7947 O   0  0  0  0  0  0  0  0  0  0  0  0
  2  1  1  6
  3  2  1  0
  4  3  1  0
  5  4  1  0
  6  5  2  0
  7  8  2  0
  7  2  1  0
  9  5  1  0
 11 10  1  6
 11 12  1  0
 13 11  1  0
 13 14  1  6
 14  7  1  0
 15 13  1  0
 16 15  2  0
 18 20  1  0
 18 17  1  0
 19 18  2  0
 21 20  1  0
 22 21  1  1
 22 23  1  0
 23 15  1  0
 24 22  1  0
 24 25  1  0
 26 24  2  0
M  END
$$$$
