EVQ.pdb
     RDKit          3D

 26 25  0  0  1  0  0  0  0  0999 V2000
   22.8710  -16.1336  -15.2281 N   0  0  0  0  0  0  0  0  0  0  0  0
   23.2231  -15.1899  -16.2692 C   0  0  1  0  0  0  0  0  0  0  0  0
   22.0518  -15.1051  -17.2126 C   0  0  0  0  0  0  0  0  0  0  0  0
   21.7455  -16.4385  -17.8589 C   0  0  0  0  0  0  0  0  0  0  0  0
   22.5211  -16.6320  -19.0965 C   0  0  0  0  0  0  0  0  0  0  0  0
   23.3339  -15.7636  -19.4670 O   0  0  0  0  0  0  0  0  0  0  0  0
   23.5396  -13.8957  -15.6364 C   0  0  0  0  0  0  0  0  0  0  0  0
   22.8066  -13.4513  -14.7227 O   0  0  0  0  0  0  0  0  0  0  0  0
   22.3492  -17.7728  -19.8462 O   0  0  0  0  0  0  0  0  0  0  0  0
   26.8365  -10.1663  -15.2543 C   0  0  0  0  0  0  0  0  0  0  0  0
   26.4170  -11.4974  -15.8365 C   0  0  1  0  0  0  0  0  0  0  0  0
   27.2694  -12.5727  -15.2175 C   0  0  0  0  0  0  0  0  0  0  0  0
   24.9670  -11.8160  -15.4535 C   0  0  2  0  0  0  0  0  0  0  0  0
   24.6572  -13.0945  -16.0074 N   0  0  0  0  0  0  0  0  0  0  0  0
   24.1399  -10.7213  -16.0097 C   0  0  0  0  0  0  0  0  0  0  0  0
   23.8892  -10.7807  -17.2520 O   0  0  0  0  0  0  0  0  0  0  0  0
   19.1279  -10.9775  -17.3015 N   0  0  0  0  0  0  0  0  0  0  0  0
   19.1062   -9.5598  -17.2731 C   0  0  0  0  0  0  0  0  0  0  0  0
   18.0450   -8.9990  -17.6360 O   0  0  0  0  0  0  0  0  0  0  0  0
   20.2726   -8.7954  -16.8397 C   0  0  0  0  0  0  0  0  0  0  0  0
   21.4317   -9.5812  -16.3470 C   0  0  0  0  0  0  0  0  0  0  0  0
   22.6009   -8.7793  -15.8549 C   0  0  2  0  0  0  0  0  0  0  0  0
   23.6233   -9.6452  -15.2805 N   0  0  0  0  0  0  0  0  0  0  0  0
   22.1993   -7.7258  -14.8909 C   0  0  0  0  0  0  0  0  0  0  0  0
   21.5122   -6.6231  -15.3744 O   0  0  0  0  0  0  0  0  0  0  0  0
   22.4444   -7.7723  -13.6619 O   0  0  0  0  0  0  0  0  0  0  0  0
  2  1  1  1
  3  2  1  0
  4  3  1  0
  5  4  1  0
  6  5  2  0
  7  8  2  0
  7  2  1  0
  9  5  1  0
 11 10  1  1
 11 12  1  0
 13 11  1  0
 13 14  1  6
 14  7  1  0
 15 13  1  0
 16 15  2  0
 18 20  1  0
 18 17  1  0
 19 18  2  0
 21 20  1  0
 22 21  1  1
 22 23  1  0
 23 15  1  0
 24 22  1  0
 24 25  1  0
 26 24  2  0
M  END
$$$$
