EVQ.pdb
     RDKit          3D

 26 25  0  0  1  0  0  0  0  0999 V2000
   20.2660  -14.4758  -16.6226 N   0  0  0  0  0  0  0  0  0  0  0  0
   20.3614  -13.1778  -17.2586 C   0  0  1  0  0  0  0  0  0  0  0  0
   19.2006  -13.0588  -18.2113 C   0  0  0  0  0  0  0  0  0  0  0  0
   19.3134  -14.0281  -19.3677 C   0  0  0  0  0  0  0  0  0  0  0  0
   18.1907  -13.8806  -20.3103 C   0  0  0  0  0  0  0  0  0  0  0  0
   18.2311  -13.0084  -21.1989 O   0  0  0  0  0  0  0  0  0  0  0  0
   20.3444  -12.1425  -16.2082 C   0  0  0  0  0  0  0  0  0  0  0  0
   19.5734  -12.2599  -15.2277 O   0  0  0  0  0  0  0  0  0  0  0  0
   17.0947  -14.7062  -20.2110 O   0  0  0  0  0  0  0  0  0  0  0  0
   21.9310  -11.9230  -13.7157 C   0  0  0  0  0  0  0  0  0  0  0  0
   22.2986  -10.5335  -14.1861 C   0  0  1  0  0  0  0  0  0  0  0  0
   23.6070  -10.6166  -14.9258 C   0  0  0  0  0  0  0  0  0  0  0  0
   21.2619  -10.0168  -15.1905 C   0  0  2  0  0  0  0  0  0  0  0  0
   21.1720  -10.9837  -16.2366 N   0  0  0  0  0  0  0  0  0  0  0  0
   21.7519   -8.6984  -15.6527 C   0  0  0  0  0  0  0  0  0  0  0  0
   22.6081   -8.7127  -16.5889 O   0  0  0  0  0  0  0  0  0  0  0  0
   19.4678   -6.5594  -19.8011 N   0  0  0  0  0  0  0  0  0  0  0  0
   20.1153   -5.3513  -19.4374 C   0  0  0  0  0  0  0  0  0  0  0  0
   20.0631   -4.4069  -20.2606 O   0  0  0  0  0  0  0  0  0  0  0  0
   20.8099   -5.2222  -18.1594 C   0  0  0  0  0  0  0  0  0  0  0  0
   20.7888   -6.4126  -17.2727 C   0  0  0  0  0  0  0  0  0  0  0  0
   21.4708   -6.2491  -15.9459 C   0  0  2  0  0  0  0  0  0  0  0  0
   21.3483   -7.4598  -15.1431 N   0  0  0  0  0  0  0  0  0  0  0  0
   20.9768   -5.0676  -15.1972 C   0  0  0  0  0  0  0  0  0  0  0  0
   21.5712   -3.8399  -15.4449 O   0  0  0  0  0  0  0  0  0  0  0  0
   20.0519   -5.1121  -14.3516 O   0  0  0  0  0  0  0  0  0  0  0  0
  2  1  1  1
  3  2  1  0
  4  3  1  0
  5  4  1  0
  6  5  2  0
  7  8  2  0
  7  2  1  0
  9  5  1  0
 11 10  1  6
 11 12  1  0
 13 11  1  0
 13 14  1  6
 14  7  1  0
 15 13  1  0
 16 15  2  0
 18 20  1  0
 18 17  1  0
 19 18  2  0
 21 20  1  0
 22 21  1  6
 22 23  1  0
 23 15  1  0
 24 22  1  0
 24 25  1  0
 26 24  2  0
M  END
$$$$
