EVQ.pdb
     RDKit          3D

 26 25  0  0  1  0  0  0  0  0999 V2000
   25.9679  -25.9012  -21.6982 N   0  0  0  0  0  0  0  0  0  0  0  0
   25.2971  -26.6684  -20.6686 C   0  0  1  0  0  0  0  0  0  0  0  0
   24.1184  -27.3497  -21.3132 C   0  0  0  0  0  0  0  0  0  0  0  0
   22.9211  -26.4308  -21.4223 C   0  0  0  0  0  0  0  0  0  0  0  0
   21.7506  -26.9792  -20.7153 C   0  0  0  0  0  0  0  0  0  0  0  0
   20.9075  -27.6563  -21.3340 O   0  0  0  0  0  0  0  0  0  0  0  0
   26.2639  -27.6237  -20.0959 C   0  0  0  0  0  0  0  0  0  0  0  0
   27.0984  -28.1895  -20.8396 O   0  0  0  0  0  0  0  0  0  0  0  0
   21.5862  -26.7447  -19.3696 O   0  0  0  0  0  0  0  0  0  0  0  0
   28.9307  -26.9299  -18.2238 C   0  0  0  0  0  0  0  0  0  0  0  0
   28.2369  -27.9133  -17.3080 C   0  0  1  0  0  0  0  0  0  0  0  0
   27.3843  -27.1364  -16.3408 C   0  0  0  0  0  0  0  0  0  0  0  0
   27.2836  -28.8087  -18.1079 C   0  0  2  0  0  0  0  0  0  0  0  0
   26.3121  -27.9548  -18.7114 N   0  0  0  0  0  0  0  0  0  0  0  0
   26.7010  -29.7653  -17.1397 C   0  0  0  0  0  0  0  0  0  0  0  0
   25.7508  -29.3298  -16.4205 O   0  0  0  0  0  0  0  0  0  0  0  0
   23.4211  -34.1498  -15.7282 N   0  0  0  0  0  0  0  0  0  0  0  0
   23.5489  -33.5885  -17.0243 C   0  0  0  0  0  0  0  0  0  0  0  0
   22.5146  -33.5477  -17.7319 O   0  0  0  0  0  0  0  0  0  0  0  0
   24.8321  -33.0837  -17.5051 C   0  0  0  0  0  0  0  0  0  0  0  0
   25.9839  -33.2169  -16.5780 C   0  0  0  0  0  0  0  0  0  0  0  0
   26.4763  -31.9397  -15.9627 C   0  0  2  0  0  0  0  0  0  0  0  0
   27.1129  -31.0902  -16.9617 N   0  0  0  0  0  0  0  0  0  0  0  0
   27.3863  -32.1779  -14.8157 C   0  0  0  0  0  0  0  0  0  0  0  0
   26.8560  -32.7398  -13.6646 O   0  0  0  0  0  0  0  0  0  0  0  0
   28.6093  -31.9010  -14.8241 O   0  0  0  0  0  0  0  0  0  0  0  0
  2  1  1  6
  3  2  1  0
  4  3  1  0
  5  4  1  0
  6  5  2  0
  7  8  2  0
  7  2  1  0
  9  5  1  0
 11 10  1  6
 11 12  1  0
 13 11  1  0
 13 14  1  1
 14  7  1  0
 15 13  1  0
 16 15  2  0
 18 20  1  0
 18 17  1  0
 19 18  2  0
 21 20  1  0
 22 21  1  6
 22 23  1  0
 23 15  1  0
 24 22  1  0
 24 25  1  0
 26 24  2  0
M  END
$$$$
