EVQ.pdb
     RDKit          3D

 26 25  0  0  1  0  0  0  0  0999 V2000
   19.0981  -12.1841  -17.5049 N   0  0  0  0  0  0  0  0  0  0  0  0
   18.4583  -11.5145  -16.3910 C   0  0  1  0  0  0  0  0  0  0  0  0
   17.7157  -12.5627  -15.6043 C   0  0  0  0  0  0  0  0  0  0  0  0
   16.7141  -13.3098  -16.4576 C   0  0  0  0  0  0  0  0  0  0  0  0
   15.9252  -14.2633  -15.6582 C   0  0  0  0  0  0  0  0  0  0  0  0
   16.2237  -15.4727  -15.6543 O   0  0  0  0  0  0  0  0  0  0  0  0
   19.4990  -10.8364  -15.5957 C   0  0  0  0  0  0  0  0  0  0  0  0
   19.2147  -10.3572  -14.4736 O   0  0  0  0  0  0  0  0  0  0  0  0
   14.8565  -13.8197  -14.9139 O   0  0  0  0  0  0  0  0  0  0  0  0
   24.3570  -10.0194  -14.9757 C   0  0  0  0  0  0  0  0  0  0  0  0
   23.2114  -10.6290  -15.7522 C   0  0  1  0  0  0  0  0  0  0  0  0
   23.1510  -12.0979  -15.4287 C   0  0  0  0  0  0  0  0  0  0  0  0
   21.8765  -10.0272  -15.2976 C   0  0  2  0  0  0  0  0  0  0  0  0
   20.8461  -10.6863  -16.0332 N   0  0  0  0  0  0  0  0  0  0  0  0
   21.9581   -8.5757  -15.5772 C   0  0  0  0  0  0  0  0  0  0  0  0
   21.8429   -8.2291  -16.7922 O   0  0  0  0  0  0  0  0  0  0  0  0
   18.0362   -5.1492  -16.4138 N   0  0  0  0  0  0  0  0  0  0  0  0
   19.0164   -4.1342  -16.2724 C   0  0  0  0  0  0  0  0  0  0  0  0
   18.6719   -2.9648  -16.5660 O   0  0  0  0  0  0  0  0  0  0  0  0
   20.3644   -4.4462  -15.8055 C   0  0  0  0  0  0  0  0  0  0  0  0
   20.6443   -5.8716  -15.4994 C   0  0  0  0  0  0  0  0  0  0  0  0
   22.0188   -6.1678  -14.9749 C   0  0  2  0  0  0  0  0  0  0  0  0
   22.1495   -7.5753  -14.6183 N   0  0  0  0  0  0  0  0  0  0  0  0
   22.3884   -5.2976  -13.8319 C   0  0  0  0  0  0  0  0  0  0  0  0
   22.7694   -3.9918  -14.0993 O   0  0  0  0  0  0  0  0  0  0  0  0
   22.3771   -5.6725  -12.6352 O   0  0  0  0  0  0  0  0  0  0  0  0
  2  1  1  6
  3  2  1  0
  4  3  1  0
  5  4  1  0
  6  5  2  0
  7  8  2  0
  7  2  1  0
  9  5  1  0
 11 10  1  1
 11 12  1  0
 13 11  1  0
 13 14  1  6
 14  7  1  0
 15 13  1  0
 16 15  2  0
 18 20  1  0
 18 17  1  0
 19 18  2  0
 21 20  1  0
 22 21  1  1
 22 23  1  0
 23 15  1  0
 24 22  1  0
 24 25  1  0
 26 24  2  0
M  END
$$$$
