EVQ.pdb
     RDKit          3D

 26 25  0  0  1  0  0  0  0  0999 V2000
   21.4935  -14.1455  -16.9891 N   0  0  0  0  0  0  0  0  0  0  0  0
   21.4212  -12.7748  -17.4522 C   0  0  1  0  0  0  0  0  0  0  0  0
   19.9900  -12.5069  -17.8384 C   0  0  0  0  0  0  0  0  0  0  0  0
   19.5385  -13.3820  -18.9873 C   0  0  0  0  0  0  0  0  0  0  0  0
   18.1090  -13.1884  -19.2870 C   0  0  0  0  0  0  0  0  0  0  0  0
   17.6971  -12.0798  -19.6785 O   0  0  0  0  0  0  0  0  0  0  0  0
   21.8936  -11.8921  -16.3691 C   0  0  0  0  0  0  0  0  0  0  0  0
   21.4682  -12.0531  -15.2017 O   0  0  0  0  0  0  0  0  0  0  0  0
   17.2256  -14.2321  -19.1350 O   0  0  0  0  0  0  0  0  0  0  0  0
   25.1547  -11.4482  -15.0080 C   0  0  0  0  0  0  0  0  0  0  0  0
   24.7780  -10.0508  -15.4466 C   0  0  1  0  0  0  0  0  0  0  0  0
   25.3346   -9.8234  -16.8266 C   0  0  0  0  0  0  0  0  0  0  0  0
   23.2550   -9.9189  -15.5635 C   0  0  2  0  0  0  0  0  0  0  0  0
   22.8296  -10.8375  -16.5697 N   0  0  0  0  0  0  0  0  0  0  0  0
   22.9856   -8.5051  -15.9103 C   0  0  0  0  0  0  0  0  0  0  0  0
   22.7911   -8.2540  -17.1387 O   0  0  0  0  0  0  0  0  0  0  0  0
   18.5770   -6.2992  -17.4107 N   0  0  0  0  0  0  0  0  0  0  0  0
   19.1464   -5.0438  -17.0779 C   0  0  0  0  0  0  0  0  0  0  0  0
   18.4830   -4.0214  -17.3725 O   0  0  0  0  0  0  0  0  0  0  0  0
   20.4481   -4.9552  -16.4221 C   0  0  0  0  0  0  0  0  0  0  0  0
   21.1068   -6.2421  -16.0843 C   0  0  0  0  0  0  0  0  0  0  0  0
   22.4453   -6.1330  -15.4145 C   0  0  2  0  0  0  0  0  0  0  0  0
   22.9303   -7.4439  -15.0005 N   0  0  0  0  0  0  0  0  0  0  0  0
   22.4303   -5.1903  -14.2694 C   0  0  0  0  0  0  0  0  0  0  0  0
   22.4206   -3.8308  -14.5404 O   0  0  0  0  0  0  0  0  0  0  0  0
   22.4259   -5.5494  -13.0679 O   0  0  0  0  0  0  0  0  0  0  0  0
  2  1  1  1
  3  2  1  0
  4  3  1  0
  5  4  1  0
  6  5  2  0
  7  8  2  0
  7  2  1  0
  9  5  1  0
 11 10  1  6
 11 12  1  0
 13 11  1  0
 13 14  1  6
 14  7  1  0
 15 13  1  0
 16 15  2  0
 18 20  1  0
 18 17  1  0
 19 18  2  0
 21 20  1  0
 22 21  1  1
 22 23  1  0
 23 15  1  0
 24 22  1  0
 24 25  1  0
 26 24  2  0
M  END
$$$$
