EVQ.pdb
     RDKit          3D

 26 25  0  0  1  0  0  0  0  0999 V2000
   20.3859  -13.4748  -15.3945 N   0  0  0  0  0  0  0  0  0  0  0  0
   20.5898  -12.4519  -16.3997 C   0  0  1  0  0  0  0  0  0  0  0  0
   19.2293  -11.9988  -16.8610 C   0  0  0  0  0  0  0  0  0  0  0  0
   18.4597  -13.1116  -17.5386 C   0  0  0  0  0  0  0  0  0  0  0  0
   17.7321  -13.9404  -16.5617 C   0  0  0  0  0  0  0  0  0  0  0  0
   17.9450  -15.1663  -16.5007 O   0  0  0  0  0  0  0  0  0  0  0  0
   21.3803  -11.3607  -15.7996 C   0  0  0  0  0  0  0  0  0  0  0  0
   21.0213  -10.8549  -14.7111 O   0  0  0  0  0  0  0  0  0  0  0  0
   16.8154  -13.3619  -15.7144 O   0  0  0  0  0  0  0  0  0  0  0  0
   25.7736   -9.2324  -15.3874 C   0  0  0  0  0  0  0  0  0  0  0  0
   24.8374  -10.2418  -16.0132 C   0  0  1  0  0  0  0  0  0  0  0  0
   24.9981  -11.5493  -15.2849 C   0  0  0  0  0  0  0  0  0  0  0  0
   23.3788   -9.8111  -15.8193 C   0  0  2  0  0  0  0  0  0  0  0  0
   22.5600  -10.8289  -16.3945 N   0  0  0  0  0  0  0  0  0  0  0  0
   23.2398   -8.4991  -16.4910 C   0  0  0  0  0  0  0  0  0  0  0  0
   23.5002   -8.4719  -17.7325 O   0  0  0  0  0  0  0  0  0  0  0  0
   19.6094   -6.5827  -19.7261 N   0  0  0  0  0  0  0  0  0  0  0  0
   19.2790   -6.8098  -18.3658 C   0  0  0  0  0  0  0  0  0  0  0  0
   18.0928   -7.1278  -18.1132 O   0  0  0  0  0  0  0  0  0  0  0  0
   20.2820   -6.6761  -17.3129 C   0  0  0  0  0  0  0  0  0  0  0  0
   21.6546   -6.3165  -17.7495 C   0  0  0  0  0  0  0  0  0  0  0  0
   22.6507   -6.0925  -16.6496 C   0  0  2  0  0  0  0  0  0  0  0  0
   22.8497   -7.3080  -15.8698 N   0  0  0  0  0  0  0  0  0  0  0  0
   22.2779   -4.9571  -15.7707 C   0  0  0  0  0  0  0  0  0  0  0  0
   22.1808   -3.6953  -16.3366 O   0  0  0  0  0  0  0  0  0  0  0  0
   22.0446   -5.0698  -14.5437 O   0  0  0  0  0  0  0  0  0  0  0  0
  2  1  1  1
  3  2  1  0
  4  3  1  0
  5  4  1  0
  6  5  2  0
  7  8  2  0
  7  2  1  0
  9  5  1  0
 11 10  1  1
 11 12  1  0
 13 11  1  0
 13 14  1  6
 14  7  1  0
 15 13  1  0
 16 15  2  0
 18 20  1  0
 18 17  1  0
 19 18  2  0
 21 20  1  0
 22 21  1  6
 22 23  1  0
 23 15  1  0
 24 22  1  0
 24 25  1  0
 26 24  2  0
M  END
$$$$
