TAD.pdb
     RDKit          3D

 21 20  0  0  1  0  0  0  0  0999 V2000
   10.7550  -14.7811   18.4877 C   0  0  0  0  0  0  0  0  0  0  0  0
    9.9840  -13.5281   18.7867 C   0  0  1  0  0  0  0  0  0  0  0  0
   10.2266  -12.5896   17.7701 O   0  0  0  0  0  0  0  0  0  0  0  0
    8.4972  -13.8360   18.8842 C   0  0  2  0  0  0  0  0  0  0  0  0
    7.7796  -12.5804   18.9625 N   0  0  0  0  0  0  0  0  0  0  0  0
    8.1995  -14.6999   20.0461 C   0  0  0  0  0  0  0  0  0  0  0  0
    7.9545  -14.1849   21.1667 O   0  0  0  0  0  0  0  0  0  0  0  0
    7.2802  -18.2916   20.5744 C   0  0  0  0  0  0  0  0  0  0  0  0
    7.8866  -16.9876   21.0497 C   0  0  2  0  0  0  0  0  0  0  0  0
    8.1789  -16.1183   19.9447 N   0  0  0  0  0  0  0  0  0  0  0  0
    9.0754  -17.2172   21.9133 C   0  0  0  0  0  0  0  0  0  0  0  0
    9.0383  -18.0691   22.8429 O   0  0  0  0  0  0  0  0  0  0  0  0
   10.2950  -16.5114   21.7511 N   0  0  0  0  0  0  0  0  0  0  0  0
   11.4853  -16.8199   22.5259 C   0  0  1  0  0  0  0  0  0  0  0  0
   12.6192  -15.9912   21.9674 C   0  0  0  0  0  0  0  0  0  0  0  0
   12.9375  -16.4268   20.5877 C   0  0  0  0  0  0  0  0  0  0  0  0
   12.7480  -17.6187   20.2556 O   0  0  0  0  0  0  0  0  0  0  0  0
   11.2923  -16.4494   23.9591 C   0  0  0  0  0  0  0  0  0  0  0  0
   12.1965  -16.7261   24.7697 O   0  0  0  0  0  0  0  0  0  0  0  0
   13.4451  -15.5323   19.6509 O   0  0  0  0  0  0  0  0  0  0  0  0
   10.1519  -15.8177   24.3943 O   0  0  0  0  0  0  0  0  0  0  0  0
  2  1  1  6
  3  2  1  0
  4  5  1  1
  4  2  1  0
  6  4  1  0
  6  7  2  0
  9  8  1  6
  9 10  1  0
  9 11  1  0
 10  6  1  0
 11 12  2  0
 13 11  1  0
 13 14  1  0
 14 15  1  6
 15 16  1  0
 16 20  1  0
 16 17  2  0
 18 21  1  0
 18 14  1  0
 19 18  2  0
M  END
$$$$
