TAD.pdb
     RDKit          3D

 21 20  0  0  1  0  0  0  0  0999 V2000
    6.6747  -14.7105   18.5596 C   0  0  0  0  0  0  0  0  0  0  0  0
    7.3174  -14.7879   19.9141 C   0  0  1  0  0  0  0  0  0  0  0  0
    8.5376  -15.4745   19.8016 O   0  0  0  0  0  0  0  0  0  0  0  0
    7.5417  -13.3897   20.4705 C   0  0  2  0  0  0  0  0  0  0  0  0
    8.3843  -12.6638   19.5428 N   0  0  0  0  0  0  0  0  0  0  0  0
    8.1416  -13.4353   21.8206 C   0  0  0  0  0  0  0  0  0  0  0  0
    9.3916  -13.4667   21.9529 O   0  0  0  0  0  0  0  0  0  0  0  0
    6.8710  -13.3861   25.3861 C   0  0  0  0  0  0  0  0  0  0  0  0
    7.8626  -13.7549   24.3023 C   0  0  2  0  0  0  0  0  0  0  0  0
    7.3453  -13.4453   22.9989 N   0  0  0  0  0  0  0  0  0  0  0  0
    8.2946  -15.1738   24.4126 C   0  0  0  0  0  0  0  0  0  0  0  0
    7.5419  -16.1061   24.0185 O   0  0  0  0  0  0  0  0  0  0  0  0
    9.5477  -15.5590   24.9540 N   0  0  0  0  0  0  0  0  0  0  0  0
    9.9080  -16.9492   25.1778 C   0  0  1  0  0  0  0  0  0  0  0  0
   11.4069  -17.0619   25.0199 C   0  0  0  0  0  0  0  0  0  0  0  0
   11.7808  -16.9263   23.5929 C   0  0  0  0  0  0  0  0  0  0  0  0
   10.9143  -17.1008   22.7066 O   0  0  0  0  0  0  0  0  0  0  0  0
    9.5471  -17.3709   26.5636 C   0  0  0  0  0  0  0  0  0  0  0  0
    9.4331  -18.5881   26.8019 O   0  0  0  0  0  0  0  0  0  0  0  0
   13.0821  -16.6074   23.2182 O   0  0  0  0  0  0  0  0  0  0  0  0
    9.3413  -16.4543   27.5668 O   0  0  0  0  0  0  0  0  0  0  0  0
  2  1  1  6
  3  2  1  0
  4  5  1  6
  4  2  1  0
  6  4  1  0
  6  7  2  0
  9  8  1  1
  9 10  1  0
  9 11  1  0
 10  6  1  0
 11 12  2  0
 13 11  1  0
 13 14  1  0
 14 15  1  1
 15 16  1  0
 16 20  1  0
 16 17  2  0
 18 21  1  0
 18 14  1  0
 19 18  2  0
M  END
$$$$
