TAD.pdb
     RDKit          3D

 21 20  0  0  1  0  0  0  0  0999 V2000
    6.3403  -14.5133   18.6395 C   0  0  0  0  0  0  0  0  0  0  0  0
    6.9782  -14.7070   19.9846 C   0  0  1  0  0  0  0  0  0  0  0  0
    8.0665  -15.5849   19.8512 O   0  0  0  0  0  0  0  0  0  0  0  0
    7.4377  -13.3697   20.5462 C   0  0  2  0  0  0  0  0  0  0  0  0
    8.3621  -12.7765   19.6022 N   0  0  0  0  0  0  0  0  0  0  0  0
    8.0565  -13.5276   21.8793 C   0  0  0  0  0  0  0  0  0  0  0  0
    9.2974  -13.7034   21.9801 O   0  0  0  0  0  0  0  0  0  0  0  0
    6.8764  -13.3130   25.4688 C   0  0  0  0  0  0  0  0  0  0  0  0
    7.8385  -13.7374   24.3788 C   0  0  2  0  0  0  0  0  0  0  0  0
    7.2888  -13.4879   23.0758 N   0  0  0  0  0  0  0  0  0  0  0  0
    8.2687  -15.1512   24.5455 C   0  0  0  0  0  0  0  0  0  0  0  0
    7.4799  -16.0980   24.2760 O   0  0  0  0  0  0  0  0  0  0  0  0
    9.5596  -15.5158   25.0063 N   0  0  0  0  0  0  0  0  0  0  0  0
    9.9226  -16.8908   25.3066 C   0  0  1  0  0  0  0  0  0  0  0  0
   11.4217  -17.0092   25.1552 C   0  0  0  0  0  0  0  0  0  0  0  0
   11.7820  -17.1228   23.7227 C   0  0  0  0  0  0  0  0  0  0  0  0
   10.8778  -17.1543   22.8576 O   0  0  0  0  0  0  0  0  0  0  0  0
    9.5624  -17.2360   26.7136 C   0  0  0  0  0  0  0  0  0  0  0  0
    9.2674  -18.4170   26.9772 O   0  0  0  0  0  0  0  0  0  0  0  0
   13.1115  -17.1953   23.3197 O   0  0  0  0  0  0  0  0  0  0  0  0
    9.5505  -16.2885   27.7092 O   0  0  0  0  0  0  0  0  0  0  0  0
  2  1  1  6
  3  2  1  0
  4  5  1  6
  4  2  1  0
  6  4  1  0
  6  7  2  0
  9  8  1  1
  9 10  1  0
  9 11  1  0
 10  6  1  0
 11 12  2  0
 13 11  1  0
 13 14  1  0
 14 15  1  1
 15 16  1  0
 16 20  1  0
 16 17  2  0
 18 21  1  0
 18 14  1  0
 19 18  2  0
M  END
$$$$
