TAD.pdb
     RDKit          3D

 21 20  0  0  1  0  0  0  0  0999 V2000
    7.6990  -16.9167   16.4560 C   0  0  0  0  0  0  0  0  0  0  0  0
    8.1210  -15.7019   15.6815 C   0  0  1  0  0  0  0  0  0  0  0  0
    7.6204  -15.7986   14.3726 O   0  0  0  0  0  0  0  0  0  0  0  0
    7.6041  -14.4410   16.3581 C   0  0  2  0  0  0  0  0  0  0  0  0
    7.7083  -13.3467   15.4151 N   0  0  0  0  0  0  0  0  0  0  0  0
    8.3476  -14.1522   17.6026 C   0  0  0  0  0  0  0  0  0  0  0  0
    9.5688  -13.8574   17.5519 O   0  0  0  0  0  0  0  0  0  0  0  0
    7.4885  -14.0256   21.2972 C   0  0  0  0  0  0  0  0  0  0  0  0
    8.4360  -14.0264   20.1156 C   0  0  2  0  0  0  0  0  0  0  0  0
    7.7239  -14.1955   18.8800 N   0  0  0  0  0  0  0  0  0  0  0  0
    9.5199  -15.0312   20.2812 C   0  0  0  0  0  0  0  0  0  0  0  0
    9.3273  -16.2393   19.9739 O   0  0  0  0  0  0  0  0  0  0  0  0
   10.8058  -14.7037   20.7822 N   0  0  0  0  0  0  0  0  0  0  0  0
   11.7807  -15.7157   21.1535 C   0  0  1  0  0  0  0  0  0  0  0  0
   13.1517  -15.1657   20.8338 C   0  0  0  0  0  0  0  0  0  0  0  0
   13.3786  -15.1811   19.3699 C   0  0  0  0  0  0  0  0  0  0  0  0
   12.8704  -16.0892   18.6743 O   0  0  0  0  0  0  0  0  0  0  0  0
   11.7160  -15.9982   22.6179 C   0  0  0  0  0  0  0  0  0  0  0  0
   12.4419  -16.8984   23.0805 O   0  0  0  0  0  0  0  0  0  0  0  0
   14.1488  -14.2013   18.7518 O   0  0  0  0  0  0  0  0  0  0  0  0
   10.8824  -15.2935   23.4531 O   0  0  0  0  0  0  0  0  0  0  0  0
  2  1  1  1
  3  2  1  0
  4  5  1  6
  4  2  1  0
  6  4  1  0
  6  7  2  0
  9  8  1  1
  9 10  1  0
  9 11  1  0
 10  6  1  0
 11 12  2  0
 13 11  1  0
 13 14  1  0
 14 15  1  1
 15 16  1  0
 16 20  1  0
 16 17  2  0
 18 21  1  0
 18 14  1  0
 19 18  2  0
M  END
$$$$
