TAD.pdb
     RDKit          3D

 21 20  0  0  1  0  0  0  0  0999 V2000
    7.2872  -16.3622   18.8958 C   0  0  0  0  0  0  0  0  0  0  0  0
    7.9773  -15.1636   18.3120 C   0  0  1  0  0  0  0  0  0  0  0  0
    7.5342  -14.9800   16.9917 O   0  0  0  0  0  0  0  0  0  0  0  0
    7.6836  -13.9278   19.1496 C   0  0  2  0  0  0  0  0  0  0  0  0
    8.1223  -12.7640   18.4075 N   0  0  0  0  0  0  0  0  0  0  0  0
    8.3403  -14.0027   20.4717 C   0  0  0  0  0  0  0  0  0  0  0  0
    9.5949  -13.9838   20.5529 O   0  0  0  0  0  0  0  0  0  0  0  0
    7.2020  -13.9580   24.0777 C   0  0  0  0  0  0  0  0  0  0  0  0
    8.1982  -14.2454   22.9736 C   0  0  2  0  0  0  0  0  0  0  0  0
    7.5947  -14.0972   21.6790 N   0  0  0  0  0  0  0  0  0  0  0  0
    8.8397  -15.5762   23.1452 C   0  0  0  0  0  0  0  0  0  0  0  0
    8.2636  -16.6230   22.7410 O   0  0  0  0  0  0  0  0  0  0  0  0
   10.1070  -15.7486   23.7583 N   0  0  0  0  0  0  0  0  0  0  0  0
   10.6498  -17.0591   24.0752 C   0  0  1  0  0  0  0  0  0  0  0  0
   12.1560  -16.9578   24.0013 C   0  0  0  0  0  0  0  0  0  0  0  0
   12.5859  -16.7688   22.5963 C   0  0  0  0  0  0  0  0  0  0  0  0
   12.1180  -17.5080   21.7010 O   0  0  0  0  0  0  0  0  0  0  0  0
   10.2723  -17.4650   25.4613 C   0  0  0  0  0  0  0  0  0  0  0  0
    9.6504  -16.6503   26.1689 O   0  0  0  0  0  0  0  0  0  0  0  0
   13.5033  -15.7812   22.2521 O   0  0  0  0  0  0  0  0  0  0  0  0
   10.5936  -18.7033   25.9639 O   0  0  0  0  0  0  0  0  0  0  0  0
  2  1  1  1
  3  2  1  0
  4  5  1  6
  4  2  1  0
  6  4  1  0
  6  7  2  0
  9  8  1  1
  9 10  1  0
  9 11  1  0
 10  6  1  0
 11 12  2  0
 13 11  1  0
 13 14  1  0
 14 15  1  1
 15 16  1  0
 16 20  1  0
 16 17  2  0
 18 21  1  0
 18 14  1  0
 19 18  2  0
M  END
$$$$
