TAD.pdb
     RDKit          3D

 21 20  0  0  1  0  0  0  0  0999 V2000
    7.8856  -17.6994   16.5708 C   0  0  0  0  0  0  0  0  0  0  0  0
    8.4345  -17.0918   15.3125 C   0  0  1  0  0  0  0  0  0  0  0  0
    7.8146  -17.6956   14.2061 O   0  0  0  0  0  0  0  0  0  0  0  0
    8.1928  -15.5896   15.3050 C   0  0  2  0  0  0  0  0  0  0  0  0
    8.4973  -15.0894   13.9804 N   0  0  0  0  0  0  0  0  0  0  0  0
    9.0011  -14.9073   16.3374 C   0  0  0  0  0  0  0  0  0  0  0  0
   10.2566  -14.9454   16.2805 O   0  0  0  0  0  0  0  0  0  0  0  0
    8.2438  -12.8791   19.4556 C   0  0  0  0  0  0  0  0  0  0  0  0
    9.1510  -13.6236   18.4982 C   0  0  2  0  0  0  0  0  0  0  0  0
    8.4032  -14.1954   17.4137 N   0  0  0  0  0  0  0  0  0  0  0  0
    9.9813  -14.6363   19.2032 C   0  0  0  0  0  0  0  0  0  0  0  0
    9.6047  -15.8381   19.2741 O   0  0  0  0  0  0  0  0  0  0  0  0
   11.2173  -14.3235   19.8248 N   0  0  0  0  0  0  0  0  0  0  0  0
   12.0474  -15.3308   20.4640 C   0  0  1  0  0  0  0  0  0  0  0  0
   13.4153  -14.7246   20.6775 C   0  0  0  0  0  0  0  0  0  0  0  0
   14.1263  -14.6022   19.3836 C   0  0  0  0  0  0  0  0  0  0  0  0
   14.1097  -15.5578   18.5753 O   0  0  0  0  0  0  0  0  0  0  0  0
   11.4868  -15.7092   21.7948 C   0  0  0  0  0  0  0  0  0  0  0  0
   10.4815  -15.1016   22.2090 O   0  0  0  0  0  0  0  0  0  0  0  0
   14.8145  -13.4403   19.0489 O   0  0  0  0  0  0  0  0  0  0  0  0
   12.0511  -16.7013   22.5604 O   0  0  0  0  0  0  0  0  0  0  0  0
  2  1  1  1
  3  2  1  0
  4  5  1  6
  4  2  1  0
  6  4  1  0
  6  7  2  0
  9  8  1  1
  9 10  1  0
  9 11  1  0
 10  6  1  0
 11 12  2  0
 13 11  1  0
 13 14  1  0
 14 15  1  1
 15 16  1  0
 16 20  1  0
 16 17  2  0
 18 21  1  0
 18 14  1  0
 19 18  2  0
M  END
$$$$
