TAD.pdb
     RDKit          3D

 21 20  0  0  1  0  0  0  0  0999 V2000
    6.7021  -18.9095   19.3570 C   0  0  0  0  0  0  0  0  0  0  0  0
    7.5367  -18.5857   18.1519 C   0  0  1  0  0  0  0  0  0  0  0  0
    7.0095  -19.2589   17.0375 O   0  0  0  0  0  0  0  0  0  0  0  0
    7.5504  -17.0836   17.9099 C   0  0  2  0  0  0  0  0  0  0  0  0
    8.1412  -16.8405   16.6101 N   0  0  0  0  0  0  0  0  0  0  0  0
    8.2845  -16.3713   18.9769 C   0  0  0  0  0  0  0  0  0  0  0  0
    9.5110  -16.5879   19.1494 O   0  0  0  0  0  0  0  0  0  0  0  0
    7.3953  -13.7773   21.6010 C   0  0  0  0  0  0  0  0  0  0  0  0
    8.3026  -14.7932   20.9387 C   0  0  2  0  0  0  0  0  0  0  0  0
    7.6458  -15.4322   19.8329 N   0  0  0  0  0  0  0  0  0  0  0  0
    8.8353  -15.7761   21.9196 C   0  0  0  0  0  0  0  0  0  0  0  0
    8.1494  -16.7783   22.2607 O   0  0  0  0  0  0  0  0  0  0  0  0
   10.1151  -15.6525   22.5185 N   0  0  0  0  0  0  0  0  0  0  0  0
   10.5799  -16.5519   23.5612 C   0  0  1  0  0  0  0  0  0  0  0  0
   12.0900  -16.5757   23.5018 C   0  0  0  0  0  0  0  0  0  0  0  0
   12.5407  -17.2140   22.2432 C   0  0  0  0  0  0  0  0  0  0  0  0
   11.9894  -18.2672   21.8513 O   0  0  0  0  0  0  0  0  0  0  0  0
   10.1691  -16.0555   24.9077 C   0  0  0  0  0  0  0  0  0  0  0  0
    9.6421  -14.9298   24.9890 O   0  0  0  0  0  0  0  0  0  0  0  0
   13.5692  -16.6625   21.4860 O   0  0  0  0  0  0  0  0  0  0  0  0
   10.3587  -16.8065   26.0430 O   0  0  0  0  0  0  0  0  0  0  0  0
  2  1  1  1
  3  2  1  0
  4  5  1  6
  4  2  1  0
  6  4  1  0
  6  7  2  0
  9  8  1  1
  9 10  1  0
  9 11  1  0
 10  6  1  0
 11 12  2  0
 13 11  1  0
 13 14  1  0
 14 15  1  1
 15 16  1  0
 16 20  1  0
 16 17  2  0
 18 21  1  0
 18 14  1  0
 19 18  2  0
M  END
$$$$
