TAD.pdb
     RDKit          3D

 21 20  0  0  1  0  0  0  0  0999 V2000
   11.0571  -15.1237   16.6619 C   0  0  0  0  0  0  0  0  0  0  0  0
   11.9380  -15.6633   17.7512 C   0  0  1  0  0  0  0  0  0  0  0  0
   12.7093  -16.7172   17.2341 O   0  0  0  0  0  0  0  0  0  0  0  0
   12.8362  -14.5623   18.2952 C   0  0  2  0  0  0  0  0  0  0  0  0
   14.1370  -14.6905   17.6713 N   0  0  0  0  0  0  0  0  0  0  0  0
   12.9368  -14.6258   19.7685 C   0  0  0  0  0  0  0  0  0  0  0  0
   14.0184  -14.9676   20.3111 O   0  0  0  0  0  0  0  0  0  0  0  0
   10.2032  -16.1114   20.7166 C   0  0  0  0  0  0  0  0  0  0  0  0
   11.2017  -15.2641   21.4775 C   0  0  2  0  0  0  0  0  0  0  0  0
   11.8372  -14.3095   20.6131 N   0  0  0  0  0  0  0  0  0  0  0  0
   12.1879  -16.1021   22.2101 C   0  0  0  0  0  0  0  0  0  0  0  0
   11.8060  -17.0848   22.9027 O   0  0  0  0  0  0  0  0  0  0  0  0
   13.5845  -15.8564   22.1777 N   0  0  0  0  0  0  0  0  0  0  0  0
   14.5339  -16.6405   22.9498 C   0  0  1  0  0  0  0  0  0  0  0  0
   15.8937  -16.4635   22.3140 C   0  0  0  0  0  0  0  0  0  0  0  0
   16.0413  -17.3826   21.1617 C   0  0  0  0  0  0  0  0  0  0  0  0
   15.1506  -18.2306   20.9281 O   0  0  0  0  0  0  0  0  0  0  0  0
   14.6040  -16.1476   24.3571 C   0  0  0  0  0  0  0  0  0  0  0  0
   15.3444  -16.7475   25.1591 O   0  0  0  0  0  0  0  0  0  0  0  0
   17.1557  -17.3206   20.3312 O   0  0  0  0  0  0  0  0  0  0  0  0
   13.8771  -15.0598   24.7781 O   0  0  0  0  0  0  0  0  0  0  0  0
  2  1  1  6
  3  2  1  0
  4  5  1  6
  4  2  1  0
  6  4  1  0
  6  7  2  0
  9  8  1  6
  9 10  1  0
  9 11  1  0
 10  6  1  0
 11 12  2  0
 13 11  1  0
 13 14  1  0
 14 15  1  6
 15 16  1  0
 16 20  1  0
 16 17  2  0
 18 21  1  0
 18 14  1  0
 19 18  2  0
M  END
$$$$
