TAD.pdb
     RDKit          3D

 21 20  0  0  1  0  0  0  0  0999 V2000
    7.9229  -16.2552   18.3335 C   0  0  0  0  0  0  0  0  0  0  0  0
    8.6037  -14.9912   17.8950 C   0  0  1  0  0  0  0  0  0  0  0  0
    8.3871  -14.8100   16.5190 O   0  0  0  0  0  0  0  0  0  0  0  0
    8.0656  -13.8043   18.6803 C   0  0  2  0  0  0  0  0  0  0  0  0
    8.4319  -12.5928   17.9761 N   0  0  0  0  0  0  0  0  0  0  0  0
    8.5776  -13.7971   20.0669 C   0  0  0  0  0  0  0  0  0  0  0  0
    9.7559  -13.4256   20.3006 O   0  0  0  0  0  0  0  0  0  0  0  0
    7.0680  -14.2646   23.4976 C   0  0  0  0  0  0  0  0  0  0  0  0
    8.2306  -14.1849   22.5302 C   0  0  2  0  0  0  0  0  0  0  0  0
    7.7745  -14.2016   21.1686 N   0  0  0  0  0  0  0  0  0  0  0  0
    9.2409  -15.2432   22.7971 C   0  0  0  0  0  0  0  0  0  0  0  0
    9.7651  -15.3566   23.9388 O   0  0  0  0  0  0  0  0  0  0  0  0
    9.6684  -16.1683   21.8106 N   0  0  0  0  0  0  0  0  0  0  0  0
   10.6406  -17.2125   22.0878 C   0  0  1  0  0  0  0  0  0  0  0  0
   10.8102  -18.0235   20.8237 C   0  0  0  0  0  0  0  0  0  0  0  0
   11.7259  -19.1622   21.0675 C   0  0  0  0  0  0  0  0  0  0  0  0
   12.9410  -18.9457   21.2764 O   0  0  0  0  0  0  0  0  0  0  0  0
   11.9625  -16.6201   22.4484 C   0  0  0  0  0  0  0  0  0  0  0  0
   12.8278  -17.3625   22.9499 O   0  0  0  0  0  0  0  0  0  0  0  0
   11.2587  -20.4726   21.0687 O   0  0  0  0  0  0  0  0  0  0  0  0
   12.2386  -15.2899   22.2403 O   0  0  0  0  0  0  0  0  0  0  0  0
  2  1  1  1
  3  2  1  0
  4  5  1  6
  4  2  1  0
  6  4  1  0
  6  7  2  0
  9  8  1  1
  9 10  1  0
  9 11  1  0
 10  6  1  0
 11 12  2  0
 13 11  1  0
 13 14  1  0
 14 15  1  6
 15 16  1  0
 16 20  1  0
 16 17  2  0
 18 21  1  0
 18 14  1  0
 19 18  2  0
M  END
$$$$
