TAD.pdb
     RDKit          3D

 21 20  0  0  1  0  0  0  0  0999 V2000
    9.3194  -12.3857   20.1918 C   0  0  0  0  0  0  0  0  0  0  0  0
    8.4064  -13.1774   19.3011 C   0  0  1  0  0  0  0  0  0  0  0  0
    7.3513  -12.3514   18.8796 O   0  0  0  0  0  0  0  0  0  0  0  0
    9.1754  -13.7132   18.1025 C   0  0  2  0  0  0  0  0  0  0  0  0
    8.2304  -14.3436   17.2041 N   0  0  0  0  0  0  0  0  0  0  0  0
   10.2349  -14.6564   18.5182 C   0  0  0  0  0  0  0  0  0  0  0  0
    9.9473  -15.8539   18.7716 O   0  0  0  0  0  0  0  0  0  0  0  0
   14.0052  -14.5054   18.8629 C   0  0  0  0  0  0  0  0  0  0  0  0
   12.6443  -15.1379   19.0675 C   0  0  2  0  0  0  0  0  0  0  0  0
   11.5933  -14.2550   18.6455 N   0  0  0  0  0  0  0  0  0  0  0  0
   12.4592  -15.6022   20.4682 C   0  0  0  0  0  0  0  0  0  0  0  0
   12.1621  -14.7843   21.3813 O   0  0  0  0  0  0  0  0  0  0  0  0
   12.6012  -16.9590   20.8566 N   0  0  0  0  0  0  0  0  0  0  0  0
   12.5360  -17.3853   22.2445 C   0  0  1  0  0  0  0  0  0  0  0  0
   11.6588  -18.6148   22.3021 C   0  0  0  0  0  0  0  0  0  0  0  0
   11.5161  -19.0740   23.7033 C   0  0  0  0  0  0  0  0  0  0  0  0
   12.0451  -18.4159   24.6274 O   0  0  0  0  0  0  0  0  0  0  0  0
   13.8929  -17.7506   22.7484 C   0  0  0  0  0  0  0  0  0  0  0  0
   14.4515  -18.7562   22.2709 O   0  0  0  0  0  0  0  0  0  0  0  0
   10.8024  -20.2276   24.0123 O   0  0  0  0  0  0  0  0  0  0  0  0
   14.5280  -17.0086   23.7154 O   0  0  0  0  0  0  0  0  0  0  0  0
  2  1  1  1
  3  2  1  0
  4  5  1  6
  4  2  1  0
  6  4  1  0
  6  7  2  0
  9  8  1  1
  9 10  1  0
  9 11  1  0
 10  6  1  0
 11 12  2  0
 13 11  1  0
 13 14  1  0
 14 15  1  6
 15 16  1  0
 16 20  1  0
 16 17  2  0
 18 21  1  0
 18 14  1  0
 19 18  2  0
M  END
$$$$
