TAD.pdb
     RDKit          3D

 21 20  0  0  1  0  0  0  0  0999 V2000
    8.6103  -16.5627   18.4239 C   0  0  0  0  0  0  0  0  0  0  0  0
    8.9891  -15.2235   17.8612 C   0  0  1  0  0  0  0  0  0  0  0  0
    8.8287  -15.2528   16.4660 O   0  0  0  0  0  0  0  0  0  0  0  0
    8.1249  -14.1317   18.4744 C   0  0  2  0  0  0  0  0  0  0  0  0
    8.2594  -12.9395   17.6631 N   0  0  0  0  0  0  0  0  0  0  0  0
    8.4998  -13.8717   19.8803 C   0  0  0  0  0  0  0  0  0  0  0  0
    9.5602  -13.2496   20.1440 O   0  0  0  0  0  0  0  0  0  0  0  0
    6.8698  -14.3122   23.2592 C   0  0  0  0  0  0  0  0  0  0  0  0
    8.0660  -14.1451   22.3453 C   0  0  2  0  0  0  0  0  0  0  0  0
    7.6929  -14.3060   20.9679 N   0  0  0  0  0  0  0  0  0  0  0  0
    9.1839  -15.0462   22.7332 C   0  0  0  0  0  0  0  0  0  0  0  0
    9.6690  -15.0025   23.8968 O   0  0  0  0  0  0  0  0  0  0  0  0
    9.7608  -15.9876   21.8428 N   0  0  0  0  0  0  0  0  0  0  0  0
   10.8027  -16.9141   22.2529 C   0  0  1  0  0  0  0  0  0  0  0  0
   10.5730  -18.2129   21.5147 C   0  0  0  0  0  0  0  0  0  0  0  0
   11.5974  -19.2093   21.9052 C   0  0  0  0  0  0  0  0  0  0  0  0
   12.4022  -18.9414   22.8257 O   0  0  0  0  0  0  0  0  0  0  0  0
   12.1501  -16.3916   21.8791 C   0  0  0  0  0  0  0  0  0  0  0  0
   13.1530  -17.0608   22.1918 O   0  0  0  0  0  0  0  0  0  0  0  0
   11.6817  -20.4417   21.2654 O   0  0  0  0  0  0  0  0  0  0  0  0
   12.3025  -15.2030   21.2060 O   0  0  0  0  0  0  0  0  0  0  0  0
  2  1  1  1
  3  2  1  0
  4  5  1  6
  4  2  1  0
  6  4  1  0
  6  7  2  0
  9  8  1  1
  9 10  1  0
  9 11  1  0
 10  6  1  0
 11 12  2  0
 13 11  1  0
 13 14  1  0
 14 15  1  6
 15 16  1  0
 16 20  1  0
 16 17  2  0
 18 21  1  0
 18 14  1  0
 19 18  2  0
M  END
$$$$
