KGD.pdb
     RDKit          3D

 22 21  0  0  1  0  0  0  0  0999 V2000
    8.2273  -19.5526   19.4365 N   0  0  0  0  0  0  0  0  0  0  0  0
    8.7552  -18.5314   18.5229 C   0  0  1  0  0  0  0  0  0  0  0  0
    7.9130  -18.5630   17.2945 C   0  0  0  0  0  0  0  0  0  0  0  0
    6.6185  -19.2732   17.5322 C   0  0  0  0  0  0  0  0  0  0  0  0
    5.8358  -19.3357   16.2348 C   0  0  0  0  0  0  0  0  0  0  0  0
    4.5193  -20.0879   16.4496 C   0  0  0  0  0  0  0  0  0  0  0  0
    3.8325  -20.0581   15.1711 N   0  0  0  0  0  0  0  0  0  0  0  0
    8.7062  -17.2099   19.1857 C   0  0  0  0  0  0  0  0  0  0  0  0
    9.1284  -16.1496   18.6579 O   0  0  0  0  0  0  0  0  0  0  0  0
    8.1409  -17.1396   20.5122 N   0  0  0  0  0  0  0  0  0  0  0  0
    8.0936  -15.8531   21.1749 C   0  0  0  0  0  0  0  0  0  0  0  0
    9.1566  -15.7752   22.2010 C   0  0  0  0  0  0  0  0  0  0  0  0
    9.2380  -14.7555   22.9254 O   0  0  0  0  0  0  0  0  0  0  0  0
   10.0548  -16.8556   22.3380 N   0  0  0  0  0  0  0  0  0  0  0  0
   11.1291  -16.7453   23.3336 C   0  0  1  0  0  0  0  0  0  0  0  0
   11.3668  -18.1053   23.9380 C   0  0  0  0  0  0  0  0  0  0  0  0
   11.3035  -18.0246   25.4063 C   0  0  0  0  0  0  0  0  0  0  0  0
   11.0957  -16.9025   25.9777 O   0  0  0  0  0  0  0  0  0  0  0  0
   12.3597  -16.3315   22.5664 C   0  0  0  0  0  0  0  0  0  0  0  0
   13.4068  -15.9281   23.1126 O   0  0  0  0  0  0  0  0  0  0  0  0
   11.4615  -19.1171   26.2360 O   0  0  0  0  0  0  0  0  0  0  0  0
   12.3699  -16.3872   21.1808 O   0  0  0  0  0  0  0  0  0  0  0  0
  2  1  1  1
  2  8  1  0
  3  2  1  0
  4  3  1  0
  5  4  1  0
  6  7  1  0
  6  5  1  0
  8 10  1  0
  9  8  2  0
 10 11  1  0
 12 14  1  0
 12 11  1  0
 13 12  2  0
 15 16  1  6
 15 14  1  0
 16 17  1  0
 17 18  2  0
 17 21  1  0
 19 15  1  0
 19 22  1  0
 20 19  2  0
M  END
$$$$
