KGD.pdb
     RDKit          3D

 22 21  0  0  1  0  0  0  0  0999 V2000
    8.3129  -16.4965   19.8041 N   0  0  0  0  0  0  0  0  0  0  0  0
    9.1050  -15.4029   20.3808 C   0  0  1  0  0  0  0  0  0  0  0  0
    8.3218  -14.1489   20.1974 C   0  0  0  0  0  0  0  0  0  0  0  0
    7.4363  -14.2234   18.9946 C   0  0  0  0  0  0  0  0  0  0  0  0
    7.9876  -13.3185   17.9098 C   0  0  0  0  0  0  0  0  0  0  0  0
    7.1264  -13.4241   16.6479 C   0  0  0  0  0  0  0  0  0  0  0  0
    7.7186  -12.5119   15.6863 N   0  0  0  0  0  0  0  0  0  0  0  0
    9.3597  -15.6844   21.8104 C   0  0  0  0  0  0  0  0  0  0  0  0
   10.0208  -14.9247   22.5633 O   0  0  0  0  0  0  0  0  0  0  0  0
    8.8163  -16.9006   22.3670 N   0  0  0  0  0  0  0  0  0  0  0  0
    9.1973  -17.2741   23.7130 C   0  0  0  0  0  0  0  0  0  0  0  0
   10.2362  -18.3265   23.6691 C   0  0  0  0  0  0  0  0  0  0  0  0
   10.6048  -18.7805   22.5604 O   0  0  0  0  0  0  0  0  0  0  0  0
   10.7875  -18.7938   24.8819 N   0  0  0  0  0  0  0  0  0  0  0  0
   11.7583  -19.8947   24.8263 C   0  0  1  0  0  0  0  0  0  0  0  0
   12.6075  -19.8508   26.0706 C   0  0  0  0  0  0  0  0  0  0  0  0
   13.6164  -18.7851   25.9574 C   0  0  0  0  0  0  0  0  0  0  0  0
   13.6514  -18.0440   24.9189 O   0  0  0  0  0  0  0  0  0  0  0  0
   10.9427  -21.1631   24.8378 C   0  0  0  0  0  0  0  0  0  0  0  0
   11.1823  -22.1409   24.1003 O   0  0  0  0  0  0  0  0  0  0  0  0
   14.5614  -18.5253   26.9302 O   0  0  0  0  0  0  0  0  0  0  0  0
    9.8621  -21.2903   25.6975 O   0  0  0  0  0  0  0  0  0  0  0  0
  2  1  1  1
  2  8  1  0
  3  2  1  0
  4  3  1  0
  5  4  1  0
  6  7  1  0
  6  5  1  0
  8 10  1  0
  9  8  2  0
 10 11  1  0
 12 14  1  0
 12 11  1  0
 13 12  2  0
 15 16  1  1
 15 14  1  0
 16 17  1  0
 17 18  2  0
 17 21  1  0
 19 15  1  0
 19 22  1  0
 20 19  2  0
M  END
$$$$
