KGD.pdb
     RDKit          3D

 22 21  0  0  1  0  0  0  0  0999 V2000
    9.5673  -13.7025   19.0003 N   0  0  0  0  0  0  0  0  0  0  0  0
    9.8923  -14.4134   17.7571 C   0  0  1  0  0  0  0  0  0  0  0  0
    9.4030  -13.5721   16.6292 C   0  0  0  0  0  0  0  0  0  0  0  0
    7.9532  -13.8120   16.3515 C   0  0  0  0  0  0  0  0  0  0  0  0
    7.7380  -13.8994   14.8529 C   0  0  0  0  0  0  0  0  0  0  0  0
    6.2538  -14.1185   14.5459 C   0  0  0  0  0  0  0  0  0  0  0  0
    6.1417  -14.1026   13.0987 N   0  0  0  0  0  0  0  0  0  0  0  0
   11.3538  -14.6289   17.6847 C   0  0  0  0  0  0  0  0  0  0  0  0
   11.9015  -15.4283   16.8834 O   0  0  0  0  0  0  0  0  0  0  0  0
   12.1935  -13.8766   18.5865 N   0  0  0  0  0  0  0  0  0  0  0  0
   13.6276  -14.0616   18.5104 C   0  0  0  0  0  0  0  0  0  0  0  0
   14.1618  -14.4140   19.8443 C   0  0  0  0  0  0  0  0  0  0  0  0
   14.3486  -13.5084   20.6905 O   0  0  0  0  0  0  0  0  0  0  0  0
   14.4484  -15.7664   20.1303 N   0  0  0  0  0  0  0  0  0  0  0  0
   14.5067  -16.1827   21.5377 C   0  0  1  0  0  0  0  0  0  0  0  0
   13.1688  -15.9111   22.1759 C   0  0  0  0  0  0  0  0  0  0  0  0
   13.1817  -16.3447   23.5824 C   0  0  0  0  0  0  0  0  0  0  0  0
   14.2087  -16.9307   24.0627 O   0  0  0  0  0  0  0  0  0  0  0  0
   14.7429  -17.6720   21.5165 C   0  0  0  0  0  0  0  0  0  0  0  0
   15.7108  -18.2224   22.0801 O   0  0  0  0  0  0  0  0  0  0  0  0
   12.1211  -16.1564   24.4465 O   0  0  0  0  0  0  0  0  0  0  0  0
   13.8627  -18.5088   20.8473 O   0  0  0  0  0  0  0  0  0  0  0  0
  2  1  1  1
  2  8  1  0
  3  2  1  0
  4  3  1  0
  5  4  1  0
  6  7  1  0
  6  5  1  0
  8 10  1  0
  9  8  2  0
 10 11  1  0
 12 14  1  0
 12 11  1  0
 13 12  2  0
 15 16  1  6
 15 14  1  0
 16 17  1  0
 17 18  2  0
 17 21  1  0
 19 15  1  0
 19 22  1  0
 20 19  2  0
M  END
$$$$
