KGD.pdb
     RDKit          3D

 22 21  0  0  1  0  0  0  0  0999 V2000
    9.6149  -12.7750   18.9006 N   0  0  0  0  0  0  0  0  0  0  0  0
    8.2822  -13.2473   19.2969 C   0  0  1  0  0  0  0  0  0  0  0  0
    7.8989  -14.3290   18.3468 C   0  0  0  0  0  0  0  0  0  0  0  0
    8.2785  -13.9877   16.9412 C   0  0  0  0  0  0  0  0  0  0  0  0
    7.7891  -15.0806   16.0107 C   0  0  0  0  0  0  0  0  0  0  0  0
    8.3058  -14.8336   14.5905 C   0  0  0  0  0  0  0  0  0  0  0  0
    7.8187  -15.9442   13.7926 N   0  0  0  0  0  0  0  0  0  0  0  0
    8.3315  -13.7367   20.6918 C   0  0  0  0  0  0  0  0  0  0  0  0
    7.3244  -14.1491   21.3217 O   0  0  0  0  0  0  0  0  0  0  0  0
    9.6099  -13.7390   21.3625 N   0  0  0  0  0  0  0  0  0  0  0  0
    9.6757  -14.2356   22.7210 C   0  0  0  0  0  0  0  0  0  0  0  0
   10.2989  -15.5773   22.7376 C   0  0  0  0  0  0  0  0  0  0  0  0
    9.8463  -16.4746   21.9884 O   0  0  0  0  0  0  0  0  0  0  0  0
   11.3913  -15.8129   23.6002 N   0  0  0  0  0  0  0  0  0  0  0  0
   11.9866  -17.1556   23.6182 C   0  0  1  0  0  0  0  0  0  0  0  0
   13.4539  -17.0274   23.9377 C   0  0  0  0  0  0  0  0  0  0  0  0
   14.1422  -16.2882   22.8672 C   0  0  0  0  0  0  0  0  0  0  0  0
   14.3075  -16.8258   21.7215 O   0  0  0  0  0  0  0  0  0  0  0  0
   11.3055  -17.8922   24.7441 C   0  0  0  0  0  0  0  0  0  0  0  0
   10.5171  -17.3478   25.5438 O   0  0  0  0  0  0  0  0  0  0  0  0
   14.6406  -15.0099   23.0240 O   0  0  0  0  0  0  0  0  0  0  0  0
   11.5401  -19.2455   24.9354 O   0  0  0  0  0  0  0  0  0  0  0  0
  2  1  1  6
  2  8  1  0
  3  2  1  0
  4  3  1  0
  5  4  1  0
  6  7  1  0
  6  5  1  0
  8 10  1  0
  9  8  2  0
 10 11  1  0
 12 14  1  0
 12 11  1  0
 13 12  2  0
 15 16  1  1
 15 14  1  0
 16 17  1  0
 17 18  2  0
 17 21  1  0
 19 15  1  0
 19 22  1  0
 20 19  2  0
M  END
$$$$
