KGD.pdb
     RDKit          3D

 22 21  0  0  1  0  0  0  0  0999 V2000
    9.2982  -16.1346   16.7290 N   0  0  0  0  0  0  0  0  0  0  0  0
    9.0116  -14.8756   17.4282 C   0  0  1  0  0  0  0  0  0  0  0  0
    7.9442  -14.1781   16.6576 C   0  0  0  0  0  0  0  0  0  0  0  0
    8.2188  -14.2050   15.1878 C   0  0  0  0  0  0  0  0  0  0  0  0
    7.1610  -13.3931   14.4657 C   0  0  0  0  0  0  0  0  0  0  0  0
    7.4785  -13.3270   12.9690 C   0  0  0  0  0  0  0  0  0  0  0  0
    6.3638  -12.6262   12.3578 N   0  0  0  0  0  0  0  0  0  0  0  0
    8.5823  -15.1715   18.8123 C   0  0  0  0  0  0  0  0  0  0  0  0
    8.0382  -16.2514   19.1574 O   0  0  0  0  0  0  0  0  0  0  0  0
    8.8028  -14.1607   19.8192 N   0  0  0  0  0  0  0  0  0  0  0  0
    8.4572  -14.4666   21.1916 C   0  0  0  0  0  0  0  0  0  0  0  0
    9.5828  -15.1642   21.8514 C   0  0  0  0  0  0  0  0  0  0  0  0
   10.6726  -15.2841   21.2437 O   0  0  0  0  0  0  0  0  0  0  0  0
    9.3994  -15.6785   23.1532 N   0  0  0  0  0  0  0  0  0  0  0  0
   10.5514  -16.2905   23.8283 C   0  0  1  0  0  0  0  0  0  0  0  0
   10.3218  -16.2362   25.3168 C   0  0  0  0  0  0  0  0  0  0  0  0
   11.5166  -16.7148   26.0309 C   0  0  0  0  0  0  0  0  0  0  0  0
   12.5865  -16.9760   25.3860 O   0  0  0  0  0  0  0  0  0  0  0  0
   10.5659  -17.7333   23.3900 C   0  0  0  0  0  0  0  0  0  0  0  0
    9.6169  -18.5201   23.5844 O   0  0  0  0  0  0  0  0  0  0  0  0
   11.5593  -16.9096   27.3973 O   0  0  0  0  0  0  0  0  0  0  0  0
   11.6717  -18.2524   22.7338 O   0  0  0  0  0  0  0  0  0  0  0  0
  2  1  1  6
  2  8  1  0
  3  2  1  0
  4  3  1  0
  5  4  1  0
  6  7  1  0
  6  5  1  0
  8 10  1  0
  9  8  2  0
 10 11  1  0
 12 14  1  0
 12 11  1  0
 13 12  2  0
 15 16  1  1
 15 14  1  0
 16 17  1  0
 17 18  2  0
 17 21  1  0
 19 15  1  0
 19 22  1  0
 20 19  2  0
M  END
$$$$
