KGD.pdb
     RDKit          3D

 22 21  0  0  1  0  0  0  0  0999 V2000
    6.4271  -15.4985   21.1689 N   0  0  0  0  0  0  0  0  0  0  0  0
    7.7846  -15.0159   20.8851 C   0  0  1  0  0  0  0  0  0  0  0  0
    7.6487  -13.7706   20.0787 C   0  0  0  0  0  0  0  0  0  0  0  0
    7.0549  -14.0469   18.7343 C   0  0  0  0  0  0  0  0  0  0  0  0
    7.9722  -13.4973   17.6590 C   0  0  0  0  0  0  0  0  0  0  0  0
    7.4536  -13.8906   16.2728 C   0  0  0  0  0  0  0  0  0  0  0  0
    8.3951  -13.3268   15.3226 N   0  0  0  0  0  0  0  0  0  0  0  0
    8.4918  -14.7673   22.1602 C   0  0  0  0  0  0  0  0  0  0  0  0
    9.6976  -14.4176   22.2317 O   0  0  0  0  0  0  0  0  0  0  0  0
    7.7516  -14.9369   23.3879 N   0  0  0  0  0  0  0  0  0  0  0  0
    8.4620  -14.8193   24.6441 C   0  0  0  0  0  0  0  0  0  0  0  0
    9.0959  -16.1112   24.9877 C   0  0  0  0  0  0  0  0  0  0  0  0
    8.6613  -17.1663   24.4690 O   0  0  0  0  0  0  0  0  0  0  0  0
   10.1781  -16.1219   25.8942 N   0  0  0  0  0  0  0  0  0  0  0  0
   10.8155  -17.4090   26.2017 C   0  0  1  0  0  0  0  0  0  0  0  0
   12.3026  -17.2698   26.0012 C   0  0  0  0  0  0  0  0  0  0  0  0
   12.6424  -17.4646   24.5824 C   0  0  0  0  0  0  0  0  0  0  0  0
   11.7186  -17.6570   23.7231 O   0  0  0  0  0  0  0  0  0  0  0  0
   10.5427  -17.6642   27.6627 C   0  0  0  0  0  0  0  0  0  0  0  0
   10.2440  -16.7638   28.4735 O   0  0  0  0  0  0  0  0  0  0  0  0
   13.9369  -17.4557   24.1017 O   0  0  0  0  0  0  0  0  0  0  0  0
   10.6170  -18.9518   28.1721 O   0  0  0  0  0  0  0  0  0  0  0  0
  2  1  1  1
  2  8  1  0
  3  2  1  0
  4  3  1  0
  5  4  1  0
  6  7  1  0
  6  5  1  0
  8 10  1  0
  9  8  2  0
 10 11  1  0
 12 14  1  0
 12 11  1  0
 13 12  2  0
 15 16  1  1
 15 14  1  0
 16 17  1  0
 17 18  2  0
 17 21  1  0
 19 15  1  0
 19 22  1  0
 20 19  2  0
M  END
$$$$
