KGD.pdb
     RDKit          3D

 22 21  0  0  1  0  0  0  0  0999 V2000
    6.4441  -19.5264   21.2653 N   0  0  0  0  0  0  0  0  0  0  0  0
    6.6179  -19.4725   19.8082 C   0  0  1  0  0  0  0  0  0  0  0  0
    5.2644  -19.2997   19.2102 C   0  0  0  0  0  0  0  0  0  0  0  0
    4.4333  -20.5336   19.3625 C   0  0  0  0  0  0  0  0  0  0  0  0
    3.0691  -20.2982   18.7433 C   0  0  0  0  0  0  0  0  0  0  0  0
    2.2332  -21.5797   18.8082 C   0  0  0  0  0  0  0  0  0  0  0  0
    0.9892  -21.2766   18.1241 N   0  0  0  0  0  0  0  0  0  0  0  0
    7.5154  -18.3483   19.4640 C   0  0  0  0  0  0  0  0  0  0  0  0
    8.2422  -18.3257   18.4381 O   0  0  0  0  0  0  0  0  0  0  0  0
    7.5550  -17.2165   20.3593 N   0  0  0  0  0  0  0  0  0  0  0  0
    8.3790  -16.0812   20.0005 C   0  0  0  0  0  0  0  0  0  0  0  0
    9.7232  -16.2237   20.6018 C   0  0  0  0  0  0  0  0  0  0  0  0
   10.6646  -15.5128   20.1781 O   0  0  0  0  0  0  0  0  0  0  0  0
    9.9112  -17.1604   21.6411 N   0  0  0  0  0  0  0  0  0  0  0  0
   11.2689  -17.3521   22.1678 C   0  0  1  0  0  0  0  0  0  0  0  0
   11.6234  -16.1665   23.0278 C   0  0  0  0  0  0  0  0  0  0  0  0
   12.9502  -16.3603   23.6349 C   0  0  0  0  0  0  0  0  0  0  0  0
   13.0842  -17.1176   24.6534 O   0  0  0  0  0  0  0  0  0  0  0  0
   11.2026  -18.5823   23.0375 C   0  0  0  0  0  0  0  0  0  0  0  0
   10.1505  -18.9923   23.5689 O   0  0  0  0  0  0  0  0  0  0  0  0
   14.0987  -15.7561   23.1628 O   0  0  0  0  0  0  0  0  0  0  0  0
   12.3473  -19.3249   23.2846 O   0  0  0  0  0  0  0  0  0  0  0  0
  2  1  1  1
  2  8  1  0
  3  2  1  0
  4  3  1  0
  5  4  1  0
  6  7  1  0
  6  5  1  0
  8 10  1  0
  9  8  2  0
 10 11  1  0
 12 14  1  0
 12 11  1  0
 13 12  2  0
 15 16  1  1
 15 14  1  0
 16 17  1  0
 17 18  2  0
 17 21  1  0
 19 15  1  0
 19 22  1  0
 20 19  2  0
M  END
$$$$
