KGD.pdb
     RDKit          3D

 22 21  0  0  1  0  0  0  0  0999 V2000
    4.5394  -19.9667   21.0231 N   0  0  0  0  0  0  0  0  0  0  0  0
    4.0009  -18.6588   20.6284 C   0  0  1  0  0  0  0  0  0  0  0  0
    2.5190  -18.7355   20.7612 C   0  0  0  0  0  0  0  0  0  0  0  0
    2.0327  -20.1484   20.6986 C   0  0  0  0  0  0  0  0  0  0  0  0
    0.5265  -20.1679   20.8742 C   0  0  0  0  0  0  0  0  0  0  0  0
   -0.0012  -21.5989   20.7364 C   0  0  0  0  0  0  0  0  0  0  0  0
   -1.4314  -21.5183   20.9716 N   0  0  0  0  0  0  0  0  0  0  0  0
    4.5746  -17.6105   21.5000 C   0  0  0  0  0  0  0  0  0  0  0  0
    4.3074  -16.3870   21.3868 O   0  0  0  0  0  0  0  0  0  0  0  0
    5.4914  -18.0206   22.5369 N   0  0  0  0  0  0  0  0  0  0  0  0
    5.9891  -17.0172   23.4546 C   0  0  0  0  0  0  0  0  0  0  0  0
    6.9352  -17.6334   24.4107 C   0  0  0  0  0  0  0  0  0  0  0  0
    7.3827  -16.9486   25.3604 O   0  0  0  0  0  0  0  0  0  0  0  0
    7.3107  -18.9819   24.2276 N   0  0  0  0  0  0  0  0  0  0  0  0
    8.2894  -19.5637   25.1556 C   0  0  1  0  0  0  0  0  0  0  0  0
    7.9015  -20.9939   25.4300 C   0  0  0  0  0  0  0  0  0  0  0  0
    6.9041  -21.0493   26.5110 C   0  0  0  0  0  0  0  0  0  0  0  0
    6.5932  -19.9895   27.1505 O   0  0  0  0  0  0  0  0  0  0  0  0
    9.6085  -19.5485   24.4248 C   0  0  0  0  0  0  0  0  0  0  0  0
   10.6931  -19.2601   24.9704 O   0  0  0  0  0  0  0  0  0  0  0  0
    6.2618  -22.2098   26.8951 O   0  0  0  0  0  0  0  0  0  0  0  0
    9.6627  -19.8652   23.0758 O   0  0  0  0  0  0  0  0  0  0  0  0
  2  1  1  1
  2  8  1  0
  3  2  1  0
  4  3  1  0
  5  4  1  0
  6  7  1  0
  6  5  1  0
  8 10  1  0
  9  8  2  0
 10 11  1  0
 12 14  1  0
 12 11  1  0
 13 12  2  0
 15 16  1  6
 15 14  1  0
 16 17  1  0
 17 18  2  0
 17 21  1  0
 19 15  1  0
 19 22  1  0
 20 19  2  0
M  END
$$$$
