KGD.pdb
     RDKit          3D

 22 21  0  0  1  0  0  0  0  0999 V2000
    7.4978  -17.0572   20.4543 N   0  0  0  0  0  0  0  0  0  0  0  0
    7.8539  -17.3001   19.0505 C   0  0  1  0  0  0  0  0  0  0  0  0
    8.1104  -15.9719   18.4262 C   0  0  0  0  0  0  0  0  0  0  0  0
    8.0139  -14.8649   19.4270 C   0  0  0  0  0  0  0  0  0  0  0  0
    8.2158  -13.5359   18.7249 C   0  0  0  0  0  0  0  0  0  0  0  0
    7.9943  -12.3823   19.7074 C   0  0  0  0  0  0  0  0  0  0  0  0
    8.1128  -11.1661   18.9238 N   0  0  0  0  0  0  0  0  0  0  0  0
    9.0477  -18.1713   18.9925 C   0  0  0  0  0  0  0  0  0  0  0  0
    9.4938  -18.6723   17.9289 O   0  0  0  0  0  0  0  0  0  0  0  0
    9.7353  -18.4591   20.2288 N   0  0  0  0  0  0  0  0  0  0  0  0
   10.9607  -19.2284   20.1742 C   0  0  0  0  0  0  0  0  0  0  0  0
   12.0257  -18.5347   20.9314 C   0  0  0  0  0  0  0  0  0  0  0  0
   13.1742  -19.0348   20.9752 O   0  0  0  0  0  0  0  0  0  0  0  0
   11.7193  -17.3227   21.5873 N   0  0  0  0  0  0  0  0  0  0  0  0
   12.7891  -16.6441   22.3307 C   0  0  1  0  0  0  0  0  0  0  0  0
   13.0312  -15.2957   21.7027 C   0  0  0  0  0  0  0  0  0  0  0  0
   13.8384  -15.4440   20.4809 C   0  0  0  0  0  0  0  0  0  0  0  0
   14.9942  -15.9822   20.5382 O   0  0  0  0  0  0  0  0  0  0  0  0
   12.2557  -16.4426   23.7267 C   0  0  0  0  0  0  0  0  0  0  0  0
   12.8966  -15.8693   24.6311 O   0  0  0  0  0  0  0  0  0  0  0  0
   13.4170  -15.0238   19.2347 O   0  0  0  0  0  0  0  0  0  0  0  0
   10.9919  -16.9029   24.0642 O   0  0  0  0  0  0  0  0  0  0  0  0
  2  1  1  1
  2  8  1  0
  3  2  1  0
  4  3  1  0
  5  4  1  0
  6  7  1  0
  6  5  1  0
  8 10  1  0
  9  8  2  0
 10 11  1  0
 12 14  1  0
 12 11  1  0
 13 12  2  0
 15 16  1  6
 15 14  1  0
 16 17  1  0
 17 18  2  0
 17 21  1  0
 19 15  1  0
 19 22  1  0
 20 19  2  0
M  END
$$$$
