AHQ.pdb
     RDKit          3D

 25 25  0  0  1  0  0  0  0  0999 V2000
   10.9710  -14.1277   19.1670 C   0  0  0  0  0  0  0  0  0  0  0  0
   11.7178  -14.5899   17.9212 C   0  0  2  0  0  0  0  0  0  0  0  0
   11.0504  -15.6770   17.2678 N   0  0  0  0  0  0  0  0  0  0  0  0
   13.1174  -14.9511   18.3161 C   0  0  0  0  0  0  0  0  0  0  0  0
   13.3227  -16.1356   18.6878 O   0  0  0  0  0  0  0  0  0  0  0  0
   14.1600  -13.9949   18.2704 N   0  0  0  0  0  0  0  0  0  0  0  0
   15.4995  -14.3730   18.6645 C   0  0  1  0  0  0  0  0  0  0  0  0
   16.4587  -13.5850   17.8236 C   0  0  0  0  0  0  0  0  0  0  0  0
   16.6329  -14.1158   16.4490 C   0  0  0  0  0  0  0  0  0  0  0  0
   16.2149  -13.6060   15.2394 C   0  0  0  0  0  0  0  0  0  0  0  0
   16.5948  -14.4329   14.2291 N   0  0  0  0  0  0  0  0  0  0  0  0
   17.2437  -15.4490   14.8034 C   0  0  0  0  0  0  0  0  0  0  0  0
   17.2782  -15.2777   16.1410 N   0  0  0  0  0  0  0  0  0  0  0  0
   15.7187  -14.1612   20.1223 C   0  0  0  0  0  0  0  0  0  0  0  0
   14.8262  -13.5735   20.7649 O   0  0  0  0  0  0  0  0  0  0  0  0
   14.0685  -18.8259   22.6731 N   0  0  0  0  0  0  0  0  0  0  0  0
   14.8326  -17.9680   23.4814 C   0  0  0  0  0  0  0  0  0  0  0  0
   14.4299  -17.5218   24.5730 O   0  0  0  0  0  0  0  0  0  0  0  0
   16.2044  -17.5543   23.0300 C   0  0  0  0  0  0  0  0  0  0  0  0
   16.1293  -16.6708   21.8203 C   0  0  0  0  0  0  0  0  0  0  0  0
   16.8610  -15.3711   22.0421 C   0  0  2  0  0  0  0  0  0  0  0  0
   16.8678  -14.5848   20.8065 N   0  0  0  0  0  0  0  0  0  0  0  0
   18.2565  -15.5993   22.4484 C   0  0  0  0  0  0  0  0  0  0  0  0
   18.5734  -15.4603   23.8121 O   0  0  0  0  0  0  0  0  0  0  0  0
   19.2118  -15.9073   21.7147 O   0  0  0  0  0  0  0  0  0  0  0  0
  2  3  1  0
  2  1  1  1
  4  2  1  0
  5  4  2  0
  6  4  1  0
  7  6  1  0
  8  9  1  0
  7  8  1  6
  9 10  2  0
 11 10  1  0
 12 11  1  0
 13 12  2  0
 13  9  1  0
 14  7  1  0
 14 15  2  0
 16 17  1  0
 17 18  2  0
 17 19  1  0
 19 20  1  0
 21 20  1  6
 21 22  1  0
 22 14  1  0
 23 21  1  0
 24 23  1  0
 25 23  2  0
M  END
$$$$
