AHQ.pdb
     RDKit          3D

 25 25  0  0  1  0  0  0  0  0999 V2000
    7.4022  -13.9821   19.3493 C   0  0  0  0  0  0  0  0  0  0  0  0
    8.6820  -13.2731   18.9217 C   0  0  2  0  0  0  0  0  0  0  0  0
    8.6033  -12.7893   17.5749 N   0  0  0  0  0  0  0  0  0  0  0  0
    9.8303  -14.2173   19.1090 C   0  0  0  0  0  0  0  0  0  0  0  0
    9.5949  -15.2972   19.7104 O   0  0  0  0  0  0  0  0  0  0  0  0
   11.1231  -13.9012   18.6270 N   0  0  0  0  0  0  0  0  0  0  0  0
   12.2057  -14.8446   18.8020 C   0  0  1  0  0  0  0  0  0  0  0  0
   13.2297  -14.5604   17.7444 C   0  0  0  0  0  0  0  0  0  0  0  0
   13.0240  -15.3192   16.4859 C   0  0  0  0  0  0  0  0  0  0  0  0
   12.1558  -16.3501   16.2010 C   0  0  0  0  0  0  0  0  0  0  0  0
   12.3128  -16.7481   14.9104 N   0  0  0  0  0  0  0  0  0  0  0  0
   13.2702  -15.9725   14.3952 C   0  0  0  0  0  0  0  0  0  0  0  0
   13.7127  -15.1042   15.3279 N   0  0  0  0  0  0  0  0  0  0  0  0
   12.7756  -14.7710   20.1761 C   0  0  0  0  0  0  0  0  0  0  0  0
   13.0616  -13.6443   20.6271 O   0  0  0  0  0  0  0  0  0  0  0  0
   11.1123  -18.1643   24.9976 N   0  0  0  0  0  0  0  0  0  0  0  0
   12.2741  -17.5847   25.5337 C   0  0  0  0  0  0  0  0  0  0  0  0
   12.6303  -17.7413   26.7174 O   0  0  0  0  0  0  0  0  0  0  0  0
   13.1457  -16.7305   24.6575 C   0  0  0  0  0  0  0  0  0  0  0  0
   12.6291  -16.7007   23.2498 C   0  0  0  0  0  0  0  0  0  0  0  0
   13.4967  -15.8430   22.3635 C   0  0  2  0  0  0  0  0  0  0  0  0
   13.0062  -15.8940   20.9845 N   0  0  0  0  0  0  0  0  0  0  0  0
   14.8950  -16.3006   22.3704 C   0  0  0  0  0  0  0  0  0  0  0  0
   15.7312  -15.8378   23.4028 O   0  0  0  0  0  0  0  0  0  0  0  0
   15.4394  -17.0648   21.5546 O   0  0  0  0  0  0  0  0  0  0  0  0
  2  3  1  0
  2  1  1  6
  4  2  1  0
  5  4  2  0
  6  4  1  0
  7  6  1  0
  8  9  1  0
  7  8  1  6
  9 10  2  0
 11 10  1  0
 12 11  1  0
 13 12  2  0
 13  9  1  0
 14  7  1  0
 14 15  2  0
 16 17  1  0
 17 18  2  0
 17 19  1  0
 19 20  1  0
 21 20  1  1
 21 22  1  0
 22 14  1  0
 23 21  1  0
 24 23  1  0
 25 23  2  0
M  END
$$$$
