AHQ.pdb
     RDKit          3D

 25 25  0  0  1  0  0  0  0  0999 V2000
   13.3834  -13.6181   17.1241 C   0  0  0  0  0  0  0  0  0  0  0  0
   13.1970  -14.9551   17.8320 C   0  0  2  0  0  0  0  0  0  0  0  0
   12.6646  -15.9567   16.9560 N   0  0  0  0  0  0  0  0  0  0  0  0
   12.3213  -14.7380   19.0285 C   0  0  0  0  0  0  0  0  0  0  0  0
   12.6828  -13.8600   19.8542 O   0  0  0  0  0  0  0  0  0  0  0  0
   11.1385  -15.4926   19.2156 N   0  0  0  0  0  0  0  0  0  0  0  0
   10.3426  -15.2971   20.4076 C   0  0  1  0  0  0  0  0  0  0  0  0
    8.9117  -15.5601   20.0452 C   0  0  0  0  0  0  0  0  0  0  0  0
    8.3725  -14.6422   19.0116 C   0  0  0  0  0  0  0  0  0  0  0  0
    7.9036  -13.3518   19.1257 C   0  0  0  0  0  0  0  0  0  0  0  0
    7.5018  -12.8931   17.9103 N   0  0  0  0  0  0  0  0  0  0  0  0
    7.7182  -13.8882   17.0463 C   0  0  0  0  0  0  0  0  0  0  0  0
    8.2427  -14.9519   17.6892 N   0  0  0  0  0  0  0  0  0  0  0  0
   10.8122  -16.1637   21.5242 C   0  0  0  0  0  0  0  0  0  0  0  0
   10.7990  -17.3979   21.3473 O   0  0  0  0  0  0  0  0  0  0  0  0
   15.8737  -15.7120   24.3957 N   0  0  0  0  0  0  0  0  0  0  0  0
   15.4650  -16.1411   23.1221 C   0  0  0  0  0  0  0  0  0  0  0  0
   16.2482  -16.2657   22.1609 O   0  0  0  0  0  0  0  0  0  0  0  0
   14.0193  -16.4716   22.8823 C   0  0  0  0  0  0  0  0  0  0  0  0
   13.2015  -16.2371   24.1174 C   0  0  0  0  0  0  0  0  0  0  0  0
   11.7379  -16.4992   23.8662 C   0  0  2  0  0  0  0  0  0  0  0  0
   11.2654  -15.6687   22.7562 N   0  0  0  0  0  0  0  0  0  0  0  0
   10.9225  -16.1889   25.0508 C   0  0  0  0  0  0  0  0  0  0  0  0
   11.1452  -16.9449   26.2163 O   0  0  0  0  0  0  0  0  0  0  0  0
   10.0396  -15.3190   25.1484 O   0  0  0  0  0  0  0  0  0  0  0  0
  2  3  1  0
  2  1  1  6
  4  2  1  0
  5  4  2  0
  6  4  1  0
  7  6  1  0
  8  9  1  0
  7  8  1  6
  9 10  2  0
 11 10  1  0
 12 11  1  0
 13 12  2  0
 13  9  1  0
 14  7  1  0
 14 15  2  0
 16 17  1  0
 17 18  2  0
 17 19  1  0
 19 20  1  0
 21 20  1  1
 21 22  1  0
 22 14  1  0
 23 21  1  0
 24 23  1  0
 25 23  2  0
M  END
$$$$
