AHQ.pdb
     RDKit          3D

 25 25  0  0  1  0  0  0  0  0999 V2000
   12.1810  -18.5582   14.2378 C   0  0  0  0  0  0  0  0  0  0  0  0
   11.6691  -17.1731   13.8597 C   0  0  2  0  0  0  0  0  0  0  0  0
   12.5204  -16.5289   12.9035 N   0  0  0  0  0  0  0  0  0  0  0  0
   11.5256  -16.3642   15.1129 C   0  0  0  0  0  0  0  0  0  0  0  0
   12.5702  -15.8464   15.5861 O   0  0  0  0  0  0  0  0  0  0  0  0
   10.2646  -16.1939   15.7329 N   0  0  0  0  0  0  0  0  0  0  0  0
   10.1440  -15.3381   16.8929 C   0  0  1  0  0  0  0  0  0  0  0  0
    8.6821  -15.1479   17.1657 C   0  0  0  0  0  0  0  0  0  0  0  0
    8.3926  -14.1974   18.2678 C   0  0  0  0  0  0  0  0  0  0  0  0
    9.2486  -13.4385   19.0353 C   0  0  0  0  0  0  0  0  0  0  0  0
    8.5412  -12.7075   19.9376 N   0  0  0  0  0  0  0  0  0  0  0  0
    7.2558  -13.0078   19.7346 C   0  0  0  0  0  0  0  0  0  0  0  0
    7.1438  -13.9040   18.7326 N   0  0  0  0  0  0  0  0  0  0  0  0
   10.8697  -15.9031   18.0644 C   0  0  0  0  0  0  0  0  0  0  0  0
   10.9922  -17.1422   18.1299 O   0  0  0  0  0  0  0  0  0  0  0  0
   15.8269  -12.8160   18.8063 N   0  0  0  0  0  0  0  0  0  0  0  0
   16.1185  -13.8491   19.7123 C   0  0  0  0  0  0  0  0  0  0  0  0
   17.2443  -14.0121   20.2210 O   0  0  0  0  0  0  0  0  0  0  0  0
   15.0378  -14.8170   20.1023 C   0  0  0  0  0  0  0  0  0  0  0  0
   13.7411  -14.4752   19.4307 C   0  0  0  0  0  0  0  0  0  0  0  0
   12.6499  -15.4415   19.8171 C   0  0  2  0  0  0  0  0  0  0  0  0
   11.4189  -15.1209   19.0913 N   0  0  0  0  0  0  0  0  0  0  0  0
   12.3613  -15.3820   21.2586 C   0  0  0  0  0  0  0  0  0  0  0  0
   11.0922  -14.9215   21.6545 O   0  0  0  0  0  0  0  0  0  0  0  0
   13.1214  -15.6968   22.1907 O   0  0  0  0  0  0  0  0  0  0  0  0
  2  3  1  0
  2  1  1  1
  4  2  1  0
  5  4  2  0
  6  4  1  0
  7  6  1  0
  8  9  1  0
  7  8  1  1
  9 10  2  0
 11 10  1  0
 12 11  1  0
 13 12  2  0
 13  9  1  0
 14  7  1  0
 14 15  2  0
 16 17  1  0
 17 18  2  0
 17 19  1  0
 19 20  1  0
 21 20  1  1
 21 22  1  0
 22 14  1  0
 23 21  1  0
 24 23  1  0
 25 23  2  0
M  END
$$$$
