AHQ.pdb
     RDKit          3D

 25 25  0  0  1  0  0  0  0  0999 V2000
   14.3490  -16.7613   17.5228 C   0  0  0  0  0  0  0  0  0  0  0  0
   13.3849  -15.5876   17.3961 C   0  0  2  0  0  0  0  0  0  0  0  0
   14.0267  -14.4204   16.8671 N   0  0  0  0  0  0  0  0  0  0  0  0
   12.7765  -15.3285   18.7408 C   0  0  0  0  0  0  0  0  0  0  0  0
   13.4381  -14.6223   19.5450 O   0  0  0  0  0  0  0  0  0  0  0  0
   11.5103  -15.8591   19.0851 N   0  0  0  0  0  0  0  0  0  0  0  0
   10.9408  -15.5740   20.3839 C   0  0  1  0  0  0  0  0  0  0  0  0
    9.4518  -15.7017   20.2637 C   0  0  0  0  0  0  0  0  0  0  0  0
    8.8279  -14.6830   19.3835 C   0  0  0  0  0  0  0  0  0  0  0  0
    8.3982  -14.7789   18.0781 C   0  0  0  0  0  0  0  0  0  0  0  0
    7.8893  -13.5871   17.6665 N   0  0  0  0  0  0  0  0  0  0  0  0
    8.0005  -12.7557   18.7056 C   0  0  0  0  0  0  0  0  0  0  0  0
    8.5637  -13.3959   19.7509 N   0  0  0  0  0  0  0  0  0  0  0  0
   11.5028  -16.4690   21.4334 C   0  0  0  0  0  0  0  0  0  0  0  0
   11.6389  -17.6768   21.1554 O   0  0  0  0  0  0  0  0  0  0  0  0
   16.4929  -17.1865   21.7936 N   0  0  0  0  0  0  0  0  0  0  0  0
   16.1461  -16.0118   22.4813 C   0  0  0  0  0  0  0  0  0  0  0  0
   16.9747  -15.1355   22.7945 O   0  0  0  0  0  0  0  0  0  0  0  0
   14.7136  -15.7779   22.8689 C   0  0  0  0  0  0  0  0  0  0  0  0
   14.0287  -17.0696   23.2032 C   0  0  0  0  0  0  0  0  0  0  0  0
   12.6193  -16.8360   23.6858 C   0  0  2  0  0  0  0  0  0  0  0  0
   11.8847  -16.0285   22.7094 N   0  0  0  0  0  0  0  0  0  0  0  0
   12.6002  -16.1269   24.9748 C   0  0  0  0  0  0  0  0  0  0  0  0
   11.9640  -14.8730   25.0238 O   0  0  0  0  0  0  0  0  0  0  0  0
   13.0899  -16.5111   26.0510 O   0  0  0  0  0  0  0  0  0  0  0  0
  2  3  1  0
  2  1  1  1
  4  2  1  0
  5  4  2  0
  6  4  1  0
  7  6  1  0
  8  9  1  0
  7  8  1  6
  9 10  2  0
 11 10  1  0
 12 11  1  0
 13 12  2  0
 13  9  1  0
 14  7  1  0
 14 15  2  0
 16 17  1  0
 17 18  2  0
 17 19  1  0
 19 20  1  0
 21 20  1  6
 21 22  1  0
 22 14  1  0
 23 21  1  0
 24 23  1  0
 25 23  2  0
M  END
$$$$
