AHQ.pdb
     RDKit          3D

 25 25  0  0  1  0  0  0  0  0999 V2000
   10.4219  -18.8845   21.1952 C   0  0  0  0  0  0  0  0  0  0  0  0
   10.0097  -17.4199   21.2872 C   0  0  2  0  0  0  0  0  0  0  0  0
   10.5360  -16.6450   20.2025 N   0  0  0  0  0  0  0  0  0  0  0  0
   10.4492  -16.8880   22.6173 C   0  0  0  0  0  0  0  0  0  0  0  0
   11.3447  -16.0040   22.6160 O   0  0  0  0  0  0  0  0  0  0  0  0
    9.8767  -17.3646   23.8209 N   0  0  0  0  0  0  0  0  0  0  0  0
   10.2887  -16.7978   25.0864 C   0  0  1  0  0  0  0  0  0  0  0  0
    9.3323  -15.6926   25.4207 C   0  0  0  0  0  0  0  0  0  0  0  0
    9.5447  -15.0962   26.7627 C   0  0  0  0  0  0  0  0  0  0  0  0
    8.9128  -15.3525   27.9598 C   0  0  0  0  0  0  0  0  0  0  0  0
    9.4316  -14.5639   28.9385 N   0  0  0  0  0  0  0  0  0  0  0  0
   10.3782  -13.8227   28.3571 C   0  0  0  0  0  0  0  0  0  0  0  0
   10.4629  -14.1276   27.0458 N   0  0  0  0  0  0  0  0  0  0  0  0
   10.3506  -17.8350   26.1535 C   0  0  0  0  0  0  0  0  0  0  0  0
    9.3124  -18.4812   26.3968 O   0  0  0  0  0  0  0  0  0  0  0  0
   15.6436  -20.3299   28.0892 N   0  0  0  0  0  0  0  0  0  0  0  0
   14.9331  -20.6039   26.9088 C   0  0  0  0  0  0  0  0  0  0  0  0
   15.4549  -21.1257   25.9047 O   0  0  0  0  0  0  0  0  0  0  0  0
   13.4729  -20.2603   26.8285 C   0  0  0  0  0  0  0  0  0  0  0  0
   13.0001  -19.6194   28.0993 C   0  0  0  0  0  0  0  0  0  0  0  0
   11.5850  -19.1151   27.9678 C   0  0  2  0  0  0  0  0  0  0  0  0
   11.5068  -18.1218   26.8944 N   0  0  0  0  0  0  0  0  0  0  0  0
   11.1188  -18.4836   29.2122 C   0  0  0  0  0  0  0  0  0  0  0  0
   10.8905  -19.3153   30.3237 O   0  0  0  0  0  0  0  0  0  0  0  0
   10.8970  -17.2754   29.4043 O   0  0  0  0  0  0  0  0  0  0  0  0
  2  3  1  0
  2  1  1  6
  4  2  1  0
  5  4  2  0
  6  4  1  0
  7  6  1  0
  8  9  1  0
  7  8  1  1
  9 10  2  0
 11 10  1  0
 12 11  1  0
 13 12  2  0
 13  9  1  0
 14  7  1  0
 14 15  2  0
 16 17  1  0
 17 18  2  0
 17 19  1  0
 19 20  1  0
 21 20  1  1
 21 22  1  0
 22 14  1  0
 23 21  1  0
 24 23  1  0
 25 23  2  0
M  END
$$$$
