DMM.pdb
     RDKit          3D

 25 24  0  0  1  0  0  0  0  0999 V2000
    8.4035  -17.1888   19.7395 N   0  0  0  0  0  0  0  0  0  0  0  0
    9.7378  -17.0164   20.2231 C   0  0  1  0  0  0  0  0  0  0  0  0
   10.5994  -16.3367   19.1974 C   0  0  0  0  0  0  0  0  0  0  0  0
   10.7904  -17.1721   17.9850 C   0  0  0  0  0  0  0  0  0  0  0  0
    9.8881  -17.2293   17.1204 O   0  0  0  0  0  0  0  0  0  0  0  0
    9.7982  -16.2555   21.4968 C   0  0  0  0  0  0  0  0  0  0  0  0
   10.9104  -15.8430   21.9242 O   0  0  0  0  0  0  0  0  0  0  0  0
   11.9598  -17.8796   17.8186 O   0  0  0  0  0  0  0  0  0  0  0  0
    6.4534  -11.4473   25.4481 C   0  0  0  0  0  0  0  0  0  0  0  0
    6.1627  -13.1677   25.8825 S   0  0  0  0  0  0  0  0  0  0  0  0
    7.5843  -14.2264   25.4475 C   0  0  0  0  0  0  0  0  0  0  0  0
    7.5012  -14.6822   24.0183 C   0  0  0  0  0  0  0  0  0  0  0  0
    8.7822  -15.3727   23.6347 C   0  0  2  0  0  0  0  0  0  0  0  0
    8.6600  -15.9505   22.2908 N   0  0  0  0  0  0  0  0  0  0  0  0
    9.2030  -16.4432   24.5930 C   0  0  0  0  0  0  0  0  0  0  0  0
    8.3771  -17.2156   25.1434 O   0  0  0  0  0  0  0  0  0  0  0  0
   10.9700  -13.5337   30.8759 C   0  0  0  0  0  0  0  0  0  0  0  0
   10.7035  -13.5418   29.0708 S   0  0  0  0  0  0  0  0  0  0  0  0
   10.9259  -15.2056   28.4383 C   0  0  0  0  0  0  0  0  0  0  0  0
   10.7736  -15.3731   26.9723 C   0  0  0  0  0  0  0  0  0  0  0  0
   10.9567  -16.7219   26.3718 C   0  0  2  0  0  0  0  0  0  0  0  0
   10.5566  -16.6454   24.9330 N   0  0  0  0  0  0  0  0  0  0  0  0
   10.2175  -17.7892   27.0195 C   0  0  0  0  0  0  0  0  0  0  0  0
    8.9870  -17.9319   26.9876 O   0  0  0  0  0  0  0  0  0  0  0  0
   10.8958  -18.7922   27.7721 O   0  0  0  0  0  0  0  0  0  0  0  0
  2  1  1  6
  3  2  1  0
  3  4  1  0
  4  8  1  0
  5  4  2  0
  6  7  2  0
  6  2  1  0
  9 10  1  0
 10 11  1  0
 11 12  1  0
 13 12  1  1
 13 14  1  0
 14  6  1  0
 15 13  1  0
 16 15  2  0
 18 17  1  0
 19 18  1  0
 21 20  1  1
 20 19  1  0
 21 22  1  0
 22 15  1  0
 23 25  1  0
 23 21  1  0
 24 23  2  0
M  END
$$$$
