DMM.pdb
     RDKit          3D

 25 24  0  0  1  0  0  0  0  0999 V2000
    7.5288  -18.5646   20.8144 N   0  0  0  0  0  0  0  0  0  0  0  0
    8.7774  -17.9436   20.4990 C   0  0  1  0  0  0  0  0  0  0  0  0
    8.8319  -17.5474   19.0511 C   0  0  0  0  0  0  0  0  0  0  0  0
    8.6678  -18.7127   18.1457 C   0  0  0  0  0  0  0  0  0  0  0  0
    8.4343  -19.8445   18.6244 O   0  0  0  0  0  0  0  0  0  0  0  0
    9.0632  -16.7564   21.3438 C   0  0  0  0  0  0  0  0  0  0  0  0
   10.1475  -16.1307   21.1930 O   0  0  0  0  0  0  0  0  0  0  0  0
    8.7737  -18.5414   16.7836 O   0  0  0  0  0  0  0  0  0  0  0  0
    6.5513  -11.3804   26.6549 C   0  0  0  0  0  0  0  0  0  0  0  0
    6.2191  -12.9178   25.7837 S   0  0  0  0  0  0  0  0  0  0  0  0
    7.6127  -13.4034   24.7098 C   0  0  0  0  0  0  0  0  0  0  0  0
    7.2966  -14.6602   23.9497 C   0  0  0  0  0  0  0  0  0  0  0  0
    8.4979  -15.0774   23.1447 C   0  0  2  0  0  0  0  0  0  0  0  0
    8.1771  -16.2611   22.3380 N   0  0  0  0  0  0  0  0  0  0  0  0
    9.7121  -15.3619   23.9730 C   0  0  0  0  0  0  0  0  0  0  0  0
   10.6473  -14.5311   24.1029 O   0  0  0  0  0  0  0  0  0  0  0  0
   10.3140  -12.7778   28.4709 C   0  0  0  0  0  0  0  0  0  0  0  0
   10.3859  -14.3915   29.3194 S   0  0  0  0  0  0  0  0  0  0  0  0
   10.9819  -15.6429   28.1808 C   0  0  0  0  0  0  0  0  0  0  0  0
   10.2883  -15.7186   26.8717 C   0  0  0  0  0  0  0  0  0  0  0  0
   10.7930  -16.6587   25.8350 C   0  0  2  0  0  0  0  0  0  0  0  0
    9.8747  -16.5842   24.6572 N   0  0  0  0  0  0  0  0  0  0  0  0
   10.9137  -18.0397   26.2631 C   0  0  0  0  0  0  0  0  0  0  0  0
   11.7420  -18.4684   27.0790 O   0  0  0  0  0  0  0  0  0  0  0  0
   10.0417  -19.0415   25.7450 O   0  0  0  0  0  0  0  0  0  0  0  0
  2  1  1  1
  3  2  1  0
  3  4  1  0
  4  8  1  0
  5  4  2  0
  6  7  2  0
  6  2  1  0
  9 10  1  0
 10 11  1  0
 11 12  1  0
 13 12  1  1
 13 14  1  0
 14  6  1  0
 15 13  1  0
 16 15  2  0
 18 17  1  0
 19 18  1  0
 21 20  1  1
 20 19  1  0
 21 22  1  0
 22 15  1  0
 23 25  1  0
 23 21  1  0
 24 23  2  0
M  END
$$$$
