DMM.pdb
     RDKit          3D

 25 24  0  0  1  0  0  0  0  0999 V2000
    7.8398  -19.1902   21.9816 N   0  0  0  0  0  0  0  0  0  0  0  0
    8.7946  -18.4011   21.2678 C   0  0  1  0  0  0  0  0  0  0  0  0
    8.4453  -18.3213   19.8090 C   0  0  0  0  0  0  0  0  0  0  0  0
    9.6166  -17.9571   18.9724 C   0  0  0  0  0  0  0  0  0  0  0  0
   10.7704  -18.2513   19.3556 O   0  0  0  0  0  0  0  0  0  0  0  0
    8.9352  -17.0277   21.8145 C   0  0  0  0  0  0  0  0  0  0  0  0
    9.8247  -16.2618   21.3542 O   0  0  0  0  0  0  0  0  0  0  0  0
    9.4266  -17.2973   17.7790 O   0  0  0  0  0  0  0  0  0  0  0  0
    6.0677  -11.0565   26.2006 C   0  0  0  0  0  0  0  0  0  0  0  0
    5.7958  -12.6681   25.4511 S   0  0  0  0  0  0  0  0  0  0  0  0
    7.2927  -13.2855   24.6090 C   0  0  0  0  0  0  0  0  0  0  0  0
    7.0453  -14.6286   23.9829 C   0  0  0  0  0  0  0  0  0  0  0  0
    8.3282  -15.1560   23.3988 C   0  0  2  0  0  0  0  0  0  0  0  0
    8.1159  -16.5003   22.8487 N   0  0  0  0  0  0  0  0  0  0  0  0
    9.4643  -15.1978   24.3731 C   0  0  0  0  0  0  0  0  0  0  0  0
    9.9321  -14.1589   24.9055 O   0  0  0  0  0  0  0  0  0  0  0  0
   10.0977  -14.8539   30.4068 C   0  0  0  0  0  0  0  0  0  0  0  0
    9.2002  -14.2119   28.9537 S   0  0  0  0  0  0  0  0  0  0  0  0
   10.1172  -14.5999   27.4616 C   0  0  0  0  0  0  0  0  0  0  0  0
   10.2433  -16.0398   27.1282 C   0  0  0  0  0  0  0  0  0  0  0  0
   11.0089  -16.4412   25.9174 C   0  0  2  0  0  0  0  0  0  0  0  0
   10.0754  -16.4116   24.7495 N   0  0  0  0  0  0  0  0  0  0  0  0
   11.6413  -17.7448   25.9935 C   0  0  0  0  0  0  0  0  0  0  0  0
   12.6913  -17.9987   26.6008 O   0  0  0  0  0  0  0  0  0  0  0  0
   11.0646  -18.8732   25.3405 O   0  0  0  0  0  0  0  0  0  0  0  0
  2  1  1  1
  3  2  1  0
  3  4  1  0
  4  8  1  0
  5  4  2  0
  6  7  2  0
  6  2  1  0
  9 10  1  0
 10 11  1  0
 11 12  1  0
 13 12  1  1
 13 14  1  0
 14  6  1  0
 15 13  1  0
 16 15  2  0
 18 17  1  0
 19 18  1  0
 21 20  1  1
 20 19  1  0
 21 22  1  0
 22 15  1  0
 23 25  1  0
 23 21  1  0
 24 23  2  0
M  END
$$$$
