PRM.pdb
     RDKit          3D

 27 27  0  0  1  0  0  0  0  0999 V2000
   27.5406  -20.1159  -16.3425 N   0  0  0  0  0  0  0  0  0  0  0  0
   28.3885  -19.9952  -17.5314 C   0  0  0  0  0  0  0  0  0  0  0  0
   29.3133  -21.2002  -17.3233 C   0  0  0  0  0  0  0  0  0  0  0  0
   28.4673  -22.2149  -16.5796 C   0  0  0  0  0  0  0  0  0  0  0  0
   27.1438  -21.4950  -16.4207 C   0  0  1  0  0  0  0  0  0  0  0  0
   26.4223  -21.9465  -15.2062 C   0  0  0  0  0  0  0  0  0  0  0  0
   25.8530  -23.0882  -15.1384 O   0  0  0  0  0  0  0  0  0  0  0  0
   30.2628  -22.9247   -9.1508 N   0  0  0  0  0  0  0  0  0  0  0  0
   30.5944  -21.8368   -9.9979 C   0  0  0  0  0  0  0  0  0  0  0  0
   31.7538  -21.6862  -10.5495 N   0  0  0  0  0  0  0  0  0  0  0  0
   29.5822  -20.8453  -10.2583 N   0  0  0  0  0  0  0  0  0  0  0  0
   28.1853  -21.1041   -9.9869 C   0  0  0  0  0  0  0  0  0  0  0  0
   27.5806  -21.7364  -11.2212 C   0  0  0  0  0  0  0  0  0  0  0  0
   26.2748  -21.0151  -11.5816 C   0  0  0  0  0  0  0  0  0  0  0  0
   25.6647  -21.5921  -12.8307 C   0  0  2  0  0  0  0  0  0  0  0  0
   26.3093  -21.1548  -14.0369 N   0  0  0  0  0  0  0  0  0  0  0  0
   24.1994  -21.4612  -12.8511 C   0  0  0  0  0  0  0  0  0  0  0  0
   23.5498  -21.7252  -11.8245 O   0  0  0  0  0  0  0  0  0  0  0  0
   31.8834  -20.8265  -11.1319 C   0  0  0  0  0  0  0  0  0  0  0  0
   20.6850  -18.4453  -10.1851 S   0  0  0  0  0  0  0  0  0  0  0  0
   19.9796  -18.0431  -11.7831 C   0  0  0  0  0  0  0  0  0  0  0  0
   20.3208  -19.2988  -13.0394 C   0  0  0  0  0  0  0  0  0  0  0  0
   21.7781  -19.7076  -13.0193 C   0  0  1  0  0  0  0  0  0  0  0  0
   22.0709  -20.7912  -14.0239 N   0  0  0  0  0  0  0  0  0  0  0  0
   23.5154  -21.0428  -14.0082 C   0  0  0  0  0  0  0  0  0  0  0  0
   21.5961  -20.4209  -15.3640 O   0  0  0  0  0  0  0  0  0  0  0  0
   22.3108  -20.1100  -16.3333 O   0  0  0  0  0  0  0  0  0  0  0  0
  1  5  1  0
  1  2  1  0
  2  3  1  0
  4  3  1  0
  5  4  1  0
  6 16  1  0
  5  6  1  1
  7  6  2  0
  9  8  1  0
  9 10  2  0
 11  9  1  0
 12 11  1  0
 13 12  1  0
 14 13  1  0
 15 14  1  1
 15 16  1  0
 17 24  1  0
 17 15  1  0
 18 17  2  0
 20 19  1  0
 20 21  1  0
 21 22  1  0
 23 22  1  1
 23 24  1  0
 23 25  1  0
 25 27  1  0
 26 25  2  0
M  END
$$$$
