PRM.pdb
     RDKit          3D

 27 27  0  0  1  0  0  0  0  0999 V2000
   26.7978  -20.0007  -15.7190 N   0  0  0  0  0  0  0  0  0  0  0  0
   27.5272  -19.4723  -16.8747 C   0  0  0  0  0  0  0  0  0  0  0  0
   28.4763  -18.4971  -16.1684 C   0  0  0  0  0  0  0  0  0  0  0  0
   28.7197  -19.1118  -14.8042 C   0  0  0  0  0  0  0  0  0  0  0  0
   27.8810  -20.3725  -14.8507 C   0  0  1  0  0  0  0  0  0  0  0  0
   27.4141  -20.7645  -13.4988 C   0  0  0  0  0  0  0  0  0  0  0  0
   28.2263  -21.0587  -12.5575 O   0  0  0  0  0  0  0  0  0  0  0  0
   21.1235  -22.4765  -14.4700 N   0  0  0  0  0  0  0  0  0  0  0  0
   21.1229  -21.0751  -14.6870 C   0  0  0  0  0  0  0  0  0  0  0  0
   20.8466  -20.5267  -15.8246 N   0  0  0  0  0  0  0  0  0  0  0  0
   21.4476  -20.2155  -13.5776 N   0  0  0  0  0  0  0  0  0  0  0  0
   21.6836  -20.7489  -12.2540 C   0  0  0  0  0  0  0  0  0  0  0  0
   23.1484  -21.1144  -12.1536 C   0  0  0  0  0  0  0  0  0  0  0  0
   24.0017  -19.8402  -12.2125 C   0  0  0  0  0  0  0  0  0  0  0  0
   25.4615  -20.1575  -12.0284 C   0  0  2  0  0  0  0  0  0  0  0  0
   26.0437  -20.8423  -13.1482 N   0  0  0  0  0  0  0  0  0  0  0  0
   25.7387  -20.7879  -10.7283 C   0  0  0  0  0  0  0  0  0  0  0  0
   25.6967  -22.0265  -10.6305 O   0  0  0  0  0  0  0  0  0  0  0  0
   20.9602  -19.4880  -15.8798 C   0  0  0  0  0  0  0  0  0  0  0  0
   29.3437  -19.3058   -4.5531 S   0  0  0  0  0  0  0  0  0  0  0  0
   27.6387  -18.8354   -4.8442 C   0  0  0  0  0  0  0  0  0  0  0  0
   26.7529  -20.0129   -5.8931 C   0  0  0  0  0  0  0  0  0  0  0  0
   26.7789  -19.5781   -7.3428 C   0  0  1  0  0  0  0  0  0  0  0  0
   26.1346  -20.5970   -8.2460 N   0  0  0  0  0  0  0  0  0  0  0  0
   26.0515  -20.0192   -9.5911 C   0  0  0  0  0  0  0  0  0  0  0  0
   24.8144  -20.9994   -7.7425 O   0  0  0  0  0  0  0  0  0  0  0  0
   24.5970  -21.8249   -6.8380 O   0  0  0  0  0  0  0  0  0  0  0  0
  1  5  1  0
  1  2  1  0
  2  3  1  0
  4  3  1  0
  5  4  1  0
  6 16  1  0
  5  6  1  1
  7  6  2  0
  9  8  1  0
  9 10  2  0
 11  9  1  0
 12 11  1  0
 13 12  1  0
 14 13  1  0
 15 14  1  6
 15 16  1  0
 17 24  1  0
 17 15  1  0
 18 17  2  0
 20 19  1  0
 20 21  1  0
 21 22  1  0
 23 22  1  6
 23 24  1  0
 23 25  1  0
 25 27  1  0
 26 25  2  0
M  END
$$$$
