PRM.pdb
     RDKit          3D

 27 27  0  0  1  0  0  0  0  0999 V2000
   27.5782  -20.9928  -15.3421 N   0  0  0  0  0  0  0  0  0  0  0  0
   28.4546  -20.7995  -16.5003 C   0  0  0  0  0  0  0  0  0  0  0  0
   28.4508  -19.2687  -16.5855 C   0  0  0  0  0  0  0  0  0  0  0  0
   28.2714  -18.8007  -15.1547 C   0  0  0  0  0  0  0  0  0  0  0  0
   28.1776  -20.1029  -14.3861 C   0  0  1  0  0  0  0  0  0  0  0  0
   27.3565  -19.9520  -13.1603 C   0  0  0  0  0  0  0  0  0  0  0  0
   27.6732  -19.1413  -12.2250 O   0  0  0  0  0  0  0  0  0  0  0  0
   22.9648  -22.5575  -14.5262 N   0  0  0  0  0  0  0  0  0  0  0  0
   22.1900  -21.6908  -15.3383 C   0  0  0  0  0  0  0  0  0  0  0  0
   22.0012  -21.8738  -16.6040 N   0  0  0  0  0  0  0  0  0  0  0  0
   21.5790  -20.5434  -14.7175 N   0  0  0  0  0  0  0  0  0  0  0  0
   21.7753  -20.2509  -13.3146 C   0  0  0  0  0  0  0  0  0  0  0  0
   23.2308  -19.8902  -13.1134 C   0  0  0  0  0  0  0  0  0  0  0  0
   23.8615  -20.8466  -12.0922 C   0  0  0  0  0  0  0  0  0  0  0  0
   25.2930  -20.4741  -11.8141 C   0  0  2  0  0  0  0  0  0  0  0  0
   26.1675  -20.6878  -12.9328 N   0  0  0  0  0  0  0  0  0  0  0  0
   25.7850  -21.0432  -10.5497 C   0  0  0  0  0  0  0  0  0  0  0  0
   26.2001  -22.2148  -10.5295 O   0  0  0  0  0  0  0  0  0  0  0  0
   21.3694  -21.1912  -17.0834 C   0  0  0  0  0  0  0  0  0  0  0  0
   29.7476  -19.1461   -5.6577 S   0  0  0  0  0  0  0  0  0  0  0  0
   28.1590  -19.4240   -4.8752 C   0  0  0  0  0  0  0  0  0  0  0  0
   27.0879  -20.5264   -5.8286 C   0  0  0  0  0  0  0  0  0  0  0  0
   26.8308  -19.9725   -7.2136 C   0  0  2  0  0  0  0  0  0  0  0  0
   25.9800  -20.9009   -8.0403 N   0  0  0  0  0  0  0  0  0  0  0  0
   25.7967  -20.2897   -9.3605 C   0  0  0  0  0  0  0  0  0  0  0  0
   24.6951  -21.1764   -7.3835 O   0  0  0  0  0  0  0  0  0  0  0  0
   23.5815  -20.7630   -7.7523 O   0  0  0  0  0  0  0  0  0  0  0  0
  1  5  1  0
  1  2  1  0
  2  3  1  0
  4  3  1  0
  5  4  1  0
  6 16  1  0
  5  6  1  1
  7  6  2  0
  9  8  1  0
  9 10  2  0
 11  9  1  0
 12 11  1  0
 13 12  1  0
 14 13  1  0
 15 14  1  6
 15 16  1  0
 17 24  1  0
 17 15  1  0
 18 17  2  0
 20 19  1  0
 20 21  1  0
 21 22  1  0
 23 22  1  6
 23 24  1  0
 23 25  1  0
 25 27  1  0
 26 25  2  0
M  END
$$$$
