PRM.pdb
     RDKit          3D

 27 27  0  0  1  0  0  0  0  0999 V2000
   26.8737  -18.7588  -15.8460 N   0  0  0  0  0  0  0  0  0  0  0  0
   28.0967  -18.4162  -16.5766 C   0  0  0  0  0  0  0  0  0  0  0  0
   29.0891  -19.3668  -15.8967 C   0  0  0  0  0  0  0  0  0  0  0  0
   28.2591  -20.5685  -15.4901 C   0  0  0  0  0  0  0  0  0  0  0  0
   26.8700  -20.1912  -15.9627 C   0  0  1  0  0  0  0  0  0  0  0  0
   25.8212  -20.8248  -15.1273 C   0  0  0  0  0  0  0  0  0  0  0  0
   25.0655  -21.7535  -15.5731 O   0  0  0  0  0  0  0  0  0  0  0  0
   28.6444  -21.8667  -10.8308 N   0  0  0  0  0  0  0  0  0  0  0  0
   28.6626  -21.0919   -9.6431 C   0  0  0  0  0  0  0  0  0  0  0  0
   29.7446  -20.7797   -9.0083 N   0  0  0  0  0  0  0  0  0  0  0  0
   27.4053  -20.6264   -9.1161 N   0  0  0  0  0  0  0  0  0  0  0  0
   26.1500  -21.2132   -9.5307 C   0  0  0  0  0  0  0  0  0  0  0  0
   25.7526  -20.5809  -10.8466 C   0  0  0  0  0  0  0  0  0  0  0  0
   24.9713  -21.5971  -11.6904 C   0  0  0  0  0  0  0  0  0  0  0  0
   24.5077  -20.9836  -12.9843 C   0  0  2  0  0  0  0  0  0  0  0  0
   25.5777  -20.4538  -13.7820 N   0  0  0  0  0  0  0  0  0  0  0  0
   23.3837  -20.0538  -12.7930 C   0  0  0  0  0  0  0  0  0  0  0  0
   23.6013  -18.8299  -12.7774 O   0  0  0  0  0  0  0  0  0  0  0  0
   29.6217  -20.2717   -8.1018 C   0  0  0  0  0  0  0  0  0  0  0  0
   21.9430  -18.7014  -17.8244 S   0  0  0  0  0  0  0  0  0  0  0  0
   20.3992  -19.4992  -17.3848 C   0  0  0  0  0  0  0  0  0  0  0  0
   20.0458  -19.4202  -15.6127 C   0  0  0  0  0  0  0  0  0  0  0  0
   21.1733  -20.0260  -14.8047 C   0  0  2  0  0  0  0  0  0  0  0  0
   20.9229  -19.9185  -13.3232 N   0  0  0  0  0  0  0  0  0  0  0  0
   22.0654  -20.5193  -12.6277 C   0  0  0  0  0  0  0  0  0  0  0  0
   19.6560  -20.5602  -12.9468 O   0  0  0  0  0  0  0  0  0  0  0  0
   19.4678  -21.7818  -12.8077 O   0  0  0  0  0  0  0  0  0  0  0  0
  1  5  1  0
  1  2  1  0
  2  3  1  0
  4  3  1  0
  5  4  1  0
  6 16  1  0
  5  6  1  1
  7  6  2  0
  9  8  1  0
  9 10  2  0
 11  9  1  0
 12 11  1  0
 13 12  1  0
 14 13  1  0
 15 14  1  1
 15 16  1  0
 17 24  1  0
 17 15  1  0
 18 17  2  0
 20 19  1  0
 20 21  1  0
 21 22  1  0
 23 22  1  1
 23 24  1  0
 23 25  1  0
 25 27  1  0
 26 25  2  0
M  END
$$$$
