PRM.pdb
     RDKit          3D

 27 27  0  0  1  0  0  0  0  0999 V2000
   27.9231  -21.6125  -15.8452 N   0  0  0  0  0  0  0  0  0  0  0  0
   28.7770  -21.6125  -17.0359 C   0  0  0  0  0  0  0  0  0  0  0  0
   28.2996  -20.3190  -17.7067 C   0  0  0  0  0  0  0  0  0  0  0  0
   27.8784  -19.4202  -16.5609 C   0  0  0  0  0  0  0  0  0  0  0  0
   28.1416  -20.2835  -15.3441 C   0  0  1  0  0  0  0  0  0  0  0  0
   27.2273  -19.9417  -14.2276 C   0  0  0  0  0  0  0  0  0  0  0  0
   27.2399  -18.7947  -13.6649 O   0  0  0  0  0  0  0  0  0  0  0  0
   20.1266  -23.6836  -13.4104 N   0  0  0  0  0  0  0  0  0  0  0  0
   19.8632  -22.2901  -13.4162 C   0  0  0  0  0  0  0  0  0  0  0  0
   18.6780  -21.7858  -13.5264 N   0  0  0  0  0  0  0  0  0  0  0  0
   20.9787  -21.3872  -13.2914 N   0  0  0  0  0  0  0  0  0  0  0  0
   21.7666  -21.3246  -12.0800 C   0  0  0  0  0  0  0  0  0  0  0  0
   22.8109  -20.2446  -12.2590 C   0  0  0  0  0  0  0  0  0  0  0  0
   23.8580  -20.7059  -13.2817 C   0  0  0  0  0  0  0  0  0  0  0  0
   25.2539  -20.4900  -12.7620 C   0  0  2  0  0  0  0  0  0  0  0  0
   26.2769  -20.8515  -13.7026 N   0  0  0  0  0  0  0  0  0  0  0  0
   25.4458  -21.0572  -11.4181 C   0  0  0  0  0  0  0  0  0  0  0  0
   25.2496  -22.2711  -11.2354 O   0  0  0  0  0  0  0  0  0  0  0  0
   18.5793  -20.7729  -13.2833 C   0  0  0  0  0  0  0  0  0  0  0  0
   28.4101  -19.7285   -4.1686 S   0  0  0  0  0  0  0  0  0  0  0  0
   27.9827  -19.1113   -5.7964 C   0  0  0  0  0  0  0  0  0  0  0  0
   26.9121  -20.2404   -6.7185 C   0  0  0  0  0  0  0  0  0  0  0  0
   26.7667  -19.7989   -8.1591 C   0  0  1  0  0  0  0  0  0  0  0  0
   25.9430  -20.7703   -8.9634 N   0  0  0  0  0  0  0  0  0  0  0  0
   25.8478  -20.2553  -10.3330 C   0  0  0  0  0  0  0  0  0  0  0  0
   24.6173  -20.9726   -8.3633 O   0  0  0  0  0  0  0  0  0  0  0  0
   23.5572  -20.4382   -8.7340 O   0  0  0  0  0  0  0  0  0  0  0  0
  1  5  1  0
  1  2  1  0
  2  3  1  0
  4  3  1  0
  5  4  1  0
  6 16  1  0
  5  6  1  1
  7  6  2  0
  9  8  1  0
  9 10  2  0
 11  9  1  0
 12 11  1  0
 13 12  1  0
 14 13  1  0
 15 14  1  6
 15 16  1  0
 17 24  1  0
 17 15  1  0
 18 17  2  0
 20 19  1  0
 20 21  1  0
 21 22  1  0
 23 22  1  6
 23 24  1  0
 23 25  1  0
 25 27  1  0
 26 25  2  0
M  END
$$$$
