PRM.pdb
     RDKit          3D

 27 27  0  0  1  0  0  0  0  0999 V2000
   15.6502  -26.3374   -4.7997 N   0  0  0  0  0  0  0  0  0  0  0  0
   16.5891  -27.3574   -5.2739 C   0  0  0  0  0  0  0  0  0  0  0  0
   17.8234  -26.4851   -5.5315 C   0  0  0  0  0  0  0  0  0  0  0  0
   17.7206  -25.3592   -4.5215 C   0  0  0  0  0  0  0  0  0  0  0  0
   16.4348  -25.6833   -3.7888 C   0  0  1  0  0  0  0  0  0  0  0  0
   15.7814  -24.4572   -3.2700 C   0  0  0  0  0  0  0  0  0  0  0  0
   16.3630  -23.6736   -2.4453 O   0  0  0  0  0  0  0  0  0  0  0  0
   12.1182  -19.2597   -5.9178 N   0  0  0  0  0  0  0  0  0  0  0  0
   11.1851  -18.6626   -5.0324 C   0  0  0  0  0  0  0  0  0  0  0  0
   10.9688  -17.3896   -4.9718 N   0  0  0  0  0  0  0  0  0  0  0  0
   10.4365  -19.5233   -4.1526 N   0  0  0  0  0  0  0  0  0  0  0  0
   10.6542  -20.9531   -4.1312 C   0  0  0  0  0  0  0  0  0  0  0  0
   11.9627  -21.2143   -3.4180 C   0  0  0  0  0  0  0  0  0  0  0  0
   12.5778  -22.5221   -3.9340 C   0  0  0  0  0  0  0  0  0  0  0  0
   13.8294  -22.8688   -3.1732 C   0  0  2  0  0  0  0  0  0  0  0  0
   14.4737  -24.0621   -3.6450 N   0  0  0  0  0  0  0  0  0  0  0  0
   13.6286  -22.8303   -1.7162 C   0  0  0  0  0  0  0  0  0  0  0  0
   12.9931  -23.7452   -1.1644 O   0  0  0  0  0  0  0  0  0  0  0  0
   10.2541  -17.0720   -4.2766 C   0  0  0  0  0  0  0  0  0  0  0  0
   17.5791  -23.8118    2.6254 S   0  0  0  0  0  0  0  0  0  0  0  0
   16.7765  -22.4297    3.4369 C   0  0  0  0  0  0  0  0  0  0  0  0
   15.1930  -21.9921    2.6803 C   0  0  0  0  0  0  0  0  0  0  0  0
   15.2790  -22.0405    1.1698 C   0  0  1  0  0  0  0  0  0  0  0  0
   13.9579  -21.7179    0.5219 N   0  0  0  0  0  0  0  0  0  0  0  0
   14.1412  -21.7797   -0.9316 C   0  0  0  0  0  0  0  0  0  0  0  0
   13.4566  -20.4060    0.9533 O   0  0  0  0  0  0  0  0  0  0  0  0
   13.2642  -19.4195    0.2207 O   0  0  0  0  0  0  0  0  0  0  0  0
  1  5  1  0
  1  2  1  0
  2  3  1  0
  4  3  1  0
  5  4  1  0
  6 16  1  0
  5  6  1  6
  7  6  2  0
  9  8  1  0
  9 10  2  0
 11  9  1  0
 12 11  1  0
 13 12  1  0
 14 13  1  0
 15 14  1  6
 15 16  1  0
 17 24  1  0
 17 15  1  0
 18 17  2  0
 20 19  1  0
 20 21  1  0
 21 22  1  0
 23 22  1  1
 23 24  1  0
 23 25  1  0
 25 27  1  0
 26 25  2  0
M  END
$$$$
