PRM.pdb
     RDKit          3D

 27 27  0  0  1  0  0  0  0  0999 V2000
   28.8290  -19.3408  -16.2464 N   0  0  0  0  0  0  0  0  0  0  0  0
   29.4663  -18.4389  -17.2094 C   0  0  0  0  0  0  0  0  0  0  0  0
   28.2996  -17.4860  -17.4951 C   0  0  0  0  0  0  0  0  0  0  0  0
   27.4977  -17.4575  -16.2089 C   0  0  0  0  0  0  0  0  0  0  0  0
   28.2703  -18.4028  -15.3119 C   0  0  1  0  0  0  0  0  0  0  0  0
   27.3837  -19.0541  -14.3173 C   0  0  0  0  0  0  0  0  0  0  0  0
   26.6508  -18.3812  -13.5158 O   0  0  0  0  0  0  0  0  0  0  0  0
   21.6988  -22.8953  -14.8134 N   0  0  0  0  0  0  0  0  0  0  0  0
   21.6452  -24.0610  -14.0076 C   0  0  0  0  0  0  0  0  0  0  0  0
   20.5494  -24.5479  -13.5246 N   0  0  0  0  0  0  0  0  0  0  0  0
   22.8808  -24.7402  -13.7120 N   0  0  0  0  0  0  0  0  0  0  0  0
   24.1409  -24.2845  -14.2565 C   0  0  0  0  0  0  0  0  0  0  0  0
   24.4790  -22.9620  -13.6040 C   0  0  0  0  0  0  0  0  0  0  0  0
   25.7618  -22.3943  -14.2265 C   0  0  0  0  0  0  0  0  0  0  0  0
   26.1831  -21.1253  -13.5354 C   0  0  2  0  0  0  0  0  0  0  0  0
   27.2806  -20.4602  -14.1795 N   0  0  0  0  0  0  0  0  0  0  0  0
   26.3582  -21.3078  -12.0860 C   0  0  0  0  0  0  0  0  0  0  0  0
   27.4051  -21.8248  -11.6592 O   0  0  0  0  0  0  0  0  0  0  0  0
   20.6484  -25.3679  -12.8822 C   0  0  0  0  0  0  0  0  0  0  0  0
   29.1077  -18.7039   -8.3210 S   0  0  0  0  0  0  0  0  0  0  0  0
   27.9461  -19.2217   -7.0578 C   0  0  0  0  0  0  0  0  0  0  0  0
   26.6808  -20.3514   -7.6855 C   0  0  0  0  0  0  0  0  0  0  0  0
   26.5690  -20.2612   -9.1924 C   0  0  1  0  0  0  0  0  0  0  0  0
   25.4788  -21.1518   -9.7286 N   0  0  0  0  0  0  0  0  0  0  0  0
   25.3661  -20.9090  -11.1703 C   0  0  0  0  0  0  0  0  0  0  0  0
   24.2057  -20.9162   -9.0344 O   0  0  0  0  0  0  0  0  0  0  0  0
   23.1854  -20.4064   -9.5306 O   0  0  0  0  0  0  0  0  0  0  0  0
  1  5  1  0
  1  2  1  0
  2  3  1  0
  4  3  1  0
  5  4  1  0
  6 16  1  0
  5  6  1  1
  7  6  2  0
  9  8  1  0
  9 10  2  0
 11  9  1  0
 12 11  1  0
 13 12  1  0
 14 13  1  0
 15 14  1  6
 15 16  1  0
 17 24  1  0
 17 15  1  0
 18 17  2  0
 20 19  1  0
 20 21  1  0
 21 22  1  0
 23 22  1  6
 23 24  1  0
 23 25  1  0
 25 27  1  0
 26 25  2  0
M  END
$$$$
