PRM.pdb
     RDKit          3D

 27 27  0  0  1  0  0  0  0  0999 V2000
   29.3477  -21.6288  -13.4168 N   0  0  0  0  0  0  0  0  0  0  0  0
   30.5502  -22.1569  -12.7672 C   0  0  0  0  0  0  0  0  0  0  0  0
   31.0791  -20.8791  -12.1053 C   0  0  0  0  0  0  0  0  0  0  0  0
   29.8412  -20.0588  -11.8006 C   0  0  0  0  0  0  0  0  0  0  0  0
   28.7219  -20.9348  -12.3250 C   0  0  1  0  0  0  0  0  0  0  0  0
   27.5579  -20.1257  -12.7611 C   0  0  0  0  0  0  0  0  0  0  0  0
   26.9158  -19.3690  -11.9564 O   0  0  0  0  0  0  0  0  0  0  0  0
   28.8059  -14.9923  -17.5601 N   0  0  0  0  0  0  0  0  0  0  0  0
   27.7504  -15.8918  -17.8565 C   0  0  0  0  0  0  0  0  0  0  0  0
   26.6056  -15.5217  -18.3294 N   0  0  0  0  0  0  0  0  0  0  0  0
   27.9669  -17.2959  -17.6178 N   0  0  0  0  0  0  0  0  0  0  0  0
   26.9821  -18.2858  -17.9951 C   0  0  0  0  0  0  0  0  0  0  0  0
   26.8093  -19.2376  -16.8318 C   0  0  0  0  0  0  0  0  0  0  0  0
   26.1040  -18.5150  -15.6762 C   0  0  0  0  0  0  0  0  0  0  0  0
   25.8817  -19.4434  -14.5126 C   0  0  2  0  0  0  0  0  0  0  0  0
   27.0716  -20.1281  -14.0916 N   0  0  0  0  0  0  0  0  0  0  0  0
   24.7203  -20.3243  -14.7119 C   0  0  0  0  0  0  0  0  0  0  0  0
   24.8805  -21.4293  -15.2585 O   0  0  0  0  0  0  0  0  0  0  0  0
   25.9482  -16.2868  -18.6078 C   0  0  0  0  0  0  0  0  0  0  0  0
   24.5865  -18.6634   -9.2702 S   0  0  0  0  0  0  0  0  0  0  0  0
   23.9280  -20.3288   -9.1937 C   0  0  0  0  0  0  0  0  0  0  0  0
   22.9514  -20.7673  -10.6515 C   0  0  0  0  0  0  0  0  0  0  0  0
   23.5935  -20.2393  -11.9165 C   0  0  1  0  0  0  0  0  0  0  0  0
   22.7647  -20.5454  -13.1366 N   0  0  0  0  0  0  0  0  0  0  0  0
   23.4300  -19.9439  -14.2966 C   0  0  0  0  0  0  0  0  0  0  0  0
   21.3874  -20.0574  -12.9839 O   0  0  0  0  0  0  0  0  0  0  0  0
   20.9212  -19.0159  -13.4789 O   0  0  0  0  0  0  0  0  0  0  0  0
  1  5  1  0
  1  2  1  0
  2  3  1  0
  4  3  1  0
  5  4  1  0
  6 16  1  0
  5  6  1  6
  7  6  2  0
  9  8  1  0
  9 10  2  0
 11  9  1  0
 12 11  1  0
 13 12  1  0
 14 13  1  0
 15 14  1  6
 15 16  1  0
 17 24  1  0
 17 15  1  0
 18 17  2  0
 20 19  1  0
 20 21  1  0
 21 22  1  0
 23 22  1  6
 23 24  1  0
 23 25  1  0
 25 27  1  0
 26 25  2  0
M  END
$$$$
