VRT.pdb
     RDKit          3D

 26 25  0  0  1  0  0  0  0  0999 V2000
   25.8380  -17.2015  -19.4090 C   0  0  0  0  0  0  0  0  0  0  0  0
   25.7645  -18.3652  -18.4400 C   0  0  1  0  0  0  0  0  0  0  0  0
   26.7076  -18.2113  -17.2930 C   0  0  0  0  0  0  0  0  0  0  0  0
   24.3223  -18.4809  -18.0256 C   0  0  2  0  0  0  0  0  0  0  0  0
   23.9033  -17.1937  -17.5262 N   0  0  0  0  0  0  0  0  0  0  0  0
   24.0687  -19.5264  -17.0333 C   0  0  0  0  0  0  0  0  0  0  0  0
   24.0937  -20.7451  -17.3804 O   0  0  0  0  0  0  0  0  0  0  0  0
   26.0289  -22.6096  -11.1873 N   0  0  0  0  0  0  0  0  0  0  0  0
   26.6277  -21.3401  -11.3358 C   0  0  0  0  0  0  0  0  0  0  0  0
   27.8860  -21.2558  -11.5568 N   0  0  0  0  0  0  0  0  0  0  0  0
   25.8269  -20.1431  -11.2392 N   0  0  0  0  0  0  0  0  0  0  0  0
   24.4230  -20.2943  -11.0118 C   0  0  0  0  0  0  0  0  0  0  0  0
   23.7534  -20.8308  -12.2794 C   0  0  0  0  0  0  0  0  0  0  0  0
   24.0419  -19.9259  -13.4206 C   0  0  0  0  0  0  0  0  0  0  0  0
   23.3963  -20.3278  -14.7209 C   0  0  2  0  0  0  0  0  0  0  0  0
   23.7894  -19.2572  -15.6724 N   0  0  0  0  0  0  0  0  0  0  0  0
   21.9402  -20.4321  -14.6380 C   0  0  0  0  0  0  0  0  0  0  0  0
   21.2888  -19.3615  -14.3795 O   0  0  0  0  0  0  0  0  0  0  0  0
   28.4087  -20.3794  -11.6976 C   0  0  0  0  0  0  0  0  0  0  0  0
   19.3934  -22.0579  -17.1901 C   0  0  2  0  0  0  0  0  0  0  0  0
   19.0984  -22.4891  -15.7752 O   0  0  0  0  0  0  0  0  0  0  0  0
   19.6545  -23.7547  -15.5965 C   0  0  2  0  0  0  0  0  0  0  0  0
   19.7325  -21.5681  -14.7553 N   0  0  0  0  0  0  0  0  0  0  0  0
   21.1796  -21.6138  -14.8225 C   0  0  0  0  0  0  0  0  0  0  0  0
   19.2616  -21.8806  -13.3766 O   0  0  0  0  0  0  0  0  0  0  0  0
   20.0700  -22.2604  -12.4921 O   0  0  0  0  0  0  0  0  0  0  0  0
  2  3  1  1
  2  1  1  0
  4  2  1  0
  4  5  1  1
  6  4  1  0
  6  7  2  0
  9  8  1  0
 10  9  2  0
 11  9  1  0
 12 11  1  0
 13 12  1  0
 13 14  1  0
 15 14  1  1
 16 15  1  0
 16  6  1  0
 17 15  1  0
 18 17  2  0
 20 19  1  6
 20 22  1  0
 21 20  1  0
 22 24  1  0
 22 23  1  1
 23 17  1  0
 24 26  1  0
 25 24  2  0
M  END
$$$$
