VRT.pdb
     RDKit          3D

 26 25  0  0  1  0  0  0  0  0999 V2000
   25.8360   -9.7851  -15.1528 C   0  0  0  0  0  0  0  0  0  0  0  0
   25.9443  -10.8926  -16.1824 C   0  0  1  0  0  0  0  0  0  0  0  0
   26.9464  -11.9305  -15.7989 C   0  0  0  0  0  0  0  0  0  0  0  0
   24.5529  -11.4353  -16.3687 C   0  0  2  0  0  0  0  0  0  0  0  0
   24.5945  -12.3922  -17.4478 N   0  0  0  0  0  0  0  0  0  0  0  0
   23.5421  -10.4091  -16.6284 C   0  0  0  0  0  0  0  0  0  0  0  0
   23.4525   -9.8892  -17.7809 O   0  0  0  0  0  0  0  0  0  0  0  0
   15.2875  -10.5934  -14.8796 N   0  0  0  0  0  0  0  0  0  0  0  0
   15.4004   -9.2336  -15.2403 C   0  0  0  0  0  0  0  0  0  0  0  0
   14.3427   -8.5253  -15.3777 N   0  0  0  0  0  0  0  0  0  0  0  0
   16.7005   -8.6437  -15.4533 N   0  0  0  0  0  0  0  0  0  0  0  0
   17.8463   -9.4924  -15.3417 C   0  0  0  0  0  0  0  0  0  0  0  0
   19.1064   -8.7020  -15.7021 C   0  0  0  0  0  0  0  0  0  0  0  0
   20.3000   -9.5759  -15.5760 C   0  0  0  0  0  0  0  0  0  0  0  0
   21.6031   -8.9188  -15.9496 C   0  0  2  0  0  0  0  0  0  0  0  0
   22.6322   -9.9465  -15.6484 N   0  0  0  0  0  0  0  0  0  0  0  0
   21.8692   -7.6907  -15.2020 C   0  0  0  0  0  0  0  0  0  0  0  0
   22.2114   -7.8130  -13.9751 O   0  0  0  0  0  0  0  0  0  0  0  0
   14.3237   -7.5215  -15.6080 C   0  0  0  0  0  0  0  0  0  0  0  0
   24.4698   -4.9618  -15.7703 C   0  0  2  0  0  0  0  0  0  0  0  0
   23.1189   -4.3191  -15.5783 O   0  0  0  0  0  0  0  0  0  0  0  0
   22.6000   -4.0448  -16.8426 C   0  0  2  0  0  0  0  0  0  0  0  0
   22.1437   -5.2415  -14.8793 N   0  0  0  0  0  0  0  0  0  0  0  0
   21.7869   -6.3716  -15.7138 C   0  0  0  0  0  0  0  0  0  0  0  0
   20.9232   -4.5077  -14.4408 O   0  0  0  0  0  0  0  0  0  0  0  0
   19.7952   -4.7958  -14.9146 O   0  0  0  0  0  0  0  0  0  0  0  0
  2  3  1  1
  2  1  1  0
  4  2  1  0
  4  5  1  6
  6  4  1  0
  6  7  2  0
  9  8  1  0
 10  9  2  0
 11  9  1  0
 12 11  1  0
 13 12  1  0
 13 14  1  0
 15 14  1  1
 16 15  1  0
 16  6  1  0
 17 15  1  0
 18 17  2  0
 20 19  1  1
 20 22  1  0
 21 20  1  0
 22 24  1  0
 22 23  1  1
 23 17  1  0
 24 26  1  0
 25 24  2  0
M  END
$$$$
