VRT.pdb
     RDKit          3D

 26 25  0  0  1  0  0  0  0  0999 V2000
   25.5607  -18.2162  -19.9297 C   0  0  0  0  0  0  0  0  0  0  0  0
   24.1227  -17.9169  -20.3050 C   0  0  1  0  0  0  0  0  0  0  0  0
   23.5339  -18.9680  -21.1865 C   0  0  0  0  0  0  0  0  0  0  0  0
   23.3781  -17.7263  -19.0110 C   0  0  2  0  0  0  0  0  0  0  0  0
   23.8392  -16.4958  -18.4151 N   0  0  0  0  0  0  0  0  0  0  0  0
   23.5204  -18.8393  -18.0712 C   0  0  0  0  0  0  0  0  0  0  0  0
   23.0807  -19.9869  -18.3812 O   0  0  0  0  0  0  0  0  0  0  0  0
   24.8759  -19.9147  -10.8569 N   0  0  0  0  0  0  0  0  0  0  0  0
   25.9801  -20.7885  -10.7605 C   0  0  0  0  0  0  0  0  0  0  0  0
   26.1620  -21.4624   -9.6872 N   0  0  0  0  0  0  0  0  0  0  0  0
   26.8997  -20.9222  -11.8650 N   0  0  0  0  0  0  0  0  0  0  0  0
   26.7435  -20.0355  -12.9762 C   0  0  0  0  0  0  0  0  0  0  0  0
   25.5126  -20.4442  -13.7890 C   0  0  0  0  0  0  0  0  0  0  0  0
   25.3430  -19.5224  -14.9405 C   0  0  0  0  0  0  0  0  0  0  0  0
   24.1647  -19.8326  -15.8263 C   0  0  2  0  0  0  0  0  0  0  0  0
   24.1346  -18.7138  -16.8026 N   0  0  0  0  0  0  0  0  0  0  0  0
   22.8984  -19.9149  -15.1000 C   0  0  0  0  0  0  0  0  0  0  0  0
   22.5931  -18.9322  -14.3394 O   0  0  0  0  0  0  0  0  0  0  0  0
   26.9473  -22.1062   -9.5138 C   0  0  0  0  0  0  0  0  0  0  0  0
   19.2498  -20.8531  -16.4369 C   0  0  2  0  0  0  0  0  0  0  0  0
   19.5955  -21.5857  -15.1647 O   0  0  0  0  0  0  0  0  0  0  0  0
   20.0206  -22.8653  -15.5183 C   0  0  2  0  0  0  0  0  0  0  0  0
   20.7313  -20.9222  -14.4162 N   0  0  0  0  0  0  0  0  0  0  0  0
   21.9714  -20.9852  -15.1640 C   0  0  0  0  0  0  0  0  0  0  0  0
   20.9062  -21.5152  -13.0604 O   0  0  0  0  0  0  0  0  0  0  0  0
   21.9786  -22.0892  -12.7435 O   0  0  0  0  0  0  0  0  0  0  0  0
  2  3  1  1
  2  1  1  0
  4  2  1  0
  4  5  1  1
  6  4  1  0
  6  7  2  0
  9  8  1  0
 10  9  2  0
 11  9  1  0
 12 11  1  0
 13 12  1  0
 13 14  1  0
 15 14  1  1
 16 15  1  0
 16  6  1  0
 17 15  1  0
 18 17  2  0
 20 19  1  1
 20 22  1  0
 21 20  1  0
 22 24  1  0
 22 23  1  1
 23 17  1  0
 24 26  1  0
 25 24  2  0
M  END
$$$$
