VRT.pdb
     RDKit          3D

 26 25  0  0  1  0  0  0  0  0999 V2000
   15.2850  -21.1428  -15.1206 C   0  0  0  0  0  0  0  0  0  0  0  0
   16.1630  -22.3313  -15.4598 C   0  0  1  0  0  0  0  0  0  0  0  0
   16.5743  -22.3440  -16.8948 C   0  0  0  0  0  0  0  0  0  0  0  0
   17.3209  -22.2904  -14.4993 C   0  0  2  0  0  0  0  0  0  0  0  0
   16.7919  -22.4434  -13.1656 N   0  0  0  0  0  0  0  0  0  0  0  0
   18.1333  -21.0768  -14.5956 C   0  0  0  0  0  0  0  0  0  0  0  0
   17.8192  -20.0520  -13.9190 O   0  0  0  0  0  0  0  0  0  0  0  0
   25.7384  -22.0422  -12.8968 N   0  0  0  0  0  0  0  0  0  0  0  0
   24.9115  -21.4291  -11.9312 C   0  0  0  0  0  0  0  0  0  0  0  0
   25.3753  -21.1869  -10.7626 N   0  0  0  0  0  0  0  0  0  0  0  0
   23.5504  -21.0768  -12.2582 N   0  0  0  0  0  0  0  0  0  0  0  0
   23.0714  -21.4017  -13.5660 C   0  0  0  0  0  0  0  0  0  0  0  0
   21.6559  -20.8476  -13.7456 C   0  0  0  0  0  0  0  0  0  0  0  0
   21.5130  -20.2670  -15.1045 C   0  0  0  0  0  0  0  0  0  0  0  0
   20.1337  -19.7551  -15.4281 C   0  0  2  0  0  0  0  0  0  0  0  0
   19.2795  -20.9701  -15.4185 N   0  0  0  0  0  0  0  0  0  0  0  0
   20.0538  -19.0811  -16.7232 C   0  0  0  0  0  0  0  0  0  0  0  0
   20.2363  -19.7956  -17.7689 O   0  0  0  0  0  0  0  0  0  0  0  0
   24.8270  -20.8330   -9.9656 C   0  0  0  0  0  0  0  0  0  0  0  0
   17.2141  -17.0336  -18.4418 C   0  0  2  0  0  0  0  0  0  0  0  0
   18.5107  -16.2633  -18.4449 O   0  0  0  0  0  0  0  0  0  0  0  0
   18.4857  -15.3933  -17.3561 C   0  0  2  0  0  0  0  0  0  0  0  0
   19.7113  -17.1685  -18.2734 N   0  0  0  0  0  0  0  0  0  0  0  0
   19.7874  -17.7043  -16.9287 C   0  0  0  0  0  0  0  0  0  0  0  0
   20.9756  -16.4650  -18.6296 O   0  0  0  0  0  0  0  0  0  0  0  0
   21.9080  -16.3564  -17.7937 O   0  0  0  0  0  0  0  0  0  0  0  0
  2  3  1  6
  2  1  1  0
  4  2  1  0
  4  5  1  1
  6  4  1  0
  6  7  2  0
  9  8  1  0
 10  9  2  0
 11  9  1  0
 12 11  1  0
 13 12  1  0
 13 14  1  0
 15 14  1  6
 16 15  1  0
 16  6  1  0
 17 15  1  0
 18 17  2  0
 20 19  1  6
 20 22  1  0
 21 20  1  0
 22 24  1  0
 22 23  1  6
 23 17  1  0
 24 26  1  0
 25 24  2  0
M  END
$$$$
