VRT.pdb
     RDKit          3D

 26 25  0  0  1  0  0  0  0  0999 V2000
   43.2015  -16.0818   -8.0571 C   0  0  0  0  0  0  0  0  0  0  0  0
   43.7251  -15.7904   -9.4497 C   0  0  1  0  0  0  0  0  0  0  0  0
   43.9200  -17.0317  -10.2558 C   0  0  0  0  0  0  0  0  0  0  0  0
   42.7625  -14.8127  -10.0682 C   0  0  2  0  0  0  0  0  0  0  0  0
   43.2660  -14.4663  -11.3753 N   0  0  0  0  0  0  0  0  0  0  0  0
   42.5374  -13.6090   -9.2668 C   0  0  0  0  0  0  0  0  0  0  0  0
   41.9198  -13.6922   -8.1631 O   0  0  0  0  0  0  0  0  0  0  0  0
   48.6438   -9.8408   -6.0323 N   0  0  0  0  0  0  0  0  0  0  0  0
   47.9330  -10.8134   -5.2969 C   0  0  0  0  0  0  0  0  0  0  0  0
   48.4190  -11.2564   -4.1983 N   0  0  0  0  0  0  0  0  0  0  0  0
   46.6653  -11.3065   -5.7797 N   0  0  0  0  0  0  0  0  0  0  0  0
   46.1345  -10.7287   -6.9755 C   0  0  0  0  0  0  0  0  0  0  0  0
   44.7573  -11.3295   -7.2674 C   0  0  0  0  0  0  0  0  0  0  0  0
   44.1625  -10.6668   -8.4554 C   0  0  0  0  0  0  0  0  0  0  0  0
   42.7694  -11.1251   -8.7996 C   0  0  2  0  0  0  0  0  0  0  0  0
   42.9771  -12.3212   -9.6552 N   0  0  0  0  0  0  0  0  0  0  0  0
   41.9851  -10.1156   -9.5095 C   0  0  0  0  0  0  0  0  0  0  0  0
   42.2531   -9.9271  -10.7464 O   0  0  0  0  0  0  0  0  0  0  0  0
   47.9950  -11.9895   -3.6120 C   0  0  0  0  0  0  0  0  0  0  0  0
   38.1139   -9.6769   -9.8623 C   0  0  2  0  0  0  0  0  0  0  0  0
   38.7586   -8.3652   -9.4904 O   0  0  0  0  0  0  0  0  0  0  0  0
   38.5961   -8.1911   -8.1169 C   0  0  2  0  0  0  0  0  0  0  0  0
   40.2451   -8.3605   -9.7744 N   0  0  0  0  0  0  0  0  0  0  0  0
   40.9479   -9.3261   -8.9530 C   0  0  0  0  0  0  0  0  0  0  0  0
   40.8262   -6.9999   -9.5973 O   0  0  0  0  0  0  0  0  0  0  0  0
   40.4320   -6.0362  -10.3014 O   0  0  0  0  0  0  0  0  0  0  0  0
  2  3  1  6
  2  1  1  0
  4  2  1  0
  4  5  1  6
  6  4  1  0
  6  7  2  0
  9  8  1  0
 10  9  2  0
 11  9  1  0
 12 11  1  0
 13 12  1  0
 13 14  1  0
 15 14  1  6
 16 15  1  0
 16  6  1  0
 17 15  1  0
 18 17  2  0
 20 19  1  6
 20 22  1  0
 21 20  1  0
 22 24  1  0
 22 23  1  6
 23 17  1  0
 24 26  1  0
 25 24  2  0
M  END
$$$$
