VRT.pdb
     RDKit          3D

 26 25  0  0  1  0  0  0  0  0999 V2000
   23.5060  -10.4048  -14.8725 C   0  0  0  0  0  0  0  0  0  0  0  0
   22.8502  -11.4672  -15.7325 C   0  0  1  0  0  0  0  0  0  0  0  0
   23.6146  -12.7495  -15.7348 C   0  0  0  0  0  0  0  0  0  0  0  0
   21.4380  -11.6059  -15.2310 C   0  0  2  0  0  0  0  0  0  0  0  0
   20.7390  -12.4969  -16.1251 N   0  0  0  0  0  0  0  0  0  0  0  0
   20.7221  -10.3356  -15.1052 C   0  0  0  0  0  0  0  0  0  0  0  0
   20.2214   -9.7891  -16.1334 O   0  0  0  0  0  0  0  0  0  0  0  0
   14.8283   -9.2742   -9.5308 N   0  0  0  0  0  0  0  0  0  0  0  0
   14.4877   -9.7376  -10.8197 C   0  0  0  0  0  0  0  0  0  0  0  0
   13.3160  -10.2070  -11.0345 N   0  0  0  0  0  0  0  0  0  0  0  0
   15.4542   -9.6832  -11.8904 N   0  0  0  0  0  0  0  0  0  0  0  0
   16.7476   -9.1477  -11.5973 C   0  0  0  0  0  0  0  0  0  0  0  0
   17.5767   -9.0783  -12.8820 C   0  0  0  0  0  0  0  0  0  0  0  0
   18.9237   -8.5314  -12.5808 C   0  0  0  0  0  0  0  0  0  0  0  0
   19.8189   -8.3676  -13.7812 C   0  0  2  0  0  0  0  0  0  0  0  0
   20.5474   -9.6585  -13.8750 N   0  0  0  0  0  0  0  0  0  0  0  0
   20.7594   -7.2549  -13.6564 C   0  0  0  0  0  0  0  0  0  0  0  0
   21.6345   -7.3277  -12.7257 O   0  0  0  0  0  0  0  0  0  0  0  0
   12.9643  -10.5380  -11.9443 C   0  0  0  0  0  0  0  0  0  0  0  0
   23.2017   -5.7529  -16.2705 C   0  0  2  0  0  0  0  0  0  0  0  0
   22.4211   -4.6508  -15.5991 O   0  0  0  0  0  0  0  0  0  0  0  0
   21.3651   -4.3094  -16.4425 C   0  0  2  0  0  0  0  0  0  0  0  0
   21.8228   -5.0974  -14.2827 N   0  0  0  0  0  0  0  0  0  0  0  0
   20.7943   -6.1000  -14.4772 C   0  0  0  0  0  0  0  0  0  0  0  0
   21.2877   -3.9406  -13.5107 O   0  0  0  0  0  0  0  0  0  0  0  0
   22.0463   -3.0093  -13.1402 O   0  0  0  0  0  0  0  0  0  0  0  0
  2  3  1  1
  2  1  1  0
  4  2  1  0
  4  5  1  6
  6  4  1  0
  6  7  2  0
  9  8  1  0
 10  9  2  0
 11  9  1  0
 12 11  1  0
 13 12  1  0
 13 14  1  0
 15 14  1  1
 16 15  1  0
 16  6  1  0
 17 15  1  0
 18 17  2  0
 20 19  1  6
 20 22  1  0
 21 20  1  0
 22 24  1  0
 22 23  1  1
 23 17  1  0
 24 26  1  0
 25 24  2  0
M  END
$$$$
