KAS.pdb
     RDKit          3D

 21 20  0  0  1  0  0  0  0  0999 V2000
   15.1870  -10.6974  -11.1423 N   0  0  0  0  0  0  0  0  0  0  0  0
   15.9984   -9.5225  -10.9279 C   0  0  1  0  0  0  0  0  0  0  0  0
   16.5893   -8.9423  -12.1641 C   0  0  0  0  0  0  0  0  0  0  0  0
   17.3848   -9.8416  -13.0248 C   0  0  0  0  0  0  0  0  0  0  0  0
   17.9458   -9.2554  -14.2721 C   0  0  0  0  0  0  0  0  0  0  0  0
   18.7056  -10.3368  -15.0558 C   0  0  0  0  0  0  0  0  0  0  0  0
   19.0807   -9.8312  -16.3462 N   0  0  0  0  0  0  0  0  0  0  0  0
   15.1619   -8.4570  -10.3083 C   0  0  0  0  0  0  0  0  0  0  0  0
   13.9880   -8.3202  -10.7318 O   0  0  0  0  0  0  0  0  0  0  0  0
   15.2111   -6.5330   -7.2040 C   0  0  0  0  0  0  0  0  0  0  0  0
   14.8548   -6.5367   -8.6957 C   0  0  2  0  0  0  0  0  0  0  0  0
   15.6190   -7.6135   -9.2895 N   0  0  0  0  0  0  0  0  0  0  0  0
   15.2271   -5.2479   -9.3266 C   0  0  0  0  0  0  0  0  0  0  0  0
   16.4153   -5.0537   -9.7199 O   0  0  0  0  0  0  0  0  0  0  0  0
   12.2976   -2.4287  -10.0126 O   0  0  0  0  0  0  0  0  0  0  0  0
   13.3977   -2.4205  -10.8520 C   0  0  0  0  0  0  0  0  0  0  0  0
   14.6291   -2.9352  -10.1447 C   0  0  2  0  0  0  0  0  0  0  0  0
   14.2994   -4.2060   -9.5132 N   0  0  0  0  0  0  0  0  0  0  0  0
   15.1267   -1.9950   -9.1222 C   0  0  0  0  0  0  0  0  0  0  0  0
   15.6842   -0.7811   -9.4762 O   0  0  0  0  0  0  0  0  0  0  0  0
   15.0522   -2.2825   -7.9046 O   0  0  0  0  0  0  0  0  0  0  0  0
  2  1  1  6
  3  2  1  0
  4  3  1  0
  5  6  1  0
  5  4  1  0
  7  6  1  0
  8  2  1  0
  8  9  2  0
 11 10  1  1
 11 12  1  0
 12  8  1  0
 13 11  1  0
 14 13  2  0
 15 16  1  0
 17 18  1  0
 17 16  1  1
 18 13  1  0
 19 17  1  0
 20 19  1  0
 21 19  2  0
M  END
$$$$
