KAS.pdb
     RDKit          3D

 21 20  0  0  1  0  0  0  0  0999 V2000
   14.4454  -15.7011  -13.7152 N   0  0  0  0  0  0  0  0  0  0  0  0
   13.9215  -14.4424  -14.1908 C   0  0  1  0  0  0  0  0  0  0  0  0
   13.3315  -13.5769  -13.1340 C   0  0  0  0  0  0  0  0  0  0  0  0
   12.1886  -14.1185  -12.3706 C   0  0  0  0  0  0  0  0  0  0  0  0
   11.5768  -13.2235  -11.3513 C   0  0  0  0  0  0  0  0  0  0  0  0
   10.2862  -13.8597  -10.8121 C   0  0  0  0  0  0  0  0  0  0  0  0
    9.7180  -13.0220   -9.7938 N   0  0  0  0  0  0  0  0  0  0  0  0
   15.0218  -13.6624  -14.8230 C   0  0  0  0  0  0  0  0  0  0  0  0
   16.1814  -13.8205  -14.3686 O   0  0  0  0  0  0  0  0  0  0  0  0
   15.3269  -11.5882  -17.8920 C   0  0  0  0  0  0  0  0  0  0  0  0
   15.8609  -11.9775  -16.5081 C   0  0  2  0  0  0  0  0  0  0  0  0
   14.8241  -12.7737  -15.8858 N   0  0  0  0  0  0  0  0  0  0  0  0
   16.1273  -10.7701  -15.6903 C   0  0  0  0  0  0  0  0  0  0  0  0
   15.2387  -10.3279  -14.9034 O   0  0  0  0  0  0  0  0  0  0  0  0
   19.4515   -7.8220  -13.8134 O   0  0  0  0  0  0  0  0  0  0  0  0
   19.1189   -8.8920  -14.6255 C   0  0  0  0  0  0  0  0  0  0  0  0
   17.6451   -8.8907  -14.9556 C   0  0  2  0  0  0  0  0  0  0  0  0
   17.3504  -10.0763  -15.7494 N   0  0  0  0  0  0  0  0  0  0  0  0
   17.2356   -7.6866  -15.7038 C   0  0  0  0  0  0  0  0  0  0  0  0
   16.7586   -6.5658  -15.0512 O   0  0  0  0  0  0  0  0  0  0  0  0
   17.3136   -7.6583  -16.9543 O   0  0  0  0  0  0  0  0  0  0  0  0
  2  1  1  1
  3  2  1  0
  4  3  1  0
  5  6  1  0
  5  4  1  0
  7  6  1  0
  8  2  1  0
  8  9  2  0
 11 10  1  6
 11 12  1  0
 12  8  1  0
 13 11  1  0
 14 13  2  0
 15 16  1  0
 17 18  1  0
 17 16  1  6
 18 13  1  0
 19 17  1  0
 20 19  1  0
 21 19  2  0
M  END
$$$$
