KAS.pdb
     RDKit          3D

 21 20  0  0  1  0  0  0  0  0999 V2000
   20.0590  -27.9459  -10.4034 N   0  0  0  0  0  0  0  0  0  0  0  0
   19.3458  -26.9518  -11.1702 C   0  0  1  0  0  0  0  0  0  0  0  0
   19.1836  -25.6399  -10.4871 C   0  0  0  0  0  0  0  0  0  0  0  0
   18.3115  -25.5967   -9.2954 C   0  0  0  0  0  0  0  0  0  0  0  0
   18.9862  -25.5171   -7.9716 C   0  0  0  0  0  0  0  0  0  0  0  0
   17.9338  -25.3598   -6.8631 C   0  0  0  0  0  0  0  0  0  0  0  0
   18.5811  -25.2780   -5.5841 N   0  0  0  0  0  0  0  0  0  0  0  0
   20.0834  -26.6901  -12.4376 C   0  0  0  0  0  0  0  0  0  0  0  0
   21.3378  -26.6802  -12.3882 O   0  0  0  0  0  0  0  0  0  0  0  0
   19.3717  -27.1900  -15.9312 C   0  0  0  0  0  0  0  0  0  0  0  0
   20.1277  -26.3036  -14.9338 C   0  0  2  0  0  0  0  0  0  0  0  0
   19.4501  -26.4581  -13.6638 N   0  0  0  0  0  0  0  0  0  0  0  0
   20.0851  -24.8836  -15.3575 C   0  0  0  0  0  0  0  0  0  0  0  0
   19.1386  -24.1348  -14.9732 O   0  0  0  0  0  0  0  0  0  0  0  0
   23.4527  -23.0155  -16.6430 O   0  0  0  0  0  0  0  0  0  0  0  0
   22.3688  -22.2890  -16.1823 C   0  0  0  0  0  0  0  0  0  0  0  0
   21.0652  -22.9216  -16.6087 C   0  0  2  0  0  0  0  0  0  0  0  0
   21.0708  -24.3160  -16.1864 N   0  0  0  0  0  0  0  0  0  0  0  0
   20.8555  -22.8529  -18.0677 C   0  0  0  0  0  0  0  0  0  0  0  0
   20.8422  -23.9960  -18.8439 O   0  0  0  0  0  0  0  0  0  0  0  0
   20.6844  -21.7478  -18.6337 O   0  0  0  0  0  0  0  0  0  0  0  0
  2  1  1  1
  3  2  1  0
  4  3  1  0
  5  6  1  0
  5  4  1  0
  7  6  1  0
  8  2  1  0
  8  9  2  0
 11 10  1  6
 11 12  1  0
 12  8  1  0
 13 11  1  0
 14 13  2  0
 15 16  1  0
 17 18  1  0
 17 16  1  6
 18 13  1  0
 19 17  1  0
 20 19  1  0
 21 19  2  0
M  END
$$$$
