KAS.pdb
     RDKit          3D

 21 20  0  0  1  0  0  0  0  0999 V2000
   21.1605  -15.9883  -15.5102 N   0  0  0  0  0  0  0  0  0  0  0  0
   22.4724  -16.2821  -14.9834 C   0  0  1  0  0  0  0  0  0  0  0  0
   22.8099  -17.7303  -14.9307 C   0  0  0  0  0  0  0  0  0  0  0  0
   21.6889  -18.6918  -14.9666 C   0  0  0  0  0  0  0  0  0  0  0  0
   20.9667  -18.8339  -16.2598 C   0  0  0  0  0  0  0  0  0  0  0  0
   19.9633  -19.9940  -16.1672 C   0  0  0  0  0  0  0  0  0  0  0  0
   19.2996  -20.1666  -17.4287 N   0  0  0  0  0  0  0  0  0  0  0  0
   23.5009  -15.6302  -15.8413 C   0  0  0  0  0  0  0  0  0  0  0  0
   23.3141  -15.6418  -17.0827 O   0  0  0  0  0  0  0  0  0  0  0  0
   26.6857  -13.7868  -15.1514 C   0  0  0  0  0  0  0  0  0  0  0  0
   25.7203  -14.4595  -16.1350 C   0  0  2  0  0  0  0  0  0  0  0  0
   24.6500  -15.0140  -15.3331 N   0  0  0  0  0  0  0  0  0  0  0  0
   26.4031  -15.5430  -16.8815 C   0  0  0  0  0  0  0  0  0  0  0  0
   26.6981  -16.6276  -16.2977 O   0  0  0  0  0  0  0  0  0  0  0  0
   26.9169  -18.2874  -20.4752 O   0  0  0  0  0  0  0  0  0  0  0  0
   26.3492  -17.2856  -19.7077 C   0  0  0  0  0  0  0  0  0  0  0  0
   27.4077  -16.4688  -19.0051 C   0  0  2  0  0  0  0  0  0  0  0  0
   26.7468  -15.4192  -18.2408 N   0  0  0  0  0  0  0  0  0  0  0  0
   28.3668  -15.8589  -19.9461 C   0  0  0  0  0  0  0  0  0  0  0  0
   29.4127  -16.5897  -20.4766 O   0  0  0  0  0  0  0  0  0  0  0  0
   28.2492  -14.6578  -20.2840 O   0  0  0  0  0  0  0  0  0  0  0  0
  2  1  1  6
  3  2  1  0
  4  3  1  0
  5  6  1  0
  5  4  1  0
  7  6  1  0
  8  2  1  0
  8  9  2  0
 11 10  1  1
 11 12  1  0
 12  8  1  0
 13 11  1  0
 14 13  2  0
 15 16  1  0
 17 18  1  0
 17 16  1  6
 18 13  1  0
 19 17  1  0
 20 19  1  0
 21 19  2  0
M  END
$$$$
