KAS.pdb
     RDKit          3D

 21 20  0  0  1  0  0  0  0  0999 V2000
   18.0568  -11.4963  -16.4578 N   0  0  0  0  0  0  0  0  0  0  0  0
   19.3172  -10.7989  -16.5575 C   0  0  1  0  0  0  0  0  0  0  0  0
   19.7234  -10.4467  -17.9448 C   0  0  0  0  0  0  0  0  0  0  0  0
   20.0783  -11.5569  -18.8524 C   0  0  0  0  0  0  0  0  0  0  0  0
   20.4374  -11.1938  -20.2501 C   0  0  0  0  0  0  0  0  0  0  0  0
   20.7450  -12.4673  -21.0528 C   0  0  0  0  0  0  0  0  0  0  0  0
   20.9936  -12.1301  -22.4261 N   0  0  0  0  0  0  0  0  0  0  0  0
   19.2309   -9.5218  -15.7956 C   0  0  0  0  0  0  0  0  0  0  0  0
   18.1799   -8.8454  -15.9128 O   0  0  0  0  0  0  0  0  0  0  0  0
   21.1524   -8.0227  -13.0112 C   0  0  0  0  0  0  0  0  0  0  0  0
   20.2025   -7.8226  -14.1985 C   0  0  2  0  0  0  0  0  0  0  0  0
   20.2544   -9.0486  -14.9667 N   0  0  0  0  0  0  0  0  0  0  0  0
   20.6454   -6.6837  -15.0378 C   0  0  0  0  0  0  0  0  0  0  0  0
   21.4857   -6.8693  -15.9672 O   0  0  0  0  0  0  0  0  0  0  0  0
   18.8707   -2.9100  -14.6085 O   0  0  0  0  0  0  0  0  0  0  0  0
   19.3144   -3.3555  -15.8412 C   0  0  0  0  0  0  0  0  0  0  0  0
   20.5234   -4.2493  -15.6969 C   0  0  2  0  0  0  0  0  0  0  0  0
   20.1640   -5.3752  -14.8451 N   0  0  0  0  0  0  0  0  0  0  0  0
   21.6802   -3.5435  -15.1132 C   0  0  0  0  0  0  0  0  0  0  0  0
   22.3811   -2.5972  -15.8362 O   0  0  0  0  0  0  0  0  0  0  0  0
   22.0510   -3.7915  -13.9419 O   0  0  0  0  0  0  0  0  0  0  0  0
  2  1  1  6
  3  2  1  0
  4  3  1  0
  5  6  1  0
  5  4  1  0
  7  6  1  0
  8  2  1  0
  8  9  2  0
 11 10  1  1
 11 12  1  0
 12  8  1  0
 13 11  1  0
 14 13  2  0
 15 16  1  0
 17 18  1  0
 17 16  1  1
 18 13  1  0
 19 17  1  0
 20 19  1  0
 21 19  2  0
M  END
$$$$
