KAS.pdb
     RDKit          3D

 21 20  0  0  1  0  0  0  0  0999 V2000
   25.3268  -20.9915  -10.0068 N   0  0  0  0  0  0  0  0  0  0  0  0
   24.0147  -21.0236  -10.6086 C   0  0  1  0  0  0  0  0  0  0  0  0
   22.9809  -20.2348   -9.8854 C   0  0  0  0  0  0  0  0  0  0  0  0
   21.7114  -20.9155   -9.5581 C   0  0  0  0  0  0  0  0  0  0  0  0
   21.6251  -21.5720   -8.2255 C   0  0  0  0  0  0  0  0  0  0  0  0
   20.2658  -22.2739   -8.0815 C   0  0  0  0  0  0  0  0  0  0  0  0
   20.1610  -22.8718   -6.7804 N   0  0  0  0  0  0  0  0  0  0  0  0
   24.0957  -20.4671  -11.9879 C   0  0  0  0  0  0  0  0  0  0  0  0
   24.6490  -19.3494  -12.1317 O   0  0  0  0  0  0  0  0  0  0  0  0
   24.0801  -21.7368  -15.3662 C   0  0  0  0  0  0  0  0  0  0  0  0
   23.6010  -20.5944  -14.4621 C   0  0  2  0  0  0  0  0  0  0  0  0
   23.5900  -21.1247  -13.1150 N   0  0  0  0  0  0  0  0  0  0  0  0
   22.2355  -20.1614  -14.8436 C   0  0  0  0  0  0  0  0  0  0  0  0
   21.3104  -20.1442  -13.9788 O   0  0  0  0  0  0  0  0  0  0  0  0
   21.2832  -16.1752  -16.2264 O   0  0  0  0  0  0  0  0  0  0  0  0
   21.9230  -17.3635  -15.9209 C   0  0  0  0  0  0  0  0  0  0  0  0
   21.1619  -18.5498  -16.4640 C   0  0  2  0  0  0  0  0  0  0  0  0
   21.9123  -19.7593  -16.1531 N   0  0  0  0  0  0  0  0  0  0  0  0
   20.9514  -18.4655  -17.9220 C   0  0  0  0  0  0  0  0  0  0  0  0
   19.7636  -17.9943  -18.4480 O   0  0  0  0  0  0  0  0  0  0  0  0
   21.8530  -18.8226  -18.7159 O   0  0  0  0  0  0  0  0  0  0  0  0
  2  1  1  1
  3  2  1  0
  4  3  1  0
  5  6  1  0
  5  4  1  0
  7  6  1  0
  8  2  1  0
  8  9  2  0
 11 10  1  6
 11 12  1  0
 12  8  1  0
 13 11  1  0
 14 13  2  0
 15 16  1  0
 17 18  1  0
 17 16  1  6
 18 13  1  0
 19 17  1  0
 20 19  1  0
 21 19  2  0
M  END
$$$$
