KAS.pdb
     RDKit          3D

 21 20  0  0  1  0  0  0  0  0999 V2000
   18.1763  -13.0835  -15.3987 N   0  0  0  0  0  0  0  0  0  0  0  0
   18.5269  -11.9688  -16.2468 C   0  0  1  0  0  0  0  0  0  0  0  0
   17.3833  -11.0982  -16.6318 C   0  0  0  0  0  0  0  0  0  0  0  0
   16.3826  -11.6612  -17.5613 C   0  0  0  0  0  0  0  0  0  0  0  0
   14.9547  -11.5541  -17.1568 C   0  0  0  0  0  0  0  0  0  0  0  0
   14.0558  -12.0776  -18.2878 C   0  0  0  0  0  0  0  0  0  0  0  0
   12.6753  -11.9002  -17.9354 N   0  0  0  0  0  0  0  0  0  0  0  0
   19.5081  -11.1028  -15.5352 C   0  0  0  0  0  0  0  0  0  0  0  0
   19.1894  -10.6769  -14.3981 O   0  0  0  0  0  0  0  0  0  0  0  0
   23.0946  -10.3070  -16.0643 C   0  0  0  0  0  0  0  0  0  0  0  0
   21.7630   -9.9742  -15.3801 C   0  0  2  0  0  0  0  0  0  0  0  0
   20.7518  -10.7476  -16.0695 N   0  0  0  0  0  0  0  0  0  0  0  0
   21.4592   -8.5282  -15.4999 C   0  0  0  0  0  0  0  0  0  0  0  0
   20.8677   -8.0871  -16.5294 O   0  0  0  0  0  0  0  0  0  0  0  0
   21.7046   -4.1619  -13.3125 O   0  0  0  0  0  0  0  0  0  0  0  0
   21.9805   -5.5178  -13.3064 C   0  0  0  0  0  0  0  0  0  0  0  0
   21.5241   -6.1746  -14.5877 C   0  0  2  0  0  0  0  0  0  0  0  0
   21.8058   -7.6012  -14.4991 N   0  0  0  0  0  0  0  0  0  0  0  0
   22.1946   -5.6163  -15.7777 C   0  0  0  0  0  0  0  0  0  0  0  0
   21.5741   -4.6708  -16.5717 O   0  0  0  0  0  0  0  0  0  0  0  0
   23.3480   -5.9924  -16.0923 O   0  0  0  0  0  0  0  0  0  0  0  0
  2  1  1  1
  3  2  1  0
  4  3  1  0
  5  6  1  0
  5  4  1  0
  7  6  1  0
  8  2  1  0
  8  9  2  0
 11 10  1  6
 11 12  1  0
 12  8  1  0
 13 11  1  0
 14 13  2  0
 15 16  1  0
 17 18  1  0
 17 16  1  1
 18 13  1  0
 19 17  1  0
 20 19  1  0
 21 19  2  0
M  END
$$$$
