KAS.pdb
     RDKit          3D

 21 20  0  0  1  0  0  0  0  0999 V2000
   13.3329   -8.1921   -8.8927 N   0  0  0  0  0  0  0  0  0  0  0  0
   14.6024   -8.6867   -9.3705 C   0  0  1  0  0  0  0  0  0  0  0  0
   14.5039   -9.7669  -10.3891 C   0  0  0  0  0  0  0  0  0  0  0  0
   13.8808  -11.0399   -9.9727 C   0  0  0  0  0  0  0  0  0  0  0  0
   13.8355  -12.1289  -10.9857 C   0  0  0  0  0  0  0  0  0  0  0  0
   13.0896  -13.3419  -10.4084 C   0  0  0  0  0  0  0  0  0  0  0  0
   13.0739  -14.4079  -11.3701 N   0  0  0  0  0  0  0  0  0  0  0  0
   15.3575   -7.5676  -10.0000 C   0  0  0  0  0  0  0  0  0  0  0  0
   14.7170   -6.7739  -10.7319 O   0  0  0  0  0  0  0  0  0  0  0  0
   18.2922   -5.6227   -9.3562 C   0  0  0  0  0  0  0  0  0  0  0  0
   17.5135   -6.3367  -10.4680 C   0  0  2  0  0  0  0  0  0  0  0  0
   16.7296   -7.3637   -9.8147 N   0  0  0  0  0  0  0  0  0  0  0  0
   18.4421   -6.9565  -11.4433 C   0  0  0  0  0  0  0  0  0  0  0  0
   19.0698   -8.0136  -11.1385 O   0  0  0  0  0  0  0  0  0  0  0  0
   17.7025   -7.3874  -15.2693 O   0  0  0  0  0  0  0  0  0  0  0  0
   18.9139   -6.7422  -15.0930 C   0  0  0  0  0  0  0  0  0  0  0  0
   19.5008   -7.0423  -13.7341 C   0  0  2  0  0  0  0  0  0  0  0  0
   18.6636   -6.4118  -12.7220 N   0  0  0  0  0  0  0  0  0  0  0  0
   20.8862   -6.5532  -13.5974 C   0  0  0  0  0  0  0  0  0  0  0  0
   21.9653   -7.3839  -13.8319 O   0  0  0  0  0  0  0  0  0  0  0  0
   21.1111   -5.3663  -13.2635 O   0  0  0  0  0  0  0  0  0  0  0  0
  2  1  1  6
  3  2  1  0
  4  3  1  0
  5  6  1  0
  5  4  1  0
  7  6  1  0
  8  2  1  0
  8  9  2  0
 11 10  1  1
 11 12  1  0
 12  8  1  0
 13 11  1  0
 14 13  2  0
 15 16  1  0
 17 18  1  0
 17 16  1  6
 18 13  1  0
 19 17  1  0
 20 19  1  0
 21 19  2  0
M  END
$$$$
