RER.pdb
     RDKit          3D

 32 31  0  0  1  0  0  0  0  0999 V2000
   33.0486  -25.8191  -18.0542 N   0  0  0  0  0  0  0  0  0  0  0  0
   32.6788  -25.6257  -16.6856 C   0  0  0  0  0  0  0  0  0  0  0  0
   33.2564  -26.2626  -15.7418 N   0  0  0  0  0  0  0  0  0  0  0  0
   31.6627  -24.7062  -16.3751 N   0  0  0  0  0  0  0  0  0  0  0  0
   30.9398  -23.9602  -17.3586 C   0  0  0  0  0  0  0  0  0  0  0  0
   29.9460  -23.0495  -16.7296 C   0  0  0  0  0  0  0  0  0  0  0  0
   28.5729  -23.5824  -16.5230 C   0  0  0  0  0  0  0  0  0  0  0  0
   27.6081  -22.3843  -16.5243 C   0  0  2  0  0  0  0  0  0  0  0  0
   28.3086  -21.1253  -16.6008 N   0  0  0  0  0  0  0  0  0  0  0  0
   26.6383  -22.4524  -15.4062 C   0  0  0  0  0  0  0  0  0  0  0  0
   25.9060  -23.4728  -15.3264 O   0  0  0  0  0  0  0  0  0  0  0  0
   32.9784  -26.1440  -14.7653 N   0  0  0  0  0  0  0  0  0  0  0  0
   26.5118  -21.4190  -14.4404 C   0  0  1  0  0  0  0  0  0  0  0  0
   25.5728  -21.4686  -13.3646 C   0  0  0  0  0  0  0  0  0  0  0  0
   26.0221  -20.9132  -12.0623 C   0  0  0  0  0  0  0  0  0  0  0  0
   25.0402  -21.1056  -10.9372 C   0  0  0  0  0  0  0  0  0  0  0  0
   25.6400  -20.5791   -9.6891 O   0  0  0  0  0  0  0  0  0  0  0  0
   26.6297  -19.8125   -9.7812 C   0  0  0  0  0  0  0  0  0  0  0  0
   24.3793  -20.6395  -13.7810 O   0  0  0  0  0  0  0  0  0  0  0  0
   24.4715  -19.7516  -14.6643 O   0  0  0  0  0  0  0  0  0  0  0  0
   25.1357  -20.9175   -8.4595 N   0  0  0  0  0  0  0  0  0  0  0  0
   21.7832  -24.4971  -19.2760 C   0  0  0  0  0  0  0  0  0  0  0  0
   22.1737  -23.1216  -19.1521 N   0  0  0  0  0  0  0  0  0  0  0  0
   22.8434  -22.5196  -20.0602 N   0  0  0  0  0  0  0  0  0  0  0  0
   21.8051  -22.4033  -17.9900 C   0  0  0  0  0  0  0  0  0  0  0  0
   20.9314  -22.9834  -16.9830 C   0  0  0  0  0  0  0  0  0  0  0  0
   20.7395  -21.9031  -15.9326 C   0  0  0  0  0  0  0  0  0  0  0  0
   21.9590  -21.7738  -15.0765 C   0  0  1  0  0  0  0  0  0  0  0  0
   21.8589  -20.7404  -13.9874 N   0  0  0  0  0  0  0  0  0  0  0  0
   23.1045  -20.8173  -13.2002 C   0  0  0  0  0  0  0  0  0  0  0  0
   20.6904  -21.0125  -13.1229 O   0  0  0  0  0  0  0  0  0  0  0  0
   20.8276  -21.4437  -11.8157 O   0  0  0  0  0  0  0  0  0  0  0  0
  1  2  1  0
  2  3  2  0
  4  2  1  0
  4  5  1  0
  6  5  1  0
  7  8  1  0
  7  6  1  0
  8  9  1  1
 10  8  1  0
 11 10  2  0
 12 10  1  0
 13 18  1  0
 13 12  1  0
 13 14  1  1
 15 16  1  0
 15 14  1  0
 16 20  1  0
 17 16  2  0
 18 19  2  0
 21 22  1  0
 22 24  1  0
 22 23  2  0
 24 25  1  0
 26 25  1  0
 27 26  1  0
 28 27  1  6
 29 18  1  0
 29 28  1  0
 30 28  1  0
 30 31  1  0
 32 30  2  0
M  END
$$$$
