RER.pdb
     RDKit          3D

 32 31  0  0  1  0  0  0  0  0999 V2000
   24.7359  -18.5656  -22.7399 N   0  0  0  0  0  0  0  0  0  0  0  0
   26.1443  -18.4516  -22.9657 C   0  0  0  0  0  0  0  0  0  0  0  0
   26.7327  -19.1354  -23.8691 N   0  0  0  0  0  0  0  0  0  0  0  0
   26.8928  -17.5590  -22.1800 N   0  0  0  0  0  0  0  0  0  0  0  0
   26.6414  -17.3203  -20.7922 C   0  0  0  0  0  0  0  0  0  0  0  0
   25.3569  -16.5986  -20.5876 C   0  0  0  0  0  0  0  0  0  0  0  0
   25.0620  -16.1152  -19.2122 C   0  0  0  0  0  0  0  0  0  0  0  0
   25.7244  -17.0939  -18.2274 C   0  0  2  0  0  0  0  0  0  0  0  0
   26.1922  -18.2899  -18.8850 N   0  0  0  0  0  0  0  0  0  0  0  0
   24.8634  -17.3654  -17.0525 C   0  0  0  0  0  0  0  0  0  0  0  0
   24.4269  -16.3787  -16.4048 O   0  0  0  0  0  0  0  0  0  0  0  0
   27.7340  -19.0375  -24.0497 N   0  0  0  0  0  0  0  0  0  0  0  0
   24.5234  -18.6818  -16.6423 C   0  0  2  0  0  0  0  0  0  0  0  0
   23.7863  -18.9606  -15.4505 C   0  0  0  0  0  0  0  0  0  0  0  0
   22.5377  -19.7497  -15.6089 C   0  0  0  0  0  0  0  0  0  0  0  0
   21.4586  -19.0479  -16.3899 C   0  0  0  0  0  0  0  0  0  0  0  0
   20.9199  -17.9413  -15.5653 O   0  0  0  0  0  0  0  0  0  0  0  0
   20.7392  -18.1450  -14.3400 C   0  0  0  0  0  0  0  0  0  0  0  0
   24.6865  -19.7815  -14.5556 O   0  0  0  0  0  0  0  0  0  0  0  0
   25.5440  -20.5676  -15.0287 O   0  0  0  0  0  0  0  0  0  0  0  0
   20.6203  -16.7226  -16.1184 N   0  0  0  0  0  0  0  0  0  0  0  0
   22.6281  -20.6833   -7.0970 C   0  0  0  0  0  0  0  0  0  0  0  0
   24.0285  -20.9778   -7.2072 N   0  0  0  0  0  0  0  0  0  0  0  0
   24.6989  -21.4705   -6.2358 N   0  0  0  0  0  0  0  0  0  0  0  0
   24.6923  -20.7191   -8.4296 C   0  0  0  0  0  0  0  0  0  0  0  0
   25.8208  -19.8053   -8.5031 C   0  0  0  0  0  0  0  0  0  0  0  0
   26.2431  -19.7889   -9.9621 C   0  0  0  0  0  0  0  0  0  0  0  0
   25.1026  -20.1774  -10.8482 C   0  0  2  0  0  0  0  0  0  0  0  0
   25.4874  -20.5034  -12.2659 N   0  0  0  0  0  0  0  0  0  0  0  0
   24.6100  -19.7095  -13.1474 C   0  0  0  0  0  0  0  0  0  0  0  0
   25.3070  -21.9470  -12.5312 O   0  0  0  0  0  0  0  0  0  0  0  0
   26.2758  -22.8804  -12.2092 O   0  0  0  0  0  0  0  0  0  0  0  0
  1  2  1  0
  2  3  2  0
  4  2  1  0
  4  5  1  0
  6  5  1  0
  7  8  1  0
  7  6  1  0
  8  9  1  6
 10  8  1  0
 11 10  2  0
 12 10  1  0
 13 18  1  0
 13 12  1  0
 13 14  1  1
 15 16  1  0
 15 14  1  0
 16 20  1  0
 17 16  2  0
 18 19  2  0
 21 22  1  0
 22 24  1  0
 22 23  2  0
 24 25  1  0
 26 25  1  0
 27 26  1  0
 28 27  1  1
 29 18  1  0
 29 28  1  0
 30 28  1  0
 30 31  1  0
 32 30  2  0
M  END
$$$$
