RER.pdb
     RDKit          3D

 32 31  0  0  1  0  0  0  0  0999 V2000
   24.0885  -20.8509   -8.8218 N   0  0  0  0  0  0  0  0  0  0  0  0
   25.3657  -20.3839   -8.3768 C   0  0  0  0  0  0  0  0  0  0  0  0
   25.7448  -20.5297   -7.1665 N   0  0  0  0  0  0  0  0  0  0  0  0
   26.2242  -19.7592   -9.2971 N   0  0  0  0  0  0  0  0  0  0  0  0
   25.9932  -19.7364  -10.7086 C   0  0  0  0  0  0  0  0  0  0  0  0
   26.9576  -20.6073  -11.4326 C   0  0  0  0  0  0  0  0  0  0  0  0
   26.8404  -20.6641  -12.9143 C   0  0  0  0  0  0  0  0  0  0  0  0
   25.6193  -21.5384  -13.2472 C   0  0  2  0  0  0  0  0  0  0  0  0
   25.9778  -22.9249  -13.4228 N   0  0  0  0  0  0  0  0  0  0  0  0
   24.8327  -20.9855  -14.3745 C   0  0  0  0  0  0  0  0  0  0  0  0
   25.3935  -20.9073  -15.4983 O   0  0  0  0  0  0  0  0  0  0  0  0
   26.6497  -20.1825   -6.8417 N   0  0  0  0  0  0  0  0  0  0  0  0
   23.4897  -20.5478  -14.2270 C   0  0  2  0  0  0  0  0  0  0  0  0
   22.6566  -20.2025  -15.3352 C   0  0  0  0  0  0  0  0  0  0  0  0
   21.1926  -20.3656  -15.1442 C   0  0  0  0  0  0  0  0  0  0  0  0
   20.8137  -21.4565  -14.1780 C   0  0  0  0  0  0  0  0  0  0  0  0
   20.1336  -20.8433  -13.0135 O   0  0  0  0  0  0  0  0  0  0  0  0
   20.1691  -19.5944  -12.8927 C   0  0  0  0  0  0  0  0  0  0  0  0
   22.8786  -18.7335  -15.6144 O   0  0  0  0  0  0  0  0  0  0  0  0
   22.7936  -17.8713  -14.7053 O   0  0  0  0  0  0  0  0  0  0  0  0
   19.4817  -21.6128  -12.0840 N   0  0  0  0  0  0  0  0  0  0  0  0
   27.8003  -19.7674  -16.5813 C   0  0  0  0  0  0  0  0  0  0  0  0
   27.9758  -18.6671  -17.4860 N   0  0  0  0  0  0  0  0  0  0  0  0
   28.6445  -18.7775  -18.5706 N   0  0  0  0  0  0  0  0  0  0  0  0
   27.3889  -17.4182  -17.1731 C   0  0  0  0  0  0  0  0  0  0  0  0
   25.9464  -17.2555  -17.0909 C   0  0  0  0  0  0  0  0  0  0  0  0
   25.4886  -16.9228  -18.5005 C   0  0  0  0  0  0  0  0  0  0  0  0
   24.0097  -16.7034  -18.5394 C   0  0  2  0  0  0  0  0  0  0  0  0
   23.3197  -16.8165  -17.2070 N   0  0  0  0  0  0  0  0  0  0  0  0
   23.1899  -18.2553  -16.9061 C   0  0  0  0  0  0  0  0  0  0  0  0
   21.9843  -16.1834  -17.2614 O   0  0  0  0  0  0  0  0  0  0  0  0
   20.8698  -16.8572  -17.7275 O   0  0  0  0  0  0  0  0  0  0  0  0
  1  2  1  0
  2  3  2  0
  4  2  1  0
  4  5  1  0
  6  5  1  0
  7  8  1  0
  7  6  1  0
  8  9  1  6
 10  8  1  0
 11 10  2  0
 12 10  1  0
 13 18  1  0
 13 12  1  0
 13 14  1  1
 15 16  1  0
 15 14  1  0
 16 20  1  0
 17 16  2  0
 18 19  2  0
 21 22  1  0
 22 24  1  0
 22 23  2  0
 24 25  1  0
 26 25  1  0
 27 26  1  0
 28 27  1  1
 29 18  1  0
 29 28  1  0
 30 28  1  0
 30 31  1  0
 32 30  2  0
M  END
$$$$
