RER.pdb
     RDKit          3D

 32 31  0  0  1  0  0  0  0  0999 V2000
   31.2815  -22.1873  -11.1542 N   0  0  0  0  0  0  0  0  0  0  0  0
   31.1592  -21.8908   -9.7598 C   0  0  0  0  0  0  0  0  0  0  0  0
   32.0122  -22.3154   -8.9100 N   0  0  0  0  0  0  0  0  0  0  0  0
   30.0798  -21.1064   -9.3194 N   0  0  0  0  0  0  0  0  0  0  0  0
   28.7115  -21.4030   -9.6126 C   0  0  0  0  0  0  0  0  0  0  0  0
   28.2932  -20.8148  -10.9132 C   0  0  0  0  0  0  0  0  0  0  0  0
   26.8646  -20.4253  -11.0535 C   0  0  0  0  0  0  0  0  0  0  0  0
   26.0216  -21.7042  -10.9109 C   0  0  2  0  0  0  0  0  0  0  0  0
   26.5457  -22.7892  -11.7044 N   0  0  0  0  0  0  0  0  0  0  0  0
   24.5809  -21.4469  -11.1421 C   0  0  0  0  0  0  0  0  0  0  0  0
   24.1613  -21.4848  -12.3279 O   0  0  0  0  0  0  0  0  0  0  0  0
   31.8880  -22.1696   -7.9059 N   0  0  0  0  0  0  0  0  0  0  0  0
   23.6762  -21.1628  -10.0849 C   0  0  1  0  0  0  0  0  0  0  0  0
   22.2572  -21.1653  -10.2518 C   0  0  0  0  0  0  0  0  0  0  0  0
   21.4411  -21.2511   -9.0137 C   0  0  0  0  0  0  0  0  0  0  0  0
   21.3138  -22.6427   -8.4532 C   0  0  0  0  0  0  0  0  0  0  0  0
   20.6923  -22.5583   -7.1111 O   0  0  0  0  0  0  0  0  0  0  0  0
   20.4227  -21.4224   -6.6500 C   0  0  0  0  0  0  0  0  0  0  0  0
   21.8865  -19.8531  -10.9044 O   0  0  0  0  0  0  0  0  0  0  0  0
   22.6709  -18.8724  -10.9012 O   0  0  0  0  0  0  0  0  0  0  0  0
   20.4175  -23.6870   -6.3820 N   0  0  0  0  0  0  0  0  0  0  0  0
   21.8673  -18.9425  -18.9903 C   0  0  0  0  0  0  0  0  0  0  0  0
   22.9308  -18.3732  -18.2126 N   0  0  0  0  0  0  0  0  0  0  0  0
   23.8245  -17.6189  -18.7305 N   0  0  0  0  0  0  0  0  0  0  0  0
   22.9947  -18.6503  -16.8265 C   0  0  0  0  0  0  0  0  0  0  0  0
   22.0907  -19.6005  -16.1989 C   0  0  0  0  0  0  0  0  0  0  0  0
   21.3141  -18.8069  -15.1623 C   0  0  0  0  0  0  0  0  0  0  0  0
   21.3210  -19.5101  -13.8424 C   0  0  2  0  0  0  0  0  0  0  0  0
   20.5031  -18.8449  -12.7687 N   0  0  0  0  0  0  0  0  0  0  0  0
   20.6440  -19.6610  -11.5474 C   0  0  0  0  0  0  0  0  0  0  0  0
   19.0824  -18.7710  -13.1727 O   0  0  0  0  0  0  0  0  0  0  0  0
   18.5226  -17.6139  -13.6837 O   0  0  0  0  0  0  0  0  0  0  0  0
  1  2  1  0
  2  3  2  0
  4  2  1  0
  4  5  1  0
  6  5  1  0
  7  8  1  0
  7  6  1  0
  8  9  1  6
 10  8  1  0
 11 10  2  0
 12 10  1  0
 13 18  1  0
 13 12  1  0
 13 14  1  6
 15 16  1  0
 15 14  1  0
 16 20  1  0
 17 16  2  0
 18 19  2  0
 21 22  1  0
 22 24  1  0
 22 23  2  0
 24 25  1  0
 26 25  1  0
 27 26  1  0
 28 27  1  1
 29 18  1  0
 29 28  1  0
 30 28  1  0
 30 31  1  0
 32 30  2  0
M  END
$$$$
