RER.pdb
     RDKit          3D

 32 31  0  0  1  0  0  0  0  0999 V2000
   29.1786  -22.1872  -16.7177 N   0  0  0  0  0  0  0  0  0  0  0  0
   28.1417  -21.3277  -17.2008 C   0  0  0  0  0  0  0  0  0  0  0  0
   27.6849  -21.4353  -18.3880 N   0  0  0  0  0  0  0  0  0  0  0  0
   27.6093  -20.3498  -16.3437 N   0  0  0  0  0  0  0  0  0  0  0  0
   27.9803  -20.2122  -14.9691 C   0  0  0  0  0  0  0  0  0  0  0  0
   26.9859  -20.8557  -14.0694 C   0  0  0  0  0  0  0  0  0  0  0  0
   25.7955  -20.0500  -13.6872 C   0  0  0  0  0  0  0  0  0  0  0  0
   24.8429  -20.9746  -12.9099 C   0  0  2  0  0  0  0  0  0  0  0  0
   24.9123  -22.3383  -13.3757 N   0  0  0  0  0  0  0  0  0  0  0  0
   23.4631  -20.4365  -12.8640 C   0  0  0  0  0  0  0  0  0  0  0  0
   22.8841  -20.4017  -11.7473 O   0  0  0  0  0  0  0  0  0  0  0  0
   26.9813  -20.7899  -18.7532 N   0  0  0  0  0  0  0  0  0  0  0  0
   22.7867  -19.9688  -14.0218 C   0  0  2  0  0  0  0  0  0  0  0  0
   21.4562  -19.4489  -13.9901 C   0  0  0  0  0  0  0  0  0  0  0  0
   21.0823  -18.5091  -15.0778 C   0  0  0  0  0  0  0  0  0  0  0  0
   19.6764  -17.9792  -14.9799 C   0  0  0  0  0  0  0  0  0  0  0  0
   19.4673  -16.9869  -16.0599 O   0  0  0  0  0  0  0  0  0  0  0  0
   19.0539  -15.8439  -15.7466 C   0  0  0  0  0  0  0  0  0  0  0  0
   20.5179  -20.6273  -14.1175 O   0  0  0  0  0  0  0  0  0  0  0  0
   20.9455  -21.7876  -14.3369 O   0  0  0  0  0  0  0  0  0  0  0  0
   19.7134  -17.3009  -17.3721 N   0  0  0  0  0  0  0  0  0  0  0  0
   18.6611  -24.4447   -7.5140 C   0  0  0  0  0  0  0  0  0  0  0  0
   17.6872  -25.0234   -8.3953 N   0  0  0  0  0  0  0  0  0  0  0  0
   16.9413  -25.9992   -8.0389 N   0  0  0  0  0  0  0  0  0  0  0  0
   17.5422  -24.4981   -9.7011 C   0  0  0  0  0  0  0  0  0  0  0  0
   18.3547  -23.3864  -10.1677 C   0  0  0  0  0  0  0  0  0  0  0  0
   17.8208  -23.0362  -11.5460 C   0  0  0  0  0  0  0  0  0  0  0  0
   18.7133  -22.0460  -12.2241 C   0  0  1  0  0  0  0  0  0  0  0  0
   18.2430  -21.5987  -13.5817 N   0  0  0  0  0  0  0  0  0  0  0  0
   19.1178  -20.4861  -13.9992 C   0  0  0  0  0  0  0  0  0  0  0  0
   16.8365  -21.1465  -13.5181 O   0  0  0  0  0  0  0  0  0  0  0  0
   15.7791  -21.9910  -13.8053 O   0  0  0  0  0  0  0  0  0  0  0  0
  1  2  1  0
  2  3  2  0
  4  2  1  0
  4  5  1  0
  6  5  1  0
  7  8  1  0
  7  6  1  0
  8  9  1  6
 10  8  1  0
 11 10  2  0
 12 10  1  0
 13 18  1  0
 13 12  1  0
 13 14  1  1
 15 16  1  0
 15 14  1  0
 16 20  1  0
 17 16  2  0
 18 19  2  0
 21 22  1  0
 22 24  1  0
 22 23  2  0
 24 25  1  0
 26 25  1  0
 27 26  1  0
 28 27  1  6
 29 18  1  0
 29 28  1  0
 30 28  1  0
 30 31  1  0
 32 30  2  0
M  END
$$$$
