RER.pdb
     RDKit          3D

 32 31  0  0  1  0  0  0  0  0999 V2000
   32.8047  -22.7699  -14.2396 N   0  0  0  0  0  0  0  0  0  0  0  0
   31.9750  -23.8576  -13.8202 C   0  0  0  0  0  0  0  0  0  0  0  0
   32.4446  -24.8321  -13.1422 N   0  0  0  0  0  0  0  0  0  0  0  0
   30.6106  -23.8457  -14.1556 N   0  0  0  0  0  0  0  0  0  0  0  0
   29.9714  -22.7658  -14.8421 C   0  0  0  0  0  0  0  0  0  0  0  0
   29.0597  -22.0111  -13.9412 C   0  0  0  0  0  0  0  0  0  0  0  0
   29.5967  -20.7739  -13.3141 C   0  0  0  0  0  0  0  0  0  0  0  0
   28.5012  -20.2110  -12.3924 C   0  0  2  0  0  0  0  0  0  0  0  0
   27.8724  -21.2440  -11.6055 N   0  0  0  0  0  0  0  0  0  0  0  0
   27.5366  -19.3634  -13.1316 C   0  0  0  0  0  0  0  0  0  0  0  0
   26.3327  -19.3895  -12.7661 O   0  0  0  0  0  0  0  0  0  0  0  0
   31.8770  -25.6517  -12.9161 N   0  0  0  0  0  0  0  0  0  0  0  0
   27.9228  -18.5385  -14.2212 C   0  0  2  0  0  0  0  0  0  0  0  0
   27.0216  -17.6488  -14.8825 C   0  0  0  0  0  0  0  0  0  0  0  0
   27.6150  -16.7148  -15.8735 C   0  0  0  0  0  0  0  0  0  0  0  0
   26.6322  -15.7445  -16.4732 C   0  0  0  0  0  0  0  0  0  0  0  0
   27.3795  -14.7452  -17.2717 O   0  0  0  0  0  0  0  0  0  0  0  0
   26.7356  -13.8136  -17.8132 C   0  0  0  0  0  0  0  0  0  0  0  0
   26.0411  -18.5040  -15.6522 O   0  0  0  0  0  0  0  0  0  0  0  0
   26.4095  -19.5352  -16.2670 O   0  0  0  0  0  0  0  0  0  0  0  0
   28.7399  -14.8292  -17.4237 N   0  0  0  0  0  0  0  0  0  0  0  0
   20.3691  -21.3579  -12.3450 C   0  0  0  0  0  0  0  0  0  0  0  0
   20.4575  -19.9256  -12.3754 N   0  0  0  0  0  0  0  0  0  0  0  0
   20.4404  -19.2197  -11.3091 N   0  0  0  0  0  0  0  0  0  0  0  0
   20.5703  -19.2693  -13.6238 C   0  0  0  0  0  0  0  0  0  0  0  0
   20.3149  -19.9654  -14.8744 C   0  0  0  0  0  0  0  0  0  0  0  0
   21.6786  -20.2009  -15.5006 C   0  0  0  0  0  0  0  0  0  0  0  0
   22.3777  -18.9028  -15.7518 C   0  0  2  0  0  0  0  0  0  0  0  0
   23.6997  -19.0247  -16.4600 N   0  0  0  0  0  0  0  0  0  0  0  0
   24.6662  -18.1891  -15.7217 C   0  0  0  0  0  0  0  0  0  0  0  0
   23.5822  -18.5561  -17.8577 O   0  0  0  0  0  0  0  0  0  0  0  0
   23.5270  -19.4340  -18.9252 O   0  0  0  0  0  0  0  0  0  0  0  0
  1  2  1  0
  2  3  2  0
  4  2  1  0
  4  5  1  0
  6  5  1  0
  7  8  1  0
  7  6  1  0
  8  9  1  6
 10  8  1  0
 11 10  2  0
 12 10  1  0
 13 18  1  0
 13 12  1  0
 13 14  1  1
 15 16  1  0
 15 14  1  0
 16 20  1  0
 17 16  2  0
 18 19  2  0
 21 22  1  0
 22 24  1  0
 22 23  2  0
 24 25  1  0
 26 25  1  0
 27 26  1  0
 28 27  1  1
 29 18  1  0
 29 28  1  0
 30 28  1  0
 30 31  1  0
 32 30  2  0
M  END
$$$$
