RER.pdb
     RDKit          3D

 32 31  0  0  1  0  0  0  0  0999 V2000
   33.1047  -25.0606  -15.5000 N   0  0  0  0  0  0  0  0  0  0  0  0
   33.1591  -24.8306  -16.9111 C   0  0  0  0  0  0  0  0  0  0  0  0
   33.9370  -25.5035  -17.6674 N   0  0  0  0  0  0  0  0  0  0  0  0
   32.3293  -23.8477  -17.4763 N   0  0  0  0  0  0  0  0  0  0  0  0
   31.0375  -23.5088  -16.9636 C   0  0  0  0  0  0  0  0  0  0  0  0
   30.1956  -24.7190  -16.7654 C   0  0  0  0  0  0  0  0  0  0  0  0
   28.7588  -24.5012  -16.4480 C   0  0  0  0  0  0  0  0  0  0  0  0
   28.5831  -23.0124  -16.1032 C   0  0  2  0  0  0  0  0  0  0  0  0
   29.7074  -22.4915  -15.3641 N   0  0  0  0  0  0  0  0  0  0  0  0
   27.2771  -22.7435  -15.4571 C   0  0  0  0  0  0  0  0  0  0  0  0
   26.2409  -23.1709  -16.0290 O   0  0  0  0  0  0  0  0  0  0  0  0
   34.0436  -25.2835  -18.6599 N   0  0  0  0  0  0  0  0  0  0  0  0
   27.1620  -22.0299  -14.2347 C   0  0  1  0  0  0  0  0  0  0  0  0
   25.9417  -21.9397  -13.4971 C   0  0  0  0  0  0  0  0  0  0  0  0
   26.0392  -21.4195  -12.1092 C   0  0  0  0  0  0  0  0  0  0  0  0
   24.7472  -21.4719  -11.3379 C   0  0  0  0  0  0  0  0  0  0  0  0
   24.9975  -20.9883   -9.9601 O   0  0  0  0  0  0  0  0  0  0  0  0
   26.1545  -20.6004   -9.6661 C   0  0  0  0  0  0  0  0  0  0  0  0
   25.0458  -20.9756  -14.2407 O   0  0  0  0  0  0  0  0  0  0  0  0
   25.4102  -19.8004  -14.4928 O   0  0  0  0  0  0  0  0  0  0  0  0
   23.9975  -20.9643   -9.0218 N   0  0  0  0  0  0  0  0  0  0  0  0
   18.9645  -22.0688  -20.5658 C   0  0  0  0  0  0  0  0  0  0  0  0
   18.8504  -20.7060  -20.1301 N   0  0  0  0  0  0  0  0  0  0  0  0
   18.1036  -19.8594  -20.7312 N   0  0  0  0  0  0  0  0  0  0  0  0
   19.5841  -20.2818  -18.9971 C   0  0  0  0  0  0  0  0  0  0  0  0
   20.5033  -21.1738  -18.3092 C   0  0  0  0  0  0  0  0  0  0  0  0
   21.0806  -20.3644  -17.1607 C   0  0  0  0  0  0  0  0  0  0  0  0
   22.1101  -21.1563  -16.4192 C   0  0  1  0  0  0  0  0  0  0  0  0
   22.8510  -20.3903  -15.3569 N   0  0  0  0  0  0  0  0  0  0  0  0
   23.7575  -21.3428  -14.6874 C   0  0  0  0  0  0  0  0  0  0  0  0
   21.9028  -19.8140  -14.3793 O   0  0  0  0  0  0  0  0  0  0  0  0
   21.3321  -18.5664  -14.5561 O   0  0  0  0  0  0  0  0  0  0  0  0
  1  2  1  0
  2  3  2  0
  4  2  1  0
  4  5  1  0
  6  5  1  0
  7  8  1  0
  7  6  1  0
  8  9  1  1
 10  8  1  0
 11 10  2  0
 12 10  1  0
 13 18  1  0
 13 12  1  0
 13 14  1  1
 15 16  1  0
 15 14  1  0
 16 20  1  0
 17 16  2  0
 18 19  2  0
 21 22  1  0
 22 24  1  0
 22 23  2  0
 24 25  1  0
 26 25  1  0
 27 26  1  0
 28 27  1  6
 29 18  1  0
 29 28  1  0
 30 28  1  0
 30 31  1  0
 32 30  2  0
M  END
$$$$
