CSH.pdb
     RDKit          3D

 23 23  0  0  1  0  0  0  0  0999 V2000
   17.2275  -11.5935  -15.5796 N   0  0  0  0  0  0  0  0  0  0  0  0
   18.0269  -10.6594  -16.3117 C   0  0  1  0  0  0  0  0  0  0  0  0
   17.2026   -9.8110  -17.2612 C   0  0  0  0  0  0  0  0  0  0  0  0
   16.7184  -10.7082  -18.7343 S   0  0  0  0  0  0  0  0  0  0  0  0
   18.7596   -9.7274  -15.3867 C   0  0  0  0  0  0  0  0  0  0  0  0
   18.1425   -9.0206  -14.5505 O   0  0  0  0  0  0  0  0  0  0  0  0
   22.9472   -9.5089  -15.6538 O   0  0  0  0  0  0  0  0  0  0  0  0
   22.3565   -9.3435  -14.4259 C   0  0  0  0  0  0  0  0  0  0  0  0
   20.9377   -8.7793  -14.5521 C   0  0  2  0  0  0  0  0  0  0  0  0
   20.1771   -9.6166  -15.4297 N   0  0  0  0  0  0  0  0  0  0  0  0
   20.9872   -7.3696  -15.0172 C   0  0  0  0  0  0  0  0  0  0  0  0
   21.0420   -7.1410  -16.2469 O   0  0  0  0  0  0  0  0  0  0  0  0
   20.9746   -6.2910  -14.1262 N   0  0  0  0  0  0  0  0  0  0  0  0
   21.0981   -4.8843  -14.5304 C   0  0  1  0  0  0  0  0  0  0  0  0
   19.9700   -4.0766  -14.0123 C   0  0  0  0  0  0  0  0  0  0  0  0
   18.7485   -4.2587  -14.7960 C   0  0  0  0  0  0  0  0  0  0  0  0
   18.7100   -4.3081  -16.1922 C   0  0  0  0  0  0  0  0  0  0  0  0
   17.4578   -4.4829  -16.6221 N   0  0  0  0  0  0  0  0  0  0  0  0
   16.6982   -4.5454  -15.5207 C   0  0  0  0  0  0  0  0  0  0  0  0
   17.4796   -4.4101  -14.4266 N   0  0  0  0  0  0  0  0  0  0  0  0
   22.4309   -4.4743  -14.0332 C   0  0  0  0  0  0  0  0  0  0  0  0
   23.1650   -3.4582  -14.5972 O   0  0  0  0  0  0  0  0  0  0  0  0
   22.9943   -5.0470  -13.0334 O   0  0  0  0  0  0  0  0  0  0  0  0
  2  1  1  1
  3  2  1  0
  4  3  1  0
  5  2  1  0
  5 10  1  0
  6  5  2  0
  7  8  1  0
  9 10  1  0
  9 11  1  0
  9  8  1  6
 11 13  1  0
 12 11  2  0
 13 14  1  0
 14 15  1  1
 15 16  1  0
 16 17  2  0
 17 18  1  0
 19 18  1  0
 20 16  1  0
 20 19  2  0
 21 22  1  0
 21 14  1  0
 23 21  2  0
M  END
$$$$
