CSH.pdb
     RDKit          3D

 23 23  0  0  1  0  0  0  0  0999 V2000
   16.4057   -9.7672  -10.5701 N   0  0  0  0  0  0  0  0  0  0  0  0
   16.9937   -9.6910  -11.8724 C   0  0  1  0  0  0  0  0  0  0  0  0
   15.9552   -9.5555  -12.9697 C   0  0  0  0  0  0  0  0  0  0  0  0
   14.8761  -10.9820  -13.0692 S   0  0  0  0  0  0  0  0  0  0  0  0
   17.9270   -8.5169  -11.9806 C   0  0  0  0  0  0  0  0  0  0  0  0
   17.6084   -7.3874  -11.5311 O   0  0  0  0  0  0  0  0  0  0  0  0
   21.5407   -9.0207  -14.0447 O   0  0  0  0  0  0  0  0  0  0  0  0
   21.5312   -8.1440  -12.9886 C   0  0  0  0  0  0  0  0  0  0  0  0
   20.1322   -7.5701  -12.7424 C   0  0  2  0  0  0  0  0  0  0  0  0
   19.2024   -8.6490  -12.5966 N   0  0  0  0  0  0  0  0  0  0  0  0
   19.7576   -6.6453  -13.8427 C   0  0  0  0  0  0  0  0  0  0  0  0
   19.1474   -7.1035  -14.8352 O   0  0  0  0  0  0  0  0  0  0  0  0
   20.0645   -5.2809  -13.8051 N   0  0  0  0  0  0  0  0  0  0  0  0
   19.7058   -4.3243  -14.8605 C   0  0  1  0  0  0  0  0  0  0  0  0
   19.1562   -3.0744  -14.2868 C   0  0  0  0  0  0  0  0  0  0  0  0
   18.8213   -2.0896  -15.3151 C   0  0  0  0  0  0  0  0  0  0  0  0
   19.7258   -1.1630  -15.8407 C   0  0  0  0  0  0  0  0  0  0  0  0
   19.1334   -0.3973  -16.7606 N   0  0  0  0  0  0  0  0  0  0  0  0
   17.8651   -0.8225  -16.8288 C   0  0  0  0  0  0  0  0  0  0  0  0
   17.6837   -1.8395  -15.9578 N   0  0  0  0  0  0  0  0  0  0  0  0
   20.9530   -4.1505  -15.6390 C   0  0  0  0  0  0  0  0  0  0  0  0
   20.9685   -3.7876  -16.9647 O   0  0  0  0  0  0  0  0  0  0  0  0
   22.1130   -4.3296  -15.1220 O   0  0  0  0  0  0  0  0  0  0  0  0
  2  1  1  1
  3  2  1  0
  4  3  1  0
  5  2  1  0
  5 10  1  0
  6  5  2  0
  7  8  1  0
  9 10  1  0
  9 11  1  0
  9  8  1  6
 11 13  1  0
 12 11  2  0
 13 14  1  0
 14 15  1  1
 15 16  1  0
 16 17  2  0
 17 18  1  0
 19 18  1  0
 20 16  1  0
 20 19  2  0
 21 22  1  0
 21 14  1  0
 23 21  2  0
M  END
$$$$
