CSH.pdb
     RDKit          3D

 23 23  0  0  1  0  0  0  0  0999 V2000
   20.6921  -16.6061  -14.9961 N   0  0  0  0  0  0  0  0  0  0  0  0
   20.8514  -15.5911  -15.9921 C   0  0  1  0  0  0  0  0  0  0  0  0
   19.5756  -15.3414  -16.7736 C   0  0  0  0  0  0  0  0  0  0  0  0
   18.8843  -16.8479  -17.4531 S   0  0  0  0  0  0  0  0  0  0  0  0
   21.2719  -14.2853  -15.3764 C   0  0  0  0  0  0  0  0  0  0  0  0
   20.5423  -13.6934  -14.5417 O   0  0  0  0  0  0  0  0  0  0  0  0
   24.7649  -12.3143  -16.7658 O   0  0  0  0  0  0  0  0  0  0  0  0
   24.4797  -12.3110  -15.4231 C   0  0  0  0  0  0  0  0  0  0  0  0
   22.9756  -12.4436  -15.1639 C   0  0  2  0  0  0  0  0  0  0  0  0
   22.5115  -13.6783  -15.7206 N   0  0  0  0  0  0  0  0  0  0  0  0
   22.2556  -11.2678  -15.7166 C   0  0  0  0  0  0  0  0  0  0  0  0
   21.8162  -11.3245  -16.8875 O   0  0  0  0  0  0  0  0  0  0  0  0
   22.0532  -10.1012  -14.9714 N   0  0  0  0  0  0  0  0  0  0  0  0
   21.3551   -8.9107  -15.4741 C   0  0  1  0  0  0  0  0  0  0  0  0
   19.9204   -9.1911  -15.7118 C   0  0  0  0  0  0  0  0  0  0  0  0
   19.1702   -7.9886  -16.0731 C   0  0  0  0  0  0  0  0  0  0  0  0
   19.1630   -7.4203  -17.3499 C   0  0  0  0  0  0  0  0  0  0  0  0
   18.3895   -6.3320  -17.3758 N   0  0  0  0  0  0  0  0  0  0  0  0
   17.9040   -6.1986  -16.1347 C   0  0  0  0  0  0  0  0  0  0  0  0
   18.3767   -7.1971  -15.3565 N   0  0  0  0  0  0  0  0  0  0  0  0
   21.6206   -7.8705  -14.4547 C   0  0  0  0  0  0  0  0  0  0  0  0
   21.6516   -6.5265  -14.7410 O   0  0  0  0  0  0  0  0  0  0  0  0
   21.8421   -8.1585  -13.2247 O   0  0  0  0  0  0  0  0  0  0  0  0
  2  1  1  1
  3  2  1  0
  4  3  1  0
  5  2  1  0
  5 10  1  0
  6  5  2  0
  7  8  1  0
  9 10  1  0
  9 11  1  0
  9  8  1  6
 11 13  1  0
 12 11  2  0
 13 14  1  0
 14 15  1  1
 15 16  1  0
 16 17  2  0
 17 18  1  0
 19 18  1  0
 20 16  1  0
 20 19  2  0
 21 22  1  0
 21 14  1  0
 23 21  2  0
M  END
$$$$
