CSH.pdb
     RDKit          3D

 23 23  0  0  1  0  0  0  0  0999 V2000
   21.4957  -14.3877  -20.1012 N   0  0  0  0  0  0  0  0  0  0  0  0
   20.4792  -13.6735  -19.3911 C   0  0  1  0  0  0  0  0  0  0  0  0
   19.7963  -14.5291  -18.3411 C   0  0  0  0  0  0  0  0  0  0  0  0
   18.8418  -15.8630  -19.0615 S   0  0  0  0  0  0  0  0  0  0  0  0
   21.0461  -12.4660  -18.6971 C   0  0  0  0  0  0  0  0  0  0  0  0
   22.2869  -12.2909  -18.6029 O   0  0  0  0  0  0  0  0  0  0  0  0
   21.3974   -8.1267  -18.8192 O   0  0  0  0  0  0  0  0  0  0  0  0
   21.0283   -9.4242  -19.0726 C   0  0  0  0  0  0  0  0  0  0  0  0
   20.6177  -10.1562  -17.7908 C   0  0  2  0  0  0  0  0  0  0  0  0
   20.1930  -11.4822  -18.1243 N   0  0  0  0  0  0  0  0  0  0  0  0
   19.5657   -9.3879  -17.0774 C   0  0  0  0  0  0  0  0  0  0  0  0
   18.3747   -9.5117  -17.4432 O   0  0  0  0  0  0  0  0  0  0  0  0
   19.8629   -8.5317  -16.0117 N   0  0  0  0  0  0  0  0  0  0  0  0
   19.0200   -8.3740  -14.8191 C   0  0  1  0  0  0  0  0  0  0  0  0
   18.7455   -9.6815  -14.1800 C   0  0  0  0  0  0  0  0  0  0  0  0
   17.9483   -9.5492  -12.9609 C   0  0  0  0  0  0  0  0  0  0  0  0
   17.3329   -8.3641  -12.5485 C   0  0  0  0  0  0  0  0  0  0  0  0
   16.6763   -8.5499  -11.4006 N   0  0  0  0  0  0  0  0  0  0  0  0
   16.8644   -9.8356  -11.0756 C   0  0  0  0  0  0  0  0  0  0  0  0
   17.6295  -10.4308  -12.0171 N   0  0  0  0  0  0  0  0  0  0  0  0
   19.7607   -7.4144  -13.9693 C   0  0  0  0  0  0  0  0  0  0  0  0
   21.0222   -6.9594  -14.2710 O   0  0  0  0  0  0  0  0  0  0  0  0
   19.2689   -6.9403  -12.8838 O   0  0  0  0  0  0  0  0  0  0  0  0
  2  1  1  1
  3  2  1  0
  4  3  1  0
  5  2  1  0
  5 10  1  0
  6  5  2  0
  7  8  1  0
  9 10  1  0
  9 11  1  0
  9  8  1  6
 11 13  1  0
 12 11  2  0
 13 14  1  0
 14 15  1  1
 15 16  1  0
 16 17  2  0
 17 18  1  0
 19 18  1  0
 20 16  1  0
 20 19  2  0
 21 22  1  0
 21 14  1  0
 23 21  2  0
M  END
$$$$
