CSH.pdb
     RDKit          3D

 23 23  0  0  1  0  0  0  0  0999 V2000
   28.8726  -11.1168  -17.8423 N   0  0  0  0  0  0  0  0  0  0  0  0
   27.7391  -11.9224  -18.1797 C   0  0  1  0  0  0  0  0  0  0  0  0
   27.7017  -13.2241  -17.4019 C   0  0  0  0  0  0  0  0  0  0  0  0
   29.0568  -14.3150  -17.8296 S   0  0  0  0  0  0  0  0  0  0  0  0
   26.4525  -11.1925  -17.9092 C   0  0  0  0  0  0  0  0  0  0  0  0
   26.2160  -10.6832  -16.7849 O   0  0  0  0  0  0  0  0  0  0  0  0
   23.6547  -10.5129  -21.0640 O   0  0  0  0  0  0  0  0  0  0  0  0
   23.8507   -9.6362  -20.0262 C   0  0  0  0  0  0  0  0  0  0  0  0
   24.2206  -10.3665  -18.7311 C   0  0  2  0  0  0  0  0  0  0  0  0
   25.4611  -11.0558  -18.9201 N   0  0  0  0  0  0  0  0  0  0  0  0
   23.1215  -11.2802  -18.3271 C   0  0  0  0  0  0  0  0  0  0  0  0
   23.2308  -12.5026  -18.5748 O   0  0  0  0  0  0  0  0  0  0  0  0
   21.9702  -10.8191  -17.6798 N   0  0  0  0  0  0  0  0  0  0  0  0
   20.8258  -11.6687  -17.3250 C   0  0  1  0  0  0  0  0  0  0  0  0
   21.0663  -12.3884  -16.0531 C   0  0  0  0  0  0  0  0  0  0  0  0
   19.8935  -13.1408  -15.6084 C   0  0  0  0  0  0  0  0  0  0  0  0
   19.5029  -14.3736  -16.1382 C   0  0  0  0  0  0  0  0  0  0  0  0
   18.3969  -14.8157  -15.5343 N   0  0  0  0  0  0  0  0  0  0  0  0
   18.0773  -13.8830  -14.6278 C   0  0  0  0  0  0  0  0  0  0  0  0
   18.9804  -12.8790  -14.6771 N   0  0  0  0  0  0  0  0  0  0  0  0
   19.6722  -10.7411  -17.3013 C   0  0  0  0  0  0  0  0  0  0  0  0
   18.3653  -11.1636  -17.3531 O   0  0  0  0  0  0  0  0  0  0  0  0
   19.8184   -9.4689  -17.2307 O   0  0  0  0  0  0  0  0  0  0  0  0
  2  1  1  1
  3  2  1  0
  4  3  1  0
  5  2  1  0
  5 10  1  0
  6  5  2  0
  7  8  1  0
  9 10  1  0
  9 11  1  0
  9  8  1  6
 11 13  1  0
 12 11  2  0
 13 14  1  0
 14 15  1  1
 15 16  1  0
 16 17  2  0
 17 18  1  0
 19 18  1  0
 20 16  1  0
 20 19  2  0
 21 22  1  0
 21 14  1  0
 23 21  2  0
M  END
$$$$
