TTL.pdb
     RDKit          3D

 23 22  0  0  1  0  0  0  0  0999 V2000
   16.9798  -15.9887  -14.8169 C   0  0  0  0  0  0  0  0  0  0  0  0
   18.1038  -15.0489  -15.1774 C   0  0  1  0  0  0  0  0  0  0  0  0
   19.3047  -15.6652  -14.8375 O   0  0  0  0  0  0  0  0  0  0  0  0
   18.0362  -14.7619  -16.6662 C   0  0  2  0  0  0  0  0  0  0  0  0
   18.2117  -15.9997  -17.3603 N   0  0  0  0  0  0  0  0  0  0  0  0
   19.0451  -13.7382  -17.0600 C   0  0  0  0  0  0  0  0  0  0  0  0
   20.2037  -14.0299  -17.4561 O   0  0  0  0  0  0  0  0  0  0  0  0
   17.9624   -9.5589  -17.1039 C   0  0  0  0  0  0  0  0  0  0  0  0
   18.9009  -10.1919  -18.1355 C   0  0  1  0  0  0  0  0  0  0  0  0
   19.6831   -9.2055  -18.6441 O   0  0  0  0  0  0  0  0  0  0  0  0
   19.6184  -11.3067  -17.4406 C   0  0  2  0  0  0  0  0  0  0  0  0
   18.7204  -12.3555  -16.9989 N   0  0  0  0  0  0  0  0  0  0  0  0
   20.5227  -10.8530  -16.3603 C   0  0  0  0  0  0  0  0  0  0  0  0
   20.0718  -10.9098  -15.1862 O   0  0  0  0  0  0  0  0  0  0  0  0
   26.4112  -11.2590  -15.4567 C   0  0  0  0  0  0  0  0  0  0  0  0
   25.2590  -10.4078  -15.0944 C   0  0  1  0  0  0  0  0  0  0  0  0
   25.6284   -8.9197  -15.0888 C   0  0  0  0  0  0  0  0  0  0  0  0
   24.0076  -10.6560  -15.8101 C   0  0  0  0  0  0  0  0  0  0  0  0
   22.7347   -9.9865  -15.4350 C   0  0  2  0  0  0  0  0  0  0  0  0
   21.8159  -10.3761  -16.5520 N   0  0  0  0  0  0  0  0  0  0  0  0
   22.7978   -8.5335  -15.3537 C   0  0  0  0  0  0  0  0  0  0  0  0
   22.7078   -7.7349  -16.3089 O   0  0  0  0  0  0  0  0  0  0  0  0
   22.9778   -7.8867  -14.0999 O   0  0  0  0  0  0  0  0  0  0  0  0
  2  1  1  6
  2  4  1  0
  3  2  1  0
  4  5  1  6
  6  4  1  0
  7  6  2  0
  9  8  1  1
  9 11  1  0
 10  9  1  0
 11 13  1  0
 11 12  1  1
 12  6  1  0
 13 20  1  0
 14 13  2  0
 16 15  1  6
 16 17  1  0
 18 16  1  0
 19 18  1  6
 19 21  1  0
 20 19  1  0
 21 22  2  0
 21 23  1  0
M  END
$$$$
