TTL.pdb
     RDKit          3D

 23 22  0  0  1  0  0  0  0  0999 V2000
   17.9536  -10.9596  -20.7574 C   0  0  0  0  0  0  0  0  0  0  0  0
   18.6726  -10.2684  -19.6251 C   0  0  1  0  0  0  0  0  0  0  0  0
   17.9251   -9.1526  -19.2594 O   0  0  0  0  0  0  0  0  0  0  0  0
   18.8055  -11.2431  -18.4694 C   0  0  2  0  0  0  0  0  0  0  0  0
   17.5019  -11.7482  -18.1690 N   0  0  0  0  0  0  0  0  0  0  0  0
   19.4515  -10.5940  -17.2937 C   0  0  0  0  0  0  0  0  0  0  0  0
   18.8005  -10.0815  -16.3462 O   0  0  0  0  0  0  0  0  0  0  0  0
   23.5316   -9.9161  -14.6296 C   0  0  0  0  0  0  0  0  0  0  0  0
   22.8732  -10.6559  -15.7979 C   0  0  1  0  0  0  0  0  0  0  0  0
   22.7995  -11.9706  -15.4670 O   0  0  0  0  0  0  0  0  0  0  0  0
   21.5689   -9.9712  -16.0631 C   0  0  2  0  0  0  0  0  0  0  0  0
   20.8687  -10.5311  -17.2023 N   0  0  0  0  0  0  0  0  0  0  0  0
   21.6732   -8.4968  -16.1403 C   0  0  0  0  0  0  0  0  0  0  0  0
   21.8920   -8.0056  -17.2787 O   0  0  0  0  0  0  0  0  0  0  0  0
   18.7903   -3.9268  -16.3617 C   0  0  0  0  0  0  0  0  0  0  0  0
   20.1621   -4.2699  -15.9329 C   0  0  1  0  0  0  0  0  0  0  0  0
   20.6891   -3.2954  -14.8729 C   0  0  0  0  0  0  0  0  0  0  0  0
   20.4053   -5.6636  -15.5610 C   0  0  0  0  0  0  0  0  0  0  0  0
   21.7475   -6.1499  -15.1469 C   0  0  2  0  0  0  0  0  0  0  0  0
   21.5477   -7.6317  -15.0575 N   0  0  0  0  0  0  0  0  0  0  0  0
   22.2185   -5.6532  -13.8612 C   0  0  0  0  0  0  0  0  0  0  0  0
   22.9715   -4.6747  -13.6774 O   0  0  0  0  0  0  0  0  0  0  0  0
   21.8265   -6.2914  -12.6521 O   0  0  0  0  0  0  0  0  0  0  0  0
  2  1  1  6
  2  4  1  0
  3  2  1  0
  4  5  1  1
  6  4  1  0
  7  6  2  0
  9  8  1  1
  9 11  1  0
 10  9  1  0
 11 13  1  0
 11 12  1  6
 12  6  1  0
 13 20  1  0
 14 13  2  0
 16 15  1  1
 16 17  1  0
 18 16  1  0
 19 18  1  1
 19 21  1  0
 20 19  1  0
 21 22  2  0
 21 23  1  0
M  END
$$$$
