TTL.pdb
     RDKit          3D

 23 22  0  0  1  0  0  0  0  0999 V2000
   28.9136  -20.9648  -13.6822 C   0  0  0  0  0  0  0  0  0  0  0  0
   28.2729  -20.1585  -14.7850 C   0  0  1  0  0  0  0  0  0  0  0  0
   28.7447  -20.6435  -16.0014 O   0  0  0  0  0  0  0  0  0  0  0  0
   26.7662  -20.3081  -14.6815 C   0  0  2  0  0  0  0  0  0  0  0  0
   26.1801  -19.6304  -15.7959 N   0  0  0  0  0  0  0  0  0  0  0  0
   26.2663  -19.7962  -13.3743 C   0  0  0  0  0  0  0  0  0  0  0  0
   26.2512  -18.5740  -13.0737 O   0  0  0  0  0  0  0  0  0  0  0  0
   23.1234  -19.6404  -12.2790 C   0  0  0  0  0  0  0  0  0  0  0  0
   23.6938  -20.4655  -11.1215 C   0  0  1  0  0  0  0  0  0  0  0  0
   23.2560  -21.7424  -11.2679 O   0  0  0  0  0  0  0  0  0  0  0  0
   25.1781  -20.2735  -11.1441 C   0  0  2  0  0  0  0  0  0  0  0  0
   25.7749  -20.7010  -12.3941 N   0  0  0  0  0  0  0  0  0  0  0  0
   25.8721  -20.8453   -9.9685 C   0  0  0  0  0  0  0  0  0  0  0  0
   26.2834  -22.0302  -10.0776 O   0  0  0  0  0  0  0  0  0  0  0  0
   29.0440  -20.7971   -5.4315 C   0  0  0  0  0  0  0  0  0  0  0  0
   27.9131  -19.8497   -5.5134 C   0  0  1  0  0  0  0  0  0  0  0  0
   28.2536  -18.4980   -4.8746 C   0  0  0  0  0  0  0  0  0  0  0  0
   27.2831  -19.6898   -6.8239 C   0  0  0  0  0  0  0  0  0  0  0  0
   26.6426  -20.8250   -7.5382 C   0  0  2  0  0  0  0  0  0  0  0  0
   26.0968  -20.1725   -8.7712 N   0  0  0  0  0  0  0  0  0  0  0  0
   25.5544  -21.4755   -6.8210 C   0  0  0  0  0  0  0  0  0  0  0  0
   24.3382  -21.2161   -6.9294 O   0  0  0  0  0  0  0  0  0  0  0  0
   25.8228  -22.5162   -5.8895 O   0  0  0  0  0  0  0  0  0  0  0  0
  2  1  1  1
  2  4  1  0
  3  2  1  0
  4  5  1  6
  6  4  1  0
  7  6  2  0
  9  8  1  6
  9 11  1  0
 10  9  1  0
 11 13  1  0
 11 12  1  6
 12  6  1  0
 13 20  1  0
 14 13  2  0
 16 15  1  6
 16 17  1  0
 18 16  1  0
 19 18  1  1
 19 21  1  0
 20 19  1  0
 21 22  2  0
 21 23  1  0
M  END
$$$$
