TTL.pdb
     RDKit          3D

 23 22  0  0  1  0  0  0  0  0999 V2000
   16.3409  -12.0873  -18.0445 C   0  0  0  0  0  0  0  0  0  0  0  0
   16.4371  -13.4129  -17.3300 C   0  0  1  0  0  0  0  0  0  0  0  0
   15.4915  -14.2699  -17.8858 O   0  0  0  0  0  0  0  0  0  0  0  0
   17.8427  -13.9573  -17.5070 C   0  0  2  0  0  0  0  0  0  0  0  0
   17.8418  -15.3220  -17.0801 N   0  0  0  0  0  0  0  0  0  0  0  0
   18.8348  -13.1277  -16.7664 C   0  0  0  0  0  0  0  0  0  0  0  0
   18.9001  -13.0906  -15.5099 O   0  0  0  0  0  0  0  0  0  0  0  0
   22.1354  -11.5360  -18.8305 C   0  0  0  0  0  0  0  0  0  0  0  0
   22.1468  -11.7576  -17.3151 C   0  0  1  0  0  0  0  0  0  0  0  0
   23.1240  -10.9752  -16.7894 O   0  0  0  0  0  0  0  0  0  0  0  0
   20.7571  -11.4886  -16.8285 C   0  0  2  0  0  0  0  0  0  0  0  0
   19.7687  -12.3266  -17.4784 N   0  0  0  0  0  0  0  0  0  0  0  0
   20.3814  -10.0572  -16.8554 C   0  0  0  0  0  0  0  0  0  0  0  0
   19.9296   -9.6131  -17.9433 O   0  0  0  0  0  0  0  0  0  0  0  0
   16.4513   -7.6162  -14.7644 C   0  0  0  0  0  0  0  0  0  0  0  0
   17.6121   -7.6809  -15.6764 C   0  0  1  0  0  0  0  0  0  0  0  0
   17.4701   -6.7055  -16.8509 C   0  0  0  0  0  0  0  0  0  0  0  0
   18.9368   -7.6034  -15.0608 C   0  0  0  0  0  0  0  0  0  0  0  0
   20.1874   -7.7199  -15.8557 C   0  0  2  0  0  0  0  0  0  0  0  0
   20.4923   -9.1844  -15.7772 N   0  0  0  0  0  0  0  0  0  0  0  0
   21.3232   -6.9676  -15.3403 C   0  0  0  0  0  0  0  0  0  0  0  0
   22.2963   -7.4347  -14.7133 O   0  0  0  0  0  0  0  0  0  0  0  0
   21.4041   -5.5604  -15.5295 O   0  0  0  0  0  0  0  0  0  0  0  0
  2  1  1  6
  2  4  1  0
  3  2  1  0
  4  5  1  1
  6  4  1  0
  7  6  2  0
  9  8  1  6
  9 11  1  0
 10  9  1  0
 11 13  1  0
 11 12  1  6
 12  6  1  0
 13 20  1  0
 14 13  2  0
 16 15  1  1
 16 17  1  0
 18 16  1  0
 19 18  1  1
 19 21  1  0
 20 19  1  0
 21 22  2  0
 21 23  1  0
M  END
$$$$
