TTL.pdb
     RDKit          3D

 23 22  0  0  1  0  0  0  0  0999 V2000
   11.8943   -9.6056  -14.0532 C   0  0  0  0  0  0  0  0  0  0  0  0
   13.3682   -9.8624  -14.2499 C   0  0  1  0  0  0  0  0  0  0  0  0
   13.7462  -10.8818  -13.3807 O   0  0  0  0  0  0  0  0  0  0  0  0
   13.6017  -10.2591  -15.6960 C   0  0  2  0  0  0  0  0  0  0  0  0
   12.8274  -11.4319  -15.9600 N   0  0  0  0  0  0  0  0  0  0  0  0
   15.0531  -10.4596  -15.9681 C   0  0  0  0  0  0  0  0  0  0  0  0
   15.6568  -11.5370  -15.7249 O   0  0  0  0  0  0  0  0  0  0  0  0
   16.6426  -10.0262  -19.2045 C   0  0  0  0  0  0  0  0  0  0  0  0
   17.4950   -9.1291  -18.3021 C   0  0  1  0  0  0  0  0  0  0  0  0
   17.2020   -7.8385  -18.6052 O   0  0  0  0  0  0  0  0  0  0  0  0
   17.2225   -9.5507  -16.8919 C   0  0  2  0  0  0  0  0  0  0  0  0
   15.8265   -9.4067  -16.5287 N   0  0  0  0  0  0  0  0  0  0  0  0
   18.1260   -8.9295  -15.8977 C   0  0  0  0  0  0  0  0  0  0  0  0
   17.6336   -8.0211  -15.1782 O   0  0  0  0  0  0  0  0  0  0  0  0
   22.1125   -9.3261  -12.2412 C   0  0  0  0  0  0  0  0  0  0  0  0
   22.5692   -9.3234  -13.6464 C   0  0  1  0  0  0  0  0  0  0  0  0
   23.7442  -10.2836  -13.8664 C   0  0  0  0  0  0  0  0  0  0  0  0
   21.5386   -9.4791  -14.6728 C   0  0  0  0  0  0  0  0  0  0  0  0
   20.3891   -8.5439  -14.7889 C   0  0  2  0  0  0  0  0  0  0  0  0
   19.4603   -9.2761  -15.7081 N   0  0  0  0  0  0  0  0  0  0  0  0
   20.7026   -7.2430  -15.3641 C   0  0  0  0  0  0  0  0  0  0  0  0
   20.9068   -6.9979  -16.5710 O   0  0  0  0  0  0  0  0  0  0  0  0
   20.8034   -6.0914  -14.5355 O   0  0  0  0  0  0  0  0  0  0  0  0
  2  1  1  6
  2  4  1  0
  3  2  1  0
  4  5  1  1
  6  4  1  0
  7  6  2  0
  9  8  1  6
  9 11  1  0
 10  9  1  0
 11 13  1  0
 11 12  1  1
 12  6  1  0
 13 20  1  0
 14 13  2  0
 16 15  1  1
 16 17  1  0
 18 16  1  0
 19 18  1  6
 19 21  1  0
 20 19  1  0
 21 22  2  0
 21 23  1  0
M  END
$$$$
