TTL.pdb
     RDKit          3D

 23 22  0  0  1  0  0  0  0  0999 V2000
   14.6009  -11.4973  -15.2092 C   0  0  0  0  0  0  0  0  0  0  0  0
   14.9494  -12.9322  -15.5201 C   0  0  1  0  0  0  0  0  0  0  0  0
   13.7989  -13.6985  -15.3571 O   0  0  0  0  0  0  0  0  0  0  0  0
   15.4619  -13.0077  -16.9466 C   0  0  2  0  0  0  0  0  0  0  0  0
   15.6207  -14.3882  -17.2836 N   0  0  0  0  0  0  0  0  0  0  0  0
   16.7251  -12.2325  -17.1030 C   0  0  0  0  0  0  0  0  0  0  0  0
   17.8294  -12.6140  -16.6348 O   0  0  0  0  0  0  0  0  0  0  0  0
   19.1240   -8.4797  -19.2141 C   0  0  0  0  0  0  0  0  0  0  0  0
   17.7871   -9.2206  -19.1171 C   0  0  1  0  0  0  0  0  0  0  0  0
   17.5363   -9.7830  -20.3272 O   0  0  0  0  0  0  0  0  0  0  0  0
   17.9005  -10.1677  -17.9635 C   0  0  2  0  0  0  0  0  0  0  0  0
   16.7226  -10.9984  -17.8085 N   0  0  0  0  0  0  0  0  0  0  0  0
   18.2976   -9.5181  -16.6943 C   0  0  0  0  0  0  0  0  0  0  0  0
   17.3856   -8.9397  -16.0472 O   0  0  0  0  0  0  0  0  0  0  0  0
   21.3136   -9.1640  -12.0815 C   0  0  0  0  0  0  0  0  0  0  0  0
   22.0271   -9.0547  -13.3708 C   0  0  1  0  0  0  0  0  0  0  0  0
   23.3995   -9.7369  -13.3231 C   0  0  0  0  0  0  0  0  0  0  0  0
   21.2764   -9.4239  -14.5708 C   0  0  0  0  0  0  0  0  0  0  0  0
   19.9741   -8.7954  -14.9146 C   0  0  2  0  0  0  0  0  0  0  0  0
   19.5895   -9.5040  -16.1770 N   0  0  0  0  0  0  0  0  0  0  0  0
   20.0239   -7.3619  -15.1680 C   0  0  0  0  0  0  0  0  0  0  0  0
   20.4884   -6.8065  -16.1849 O   0  0  0  0  0  0  0  0  0  0  0  0
   19.5139   -6.4406  -14.2120 O   0  0  0  0  0  0  0  0  0  0  0  0
  2  1  1  6
  2  4  1  0
  3  2  1  0
  4  5  1  1
  6  4  1  0
  7  6  2  0
  9  8  1  6
  9 11  1  0
 10  9  1  0
 11 13  1  0
 11 12  1  1
 12  6  1  0
 13 20  1  0
 14 13  2  0
 16 15  1  1
 16 17  1  0
 18 16  1  0
 19 18  1  6
 19 21  1  0
 20 19  1  0
 21 22  2  0
 21 23  1  0
M  END
$$$$
