TTL.pdb
     RDKit          3D

 23 22  0  0  1  0  0  0  0  0999 V2000
   16.6631  -12.8733  -18.8809 C   0  0  0  0  0  0  0  0  0  0  0  0
   16.1573  -11.5412  -18.3844 C   0  0  1  0  0  0  0  0  0  0  0  0
   14.7740  -11.6276  -18.2566 O   0  0  0  0  0  0  0  0  0  0  0  0
   16.8143  -11.2408  -17.0497 C   0  0  2  0  0  0  0  0  0  0  0  0
   15.7807  -11.1209  -16.0688 N   0  0  0  0  0  0  0  0  0  0  0  0
   17.6653  -10.0205  -17.1349 C   0  0  0  0  0  0  0  0  0  0  0  0
   18.6553   -9.9239  -17.9062 O   0  0  0  0  0  0  0  0  0  0  0  0
   16.4998   -6.5224  -17.7687 C   0  0  0  0  0  0  0  0  0  0  0  0
   17.2598   -6.4457  -16.4412 C   0  0  1  0  0  0  0  0  0  0  0  0
   16.3446   -6.3169  -15.4467 O   0  0  0  0  0  0  0  0  0  0  0  0
   18.1364   -7.6571  -16.3744 C   0  0  2  0  0  0  0  0  0  0  0  0
   17.3767   -8.8906  -16.3219 N   0  0  0  0  0  0  0  0  0  0  0  0
   19.1679   -7.5901  -15.3151 C   0  0  0  0  0  0  0  0  0  0  0  0
   19.0416   -8.3926  -14.3532 O   0  0  0  0  0  0  0  0  0  0  0  0
   22.6694   -9.0036  -12.4445 C   0  0  0  0  0  0  0  0  0  0  0  0
   23.0714   -8.6593  -13.8240 C   0  0  1  0  0  0  0  0  0  0  0  0
   23.7785   -9.8279  -14.5208 C   0  0  0  0  0  0  0  0  0  0  0  0
   22.0467   -8.0562  -14.6762 C   0  0  0  0  0  0  0  0  0  0  0  0
   21.3716   -6.7806  -14.3208 C   0  0  2  0  0  0  0  0  0  0  0  0
   20.2496   -6.7146  -15.3110 N   0  0  0  0  0  0  0  0  0  0  0  0
   22.1941   -5.5855  -14.4510 C   0  0  0  0  0  0  0  0  0  0  0  0
   22.3967   -4.9380  -15.4988 O   0  0  0  0  0  0  0  0  0  0  0  0
   22.8639   -5.0422  -13.3201 O   0  0  0  0  0  0  0  0  0  0  0  0
  2  1  1  1
  2  4  1  0
  3  2  1  0
  4  5  1  1
  6  4  1  0
  7  6  2  0
  9  8  1  6
  9 11  1  0
 10  9  1  0
 11 13  1  0
 11 12  1  1
 12  6  1  0
 13 20  1  0
 14 13  2  0
 16 15  1  1
 16 17  1  0
 18 16  1  0
 19 18  1  6
 19 21  1  0
 20 19  1  0
 21 22  2  0
 21 23  1  0
M  END
$$$$
