RPD.pdb
     RDKit          3D

 27 27  0  0  1  0  0  0  0  0999 V2000
    8.9129  -21.3630   20.4350 N   0  0  0  0  0  0  0  0  0  0  0  0
    8.6856  -21.5446   19.0531 C   0  0  0  0  0  0  0  0  0  0  0  0
    9.6082  -22.1839   18.3778 N   0  0  0  0  0  0  0  0  0  0  0  0
    7.5356  -21.0680   18.3830 N   0  0  0  0  0  0  0  0  0  0  0  0
    7.1062  -19.6937   18.6573 C   0  0  0  0  0  0  0  0  0  0  0  0
    7.8567  -18.7483   17.7909 C   0  0  0  0  0  0  0  0  0  0  0  0
    7.4940  -17.3304   18.0391 C   0  0  0  0  0  0  0  0  0  0  0  0
    8.1552  -16.2917   17.2150 C   0  0  2  0  0  0  0  0  0  0  0  0
    8.9814  -16.7852   16.1462 N   0  0  0  0  0  0  0  0  0  0  0  0
    9.0768  -15.5272   18.1344 C   0  0  0  0  0  0  0  0  0  0  0  0
   10.3430  -15.5985   17.9571 O   0  0  0  0  0  0  0  0  0  0  0  0
    9.5450  -22.2994   17.3470 N   0  0  0  0  0  0  0  0  0  0  0  0
    8.6225  -14.7213   19.1979 C   0  0  0  0  0  0  0  0  0  0  0  0
    7.2729  -14.5588   19.6579 C   0  0  0  0  0  0  0  0  0  0  0  0
    7.1573  -13.1231   20.1020 C   0  0  0  0  0  0  0  0  0  0  0  0
    8.5742  -12.6233   20.1730 C   0  0  1  0  0  0  0  0  0  0  0  0
    9.4730  -13.8663   20.0255 C   0  0  0  0  0  0  0  0  0  0  0  0
    9.5830  -14.4122   21.4027 O   0  0  0  0  0  0  0  0  0  0  0  0
   10.2342  -13.8196   22.3086 N   0  0  0  0  0  0  0  0  0  0  0  0
    8.9664  -15.6360   21.7981 C   0  0  1  0  0  0  0  0  0  0  0  0
    9.5722  -16.5647   22.6903 C   0  0  0  0  0  0  0  0  0  0  0  0
   10.3929  -17.6541   22.0370 C   0  0  0  0  0  0  0  0  0  0  0  0
    9.6393  -18.9550   22.0568 O   0  0  0  0  0  0  0  0  0  0  0  0
    8.5579  -19.0943   22.6817 C   0  0  0  0  0  0  0  0  0  0  0  0
   10.4086  -15.8329   23.6773 O   0  0  0  0  0  0  0  0  0  0  0  0
   10.2375  -16.0383   25.0290 O   0  0  0  0  0  0  0  0  0  0  0  0
   10.1099  -20.0926   21.3762 O   0  0  0  0  0  0  0  0  0  0  0  0
  2  1  1  0
  3  2  2  0
  4  2  1  0
  5  6  1  0
  5  4  1  0
  7  6  1  0
  8  7  1  0
  8  9  1  6
 10 12  1  0
 10  8  1  0
 11 10  2  0
 12 16  1  0
 13 12  1  0
 13 14  1  0
 14 15  1  0
 16 15  1  0
 16 17  1  1
 17 18  2  0
 19 17  1  0
 20 19  1  0
 20 21  1  6
 22 21  1  0
 22 23  2  0
 24 20  1  0
 24 25  1  0
 26 22  1  0
 27 24  2  0
M  END
$$$$
