RPD.pdb
     RDKit          3D

 27 27  0  0  1  0  0  0  0  0999 V2000
    9.6103  -17.0268   17.5352 N   0  0  0  0  0  0  0  0  0  0  0  0
    8.8783  -16.4729   16.4620 C   0  0  0  0  0  0  0  0  0  0  0  0
    8.3962  -17.3095   15.5768 N   0  0  0  0  0  0  0  0  0  0  0  0
    8.6580  -15.0856   16.3025 N   0  0  0  0  0  0  0  0  0  0  0  0
    7.7939  -14.4150   17.2782 C   0  0  0  0  0  0  0  0  0  0  0  0
    8.2659  -14.7094   18.6560 C   0  0  0  0  0  0  0  0  0  0  0  0
    7.4072  -14.0963   19.7003 C   0  0  0  0  0  0  0  0  0  0  0  0
    7.9158  -12.8907   20.3955 C   0  0  2  0  0  0  0  0  0  0  0  0
    8.9249  -12.1496   19.6875 N   0  0  0  0  0  0  0  0  0  0  0  0
    8.5672  -13.3658   21.6719 C   0  0  0  0  0  0  0  0  0  0  0  0
    9.8447  -13.4015   21.7505 O   0  0  0  0  0  0  0  0  0  0  0  0
    7.8547  -16.9776   14.7542 N   0  0  0  0  0  0  0  0  0  0  0  0
    7.8429  -13.7803   22.8079 C   0  0  0  0  0  0  0  0  0  0  0  0
    6.4179  -13.8075   22.9751 C   0  0  0  0  0  0  0  0  0  0  0  0
    6.1642  -13.4617   24.4200 C   0  0  0  0  0  0  0  0  0  0  0  0
    7.5069  -13.5769   25.0884 C   0  0  1  0  0  0  0  0  0  0  0  0
    8.4394  -14.2453   24.0598 C   0  0  0  0  0  0  0  0  0  0  0  0
    8.2104  -15.7020   24.2402 O   0  0  0  0  0  0  0  0  0  0  0  0
    7.4509  -16.3608   23.4754 N   0  0  0  0  0  0  0  0  0  0  0  0
    8.8264  -16.4556   25.2827 C   0  0  1  0  0  0  0  0  0  0  0  0
    9.9137  -17.3478   25.0654 C   0  0  0  0  0  0  0  0  0  0  0  0
   11.0505  -16.7976   24.2334 C   0  0  0  0  0  0  0  0  0  0  0  0
   12.1614  -17.8065   24.1398 O   0  0  0  0  0  0  0  0  0  0  0  0
   12.0818  -18.9431   24.6702 C   0  0  0  0  0  0  0  0  0  0  0  0
   10.4362  -17.8228   26.3734 O   0  0  0  0  0  0  0  0  0  0  0  0
   10.5523  -19.1709   26.6331 O   0  0  0  0  0  0  0  0  0  0  0  0
   13.3572  -17.5282   23.4533 O   0  0  0  0  0  0  0  0  0  0  0  0
  2  1  1  0
  3  2  2  0
  4  2  1  0
  5  6  1  0
  5  4  1  0
  7  6  1  0
  8  7  1  0
  8  9  1  6
 10 12  1  0
 10  8  1  0
 11 10  2  0
 12 16  1  0
 13 12  1  0
 13 14  1  0
 14 15  1  0
 16 15  1  0
 16 17  1  1
 17 18  2  0
 19 17  1  0
 20 19  1  0
 20 21  1  1
 22 21  1  0
 22 23  2  0
 24 20  1  0
 24 25  1  0
 26 22  1  0
 27 24  2  0
M  END
$$$$
