RPD.pdb
     RDKit          3D

 27 27  0  0  1  0  0  0  0  0999 V2000
    6.8107  -19.5192   19.3241 N   0  0  0  0  0  0  0  0  0  0  0  0
    7.8777  -19.3708   20.2373 C   0  0  0  0  0  0  0  0  0  0  0  0
    8.6913  -20.3886   20.3714 N   0  0  0  0  0  0  0  0  0  0  0  0
    8.0928  -18.2010   21.0014 N   0  0  0  0  0  0  0  0  0  0  0  0
    8.2240  -16.9305   20.2823 C   0  0  0  0  0  0  0  0  0  0  0  0
    7.0243  -16.0879   20.5243 C   0  0  0  0  0  0  0  0  0  0  0  0
    7.0348  -15.4447   21.8622 C   0  0  0  0  0  0  0  0  0  0  0  0
    7.3450  -13.9975   21.9327 C   0  0  2  0  0  0  0  0  0  0  0  0
    8.1064  -13.4751   20.8300 N   0  0  0  0  0  0  0  0  0  0  0  0
    8.1987  -13.7941   23.1611 C   0  0  0  0  0  0  0  0  0  0  0  0
    9.4742  -13.8056   23.0496 O   0  0  0  0  0  0  0  0  0  0  0  0
    9.5079  -20.3504   21.0130 N   0  0  0  0  0  0  0  0  0  0  0  0
    7.6695  -13.5864   24.4511 C   0  0  0  0  0  0  0  0  0  0  0  0
    6.2901  -13.4373   24.8173 C   0  0  0  0  0  0  0  0  0  0  0  0
    6.2684  -12.4462   25.9527 C   0  0  0  0  0  0  0  0  0  0  0  0
    7.7018  -12.3295   26.3936 C   0  0  2  0  0  0  0  0  0  0  0  0
    8.4631  -13.4589   25.6731 C   0  0  0  0  0  0  0  0  0  0  0  0
    8.2786  -14.6478   26.5444 O   0  0  0  0  0  0  0  0  0  0  0  0
    7.4614  -15.5678   26.2587 N   0  0  0  0  0  0  0  0  0  0  0  0
    9.0051  -14.8344   27.7575 C   0  0  1  0  0  0  0  0  0  0  0  0
   10.0596  -15.7794   27.9004 C   0  0  0  0  0  0  0  0  0  0  0  0
   11.1982  -15.6376   26.9152 C   0  0  0  0  0  0  0  0  0  0  0  0
   11.2067  -16.7989   25.9603 O   0  0  0  0  0  0  0  0  0  0  0  0
   11.5076  -16.6676   24.7472 C   0  0  0  0  0  0  0  0  0  0  0  0
   10.5900  -15.7266   29.2879 O   0  0  0  0  0  0  0  0  0  0  0  0
   10.7638  -16.8836   30.0155 O   0  0  0  0  0  0  0  0  0  0  0  0
   10.8720  -18.1004   26.3759 O   0  0  0  0  0  0  0  0  0  0  0  0
  2  1  1  0
  3  2  2  0
  4  2  1  0
  5  6  1  0
  5  4  1  0
  7  6  1  0
  8  7  1  0
  8  9  1  6
 10 12  1  0
 10  8  1  0
 11 10  2  0
 12 16  1  0
 13 12  1  0
 13 14  1  0
 14 15  1  0
 16 15  1  0
 16 17  1  1
 17 18  2  0
 19 17  1  0
 20 19  1  0
 20 21  1  1
 22 21  1  0
 22 23  2  0
 24 20  1  0
 24 25  1  0
 26 22  1  0
 27 24  2  0
M  END
$$$$
