RPD.pdb
     RDKit          3D

 27 27  0  0  1  0  0  0  0  0999 V2000
    7.8006  -12.4752   17.2805 N   0  0  0  0  0  0  0  0  0  0  0  0
    7.7896  -13.8835   17.1769 C   0  0  0  0  0  0  0  0  0  0  0  0
    8.3970  -14.4083   16.1417 N   0  0  0  0  0  0  0  0  0  0  0  0
    7.1569  -14.7294   18.1165 N   0  0  0  0  0  0  0  0  0  0  0  0
    6.7159  -14.1350   19.3816 C   0  0  0  0  0  0  0  0  0  0  0  0
    7.8875  -13.6015   20.1236 C   0  0  0  0  0  0  0  0  0  0  0  0
    8.0503  -14.2218   21.4624 C   0  0  0  0  0  0  0  0  0  0  0  0
    9.2069  -13.7985   22.2860 C   0  0  2  0  0  0  0  0  0  0  0  0
   10.4981  -14.1752   21.7766 N   0  0  0  0  0  0  0  0  0  0  0  0
    9.0682  -14.4904   23.6206 C   0  0  0  0  0  0  0  0  0  0  0  0
    9.9171  -15.3890   23.9545 O   0  0  0  0  0  0  0  0  0  0  0  0
    8.3550  -15.4281   15.9466 N   0  0  0  0  0  0  0  0  0  0  0  0
    8.0420  -14.2032   24.5434 C   0  0  0  0  0  0  0  0  0  0  0  0
    6.8550  -13.4286   24.3188 C   0  0  0  0  0  0  0  0  0  0  0  0
    6.5820  -12.7055   25.6128 C   0  0  0  0  0  0  0  0  0  0  0  0
    7.4674  -13.3766   26.6270 C   0  0  1  0  0  0  0  0  0  0  0  0
    8.0228  -14.6389   25.9395 C   0  0  0  0  0  0  0  0  0  0  0  0
    6.9754  -15.6707   26.1522 O   0  0  0  0  0  0  0  0  0  0  0  0
    5.9128  -15.6977   25.4696 N   0  0  0  0  0  0  0  0  0  0  0  0
    7.0931  -16.6969   27.1357 C   0  0  1  0  0  0  0  0  0  0  0  0
    7.7167  -17.9516   26.8862 C   0  0  0  0  0  0  0  0  0  0  0  0
    8.2965  -18.1259   25.5004 C   0  0  0  0  0  0  0  0  0  0  0  0
    8.9291  -19.4835   25.3689 O   0  0  0  0  0  0  0  0  0  0  0  0
    8.9072  -20.3268   26.3003 C   0  0  0  0  0  0  0  0  0  0  0  0
    8.7730  -18.1929   27.9037 O   0  0  0  0  0  0  0  0  0  0  0  0
    9.8463  -17.3361   28.0154 O   0  0  0  0  0  0  0  0  0  0  0  0
    9.5866  -19.8820   24.1909 O   0  0  0  0  0  0  0  0  0  0  0  0
  2  1  1  0
  3  2  2  0
  4  2  1  0
  5  6  1  0
  5  4  1  0
  7  6  1  0
  8  7  1  0
  8  9  1  6
 10 12  1  0
 10  8  1  0
 11 10  2  0
 12 16  1  0
 13 12  1  0
 13 14  1  0
 14 15  1  0
 16 15  1  0
 16 17  1  1
 17 18  2  0
 19 17  1  0
 20 19  1  0
 20 21  1  1
 22 21  1  0
 22 23  2  0
 24 20  1  0
 24 25  1  0
 26 22  1  0
 27 24  2  0
M  END
$$$$
