RPD.pdb
     RDKit          3D

 27 27  0  0  1  0  0  0  0  0999 V2000
    7.8919  -14.9743   17.2914 N   0  0  0  0  0  0  0  0  0  0  0  0
    8.0649  -13.6880   17.8479 C   0  0  0  0  0  0  0  0  0  0  0  0
    8.1147  -12.6804   17.0123 N   0  0  0  0  0  0  0  0  0  0  0  0
    8.1932  -13.4498   19.2356 N   0  0  0  0  0  0  0  0  0  0  0  0
    7.0431  -13.7581   20.0903 C   0  0  0  0  0  0  0  0  0  0  0  0
    6.9530  -15.2257   20.3044 C   0  0  0  0  0  0  0  0  0  0  0  0
    7.6650  -15.6721   21.5281 C   0  0  0  0  0  0  0  0  0  0  0  0
    8.8670  -14.9132   21.9460 C   0  0  2  0  0  0  0  0  0  0  0  0
   10.0988  -15.3158   21.3223 N   0  0  0  0  0  0  0  0  0  0  0  0
    9.0480  -15.1628   23.4239 C   0  0  0  0  0  0  0  0  0  0  0  0
   10.1019  -15.7618   23.8361 O   0  0  0  0  0  0  0  0  0  0  0  0
    8.2455  -11.7046   17.3450 N   0  0  0  0  0  0  0  0  0  0  0  0
    8.1109  -14.7686   24.4004 C   0  0  0  0  0  0  0  0  0  0  0  0
    6.8429  -14.1307   24.1891 C   0  0  0  0  0  0  0  0  0  0  0  0
    6.6548  -13.1892   25.3510 C   0  0  0  0  0  0  0  0  0  0  0  0
    7.7040  -13.5919   26.3509 C   0  0  1  0  0  0  0  0  0  0  0  0
    8.2870  -14.9252   25.8440 C   0  0  0  0  0  0  0  0  0  0  0  0
    7.3646  -15.9614   26.3752 O   0  0  0  0  0  0  0  0  0  0  0  0
    6.2142  -16.1482   25.8878 N   0  0  0  0  0  0  0  0  0  0  0  0
    7.7088  -16.8132   27.4661 C   0  0  2  0  0  0  0  0  0  0  0  0
    8.2214  -18.1303   27.2988 C   0  0  0  0  0  0  0  0  0  0  0  0
    8.6437  -18.4902   25.8919 C   0  0  0  0  0  0  0  0  0  0  0  0
    9.2085  -19.8832   25.8593 O   0  0  0  0  0  0  0  0  0  0  0  0
    8.6767  -20.8373   26.4807 C   0  0  0  0  0  0  0  0  0  0  0  0
    9.3588  -18.3434   28.2317 O   0  0  0  0  0  0  0  0  0  0  0  0
    9.2000  -19.1096   29.3657 O   0  0  0  0  0  0  0  0  0  0  0  0
   10.3713  -20.1928   25.1308 O   0  0  0  0  0  0  0  0  0  0  0  0
  2  1  1  0
  3  2  2  0
  4  2  1  0
  5  6  1  0
  5  4  1  0
  7  6  1  0
  8  7  1  0
  8  9  1  6
 10 12  1  0
 10  8  1  0
 11 10  2  0
 12 16  1  0
 13 12  1  0
 13 14  1  0
 14 15  1  0
 16 15  1  0
 16 17  1  6
 17 18  2  0
 19 17  1  0
 20 19  1  0
 20 21  1  1
 22 21  1  0
 22 23  2  0
 24 20  1  0
 24 25  1  0
 26 22  1  0
 27 24  2  0
M  END
$$$$
