RPD.pdb
     RDKit          3D

 27 27  0  0  1  0  0  0  0  0999 V2000
    9.6598  -14.6772   17.5942 N   0  0  0  0  0  0  0  0  0  0  0  0
    8.5824  -14.9103   16.7115 C   0  0  0  0  0  0  0  0  0  0  0  0
    8.6762  -14.3965   15.5102 N   0  0  0  0  0  0  0  0  0  0  0  0
    7.4304  -15.6493   17.0656 N   0  0  0  0  0  0  0  0  0  0  0  0
    7.3238  -16.1268   18.4472 C   0  0  0  0  0  0  0  0  0  0  0  0
    6.8147  -15.0370   19.3196 C   0  0  0  0  0  0  0  0  0  0  0  0
    7.8451  -14.5228   20.2563 C   0  0  0  0  0  0  0  0  0  0  0  0
    7.4826  -13.3783   21.1247 C   0  0  2  0  0  0  0  0  0  0  0  0
    7.7306  -12.0765   20.5657 N   0  0  0  0  0  0  0  0  0  0  0  0
    8.3497  -13.4741   22.3568 C   0  0  0  0  0  0  0  0  0  0  0  0
    9.6116  -13.2827   22.2542 O   0  0  0  0  0  0  0  0  0  0  0  0
    7.9670  -14.5957   14.7772 N   0  0  0  0  0  0  0  0  0  0  0  0
    7.8476  -13.7659   23.6413 C   0  0  0  0  0  0  0  0  0  0  0  0
    6.4870  -14.0371   24.0080 C   0  0  0  0  0  0  0  0  0  0  0  0
    6.3020  -13.4419   25.3804 C   0  0  0  0  0  0  0  0  0  0  0  0
    7.6943  -13.1412   25.8641 C   0  0  1  0  0  0  0  0  0  0  0  0
    8.6494  -13.8199   24.8634 C   0  0  0  0  0  0  0  0  0  0  0  0
    8.7682  -15.2182   25.3510 O   0  0  0  0  0  0  0  0  0  0  0  0
    7.7835  -16.0094   25.3639 N   0  0  0  0  0  0  0  0  0  0  0  0
    9.9934  -15.7635   25.8366 C   0  0  1  0  0  0  0  0  0  0  0  0
   10.1734  -17.1445   26.1291 C   0  0  0  0  0  0  0  0  0  0  0  0
   11.5036  -17.7301   25.7110 C   0  0  0  0  0  0  0  0  0  0  0  0
   11.9418  -17.1400   24.3994 O   0  0  0  0  0  0  0  0  0  0  0  0
   11.3148  -17.3434   23.3295 C   0  0  0  0  0  0  0  0  0  0  0  0
    9.9595  -17.3772   27.5815 O   0  0  0  0  0  0  0  0  0  0  0  0
    9.9791  -18.6551   28.0962 O   0  0  0  0  0  0  0  0  0  0  0  0
   13.0860  -16.3278   24.2994 O   0  0  0  0  0  0  0  0  0  0  0  0
  2  1  1  0
  3  2  2  0
  4  2  1  0
  5  6  1  0
  5  4  1  0
  7  6  1  0
  8  7  1  0
  8  9  1  6
 10 12  1  0
 10  8  1  0
 11 10  2  0
 12 16  1  0
 13 12  1  0
 13 14  1  0
 14 15  1  0
 16 15  1  0
 16 17  1  1
 17 18  2  0
 19 17  1  0
 20 19  1  0
 20 21  1  1
 22 21  1  0
 22 23  2  0
 24 20  1  0
 24 25  1  0
 26 22  1  0
 27 24  2  0
M  END
$$$$
