RPD.pdb
     RDKit          3D

 27 27  0  0  1  0  0  0  0  0999 V2000
    9.5996  -19.6180   17.9380 N   0  0  0  0  0  0  0  0  0  0  0  0
    9.5312  -20.2652   16.6847 C   0  0  0  0  0  0  0  0  0  0  0  0
   10.4778  -21.1274   16.4084 N   0  0  0  0  0  0  0  0  0  0  0  0
    8.5132  -20.0195   15.7350 N   0  0  0  0  0  0  0  0  0  0  0  0
    7.7097  -18.8041   15.8946 C   0  0  0  0  0  0  0  0  0  0  0  0
    8.5616  -17.6051   15.6842 C   0  0  0  0  0  0  0  0  0  0  0  0
    8.2243  -16.4920   16.6066 C   0  0  0  0  0  0  0  0  0  0  0  0
    9.0280  -15.2504   16.5172 C   0  0  2  0  0  0  0  0  0  0  0  0
   10.1595  -15.3101   15.6314 N   0  0  0  0  0  0  0  0  0  0  0  0
    9.5909  -14.9955   17.8946 C   0  0  0  0  0  0  0  0  0  0  0  0
   10.8336  -15.2108   18.1159 O   0  0  0  0  0  0  0  0  0  0  0  0
   10.4571  -21.6971   15.5395 N   0  0  0  0  0  0  0  0  0  0  0  0
    8.8192  -14.5240   18.9759 C   0  0  0  0  0  0  0  0  0  0  0  0
    7.4386  -14.1329   18.9607 C   0  0  0  0  0  0  0  0  0  0  0  0
    7.3222  -12.9878   19.9338 C   0  0  0  0  0  0  0  0  0  0  0  0
    8.6118  -13.0037   20.7081 C   0  0  1  0  0  0  0  0  0  0  0  0
    9.3161  -14.3230   20.3369 C   0  0  0  0  0  0  0  0  0  0  0  0
    8.7337  -15.3295   21.2614 O   0  0  0  0  0  0  0  0  0  0  0  0
    7.7997  -16.1030   20.9080 N   0  0  0  0  0  0  0  0  0  0  0  0
    9.1836  -15.4930   22.6049 C   0  0  1  0  0  0  0  0  0  0  0  0
   10.2628  -16.3458   22.9702 C   0  0  0  0  0  0  0  0  0  0  0  0
   11.5702  -16.0825   22.2572 C   0  0  0  0  0  0  0  0  0  0  0  0
   12.6400  -17.0021   22.7772 O   0  0  0  0  0  0  0  0  0  0  0  0
   13.6288  -16.5804   23.4282 C   0  0  0  0  0  0  0  0  0  0  0  0
   10.4733  -16.2797   24.4401 O   0  0  0  0  0  0  0  0  0  0  0  0
   10.7353  -15.0756   25.0565 O   0  0  0  0  0  0  0  0  0  0  0  0
   12.5924  -18.3908   22.5576 O   0  0  0  0  0  0  0  0  0  0  0  0
  2  1  1  0
  3  2  2  0
  4  2  1  0
  5  6  1  0
  5  4  1  0
  7  6  1  0
  8  7  1  0
  8  9  1  6
 10 12  1  0
 10  8  1  0
 11 10  2  0
 12 16  1  0
 13 12  1  0
 13 14  1  0
 14 15  1  0
 16 15  1  0
 16 17  1  1
 17 18  2  0
 19 17  1  0
 20 19  1  0
 20 21  1  1
 22 21  1  0
 22 23  2  0
 24 20  1  0
 24 25  1  0
 26 22  1  0
 27 24  2  0
M  END
$$$$
