RPD.pdb
     RDKit          3D

 27 27  0  0  1  0  0  0  0  0999 V2000
    7.9680  -16.0530   16.6612 N   0  0  0  0  0  0  0  0  0  0  0  0
    7.9039  -14.6850   16.3166 C   0  0  0  0  0  0  0  0  0  0  0  0
    8.3041  -14.3555   15.1136 N   0  0  0  0  0  0  0  0  0  0  0  0
    7.4457  -13.6796   17.1985 N   0  0  0  0  0  0  0  0  0  0  0  0
    8.0113  -13.6479   18.5504 C   0  0  0  0  0  0  0  0  0  0  0  0
    6.9321  -13.8411   19.5532 C   0  0  0  0  0  0  0  0  0  0  0  0
    7.4547  -14.0342   20.9291 C   0  0  0  0  0  0  0  0  0  0  0  0
    8.3913  -13.0180   21.4634 C   0  0  2  0  0  0  0  0  0  0  0  0
    9.5478  -12.7560   20.6494 N   0  0  0  0  0  0  0  0  0  0  0  0
    8.9171  -13.5554   22.7726 C   0  0  0  0  0  0  0  0  0  0  0  0
   10.1422  -13.9182   22.8569 O   0  0  0  0  0  0  0  0  0  0  0  0
    8.3706  -13.3620   14.8162 N   0  0  0  0  0  0  0  0  0  0  0  0
    8.1286  -13.6847   23.9338 C   0  0  0  0  0  0  0  0  0  0  0  0
    6.7310  -13.3933   24.0793 C   0  0  0  0  0  0  0  0  0  0  0  0
    6.5649  -12.8500   25.4754 C   0  0  0  0  0  0  0  0  0  0  0  0
    7.8570  -13.1736   26.1743 C   0  0  1  0  0  0  0  0  0  0  0  0
    8.6211  -14.1290   25.2374 C   0  0  0  0  0  0  0  0  0  0  0  0
    8.0907  -15.4771   25.5665 O   0  0  0  0  0  0  0  0  0  0  0  0
    7.2069  -16.0401   24.8611 N   0  0  0  0  0  0  0  0  0  0  0  0
    8.5376  -16.2267   26.6945 C   0  0  1  0  0  0  0  0  0  0  0  0
    9.4875  -17.2828   26.6055 C   0  0  0  0  0  0  0  0  0  0  0  0
   10.7187  -16.9827   25.7801 C   0  0  0  0  0  0  0  0  0  0  0  0
   10.6656  -17.7307   24.4770 O   0  0  0  0  0  0  0  0  0  0  0  0
   11.4868  -17.5208   23.5491 C   0  0  0  0  0  0  0  0  0  0  0  0
    9.8926  -17.7037   27.9722 O   0  0  0  0  0  0  0  0  0  0  0  0
    9.6470  -18.9864   28.4115 O   0  0  0  0  0  0  0  0  0  0  0  0
    9.6855  -18.7077   24.2246 O   0  0  0  0  0  0  0  0  0  0  0  0
  2  1  1  0
  3  2  2  0
  4  2  1  0
  5  6  1  0
  5  4  1  0
  7  6  1  0
  8  7  1  0
  8  9  1  6
 10 12  1  0
 10  8  1  0
 11 10  2  0
 12 16  1  0
 13 12  1  0
 13 14  1  0
 14 15  1  0
 16 15  1  0
 16 17  1  1
 17 18  2  0
 19 17  1  0
 20 19  1  0
 20 21  1  1
 22 21  1  0
 22 23  2  0
 24 20  1  0
 24 25  1  0
 26 22  1  0
 27 24  2  0
M  END
$$$$
