RPD.pdb
     RDKit          3D

 27 27  0  0  1  0  0  0  0  0999 V2000
    9.3430  -15.3090   17.1820 N   0  0  0  0  0  0  0  0  0  0  0  0
    8.5249  -14.3154   17.7632 C   0  0  0  0  0  0  0  0  0  0  0  0
    8.0070  -13.4241   16.9550 N   0  0  0  0  0  0  0  0  0  0  0  0
    8.2562  -14.2394   19.1491 N   0  0  0  0  0  0  0  0  0  0  0  0
    7.1577  -15.0536   19.6771 C   0  0  0  0  0  0  0  0  0  0  0  0
    7.5255  -15.5915   21.0125 C   0  0  0  0  0  0  0  0  0  0  0  0
    6.7405  -14.9796   22.1139 C   0  0  0  0  0  0  0  0  0  0  0  0
    7.0703  -13.5908   22.5112 C   0  0  2  0  0  0  0  0  0  0  0  0
    7.6447  -12.7729   21.4769 N   0  0  0  0  0  0  0  0  0  0  0  0
    8.1156  -13.6844   23.5963 C   0  0  0  0  0  0  0  0  0  0  0  0
    9.3556  -13.6854   23.2767 O   0  0  0  0  0  0  0  0  0  0  0  0
    7.4609  -12.6165   17.3150 N   0  0  0  0  0  0  0  0  0  0  0  0
    7.8071  -13.7713   24.9690 C   0  0  0  0  0  0  0  0  0  0  0  0
    6.5136  -13.9447   25.5658 C   0  0  0  0  0  0  0  0  0  0  0  0
    6.5395  -13.1514   26.8471 C   0  0  0  0  0  0  0  0  0  0  0  0
    7.9906  -12.8263   27.0733 C   0  0  1  0  0  0  0  0  0  0  0  0
    8.7808  -13.6718   26.0559 C   0  0  0  0  0  0  0  0  0  0  0  0
    8.9584  -14.9875   26.7226 O   0  0  0  0  0  0  0  0  0  0  0  0
    7.9770  -15.7218   27.0283 N   0  0  0  0  0  0  0  0  0  0  0  0
   10.2402  -15.5119   27.0634 C   0  0  1  0  0  0  0  0  0  0  0  0
   10.4272  -16.7784   27.6850 C   0  0  0  0  0  0  0  0  0  0  0  0
   11.7021  -17.5028   27.3150 C   0  0  0  0  0  0  0  0  0  0  0  0
   11.7822  -17.6854   25.8247 O   0  0  0  0  0  0  0  0  0  0  0  0
   10.8435  -17.3553   25.0571 C   0  0  0  0  0  0  0  0  0  0  0  0
   10.3508  -16.6239   29.1614 O   0  0  0  0  0  0  0  0  0  0  0  0
   10.2871  -17.7311   29.9789 O   0  0  0  0  0  0  0  0  0  0  0  0
   12.9170  -18.2426   25.2079 O   0  0  0  0  0  0  0  0  0  0  0  0
  2  1  1  0
  3  2  2  0
  4  2  1  0
  5  6  1  0
  5  4  1  0
  7  6  1  0
  8  7  1  0
  8  9  1  6
 10 12  1  0
 10  8  1  0
 11 10  2  0
 12 16  1  0
 13 12  1  0
 13 14  1  0
 14 15  1  0
 16 15  1  0
 16 17  1  6
 17 18  2  0
 19 17  1  0
 20 19  1  0
 20 21  1  1
 22 21  1  0
 22 23  2  0
 24 20  1  0
 24 25  1  0
 26 22  1  0
 27 24  2  0
M  END
$$$$
