RPD.pdb
     RDKit          3D

 27 27  0  0  1  0  0  0  0  0999 V2000
    6.9413  -19.3510   19.3163 N   0  0  0  0  0  0  0  0  0  0  0  0
    7.5213  -18.5249   20.3040 C   0  0  0  0  0  0  0  0  0  0  0  0
    8.6792  -18.9002   20.7881 N   0  0  0  0  0  0  0  0  0  0  0  0
    6.9138  -17.3432   20.7870 N   0  0  0  0  0  0  0  0  0  0  0  0
    6.1483  -16.5316   19.8365 C   0  0  0  0  0  0  0  0  0  0  0  0
    6.3473  -15.0888   20.1305 C   0  0  0  0  0  0  0  0  0  0  0  0
    7.2549  -14.8574   21.2822 C   0  0  0  0  0  0  0  0  0  0  0  0
    7.5197  -13.4564   21.6851 C   0  0  2  0  0  0  0  0  0  0  0  0
    8.2864  -12.6793   20.7487 N   0  0  0  0  0  0  0  0  0  0  0  0
    8.3424  -13.5145   22.9496 C   0  0  0  0  0  0  0  0  0  0  0  0
    9.6058  -13.7071   22.8696 O   0  0  0  0  0  0  0  0  0  0  0  0
    9.1971  -18.3150   21.4730 N   0  0  0  0  0  0  0  0  0  0  0  0
    7.7968  -13.3657   24.2408 C   0  0  0  0  0  0  0  0  0  0  0  0
    6.4485  -13.0160   24.5859 C   0  0  0  0  0  0  0  0  0  0  0  0
    6.5457  -12.1745   25.8326 C   0  0  0  0  0  0  0  0  0  0  0  0
    7.9550  -12.3669   26.3221 C   0  0  2  0  0  0  0  0  0  0  0  0
    8.5416  -13.5234   25.4897 C   0  0  0  0  0  0  0  0  0  0  0  0
    8.1117  -14.7527   26.2046 O   0  0  0  0  0  0  0  0  0  0  0  0
    6.9534  -15.2376   26.0671 N   0  0  0  0  0  0  0  0  0  0  0  0
    8.9695  -15.4680   27.0916 C   0  0  1  0  0  0  0  0  0  0  0  0
    9.4779  -16.7671   26.8101 C   0  0  0  0  0  0  0  0  0  0  0  0
   10.1494  -16.9255   25.4643 C   0  0  0  0  0  0  0  0  0  0  0  0
   10.7871  -18.2830   25.3583 O   0  0  0  0  0  0  0  0  0  0  0  0
   10.1448  -19.2990   24.9914 C   0  0  0  0  0  0  0  0  0  0  0  0
   10.4155  -17.1785   27.8876 O   0  0  0  0  0  0  0  0  0  0  0  0
   10.3212  -18.4291   28.4580 O   0  0  0  0  0  0  0  0  0  0  0  0
   12.1431  -18.4894   25.6704 O   0  0  0  0  0  0  0  0  0  0  0  0
  2  1  1  0
  3  2  2  0
  4  2  1  0
  5  6  1  0
  5  4  1  0
  7  6  1  0
  8  7  1  0
  8  9  1  6
 10 12  1  0
 10  8  1  0
 11 10  2  0
 12 16  1  0
 13 12  1  0
 13 14  1  0
 14 15  1  0
 16 15  1  0
 16 17  1  1
 17 18  2  0
 19 17  1  0
 20 19  1  0
 20 21  1  1
 22 21  1  0
 22 23  2  0
 24 20  1  0
 24 25  1  0
 26 22  1  0
 27 24  2  0
M  END
$$$$
