HFG.pdb
     RDKit          3D

 26 27  0  0  1  0  0  0  0  0999 V2000
   25.7778  -24.8188  -15.7345 N   0  0  0  0  0  0  0  0  0  0  0  0
   25.3607  -23.4025  -15.8171 C   0  0  1  0  0  0  0  0  0  0  0  0
   24.1710  -23.3037  -16.7083 C   0  0  0  0  0  0  0  0  0  0  0  0
   24.5593  -23.4501  -18.1201 C   0  0  0  0  0  0  0  0  0  0  0  0
   25.8045  -23.2312  -18.6441 C   0  0  0  0  0  0  0  0  0  0  0  0
   25.6982  -23.4677  -19.9842 N   0  0  0  0  0  0  0  0  0  0  0  0
   24.4506  -23.8175  -20.2905 C   0  0  0  0  0  0  0  0  0  0  0  0
   23.7655  -23.8023  -19.1396 N   0  0  0  0  0  0  0  0  0  0  0  0
   25.0454  -22.8951  -14.4603 C   0  0  0  0  0  0  0  0  0  0  0  0
   24.5159  -23.5986  -13.5693 O   0  0  0  0  0  0  0  0  0  0  0  0
   25.3285  -21.5371  -14.0605 N   0  0  0  0  0  0  0  0  0  0  0  0
   24.9360  -21.0262  -12.7619 C   0  0  1  0  0  0  0  0  0  0  0  0
   25.8990  -19.9334  -12.3517 C   0  0  0  0  0  0  0  0  0  0  0  0
   26.7624  -20.3381  -11.2330 C   0  0  0  0  0  0  0  0  0  0  0  0
   26.3138  -20.2385   -9.9386 C   0  0  0  0  0  0  0  0  0  0  0  0
   27.1163  -20.6170   -8.8582 C   0  0  0  0  0  0  0  0  0  0  0  0
   28.3775  -21.0977   -9.0973 C   0  0  0  0  0  0  0  0  0  0  0  0
   28.8415  -21.2028  -10.4028 C   0  0  0  0  0  0  0  0  0  0  0  0
   28.0292  -20.8207  -11.4774 C   0  0  0  0  0  0  0  0  0  0  0  0
   23.5751  -20.4241  -12.8073 C   0  0  0  0  0  0  0  0  0  0  0  0
   23.1798  -19.7205  -13.7776 O   0  0  0  0  0  0  0  0  0  0  0  0
   22.6890  -20.6383  -11.7392 N   0  0  0  0  0  0  0  0  0  0  0  0
   21.4139  -19.9903  -11.6991 C   0  0  0  0  0  0  0  0  0  0  0  0
   20.3800  -20.7857  -12.3900 C   0  0  0  0  0  0  0  0  0  0  0  0
   20.6819  -21.9153  -13.1311 O   0  0  0  0  0  0  0  0  0  0  0  0
   19.1836  -20.4184  -12.2980 O   0  0  0  0  0  0  0  0  0  0  0  0
  2  9  1  0
  2  1  1  1
  3  2  1  0
  4  3  1  0
  5  4  2  0
  6  5  1  0
  6  7  1  0
  7  8  2  0
  8  4  1  0
  9 11  1  0
 10  9  2  0
 11 12  1  0
 12 13  1  6
 13 14  1  0
 14 19  1  0
 15 14  2  0
 15 16  1  0
 16 17  2  0
 17 18  1  0
 19 18  2  0
 20 21  2  0
 20 12  1  0
 22 20  1  0
 23 22  1  0
 24 23  1  0
 25 24  1  0
 26 24  2  0
M  END
$$$$
