HFG.pdb
     RDKit          3D

 26 27  0  0  1  0  0  0  0  0999 V2000
   24.9370  -12.6788  -18.7694 N   0  0  0  0  0  0  0  0  0  0  0  0
   23.8249  -11.7750  -19.1344 C   0  0  1  0  0  0  0  0  0  0  0  0
   22.6915  -12.5926  -19.6504 C   0  0  0  0  0  0  0  0  0  0  0  0
   23.0363  -13.2132  -20.9393 C   0  0  0  0  0  0  0  0  0  0  0  0
   23.2817  -14.5417  -21.1583 C   0  0  0  0  0  0  0  0  0  0  0  0
   23.5771  -14.6583  -22.4858 N   0  0  0  0  0  0  0  0  0  0  0  0
   23.5212  -13.4654  -23.0744 C   0  0  0  0  0  0  0  0  0  0  0  0
   23.1891  -12.5912  -22.1154 N   0  0  0  0  0  0  0  0  0  0  0  0
   23.4098  -10.9899  -17.9474 C   0  0  0  0  0  0  0  0  0  0  0  0
   22.9866  -11.5131  -16.8909 O   0  0  0  0  0  0  0  0  0  0  0  0
   23.4631   -9.5474  -17.9206 N   0  0  0  0  0  0  0  0  0  0  0  0
   23.1507   -8.7942  -16.7220 C   0  0  1  0  0  0  0  0  0  0  0  0
   24.3874   -8.0451  -16.2755 C   0  0  0  0  0  0  0  0  0  0  0  0
   25.5092   -8.9454  -15.9726 C   0  0  0  0  0  0  0  0  0  0  0  0
   26.5663   -9.0543  -16.8428 C   0  0  0  0  0  0  0  0  0  0  0  0
   27.6444   -9.9036  -16.5767 C   0  0  0  0  0  0  0  0  0  0  0  0
   27.6452  -10.6428  -15.4223 C   0  0  0  0  0  0  0  0  0  0  0  0
   26.5808  -10.5403  -14.5350 C   0  0  0  0  0  0  0  0  0  0  0  0
   25.5062   -9.6865  -14.8116 C   0  0  0  0  0  0  0  0  0  0  0  0
   22.0890   -7.7832  -16.9810 C   0  0  0  0  0  0  0  0  0  0  0  0
   22.1540   -6.9659  -17.9405 O   0  0  0  0  0  0  0  0  0  0  0  0
   20.9693   -7.7252  -16.1354 N   0  0  0  0  0  0  0  0  0  0  0  0
   19.8750   -6.8490  -16.4216 C   0  0  0  0  0  0  0  0  0  0  0  0
   20.0206   -5.5552  -15.7260 C   0  0  0  0  0  0  0  0  0  0  0  0
   19.0618   -4.5593  -15.7987 O   0  0  0  0  0  0  0  0  0  0  0  0
   21.0553   -5.3570  -15.0442 O   0  0  0  0  0  0  0  0  0  0  0  0
  2  9  1  0
  2  1  1  1
  3  2  1  0
  4  3  1  0
  5  4  2  0
  6  5  1  0
  6  7  1  0
  7  8  2  0
  8  4  1  0
  9 11  1  0
 10  9  2  0
 11 12  1  0
 12 13  1  6
 13 14  1  0
 14 19  1  0
 15 14  2  0
 15 16  1  0
 16 17  2  0
 17 18  1  0
 19 18  2  0
 20 21  2  0
 20 12  1  0
 22 20  1  0
 23 22  1  0
 24 23  1  0
 25 24  1  0
 26 24  2  0
M  END
$$$$
