HFG.pdb
     RDKit          3D

 26 27  0  0  1  0  0  0  0  0999 V2000
   27.5041  -22.5138  -16.3157 N   0  0  0  0  0  0  0  0  0  0  0  0
   26.5499  -21.4313  -15.9926 C   0  0  1  0  0  0  0  0  0  0  0  0
   25.4825  -21.4062  -17.0316 C   0  0  0  0  0  0  0  0  0  0  0  0
   25.9836  -20.8195  -18.2846 C   0  0  0  0  0  0  0  0  0  0  0  0
   26.6264  -21.4877  -19.2911 C   0  0  0  0  0  0  0  0  0  0  0  0
   26.9233  -20.5507  -20.2383 N   0  0  0  0  0  0  0  0  0  0  0  0
   26.4905  -19.3530  -19.8498 C   0  0  0  0  0  0  0  0  0  0  0  0
   25.9177  -19.5335  -18.6525 N   0  0  0  0  0  0  0  0  0  0  0  0
   25.9700  -21.6621  -14.6479 C   0  0  0  0  0  0  0  0  0  0  0  0
   25.6948  -22.8008  -14.2043 O   0  0  0  0  0  0  0  0  0  0  0  0
   25.6761  -20.5793  -13.7394 N   0  0  0  0  0  0  0  0  0  0  0  0
   25.1711  -20.8208  -12.4021 C   0  0  1  0  0  0  0  0  0  0  0  0
   26.0030  -20.0342  -11.4127 C   0  0  0  0  0  0  0  0  0  0  0  0
   27.3983  -20.4941  -11.3630 C   0  0  0  0  0  0  0  0  0  0  0  0
   28.2633  -20.1989  -12.3883 C   0  0  0  0  0  0  0  0  0  0  0  0
   29.5945  -20.6252  -12.3638 C   0  0  0  0  0  0  0  0  0  0  0  0
   30.0447  -21.3532  -11.2930 C   0  0  0  0  0  0  0  0  0  0  0  0
   29.1781  -21.6574  -10.2504 C   0  0  0  0  0  0  0  0  0  0  0  0
   27.8468  -21.2253  -10.2854 C   0  0  0  0  0  0  0  0  0  0  0  0
   23.7629  -20.3573  -12.2649 C   0  0  0  0  0  0  0  0  0  0  0  0
   23.2592  -19.4906  -13.0316 O   0  0  0  0  0  0  0  0  0  0  0  0
   22.9544  -20.8953  -11.2505 N   0  0  0  0  0  0  0  0  0  0  0  0
   22.0112  -21.9333  -11.5333 C   0  0  0  0  0  0  0  0  0  0  0  0
   20.8299  -21.4120  -12.2486 C   0  0  0  0  0  0  0  0  0  0  0  0
   20.0301  -22.2121  -13.0464 O   0  0  0  0  0  0  0  0  0  0  0  0
   20.5452  -20.1961  -12.1244 O   0  0  0  0  0  0  0  0  0  0  0  0
  2  9  1  0
  2  1  1  6
  3  2  1  0
  4  3  1  0
  5  4  2  0
  6  5  1  0
  6  7  1  0
  7  8  2  0
  8  4  1  0
  9 11  1  0
 10  9  2  0
 11 12  1  0
 12 13  1  1
 13 14  1  0
 14 19  1  0
 15 14  2  0
 15 16  1  0
 16 17  2  0
 17 18  1  0
 19 18  2  0
 20 21  2  0
 20 12  1  0
 22 20  1  0
 23 22  1  0
 24 23  1  0
 25 24  1  0
 26 24  2  0
M  END
$$$$
