HFG.pdb
     RDKit          3D

 26 27  0  0  1  0  0  0  0  0999 V2000
   22.5839  -19.6585  -11.6313 N   0  0  0  0  0  0  0  0  0  0  0  0
   23.5959  -20.7356  -11.5833 C   0  0  1  0  0  0  0  0  0  0  0  0
   24.0299  -21.0488  -12.9736 C   0  0  0  0  0  0  0  0  0  0  0  0
   22.8785  -21.4186  -13.8120 C   0  0  0  0  0  0  0  0  0  0  0  0
   22.0303  -22.4722  -13.6033 C   0  0  0  0  0  0  0  0  0  0  0  0
   21.1309  -22.4431  -14.6297 N   0  0  0  0  0  0  0  0  0  0  0  0
   21.3975  -21.4243  -15.4442 C   0  0  0  0  0  0  0  0  0  0  0  0
   22.4695  -20.8066  -14.9308 N   0  0  0  0  0  0  0  0  0  0  0  0
   24.7480  -20.3015  -10.7576 C   0  0  0  0  0  0  0  0  0  0  0  0
   25.5938  -19.4625  -11.1448 O   0  0  0  0  0  0  0  0  0  0  0  0
   24.9835  -20.8193   -9.4307 N   0  0  0  0  0  0  0  0  0  0  0  0
   26.1978  -20.5180   -8.6982 C   0  0  1  0  0  0  0  0  0  0  0  0
   25.9112  -20.6030   -7.2148 C   0  0  0  0  0  0  0  0  0  0  0  0
   27.0202  -20.0874   -6.3993 C   0  0  0  0  0  0  0  0  0  0  0  0
   27.8097  -20.9488   -5.6773 C   0  0  0  0  0  0  0  0  0  0  0  0
   28.8700  -20.4825   -4.8945 C   0  0  0  0  0  0  0  0  0  0  0  0
   29.1260  -19.1366   -4.8475 C   0  0  0  0  0  0  0  0  0  0  0  0
   28.3335  -18.2563   -5.5740 C   0  0  0  0  0  0  0  0  0  0  0  0
   27.2742  -18.7344   -6.3547 C   0  0  0  0  0  0  0  0  0  0  0  0
   27.2697  -21.5061   -9.0002 C   0  0  0  0  0  0  0  0  0  0  0  0
   27.0335  -22.7381   -9.1386 O   0  0  0  0  0  0  0  0  0  0  0  0
   28.5960  -21.0657   -9.1388 N   0  0  0  0  0  0  0  0  0  0  0  0
   29.5353  -21.7963   -9.9332 C   0  0  0  0  0  0  0  0  0  0  0  0
   30.8508  -21.1278   -9.9685 C   0  0  0  0  0  0  0  0  0  0  0  0
   31.9802  -21.7348  -10.4904 O   0  0  0  0  0  0  0  0  0  0  0  0
   30.9422  -19.9648   -9.5061 O   0  0  0  0  0  0  0  0  0  0  0  0
  2  9  1  0
  2  1  1  6
  3  2  1  0
  4  3  1  0
  5  4  2  0
  6  5  1  0
  6  7  1  0
  7  8  2  0
  8  4  1  0
  9 11  1  0
 10  9  2  0
 11 12  1  0
 12 13  1  1
 13 14  1  0
 14 19  1  0
 15 14  2  0
 15 16  1  0
 16 17  2  0
 17 18  1  0
 19 18  2  0
 20 21  2  0
 20 12  1  0
 22 20  1  0
 23 22  1  0
 24 23  1  0
 25 24  1  0
 26 24  2  0
M  END
$$$$
