HFG.pdb
     RDKit          3D

 26 27  0  0  1  0  0  0  0  0999 V2000
   24.0461  -12.0189  -19.0807 N   0  0  0  0  0  0  0  0  0  0  0  0
   23.1295  -10.8627  -19.1803 C   0  0  1  0  0  0  0  0  0  0  0  0
   21.7900  -11.3482  -19.6157 C   0  0  0  0  0  0  0  0  0  0  0  0
   21.7615  -11.5765  -21.0691 C   0  0  0  0  0  0  0  0  0  0  0  0
   21.2968  -12.6965  -21.7036 C   0  0  0  0  0  0  0  0  0  0  0  0
   21.4812  -12.4793  -23.0385 N   0  0  0  0  0  0  0  0  0  0  0  0
   22.0338  -11.2843  -23.2365 C   0  0  0  0  0  0  0  0  0  0  0  0
   22.1994  -10.7438  -22.0221 N   0  0  0  0  0  0  0  0  0  0  0  0
   23.0409  -10.1814  -17.8667 C   0  0  0  0  0  0  0  0  0  0  0  0
   22.6645  -10.7553  -16.8188 O   0  0  0  0  0  0  0  0  0  0  0  0
   23.3859   -8.7900  -17.6956 N   0  0  0  0  0  0  0  0  0  0  0  0
   23.2400   -8.1189  -16.4189 C   0  0  1  0  0  0  0  0  0  0  0  0
   24.5785   -7.5435  -16.0100 C   0  0  0  0  0  0  0  0  0  0  0  0
   25.6207   -8.5740  -15.8974 C   0  0  0  0  0  0  0  0  0  0  0  0
   26.6273   -8.6480  -16.8290 C   0  0  0  0  0  0  0  0  0  0  0  0
   27.6294   -9.6189  -16.7432 C   0  0  0  0  0  0  0  0  0  0  0  0
   27.6057  -10.5156  -15.7066 C   0  0  0  0  0  0  0  0  0  0  0  0
   26.5921  -10.4498  -14.7586 C   0  0  0  0  0  0  0  0  0  0  0  0
   25.5934   -9.4732  -14.8543 C   0  0  0  0  0  0  0  0  0  0  0  0
   22.2795   -6.9852  -16.5115 C   0  0  0  0  0  0  0  0  0  0  0  0
   22.2780   -6.1785  -17.4821 O   0  0  0  0  0  0  0  0  0  0  0  0
   21.3355   -6.7944  -15.4893 N   0  0  0  0  0  0  0  0  0  0  0  0
   20.2914   -5.8254  -15.6229 C   0  0  0  0  0  0  0  0  0  0  0  0
   20.7685   -4.4666  -15.2988 C   0  0  0  0  0  0  0  0  0  0  0  0
   22.0877   -4.1985  -14.9761 O   0  0  0  0  0  0  0  0  0  0  0  0
   19.9415   -3.5230  -15.3183 O   0  0  0  0  0  0  0  0  0  0  0  0
  2  9  1  0
  2  1  1  1
  3  2  1  0
  4  3  1  0
  5  4  2  0
  6  5  1  0
  6  7  1  0
  7  8  2  0
  8  4  1  0
  9 11  1  0
 10  9  2  0
 11 12  1  0
 12 13  1  6
 13 14  1  0
 14 19  1  0
 15 14  2  0
 15 16  1  0
 16 17  2  0
 17 18  1  0
 19 18  2  0
 20 21  2  0
 20 12  1  0
 22 20  1  0
 23 22  1  0
 24 23  1  0
 25 24  1  0
 26 24  2  0
M  END
$$$$
