HFG.pdb
     RDKit          3D

 26 27  0  0  1  0  0  0  0  0999 V2000
   21.9804  -19.9980  -11.1480 N   0  0  0  0  0  0  0  0  0  0  0  0
   22.9782  -20.9424  -11.6951 C   0  0  1  0  0  0  0  0  0  0  0  0
   22.6889  -21.1628  -13.1397 C   0  0  0  0  0  0  0  0  0  0  0  0
   21.3804  -21.8113  -13.3200 C   0  0  0  0  0  0  0  0  0  0  0  0
   20.6123  -22.3719  -12.3357 C   0  0  0  0  0  0  0  0  0  0  0  0
   19.5025  -22.8669  -12.9573 N   0  0  0  0  0  0  0  0  0  0  0  0
   19.5666  -22.6312  -14.2661 C   0  0  0  0  0  0  0  0  0  0  0  0
   20.7213  -21.9847  -14.4728 N   0  0  0  0  0  0  0  0  0  0  0  0
   24.3416  -20.3909  -11.5095 C   0  0  0  0  0  0  0  0  0  0  0  0
   24.6563  -19.2181  -11.8170 O   0  0  0  0  0  0  0  0  0  0  0  0
   25.4203  -21.1734  -10.9543 N   0  0  0  0  0  0  0  0  0  0  0  0
   26.8029  -20.7500  -11.0590 C   0  0  1  0  0  0  0  0  0  0  0  0
   27.5971  -21.3821   -9.9367 C   0  0  0  0  0  0  0  0  0  0  0  0
   27.5400  -20.5944   -8.6970 C   0  0  0  0  0  0  0  0  0  0  0  0
   26.3830  -19.9466   -8.3388 C   0  0  0  0  0  0  0  0  0  0  0  0
   26.3042  -19.1916   -7.1649 C   0  0  0  0  0  0  0  0  0  0  0  0
   27.4060  -19.0967   -6.3548 C   0  0  0  0  0  0  0  0  0  0  0  0
   28.5816  -19.7480   -6.7075 C   0  0  0  0  0  0  0  0  0  0  0  0
   28.6492  -20.5015   -7.8857 C   0  0  0  0  0  0  0  0  0  0  0  0
   27.4102  -21.2015  -12.3411 C   0  0  0  0  0  0  0  0  0  0  0  0
   27.3102  -22.3897  -12.7546 O   0  0  0  0  0  0  0  0  0  0  0  0
   28.1228  -20.2830  -13.1291 N   0  0  0  0  0  0  0  0  0  0  0  0
   28.7527  -20.6910  -14.3472 C   0  0  0  0  0  0  0  0  0  0  0  0
   27.8443  -20.5464  -15.5018 C   0  0  0  0  0  0  0  0  0  0  0  0
   28.0353  -19.5892  -16.4835 O   0  0  0  0  0  0  0  0  0  0  0  0
   26.8635  -21.3240  -15.5909 O   0  0  0  0  0  0  0  0  0  0  0  0
  2  9  1  0
  2  1  1  6
  3  2  1  0
  4  3  1  0
  5  4  2  0
  6  5  1  0
  6  7  1  0
  7  8  2  0
  8  4  1  0
  9 11  1  0
 10  9  2  0
 11 12  1  0
 12 13  1  1
 13 14  1  0
 14 19  1  0
 15 14  2  0
 15 16  1  0
 16 17  2  0
 17 18  1  0
 19 18  2  0
 20 21  2  0
 20 12  1  0
 22 20  1  0
 23 22  1  0
 24 23  1  0
 25 24  1  0
 26 24  2  0
M  END
$$$$
