HFG.pdb
     RDKit          3D

 26 27  0  0  1  0  0  0  0  0999 V2000
   26.7002  -20.8094  -12.8550 N   0  0  0  0  0  0  0  0  0  0  0  0
   25.8197  -20.2553  -11.8041 C   0  0  1  0  0  0  0  0  0  0  0  0
   24.4240  -20.7098  -12.0583 C   0  0  0  0  0  0  0  0  0  0  0  0
   23.8595  -20.0361  -13.2384 C   0  0  0  0  0  0  0  0  0  0  0  0
   23.1441  -20.6283  -14.2436 C   0  0  0  0  0  0  0  0  0  0  0  0
   22.8417  -19.6345  -15.1292 N   0  0  0  0  0  0  0  0  0  0  0  0
   23.3403  -18.4752  -14.7051 C   0  0  0  0  0  0  0  0  0  0  0  0
   23.9604  -18.7368  -13.5470 N   0  0  0  0  0  0  0  0  0  0  0  0
   26.2864  -20.7085  -10.4719 C   0  0  0  0  0  0  0  0  0  0  0  0
   26.5243  -21.9075  -10.1983 O   0  0  0  0  0  0  0  0  0  0  0  0
   26.5039  -19.7911   -9.3786 N   0  0  0  0  0  0  0  0  0  0  0  0
   27.0194  -20.2371   -8.0991 C   0  0  1  0  0  0  0  0  0  0  0  0
   27.5385  -19.0395   -7.3336 C   0  0  0  0  0  0  0  0  0  0  0  0
   28.1697  -19.4181   -6.0613 C   0  0  0  0  0  0  0  0  0  0  0  0
   29.1970  -20.3295   -6.0402 C   0  0  0  0  0  0  0  0  0  0  0  0
   29.8130  -20.7055   -4.8428 C   0  0  0  0  0  0  0  0  0  0  0  0
   29.3813  -20.1519   -3.6654 C   0  0  0  0  0  0  0  0  0  0  0  0
   28.3427  -19.2289   -3.6752 C   0  0  0  0  0  0  0  0  0  0  0  0
   27.7331  -18.8596   -4.8803 C   0  0  0  0  0  0  0  0  0  0  0  0
   25.9491  -20.8613   -7.2737 C   0  0  0  0  0  0  0  0  0  0  0  0
   26.1805  -21.3770   -6.1452 O   0  0  0  0  0  0  0  0  0  0  0  0
   24.6302  -20.8842   -7.7552 N   0  0  0  0  0  0  0  0  0  0  0  0
   23.5836  -21.5092   -7.0061 C   0  0  0  0  0  0  0  0  0  0  0  0
   22.2760  -21.3617   -7.6751 C   0  0  0  0  0  0  0  0  0  0  0  0
   21.0985  -21.8315   -7.1189 O   0  0  0  0  0  0  0  0  0  0  0  0
   22.2372  -20.7877   -8.7903 O   0  0  0  0  0  0  0  0  0  0  0  0
  2  9  1  0
  2  1  1  6
  3  2  1  0
  4  3  1  0
  5  4  2  0
  6  5  1  0
  6  7  1  0
  7  8  2  0
  8  4  1  0
  9 11  1  0
 10  9  2  0
 11 12  1  0
 12 13  1  1
 13 14  1  0
 14 19  1  0
 15 14  2  0
 15 16  1  0
 16 17  2  0
 17 18  1  0
 19 18  2  0
 20 21  2  0
 20 12  1  0
 22 20  1  0
 23 22  1  0
 24 23  1  0
 25 24  1  0
 26 24  2  0
M  END
$$$$
