GLY.pdb
     RDKit          3D

 25 25  0  0  1  0  0  0  0  0999 V2000
    7.8957  -19.6244   19.7323 N   0  0  0  0  0  0  0  0  0  0  0  0
    7.3124  -18.6025   20.5596 C   0  0  0  0  0  0  0  0  0  0  0  0
    8.3737  -17.5680   20.8485 C   0  0  0  0  0  0  0  0  0  0  0  0
    9.5755  -17.8607   20.6634 O   0  0  0  0  0  0  0  0  0  0  0  0
    7.1002  -12.3680   20.0586 C   0  0  0  0  0  0  0  0  0  0  0  0
    7.7987  -13.6856   20.1445 C   0  0  1  0  0  0  0  0  0  0  0  0
    9.0140  -13.6469   19.1802 C   0  0  0  0  0  0  0  0  0  0  0  0
    8.3981  -13.9359   21.4938 C   0  0  0  0  0  0  0  0  0  0  0  0
    9.0242  -15.2935   21.7118 C   0  0  2  0  0  0  0  0  0  0  0  0
    8.0306  -16.2934   21.3180 N   0  0  0  0  0  0  0  0  0  0  0  0
    9.4371  -15.4783   23.0882 C   0  0  0  0  0  0  0  0  0  0  0  0
   10.4716  -14.8400   23.4891 O   0  0  0  0  0  0  0  0  0  0  0  0
    5.9947  -10.8759   26.4563 O   0  0  0  0  0  0  0  0  0  0  0  0
    6.5276  -12.1600   26.4135 C   0  0  0  0  0  0  0  0  0  0  0  0
    5.7085  -13.2228   26.0572 C   0  0  0  0  0  0  0  0  0  0  0  0
    6.2136  -14.5026   26.0079 C   0  0  0  0  0  0  0  0  0  0  0  0
    7.5391  -14.7798   26.3069 C   0  0  0  0  0  0  0  0  0  0  0  0
    8.0402  -16.1543   26.2459 C   0  0  0  0  0  0  0  0  0  0  0  0
    9.2969  -16.3102   25.3964 C   0  0  2  0  0  0  0  0  0  0  0  0
    8.7919  -16.2923   24.0139 N   0  0  0  0  0  0  0  0  0  0  0  0
    9.9579  -17.5981   25.6477 C   0  0  0  0  0  0  0  0  0  0  0  0
    9.8242  -18.5313   24.8272 O   0  0  0  0  0  0  0  0  0  0  0  0
    8.3616  -13.7322   26.6620 C   0  0  0  0  0  0  0  0  0  0  0  0
    7.8435  -12.4427   26.7093 C   0  0  0  0  0  0  0  0  0  0  0  0
   10.7212  -17.7914   26.7711 O   0  0  0  0  0  0  0  0  0  0  0  0
  1  2  1  0
  3  4  2  0
  3  2  1  0
  6  5  1  1
  6  8  1  0
  7  6  1  0
  9  8  1  1
  9 10  1  0
 10  3  1  0
 11  9  1  0
 12 11  2  0
 13 14  1  0
 14 15  2  0
 15 16  1  0
 17 18  1  0
 17 16  2  0
 19 18  1  1
 19 21  1  0
 19 20  1  0
 20 11  1  0
 21 25  1  0
 22 21  2  0
 23 17  1  0
 24 23  2  0
 24 14  1  0
M  END
$$$$
