GLY.pdb
     RDKit          3D

 25 25  0  0  1  0  0  0  0  0999 V2000
    7.4275  -20.5233   20.0613 N   0  0  0  0  0  0  0  0  0  0  0  0
    7.0812  -19.5936   21.1027 C   0  0  0  0  0  0  0  0  0  0  0  0
    7.8893  -18.3346   20.8978 C   0  0  0  0  0  0  0  0  0  0  0  0
    9.0297  -18.4190   20.3912 O   0  0  0  0  0  0  0  0  0  0  0  0
    8.7353  -13.3029   19.5346 C   0  0  0  0  0  0  0  0  0  0  0  0
    7.9489  -13.3764   20.8025 C   0  0  1  0  0  0  0  0  0  0  0  0
    6.7718  -12.3708   20.6949 C   0  0  0  0  0  0  0  0  0  0  0  0
    7.2893  -14.7066   20.9979 C   0  0  0  0  0  0  0  0  0  0  0  0
    8.1996  -15.8704   21.3135 C   0  0  2  0  0  0  0  0  0  0  0  0
    7.3804  -17.0823   21.2657 N   0  0  0  0  0  0  0  0  0  0  0  0
    8.8354  -15.7179   22.6065 C   0  0  0  0  0  0  0  0  0  0  0  0
    8.1444  -16.0021   23.6458 O   0  0  0  0  0  0  0  0  0  0  0  0
   10.4900  -15.1507   30.6087 O   0  0  0  0  0  0  0  0  0  0  0  0
   10.2211  -15.1436   29.2440 C   0  0  0  0  0  0  0  0  0  0  0  0
   10.1801  -16.3479   28.5545 C   0  0  0  0  0  0  0  0  0  0  0  0
    9.9158  -16.3659   27.2035 C   0  0  0  0  0  0  0  0  0  0  0  0
    9.6833  -15.2019   26.4862 C   0  0  0  0  0  0  0  0  0  0  0  0
    9.4077  -15.2601   25.0493 C   0  0  0  0  0  0  0  0  0  0  0  0
   10.6641  -15.2671   24.1852 C   0  0  2  0  0  0  0  0  0  0  0  0
   10.1444  -15.2918   22.8083 N   0  0  0  0  0  0  0  0  0  0  0  0
   11.4668  -16.4760   24.4155 C   0  0  0  0  0  0  0  0  0  0  0  0
   12.5625  -16.3857   25.0097 O   0  0  0  0  0  0  0  0  0  0  0  0
    9.7215  -14.0003   27.1606 C   0  0  0  0  0  0  0  0  0  0  0  0
    9.9891  -13.9911   28.5250 C   0  0  0  0  0  0  0  0  0  0  0  0
   11.0304  -17.7042   23.9876 O   0  0  0  0  0  0  0  0  0  0  0  0
  1  2  1  0
  3  4  2  0
  3  2  1  0
  6  5  1  6
  6  8  1  0
  7  6  1  0
  9  8  1  1
  9 10  1  0
 10  3  1  0
 11  9  1  0
 12 11  2  0
 13 14  1  0
 14 15  2  0
 15 16  1  0
 17 18  1  0
 17 16  2  0
 19 18  1  1
 19 21  1  0
 19 20  1  0
 20 11  1  0
 21 25  1  0
 22 21  2  0
 23 17  1  0
 24 23  2  0
 24 14  1  0
M  END
$$$$
