GLY.pdb
     RDKit          3D

 25 25  0  0  1  0  0  0  0  0999 V2000
    6.6964  -19.6640   20.5286 N   0  0  0  0  0  0  0  0  0  0  0  0
    6.4489  -18.3538   21.0682 C   0  0  0  0  0  0  0  0  0  0  0  0
    7.6910  -17.5192   20.8665 C   0  0  0  0  0  0  0  0  0  0  0  0
    8.7456  -18.0779   20.4922 O   0  0  0  0  0  0  0  0  0  0  0  0
    6.8678  -12.4137   19.4270 C   0  0  0  0  0  0  0  0  0  0  0  0
    7.4173  -13.7958   19.5658 C   0  0  1  0  0  0  0  0  0  0  0  0
    8.2049  -14.1302   18.2711 C   0  0  0  0  0  0  0  0  0  0  0  0
    8.4318  -13.9078   20.6616 C   0  0  0  0  0  0  0  0  0  0  0  0
    8.8782  -15.3042   21.0266 C   0  0  2  0  0  0  0  0  0  0  0  0
    7.6762  -16.1366   21.0918 N   0  0  0  0  0  0  0  0  0  0  0  0
    9.5992  -15.3249   22.2832 C   0  0  0  0  0  0  0  0  0  0  0  0
   10.8139  -14.9212   22.2781 O   0  0  0  0  0  0  0  0  0  0  0  0
   11.2638  -15.0381   30.9629 O   0  0  0  0  0  0  0  0  0  0  0  0
   10.6873  -15.1214   29.6998 C   0  0  0  0  0  0  0  0  0  0  0  0
   10.6093  -13.9800   28.9132 C   0  0  0  0  0  0  0  0  0  0  0  0
   10.0430  -14.0380   27.6597 C   0  0  0  0  0  0  0  0  0  0  0  0
    9.5352  -15.2185   27.1384 C   0  0  0  0  0  0  0  0  0  0  0  0
    8.9378  -15.2412   25.8017 C   0  0  0  0  0  0  0  0  0  0  0  0
    9.9171  -15.6331   24.7005 C   0  0  2  0  0  0  0  0  0  0  0  0
    9.0719  -15.7440   23.5005 N   0  0  0  0  0  0  0  0  0  0  0  0
   10.5359  -16.9377   24.9722 C   0  0  0  0  0  0  0  0  0  0  0  0
    9.9282  -17.9855   24.6642 O   0  0  0  0  0  0  0  0  0  0  0  0
    9.6072  -16.3580   27.9106 C   0  0  0  0  0  0  0  0  0  0  0  0
   10.1807  -16.2907   29.1755 C   0  0  0  0  0  0  0  0  0  0  0  0
   11.7727  -17.0228   25.5595 O   0  0  0  0  0  0  0  0  0  0  0  0
  1  2  1  0
  3  4  2  0
  3  2  1  0
  6  5  1  6
  6  8  1  0
  7  6  1  0
  9  8  1  1
  9 10  1  0
 10  3  1  0
 11  9  1  0
 12 11  2  0
 13 14  1  0
 14 15  2  0
 15 16  1  0
 17 18  1  0
 17 16  2  0
 19 18  1  1
 19 21  1  0
 19 20  1  0
 20 11  1  0
 21 25  1  0
 22 21  2  0
 23 17  1  0
 24 23  2  0
 24 14  1  0
M  END
$$$$
