GLY.pdb
     RDKit          3D

 25 25  0  0  1  0  0  0  0  0999 V2000
    5.5124  -19.2220   20.8374 N   0  0  0  0  0  0  0  0  0  0  0  0
    5.6092  -18.2607   21.9029 C   0  0  0  0  0  0  0  0  0  0  0  0
    6.8379  -17.4158   21.6646 C   0  0  0  0  0  0  0  0  0  0  0  0
    7.9237  -17.9800   21.4060 O   0  0  0  0  0  0  0  0  0  0  0  0
    8.1863  -13.9343   18.7680 C   0  0  0  0  0  0  0  0  0  0  0  0
    8.2777  -13.1749   20.0510 C   0  0  1  0  0  0  0  0  0  0  0  0
    7.6087  -11.7910   19.8371 C   0  0  0  0  0  0  0  0  0  0  0  0
    7.4877  -13.8069   21.1551 C   0  0  0  0  0  0  0  0  0  0  0  0
    7.9588  -15.1611   21.6312 C   0  0  2  0  0  0  0  0  0  0  0  0
    6.7762  -16.0178   21.7292 N   0  0  0  0  0  0  0  0  0  0  0  0
    8.6487  -15.0720   22.9022 C   0  0  0  0  0  0  0  0  0  0  0  0
    8.4827  -14.0086   23.5951 O   0  0  0  0  0  0  0  0  0  0  0  0
    5.9391  -11.4871   27.2220 O   0  0  0  0  0  0  0  0  0  0  0  0
    6.6751  -12.6074   26.8507 C   0  0  0  0  0  0  0  0  0  0  0  0
    6.0090  -13.7889   26.5543 C   0  0  0  0  0  0  0  0  0  0  0  0
    6.7162  -14.9107   26.1844 C   0  0  0  0  0  0  0  0  0  0  0  0
    8.1000  -14.9083   26.0937 C   0  0  0  0  0  0  0  0  0  0  0  0
    8.8184  -16.1218   25.6992 C   0  0  0  0  0  0  0  0  0  0  0  0
   10.0131  -15.8570   24.7893 C   0  0  2  0  0  0  0  0  0  0  0  0
    9.4748  -16.0570   23.4341 N   0  0  0  0  0  0  0  0  0  0  0  0
   11.0914  -16.8269   25.0239 C   0  0  0  0  0  0  0  0  0  0  0  0
   11.1600  -17.8566   24.3188 O   0  0  0  0  0  0  0  0  0  0  0  0
    8.7719  -13.7407   26.3858 C   0  0  0  0  0  0  0  0  0  0  0  0
    8.0500  -12.6123   26.7585 C   0  0  0  0  0  0  0  0  0  0  0  0
   12.0257  -16.6186   26.0066 O   0  0  0  0  0  0  0  0  0  0  0  0
  1  2  1  0
  3  4  2  0
  3  2  1  0
  6  5  1  6
  6  8  1  0
  7  6  1  0
  9  8  1  1
  9 10  1  0
 10  3  1  0
 11  9  1  0
 12 11  2  0
 13 14  1  0
 14 15  2  0
 15 16  1  0
 17 18  1  0
 17 16  2  0
 19 18  1  1
 19 21  1  0
 19 20  1  0
 20 11  1  0
 21 25  1  0
 22 21  2  0
 23 17  1  0
 24 23  2  0
 24 14  1  0
M  END
$$$$
