GLY.pdb
     RDKit          3D

 25 25  0  0  1  0  0  0  0  0999 V2000
    6.4289  -20.5194   21.4877 N   0  0  0  0  0  0  0  0  0  0  0  0
    6.0757  -19.2682   22.1031 C   0  0  0  0  0  0  0  0  0  0  0  0
    7.1076  -18.2400   21.7054 C   0  0  0  0  0  0  0  0  0  0  0  0
    8.1719  -18.6212   21.1704 O   0  0  0  0  0  0  0  0  0  0  0  0
    8.5109  -13.6391   19.5201 C   0  0  0  0  0  0  0  0  0  0  0  0
    8.0034  -13.4144   20.9069 C   0  0  1  0  0  0  0  0  0  0  0  0
    7.0244  -12.2108   20.8693 C   0  0  0  0  0  0  0  0  0  0  0  0
    7.1758  -14.5556   21.4122 C   0  0  0  0  0  0  0  0  0  0  0  0
    7.9054  -15.8517   21.6773 C   0  0  2  0  0  0  0  0  0  0  0  0
    6.8885  -16.8742   21.9271 N   0  0  0  0  0  0  0  0  0  0  0  0
    8.8169  -15.7339   22.7974 C   0  0  0  0  0  0  0  0  0  0  0  0
    9.9125  -15.0998   22.6080 O   0  0  0  0  0  0  0  0  0  0  0  0
    6.3178  -10.6408   26.1957 O   0  0  0  0  0  0  0  0  0  0  0  0
    6.9660  -11.8707   26.2385 C   0  0  0  0  0  0  0  0  0  0  0  0
    6.2233  -13.0344   26.0914 C   0  0  0  0  0  0  0  0  0  0  0  0
    6.8429  -14.2632   26.1302 C   0  0  0  0  0  0  0  0  0  0  0  0
    8.2116  -14.3888   26.3148 C   0  0  0  0  0  0  0  0  0  0  0  0
    8.8354  -15.7130   26.3530 C   0  0  0  0  0  0  0  0  0  0  0  0
    9.6279  -16.0525   25.0953 C   0  0  2  0  0  0  0  0  0  0  0  0
    8.5917  -16.2517   24.0690 N   0  0  0  0  0  0  0  0  0  0  0  0
   10.3854  -17.3008   25.2591 C   0  0  0  0  0  0  0  0  0  0  0  0
   10.0299  -18.3249   24.6372 O   0  0  0  0  0  0  0  0  0  0  0  0
    8.9591  -13.2400   26.4620 C   0  0  0  0  0  0  0  0  0  0  0  0
    8.3254  -12.0030   26.4215 C   0  0  0  0  0  0  0  0  0  0  0  0
   11.4788  -17.3586   26.0854 O   0  0  0  0  0  0  0  0  0  0  0  0
  1  2  1  0
  3  4  2  0
  3  2  1  0
  6  5  1  6
  6  8  1  0
  7  6  1  0
  9  8  1  1
  9 10  1  0
 10  3  1  0
 11  9  1  0
 12 11  2  0
 13 14  1  0
 14 15  2  0
 15 16  1  0
 17 18  1  0
 17 16  2  0
 19 18  1  1
 19 21  1  0
 19 20  1  0
 20 11  1  0
 21 25  1  0
 22 21  2  0
 23 17  1  0
 24 23  2  0
 24 14  1  0
M  END
$$$$
