GLY.pdb
     RDKit          3D

 25 25  0  0  1  0  0  0  0  0999 V2000
    5.7327  -18.3554   22.4918 N   0  0  0  0  0  0  0  0  0  0  0  0
    5.8371  -17.6830   23.7590 C   0  0  0  0  0  0  0  0  0  0  0  0
    6.7962  -16.5274   23.6011 C   0  0  0  0  0  0  0  0  0  0  0  0
    7.4375  -16.4100   22.5338 O   0  0  0  0  0  0  0  0  0  0  0  0
    5.8272  -12.3590   26.9500 C   0  0  0  0  0  0  0  0  0  0  0  0
    6.1447  -13.1508   25.7239 C   0  0  1  0  0  0  0  0  0  0  0  0
    5.8811  -12.2481   24.4894 C   0  0  0  0  0  0  0  0  0  0  0  0
    7.5958  -13.5074   25.6249 C   0  0  0  0  0  0  0  0  0  0  0  0
    7.9703  -14.5207   24.5689 C   0  0  2  0  0  0  0  0  0  0  0  0
    6.9748  -15.5920   24.6286 N   0  0  0  0  0  0  0  0  0  0  0  0
    9.3088  -15.0368   24.7723 C   0  0  0  0  0  0  0  0  0  0  0  0
   10.2531  -14.1895   24.9414 O   0  0  0  0  0  0  0  0  0  0  0  0
   11.2709  -14.5545   31.0433 O   0  0  0  0  0  0  0  0  0  0  0  0
   11.2198  -15.2667   29.8495 C   0  0  0  0  0  0  0  0  0  0  0  0
   11.3723  -16.6463   29.8757 C   0  0  0  0  0  0  0  0  0  0  0  0
   11.3254  -17.3724   28.7070 C   0  0  0  0  0  0  0  0  0  0  0  0
   11.1272  -16.7671   27.4751 C   0  0  0  0  0  0  0  0  0  0  0  0
   11.0854  -17.5720   26.2526 C   0  0  0  0  0  0  0  0  0  0  0  0
   11.0672  -16.7417   24.9737 C   0  0  2  0  0  0  0  0  0  0  0  0
    9.6491  -16.3855   24.8052 N   0  0  0  0  0  0  0  0  0  0  0  0
   11.5031  -17.5323   23.8145 C   0  0  0  0  0  0  0  0  0  0  0  0
   12.7104  -17.8299   23.6888 O   0  0  0  0  0  0  0  0  0  0  0  0
   10.9746  -15.3977   27.4371 C   0  0  0  0  0  0  0  0  0  0  0  0
   11.0233  -14.6719   28.6221 C   0  0  0  0  0  0  0  0  0  0  0  0
   10.6030  -17.9497   22.8672 O   0  0  0  0  0  0  0  0  0  0  0  0
  1  2  1  0
  3  4  2  0
  3  2  1  0
  6  5  1  1
  6  8  1  0
  7  6  1  0
  9  8  1  1
  9 10  1  0
 10  3  1  0
 11  9  1  0
 12 11  2  0
 13 14  1  0
 14 15  2  0
 15 16  1  0
 17 18  1  0
 17 16  2  0
 19 18  1  1
 19 21  1  0
 19 20  1  0
 20 11  1  0
 21 25  1  0
 22 21  2  0
 23 17  1  0
 24 23  2  0
 24 14  1  0
M  END
$$$$
