GLY.pdb
     RDKit          3D

 25 25  0  0  1  0  0  0  0  0999 V2000
    7.7977  -19.7819   20.0065 N   0  0  0  0  0  0  0  0  0  0  0  0
    7.1879  -18.6439   20.6407 C   0  0  0  0  0  0  0  0  0  0  0  0
    8.2695  -17.6308   20.9306 C   0  0  0  0  0  0  0  0  0  0  0  0
    9.4635  -17.9382   20.7206 O   0  0  0  0  0  0  0  0  0  0  0  0
    6.8541  -12.4977   20.1780 C   0  0  0  0  0  0  0  0  0  0  0  0
    7.5809  -13.8015   20.2345 C   0  0  1  0  0  0  0  0  0  0  0  0
    8.6912  -13.7781   19.1506 C   0  0  0  0  0  0  0  0  0  0  0  0
    8.3184  -13.9975   21.5230 C   0  0  0  0  0  0  0  0  0  0  0  0
    8.9655  -15.3468   21.7307 C   0  0  2  0  0  0  0  0  0  0  0  0
    7.9536  -16.3600   21.4284 N   0  0  0  0  0  0  0  0  0  0  0  0
    9.4708  -15.4966   23.0804 C   0  0  0  0  0  0  0  0  0  0  0  0
   10.5454  -14.8716   23.3854 O   0  0  0  0  0  0  0  0  0  0  0  0
    6.3026  -10.8529   26.5669 O   0  0  0  0  0  0  0  0  0  0  0  0
    6.7702  -12.1616   26.5093 C   0  0  0  0  0  0  0  0  0  0  0  0
    8.0974  -12.4221   26.8226 C   0  0  0  0  0  0  0  0  0  0  0  0
    8.5829  -13.7094   26.7727 C   0  0  0  0  0  0  0  0  0  0  0  0
    7.7808  -14.7822   26.4135 C   0  0  0  0  0  0  0  0  0  0  0  0
    8.3330  -16.1376   26.3692 C   0  0  0  0  0  0  0  0  0  0  0  0
    9.5054  -16.2895   25.4062 C   0  0  2  0  0  0  0  0  0  0  0  0
    8.8747  -16.2634   24.0765 N   0  0  0  0  0  0  0  0  0  0  0  0
   10.1856  -17.5791   25.5881 C   0  0  0  0  0  0  0  0  0  0  0  0
   10.7510  -17.8313   26.6737 O   0  0  0  0  0  0  0  0  0  0  0  0
    6.4613  -14.5353   26.1002 C   0  0  0  0  0  0  0  0  0  0  0  0
    5.9791  -13.2322   26.1532 C   0  0  0  0  0  0  0  0  0  0  0  0
   10.2087  -18.5119   24.5825 O   0  0  0  0  0  0  0  0  0  0  0  0
  1  2  1  0
  3  4  2  0
  3  2  1  0
  6  5  1  1
  6  8  1  0
  7  6  1  0
  9  8  1  1
  9 10  1  0
 10  3  1  0
 11  9  1  0
 12 11  2  0
 13 14  1  0
 14 15  2  0
 15 16  1  0
 17 18  1  0
 17 16  2  0
 19 18  1  1
 19 21  1  0
 19 20  1  0
 20 11  1  0
 21 25  1  0
 22 21  2  0
 23 17  1  0
 24 23  2  0
 24 14  1  0
M  END
$$$$
