GLY.pdb
     RDKit          3D

 25 25  0  0  1  0  0  0  0  0999 V2000
    6.2985  -17.0980   20.7215 N   0  0  0  0  0  0  0  0  0  0  0  0
    6.2246  -16.8347   22.1337 C   0  0  0  0  0  0  0  0  0  0  0  0
    7.2794  -15.8103   22.4774 C   0  0  0  0  0  0  0  0  0  0  0  0
    8.1357  -15.5063   21.6180 O   0  0  0  0  0  0  0  0  0  0  0  0
    6.0183  -12.3205   26.5600 C   0  0  0  0  0  0  0  0  0  0  0  0
    6.5455  -12.7971   25.2461 C   0  0  1  0  0  0  0  0  0  0  0  0
    6.8970  -11.5508   24.3907 C   0  0  0  0  0  0  0  0  0  0  0  0
    7.8394  -13.5396   25.3767 C   0  0  0  0  0  0  0  0  0  0  0  0
    8.3415  -14.2421   24.1370 C   0  0  2  0  0  0  0  0  0  0  0  0
    7.3099  -15.2007   23.7384 N   0  0  0  0  0  0  0  0  0  0  0  0
    9.6091  -14.9033   24.3722 C   0  0  0  0  0  0  0  0  0  0  0  0
   10.5735  -14.1950   24.8268 O   0  0  0  0  0  0  0  0  0  0  0  0
   10.7473  -14.4812   30.9386 O   0  0  0  0  0  0  0  0  0  0  0  0
   10.5739  -15.1840   29.7508 C   0  0  0  0  0  0  0  0  0  0  0  0
   10.8841  -16.5367   29.7116 C   0  0  0  0  0  0  0  0  0  0  0  0
   10.7207  -17.2531   28.5474 C   0  0  0  0  0  0  0  0  0  0  0  0
   10.2474  -16.6643   27.3844 C   0  0  0  0  0  0  0  0  0  0  0  0
   10.0887  -17.4579   26.1641 C   0  0  0  0  0  0  0  0  0  0  0  0
   10.8789  -16.9186   24.9766 C   0  0  2  0  0  0  0  0  0  0  0  0
    9.8600  -16.2534   24.1484 N   0  0  0  0  0  0  0  0  0  0  0  0
   11.4906  -18.0062   24.2009 C   0  0  0  0  0  0  0  0  0  0  0  0
   12.5305  -18.5564   24.6227 O   0  0  0  0  0  0  0  0  0  0  0  0
    9.9362  -15.3217   27.4117 C   0  0  0  0  0  0  0  0  0  0  0  0
   10.1042  -14.6055   28.5916 C   0  0  0  0  0  0  0  0  0  0  0  0
   10.9360  -18.4276   23.0190 O   0  0  0  0  0  0  0  0  0  0  0  0
  1  2  1  0
  3  4  2  0
  3  2  1  0
  6  5  1  1
  6  8  1  0
  7  6  1  0
  9  8  1  1
  9 10  1  0
 10  3  1  0
 11  9  1  0
 12 11  2  0
 13 14  1  0
 14 15  2  0
 15 16  1  0
 17 18  1  0
 17 16  2  0
 19 18  1  1
 19 21  1  0
 19 20  1  0
 20 11  1  0
 21 25  1  0
 22 21  2  0
 23 17  1  0
 24 23  2  0
 24 14  1  0
M  END
$$$$
