GLY.pdb
     RDKit          3D

 25 25  0  0  1  0  0  0  0  0999 V2000
    6.8791  -18.4881   20.9368 N   0  0  0  0  0  0  0  0  0  0  0  0
    6.7330  -18.1581   22.3292 C   0  0  0  0  0  0  0  0  0  0  0  0
    7.1110  -16.7075   22.5114 C   0  0  0  0  0  0  0  0  0  0  0  0
    7.5783  -16.0736   21.5399 O   0  0  0  0  0  0  0  0  0  0  0  0
    6.3204  -12.3210   26.8067 C   0  0  0  0  0  0  0  0  0  0  0  0
    6.5021  -12.7076   25.3753 C   0  0  1  0  0  0  0  0  0  0  0  0
    7.8942  -12.1992   24.9150 C   0  0  0  0  0  0  0  0  0  0  0  0
    6.5608  -14.1911   25.1795 C   0  0  0  0  0  0  0  0  0  0  0  0
    7.3513  -14.6831   23.9898 C   0  0  2  0  0  0  0  0  0  0  0  0
    6.9456  -16.0682   23.7469 N   0  0  0  0  0  0  0  0  0  0  0  0
    8.7789  -14.5872   24.2183 C   0  0  0  0  0  0  0  0  0  0  0  0
    9.1952  -13.6601   24.9964 O   0  0  0  0  0  0  0  0  0  0  0  0
   10.6751  -14.5405   30.7762 O   0  0  0  0  0  0  0  0  0  0  0  0
   10.5798  -15.1071   29.5095 C   0  0  0  0  0  0  0  0  0  0  0  0
   10.2243  -14.3058   28.4330 C   0  0  0  0  0  0  0  0  0  0  0  0
   10.1235  -14.8443   27.1699 C   0  0  0  0  0  0  0  0  0  0  0  0
   10.3687  -16.1868   26.9235 C   0  0  0  0  0  0  0  0  0  0  0  0
   10.2493  -16.7245   25.5667 C   0  0  0  0  0  0  0  0  0  0  0  0
   10.8771  -15.8354   24.4988 C   0  0  2  0  0  0  0  0  0  0  0  0
    9.7358  -15.4302   23.6622 N   0  0  0  0  0  0  0  0  0  0  0  0
   11.8343  -16.5837   23.6725 C   0  0  0  0  0  0  0  0  0  0  0  0
   13.0595  -16.4717   23.8925 O   0  0  0  0  0  0  0  0  0  0  0  0
   10.7224  -16.9920   27.9850 C   0  0  0  0  0  0  0  0  0  0  0  0
   10.8218  -16.4401   29.2573 C   0  0  0  0  0  0  0  0  0  0  0  0
   11.4024  -17.4049   22.6621 O   0  0  0  0  0  0  0  0  0  0  0  0
  1  2  1  0
  3  4  2  0
  3  2  1  0
  6  5  1  1
  6  8  1  0
  7  6  1  0
  9  8  1  1
  9 10  1  0
 10  3  1  0
 11  9  1  0
 12 11  2  0
 13 14  1  0
 14 15  2  0
 15 16  1  0
 17 18  1  0
 17 16  2  0
 19 18  1  1
 19 21  1  0
 19 20  1  0
 20 11  1  0
 21 25  1  0
 22 21  2  0
 23 17  1  0
 24 23  2  0
 24 14  1  0
M  END
$$$$
