GLY.pdb
     RDKit          3D

 25 25  0  0  1  0  0  0  0  0999 V2000
    5.4068  -19.4907   23.2110 N   0  0  0  0  0  0  0  0  0  0  0  0
    5.5232  -18.7639   24.4467 C   0  0  0  0  0  0  0  0  0  0  0  0
    6.2615  -17.4765   24.1680 C   0  0  0  0  0  0  0  0  0  0  0  0
    6.9437  -17.3797   23.1242 O   0  0  0  0  0  0  0  0  0  0  0  0
    7.1359  -12.0909   24.6210 C   0  0  0  0  0  0  0  0  0  0  0  0
    7.1400  -12.8378   25.9146 C   0  0  1  0  0  0  0  0  0  0  0  0
    6.3337  -12.0082   26.9491 C   0  0  0  0  0  0  0  0  0  0  0  0
    6.4115  -14.1436   25.8311 C   0  0  0  0  0  0  0  0  0  0  0  0
    7.0000  -15.1859   24.9094 C   0  0  2  0  0  0  0  0  0  0  0  0
    6.1919  -16.3971   25.0583 N   0  0  0  0  0  0  0  0  0  0  0  0
    8.3930  -15.4444   25.2128 C   0  0  0  0  0  0  0  0  0  0  0  0
    8.7023  -15.6759   26.4331 O   0  0  0  0  0  0  0  0  0  0  0  0
    9.7392  -19.2454   30.2089 O   0  0  0  0  0  0  0  0  0  0  0  0
    9.9071  -18.8341   28.8908 C   0  0  0  0  0  0  0  0  0  0  0  0
    8.8115  -18.8252   28.0382 C   0  0  0  0  0  0  0  0  0  0  0  0
    8.9534  -18.4221   26.7295 C   0  0  0  0  0  0  0  0  0  0  0  0
   10.1756  -18.0148   26.2160 C   0  0  0  0  0  0  0  0  0  0  0  0
   10.2887  -17.5950   24.8178 C   0  0  0  0  0  0  0  0  0  0  0  0
   10.6838  -16.1319   24.6484 C   0  0  2  0  0  0  0  0  0  0  0  0
    9.4236  -15.4673   24.2785 N   0  0  0  0  0  0  0  0  0  0  0  0
   11.6531  -15.9609   23.5575 C   0  0  0  0  0  0  0  0  0  0  0  0
   11.2442  -15.7452   22.3964 O   0  0  0  0  0  0  0  0  0  0  0  0
   11.2704  -18.0197   27.0536 C   0  0  0  0  0  0  0  0  0  0  0  0
   11.1184  -18.4283   28.3740 C   0  0  0  0  0  0  0  0  0  0  0  0
   13.0022  -16.0342   23.7952 O   0  0  0  0  0  0  0  0  0  0  0  0
  1  2  1  0
  3  4  2  0
  3  2  1  0
  6  5  1  6
  6  8  1  0
  7  6  1  0
  9  8  1  1
  9 10  1  0
 10  3  1  0
 11  9  1  0
 12 11  2  0
 13 14  1  0
 14 15  2  0
 15 16  1  0
 17 18  1  0
 17 16  2  0
 19 18  1  6
 19 21  1  0
 19 20  1  0
 20 11  1  0
 21 25  1  0
 22 21  2  0
 23 17  1  0
 24 23  2  0
 24 14  1  0
M  END
$$$$
