VHI.pdb
     RDKit          3D

 26 26  0  0  1  0  0  0  0  0999 V2000
   27.5792  -19.2272  -18.1670 C   0  0  0  0  0  0  0  0  0  0  0  0
   26.6614  -18.6678  -17.0942 C   0  0  1  0  0  0  0  0  0  0  0  0
   25.2909  -19.2710  -17.2671 C   0  0  0  0  0  0  0  0  0  0  0  0
   27.2319  -19.0924  -15.7597 C   0  0  2  0  0  0  0  0  0  0  0  0
   27.2900  -20.5232  -15.6220 N   0  0  0  0  0  0  0  0  0  0  0  0
   26.4729  -18.5236  -14.6158 C   0  0  0  0  0  0  0  0  0  0  0  0
   26.2132  -17.2728  -14.5623 O   0  0  0  0  0  0  0  0  0  0  0  0
   26.0186  -19.3200  -13.5675 N   0  0  0  0  0  0  0  0  0  0  0  0
   25.2614  -18.7144  -12.3886 C   0  0  1  0  0  0  0  0  0  0  0  0
   23.8407  -18.6712  -12.8168 C   0  0  0  0  0  0  0  0  0  0  0  0
   23.2041  -19.9079  -13.2683 C   0  0  0  0  0  0  0  0  0  0  0  0
   23.6700  -21.1963  -13.3183 C   0  0  0  0  0  0  0  0  0  0  0  0
   22.6913  -22.0484  -13.7162 N   0  0  0  0  0  0  0  0  0  0  0  0
   21.6156  -21.2928  -13.9129 C   0  0  0  0  0  0  0  0  0  0  0  0
   21.8866  -20.0164  -13.6553 N   0  0  0  0  0  0  0  0  0  0  0  0
   25.5442  -19.7382  -11.3139 C   0  0  0  0  0  0  0  0  0  0  0  0
   25.7915  -20.9234  -11.7735 O   0  0  0  0  0  0  0  0  0  0  0  0
   28.5212  -18.6408   -7.0020 C   0  0  0  0  0  0  0  0  0  0  0  0
   27.8833  -19.3796   -8.1130 C   0  0  0  0  0  0  0  0  0  0  0  0
   26.6629  -20.1663   -7.8613 C   0  0  2  0  0  0  0  0  0  0  0  0
   26.9235  -21.2132   -6.7638 C   0  0  0  0  0  0  0  0  0  0  0  0
   25.8708  -20.6735   -8.9684 C   0  0  2  0  0  0  0  0  0  0  0  0
   25.5715  -19.5622   -9.9384 N   0  0  0  0  0  0  0  0  0  0  0  0
   24.7687  -21.5840   -8.8617 C   0  0  0  0  0  0  0  0  0  0  0  0
   23.5620  -21.1470   -8.8729 O   0  0  0  0  0  0  0  0  0  0  0  0
   24.8442  -22.9525   -8.7499 O   0  0  0  0  0  0  0  0  0  0  0  0
  2  4  1  0
  2  1  1  6
  3  2  1  0
  4  6  1  0
  4  5  1  1
  6  7  2  0
  8  6  1  0
  8  9  1  0
  9 16  1  0
  9 10  1  6
 10 11  1  0
 11 12  2  0
 12 13  1  0
 14 13  1  0
 15 11  1  0
 15 14  2  0
 16 17  2  0
 19 20  1  0
 19 18  1  0
 20 22  1  0
 20 21  1  6
 22 23  1  1
 22 24  1  0
 23 16  1  0
 24 25  2  0
 24 26  1  0
M  END
$$$$
