VHI.pdb
     RDKit          3D

 26 26  0  0  1  0  0  0  0  0999 V2000
   29.2546  -20.2191  -15.5064 C   0  0  0  0  0  0  0  0  0  0  0  0
   28.4896  -19.5851  -14.3579 C   0  0  1  0  0  0  0  0  0  0  0  0
   28.2491  -18.1325  -14.6800 C   0  0  0  0  0  0  0  0  0  0  0  0
   27.1628  -20.3041  -14.2610 C   0  0  2  0  0  0  0  0  0  0  0  0
   26.3875  -20.1825  -15.4668 N   0  0  0  0  0  0  0  0  0  0  0  0
   26.3496  -19.8333  -13.1098 C   0  0  0  0  0  0  0  0  0  0  0  0
   25.8708  -18.6480  -13.0905 O   0  0  0  0  0  0  0  0  0  0  0  0
   26.0788  -20.6540  -12.0178 N   0  0  0  0  0  0  0  0  0  0  0  0
   25.1728  -20.1829  -10.8833 C   0  0  1  0  0  0  0  0  0  0  0  0
   23.9034  -20.9319  -11.0598 C   0  0  0  0  0  0  0  0  0  0  0  0
   22.9753  -20.5067  -12.1069 C   0  0  0  0  0  0  0  0  0  0  0  0
   23.1109  -19.5849  -13.1126 C   0  0  0  0  0  0  0  0  0  0  0  0
   22.0216  -19.5902  -13.9224 N   0  0  0  0  0  0  0  0  0  0  0  0
   21.2080  -20.5153  -13.4234 C   0  0  0  0  0  0  0  0  0  0  0  0
   21.7451  -21.0786  -12.3449 N   0  0  0  0  0  0  0  0  0  0  0  0
   25.9760  -20.6177   -9.6796 C   0  0  0  0  0  0  0  0  0  0  0  0
   26.5852  -21.7493   -9.8392 O   0  0  0  0  0  0  0  0  0  0  0  0
   29.3061  -18.4336   -5.9668 C   0  0  0  0  0  0  0  0  0  0  0  0
   28.5032  -19.3374   -6.8187 C   0  0  0  0  0  0  0  0  0  0  0  0
   27.2346  -19.8866   -6.3082 C   0  0  2  0  0  0  0  0  0  0  0  0
   27.4446  -20.4967   -4.9109 C   0  0  0  0  0  0  0  0  0  0  0  0
   26.3790  -20.6875   -7.1666 C   0  0  2  0  0  0  0  0  0  0  0  0
   26.1339  -19.9669   -8.4651 N   0  0  0  0  0  0  0  0  0  0  0  0
   25.2181  -21.4163   -6.7469 C   0  0  0  0  0  0  0  0  0  0  0  0
   24.0466  -20.9141   -6.8972 O   0  0  0  0  0  0  0  0  0  0  0  0
   25.1979  -22.6668   -6.1751 O   0  0  0  0  0  0  0  0  0  0  0  0
  2  4  1  0
  2  1  1  6
  3  2  1  0
  4  6  1  0
  4  5  1  6
  6  7  2  0
  8  6  1  0
  8  9  1  0
  9 16  1  0
  9 10  1  6
 10 11  1  0
 11 12  2  0
 12 13  1  0
 14 13  1  0
 15 11  1  0
 15 14  2  0
 16 17  2  0
 19 20  1  0
 19 18  1  0
 20 22  1  0
 20 21  1  1
 22 23  1  6
 22 24  1  0
 23 16  1  0
 24 25  2  0
 24 26  1  0
M  END
$$$$
