VHI.pdb
     RDKit          3D

 26 26  0  0  1  0  0  0  0  0999 V2000
   29.1062  -19.8181  -13.1155 C   0  0  0  0  0  0  0  0  0  0  0  0
   28.2181  -19.3582  -14.2583 C   0  0  1  0  0  0  0  0  0  0  0  0
   28.8647  -19.7509  -15.5620 C   0  0  0  0  0  0  0  0  0  0  0  0
   26.8999  -20.0847  -14.1129 C   0  0  2  0  0  0  0  0  0  0  0  0
   26.0229  -19.8515  -15.2293 N   0  0  0  0  0  0  0  0  0  0  0  0
   26.1939  -19.7250  -12.8558 C   0  0  0  0  0  0  0  0  0  0  0  0
   25.5599  -18.6191  -12.7570 O   0  0  0  0  0  0  0  0  0  0  0  0
   26.1939  -20.5675  -11.7469 N   0  0  0  0  0  0  0  0  0  0  0  0
   25.3410  -20.2555  -10.5201 C   0  0  1  0  0  0  0  0  0  0  0  0
   24.1700  -21.1627  -10.6166 C   0  0  0  0  0  0  0  0  0  0  0  0
   23.0515  -20.7785  -11.4769 C   0  0  0  0  0  0  0  0  0  0  0  0
   21.8692  -20.1461  -11.1910 C   0  0  0  0  0  0  0  0  0  0  0  0
   21.1674  -19.8984  -12.3260 N   0  0  0  0  0  0  0  0  0  0  0  0
   21.9116  -20.3745  -13.3191 C   0  0  0  0  0  0  0  0  0  0  0  0
   23.0375  -20.9036  -12.8486 N   0  0  0  0  0  0  0  0  0  0  0  0
   26.3005  -20.6133   -9.4091 C   0  0  0  0  0  0  0  0  0  0  0  0
   26.9736  -21.6976   -9.6292 O   0  0  0  0  0  0  0  0  0  0  0  0
   29.8924  -19.2029   -4.6310 C   0  0  0  0  0  0  0  0  0  0  0  0
   28.9102  -20.1287   -5.2356 C   0  0  0  0  0  0  0  0  0  0  0  0
   28.1647  -19.7187   -6.4388 C   0  0  2  0  0  0  0  0  0  0  0  0
   27.7163  -18.2519   -6.3110 C   0  0  0  0  0  0  0  0  0  0  0  0
   27.1486  -20.5867   -7.0085 C   0  0  2  0  0  0  0  0  0  0  0  0
   26.5387  -19.9373   -8.2217 N   0  0  0  0  0  0  0  0  0  0  0  0
   26.1722  -21.3311   -6.2686 C   0  0  0  0  0  0  0  0  0  0  0  0
   24.9223  -21.0697   -6.3969 O   0  0  0  0  0  0  0  0  0  0  0  0
   26.4193  -22.3595   -5.3896 O   0  0  0  0  0  0  0  0  0  0  0  0
  2  4  1  0
  2  1  1  1
  3  2  1  0
  4  6  1  0
  4  5  1  6
  6  7  2  0
  8  6  1  0
  8  9  1  0
  9 16  1  0
  9 10  1  6
 10 11  1  0
 11 12  2  0
 12 13  1  0
 14 13  1  0
 15 11  1  0
 15 14  2  0
 16 17  2  0
 19 20  1  0
 19 18  1  0
 20 22  1  0
 20 21  1  1
 22 23  1  6
 22 24  1  0
 23 16  1  0
 24 25  2  0
 24 26  1  0
M  END
$$$$
