VHI.pdb
     RDKit          3D

 26 26  0  0  1  0  0  0  0  0999 V2000
   15.9278   -7.7749  -17.3814 C   0  0  0  0  0  0  0  0  0  0  0  0
   15.1511   -9.0612  -17.1622 C   0  0  1  0  0  0  0  0  0  0  0  0
   14.0515   -9.1438  -18.1898 C   0  0  0  0  0  0  0  0  0  0  0  0
   16.1202  -10.2032  -17.3712 C   0  0  2  0  0  0  0  0  0  0  0  0
   15.4885  -11.4876  -17.2268 N   0  0  0  0  0  0  0  0  0  0  0  0
   17.2861  -10.1280  -16.4530 C   0  0  0  0  0  0  0  0  0  0  0  0
   17.2312  -10.6452  -15.2850 O   0  0  0  0  0  0  0  0  0  0  0  0
   18.4722   -9.4986  -16.8224 N   0  0  0  0  0  0  0  0  0  0  0  0
   19.6650   -9.4446  -15.8715 C   0  0  1  0  0  0  0  0  0  0  0  0
   20.7211  -10.2602  -16.5220 C   0  0  0  0  0  0  0  0  0  0  0  0
   22.0538  -10.2942  -15.9209 C   0  0  0  0  0  0  0  0  0  0  0  0
   22.5388   -9.7305  -14.7691 C   0  0  0  0  0  0  0  0  0  0  0  0
   23.8223  -10.1125  -14.5479 N   0  0  0  0  0  0  0  0  0  0  0  0
   24.1373  -10.9148  -15.5597 C   0  0  0  0  0  0  0  0  0  0  0  0
   23.1087  -11.0438  -16.3928 N   0  0  0  0  0  0  0  0  0  0  0  0
   19.9558   -7.9619  -15.8652 C   0  0  0  0  0  0  0  0  0  0  0  0
   20.0929   -7.4514  -17.0475 O   0  0  0  0  0  0  0  0  0  0  0  0
   17.2467   -3.9948  -15.7340 C   0  0  0  0  0  0  0  0  0  0  0  0
   18.4746   -4.8025  -15.8991 C   0  0  0  0  0  0  0  0  0  0  0  0
   19.5235   -4.7564  -14.8650 C   0  0  2  0  0  0  0  0  0  0  0  0
   19.9764   -3.3039  -14.6330 C   0  0  0  0  0  0  0  0  0  0  0  0
   20.6206   -5.7084  -14.8842 C   0  0  2  0  0  0  0  0  0  0  0  0
   20.0861   -7.1114  -14.7774 N   0  0  0  0  0  0  0  0  0  0  0  0
   21.8632   -5.5686  -14.1831 C   0  0  0  0  0  0  0  0  0  0  0  0
   22.7512   -4.7385  -14.5948 O   0  0  0  0  0  0  0  0  0  0  0  0
   22.2458   -6.2475  -13.0501 O   0  0  0  0  0  0  0  0  0  0  0  0
  2  4  1  0
  2  1  1  6
  3  2  1  0
  4  6  1  0
  4  5  1  1
  6  7  2  0
  8  6  1  0
  8  9  1  0
  9 16  1  0
  9 10  1  6
 10 11  1  0
 11 12  2  0
 12 13  1  0
 14 13  1  0
 15 11  1  0
 15 14  2  0
 16 17  2  0
 19 20  1  0
 19 18  1  0
 20 22  1  0
 20 21  1  6
 22 23  1  1
 22 24  1  0
 23 16  1  0
 24 25  2  0
 24 26  1  0
M  END
$$$$
