VHI.pdb
     RDKit          3D

 26 26  0  0  1  0  0  0  0  0999 V2000
   29.4395  -19.2503  -15.4914 C   0  0  0  0  0  0  0  0  0  0  0  0
   28.3878  -18.7203  -14.5328 C   0  0  1  0  0  0  0  0  0  0  0  0
   27.4616  -17.8028  -15.2894 C   0  0  0  0  0  0  0  0  0  0  0  0
   27.6091  -19.9141  -14.0276 C   0  0  2  0  0  0  0  0  0  0  0  0
   26.9077  -20.5942  -15.0837 N   0  0  0  0  0  0  0  0  0  0  0  0
   26.6433  -19.5461  -12.9600 C   0  0  0  0  0  0  0  0  0  0  0  0
   26.1727  -18.3596  -12.8865 O   0  0  0  0  0  0  0  0  0  0  0  0
   26.2161  -20.4674  -12.0069 N   0  0  0  0  0  0  0  0  0  0  0  0
   25.1727  -20.0905  -10.9585 C   0  0  1  0  0  0  0  0  0  0  0  0
   23.9694  -20.8902  -11.2991 C   0  0  0  0  0  0  0  0  0  0  0  0
   23.1354  -20.4629  -12.4219 C   0  0  0  0  0  0  0  0  0  0  0  0
   23.3457  -19.5196  -13.3942 C   0  0  0  0  0  0  0  0  0  0  0  0
   22.3380  -19.5305  -14.3034 N   0  0  0  0  0  0  0  0  0  0  0  0
   21.5007  -20.4805  -13.8996 C   0  0  0  0  0  0  0  0  0  0  0  0
   21.9454  -21.0539  -12.7850 N   0  0  0  0  0  0  0  0  0  0  0  0
   25.8665  -20.5397   -9.6937 C   0  0  0  0  0  0  0  0  0  0  0  0
   26.5779  -21.6118   -9.8406 O   0  0  0  0  0  0  0  0  0  0  0  0
   29.1254  -18.3657   -6.1309 C   0  0  0  0  0  0  0  0  0  0  0  0
   28.3190  -19.3175   -6.9252 C   0  0  0  0  0  0  0  0  0  0  0  0
   27.0774  -19.8733   -6.3584 C   0  0  2  0  0  0  0  0  0  0  0  0
   27.3495  -20.4668   -4.9647 C   0  0  0  0  0  0  0  0  0  0  0  0
   26.1959  -20.6912   -7.1735 C   0  0  2  0  0  0  0  0  0  0  0  0
   25.8335  -19.9560   -8.4359 N   0  0  0  0  0  0  0  0  0  0  0  0
   25.0959  -21.4738   -6.6912 C   0  0  0  0  0  0  0  0  0  0  0  0
   23.8897  -21.0642   -6.8476 O   0  0  0  0  0  0  0  0  0  0  0  0
   25.1729  -22.6874   -6.0492 O   0  0  0  0  0  0  0  0  0  0  0  0
  2  4  1  0
  2  1  1  6
  3  2  1  0
  4  6  1  0
  4  5  1  6
  6  7  2  0
  8  6  1  0
  8  9  1  0
  9 16  1  0
  9 10  1  6
 10 11  1  0
 11 12  2  0
 12 13  1  0
 14 13  1  0
 15 11  1  0
 15 14  2  0
 16 17  2  0
 19 20  1  0
 19 18  1  0
 20 22  1  0
 20 21  1  1
 22 23  1  6
 22 24  1  0
 23 16  1  0
 24 25  2  0
 24 26  1  0
M  END
$$$$
