VHI.pdb
     RDKit          3D

 26 26  0  0  1  0  0  0  0  0999 V2000
   20.4488  -11.5484    5.1663 C   0  0  0  0  0  0  0  0  0  0  0  0
   19.9025  -12.7969    5.8362 C   0  0  1  0  0  0  0  0  0  0  0  0
   19.5457  -12.4641    7.2624 C   0  0  0  0  0  0  0  0  0  0  0  0
   18.6507  -13.1897    5.0843 C   0  0  2  0  0  0  0  0  0  0  0  0
   17.6183  -12.1929    5.1859 N   0  0  0  0  0  0  0  0  0  0  0  0
   18.1100  -14.4984    5.5349 C   0  0  0  0  0  0  0  0  0  0  0  0
   17.0752  -14.5539    6.2837 O   0  0  0  0  0  0  0  0  0  0  0  0
   18.7012  -15.7038    5.1646 N   0  0  0  0  0  0  0  0  0  0  0  0
   18.1598  -17.0366    5.6749 C   0  0  1  0  0  0  0  0  0  0  0  0
   17.8682  -17.8327    4.4564 C   0  0  0  0  0  0  0  0  0  0  0  0
   16.5714  -18.4995    4.3454 C   0  0  0  0  0  0  0  0  0  0  0  0
   15.5236  -18.5868    5.2251 C   0  0  0  0  0  0  0  0  0  0  0  0
   14.4685  -19.2248    4.6575 N   0  0  0  0  0  0  0  0  0  0  0  0
   14.8572  -19.5339    3.4246 C   0  0  0  0  0  0  0  0  0  0  0  0
   16.1012  -19.1168    3.2073 N   0  0  0  0  0  0  0  0  0  0  0  0
   19.3454  -17.5407    6.4643 C   0  0  0  0  0  0  0  0  0  0  0  0
   20.4490  -17.5710    5.7874 O   0  0  0  0  0  0  0  0  0  0  0  0
   22.4865  -15.3356    9.5846 C   0  0  0  0  0  0  0  0  0  0  0  0
   21.7996  -16.3083    8.7075 C   0  0  0  0  0  0  0  0  0  0  0  0
   21.2501  -17.5490    9.2823 C   0  0  2  0  0  0  0  0  0  0  0  0
   22.2437  -18.1516   10.2915 C   0  0  0  0  0  0  0  0  0  0  0  0
   20.6190  -18.5409    8.4291 C   0  0  2  0  0  0  0  0  0  0  0  0
   19.3890  -17.9585    7.7862 N   0  0  0  0  0  0  0  0  0  0  0  0
   20.4342  -19.9259    8.7498 C   0  0  0  0  0  0  0  0  0  0  0  0
   19.3602  -20.3200    9.3313 O   0  0  0  0  0  0  0  0  0  0  0  0
   21.3129  -20.9514    8.4905 O   0  0  0  0  0  0  0  0  0  0  0  0
  2  4  1  0
  2  1  1  6
  3  2  1  0
  4  6  1  0
  4  5  1  1
  6  7  2  0
  8  6  1  0
  8  9  1  0
  9 16  1  0
  9 10  1  6
 10 11  1  0
 11 12  2  0
 12 13  1  0
 14 13  1  0
 15 11  1  0
 15 14  2  0
 16 17  2  0
 19 20  1  0
 19 18  1  0
 20 22  1  0
 20 21  1  6
 22 23  1  1
 22 24  1  0
 23 16  1  0
 24 25  2  0
 24 26  1  0
M  END
$$$$
