ITE.pdb
     RDKit          3D

 25 24  0  0  1  0  0  0  0  0999 V2000
   28.2805  -19.9059   -6.7676 C   0  0  0  0  0  0  0  0  0  0  0  0
   28.2147  -20.8855   -7.9173 C   0  0  0  0  0  0  0  0  0  0  0  0
   27.2258  -20.4227   -8.9431 C   0  0  2  0  0  0  0  0  0  0  0  0
   25.8659  -20.3273   -8.2886 C   0  0  0  0  0  0  0  0  0  0  0  0
   27.2151  -21.3168  -10.1677 C   0  0  2  0  0  0  0  0  0  0  0  0
   28.6318  -21.5555  -10.4850 N   0  0  0  0  0  0  0  0  0  0  0  0
   26.5190  -20.6956  -11.3036 C   0  0  0  0  0  0  0  0  0  0  0  0
   26.9192  -19.5625  -11.6761 O   0  0  0  0  0  0  0  0  0  0  0  0
   26.6917  -21.5238  -14.6485 C   0  0  0  0  0  0  0  0  0  0  0  0
   25.2232  -21.5614  -14.3709 C   0  0  1  0  0  0  0  0  0  0  0  0
   24.7508  -22.8513  -14.2576 O   0  0  0  0  0  0  0  0  0  0  0  0
   24.8436  -20.6856  -13.1898 C   0  0  2  0  0  0  0  0  0  0  0  0
   25.4378  -21.2719  -12.0068 N   0  0  0  0  0  0  0  0  0  0  0  0
   23.3646  -20.6543  -13.0509 C   0  0  0  0  0  0  0  0  0  0  0  0
   22.8170  -21.2912  -12.0968 O   0  0  0  0  0  0  0  0  0  0  0  0
   22.5311  -19.9491  -13.9296 N   0  0  0  0  0  0  0  0  0  0  0  0
   21.0484  -19.9393  -13.8254 C   0  0  1  0  0  0  0  0  0  0  0  0
   20.6325  -18.7385  -14.5825 C   0  0  0  0  0  0  0  0  0  0  0  0
   19.2112  -18.4369  -14.7935 C   0  0  0  0  0  0  0  0  0  0  0  0
   18.7621  -17.0541  -14.7855 C   0  0  0  0  0  0  0  0  0  0  0  0
   18.6617  -16.4228  -13.7030 O   0  0  0  0  0  0  0  0  0  0  0  0
   20.6298  -21.2433  -14.3288 C   0  0  0  0  0  0  0  0  0  0  0  0
   21.3078  -21.8567  -15.1888 O   0  0  0  0  0  0  0  0  0  0  0  0
   18.4261  -16.3601  -15.9402 O   0  0  0  0  0  0  0  0  0  0  0  0
   19.4833  -21.8747  -13.8952 O   0  0  0  0  0  0  0  0  0  0  0  0
  2  1  1  0
  2  3  1  0
  3  5  1  0
  3  4  1  1
  5  7  1  0
  5  6  1  6
  7 13  1  0
  7  8  2  0
 10  9  1  1
 10 12  1  0
 10 11  1  0
 12 14  1  0
 12 13  1  1
 14 16  1  0
 15 14  2  0
 16 17  1  0
 17 22  1  0
 17 18  1  6
 18 19  1  0
 19 20  1  0
 20 21  2  0
 20 24  1  0
 22 25  1  0
 23 22  2  0
M  END
$$$$
