ITE.pdb
     RDKit          3D

 25 24  0  0  1  0  0  0  0  0999 V2000
   27.3232  -11.1036  -15.5434 C   0  0  0  0  0  0  0  0  0  0  0  0
   26.4201  -10.0762  -16.1874 C   0  0  0  0  0  0  0  0  0  0  0  0
   25.0464  -10.1415  -15.5933 C   0  0  2  0  0  0  0  0  0  0  0  0
   24.5573  -11.5701  -15.6735 C   0  0  0  0  0  0  0  0  0  0  0  0
   24.0924   -9.1671  -16.2565 C   0  0  2  0  0  0  0  0  0  0  0  0
   24.7012   -7.8409  -16.0689 N   0  0  0  0  0  0  0  0  0  0  0  0
   22.7472   -9.2169  -15.6658 C   0  0  0  0  0  0  0  0  0  0  0  0
   22.6442   -8.9466  -14.4414 O   0  0  0  0  0  0  0  0  0  0  0  0
   20.0681   -7.1611  -15.3285 C   0  0  0  0  0  0  0  0  0  0  0  0
   19.5232   -8.3315  -16.0823 C   0  0  1  0  0  0  0  0  0  0  0  0
   19.4557   -8.0883  -17.4374 O   0  0  0  0  0  0  0  0  0  0  0  0
   20.2577   -9.6176  -15.7471 C   0  0  2  0  0  0  0  0  0  0  0  0
   21.5647   -9.5442  -16.3659 N   0  0  0  0  0  0  0  0  0  0  0  0
   19.5038  -10.7759  -16.2929 C   0  0  0  0  0  0  0  0  0  0  0  0
   19.8403  -11.2610  -17.4186 O   0  0  0  0  0  0  0  0  0  0  0  0
   18.4262  -11.3689  -15.6212 N   0  0  0  0  0  0  0  0  0  0  0  0
   17.7098  -12.5723  -16.1192 C   0  0  1  0  0  0  0  0  0  0  0  0
   17.6612  -13.4822  -14.9538 C   0  0  0  0  0  0  0  0  0  0  0  0
   17.5972  -14.9374  -15.1376 C   0  0  0  0  0  0  0  0  0  0  0  0
   16.5862  -15.7062  -14.4302 C   0  0  0  0  0  0  0  0  0  0  0  0
   15.7210  -15.1262  -13.7262 O   0  0  0  0  0  0  0  0  0  0  0  0
   16.4460  -12.0649  -16.6429 C   0  0  0  0  0  0  0  0  0  0  0  0
   15.9078  -11.0381  -16.1614 O   0  0  0  0  0  0  0  0  0  0  0  0
   16.5114  -17.0916  -14.4858 O   0  0  0  0  0  0  0  0  0  0  0  0
   15.7766  -12.6699  -17.6856 O   0  0  0  0  0  0  0  0  0  0  0  0
  2  1  1  0
  2  3  1  0
  3  5  1  0
  3  4  1  6
  5  7  1  0
  5  6  1  1
  7 13  1  0
  7  8  2  0
 10  9  1  1
 10 12  1  0
 10 11  1  0
 12 14  1  0
 12 13  1  6
 14 16  1  0
 15 14  2  0
 16 17  1  0
 17 22  1  0
 17 18  1  1
 18 19  1  0
 19 20  1  0
 20 21  2  0
 20 24  1  0
 22 25  1  0
 23 22  2  0
M  END
$$$$
