ITE.pdb
     RDKit          3D

 25 24  0  0  1  0  0  0  0  0999 V2000
   28.5709  -12.8926  -16.5061 C   0  0  0  0  0  0  0  0  0  0  0  0
   27.1862  -13.1547  -15.9587 C   0  0  0  0  0  0  0  0  0  0  0  0
   26.2786  -12.0007  -16.2568 C   0  0  2  0  0  0  0  0  0  0  0  0
   26.8386  -10.7657  -15.5875 C   0  0  0  0  0  0  0  0  0  0  0  0
   24.8466  -12.2812  -15.8444 C   0  0  2  0  0  0  0  0  0  0  0  0
   24.5084  -13.5686  -16.4712 N   0  0  0  0  0  0  0  0  0  0  0  0
   23.9244  -11.2239  -16.2832 C   0  0  0  0  0  0  0  0  0  0  0  0
   23.8084  -11.0368  -17.5218 O   0  0  0  0  0  0  0  0  0  0  0  0
   20.3271  -10.8926  -16.2617 C   0  0  0  0  0  0  0  0  0  0  0  0
   20.8613   -9.7481  -15.4619 C   0  0  1  0  0  0  0  0  0  0  0  0
   20.7504   -9.9681  -14.1057 O   0  0  0  0  0  0  0  0  0  0  0  0
   22.2676   -9.3631  -15.8865 C   0  0  2  0  0  0  0  0  0  0  0  0
   23.1607  -10.4042  -15.4227 N   0  0  0  0  0  0  0  0  0  0  0  0
   22.6360   -8.0656  -15.2632 C   0  0  0  0  0  0  0  0  0  0  0  0
   23.3182   -8.0635  -14.1906 O   0  0  0  0  0  0  0  0  0  0  0  0
   22.2649   -6.8272  -15.8044 N   0  0  0  0  0  0  0  0  0  0  0  0
   22.5711   -5.5238  -15.1590 C   0  0  1  0  0  0  0  0  0  0  0  0
   22.4107   -4.5285  -16.2416 C   0  0  0  0  0  0  0  0  0  0  0  0
   22.4310   -3.0898  -15.9500 C   0  0  0  0  0  0  0  0  0  0  0  0
   22.1911   -2.1369  -17.0215 C   0  0  0  0  0  0  0  0  0  0  0  0
   22.0776   -2.5298  -18.2104 O   0  0  0  0  0  0  0  0  0  0  0  0
   21.6615   -5.4476  -14.0207 C   0  0  0  0  0  0  0  0  0  0  0  0
   20.5330   -5.9963  -14.0520 O   0  0  0  0  0  0  0  0  0  0  0  0
   22.0735   -0.7700  -16.8076 O   0  0  0  0  0  0  0  0  0  0  0  0
   21.9815   -4.7818  -12.8564 O   0  0  0  0  0  0  0  0  0  0  0  0
  2  1  1  0
  2  3  1  0
  3  5  1  0
  3  4  1  1
  5  7  1  0
  5  6  1  6
  7 13  1  0
  7  8  2  0
 10  9  1  6
 10 12  1  0
 10 11  1  0
 12 14  1  0
 12 13  1  1
 14 16  1  0
 15 14  2  0
 16 17  1  0
 17 22  1  0
 17 18  1  6
 18 19  1  0
 19 20  1  0
 20 21  2  0
 20 24  1  0
 22 25  1  0
 23 22  2  0
M  END
$$$$
