ITE.pdb
     RDKit          3D

 25 24  0  0  1  0  0  0  0  0999 V2000
   24.4729  -12.3609  -15.2408 C   0  0  0  0  0  0  0  0  0  0  0  0
   22.9876  -12.6435  -15.2331 C   0  0  0  0  0  0  0  0  0  0  0  0
   22.2159  -11.3946  -15.5318 C   0  0  2  0  0  0  0  0  0  0  0  0
   22.5853  -10.3465  -14.5062 C   0  0  0  0  0  0  0  0  0  0  0  0
   20.7218  -11.6478  -15.5855 C   0  0  2  0  0  0  0  0  0  0  0  0
   20.5528  -12.7703  -16.5214 N   0  0  0  0  0  0  0  0  0  0  0  0
   19.9738  -10.4667  -16.0398 C   0  0  0  0  0  0  0  0  0  0  0  0
   20.3010   -9.9672  -17.1472 O   0  0  0  0  0  0  0  0  0  0  0  0
   16.5199  -10.1473  -17.0147 C   0  0  0  0  0  0  0  0  0  0  0  0
   16.7233   -9.1266  -15.9414 C   0  0  1  0  0  0  0  0  0  0  0  0
   16.1766   -9.5232  -14.7399 O   0  0  0  0  0  0  0  0  0  0  0  0
   18.1781   -8.7082  -15.8210 C   0  0  2  0  0  0  0  0  0  0  0  0
   18.9187   -9.8515  -15.3301 N   0  0  0  0  0  0  0  0  0  0  0  0
   18.2918   -7.5809  -14.8597 C   0  0  0  0  0  0  0  0  0  0  0  0
   18.7062   -7.8102  -13.6801 O   0  0  0  0  0  0  0  0  0  0  0  0
   17.9610   -6.2600  -15.1913 N   0  0  0  0  0  0  0  0  0  0  0  0
   18.3179   -5.0879  -14.3498 C   0  0  1  0  0  0  0  0  0  0  0  0
   19.7922   -5.1455  -14.2419 C   0  0  0  0  0  0  0  0  0  0  0  0
   20.5408   -4.0700  -13.5799 C   0  0  0  0  0  0  0  0  0  0  0  0
   21.9754   -4.2069  -13.3880 C   0  0  0  0  0  0  0  0  0  0  0  0
   22.7752   -3.4574  -14.0038 O   0  0  0  0  0  0  0  0  0  0  0  0
   17.7274   -3.9426  -15.0343 C   0  0  0  0  0  0  0  0  0  0  0  0
   17.5852   -2.8395  -14.4524 O   0  0  0  0  0  0  0  0  0  0  0  0
   22.5395   -5.1465  -12.5355 O   0  0  0  0  0  0  0  0  0  0  0  0
   17.2990   -3.9987  -16.3437 O   0  0  0  0  0  0  0  0  0  0  0  0
  2  1  1  0
  2  3  1  0
  3  5  1  0
  3  4  1  1
  5  7  1  0
  5  6  1  6
  7 13  1  0
  7  8  2  0
 10  9  1  6
 10 12  1  0
 10 11  1  0
 12 14  1  0
 12 13  1  1
 14 16  1  0
 15 14  2  0
 16 17  1  0
 17 22  1  0
 17 18  1  6
 18 19  1  0
 19 20  1  0
 20 21  2  0
 20 24  1  0
 22 25  1  0
 23 22  2  0
M  END
$$$$
