LPY.pdb
     RDKit          3D

 28 29  0  0  1  0  0  0  0  0999 V2000
   23.8206  -12.8962  -14.8556 C   0  0  0  0  0  0  0  0  0  0  0  0
   23.6304  -13.9867  -15.8898 C   0  0  1  0  0  0  0  0  0  0  0  0
   24.4510  -13.6511  -17.1150 C   0  0  0  0  0  0  0  0  0  0  0  0
   24.0293  -15.3372  -15.3384 C   0  0  0  0  0  0  0  0  0  0  0  0
   23.8195  -16.4400  -16.3222 C   0  0  2  0  0  0  0  0  0  0  0  0
   22.3937  -16.6231  -16.6122 N   0  0  0  0  0  0  0  0  0  0  0  0
   24.4272  -17.7405  -15.9454 C   0  0  0  0  0  0  0  0  0  0  0  0
   23.6492  -18.7118  -15.5814 O   0  0  0  0  0  0  0  0  0  0  0  0
   25.7944  -18.0612  -15.9382 N   0  0  0  0  0  0  0  0  0  0  0  0
   26.8846  -17.1855  -16.3091 C   0  0  0  0  0  0  0  0  0  0  0  0
   28.0510  -18.1083  -16.6568 C   0  0  0  0  0  0  0  0  0  0  0  0
   27.3821  -19.4470  -16.7465 C   0  0  0  0  0  0  0  0  0  0  0  0
   26.3921  -19.3709  -15.5858 C   0  0  1  0  0  0  0  0  0  0  0  0
   27.0446  -19.1978  -14.2774 C   0  0  0  0  0  0  0  0  0  0  0  0
   27.2779  -18.0582  -13.7649 O   0  0  0  0  0  0  0  0  0  0  0  0
   25.9067  -19.9938   -5.8781 O   0  0  0  0  0  0  0  0  0  0  0  0
   25.9735  -19.9757   -7.2755 C   0  0  0  0  0  0  0  0  0  0  0  0
   25.2749  -20.8928   -8.0339 C   0  0  0  0  0  0  0  0  0  0  0  0
   25.3253  -20.8953   -9.4094 C   0  0  0  0  0  0  0  0  0  0  0  0
   26.0927  -19.9581  -10.1042 C   0  0  0  0  0  0  0  0  0  0  0  0
   26.1447  -19.9594  -11.5831 C   0  0  0  0  0  0  0  0  0  0  0  0
   27.5553  -20.2188  -12.0569 C   0  0  2  0  0  0  0  0  0  0  0  0
   27.4477  -20.3230  -13.5173 N   0  0  0  0  0  0  0  0  0  0  0  0
   28.1327  -21.4734  -11.5560 C   0  0  0  0  0  0  0  0  0  0  0  0
   29.1519  -21.4660  -10.6312 O   0  0  0  0  0  0  0  0  0  0  0  0
   26.7862  -19.0456   -9.3332 C   0  0  0  0  0  0  0  0  0  0  0  0
   26.7334  -19.0476   -7.9557 C   0  0  0  0  0  0  0  0  0  0  0  0
   27.6927  -22.5667  -11.9747 O   0  0  0  0  0  0  0  0  0  0  0  0
  2  1  1  1
  2  3  1  0
  4  5  1  0
  4  2  1  0
  5  6  1  1
  7  5  1  0
  7  8  2  0
  9  7  1  0
 10  9  1  0
 11 12  1  0
 11 10  1  0
 12 13  1  0
 13  9  1  0
 14 23  1  0
 13 14  1  1
 15 14  2  0
 16 17  1  0
 17 18  2  0
 18 19  1  0
 20 19  2  0
 20 21  1  0
 22 21  1  1
 22 23  1  0
 22 24  1  0
 24 25  1  0
 26 20  1  0
 27 17  1  0
 27 26  2  0
 28 24  2  0
M  END
$$$$
