LPY.pdb
     RDKit          3D

 28 29  0  0  1  0  0  0  0  0999 V2000
   27.1543  -17.1670  -17.1456 C   0  0  0  0  0  0  0  0  0  0  0  0
   27.6239  -18.5558  -16.7639 C   0  0  1  0  0  0  0  0  0  0  0  0
   28.8452  -18.4363  -15.8800 C   0  0  0  0  0  0  0  0  0  0  0  0
   26.5313  -19.3262  -16.0569 C   0  0  0  0  0  0  0  0  0  0  0  0
   26.9738  -20.6883  -15.6365 C   0  0  2  0  0  0  0  0  0  0  0  0
   27.2887  -21.5227  -16.8006 N   0  0  0  0  0  0  0  0  0  0  0  0
   26.0306  -21.4062  -14.7433 C   0  0  0  0  0  0  0  0  0  0  0  0
   25.3749  -22.4213  -15.2133 O   0  0  0  0  0  0  0  0  0  0  0  0
   25.7534  -21.1113  -13.3987 N   0  0  0  0  0  0  0  0  0  0  0  0
   26.3593  -20.0637  -12.6059 C   0  0  0  0  0  0  0  0  0  0  0  0
   26.1593  -20.4835  -11.1510 C   0  0  0  0  0  0  0  0  0  0  0  0
   25.7255  -21.9119  -11.2885 C   0  0  0  0  0  0  0  0  0  0  0  0
   24.8135  -21.8366  -12.5114 C   0  0  1  0  0  0  0  0  0  0  0  0
   23.6523  -20.9529  -12.3154 C   0  0  0  0  0  0  0  0  0  0  0  0
   23.6645  -19.9581  -11.5242 O   0  0  0  0  0  0  0  0  0  0  0  0
   22.6824  -19.2605  -19.0690 O   0  0  0  0  0  0  0  0  0  0  0  0
   22.5011  -19.1779  -17.6841 C   0  0  0  0  0  0  0  0  0  0  0  0
   21.2402  -19.0565  -17.1367 C   0  0  0  0  0  0  0  0  0  0  0  0
   21.0368  -18.9729  -15.7780 C   0  0  0  0  0  0  0  0  0  0  0  0
   22.1098  -19.0098  -14.8851 C   0  0  0  0  0  0  0  0  0  0  0  0
   21.8906  -18.9225  -13.4242 C   0  0  0  0  0  0  0  0  0  0  0  0
   21.3362  -20.2258  -12.8994 C   0  0  2  0  0  0  0  0  0  0  0  0
   22.4446  -21.1810  -13.0195 N   0  0  0  0  0  0  0  0  0  0  0  0
   20.2035  -20.7488  -13.6750 C   0  0  0  0  0  0  0  0  0  0  0  0
   20.3306  -21.8884  -14.4362 O   0  0  0  0  0  0  0  0  0  0  0  0
   23.3661  -19.1324  -15.4459 C   0  0  0  0  0  0  0  0  0  0  0  0
   23.5650  -19.2147  -16.8076 C   0  0  0  0  0  0  0  0  0  0  0  0
   19.1052  -20.1511  -13.6449 O   0  0  0  0  0  0  0  0  0  0  0  0
  2  1  1  1
  2  3  1  0
  4  5  1  0
  4  2  1  0
  5  6  1  6
  7  5  1  0
  7  8  2  0
  9  7  1  0
 10  9  1  0
 11 12  1  0
 11 10  1  0
 12 13  1  0
 13  9  1  0
 14 23  1  0
 13 14  1  1
 15 14  2  0
 16 17  1  0
 17 18  2  0
 18 19  1  0
 20 19  2  0
 20 21  1  0
 22 21  1  6
 22 23  1  0
 22 24  1  0
 24 25  1  0
 26 20  1  0
 27 17  1  0
 27 26  2  0
 28 24  2  0
M  END
$$$$
