LPY.pdb
     RDKit          3D

 28 29  0  0  1  0  0  0  0  0999 V2000
   27.9064  -21.2290   -4.1651 C   0  0  0  0  0  0  0  0  0  0  0  0
   28.1487  -20.0603   -5.0979 C   0  0  1  0  0  0  0  0  0  0  0  0
   29.6277  -19.7453   -5.1179 C   0  0  0  0  0  0  0  0  0  0  0  0
   27.6527  -20.3643   -6.4939 C   0  0  0  0  0  0  0  0  0  0  0  0
   27.8482  -19.2191   -7.4310 C   0  0  2  0  0  0  0  0  0  0  0  0
   27.2491  -17.9923   -6.8959 N   0  0  0  0  0  0  0  0  0  0  0  0
   27.3658  -19.4522   -8.8152 C   0  0  0  0  0  0  0  0  0  0  0  0
   26.2870  -18.8513   -9.2105 O   0  0  0  0  0  0  0  0  0  0  0  0
   27.9599  -20.2728   -9.7876 N   0  0  0  0  0  0  0  0  0  0  0  0
   28.9465  -21.3050   -9.5550 C   0  0  0  0  0  0  0  0  0  0  0  0
   29.6507  -21.5080  -10.8951 C   0  0  0  0  0  0  0  0  0  0  0  0
   29.1857  -20.3198  -11.6822 C   0  0  0  0  0  0  0  0  0  0  0  0
   27.7241  -20.2213  -11.2499 C   0  0  1  0  0  0  0  0  0  0  0  0
   26.9363  -21.4173  -11.5919 C   0  0  0  0  0  0  0  0  0  0  0  0
   27.1469  -22.5577  -11.0715 O   0  0  0  0  0  0  0  0  0  0  0  0
   20.6287  -18.3380  -14.9620 O   0  0  0  0  0  0  0  0  0  0  0  0
   21.3936  -19.2353  -14.2086 C   0  0  0  0  0  0  0  0  0  0  0  0
   21.0767  -20.5776  -14.1626 C   0  0  0  0  0  0  0  0  0  0  0  0
   21.8134  -21.4791  -13.4285 C   0  0  0  0  0  0  0  0  0  0  0  0
   22.9268  -21.0696  -12.6919 C   0  0  0  0  0  0  0  0  0  0  0  0
   23.7202  -22.0394  -11.9046 C   0  0  0  0  0  0  0  0  0  0  0  0
   24.9464  -22.4630  -12.6785 C   0  0  2  0  0  0  0  0  0  0  0  0
   25.8847  -21.3427  -12.5379 N   0  0  0  0  0  0  0  0  0  0  0  0
   24.7050  -22.6727  -14.1123 C   0  0  0  0  0  0  0  0  0  0  0  0
   24.0944  -23.8184  -14.5690 O   0  0  0  0  0  0  0  0  0  0  0  0
   23.2335  -19.7239  -12.7471 C   0  0  0  0  0  0  0  0  0  0  0  0
   22.4920  -18.8245  -13.4831 C   0  0  0  0  0  0  0  0  0  0  0  0
   25.0588  -21.7978  -14.9331 O   0  0  0  0  0  0  0  0  0  0  0  0
  2  1  1  1
  2  3  1  0
  4  5  1  0
  4  2  1  0
  5  6  1  1
  7  5  1  0
  7  8  2  0
  9  7  1  0
 10  9  1  0
 11 12  1  0
 11 10  1  0
 12 13  1  0
 13  9  1  0
 14 23  1  0
 13 14  1  6
 15 14  2  0
 16 17  1  0
 17 18  2  0
 18 19  1  0
 20 19  2  0
 20 21  1  0
 22 21  1  1
 22 23  1  0
 22 24  1  0
 24 25  1  0
 26 20  1  0
 27 17  1  0
 27 26  2  0
 28 24  2  0
M  END
$$$$
