LPY.pdb
     RDKit          3D

 28 29  0  0  1  0  0  0  0  0999 V2000
   27.0583  -15.7736  -17.2070 C   0  0  0  0  0  0  0  0  0  0  0  0
   26.4812  -16.3265  -15.9201 C   0  0  1  0  0  0  0  0  0  0  0  0
   26.0220  -15.1759  -15.0527 C   0  0  0  0  0  0  0  0  0  0  0  0
   25.3336  -17.2714  -16.1983 C   0  0  0  0  0  0  0  0  0  0  0  0
   25.7971  -18.6057  -16.6807 C   0  0  2  0  0  0  0  0  0  0  0  0
   24.9936  -19.0626  -17.8191 N   0  0  0  0  0  0  0  0  0  0  0  0
   25.8469  -19.6652  -15.6426 C   0  0  0  0  0  0  0  0  0  0  0  0
   24.8316  -20.4612  -15.5129 O   0  0  0  0  0  0  0  0  0  0  0  0
   26.9013  -19.9233  -14.7518 N   0  0  0  0  0  0  0  0  0  0  0  0
   28.1518  -19.2007  -14.6677 C   0  0  0  0  0  0  0  0  0  0  0  0
   29.1294  -20.1524  -13.9811 C   0  0  0  0  0  0  0  0  0  0  0  0
   28.3928  -21.4571  -14.0325 C   0  0  0  0  0  0  0  0  0  0  0  0
   26.9609  -21.0097  -13.7454 C   0  0  1  0  0  0  0  0  0  0  0  0
   26.8058  -20.3719  -12.4274 C   0  0  0  0  0  0  0  0  0  0  0  0
   27.2325  -19.2028  -12.1689 O   0  0  0  0  0  0  0  0  0  0  0  0
   19.9910  -21.7858  -12.1039 O   0  0  0  0  0  0  0  0  0  0  0  0
   21.1884  -21.1776  -11.7115 C   0  0  0  0  0  0  0  0  0  0  0  0
   21.4151  -20.8353  -10.3941 C   0  0  0  0  0  0  0  0  0  0  0  0
   22.5844  -20.2359   -9.9842 C   0  0  0  0  0  0  0  0  0  0  0  0
   23.6036  -19.9470  -10.8940 C   0  0  0  0  0  0  0  0  0  0  0  0
   24.8616  -19.3049  -10.4527 C   0  0  0  0  0  0  0  0  0  0  0  0
   25.8907  -20.3543  -10.1044 C   0  0  2  0  0  0  0  0  0  0  0  0
   26.1573  -21.0527  -11.3679 N   0  0  0  0  0  0  0  0  0  0  0  0
   25.4237  -21.3485   -9.1289 C   0  0  0  0  0  0  0  0  0  0  0  0
   25.1946  -21.0019   -7.8168 O   0  0  0  0  0  0  0  0  0  0  0  0
   23.3642  -20.2955  -12.2090 C   0  0  0  0  0  0  0  0  0  0  0  0
   22.1910  -20.8948  -12.6150 C   0  0  0  0  0  0  0  0  0  0  0  0
   25.2301  -22.5290   -9.4938 O   0  0  0  0  0  0  0  0  0  0  0  0
  2  1  1  6
  2  3  1  0
  4  5  1  0
  4  2  1  0
  5  6  1  6
  7  5  1  0
  7  8  2  0
  9  7  1  0
 10  9  1  0
 11 12  1  0
 11 10  1  0
 12 13  1  0
 13  9  1  0
 14 23  1  0
 13 14  1  1
 15 14  2  0
 16 17  1  0
 17 18  2  0
 18 19  1  0
 20 19  2  0
 20 21  1  0
 22 21  1  6
 22 23  1  0
 22 24  1  0
 24 25  1  0
 26 20  1  0
 27 17  1  0
 27 26  2  0
 28 24  2  0
M  END
$$$$
