LPY.pdb
     RDKit          3D

 28 29  0  0  1  0  0  0  0  0999 V2000
   21.4731  -16.9987  -17.3302 C   0  0  0  0  0  0  0  0  0  0  0  0
   22.5332  -17.9568  -17.8333 C   0  0  1  0  0  0  0  0  0  0  0  0
   23.4753  -17.2102  -18.7509 C   0  0  0  0  0  0  0  0  0  0  0  0
   23.2948  -18.5799  -16.6848 C   0  0  0  0  0  0  0  0  0  0  0  0
   24.2696  -19.6142  -17.1409 C   0  0  2  0  0  0  0  0  0  0  0  0
   23.5921  -20.6924  -17.8681 N   0  0  0  0  0  0  0  0  0  0  0  0
   25.1220  -20.1879  -16.0699 C   0  0  0  0  0  0  0  0  0  0  0  0
   24.7765  -21.3167  -15.5335 O   0  0  0  0  0  0  0  0  0  0  0  0
   26.3046  -19.6384  -15.5489 N   0  0  0  0  0  0  0  0  0  0  0  0
   26.9298  -18.3995  -15.9581 C   0  0  0  0  0  0  0  0  0  0  0  0
   28.3904  -18.5158  -15.5268 C   0  0  0  0  0  0  0  0  0  0  0  0
   28.5078  -19.9720  -15.1900 C   0  0  0  0  0  0  0  0  0  0  0  0
   27.1691  -20.2345  -14.5030 C   0  0  1  0  0  0  0  0  0  0  0  0
   26.9741  -19.4292  -13.2859 C   0  0  0  0  0  0  0  0  0  0  0  0
   26.6168  -18.2096  -13.3120 O   0  0  0  0  0  0  0  0  0  0  0  0
   20.6430  -21.1085   -7.9146 O   0  0  0  0  0  0  0  0  0  0  0  0
   21.6927  -21.0059   -8.8341 C   0  0  0  0  0  0  0  0  0  0  0  0
   23.0027  -21.1934   -8.4434 C   0  0  0  0  0  0  0  0  0  0  0  0
   24.0519  -21.0970   -9.3291 C   0  0  0  0  0  0  0  0  0  0  0  0
   23.8327  -20.8041  -10.6768 C   0  0  0  0  0  0  0  0  0  0  0  0
   24.9605  -20.7030  -11.6294 C   0  0  0  0  0  0  0  0  0  0  0  0
   26.1094  -19.9493  -11.0021 C   0  0  2  0  0  0  0  0  0  0  0  0
   27.1811  -19.9961  -12.0045 N   0  0  0  0  0  0  0  0  0  0  0  0
   26.6200  -20.5584   -9.7666 C   0  0  0  0  0  0  0  0  0  0  0  0
   27.2058  -21.8037   -9.7789 O   0  0  0  0  0  0  0  0  0  0  0  0
   22.5169  -20.6196  -11.0547 C   0  0  0  0  0  0  0  0  0  0  0  0
   21.4695  -20.7161  -10.1637 C   0  0  0  0  0  0  0  0  0  0  0  0
   26.5222  -19.9376   -8.6852 O   0  0  0  0  0  0  0  0  0  0  0  0
  2  1  1  1
  2  3  1  0
  4  5  1  0
  4  2  1  0
  5  6  1  1
  7  5  1  0
  7  8  2  0
  9  7  1  0
 10  9  1  0
 11 12  1  0
 11 10  1  0
 12 13  1  0
 13  9  1  0
 14 23  1  0
 13 14  1  1
 15 14  2  0
 16 17  1  0
 17 18  2  0
 18 19  1  0
 20 19  2  0
 20 21  1  0
 22 21  1  6
 22 23  1  0
 22 24  1  0
 24 25  1  0
 26 20  1  0
 27 17  1  0
 27 26  2  0
 28 24  2  0
M  END
$$$$
