LPY.pdb
     RDKit          3D

 28 29  0  0  1  0  0  0  0  0999 V2000
   20.4118  -18.7681  -14.8928 C   0  0  0  0  0  0  0  0  0  0  0  0
   21.5438  -19.4630  -15.6213 C   0  0  1  0  0  0  0  0  0  0  0  0
   22.2677  -18.4528  -16.4830 C   0  0  0  0  0  0  0  0  0  0  0  0
   22.5017  -20.1126  -14.6479 C   0  0  0  0  0  0  0  0  0  0  0  0
   23.5270  -20.9544  -15.3321 C   0  0  2  0  0  0  0  0  0  0  0  0
   22.9013  -22.0778  -16.0370 N   0  0  0  0  0  0  0  0  0  0  0  0
   24.6149  -21.4541  -14.4548 C   0  0  0  0  0  0  0  0  0  0  0  0
   24.6879  -22.7258  -14.2124 O   0  0  0  0  0  0  0  0  0  0  0  0
   25.6156  -20.6890  -13.8342 N   0  0  0  0  0  0  0  0  0  0  0  0
   25.7679  -19.2521  -13.9064 C   0  0  0  0  0  0  0  0  0  0  0  0
   27.2300  -18.9773  -13.5604 C   0  0  0  0  0  0  0  0  0  0  0  0
   27.8376  -20.3458  -13.6360 C   0  0  0  0  0  0  0  0  0  0  0  0
   26.7373  -21.2022  -13.0125 C   0  0  1  0  0  0  0  0  0  0  0  0
   26.4388  -20.8377  -11.6176 C   0  0  0  0  0  0  0  0  0  0  0  0
   25.6488  -19.8932  -11.3022 O   0  0  0  0  0  0  0  0  0  0  0  0
   28.2834  -18.8730   -3.3623 O   0  0  0  0  0  0  0  0  0  0  0  0
   28.2042  -19.5376   -4.5910 C   0  0  0  0  0  0  0  0  0  0  0  0
   29.1271  -19.3015   -5.5893 C   0  0  0  0  0  0  0  0  0  0  0  0
   29.0696  -19.9424   -6.8061 C   0  0  0  0  0  0  0  0  0  0  0  0
   28.0646  -20.8710   -7.0847 C   0  0  0  0  0  0  0  0  0  0  0  0
   28.0045  -21.5618   -8.3920 C   0  0  0  0  0  0  0  0  0  0  0  0
   26.7810  -21.1215   -9.1607 C   0  0  2  0  0  0  0  0  0  0  0  0
   27.0346  -21.5436  -10.5438 N   0  0  0  0  0  0  0  0  0  0  0  0
   26.5685  -19.6679   -9.1640 C   0  0  0  0  0  0  0  0  0  0  0  0
   25.5747  -19.0944   -8.4041 O   0  0  0  0  0  0  0  0  0  0  0  0
   27.1479  -21.0986   -6.0768 C   0  0  0  0  0  0  0  0  0  0  0  0
   27.2090  -20.4535   -4.8600 C   0  0  0  0  0  0  0  0  0  0  0  0
   27.3009  -18.9378   -9.8674 O   0  0  0  0  0  0  0  0  0  0  0  0
  2  1  1  1
  2  3  1  0
  4  5  1  0
  4  2  1  0
  5  6  1  1
  7  5  1  0
  7  8  2  0
  9  7  1  0
 10  9  1  0
 11 12  1  0
 11 10  1  0
 12 13  1  0
 13  9  1  0
 14 23  1  0
 13 14  1  1
 15 14  2  0
 16 17  1  0
 17 18  2  0
 18 19  1  0
 20 19  2  0
 20 21  1  0
 22 21  1  1
 22 23  1  0
 22 24  1  0
 24 25  1  0
 26 20  1  0
 27 17  1  0
 27 26  2  0
 28 24  2  0
M  END
$$$$
