LPY.pdb
     RDKit          3D

 28 29  0  0  1  0  0  0  0  0999 V2000
   24.6270  -17.3260  -18.0462 C   0  0  0  0  0  0  0  0  0  0  0  0
   25.7107  -18.3845  -18.0328 C   0  0  1  0  0  0  0  0  0  0  0  0
   27.0612  -17.7065  -18.0919 C   0  0  0  0  0  0  0  0  0  0  0  0
   25.6081  -19.2550  -16.8004 C   0  0  0  0  0  0  0  0  0  0  0  0
   26.6507  -20.3226  -16.7673 C   0  0  2  0  0  0  0  0  0  0  0  0
   26.4254  -21.3120  -17.8260 N   0  0  0  0  0  0  0  0  0  0  0  0
   26.8032  -21.0099  -15.4607 C   0  0  0  0  0  0  0  0  0  0  0  0
   26.1912  -22.1374  -15.2725 O   0  0  0  0  0  0  0  0  0  0  0  0
   27.5614  -20.5733  -14.3623 N   0  0  0  0  0  0  0  0  0  0  0  0
   28.3561  -19.3664  -14.2918 C   0  0  0  0  0  0  0  0  0  0  0  0
   29.3720  -19.6096  -13.1775 C   0  0  0  0  0  0  0  0  0  0  0  0
   29.2397  -21.0843  -12.9423 C   0  0  0  0  0  0  0  0  0  0  0  0
   27.7300  -21.2786  -13.0698 C   0  0  1  0  0  0  0  0  0  0  0  0
   26.9609  -20.5176  -12.0712 C   0  0  0  0  0  0  0  0  0  0  0  0
   26.7785  -19.2619  -12.1471 O   0  0  0  0  0  0  0  0  0  0  0  0
   21.5127  -20.0594  -15.0484 O   0  0  0  0  0  0  0  0  0  0  0  0
   22.1593  -20.3196  -13.8351 C   0  0  0  0  0  0  0  0  0  0  0  0
   22.9107  -21.4635  -13.6594 C   0  0  0  0  0  0  0  0  0  0  0  0
   23.5552  -21.7415  -12.4754 C   0  0  0  0  0  0  0  0  0  0  0  0
   23.4770  -20.8667  -11.3897 C   0  0  0  0  0  0  0  0  0  0  0  0
   24.1720  -21.1645  -10.1177 C   0  0  0  0  0  0  0  0  0  0  0  0
   25.4893  -20.4278  -10.0562 C   0  0  2  0  0  0  0  0  0  0  0  0
   26.3777  -21.1712  -10.9580 N   0  0  0  0  0  0  0  0  0  0  0  0
   26.1059  -20.4166   -8.7229 C   0  0  0  0  0  0  0  0  0  0  0  0
   27.3093  -21.0435   -8.4924 O   0  0  0  0  0  0  0  0  0  0  0  0
   22.7225  -19.7253  -11.5792 C   0  0  0  0  0  0  0  0  0  0  0  0
   22.0779  -19.4517  -12.7666 C   0  0  0  0  0  0  0  0  0  0  0  0
   25.5307  -19.8287   -7.7807 O   0  0  0  0  0  0  0  0  0  0  0  0
  2  1  1  1
  2  3  1  0
  4  5  1  0
  4  2  1  0
  5  6  1  6
  7  5  1  0
  7  8  2  0
  9  7  1  0
 10  9  1  0
 11 12  1  0
 11 10  1  0
 12 13  1  0
 13  9  1  0
 14 23  1  0
 13 14  1  1
 15 14  2  0
 16 17  1  0
 17 18  2  0
 18 19  1  0
 20 19  2  0
 20 21  1  0
 22 21  1  1
 22 23  1  0
 22 24  1  0
 24 25  1  0
 26 20  1  0
 27 17  1  0
 27 26  2  0
 28 24  2  0
M  END
$$$$
