WAN.pdb
     RDKit          3D

 28 29  0  0  1  0  0  0  0  0999 V2000
    7.0524  -16.9401   24.5678 N   0  0  0  0  0  0  0  0  0  0  0  0
    7.2177  -15.6097   23.9735 C   0  0  1  0  0  0  0  0  0  0  0  0
    8.5081  -14.9851   24.4893 C   0  0  0  0  0  0  0  0  0  0  0  0
    8.2270  -14.4698   25.8524 C   0  0  0  0  0  0  0  0  0  0  0  0
    8.6049  -15.0006   27.0729 C   0  0  0  0  0  0  0  0  0  0  0  0
    8.1347  -14.2111   28.0411 N   0  0  0  0  0  0  0  0  0  0  0  0
    7.4577  -13.1750   27.4950 C   0  0  0  0  0  0  0  0  0  0  0  0
    6.7919  -12.0966   28.0759 C   0  0  0  0  0  0  0  0  0  0  0  0
    6.1765  -11.1720   27.2433 C   0  0  0  0  0  0  0  0  0  0  0  0
    6.2302  -11.3274   25.8841 C   0  0  0  0  0  0  0  0  0  0  0  0
    6.9002  -12.4109   25.3161 C   0  0  0  0  0  0  0  0  0  0  0  0
    7.5098  -13.3271   26.1387 C   0  0  0  0  0  0  0  0  0  0  0  0
    7.2343  -15.7770   22.5176 C   0  0  0  0  0  0  0  0  0  0  0  0
    7.2310  -16.9047   21.9655 O   0  0  0  0  0  0  0  0  0  0  0  0
    7.0461  -13.3215   19.7069 C   0  0  0  0  0  0  0  0  0  0  0  0
    7.3430  -14.7255   20.2316 C   0  0  2  0  0  0  0  0  0  0  0  0
    7.2552  -14.6318   21.6738 N   0  0  0  0  0  0  0  0  0  0  0  0
    8.7317  -15.0533   19.8635 C   0  0  0  0  0  0  0  0  0  0  0  0
    8.9990  -15.2933   18.6630 O   0  0  0  0  0  0  0  0  0  0  0  0
   13.9761  -14.3512   19.5066 N   0  0  0  0  0  0  0  0  0  0  0  0
   13.4948  -14.9569   20.6990 C   0  0  0  0  0  0  0  0  0  0  0  0
   14.2522  -15.7249   21.3077 O   0  0  0  0  0  0  0  0  0  0  0  0
   12.1448  -14.6564   21.1564 C   0  0  0  0  0  0  0  0  0  0  0  0
   11.1187  -15.4215   20.3818 C   0  0  2  0  0  0  0  0  0  0  0  0
    9.7715  -15.1060   20.8154 N   0  0  0  0  0  0  0  0  0  0  0  0
   11.3705  -16.8722   20.5028 C   0  0  0  0  0  0  0  0  0  0  0  0
   12.0740  -17.4897   19.4359 O   0  0  0  0  0  0  0  0  0  0  0  0
   11.0336  -17.5946   21.4300 O   0  0  0  0  0  0  0  0  0  0  0  0
  2  1  1  1
  3  2  1  0
  3  4  1  0
  4  5  2  0
  5  6  1  0
  7  6  1  0
  8  7  2  0
  9  8  1  0
 10 11  1  0
 10  9  2  0
 11 12  2  0
 12  4  1  0
 12  7  1  0
 13 17  1  0
 13  2  1  0
 14 13  2  0
 16 18  1  0
 16 15  1  6
 16 17  1  0
 18 25  1  0
 19 18  2  0
 20 21  1  0
 21 22  2  0
 23 21  1  0
 24 23  1  1
 24 26  1  0
 25 24  1  0
 26 28  2  0
 26 27  1  0
M  END
$$$$
