WAN.pdb
     RDKit          3D

 28 29  0  0  1  0  0  0  0  0999 V2000
    6.7352  -17.4792   23.1054 N   0  0  0  0  0  0  0  0  0  0  0  0
    7.0983  -16.0748   22.8907 C   0  0  1  0  0  0  0  0  0  0  0  0
    8.1073  -15.6483   23.9496 C   0  0  0  0  0  0  0  0  0  0  0  0
    7.3340  -15.0939   25.0885 C   0  0  0  0  0  0  0  0  0  0  0  0
    6.4566  -15.7451   25.9372 C   0  0  0  0  0  0  0  0  0  0  0  0
    5.9854  -14.8601   26.8184 N   0  0  0  0  0  0  0  0  0  0  0  0
    6.5263  -13.6440   26.5759 C   0  0  0  0  0  0  0  0  0  0  0  0
    6.3564  -12.4135   27.2089 C   0  0  0  0  0  0  0  0  0  0  0  0
    7.0595  -11.3182   26.7267 C   0  0  0  0  0  0  0  0  0  0  0  0
    7.8978  -11.4570   25.6533 C   0  0  0  0  0  0  0  0  0  0  0  0
    8.0589  -12.6942   25.0295 C   0  0  0  0  0  0  0  0  0  0  0  0
    7.3636  -13.7795   25.5054 C   0  0  0  0  0  0  0  0  0  0  0  0
    7.6466  -15.9640   21.5360 C   0  0  0  0  0  0  0  0  0  0  0  0
    7.9766  -16.9660   20.8552 O   0  0  0  0  0  0  0  0  0  0  0  0
    8.2741  -12.9989   19.3354 C   0  0  0  0  0  0  0  0  0  0  0  0
    8.3294  -14.5025   19.6020 C   0  0  2  0  0  0  0  0  0  0  0  0
    7.8219  -14.6814   20.9461 N   0  0  0  0  0  0  0  0  0  0  0  0
    9.7461  -14.9070   19.5744 C   0  0  0  0  0  0  0  0  0  0  0  0
   10.2991  -15.0998   18.4665 O   0  0  0  0  0  0  0  0  0  0  0  0
   12.7876  -12.6164   19.4314 N   0  0  0  0  0  0  0  0  0  0  0  0
   13.1576  -13.9831   19.5556 C   0  0  0  0  0  0  0  0  0  0  0  0
   13.6843  -14.5339   18.5793 O   0  0  0  0  0  0  0  0  0  0  0  0
   12.9070  -14.6782   20.8111 C   0  0  0  0  0  0  0  0  0  0  0  0
   11.8163  -15.6924   20.6697 C   0  0  2  0  0  0  0  0  0  0  0  0
   10.5023  -15.0846   20.7520 N   0  0  0  0  0  0  0  0  0  0  0  0
   11.9626  -16.7407   21.7004 C   0  0  0  0  0  0  0  0  0  0  0  0
   13.1597  -17.5025   21.6714 O   0  0  0  0  0  0  0  0  0  0  0  0
   11.1555  -17.0180   22.5762 O   0  0  0  0  0  0  0  0  0  0  0  0
  2  1  1  1
  3  2  1  0
  3  4  1  0
  4  5  2  0
  5  6  1  0
  7  6  1  0
  8  7  2  0
  9  8  1  0
 10 11  1  0
 10  9  2  0
 11 12  2  0
 12  4  1  0
 12  7  1  0
 13 17  1  0
 13  2  1  0
 14 13  2  0
 16 18  1  0
 16 15  1  1
 16 17  1  0
 18 25  1  0
 19 18  2  0
 20 21  1  0
 21 22  2  0
 23 21  1  0
 24 23  1  1
 24 26  1  0
 25 24  1  0
 26 28  2  0
 26 27  1  0
M  END
$$$$
