WAN.pdb
     RDKit          3D

 28 29  0  0  1  0  0  0  0  0999 V2000
    9.4522  -15.0834   25.0705 N   0  0  0  0  0  0  0  0  0  0  0  0
    9.3134  -16.5367   25.2091 C   0  0  1  0  0  0  0  0  0  0  0  0
    7.9587  -16.8559   25.8289 C   0  0  0  0  0  0  0  0  0  0  0  0
    7.1716  -15.5977   25.8249 C   0  0  0  0  0  0  0  0  0  0  0  0
    5.9346  -15.3528   25.2555 C   0  0  0  0  0  0  0  0  0  0  0  0
    5.6039  -14.0817   25.4934 N   0  0  0  0  0  0  0  0  0  0  0  0
    6.5865  -13.4808   26.2031 C   0  0  0  0  0  0  0  0  0  0  0  0
    6.7124  -12.1808   26.6906 C   0  0  0  0  0  0  0  0  0  0  0  0
    7.8584  -11.8476   27.3995 C   0  0  0  0  0  0  0  0  0  0  0  0
    8.8350  -12.7842   27.6082 C   0  0  0  0  0  0  0  0  0  0  0  0
    8.6959  -14.0815   27.1151 C   0  0  0  0  0  0  0  0  0  0  0  0
    7.5623  -14.4131   26.4131 C   0  0  0  0  0  0  0  0  0  0  0  0
    9.4557  -17.1218   23.8729 C   0  0  0  0  0  0  0  0  0  0  0  0
    9.3302  -18.3520   23.6556 O   0  0  0  0  0  0  0  0  0  0  0  0
   10.0943  -15.7747   20.4696 C   0  0  0  0  0  0  0  0  0  0  0  0
   10.4405  -16.7623   21.5830 C   0  0  2  0  0  0  0  0  0  0  0  0
    9.7475  -16.2840   22.7608 N   0  0  0  0  0  0  0  0  0  0  0  0
   11.8921  -16.6735   21.8205 C   0  0  0  0  0  0  0  0  0  0  0  0
   12.6711  -16.7464   20.8417 O   0  0  0  0  0  0  0  0  0  0  0  0
   12.4746  -15.5218   26.2575 N   0  0  0  0  0  0  0  0  0  0  0  0
   13.6849  -15.9923   25.6796 C   0  0  0  0  0  0  0  0  0  0  0  0
   14.2949  -16.8979   26.2642 O   0  0  0  0  0  0  0  0  0  0  0  0
   14.1585  -15.3998   24.4359 C   0  0  0  0  0  0  0  0  0  0  0  0
   13.8593  -16.2758   23.2606 C   0  0  2  0  0  0  0  0  0  0  0  0
   12.4359  -16.5089   23.1118 N   0  0  0  0  0  0  0  0  0  0  0  0
   14.5791  -17.5595   23.3894 C   0  0  0  0  0  0  0  0  0  0  0  0
   15.9969  -17.5025   23.3626 O   0  0  0  0  0  0  0  0  0  0  0  0
   14.0758  -18.6667   23.5167 O   0  0  0  0  0  0  0  0  0  0  0  0
  2  1  1  6
  3  2  1  0
  3  4  1  0
  4  5  2  0
  5  6  1  0
  7  6  1  0
  8  7  2  0
  9  8  1  0
 10 11  1  0
 10  9  2  0
 11 12  2  0
 12  4  1  0
 12  7  1  0
 13 17  1  0
 13  2  1  0
 14 13  2  0
 16 18  1  0
 16 15  1  6
 16 17  1  0
 18 25  1  0
 19 18  2  0
 20 21  1  0
 21 22  2  0
 23 21  1  0
 24 23  1  1
 24 26  1  0
 25 24  1  0
 26 28  2  0
 26 27  1  0
M  END
$$$$
