WAN.pdb
     RDKit          3D

 28 29  0  0  1  0  0  0  0  0999 V2000
    8.6403  -16.5919   25.0059 N   0  0  0  0  0  0  0  0  0  0  0  0
    7.2333  -16.8776   24.7069 C   0  0  1  0  0  0  0  0  0  0  0  0
    6.3647  -16.3880   25.8589 C   0  0  0  0  0  0  0  0  0  0  0  0
    7.1337  -15.3334   26.5653 C   0  0  0  0  0  0  0  0  0  0  0  0
    8.3328  -15.4463   27.2462 C   0  0  0  0  0  0  0  0  0  0  0  0
    8.6599  -14.2454   27.7285 N   0  0  0  0  0  0  0  0  0  0  0  0
    7.7116  -13.3435   27.3858 C   0  0  0  0  0  0  0  0  0  0  0  0
    7.5966  -11.9786   27.6459 C   0  0  0  0  0  0  0  0  0  0  0  0
    6.4887  -11.3020   27.1545 C   0  0  0  0  0  0  0  0  0  0  0  0
    5.5380  -11.9719   26.4321 C   0  0  0  0  0  0  0  0  0  0  0  0
    5.6657  -13.3376   26.1789 C   0  0  0  0  0  0  0  0  0  0  0  0
    6.7616  -14.0090   26.6646 C   0  0  0  0  0  0  0  0  0  0  0  0
    6.9049  -16.2022   23.4483 C   0  0  0  0  0  0  0  0  0  0  0  0
    5.8080  -16.3638   22.8593 O   0  0  0  0  0  0  0  0  0  0  0  0
    7.7252  -13.5777   21.2471 C   0  0  0  0  0  0  0  0  0  0  0  0
    7.9000  -15.0855   21.4220 C   0  0  2  0  0  0  0  0  0  0  0  0
    7.8496  -15.3232   22.8493 N   0  0  0  0  0  0  0  0  0  0  0  0
    9.2445  -15.4370   20.9319 C   0  0  0  0  0  0  0  0  0  0  0  0
    9.5193  -15.2407   19.7252 O   0  0  0  0  0  0  0  0  0  0  0  0
   12.4055  -17.9908   24.0842 N   0  0  0  0  0  0  0  0  0  0  0  0
   12.0856  -16.7055   23.5685 C   0  0  0  0  0  0  0  0  0  0  0  0
   11.3726  -15.9634   24.2576 O   0  0  0  0  0  0  0  0  0  0  0  0
   12.6013  -16.3123   22.2640 C   0  0  0  0  0  0  0  0  0  0  0  0
   11.5293  -16.3307   21.2206 C   0  0  2  0  0  0  0  0  0  0  0  0
   10.2339  -15.9867   21.7740 N   0  0  0  0  0  0  0  0  0  0  0  0
   11.4751  -17.6576   20.5733 C   0  0  0  0  0  0  0  0  0  0  0  0
   12.6427  -18.0818   19.8870 O   0  0  0  0  0  0  0  0  0  0  0  0
   10.5249  -18.4273   20.5694 O   0  0  0  0  0  0  0  0  0  0  0  0
  2  1  1  1
  3  2  1  0
  3  4  1  0
  4  5  2  0
  5  6  1  0
  7  6  1  0
  8  7  2  0
  9  8  1  0
 10 11  1  0
 10  9  2  0
 11 12  2  0
 12  4  1  0
 12  7  1  0
 13 17  1  0
 13  2  1  0
 14 13  2  0
 16 18  1  0
 16 15  1  1
 16 17  1  0
 18 25  1  0
 19 18  2  0
 20 21  1  0
 21 22  2  0
 23 21  1  0
 24 23  1  1
 24 26  1  0
 25 24  1  0
 26 28  2  0
 26 27  1  0
M  END
$$$$
