WAN.pdb
     RDKit          3D

 28 29  0  0  1  0  0  0  0  0999 V2000
    6.0854  -18.3102   24.1688 N   0  0  0  0  0  0  0  0  0  0  0  0
    6.4856  -16.9336   23.8599 C   0  0  1  0  0  0  0  0  0  0  0  0
    7.5716  -16.4947   24.8343 C   0  0  0  0  0  0  0  0  0  0  0  0
    7.0365  -15.3331   25.5871 C   0  0  0  0  0  0  0  0  0  0  0  0
    5.7552  -15.1296   26.0679 C   0  0  0  0  0  0  0  0  0  0  0  0
    5.7178  -13.9460   26.6840 N   0  0  0  0  0  0  0  0  0  0  0  0
    6.9370  -13.3628   26.6237 C   0  0  0  0  0  0  0  0  0  0  0  0
    7.4034  -12.1427   27.1112 C   0  0  0  0  0  0  0  0  0  0  0  0
    8.7324  -11.8068   26.8925 C   0  0  0  0  0  0  0  0  0  0  0  0
    9.5555  -12.6634   26.2122 C   0  0  0  0  0  0  0  0  0  0  0  0
    9.0759  -13.8813   25.7302 C   0  0  0  0  0  0  0  0  0  0  0  0
    7.7607  -14.2154   25.9457 C   0  0  0  0  0  0  0  0  0  0  0  0
    6.9548  -16.9127   22.4716 C   0  0  0  0  0  0  0  0  0  0  0  0
    7.1353  -17.9593   21.8020 O   0  0  0  0  0  0  0  0  0  0  0  0
    7.7348  -14.0879   20.1411 C   0  0  0  0  0  0  0  0  0  0  0  0
    7.7155  -15.5787   20.4754 C   0  0  2  0  0  0  0  0  0  0  0  0
    7.2238  -15.6696   21.8341 N   0  0  0  0  0  0  0  0  0  0  0  0
    9.1082  -16.0593   20.4441 C   0  0  0  0  0  0  0  0  0  0  0  0
    9.7089  -16.1029   19.3452 O   0  0  0  0  0  0  0  0  0  0  0  0
   11.9785  -14.5057   23.9296 N   0  0  0  0  0  0  0  0  0  0  0  0
   12.3048  -15.2567   22.7678 C   0  0  0  0  0  0  0  0  0  0  0  0
   12.8790  -14.6716   21.8395 O   0  0  0  0  0  0  0  0  0  0  0  0
   11.9563  -16.6701   22.7115 C   0  0  0  0  0  0  0  0  0  0  0  0
   11.1404  -16.9873   21.4982 C   0  0  2  0  0  0  0  0  0  0  0  0
    9.7895  -16.4720   21.6085 N   0  0  0  0  0  0  0  0  0  0  0  0
   11.1162  -18.4468   21.2713 C   0  0  0  0  0  0  0  0  0  0  0  0
   12.3720  -19.1061   21.2184 O   0  0  0  0  0  0  0  0  0  0  0  0
   10.1226  -19.1443   21.1243 O   0  0  0  0  0  0  0  0  0  0  0  0
  2  1  1  1
  3  2  1  0
  3  4  1  0
  4  5  2  0
  5  6  1  0
  7  6  1  0
  8  7  2  0
  9  8  1  0
 10 11  1  0
 10  9  2  0
 11 12  2  0
 12  4  1  0
 12  7  1  0
 13 17  1  0
 13  2  1  0
 14 13  2  0
 16 18  1  0
 16 15  1  1
 16 17  1  0
 18 25  1  0
 19 18  2  0
 20 21  1  0
 21 22  2  0
 23 21  1  0
 24 23  1  1
 24 26  1  0
 25 24  1  0
 26 28  2  0
 26 27  1  0
M  END
$$$$
