WAN.pdb
     RDKit          3D

 28 29  0  0  1  0  0  0  0  0999 V2000
    6.7000  -17.1055   23.5432 N   0  0  0  0  0  0  0  0  0  0  0  0
    7.0921  -15.7348   23.2002 C   0  0  1  0  0  0  0  0  0  0  0  0
    8.2151  -15.2858   24.1269 C   0  0  0  0  0  0  0  0  0  0  0  0
    7.5871  -14.8975   25.4143 C   0  0  0  0  0  0  0  0  0  0  0  0
    7.1979  -15.7076   26.4662 C   0  0  0  0  0  0  0  0  0  0  0  0
    6.6764  -14.9367   27.4231 N   0  0  0  0  0  0  0  0  0  0  0  0
    6.7102  -13.6417   27.0332 C   0  0  0  0  0  0  0  0  0  0  0  0
    6.2918  -12.4735   27.6688 C   0  0  0  0  0  0  0  0  0  0  0  0
    6.4586  -11.2641   27.0081 C   0  0  0  0  0  0  0  0  0  0  0  0
    7.0229  -11.2335   25.7611 C   0  0  0  0  0  0  0  0  0  0  0  0
    7.4376  -12.4099   25.1369 C   0  0  0  0  0  0  0  0  0  0  0  0
    7.2731  -13.6079   25.7892 C   0  0  0  0  0  0  0  0  0  0  0  0
    7.5090  -15.7347   21.7951 C   0  0  0  0  0  0  0  0  0  0  0  0
    7.6854  -16.7919   21.1412 O   0  0  0  0  0  0  0  0  0  0  0  0
    8.0500  -12.9388   19.3654 C   0  0  0  0  0  0  0  0  0  0  0  0
    8.0564  -14.4265   19.7138 C   0  0  2  0  0  0  0  0  0  0  0  0
    7.7293  -14.5008   21.1223 N   0  0  0  0  0  0  0  0  0  0  0  0
    9.4308  -14.9222   19.5215 C   0  0  0  0  0  0  0  0  0  0  0  0
    9.8266  -15.1730   18.3593 O   0  0  0  0  0  0  0  0  0  0  0  0
   12.6320  -15.4945   17.8860 N   0  0  0  0  0  0  0  0  0  0  0  0
   13.1743  -14.6608   18.9014 C   0  0  0  0  0  0  0  0  0  0  0  0
   14.0252  -13.8229   18.5731 O   0  0  0  0  0  0  0  0  0  0  0  0
   12.7156  -14.8200   20.2749 C   0  0  0  0  0  0  0  0  0  0  0  0
   11.5825  -15.7926   20.3668 C   0  0  2  0  0  0  0  0  0  0  0  0
   10.3171  -15.1241   20.6003 N   0  0  0  0  0  0  0  0  0  0  0  0
   11.8468  -16.7789   21.4345 C   0  0  0  0  0  0  0  0  0  0  0  0
   11.0241  -16.7068   22.5888 O   0  0  0  0  0  0  0  0  0  0  0  0
   12.7034  -17.6514   21.4237 O   0  0  0  0  0  0  0  0  0  0  0  0
  2  1  1  1
  3  2  1  0
  3  4  1  0
  4  5  2  0
  5  6  1  0
  7  6  1  0
  8  7  2  0
  9  8  1  0
 10 11  1  0
 10  9  2  0
 11 12  2  0
 12  4  1  0
 12  7  1  0
 13 17  1  0
 13  2  1  0
 14 13  2  0
 16 18  1  0
 16 15  1  1
 16 17  1  0
 18 25  1  0
 19 18  2  0
 20 21  1  0
 21 22  2  0
 23 21  1  0
 24 23  1  1
 24 26  1  0
 25 24  1  0
 26 28  2  0
 26 27  1  0
M  END
$$$$
