ERV.pdb
     RDKit          3D

 28 27  0  0  1  0  0  0  0  0999 V2000
    6.7578  -17.1507   18.8657 N   0  0  0  0  0  0  0  0  0  0  0  0
    7.7411  -16.3659   19.6421 C   0  0  1  0  0  0  0  0  0  0  0  0
    7.9116  -15.0928   18.8789 C   0  0  0  0  0  0  0  0  0  0  0  0
    8.9334  -14.1495   19.4283 C   0  0  0  0  0  0  0  0  0  0  0  0
    9.1418  -12.9807   18.4994 C   0  0  0  0  0  0  0  0  0  0  0  0
    8.6628  -13.0324   17.3570 O   0  0  0  0  0  0  0  0  0  0  0  0
    7.2483  -16.2138   21.0178 C   0  0  0  0  0  0  0  0  0  0  0  0
    6.0972  -15.7468   21.2290 O   0  0  0  0  0  0  0  0  0  0  0  0
    9.8497  -11.8924   18.9289 O   0  0  0  0  0  0  0  0  0  0  0  0
    7.1559  -18.5449   28.4771 N   0  0  0  0  0  0  0  0  0  0  0  0
    7.6769  -19.8076   28.1049 C   0  0  0  0  0  0  0  0  0  0  0  0
    7.7172  -20.7974   28.9628 N   0  0  0  0  0  0  0  0  0  0  0  0
    8.1639  -19.9977   26.7730 N   0  0  0  0  0  0  0  0  0  0  0  0
    7.3223  -19.7538   25.6432 C   0  0  0  0  0  0  0  0  0  0  0  0
    7.1948  -18.2412   25.3736 C   0  0  0  0  0  0  0  0  0  0  0  0
    7.5587  -17.9617   23.9724 C   0  0  0  0  0  0  0  0  0  0  0  0
    7.4992  -16.5273   23.5162 C   0  0  2  0  0  0  0  0  0  0  0  0
    8.0070  -16.5705   22.1330 N   0  0  0  0  0  0  0  0  0  0  0  0
    8.1933  -15.5525   24.3255 C   0  0  0  0  0  0  0  0  0  0  0  0
    9.4528  -15.3355   24.2796 O   0  0  0  0  0  0  0  0  0  0  0  0
    8.1357  -21.7002   28.6553 C   0  0  0  0  0  0  0  0  0  0  0  0
    6.5154  -12.0565   25.2738 C   0  0  2  0  0  0  0  0  0  0  0  0
    7.0604  -12.7455   26.4888 C   0  0  0  0  0  0  0  0  0  0  0  0
    5.9180  -13.3684   27.2420 C   0  0  2  0  0  0  0  0  0  0  0  0
    8.1102  -13.7602   26.0963 N   0  0  0  0  0  0  0  0  0  0  0  0
    7.4822  -14.7478   25.2496 C   0  0  0  0  0  0  0  0  0  0  0  0
    8.8331  -14.3199   27.2289 O   0  0  0  0  0  0  0  0  0  0  0  0
    8.7683  -15.5268   27.5733 O   0  0  0  0  0  0  0  0  0  0  0  0
  2  7  1  0
  2  1  1  6
  3  2  1  0
  4  5  1  0
  4  3  1  0
  5  6  2  0
  7  8  2  0
  9  5  1  0
 11 10  1  0
 11 12  2  0
 13 11  1  0
 14 15  1  0
 14 13  1  0
 17 16  1  1
 16 15  1  0
 18  7  1  0
 18 17  1  0
 19 17  1  0
 19 20  2  0
 22 21  1  1
 22 24  1  0
 23 22  1  0
 24 26  1  0
 24 25  1  1
 25 19  1  0
 26 28  1  0
 27 26  2  0
M  END
$$$$
