ERV.pdb
     RDKit          3D

 28 27  0  0  1  0  0  0  0  0999 V2000
    7.2161  -16.3055   19.1829 N   0  0  0  0  0  0  0  0  0  0  0  0
    8.2669  -16.4536   20.2122 C   0  0  1  0  0  0  0  0  0  0  0  0
    9.3614  -15.5305   19.7855 C   0  0  0  0  0  0  0  0  0  0  0  0
   10.5046  -15.4084   20.7416 C   0  0  0  0  0  0  0  0  0  0  0  0
   11.6432  -16.3098   20.3375 C   0  0  0  0  0  0  0  0  0  0  0  0
   12.3999  -15.9447   19.4258 O   0  0  0  0  0  0  0  0  0  0  0  0
    7.6840  -16.1713   21.5309 C   0  0  0  0  0  0  0  0  0  0  0  0
    6.9639  -15.1509   21.6986 O   0  0  0  0  0  0  0  0  0  0  0  0
   11.8206  -17.5050   20.9779 O   0  0  0  0  0  0  0  0  0  0  0  0
    8.3192  -21.4143   27.3591 N   0  0  0  0  0  0  0  0  0  0  0  0
    7.8298  -20.3665   28.1757 C   0  0  0  0  0  0  0  0  0  0  0  0
    8.5003  -19.9653   29.2278 N   0  0  0  0  0  0  0  0  0  0  0  0
    6.5863  -19.7426   27.8415 N   0  0  0  0  0  0  0  0  0  0  0  0
    6.2956  -19.3633   26.4940 C   0  0  0  0  0  0  0  0  0  0  0  0
    7.1104  -18.1187   26.0891 C   0  0  0  0  0  0  0  0  0  0  0  0
    7.2352  -18.0722   24.6207 C   0  0  0  0  0  0  0  0  0  0  0  0
    7.3513  -16.7138   23.9800 C   0  0  2  0  0  0  0  0  0  0  0  0
    7.8891  -16.9965   22.6370 N   0  0  0  0  0  0  0  0  0  0  0  0
    8.1286  -15.7207   24.6847 C   0  0  0  0  0  0  0  0  0  0  0  0
    9.4053  -15.7167   24.7589 O   0  0  0  0  0  0  0  0  0  0  0  0
    8.1437  -19.1411   29.7554 C   0  0  0  0  0  0  0  0  0  0  0  0
    7.3094  -11.8786   24.7033 C   0  0  2  0  0  0  0  0  0  0  0  0
    7.4114  -12.3816   26.1121 C   0  0  0  0  0  0  0  0  0  0  0  0
    6.0240  -12.5322   26.6712 C   0  0  2  0  0  0  0  0  0  0  0  0
    8.1920  -13.6757   26.1574 N   0  0  0  0  0  0  0  0  0  0  0  0
    7.4882  -14.6500   25.3561 C   0  0  0  0  0  0  0  0  0  0  0  0
    8.4991  -14.1249   27.5074 O   0  0  0  0  0  0  0  0  0  0  0  0
    9.1634  -13.4516   28.3349 O   0  0  0  0  0  0  0  0  0  0  0  0
  2  7  1  0
  2  1  1  6
  3  2  1  0
  4  5  1  0
  4  3  1  0
  5  6  2  0
  7  8  2  0
  9  5  1  0
 11 10  1  0
 11 12  2  0
 13 11  1  0
 14 15  1  0
 14 13  1  0
 17 16  1  1
 16 15  1  0
 18  7  1  0
 18 17  1  0
 19 17  1  0
 19 20  2  0
 22 21  1  1
 22 24  1  0
 23 22  1  0
 24 26  1  0
 24 25  1  1
 25 19  1  0
 26 28  1  0
 27 26  2  0
M  END
$$$$
