ERV.pdb
     RDKit          3D

 28 27  0  0  1  0  0  0  0  0999 V2000
   11.7951  -17.0425   20.8579 N   0  0  0  0  0  0  0  0  0  0  0  0
   12.4006  -16.0179   21.7348 C   0  0  1  0  0  0  0  0  0  0  0  0
   13.3463  -15.2649   20.8569 C   0  0  0  0  0  0  0  0  0  0  0  0
   13.2193  -15.5426   19.3932 C   0  0  0  0  0  0  0  0  0  0  0  0
   14.5501  -15.3979   18.7001 C   0  0  0  0  0  0  0  0  0  0  0  0
   15.0087  -14.2604   18.5183 O   0  0  0  0  0  0  0  0  0  0  0  0
   11.3285  -15.2154   22.3391 C   0  0  0  0  0  0  0  0  0  0  0  0
   11.6124  -14.2346   23.0775 O   0  0  0  0  0  0  0  0  0  0  0  0
   15.2234  -16.5141   18.2870 O   0  0  0  0  0  0  0  0  0  0  0  0
    8.1821  -14.7174   17.4709 N   0  0  0  0  0  0  0  0  0  0  0  0
    7.9124  -13.4062   17.9319 C   0  0  0  0  0  0  0  0  0  0  0  0
    8.3690  -12.3602   17.2879 N   0  0  0  0  0  0  0  0  0  0  0  0
    7.1304  -13.2291   19.1169 N   0  0  0  0  0  0  0  0  0  0  0  0
    6.6583  -14.3564   19.8587 C   0  0  0  0  0  0  0  0  0  0  0  0
    7.8326  -15.1072   20.5177 C   0  0  0  0  0  0  0  0  0  0  0  0
    7.6659  -15.0868   21.9825 C   0  0  0  0  0  0  0  0  0  0  0  0
    8.8828  -14.7701   22.8119 C   0  0  2  0  0  0  0  0  0  0  0  0
    9.9760  -15.4878   22.1316 N   0  0  0  0  0  0  0  0  0  0  0  0
    8.8152  -15.0814   24.2210 C   0  0  0  0  0  0  0  0  0  0  0  0
    9.3017  -16.1365   24.7554 O   0  0  0  0  0  0  0  0  0  0  0  0
    8.2179  -11.4185   17.7062 C   0  0  0  0  0  0  0  0  0  0  0  0
    7.9858  -12.0306   26.9154 C   0  0  2  0  0  0  0  0  0  0  0  0
    7.2528  -13.3178   27.1477 C   0  0  0  0  0  0  0  0  0  0  0  0
    5.8596  -13.1843   26.5988 C   0  0  2  0  0  0  0  0  0  0  0  0
    8.0048  -14.4747   26.5297 N   0  0  0  0  0  0  0  0  0  0  0  0
    8.1820  -14.1923   25.1241 C   0  0  0  0  0  0  0  0  0  0  0  0
    7.4074  -15.7730   26.8055 O   0  0  0  0  0  0  0  0  0  0  0  0
    6.6274  -16.3659   26.0185 O   0  0  0  0  0  0  0  0  0  0  0  0
  2  7  1  0
  2  1  1  6
  3  2  1  0
  4  5  1  0
  4  3  1  0
  5  6  2  0
  7  8  2  0
  9  5  1  0
 11 10  1  0
 11 12  2  0
 13 11  1  0
 14 15  1  0
 14 13  1  0
 17 16  1  6
 16 15  1  0
 18  7  1  0
 18 17  1  0
 19 17  1  0
 19 20  2  0
 22 21  1  1
 22 24  1  0
 23 22  1  0
 24 26  1  0
 24 25  1  1
 25 19  1  0
 26 28  1  0
 27 26  2  0
M  END
$$$$
