ERV.pdb
     RDKit          3D

 28 27  0  0  1  0  0  0  0  0999 V2000
   14.2003  -17.0235   21.0937 N   0  0  0  0  0  0  0  0  0  0  0  0
   13.0273  -17.6908   21.6973 C   0  0  1  0  0  0  0  0  0  0  0  0
   13.5910  -18.8236   22.4918 C   0  0  0  0  0  0  0  0  0  0  0  0
   14.9018  -18.5488   23.1566 C   0  0  0  0  0  0  0  0  0  0  0  0
   15.3891  -19.7612   23.9082 C   0  0  0  0  0  0  0  0  0  0  0  0
   16.5086  -19.7249   24.4397 O   0  0  0  0  0  0  0  0  0  0  0  0
   12.2617  -16.7014   22.4678 C   0  0  0  0  0  0  0  0  0  0  0  0
   12.8476  -15.7148   22.9887 O   0  0  0  0  0  0  0  0  0  0  0  0
   14.5947  -20.8713   23.9905 O   0  0  0  0  0  0  0  0  0  0  0  0
    7.9095  -15.1095   19.6457 N   0  0  0  0  0  0  0  0  0  0  0  0
    7.5685  -13.7922   20.0364 C   0  0  0  0  0  0  0  0  0  0  0  0
    7.9561  -12.7597   19.3286 N   0  0  0  0  0  0  0  0  0  0  0  0
    6.7903  -13.5938   21.2206 N   0  0  0  0  0  0  0  0  0  0  0  0
    6.6331  -14.6433   22.1786 C   0  0  0  0  0  0  0  0  0  0  0  0
    7.8367  -14.6890   23.1410 C   0  0  0  0  0  0  0  0  0  0  0  0
    8.8313  -15.6528   22.6353 C   0  0  0  0  0  0  0  0  0  0  0  0
   10.0940  -15.8276   23.4377 C   0  0  2  0  0  0  0  0  0  0  0  0
   10.8827  -16.7976   22.6568 N   0  0  0  0  0  0  0  0  0  0  0  0
    9.9438  -16.2269   24.8180 C   0  0  0  0  0  0  0  0  0  0  0  0
    9.6738  -17.4157   25.2045 O   0  0  0  0  0  0  0  0  0  0  0  0
    7.7001  -11.8074   19.6639 C   0  0  0  0  0  0  0  0  0  0  0  0
   10.7908  -14.1011   29.0930 C   0  0  2  0  0  0  0  0  0  0  0  0
    9.7463  -14.4275   28.0680 C   0  0  0  0  0  0  0  0  0  0  0  0
    9.5213  -13.2157   27.2072 C   0  0  2  0  0  0  0  0  0  0  0  0
   10.1570  -15.6375   27.2597 N   0  0  0  0  0  0  0  0  0  0  0  0
   10.0990  -15.2809   25.8611 C   0  0  0  0  0  0  0  0  0  0  0  0
    9.4163  -16.8439   27.5979 O   0  0  0  0  0  0  0  0  0  0  0  0
    9.5830  -17.4925   28.6613 O   0  0  0  0  0  0  0  0  0  0  0  0
  2  7  1  0
  2  1  1  1
  3  2  1  0
  4  5  1  0
  4  3  1  0
  5  6  2  0
  7  8  2  0
  9  5  1  0
 11 10  1  0
 11 12  2  0
 13 11  1  0
 14 15  1  0
 14 13  1  0
 17 16  1  6
 16 15  1  0
 18  7  1  0
 18 17  1  0
 19 17  1  0
 19 20  2  0
 22 21  1  1
 22 24  1  0
 23 22  1  0
 24 26  1  0
 24 25  1  1
 25 19  1  0
 26 28  1  0
 27 26  2  0
M  END
$$$$
