ERV.pdb
     RDKit          3D

 28 27  0  0  1  0  0  0  0  0999 V2000
   13.4382  -17.3677   20.1058 N   0  0  0  0  0  0  0  0  0  0  0  0
   12.7881  -17.9847   21.2815 C   0  0  1  0  0  0  0  0  0  0  0  0
   13.9067  -18.5671   22.0827 C   0  0  0  0  0  0  0  0  0  0  0  0
   14.9456  -19.2981   21.2940 C   0  0  0  0  0  0  0  0  0  0  0  0
   16.1202  -19.6682   22.1632 C   0  0  0  0  0  0  0  0  0  0  0  0
   17.0451  -20.3292   21.6685 O   0  0  0  0  0  0  0  0  0  0  0  0
   11.9850  -16.9655   21.9703 C   0  0  0  0  0  0  0  0  0  0  0  0
   12.3813  -15.7701   22.0122 O   0  0  0  0  0  0  0  0  0  0  0  0
   16.1456  -19.2719   23.4718 O   0  0  0  0  0  0  0  0  0  0  0  0
    9.2248  -13.0364   19.6023 N   0  0  0  0  0  0  0  0  0  0  0  0
    7.8923  -13.2680   20.0210 C   0  0  0  0  0  0  0  0  0  0  0  0
    6.9115  -12.5142   19.5886 N   0  0  0  0  0  0  0  0  0  0  0  0
    7.6212  -14.3409   20.9280 N   0  0  0  0  0  0  0  0  0  0  0  0
    7.7052  -14.1443   22.3417 C   0  0  0  0  0  0  0  0  0  0  0  0
    7.5253  -15.4800   23.0904 C   0  0  0  0  0  0  0  0  0  0  0  0
    8.5782  -16.4224   22.6695 C   0  0  0  0  0  0  0  0  0  0  0  0
    9.9430  -16.2528   23.2840 C   0  0  2  0  0  0  0  0  0  0  0  0
   10.7726  -17.2582   22.5957 N   0  0  0  0  0  0  0  0  0  0  0  0
   10.0325  -16.3588   24.7220 C   0  0  0  0  0  0  0  0  0  0  0  0
    9.9677  -17.4568   25.3744 O   0  0  0  0  0  0  0  0  0  0  0  0
    5.9392  -12.7610   19.8687 C   0  0  0  0  0  0  0  0  0  0  0  0
    8.7634  -13.4294   27.3355 C   0  0  1  0  0  0  0  0  0  0  0  0
   10.1972  -13.8412   27.4871 C   0  0  0  0  0  0  0  0  0  0  0  0
   10.5810  -13.7241   28.9360 C   0  0  1  0  0  0  0  0  0  0  0  0
   10.4069  -15.2385   26.9490 N   0  0  0  0  0  0  0  0  0  0  0  0
   10.2087  -15.2006   25.5186 C   0  0  0  0  0  0  0  0  0  0  0  0
    9.6171  -16.2518   27.6330 O   0  0  0  0  0  0  0  0  0  0  0  0
    8.4635  -16.5994   27.2754 O   0  0  0  0  0  0  0  0  0  0  0  0
  2  7  1  0
  2  1  1  6
  3  2  1  0
  4  5  1  0
  4  3  1  0
  5  6  2  0
  7  8  2  0
  9  5  1  0
 11 10  1  0
 11 12  2  0
 13 11  1  0
 14 15  1  0
 14 13  1  0
 17 16  1  1
 16 15  1  0
 18  7  1  0
 18 17  1  0
 19 17  1  0
 19 20  2  0
 22 21  1  6
 22 24  1  0
 23 22  1  0
 24 26  1  0
 24 25  1  6
 25 19  1  0
 26 28  1  0
 27 26  2  0
M  END
$$$$
