ERV.pdb
     RDKit          3D

 28 27  0  0  1  0  0  0  0  0999 V2000
   10.2676  -16.1205   19.0390 N   0  0  0  0  0  0  0  0  0  0  0  0
   10.6074  -16.7518   20.3318 C   0  0  1  0  0  0  0  0  0  0  0  0
   12.0202  -16.3476   20.6019 C   0  0  0  0  0  0  0  0  0  0  0  0
   12.8998  -17.4245   21.1517 C   0  0  0  0  0  0  0  0  0  0  0  0
   14.3427  -17.1769   20.7928 C   0  0  0  0  0  0  0  0  0  0  0  0
   14.6010  -16.4459   19.8252 O   0  0  0  0  0  0  0  0  0  0  0  0
    9.6275  -16.3268   21.3406 C   0  0  0  0  0  0  0  0  0  0  0  0
    9.4826  -15.1034   21.6054 O   0  0  0  0  0  0  0  0  0  0  0  0
   15.3342  -17.7577   21.5343 O   0  0  0  0  0  0  0  0  0  0  0  0
    4.4228  -22.1192   24.4803 N   0  0  0  0  0  0  0  0  0  0  0  0
    5.7797  -21.8237   24.7560 C   0  0  0  0  0  0  0  0  0  0  0  0
    6.6089  -22.7651   25.1350 N   0  0  0  0  0  0  0  0  0  0  0  0
    6.2441  -20.4775   24.6166 N   0  0  0  0  0  0  0  0  0  0  0  0
    5.3209  -19.3940   24.4828 C   0  0  0  0  0  0  0  0  0  0  0  0
    6.0664  -18.0460   24.4205 C   0  0  0  0  0  0  0  0  0  0  0  0
    7.0741  -18.0935   23.3452 C   0  0  0  0  0  0  0  0  0  0  0  0
    7.8492  -16.8318   23.0686 C   0  0  2  0  0  0  0  0  0  0  0  0
    8.8255  -17.2303   22.0386 N   0  0  0  0  0  0  0  0  0  0  0  0
    8.4762  -16.1863   24.1987 C   0  0  0  0  0  0  0  0  0  0  0  0
    9.6057  -16.5253   24.6935 O   0  0  0  0  0  0  0  0  0  0  0  0
    7.5972  -22.5021   25.3318 C   0  0  0  0  0  0  0  0  0  0  0  0
    7.6565  -12.2680   25.0302 C   0  0  2  0  0  0  0  0  0  0  0  0
    7.5950  -13.1619   26.2324 C   0  0  0  0  0  0  0  0  0  0  0  0
    6.1530  -13.4529   26.5426 C   0  0  2  0  0  0  0  0  0  0  0  0
    8.3971  -14.4218   25.9974 N   0  0  0  0  0  0  0  0  0  0  0  0
    7.8462  -15.0931   24.8430 C   0  0  0  0  0  0  0  0  0  0  0  0
    8.5161  -15.2663   27.1769 O   0  0  0  0  0  0  0  0  0  0  0  0
    7.9521  -16.3828   27.2981 O   0  0  0  0  0  0  0  0  0  0  0  0
  2  7  1  0
  2  1  1  6
  3  2  1  0
  4  5  1  0
  4  3  1  0
  5  6  2  0
  7  8  2  0
  9  5  1  0
 11 10  1  0
 11 12  2  0
 13 11  1  0
 14 15  1  0
 14 13  1  0
 17 16  1  1
 16 15  1  0
 18  7  1  0
 18 17  1  0
 19 17  1  0
 19 20  2  0
 22 21  1  1
 22 24  1  0
 23 22  1  0
 24 26  1  0
 24 25  1  1
 25 19  1  0
 26 28  1  0
 27 26  2  0
M  END
$$$$
