ERV.pdb
     RDKit          3D

 28 27  0  0  1  0  0  0  0  0999 V2000
    5.7032  -18.6757   25.8357 N   0  0  0  0  0  0  0  0  0  0  0  0
    6.9980  -19.2523   25.4154 C   0  0  1  0  0  0  0  0  0  0  0  0
    6.6469  -20.5201   24.7072 C   0  0  0  0  0  0  0  0  0  0  0  0
    7.8034  -21.2723   24.1307 C   0  0  0  0  0  0  0  0  0  0  0  0
    7.3276  -22.4137   23.2687 C   0  0  0  0  0  0  0  0  0  0  0  0
    6.1083  -22.5865   23.1253 O   0  0  0  0  0  0  0  0  0  0  0  0
    7.7208  -18.2601   24.6083 C   0  0  0  0  0  0  0  0  0  0  0  0
    8.9628  -18.3745   24.4289 O   0  0  0  0  0  0  0  0  0  0  0  0
    8.2412  -23.2325   22.6645 O   0  0  0  0  0  0  0  0  0  0  0  0
    8.3713  -13.6257   17.3262 N   0  0  0  0  0  0  0  0  0  0  0  0
    8.5268  -13.0582   18.6139 C   0  0  0  0  0  0  0  0  0  0  0  0
    8.4849  -11.7597   18.7855 N   0  0  0  0  0  0  0  0  0  0  0  0
    8.7320  -13.9201   19.7374 N   0  0  0  0  0  0  0  0  0  0  0  0
    7.7026  -14.8102   20.1757 C   0  0  0  0  0  0  0  0  0  0  0  0
    7.1447  -14.3687   21.5435 C   0  0  0  0  0  0  0  0  0  0  0  0
    6.7743  -15.5605   22.3285 C   0  0  0  0  0  0  0  0  0  0  0  0
    7.8027  -16.1045   23.2854 C   0  0  2  0  0  0  0  0  0  0  0  0
    7.0876  -17.1693   24.0119 N   0  0  0  0  0  0  0  0  0  0  0  0
    8.4331  -15.1592   24.1776 C   0  0  0  0  0  0  0  0  0  0  0  0
    9.3855  -14.3726   23.8466 O   0  0  0  0  0  0  0  0  0  0  0  0
    8.6366  -11.3836   19.7448 C   0  0  0  0  0  0  0  0  0  0  0  0
    7.2000  -12.3104   25.5269 C   0  0  2  0  0  0  0  0  0  0  0  0
    7.5664  -13.0559   26.7752 C   0  0  0  0  0  0  0  0  0  0  0  0
    6.3132  -13.6212   27.3836 C   0  0  2  0  0  0  0  0  0  0  0  0
    8.5904  -14.1262   26.4717 N   0  0  0  0  0  0  0  0  0  0  0  0
    8.0066  -15.0469   25.5240 C   0  0  0  0  0  0  0  0  0  0  0  0
    9.1386  -14.7629   27.6603 O   0  0  0  0  0  0  0  0  0  0  0  0
    9.0501  -15.9936   27.8989 O   0  0  0  0  0  0  0  0  0  0  0  0
  2  7  1  0
  2  1  1  6
  3  2  1  0
  4  5  1  0
  4  3  1  0
  5  6  2  0
  7  8  2  0
  9  5  1  0
 11 10  1  0
 11 12  2  0
 13 11  1  0
 14 15  1  0
 14 13  1  0
 17 16  1  6
 16 15  1  0
 18  7  1  0
 18 17  1  0
 19 17  1  0
 19 20  2  0
 22 21  1  1
 22 24  1  0
 23 22  1  0
 24 26  1  0
 24 25  1  1
 25 19  1  0
 26 28  1  0
 27 26  2  0
M  END
$$$$
