ERV.pdb
     RDKit          3D

 28 27  0  0  1  0  0  0  0  0999 V2000
   12.0306  -19.3413   21.5518 N   0  0  0  0  0  0  0  0  0  0  0  0
   12.9970  -18.7216   22.4833 C   0  0  1  0  0  0  0  0  0  0  0  0
   14.2169  -18.4612   21.6610 C   0  0  0  0  0  0  0  0  0  0  0  0
   13.9829  -17.7101   20.3894 C   0  0  0  0  0  0  0  0  0  0  0  0
   15.2699  -17.5306   19.6254 C   0  0  0  0  0  0  0  0  0  0  0  0
   15.6611  -18.4486   18.8896 O   0  0  0  0  0  0  0  0  0  0  0  0
   12.3798  -17.5331   23.0875 C   0  0  0  0  0  0  0  0  0  0  0  0
   13.0487  -16.7981   23.8622 O   0  0  0  0  0  0  0  0  0  0  0  0
   15.9782  -16.3681   19.7556 O   0  0  0  0  0  0  0  0  0  0  0  0
    7.7275  -12.4084   20.5666 N   0  0  0  0  0  0  0  0  0  0  0  0
    7.7730  -13.7015   19.9920 C   0  0  0  0  0  0  0  0  0  0  0  0
    8.1027  -13.8669   18.7345 N   0  0  0  0  0  0  0  0  0  0  0  0
    7.4537  -14.8375   20.8012 N   0  0  0  0  0  0  0  0  0  0  0  0
    7.0255  -14.6753   22.1556 C   0  0  0  0  0  0  0  0  0  0  0  0
    8.2268  -14.7411   23.1197 C   0  0  0  0  0  0  0  0  0  0  0  0
    9.1120  -15.8516   22.7233 C   0  0  0  0  0  0  0  0  0  0  0  0
   10.3848  -16.0344   23.5079 C   0  0  2  0  0  0  0  0  0  0  0  0
   11.0572  -17.1638   22.8408 N   0  0  0  0  0  0  0  0  0  0  0  0
   10.2536  -16.2374   24.9322 C   0  0  0  0  0  0  0  0  0  0  0  0
    9.9756  -17.3575   25.4832 O   0  0  0  0  0  0  0  0  0  0  0  0
    8.1711  -14.8386   18.3660 C   0  0  0  0  0  0  0  0  0  0  0  0
    8.8993  -13.2835   27.3843 C   0  0  2  0  0  0  0  0  0  0  0  0
   10.1789  -13.9077   27.8545 C   0  0  0  0  0  0  0  0  0  0  0  0
   10.1838  -13.9216   29.3579 C   0  0  1  0  0  0  0  0  0  0  0  0
   10.3405  -15.2916   27.2673 N   0  0  0  0  0  0  0  0  0  0  0  0
   10.4388  -15.1591   25.8322 C   0  0  0  0  0  0  0  0  0  0  0  0
    9.3248  -16.2355   27.7101 O   0  0  0  0  0  0  0  0  0  0  0  0
    8.2363  -16.4245   27.1110 O   0  0  0  0  0  0  0  0  0  0  0  0
  2  7  1  0
  2  1  1  6
  3  2  1  0
  4  5  1  0
  4  3  1  0
  5  6  2  0
  7  8  2  0
  9  5  1  0
 11 10  1  0
 11 12  2  0
 13 11  1  0
 14 15  1  0
 14 13  1  0
 17 16  1  6
 16 15  1  0
 18  7  1  0
 18 17  1  0
 19 17  1  0
 19 20  2  0
 22 21  1  1
 22 24  1  0
 23 22  1  0
 24 26  1  0
 24 25  1  6
 25 19  1  0
 26 28  1  0
 27 26  2  0
M  END
$$$$
