QIP.pdb
     RDKit          3D

 25 25  0  0  1  0  0  0  0  0999 V2000
   10.3593  -19.8999   26.9433 N   0  0  0  0  0  0  0  0  0  0  0  0
    9.5136  -20.7626   26.1798 C   0  0  0  0  0  0  0  0  0  0  0  0
    9.9214  -21.8635   25.7643 O   0  0  0  0  0  0  0  0  0  0  0  0
    8.1386  -20.3373   25.8831 C   0  0  0  0  0  0  0  0  0  0  0  0
    7.8882  -18.9512   26.4239 C   0  0  0  0  0  0  0  0  0  0  0  0
    6.4569  -18.5875   26.1141 C   0  0  2  0  0  0  0  0  0  0  0  0
    5.8262  -19.7423   25.5174 N   0  0  0  0  0  0  0  0  0  0  0  0
    6.4278  -17.4135   25.1851 C   0  0  0  0  0  0  0  0  0  0  0  0
    6.1071  -17.5263   23.9907 O   0  0  0  0  0  0  0  0  0  0  0  0
    6.6131  -12.4491   27.7312 C   0  0  0  0  0  0  0  0  0  0  0  0
    6.0901  -13.4925   26.7332 C   0  0  0  0  0  0  0  0  0  0  0  0
    7.2197  -13.8754   25.8742 C   0  0  2  0  0  0  0  0  0  0  0  0
    7.9431  -12.6917   25.2600 C   0  0  0  0  0  0  0  0  0  0  0  0
    6.9330  -14.9560   24.8292 C   0  0  2  0  0  0  0  0  0  0  0  0
    6.7776  -16.1609   25.7051 N   0  0  0  0  0  0  0  0  0  0  0  0
    8.0862  -15.2586   23.9685 C   0  0  0  0  0  0  0  0  0  0  0  0
    9.1361  -15.7717   24.5269 O   0  0  0  0  0  0  0  0  0  0  0  0
    8.1867  -15.0551   22.5702 N   0  0  0  0  0  0  0  0  0  0  0  0
    7.1448  -14.3063   21.8324 C   0  0  0  0  0  0  0  0  0  0  0  0
    7.9097  -13.7217   20.6642 C   0  0  0  0  0  0  0  0  0  0  0  0
    8.7947  -14.8658   20.2964 C   0  0  0  0  0  0  0  0  0  0  0  0
    9.2226  -15.4407   21.6591 C   0  0  1  0  0  0  0  0  0  0  0  0
   10.5159  -14.7615   21.9539 C   0  0  0  0  0  0  0  0  0  0  0  0
   11.6258  -15.1981   21.2184 O   0  0  0  0  0  0  0  0  0  0  0  0
   10.6931  -13.8601   22.7782 O   0  0  0  0  0  0  0  0  0  0  0  0
  1  2  1  0
  2  4  1  0
  3  2  2  0
  4  5  1  0
  6  5  1  0
  6  7  1  6
  8  6  1  0
  8  9  2  0
 10 11  1  0
 12 11  1  0
 12 13  1  6
 14 15  1  1
 14 12  1  0
 15  8  1  0
 16 17  2  0
 16 14  1  0
 18 16  1  0
 19 20  1  0
 19 18  1  0
 21 20  1  0
 22 21  1  0
 22 18  1  0
 22 23  1  1
 24 23  1  0
 25 23  2  0
M  END
$$$$
