QIP.pdb
     RDKit          3D

 25 25  0  0  1  0  0  0  0  0999 V2000
    9.9144  -18.3600   21.9468 N   0  0  0  0  0  0  0  0  0  0  0  0
    9.1678  -19.4460   22.4998 C   0  0  0  0  0  0  0  0  0  0  0  0
    9.0810  -20.5375   21.9065 O   0  0  0  0  0  0  0  0  0  0  0  0
    8.4925  -19.2651   23.7923 C   0  0  0  0  0  0  0  0  0  0  0  0
    7.1160  -19.8818   23.7579 C   0  0  0  0  0  0  0  0  0  0  0  0
    6.2258  -19.0726   24.6688 C   0  0  2  0  0  0  0  0  0  0  0  0
    4.9432  -19.7343   24.7359 N   0  0  0  0  0  0  0  0  0  0  0  0
    6.0906  -17.6815   24.1314 C   0  0  0  0  0  0  0  0  0  0  0  0
    5.3976  -17.4254   23.1333 O   0  0  0  0  0  0  0  0  0  0  0  0
    7.2305  -12.3623   26.7386 C   0  0  0  0  0  0  0  0  0  0  0  0
    6.5787  -13.0578   25.5346 C   0  0  0  0  0  0  0  0  0  0  0  0
    7.0026  -14.4648   25.5646 C   0  0  2  0  0  0  0  0  0  0  0  0
    8.3978  -14.6661   26.1254 C   0  0  0  0  0  0  0  0  0  0  0  0
    6.8043  -15.2540   24.2685 C   0  0  2  0  0  0  0  0  0  0  0  0
    6.7775  -16.6563   24.7938 N   0  0  0  0  0  0  0  0  0  0  0  0
    7.9679  -15.2071   23.3708 C   0  0  0  0  0  0  0  0  0  0  0  0
    9.0322  -15.8514   23.7304 O   0  0  0  0  0  0  0  0  0  0  0  0
    8.0644  -14.5298   22.1303 N   0  0  0  0  0  0  0  0  0  0  0  0
    7.0328  -13.5542   21.7126 C   0  0  0  0  0  0  0  0  0  0  0  0
    7.8022  -12.6107   20.8129 C   0  0  0  0  0  0  0  0  0  0  0  0
    8.6633  -13.5682   20.0585 C   0  0  0  0  0  0  0  0  0  0  0  0
    9.0878  -14.5894   21.1298 C   0  0  1  0  0  0  0  0  0  0  0  0
   10.3953  -14.0764   21.6278 C   0  0  0  0  0  0  0  0  0  0  0  0
   10.3963  -13.5370   22.9210 O   0  0  0  0  0  0  0  0  0  0  0  0
   11.4635  -14.0847   21.0095 O   0  0  0  0  0  0  0  0  0  0  0  0
  1  2  1  0
  2  4  1  0
  3  2  2  0
  4  5  1  0
  6  5  1  0
  6  7  1  6
  8  6  1  0
  8  9  2  0
 10 11  1  0
 12 11  1  0
 12 13  1  6
 14 15  1  1
 14 12  1  0
 15  8  1  0
 16 17  2  0
 16 14  1  0
 18 16  1  0
 19 20  1  0
 19 18  1  0
 21 20  1  0
 22 21  1  0
 22 18  1  0
 22 23  1  1
 24 23  1  0
 25 23  2  0
M  END
$$$$
