QIP.pdb
     RDKit          3D

 25 25  0  0  1  0  0  0  0  0999 V2000
   12.3465  -19.2613   21.1928 N   0  0  0  0  0  0  0  0  0  0  0  0
   11.1619  -19.5794   20.4593 C   0  0  0  0  0  0  0  0  0  0  0  0
   11.1636  -20.4644   19.5831 O   0  0  0  0  0  0  0  0  0  0  0  0
    9.9222  -18.8453   20.7489 C   0  0  0  0  0  0  0  0  0  0  0  0
   10.1228  -17.9150   21.9197 C   0  0  0  0  0  0  0  0  0  0  0  0
    9.3101  -16.6698   21.6631 C   0  0  2  0  0  0  0  0  0  0  0  0
    9.6043  -16.2179   20.3228 N   0  0  0  0  0  0  0  0  0  0  0  0
    9.6606  -15.6248   22.6767 C   0  0  0  0  0  0  0  0  0  0  0  0
   10.7160  -14.9735   22.6134 O   0  0  0  0  0  0  0  0  0  0  0  0
    5.9420  -13.5086   26.6074 C   0  0  0  0  0  0  0  0  0  0  0  0
    6.6442  -14.4774   25.6449 C   0  0  0  0  0  0  0  0  0  0  0  0
    7.7196  -13.7264   24.9816 C   0  0  2  0  0  0  0  0  0  0  0  0
    7.2964  -13.0914   23.6704 C   0  0  0  0  0  0  0  0  0  0  0  0
    9.0591  -14.4532   24.8416 C   0  0  2  0  0  0  0  0  0  0  0  0
    8.7526  -15.3949   23.7180 N   0  0  0  0  0  0  0  0  0  0  0  0
    9.3776  -15.3192   25.9865 C   0  0  0  0  0  0  0  0  0  0  0  0
    8.9717  -16.5484   25.9431 O   0  0  0  0  0  0  0  0  0  0  0  0
   10.0947  -14.9629   27.1551 N   0  0  0  0  0  0  0  0  0  0  0  0
   10.2395  -13.5460   27.5579 C   0  0  0  0  0  0  0  0  0  0  0  0
   10.3822  -13.6336   29.0623 C   0  0  0  0  0  0  0  0  0  0  0  0
   11.2676  -14.8271   29.2000 C   0  0  0  0  0  0  0  0  0  0  0  0
   10.7317  -15.7965   28.1304 C   0  0  1  0  0  0  0  0  0  0  0  0
    9.7575  -16.6515   28.8657 C   0  0  0  0  0  0  0  0  0  0  0  0
    8.4016  -16.3843   28.6339 O   0  0  0  0  0  0  0  0  0  0  0  0
   10.0361  -17.5624   29.6505 O   0  0  0  0  0  0  0  0  0  0  0  0
  1  2  1  0
  2  4  1  0
  3  2  2  0
  4  5  1  0
  6  5  1  0
  6  7  1  6
  8  6  1  0
  8  9  2  0
 10 11  1  0
 12 11  1  0
 12 13  1  6
 14 15  1  6
 14 12  1  0
 15  8  1  0
 16 17  2  0
 16 14  1  0
 18 16  1  0
 19 20  1  0
 19 18  1  0
 21 20  1  0
 22 21  1  0
 22 18  1  0
 22 23  1  1
 24 23  1  0
 25 23  2  0
M  END
$$$$
