QIP.pdb
     RDKit          3D

 25 25  0  0  1  0  0  0  0  0999 V2000
   12.3787  -18.1364   19.9755 N   0  0  0  0  0  0  0  0  0  0  0  0
   11.0947  -18.6423   19.6040 C   0  0  0  0  0  0  0  0  0  0  0  0
   10.9810  -19.5844   18.7976 O   0  0  0  0  0  0  0  0  0  0  0  0
    9.8904  -18.0354   20.1879 C   0  0  0  0  0  0  0  0  0  0  0  0
   10.2685  -16.9369   21.1505 C   0  0  0  0  0  0  0  0  0  0  0  0
    9.0531  -16.0666   21.3567 C   0  0  2  0  0  0  0  0  0  0  0  0
    8.8174  -15.3384   20.1314 N   0  0  0  0  0  0  0  0  0  0  0  0
    9.2929  -15.1344   22.5038 C   0  0  0  0  0  0  0  0  0  0  0  0
   10.0907  -14.1859   22.4261 O   0  0  0  0  0  0  0  0  0  0  0  0
    5.9508  -12.3621   26.0831 C   0  0  0  0  0  0  0  0  0  0  0  0
    6.9820  -12.7517   25.0140 C   0  0  0  0  0  0  0  0  0  0  0  0
    7.3605  -14.1495   25.2654 C   0  0  2  0  0  0  0  0  0  0  0  0
    6.9818  -14.6408   26.6499 C   0  0  0  0  0  0  0  0  0  0  0  0
    8.8009  -14.5290   24.9147 C   0  0  2  0  0  0  0  0  0  0  0  0
    8.5825  -15.3619   23.6892 N   0  0  0  0  0  0  0  0  0  0  0  0
    9.4195  -15.4411   25.8882 C   0  0  0  0  0  0  0  0  0  0  0  0
    9.2964  -16.7140   25.6833 O   0  0  0  0  0  0  0  0  0  0  0  0
   10.1536  -15.0859   27.0465 N   0  0  0  0  0  0  0  0  0  0  0  0
   10.1846  -13.6873   27.5298 C   0  0  0  0  0  0  0  0  0  0  0  0
   10.4042  -13.8474   29.0190 C   0  0  0  0  0  0  0  0  0  0  0  0
   11.4020  -14.9569   29.0467 C   0  0  0  0  0  0  0  0  0  0  0  0
   10.9096  -15.9097   27.9419 C   0  0  1  0  0  0  0  0  0  0  0  0
   10.0540  -16.8948   28.6618 C   0  0  0  0  0  0  0  0  0  0  0  0
   10.7272  -17.8550   29.4288 O   0  0  0  0  0  0  0  0  0  0  0  0
    8.8207  -16.9388   28.6421 O   0  0  0  0  0  0  0  0  0  0  0  0
  1  2  1  0
  2  4  1  0
  3  2  2  0
  4  5  1  0
  6  5  1  0
  6  7  1  6
  8  6  1  0
  8  9  2  0
 10 11  1  0
 12 11  1  0
 12 13  1  1
 14 15  1  6
 14 12  1  0
 15  8  1  0
 16 17  2  0
 16 14  1  0
 18 16  1  0
 19 20  1  0
 19 18  1  0
 21 20  1  0
 22 21  1  0
 22 18  1  0
 22 23  1  1
 24 23  1  0
 25 23  2  0
M  END
$$$$
