QIP.pdb
     RDKit          3D

 25 25  0  0  1  0  0  0  0  0999 V2000
    7.9950  -20.0627   15.3044 N   0  0  0  0  0  0  0  0  0  0  0  0
    9.0800  -20.6561   16.0208 C   0  0  0  0  0  0  0  0  0  0  0  0
    9.7877  -21.5407   15.5036 O   0  0  0  0  0  0  0  0  0  0  0  0
    9.3606  -20.2099   17.3926 C   0  0  0  0  0  0  0  0  0  0  0  0
    8.2740  -19.2820   17.8768 C   0  0  0  0  0  0  0  0  0  0  0  0
    8.5936  -17.8959   17.3733 C   0  0  2  0  0  0  0  0  0  0  0  0
    9.4003  -18.0329   16.1826 N   0  0  0  0  0  0  0  0  0  0  0  0
    9.3211  -17.1320   18.4361 C   0  0  0  0  0  0  0  0  0  0  0  0
   10.5608  -17.0695   18.4706 O   0  0  0  0  0  0  0  0  0  0  0  0
    6.7660  -12.6764   19.9963 C   0  0  0  0  0  0  0  0  0  0  0  0
    7.9413  -13.5856   19.6090 C   0  0  0  0  0  0  0  0  0  0  0  0
    8.0956  -14.5765   20.6835 C   0  0  2  0  0  0  0  0  0  0  0  0
    8.1827  -13.9616   22.0677 C   0  0  0  0  0  0  0  0  0  0  0  0
    9.1841  -15.6315   20.4734 C   0  0  2  0  0  0  0  0  0  0  0  0
    8.5554  -16.4769   19.4089 N   0  0  0  0  0  0  0  0  0  0  0  0
    9.3551  -16.5330   21.6224 C   0  0  0  0  0  0  0  0  0  0  0  0
    8.3053  -17.1475   22.0671 O   0  0  0  0  0  0  0  0  0  0  0  0
   10.5580  -16.8190   22.3137 N   0  0  0  0  0  0  0  0  0  0  0  0
   11.8096  -16.0954   21.9966 C   0  0  0  0  0  0  0  0  0  0  0  0
   12.5675  -16.1379   23.3062 C   0  0  0  0  0  0  0  0  0  0  0  0
   12.2837  -17.5312   23.7597 C   0  0  0  0  0  0  0  0  0  0  0  0
   10.8036  -17.7348   23.3875 C   0  0  1  0  0  0  0  0  0  0  0  0
   10.0601  -17.3664   24.6253 C   0  0  0  0  0  0  0  0  0  0  0  0
   10.1481  -18.2706   25.6922 O   0  0  0  0  0  0  0  0  0  0  0  0
    9.3825  -16.3482   24.7914 O   0  0  0  0  0  0  0  0  0  0  0  0
  1  2  1  0
  2  4  1  0
  3  2  2  0
  4  5  1  0
  6  5  1  0
  6  7  1  6
  8  6  1  0
  8  9  2  0
 10 11  1  0
 12 11  1  0
 12 13  1  1
 14 15  1  6
 14 12  1  0
 15  8  1  0
 16 17  2  0
 16 14  1  0
 18 16  1  0
 19 20  1  0
 19 18  1  0
 21 20  1  0
 22 21  1  0
 22 18  1  0
 22 23  1  1
 24 23  1  0
 25 23  2  0
M  END
$$$$
