QIP.pdb
     RDKit          3D

 25 25  0  0  1  0  0  0  0  0999 V2000
   11.2231  -18.4541   20.4331 N   0  0  0  0  0  0  0  0  0  0  0  0
    9.9479  -18.4203   19.7887 C   0  0  0  0  0  0  0  0  0  0  0  0
    9.6471  -19.2493   18.9094 O   0  0  0  0  0  0  0  0  0  0  0  0
    8.9782  -17.3859   20.1750 C   0  0  0  0  0  0  0  0  0  0  0  0
    9.5134  -16.5649   21.3222 C   0  0  0  0  0  0  0  0  0  0  0  0
    8.5216  -15.4627   21.6020 C   0  0  2  0  0  0  0  0  0  0  0  0
    8.4802  -14.6003   20.4436 N   0  0  0  0  0  0  0  0  0  0  0  0
    8.9427  -14.7080   22.8249 C   0  0  0  0  0  0  0  0  0  0  0  0
    9.8861  -13.9007   22.8083 O   0  0  0  0  0  0  0  0  0  0  0  0
    5.3344  -12.3294   25.8068 C   0  0  0  0  0  0  0  0  0  0  0  0
    6.6032  -12.7339   25.0422 C   0  0  0  0  0  0  0  0  0  0  0  0
    7.2394  -13.8199   25.8014 C   0  0  2  0  0  0  0  0  0  0  0  0
    7.2494  -13.5870   27.3005 C   0  0  0  0  0  0  0  0  0  0  0  0
    8.6112  -14.2763   25.2997 C   0  0  2  0  0  0  0  0  0  0  0  0
    8.2337  -14.9387   24.0106 N   0  0  0  0  0  0  0  0  0  0  0  0
    9.2070  -15.3450   26.1153 C   0  0  0  0  0  0  0  0  0  0  0  0
    8.7629  -16.5498   25.9466 O   0  0  0  0  0  0  0  0  0  0  0  0
   10.2339  -15.2117   27.0820 N   0  0  0  0  0  0  0  0  0  0  0  0
   10.7173  -13.8770   27.5010 C   0  0  0  0  0  0  0  0  0  0  0  0
   11.1982  -14.1188   28.9158 C   0  0  0  0  0  0  0  0  0  0  0  0
   11.8671  -15.4451   28.7713 C   0  0  0  0  0  0  0  0  0  0  0  0
   10.9293  -16.2187   27.8265 C   0  0  1  0  0  0  0  0  0  0  0  0
   10.0247  -16.9700   28.7420 C   0  0  0  0  0  0  0  0  0  0  0  0
   10.5927  -18.0589   29.4167 O   0  0  0  0  0  0  0  0  0  0  0  0
    8.8349  -16.7207   28.9555 O   0  0  0  0  0  0  0  0  0  0  0  0
  1  2  1  0
  2  4  1  0
  3  2  2  0
  4  5  1  0
  6  5  1  0
  6  7  1  6
  8  6  1  0
  8  9  2  0
 10 11  1  0
 12 11  1  0
 12 13  1  1
 14 15  1  6
 14 12  1  0
 15  8  1  0
 16 17  2  0
 16 14  1  0
 18 16  1  0
 19 20  1  0
 19 18  1  0
 21 20  1  0
 22 21  1  0
 22 18  1  0
 22 23  1  1
 24 23  1  0
 25 23  2  0
M  END
$$$$
