QIP.pdb
     RDKit          3D

 25 25  0  0  1  0  0  0  0  0999 V2000
    9.7552  -18.4344   26.1843 N   0  0  0  0  0  0  0  0  0  0  0  0
    9.2413  -19.7435   26.4388 C   0  0  0  0  0  0  0  0  0  0  0  0
    9.4546  -20.3212   27.5212 O   0  0  0  0  0  0  0  0  0  0  0  0
    8.4473  -20.4148   25.4003 C   0  0  0  0  0  0  0  0  0  0  0  0
    7.9122  -19.4071   24.4132 C   0  0  0  0  0  0  0  0  0  0  0  0
    6.6412  -18.8304   24.9867 C   0  0  2  0  0  0  0  0  0  0  0  0
    5.5696  -19.7588   24.7090 N   0  0  0  0  0  0  0  0  0  0  0  0
    6.3738  -17.4931   24.3683 C   0  0  0  0  0  0  0  0  0  0  0  0
    5.6894  -17.3681   23.3397 O   0  0  0  0  0  0  0  0  0  0  0  0
    6.6355  -12.0872   26.7373 C   0  0  0  0  0  0  0  0  0  0  0  0
    6.9245  -12.6810   25.3510 C   0  0  0  0  0  0  0  0  0  0  0  0
    7.1954  -14.1132   25.5403 C   0  0  2  0  0  0  0  0  0  0  0  0
    8.5638  -14.3989   26.1297 C   0  0  0  0  0  0  0  0  0  0  0  0
    6.9070  -15.0161   24.3389 C   0  0  2  0  0  0  0  0  0  0  0  0
    6.9243  -16.3650   24.9895 N   0  0  0  0  0  0  0  0  0  0  0  0
    8.0023  -15.0534   23.3585 C   0  0  0  0  0  0  0  0  0  0  0  0
    9.0818  -15.6899   23.6856 O   0  0  0  0  0  0  0  0  0  0  0  0
    8.0165  -14.4670   22.0691 N   0  0  0  0  0  0  0  0  0  0  0  0
    6.9279  -13.5653   21.6301 C   0  0  0  0  0  0  0  0  0  0  0  0
    7.6175  -12.6625   20.6297 C   0  0  0  0  0  0  0  0  0  0  0  0
    8.4842  -13.6396   19.9075 C   0  0  0  0  0  0  0  0  0  0  0  0
    8.9970  -14.5614   21.0290 C   0  0  1  0  0  0  0  0  0  0  0  0
   10.3024  -13.9630   21.4273 C   0  0  0  0  0  0  0  0  0  0  0  0
   11.3667  -14.1502   20.5353 O   0  0  0  0  0  0  0  0  0  0  0  0
   10.5257  -13.3255   22.4603 O   0  0  0  0  0  0  0  0  0  0  0  0
  1  2  1  0
  2  4  1  0
  3  2  2  0
  4  5  1  0
  6  5  1  0
  6  7  1  6
  8  6  1  0
  8  9  2  0
 10 11  1  0
 12 11  1  0
 12 13  1  6
 14 15  1  1
 14 12  1  0
 15  8  1  0
 16 17  2  0
 16 14  1  0
 18 16  1  0
 19 20  1  0
 19 18  1  0
 21 20  1  0
 22 21  1  0
 22 18  1  0
 22 23  1  1
 24 23  1  0
 25 23  2  0
M  END
$$$$
