QIP.pdb
     RDKit          3D

 25 25  0  0  1  0  0  0  0  0999 V2000
    9.1552  -21.8564   24.4469 N   0  0  0  0  0  0  0  0  0  0  0  0
    9.3932  -20.4473   24.4290 C   0  0  0  0  0  0  0  0  0  0  0  0
   10.2433  -19.9271   25.1756 O   0  0  0  0  0  0  0  0  0  0  0  0
    8.6174  -19.6023   23.5106 C   0  0  0  0  0  0  0  0  0  0  0  0
    7.1391  -19.7784   23.7552 C   0  0  0  0  0  0  0  0  0  0  0  0
    6.7572  -18.8995   24.9208 C   0  0  2  0  0  0  0  0  0  0  0  0
    5.6288  -19.5106   25.5846 N   0  0  0  0  0  0  0  0  0  0  0  0
    6.4167  -17.5284   24.4244 C   0  0  0  0  0  0  0  0  0  0  0  0
    5.5182  -17.3345   23.5895 O   0  0  0  0  0  0  0  0  0  0  0  0
    6.2160  -12.3022   26.4511 C   0  0  0  0  0  0  0  0  0  0  0  0
    7.2254  -12.7638   25.3899 C   0  0  0  0  0  0  0  0  0  0  0  0
    7.3984  -14.2138   25.5575 C   0  0  2  0  0  0  0  0  0  0  0  0
    8.7433  -14.6004   26.1435 C   0  0  0  0  0  0  0  0  0  0  0  0
    7.0518  -15.0767   24.3422 C   0  0  2  0  0  0  0  0  0  0  0  0
    7.1497  -16.4491   24.9338 N   0  0  0  0  0  0  0  0  0  0  0  0
    8.0774  -15.0434   23.2890 C   0  0  0  0  0  0  0  0  0  0  0  0
    9.1817  -15.6852   23.5033 O   0  0  0  0  0  0  0  0  0  0  0  0
    7.9985  -14.3818   22.0388 N   0  0  0  0  0  0  0  0  0  0  0  0
    6.8464  -13.5138   21.7075 C   0  0  0  0  0  0  0  0  0  0  0  0
    7.4400  -12.5188   20.7333 C   0  0  0  0  0  0  0  0  0  0  0  0
    8.3166  -13.4050   19.9127 C   0  0  0  0  0  0  0  0  0  0  0  0
    8.9294  -14.3635   20.9502 C   0  0  1  0  0  0  0  0  0  0  0  0
   10.2220  -13.7224   21.3231 C   0  0  0  0  0  0  0  0  0  0  0  0
   10.2894  -13.1670   22.6078 O   0  0  0  0  0  0  0  0  0  0  0  0
   11.2254  -13.6388   20.6092 O   0  0  0  0  0  0  0  0  0  0  0  0
  1  2  1  0
  2  4  1  0
  3  2  2  0
  4  5  1  0
  6  5  1  0
  6  7  1  6
  8  6  1  0
  8  9  2  0
 10 11  1  0
 12 11  1  0
 12 13  1  6
 14 15  1  1
 14 12  1  0
 15  8  1  0
 16 17  2  0
 16 14  1  0
 18 16  1  0
 19 20  1  0
 19 18  1  0
 21 20  1  0
 22 21  1  0
 22 18  1  0
 22 23  1  1
 24 23  1  0
 25 23  2  0
M  END
$$$$
