QIP.pdb
     RDKit          3D

 25 25  0  0  1  0  0  0  0  0999 V2000
    8.1051  -18.6513   19.4412 N   0  0  0  0  0  0  0  0  0  0  0  0
    6.7116  -18.3474   19.3501 C   0  0  0  0  0  0  0  0  0  0  0  0
    5.9856  -18.8969   18.5006 O   0  0  0  0  0  0  0  0  0  0  0  0
    6.1309  -17.3676   20.2787 C   0  0  0  0  0  0  0  0  0  0  0  0
    7.1650  -16.9131   21.2788 C   0  0  0  0  0  0  0  0  0  0  0  0
    6.9901  -15.4279   21.4797 C   0  0  2  0  0  0  0  0  0  0  0  0
    7.2049  -14.7809   20.2060 N   0  0  0  0  0  0  0  0  0  0  0  0
    7.9667  -14.9424   22.5059 C   0  0  0  0  0  0  0  0  0  0  0  0
    9.1277  -14.6175   22.2084 O   0  0  0  0  0  0  0  0  0  0  0  0
    6.1082  -11.6064   26.0583 C   0  0  0  0  0  0  0  0  0  0  0  0
    7.0172  -12.3504   25.0693 C   0  0  0  0  0  0  0  0  0  0  0  0
    7.5255  -13.5437   25.7607 C   0  0  2  0  0  0  0  0  0  0  0  0
    8.1101  -13.2488   27.1292 C   0  0  0  0  0  0  0  0  0  0  0  0
    8.4491  -14.4508   24.9444 C   0  0  2  0  0  0  0  0  0  0  0  0
    7.5312  -14.8620   23.8346 N   0  0  0  0  0  0  0  0  0  0  0  0
    8.7974  -15.7028   25.6325 C   0  0  0  0  0  0  0  0  0  0  0  0
    7.8885  -16.2578   26.3695 O   0  0  0  0  0  0  0  0  0  0  0  0
   10.0343  -16.3915   25.5811 N   0  0  0  0  0  0  0  0  0  0  0  0
   11.1803  -15.8439   24.8213 C   0  0  0  0  0  0  0  0  0  0  0  0
   12.3766  -16.4065   25.5587 C   0  0  0  0  0  0  0  0  0  0  0  0
   11.9138  -17.7967   25.8426 C   0  0  0  0  0  0  0  0  0  0  0  0
   10.4318  -17.6119   26.2171 C   0  0  1  0  0  0  0  0  0  0  0  0
   10.4406  -17.4978   27.7029 C   0  0  0  0  0  0  0  0  0  0  0  0
   10.5923  -18.6953   28.4146 O   0  0  0  0  0  0  0  0  0  0  0  0
   10.3275  -16.4549   28.3533 O   0  0  0  0  0  0  0  0  0  0  0  0
  1  2  1  0
  2  4  1  0
  3  2  2  0
  4  5  1  0
  6  5  1  0
  6  7  1  6
  8  6  1  0
  8  9  2  0
 10 11  1  0
 12 11  1  0
 12 13  1  1
 14 15  1  6
 14 12  1  0
 15  8  1  0
 16 17  2  0
 16 14  1  0
 18 16  1  0
 19 20  1  0
 19 18  1  0
 21 20  1  0
 22 21  1  0
 22 18  1  0
 22 23  1  1
 24 23  1  0
 25 23  2  0
M  END
$$$$
