QIP.pdb
     RDKit          3D

 25 25  0  0  1  0  0  0  0  0999 V2000
   10.2961  -20.1185   22.2798 N   0  0  0  0  0  0  0  0  0  0  0  0
    9.6010  -19.8627   21.0575 C   0  0  0  0  0  0  0  0  0  0  0  0
    9.4126  -20.7660   20.2212 O   0  0  0  0  0  0  0  0  0  0  0  0
    9.1018  -18.5070   20.7885 C   0  0  0  0  0  0  0  0  0  0  0  0
    9.5123  -17.5660   21.8941 C   0  0  0  0  0  0  0  0  0  0  0  0
    8.8952  -16.2195   21.6058 C   0  0  2  0  0  0  0  0  0  0  0  0
    9.4019  -15.7643   20.3318 N   0  0  0  0  0  0  0  0  0  0  0  0
    9.2463  -15.2621   22.7023 C   0  0  0  0  0  0  0  0  0  0  0  0
   10.2833  -14.5795   22.6737 O   0  0  0  0  0  0  0  0  0  0  0  0
    5.7539  -12.2644   26.4491 C   0  0  0  0  0  0  0  0  0  0  0  0
    7.2317  -12.6322   26.2520 C   0  0  0  0  0  0  0  0  0  0  0  0
    7.2766  -13.7553   25.3049 C   0  0  2  0  0  0  0  0  0  0  0  0
    6.3121  -14.8755   25.6464 C   0  0  0  0  0  0  0  0  0  0  0  0
    8.6679  -14.3000   24.9741 C   0  0  2  0  0  0  0  0  0  0  0  0
    8.3605  -15.1526   23.7817 N   0  0  0  0  0  0  0  0  0  0  0  0
    9.1865  -15.2337   25.9848 C   0  0  0  0  0  0  0  0  0  0  0  0
    8.8467  -16.4794   25.8845 O   0  0  0  0  0  0  0  0  0  0  0  0
   10.0354  -14.9272   27.0767 N   0  0  0  0  0  0  0  0  0  0  0  0
   10.1585  -13.5410   27.5805 C   0  0  0  0  0  0  0  0  0  0  0  0
   10.5080  -13.7399   29.0399 C   0  0  0  0  0  0  0  0  0  0  0  0
   11.4656  -14.8815   28.9550 C   0  0  0  0  0  0  0  0  0  0  0  0
   10.8417  -15.7940   27.8833 C   0  0  1  0  0  0  0  0  0  0  0  0
   10.0224  -16.7660   28.6610 C   0  0  0  0  0  0  0  0  0  0  0  0
    8.6327  -16.6038   28.5853 O   0  0  0  0  0  0  0  0  0  0  0  0
   10.4547  -17.6892   29.3569 O   0  0  0  0  0  0  0  0  0  0  0  0
  1  2  1  0
  2  4  1  0
  3  2  2  0
  4  5  1  0
  6  5  1  0
  6  7  1  6
  8  6  1  0
  8  9  2  0
 10 11  1  0
 12 11  1  0
 12 13  1  1
 14 15  1  6
 14 12  1  0
 15  8  1  0
 16 17  2  0
 16 14  1  0
 18 16  1  0
 19 20  1  0
 19 18  1  0
 21 20  1  0
 22 21  1  0
 22 18  1  0
 22 23  1  1
 24 23  1  0
 25 23  2  0
M  END
$$$$
