KEH.pdb
     RDKit          3D

 29 29  0  0  1  0  0  0  0  0999 V2000
   13.4049  -18.2428   16.0296 N   0  0  0  0  0  0  0  0  0  0  0  0
   14.1166  -17.0330   15.8331 C   0  0  1  0  0  0  0  0  0  0  0  0
   13.8323  -16.2746   14.5808 C   0  0  0  0  0  0  0  0  0  0  0  0
   12.4755  -16.4155   14.0052 C   0  0  0  0  0  0  0  0  0  0  0  0
   12.2809  -15.7593   12.6869 C   0  0  0  0  0  0  0  0  0  0  0  0
   10.8958  -15.9242   12.1464 C   0  0  0  0  0  0  0  0  0  0  0  0
   10.6566  -15.2737   10.9044 N   0  0  0  0  0  0  0  0  0  0  0  0
   13.9439  -16.1200   17.0273 C   0  0  0  0  0  0  0  0  0  0  0  0
   14.5886  -15.0622   17.0071 O   0  0  0  0  0  0  0  0  0  0  0  0
   13.1104  -16.4343   18.1036 N   0  0  0  0  0  0  0  0  0  0  0  0
   12.7986  -15.6576   19.2585 C   0  0  1  0  0  0  0  0  0  0  0  0
   11.3853  -15.1796   19.3856 C   0  0  0  0  0  0  0  0  0  0  0  0
   11.0070  -14.0742   18.4330 C   0  0  0  0  0  0  0  0  0  0  0  0
    9.6059  -13.6768   18.7160 C   0  0  0  0  0  0  0  0  0  0  0  0
    9.1811  -13.7098   19.8797 O   0  0  0  0  0  0  0  0  0  0  0  0
   13.3126  -16.1662   20.5271 C   0  0  0  0  0  0  0  0  0  0  0  0
   13.2822  -17.4374   20.7234 O   0  0  0  0  0  0  0  0  0  0  0  0
    8.7922  -13.2765   17.6889 O   0  0  0  0  0  0  0  0  0  0  0  0
   13.8278  -15.2942   21.5053 N   0  0  0  0  0  0  0  0  0  0  0  0
   14.2983  -15.8699   22.7647 C   0  0  1  0  0  0  0  0  0  0  0  0
   15.3340  -14.8684   23.2845 C   0  0  0  0  0  0  0  0  0  0  0  0
   16.6714  -15.1338   22.7064 C   0  0  0  0  0  0  0  0  0  0  0  0
   16.9835  -16.1714   21.8394 C   0  0  0  0  0  0  0  0  0  0  0  0
   18.2849  -16.0952   21.5252 N   0  0  0  0  0  0  0  0  0  0  0  0
   18.8153  -15.0364   22.1678 C   0  0  0  0  0  0  0  0  0  0  0  0
   17.8222  -14.4603   22.8832 N   0  0  0  0  0  0  0  0  0  0  0  0
   13.1320  -15.8800   23.6896 C   0  0  0  0  0  0  0  0  0  0  0  0
   13.1849  -16.3794   24.9598 O   0  0  0  0  0  0  0  0  0  0  0  0
   12.0134  -15.4032   23.2984 O   0  0  0  0  0  0  0  0  0  0  0  0
  2  8  1  0
  2  1  1  1
  3  2  1  0
  4  3  1  0
  4  5  1  0
  6  5  1  0
  7  6  1  0
  8  9  2  0
 10 11  1  0
 10  8  1  0
 11 12  1  1
 13 14  1  0
 13 12  1  0
 14 18  1  0
 15 14  2  0
 16 17  2  0
 16 11  1  0
 19 16  1  0
 20 19  1  0
 20 21  1  1
 22 26  1  0
 22 21  1  0
 23 22  2  0
 24 23  1  0
 24 25  1  0
 25 26  2  0
 27 20  1  0
 27 28  1  0
 29 27  2  0
M  END
$$$$
