KEH.pdb
     RDKit          3D

 29 29  0  0  1  0  0  0  0  0999 V2000
    8.4700  -18.2338   18.5592 N   0  0  0  0  0  0  0  0  0  0  0  0
    9.6122  -17.5721   19.0756 C   0  0  1  0  0  0  0  0  0  0  0  0
    9.8591  -16.1786   18.6054 C   0  0  0  0  0  0  0  0  0  0  0  0
    8.6715  -15.3761   18.2339 C   0  0  0  0  0  0  0  0  0  0  0  0
    8.9681  -14.0098   17.7324 C   0  0  0  0  0  0  0  0  0  0  0  0
    7.7422  -13.2495   17.3363 C   0  0  0  0  0  0  0  0  0  0  0  0
    7.9902  -11.9801   16.7446 N   0  0  0  0  0  0  0  0  0  0  0  0
    9.5986  -17.6003   20.5884 C   0  0  0  0  0  0  0  0  0  0  0  0
    8.4857  -17.5311   21.1285 O   0  0  0  0  0  0  0  0  0  0  0  0
   10.7643  -17.6968   21.3522 N   0  0  0  0  0  0  0  0  0  0  0  0
   10.9083  -17.8027   22.7672 C   0  0  1  0  0  0  0  0  0  0  0  0
   12.1761  -18.4210   23.2696 C   0  0  0  0  0  0  0  0  0  0  0  0
   12.2521  -18.5713   24.7677 C   0  0  0  0  0  0  0  0  0  0  0  0
   13.5392  -19.2285   25.1035 C   0  0  0  0  0  0  0  0  0  0  0  0
   13.7368  -20.4030   24.7616 O   0  0  0  0  0  0  0  0  0  0  0  0
   10.5452  -16.6154   23.5359 C   0  0  0  0  0  0  0  0  0  0  0  0
   11.2468  -15.5503   23.3670 O   0  0  0  0  0  0  0  0  0  0  0  0
   14.4994  -18.5319   25.7891 O   0  0  0  0  0  0  0  0  0  0  0  0
    9.4600  -16.6334   24.4329 N   0  0  0  0  0  0  0  0  0  0  0  0
    9.1467  -15.4052   25.1625 C   0  0  1  0  0  0  0  0  0  0  0  0
    7.6250  -15.2685   25.0540 C   0  0  0  0  0  0  0  0  0  0  0  0
    7.1344  -14.1144   25.8418 C   0  0  0  0  0  0  0  0  0  0  0  0
    7.8669  -12.9753   26.1448 C   0  0  0  0  0  0  0  0  0  0  0  0
    7.0992  -12.1481   26.8692 N   0  0  0  0  0  0  0  0  0  0  0  0
    5.8943  -12.7267   27.0386 C   0  0  0  0  0  0  0  0  0  0  0  0
    5.9295  -13.9230   26.4082 N   0  0  0  0  0  0  0  0  0  0  0  0
    9.5075  -15.6521   26.5854 C   0  0  0  0  0  0  0  0  0  0  0  0
    9.6851  -14.6529   27.4997 O   0  0  0  0  0  0  0  0  0  0  0  0
    9.6650  -16.8511   26.9967 O   0  0  0  0  0  0  0  0  0  0  0  0
  2  8  1  0
  2  1  1  6
  3  2  1  0
  4  3  1  0
  4  5  1  0
  6  5  1  0
  7  6  1  0
  8  9  2  0
 10 11  1  0
 10  8  1  0
 11 12  1  6
 13 14  1  0
 13 12  1  0
 14 18  1  0
 15 14  2  0
 16 17  2  0
 16 11  1  0
 19 16  1  0
 20 19  1  0
 20 21  1  1
 22 26  1  0
 22 21  1  0
 23 22  2  0
 24 23  1  0
 24 25  1  0
 25 26  2  0
 27 20  1  0
 27 28  1  0
 29 27  2  0
M  END
$$$$
