KEH.pdb
     RDKit          3D

 29 29  0  0  1  0  0  0  0  0999 V2000
    9.4145  -18.3983   17.5349 N   0  0  0  0  0  0  0  0  0  0  0  0
   10.4980  -17.5920   17.9649 C   0  0  1  0  0  0  0  0  0  0  0  0
   10.4629  -16.1502   17.5852 C   0  0  0  0  0  0  0  0  0  0  0  0
    9.1581  -15.4593   17.6962 C   0  0  0  0  0  0  0  0  0  0  0  0
    9.1229  -14.0877   17.1270 C   0  0  0  0  0  0  0  0  0  0  0  0
    7.8103  -13.3997   17.3309 C   0  0  0  0  0  0  0  0  0  0  0  0
    7.7147  -12.1072   16.7451 N   0  0  0  0  0  0  0  0  0  0  0  0
   10.6861  -17.7164   19.4611 C   0  0  0  0  0  0  0  0  0  0  0  0
    9.6522  -17.7777   20.1410 O   0  0  0  0  0  0  0  0  0  0  0  0
   11.9464  -17.7596   20.0625 N   0  0  0  0  0  0  0  0  0  0  0  0
   12.2868  -18.0139   21.4240 C   0  0  1  0  0  0  0  0  0  0  0  0
   13.7199  -18.3411   21.7088 C   0  0  0  0  0  0  0  0  0  0  0  0
   14.3059  -19.4175   20.8311 C   0  0  0  0  0  0  0  0  0  0  0  0
   15.7575  -19.5146   21.1219 C   0  0  0  0  0  0  0  0  0  0  0  0
   16.2704  -18.7493   21.9506 O   0  0  0  0  0  0  0  0  0  0  0  0
   11.7419  -17.0778   22.4033 C   0  0  0  0  0  0  0  0  0  0  0  0
   12.2108  -15.8798   22.4176 O   0  0  0  0  0  0  0  0  0  0  0  0
   16.5198  -20.4493   20.4721 O   0  0  0  0  0  0  0  0  0  0  0  0
   10.7332  -17.4717   23.3033 N   0  0  0  0  0  0  0  0  0  0  0  0
   10.2972  -16.5106   24.3158 C   0  0  1  0  0  0  0  0  0  0  0  0
    8.7737  -16.4571   24.1676 C   0  0  0  0  0  0  0  0  0  0  0  0
    8.3774  -15.6017   23.0254 C   0  0  0  0  0  0  0  0  0  0  0  0
    9.2500  -14.9534   22.1628 C   0  0  0  0  0  0  0  0  0  0  0  0
    8.5344  -14.2757   21.2533 N   0  0  0  0  0  0  0  0  0  0  0  0
    7.2265  -14.4723   21.5103 C   0  0  0  0  0  0  0  0  0  0  0  0
    7.1453  -15.2812   22.5914 N   0  0  0  0  0  0  0  0  0  0  0  0
   10.6316  -17.1055   25.6387 C   0  0  0  0  0  0  0  0  0  0  0  0
   11.2349  -18.3222   25.7843 O   0  0  0  0  0  0  0  0  0  0  0  0
   10.3494  -16.4648   26.7072 O   0  0  0  0  0  0  0  0  0  0  0  0
  2  8  1  0
  2  1  1  1
  3  2  1  0
  4  3  1  0
  4  5  1  0
  6  5  1  0
  7  6  1  0
  8  9  2  0
 10 11  1  0
 10  8  1  0
 11 12  1  6
 13 14  1  0
 13 12  1  0
 14 18  1  0
 15 14  2  0
 16 17  2  0
 16 11  1  0
 19 16  1  0
 20 19  1  0
 20 21  1  1
 22 26  1  0
 22 21  1  0
 23 22  2  0
 24 23  1  0
 24 25  1  0
 25 26  2  0
 27 20  1  0
 27 28  1  0
 29 27  2  0
M  END
$$$$
