KEH.pdb
     RDKit          3D

 29 29  0  0  1  0  0  0  0  0999 V2000
    6.9789  -16.8579   19.2922 N   0  0  0  0  0  0  0  0  0  0  0  0
    8.2023  -16.3721   19.8179 C   0  0  1  0  0  0  0  0  0  0  0  0
    8.2754  -14.9157   20.1306 C   0  0  0  0  0  0  0  0  0  0  0  0
    8.2991  -13.9835   18.9805 C   0  0  0  0  0  0  0  0  0  0  0  0
    8.4105  -12.5463   19.3388 C   0  0  0  0  0  0  0  0  0  0  0  0
    8.3110  -11.6357   18.1561 C   0  0  0  0  0  0  0  0  0  0  0  0
    8.5060  -10.2566   18.4444 N   0  0  0  0  0  0  0  0  0  0  0  0
    8.6066  -17.1719   21.0370 C   0  0  0  0  0  0  0  0  0  0  0  0
    7.6857  -17.6918   21.6824 O   0  0  0  0  0  0  0  0  0  0  0  0
    9.9380  -17.3263   21.4311 N   0  0  0  0  0  0  0  0  0  0  0  0
   10.4645  -17.9396   22.6063 C   0  0  1  0  0  0  0  0  0  0  0  0
   11.7397  -18.7086   22.4496 C   0  0  0  0  0  0  0  0  0  0  0  0
   11.6505  -19.8920   21.5200 C   0  0  0  0  0  0  0  0  0  0  0  0
   12.9814  -20.5458   21.4719 C   0  0  0  0  0  0  0  0  0  0  0  0
   13.7506  -20.4451   22.4382 O   0  0  0  0  0  0  0  0  0  0  0  0
   10.4790  -17.1092   23.8073 C   0  0  0  0  0  0  0  0  0  0  0  0
   11.3395  -16.1548   23.8697 O   0  0  0  0  0  0  0  0  0  0  0  0
   13.3501  -21.2557   20.3595 O   0  0  0  0  0  0  0  0  0  0  0  0
    9.5786  -17.3431   24.8643 N   0  0  0  0  0  0  0  0  0  0  0  0
    9.5746  -16.4069   25.9879 C   0  0  1  0  0  0  0  0  0  0  0  0
    8.0960  -16.2503   26.3555 C   0  0  0  0  0  0  0  0  0  0  0  0
    7.7880  -14.8564   26.7501 C   0  0  0  0  0  0  0  0  0  0  0  0
    8.7082  -13.8214   26.8383 C   0  0  0  0  0  0  0  0  0  0  0  0
    8.0690  -12.7066   27.2218 N   0  0  0  0  0  0  0  0  0  0  0  0
    6.7637  -12.9997   27.3818 C   0  0  0  0  0  0  0  0  0  0  0  0
    6.6066  -14.3115   27.0914 N   0  0  0  0  0  0  0  0  0  0  0  0
   10.2800  -17.0857   27.1093 C   0  0  0  0  0  0  0  0  0  0  0  0
   10.9022  -16.4130   28.1223 O   0  0  0  0  0  0  0  0  0  0  0  0
   10.3197  -18.3618   27.1484 O   0  0  0  0  0  0  0  0  0  0  0  0
  2  8  1  0
  2  1  1  1
  3  2  1  0
  4  3  1  0
  4  5  1  0
  6  5  1  0
  7  6  1  0
  8  9  2  0
 10 11  1  0
 10  8  1  0
 11 12  1  6
 13 14  1  0
 13 12  1  0
 14 18  1  0
 15 14  2  0
 16 17  2  0
 16 11  1  0
 19 16  1  0
 20 19  1  0
 20 21  1  1
 22 26  1  0
 22 21  1  0
 23 22  2  0
 24 23  1  0
 24 25  1  0
 25 26  2  0
 27 20  1  0
 27 28  1  0
 29 27  2  0
M  END
$$$$
