KEH.pdb
     RDKit          3D

 29 29  0  0  1  0  0  0  0  0999 V2000
   10.5868  -13.0561   19.1799 N   0  0  0  0  0  0  0  0  0  0  0  0
    9.2220  -13.2071   19.5313 C   0  0  1  0  0  0  0  0  0  0  0  0
    8.2430  -13.3286   18.4128 C   0  0  0  0  0  0  0  0  0  0  0  0
    8.5670  -14.2969   17.3406 C   0  0  0  0  0  0  0  0  0  0  0  0
    7.6427  -14.2797   16.1780 C   0  0  0  0  0  0  0  0  0  0  0  0
    8.0795  -15.1796   15.0657 C   0  0  0  0  0  0  0  0  0  0  0  0
    7.2145  -15.1992   13.9369 N   0  0  0  0  0  0  0  0  0  0  0  0
    9.0485  -14.3702   20.4835 C   0  0  0  0  0  0  0  0  0  0  0  0
    7.8949  -14.5878   20.8796 O   0  0  0  0  0  0  0  0  0  0  0  0
   10.1165  -15.1656   20.9061 N   0  0  0  0  0  0  0  0  0  0  0  0
   10.0990  -16.3480   21.7035 C   0  0  1  0  0  0  0  0  0  0  0  0
   11.0794  -17.4193   21.3388 C   0  0  0  0  0  0  0  0  0  0  0  0
   10.9139  -18.7095   22.1009 C   0  0  0  0  0  0  0  0  0  0  0  0
   11.9721  -19.6499   21.6570 C   0  0  0  0  0  0  0  0  0  0  0  0
   13.0191  -19.7501   22.3121 O   0  0  0  0  0  0  0  0  0  0  0  0
   10.0364  -16.1425   23.1479 C   0  0  0  0  0  0  0  0  0  0  0  0
   10.8768  -15.3247   23.6772 O   0  0  0  0  0  0  0  0  0  0  0  0
   11.7838  -20.4001   20.5261 O   0  0  0  0  0  0  0  0  0  0  0  0
    9.0851  -16.8160   23.9379 N   0  0  0  0  0  0  0  0  0  0  0  0
    9.0505  -16.5291   25.3716 C   0  0  1  0  0  0  0  0  0  0  0  0
    7.5787  -16.2285   25.6704 C   0  0  0  0  0  0  0  0  0  0  0  0
    7.3469  -14.7719   25.8037 C   0  0  0  0  0  0  0  0  0  0  0  0
    8.3326  -13.7951   25.8008 C   0  0  0  0  0  0  0  0  0  0  0  0
    7.7516  -12.5945   25.9401 N   0  0  0  0  0  0  0  0  0  0  0  0
    6.4197  -12.7760   26.0323 C   0  0  0  0  0  0  0  0  0  0  0  0
    6.1873  -14.1058   25.9478 N   0  0  0  0  0  0  0  0  0  0  0  0
    9.4354  -17.7880   26.0665 C   0  0  0  0  0  0  0  0  0  0  0  0
    9.6535  -17.8665   27.4126 O   0  0  0  0  0  0  0  0  0  0  0  0
    9.5755  -18.8631   25.3912 O   0  0  0  0  0  0  0  0  0  0  0  0
  2  8  1  0
  2  1  1  6
  3  2  1  0
  4  3  1  0
  4  5  1  0
  6  5  1  0
  7  6  1  0
  8  9  2  0
 10 11  1  0
 10  8  1  0
 11 12  1  1
 13 14  1  0
 13 12  1  0
 14 18  1  0
 15 14  2  0
 16 17  2  0
 16 11  1  0
 19 16  1  0
 20 19  1  0
 20 21  1  1
 22 26  1  0
 22 21  1  0
 23 22  2  0
 24 23  1  0
 24 25  1  0
 25 26  2  0
 27 20  1  0
 27 28  1  0
 29 27  2  0
M  END
$$$$
