KEH.pdb
     RDKit          3D

 29 29  0  0  1  0  0  0  0  0999 V2000
    8.9862  -14.8434   16.7761 N   0  0  0  0  0  0  0  0  0  0  0  0
    9.8277  -13.9900   17.5328 C   0  0  1  0  0  0  0  0  0  0  0  0
    9.1641  -13.0539   18.4854 C   0  0  0  0  0  0  0  0  0  0  0  0
    8.5373  -13.6520   19.6860 C   0  0  0  0  0  0  0  0  0  0  0  0
    7.8383  -12.6894   20.5756 C   0  0  0  0  0  0  0  0  0  0  0  0
    7.2976  -13.3227   21.8184 C   0  0  0  0  0  0  0  0  0  0  0  0
    6.6479  -12.4274   22.7124 N   0  0  0  0  0  0  0  0  0  0  0  0
   10.8759  -14.7984   18.2659 C   0  0  0  0  0  0  0  0  0  0  0  0
   10.4941  -15.8643   18.7691 O   0  0  0  0  0  0  0  0  0  0  0  0
   12.2047  -14.3832   18.3819 N   0  0  0  0  0  0  0  0  0  0  0  0
   13.3110  -15.0583   18.9775 C   0  0  1  0  0  0  0  0  0  0  0  0
   14.6704  -14.7144   18.4523 C   0  0  0  0  0  0  0  0  0  0  0  0
   14.8921  -15.0651   17.0030 C   0  0  0  0  0  0  0  0  0  0  0  0
   16.2992  -14.7455   16.6581 C   0  0  0  0  0  0  0  0  0  0  0  0
   16.5563  -13.7157   16.0187 O   0  0  0  0  0  0  0  0  0  0  0  0
   13.2998  -15.1380   20.4355 C   0  0  0  0  0  0  0  0  0  0  0  0
   13.2180  -14.0384   21.0985 O   0  0  0  0  0  0  0  0  0  0  0  0
   17.3037  -15.5914   17.0490 O   0  0  0  0  0  0  0  0  0  0  0  0
   13.3742  -16.3788   21.0968 N   0  0  0  0  0  0  0  0  0  0  0  0
   13.2952  -16.3889   22.5572 C   0  0  1  0  0  0  0  0  0  0  0  0
   12.3544  -17.5521   22.8855 C   0  0  0  0  0  0  0  0  0  0  0  0
   10.9361  -17.1427   22.7656 C   0  0  0  0  0  0  0  0  0  0  0  0
   10.4887  -15.8634   22.4673 C   0  0  0  0  0  0  0  0  0  0  0  0
    9.1480  -15.8699   22.4410 N   0  0  0  0  0  0  0  0  0  0  0  0
    8.7242  -17.1192   22.7147 C   0  0  0  0  0  0  0  0  0  0  0  0
    9.8229  -17.8837   22.9102 N   0  0  0  0  0  0  0  0  0  0  0  0
   14.6591  -16.7179   23.0545 C   0  0  0  0  0  0  0  0  0  0  0  0
   14.9855  -16.7599   24.3802 O   0  0  0  0  0  0  0  0  0  0  0  0
   15.5891  -16.9776   22.2183 O   0  0  0  0  0  0  0  0  0  0  0  0
  2  8  1  0
  2  1  1  1
  3  2  1  0
  4  3  1  0
  4  5  1  0
  6  5  1  0
  7  6  1  0
  8  9  2  0
 10 11  1  0
 10  8  1  0
 11 12  1  1
 13 14  1  0
 13 12  1  0
 14 18  1  0
 15 14  2  0
 16 17  2  0
 16 11  1  0
 19 16  1  0
 20 19  1  0
 20 21  1  6
 22 26  1  0
 22 21  1  0
 23 22  2  0
 24 23  1  0
 24 25  1  0
 25 26  2  0
 27 20  1  0
 27 28  1  0
 29 27  2  0
M  END
$$$$
