KEH.pdb
     RDKit          3D

 29 29  0  0  1  0  0  0  0  0999 V2000
    8.3441  -18.1112   16.6158 N   0  0  0  0  0  0  0  0  0  0  0  0
    9.6397  -17.5469   16.5069 C   0  0  1  0  0  0  0  0  0  0  0  0
    9.7322  -16.1601   15.9663 C   0  0  0  0  0  0  0  0  0  0  0  0
    8.7052  -15.7554   14.9795 C   0  0  0  0  0  0  0  0  0  0  0  0
    8.8408  -14.3689   14.4641 C   0  0  0  0  0  0  0  0  0  0  0  0
    7.7957  -14.0114   13.4553 C   0  0  0  0  0  0  0  0  0  0  0  0
    7.9290  -12.7132   12.8897 N   0  0  0  0  0  0  0  0  0  0  0  0
   10.3600  -17.6207   17.8356 C   0  0  0  0  0  0  0  0  0  0  0  0
    9.7038  -17.2939   18.8344 O   0  0  0  0  0  0  0  0  0  0  0  0
   11.6907  -18.0301   17.9512 N   0  0  0  0  0  0  0  0  0  0  0  0
   12.5020  -18.1378   19.1193 C   0  0  1  0  0  0  0  0  0  0  0  0
   13.8324  -18.8050   18.9546 C   0  0  0  0  0  0  0  0  0  0  0  0
   14.5814  -19.0408   20.2414 C   0  0  0  0  0  0  0  0  0  0  0  0
   15.8661  -19.7075   19.9151 C   0  0  0  0  0  0  0  0  0  0  0  0
   15.8644  -20.8764   19.5038 O   0  0  0  0  0  0  0  0  0  0  0  0
   12.5994  -16.9350   19.9415 C   0  0  0  0  0  0  0  0  0  0  0  0
   12.9741  -15.8441   19.3714 O   0  0  0  0  0  0  0  0  0  0  0  0
   17.0444  -19.0260   20.0712 O   0  0  0  0  0  0  0  0  0  0  0  0
   12.2913  -16.9658   21.3150 N   0  0  0  0  0  0  0  0  0  0  0  0
   12.3276  -15.7074   22.0593 C   0  0  1  0  0  0  0  0  0  0  0  0
   10.9151  -15.5559   22.6318 C   0  0  0  0  0  0  0  0  0  0  0  0
   10.0006  -14.9404   21.6427 C   0  0  0  0  0  0  0  0  0  0  0  0
   10.3667  -14.4702   20.3895 C   0  0  0  0  0  0  0  0  0  0  0  0
    9.2781  -13.9846   19.7753 N   0  0  0  0  0  0  0  0  0  0  0  0
    8.2240  -14.1310   20.6015 C   0  0  0  0  0  0  0  0  0  0  0  0
    8.6779  -14.7140   21.7346 N   0  0  0  0  0  0  0  0  0  0  0  0
   13.2837  -15.9053   23.1829 C   0  0  0  0  0  0  0  0  0  0  0  0
   13.9325  -17.0840   23.4184 O   0  0  0  0  0  0  0  0  0  0  0  0
   13.5262  -14.9385   23.9817 O   0  0  0  0  0  0  0  0  0  0  0  0
  2  8  1  0
  2  1  1  1
  3  2  1  0
  4  3  1  0
  4  5  1  0
  6  5  1  0
  7  6  1  0
  8  9  2  0
 10 11  1  0
 10  8  1  0
 11 12  1  6
 13 14  1  0
 13 12  1  0
 14 18  1  0
 15 14  2  0
 16 17  2  0
 16 11  1  0
 19 16  1  0
 20 19  1  0
 20 21  1  1
 22 26  1  0
 22 21  1  0
 23 22  2  0
 24 23  1  0
 24 25  1  0
 25 26  2  0
 27 20  1  0
 27 28  1  0
 29 27  2  0
M  END
$$$$
