FCV.pdb
     RDKit          3D

 25 25  0  0  1  0  0  0  0  0999 V2000
   24.4999  -16.8129  -17.5315 N   0  0  0  0  0  0  0  0  0  0  0  0
   25.3856  -17.3480  -16.4795 C   0  0  1  0  0  0  0  0  0  0  0  0
   26.3226  -16.2545  -16.0483 C   0  0  0  0  0  0  0  0  0  0  0  0
   27.4223  -16.1136  -17.0183 C   0  0  0  0  0  0  0  0  0  0  0  0
   28.4446  -17.0490  -17.0058 C   0  0  0  0  0  0  0  0  0  0  0  0
   29.4944  -16.9711  -17.8991 C   0  0  0  0  0  0  0  0  0  0  0  0
   29.4822  -15.9344  -18.7941 C   0  0  0  0  0  0  0  0  0  0  0  0
   28.4814  -14.9807  -18.8394 C   0  0  0  0  0  0  0  0  0  0  0  0
   27.4314  -15.0788  -17.9284 C   0  0  0  0  0  0  0  0  0  0  0  0
   24.5773  -17.9195  -15.3793 C   0  0  0  0  0  0  0  0  0  0  0  0
   23.4475  -17.4816  -15.0523 O   0  0  0  0  0  0  0  0  0  0  0  0
   25.0605  -19.0329  -14.6121 N   0  0  0  0  0  0  0  0  0  0  0  0
   24.2848  -19.6385  -13.5646 C   0  0  1  0  0  0  0  0  0  0  0  0
   23.3348  -20.6556  -14.1674 C   0  0  0  0  0  0  0  0  0  0  0  0
   22.5428  -21.6738  -12.9138 S   0  0  0  0  0  0  0  0  0  0  0  0
   25.1459  -20.2503  -12.5208 C   0  0  0  0  0  0  0  0  0  0  0  0
   26.0522  -21.0919  -12.8440 O   0  0  0  0  0  0  0  0  0  0  0  0
   24.9417  -19.5067   -8.0585 C   0  0  0  0  0  0  0  0  0  0  0  0
   26.0806  -19.4875   -9.0353 C   0  0  1  0  0  0  0  0  0  0  0  0
   27.3517  -19.9051   -8.3080 C   0  0  0  0  0  0  0  0  0  0  0  0
   25.7640  -20.4906  -10.1523 C   0  0  2  0  0  0  0  0  0  0  0  0
   24.9371  -19.8783  -11.1641 N   0  0  0  0  0  0  0  0  0  0  0  0
   25.0182  -21.5938   -9.5125 C   0  0  0  0  0  0  0  0  0  0  0  0
   25.7294  -22.6543   -8.9856 O   0  0  0  0  0  0  0  0  0  0  0  0
   23.7670  -21.6296   -9.4162 O   0  0  0  0  0  0  0  0  0  0  0  0
  2 10  1  0
  2  1  1  6
  3  2  1  0
  4  3  1  0
  5  4  2  0
  6  5  1  0
  7  8  1  0
  7  6  2  0
  8  9  2  0
  9  4  1  0
 10 11  2  0
 12 10  1  0
 12 13  1  0
 13 14  1  6
 14 15  1  0
 16 17  2  0
 16 13  1  0
 19 18  1  1
 19 20  1  0
 19 21  1  0
 21 22  1  6
 22 16  1  0
 23 24  1  0
 23 21  1  0
 25 23  2  0
M  END
$$$$
