FCV.pdb
     RDKit          3D

 25 25  0  0  1  0  0  0  0  0999 V2000
   19.1164  -11.1769  -16.0807 N   0  0  0  0  0  0  0  0  0  0  0  0
   20.0541  -10.2002  -16.6676 C   0  0  1  0  0  0  0  0  0  0  0  0
   19.8047  -10.1358  -18.1486 C   0  0  0  0  0  0  0  0  0  0  0  0
   20.1518  -11.4204  -18.7804 C   0  0  0  0  0  0  0  0  0  0  0  0
   19.1273  -12.2603  -19.1869 C   0  0  0  0  0  0  0  0  0  0  0  0
   19.3953  -13.4712  -19.7937 C   0  0  0  0  0  0  0  0  0  0  0  0
   20.7110  -13.8052  -19.9758 C   0  0  0  0  0  0  0  0  0  0  0  0
   21.7621  -12.9956  -19.5848 C   0  0  0  0  0  0  0  0  0  0  0  0
   21.4685  -11.7778  -18.9742 C   0  0  0  0  0  0  0  0  0  0  0  0
   19.9271   -8.8977  -15.9765 C   0  0  0  0  0  0  0  0  0  0  0  0
   18.8363   -8.4433  -15.5536 O   0  0  0  0  0  0  0  0  0  0  0  0
   21.0775   -8.0688  -15.7505 N   0  0  0  0  0  0  0  0  0  0  0  0
   20.9898   -6.7974  -15.0860 C   0  0  1  0  0  0  0  0  0  0  0  0
   22.1385   -6.6636  -14.1047 C   0  0  0  0  0  0  0  0  0  0  0  0
   22.2631   -5.0029  -13.4250 S   0  0  0  0  0  0  0  0  0  0  0  0
   20.9643   -5.6687  -16.0507 C   0  0  0  0  0  0  0  0  0  0  0  0
   21.7896   -5.6353  -17.0263 O   0  0  0  0  0  0  0  0  0  0  0  0
   18.8693   -2.2365  -18.4952 C   0  0  0  0  0  0  0  0  0  0  0  0
   18.8338   -3.5003  -17.6869 C   0  0  1  0  0  0  0  0  0  0  0  0
   18.9191   -4.6873  -18.6370 C   0  0  0  0  0  0  0  0  0  0  0  0
   20.0459   -3.4956  -16.7463 C   0  0  2  0  0  0  0  0  0  0  0  0
   20.0057   -4.6352  -15.8619 N   0  0  0  0  0  0  0  0  0  0  0  0
   19.9420   -2.2550  -15.9507 C   0  0  0  0  0  0  0  0  0  0  0  0
   20.6181   -1.1319  -16.3861 O   0  0  0  0  0  0  0  0  0  0  0  0
   19.2719   -2.1552  -14.8938 O   0  0  0  0  0  0  0  0  0  0  0  0
  2 10  1  0
  2  1  1  1
  3  2  1  0
  4  3  1  0
  5  4  2  0
  6  5  1  0
  7  8  1  0
  7  6  2  0
  8  9  2  0
  9  4  1  0
 10 11  2  0
 12 10  1  0
 12 13  1  0
 13 14  1  1
 14 15  1  0
 16 17  2  0
 16 13  1  0
 19 18  1  6
 19 20  1  0
 19 21  1  0
 21 22  1  1
 22 16  1  0
 23 24  1  0
 23 21  1  0
 25 23  2  0
M  END
$$$$
