FCV.pdb
     RDKit          3D

 25 25  0  0  1  0  0  0  0  0999 V2000
   28.7086  -21.2539   -8.9793 N   0  0  0  0  0  0  0  0  0  0  0  0
   27.3073  -20.7940   -8.9307 C   0  0  1  0  0  0  0  0  0  0  0  0
   27.2731  -19.4509   -8.2564 C   0  0  0  0  0  0  0  0  0  0  0  0
   27.7077  -19.5733   -6.8542 C   0  0  0  0  0  0  0  0  0  0  0  0
   27.1626  -20.5806   -6.0741 C   0  0  0  0  0  0  0  0  0  0  0  0
   27.5414  -20.7475   -4.7570 C   0  0  0  0  0  0  0  0  0  0  0  0
   28.4748  -19.8789   -4.2567 C   0  0  0  0  0  0  0  0  0  0  0  0
   29.0427  -18.8612   -5.0016 C   0  0  0  0  0  0  0  0  0  0  0  0
   28.6456  -18.7111   -6.3290 C   0  0  0  0  0  0  0  0  0  0  0  0
   26.7242  -20.8018  -10.2910 C   0  0  0  0  0  0  0  0  0  0  0  0
   27.2409  -20.2070  -11.2678 O   0  0  0  0  0  0  0  0  0  0  0  0
   25.5057  -21.5099  -10.5657 N   0  0  0  0  0  0  0  0  0  0  0  0
   24.9318  -21.5697  -11.8821 C   0  0  1  0  0  0  0  0  0  0  0  0
   24.8405  -23.0176  -12.3246 C   0  0  0  0  0  0  0  0  0  0  0  0
   24.3430  -23.1729  -14.0462 S   0  0  0  0  0  0  0  0  0  0  0  0
   23.6084  -20.8986  -11.9404 C   0  0  0  0  0  0  0  0  0  0  0  0
   22.8345  -20.9088  -10.9230 O   0  0  0  0  0  0  0  0  0  0  0  0
   22.7617  -17.6788  -14.3769 C   0  0  0  0  0  0  0  0  0  0  0  0
   21.7745  -18.8038  -14.4845 C   0  0  1  0  0  0  0  0  0  0  0  0
   22.1081  -19.6263  -15.7220 C   0  0  0  0  0  0  0  0  0  0  0  0
   21.9078  -19.6733  -13.2275 C   0  0  2  0  0  0  0  0  0  0  0  0
   23.2283  -20.2499  -13.1477 N   0  0  0  0  0  0  0  0  0  0  0  0
   20.9100  -20.7536  -13.3692 C   0  0  0  0  0  0  0  0  0  0  0  0
   19.6212  -20.5252  -12.9277 O   0  0  0  0  0  0  0  0  0  0  0  0
   21.1609  -21.8771  -13.8701 O   0  0  0  0  0  0  0  0  0  0  0  0
  2 10  1  0
  2  1  1  6
  3  2  1  0
  4  3  1  0
  5  4  2  0
  6  5  1  0
  7  8  1  0
  7  6  2  0
  8  9  2  0
  9  4  1  0
 10 11  2  0
 12 10  1  0
 12 13  1  0
 13 14  1  1
 14 15  1  0
 16 17  2  0
 16 13  1  0
 19 18  1  1
 19 20  1  0
 19 21  1  0
 21 22  1  6
 22 16  1  0
 23 24  1  0
 23 21  1  0
 25 23  2  0
M  END
$$$$
