FCV.pdb
     RDKit          3D

 25 25  0  0  1  0  0  0  0  0999 V2000
   23.1248  -12.8702  -16.3649 N   0  0  0  0  0  0  0  0  0  0  0  0
   23.6274  -11.4847  -16.2922 C   0  0  1  0  0  0  0  0  0  0  0  0
   24.8449  -11.3764  -17.1673 C   0  0  0  0  0  0  0  0  0  0  0  0
   26.0036  -12.0038  -16.5086 C   0  0  0  0  0  0  0  0  0  0  0  0
   26.2299  -13.3564  -16.7070 C   0  0  0  0  0  0  0  0  0  0  0  0
   27.3064  -13.9932  -16.1224 C   0  0  0  0  0  0  0  0  0  0  0  0
   28.1372  -13.2343  -15.3416 C   0  0  0  0  0  0  0  0  0  0  0  0
   27.9465  -11.8826  -15.1186 C   0  0  0  0  0  0  0  0  0  0  0  0
   26.8534  -11.2603  -15.7187 C   0  0  0  0  0  0  0  0  0  0  0  0
   22.5470  -10.5351  -16.6404 C   0  0  0  0  0  0  0  0  0  0  0  0
   21.7452  -10.7179  -17.5885 O   0  0  0  0  0  0  0  0  0  0  0  0
   22.3592   -9.3257  -15.8895 N   0  0  0  0  0  0  0  0  0  0  0  0
   21.3060   -8.3935  -16.1850 C   0  0  1  0  0  0  0  0  0  0  0  0
   19.9647   -9.0550  -15.9323 C   0  0  0  0  0  0  0  0  0  0  0  0
   20.0394  -10.2561  -14.5954 S   0  0  0  0  0  0  0  0  0  0  0  0
   21.4465   -7.1350  -15.4095 C   0  0  0  0  0  0  0  0  0  0  0  0
   21.9247   -7.1575  -14.2242 O   0  0  0  0  0  0  0  0  0  0  0  0
   22.0736   -2.3444  -15.5976 C   0  0  0  0  0  0  0  0  0  0  0  0
   21.7630   -3.6015  -16.3559 C   0  0  1  0  0  0  0  0  0  0  0  0
   23.0155   -4.0406  -17.1024 C   0  0  0  0  0  0  0  0  0  0  0  0
   21.3544   -4.6779  -15.3420 C   0  0  2  0  0  0  0  0  0  0  0  0
   21.0383   -5.9146  -16.0152 N   0  0  0  0  0  0  0  0  0  0  0  0
   20.1446   -4.1658  -14.6662 C   0  0  0  0  0  0  0  0  0  0  0  0
   18.9074   -4.5644  -15.1338 O   0  0  0  0  0  0  0  0  0  0  0  0
   20.1690   -3.3838  -13.6844 O   0  0  0  0  0  0  0  0  0  0  0  0
  2 10  1  0
  2  1  1  6
  3  2  1  0
  4  3  1  0
  5  4  2  0
  6  5  1  0
  7  8  1  0
  7  6  2  0
  8  9  2  0
  9  4  1  0
 10 11  2  0
 12 10  1  0
 12 13  1  0
 13 14  1  1
 14 15  1  0
 16 17  2  0
 16 13  1  0
 19 18  1  1
 19 20  1  0
 19 21  1  0
 21 22  1  6
 22 16  1  0
 23 24  1  0
 23 21  1  0
 25 23  2  0
M  END
$$$$
