FCV.pdb
     RDKit          3D

 25 25  0  0  1  0  0  0  0  0999 V2000
   28.4464  -21.1784   -9.1622 N   0  0  0  0  0  0  0  0  0  0  0  0
   27.0674  -20.6706   -9.0280 C   0  0  1  0  0  0  0  0  0  0  0  0
   27.1067  -19.4013   -8.2237 C   0  0  0  0  0  0  0  0  0  0  0  0
   27.6984  -19.6554   -6.8988 C   0  0  0  0  0  0  0  0  0  0  0  0
   28.9367  -19.1062   -6.6068 C   0  0  0  0  0  0  0  0  0  0  0  0
   29.5330  -19.3036   -5.3772 C   0  0  0  0  0  0  0  0  0  0  0  0
   28.8513  -20.0620   -4.4628 C   0  0  0  0  0  0  0  0  0  0  0  0
   27.6144  -20.6273   -4.7149 C   0  0  0  0  0  0  0  0  0  0  0  0
   27.0311  -20.4151   -5.9626 C   0  0  0  0  0  0  0  0  0  0  0  0
   26.4509  -20.5196  -10.3650 C   0  0  0  0  0  0  0  0  0  0  0  0
   26.8057  -19.6477  -11.1951 O   0  0  0  0  0  0  0  0  0  0  0  0
   25.3881  -21.3874  -10.7881 N   0  0  0  0  0  0  0  0  0  0  0  0
   24.7837  -21.2847  -12.0881 C   0  0  1  0  0  0  0  0  0  0  0  0
   24.9998  -22.5806  -12.8459 C   0  0  0  0  0  0  0  0  0  0  0  0
   26.6855  -22.7414  -13.4524 S   0  0  0  0  0  0  0  0  0  0  0  0
   23.3422  -20.9383  -12.0029 C   0  0  0  0  0  0  0  0  0  0  0  0
   22.6622  -21.2566  -10.9683 O   0  0  0  0  0  0  0  0  0  0  0  0
   21.3076  -19.0701  -15.2994 C   0  0  0  0  0  0  0  0  0  0  0  0
   21.0826  -18.6329  -13.8817 C   0  0  1  0  0  0  0  0  0  0  0  0
   19.6303  -18.2001  -13.7314 C   0  0  0  0  0  0  0  0  0  0  0  0
   21.3687  -19.8298  -12.9655 C   0  0  2  0  0  0  0  0  0  0  0  0
   22.7436  -20.2489  -13.0934 N   0  0  0  0  0  0  0  0  0  0  0  0
   20.4809  -20.9180  -13.4241 C   0  0  0  0  0  0  0  0  0  0  0  0
   19.1816  -20.9527  -12.9561 O   0  0  0  0  0  0  0  0  0  0  0  0
   20.8350  -21.8222  -14.2197 O   0  0  0  0  0  0  0  0  0  0  0  0
  2 10  1  0
  2  1  1  6
  3  2  1  0
  4  3  1  0
  5  4  2  0
  6  5  1  0
  7  8  1  0
  7  6  2  0
  8  9  2  0
  9  4  1  0
 10 11  2  0
 12 10  1  0
 12 13  1  0
 13 14  1  1
 14 15  1  0
 16 17  2  0
 16 13  1  0
 19 18  1  6
 19 20  1  0
 19 21  1  0
 21 22  1  6
 22 16  1  0
 23 24  1  0
 23 21  1  0
 25 23  2  0
M  END
$$$$
