FCV.pdb
     RDKit          3D

 25 25  0  0  1  0  0  0  0  0999 V2000
   26.8573  -17.7804  -17.4097 N   0  0  0  0  0  0  0  0  0  0  0  0
   27.0224  -17.4994  -15.9704 C   0  0  1  0  0  0  0  0  0  0  0  0
   25.9167  -16.5772  -15.5385 C   0  0  0  0  0  0  0  0  0  0  0  0
   26.1567  -15.2177  -16.0525 C   0  0  0  0  0  0  0  0  0  0  0  0
   25.4045  -14.7701  -17.1268 C   0  0  0  0  0  0  0  0  0  0  0  0
   25.5806  -13.5014  -17.6422 C   0  0  0  0  0  0  0  0  0  0  0  0
   26.5263  -12.7079  -17.0489 C   0  0  0  0  0  0  0  0  0  0  0  0
   27.2972  -13.1166  -15.9757 C   0  0  0  0  0  0  0  0  0  0  0  0
   27.1027  -14.4012  -15.4716 C   0  0  0  0  0  0  0  0  0  0  0  0
   27.0824  -18.7679  -15.2104 C   0  0  0  0  0  0  0  0  0  0  0  0
   26.2158  -19.6709  -15.3034 O   0  0  0  0  0  0  0  0  0  0  0  0
   28.1649  -19.0334  -14.3052 N   0  0  0  0  0  0  0  0  0  0  0  0
   28.0851  -20.0454  -13.2877 C   0  0  1  0  0  0  0  0  0  0  0  0
   29.4084  -20.1214  -12.5504 C   0  0  0  0  0  0  0  0  0  0  0  0
   29.3458  -21.2547  -11.1550 S   0  0  0  0  0  0  0  0  0  0  0  0
   26.9555  -19.8047  -12.3544 C   0  0  0  0  0  0  0  0  0  0  0  0
   26.7361  -18.6317  -11.8960 O   0  0  0  0  0  0  0  0  0  0  0  0
   22.6790  -20.9063  -10.5473 C   0  0  0  0  0  0  0  0  0  0  0  0
   23.7291  -21.1552  -11.5899 C   0  0  1  0  0  0  0  0  0  0  0  0
   23.3737  -20.3578  -12.8376 C   0  0  0  0  0  0  0  0  0  0  0  0
   25.0754  -20.6776  -11.0303 C   0  0  2  0  0  0  0  0  0  0  0  0
   26.1314  -20.9042  -11.9873 N   0  0  0  0  0  0  0  0  0  0  0  0
   25.3277  -21.4894   -9.8220 C   0  0  0  0  0  0  0  0  0  0  0  0
   25.1478  -20.9049   -8.5834 O   0  0  0  0  0  0  0  0  0  0  0  0
   25.6990  -22.6884   -9.8490 O   0  0  0  0  0  0  0  0  0  0  0  0
  2 10  1  0
  2  1  1  6
  3  2  1  0
  4  3  1  0
  5  4  2  0
  6  5  1  0
  7  8  1  0
  7  6  2  0
  8  9  2  0
  9  4  1  0
 10 11  2  0
 12 10  1  0
 12 13  1  0
 13 14  1  1
 14 15  1  0
 16 17  2  0
 16 13  1  0
 19 18  1  1
 19 20  1  0
 19 21  1  0
 21 22  1  6
 22 16  1  0
 23 24  1  0
 23 21  1  0
 25 23  2  0
M  END
$$$$
