FCV.pdb
     RDKit          3D

 25 25  0  0  1  0  0  0  0  0999 V2000
   25.1298  -21.1187   -7.8832 N   0  0  0  0  0  0  0  0  0  0  0  0
   25.9542  -20.3932   -8.8688 C   0  0  1  0  0  0  0  0  0  0  0  0
   27.4009  -20.6823   -8.5801 C   0  0  0  0  0  0  0  0  0  0  0  0
   27.8173  -20.0087   -7.3380 C   0  0  0  0  0  0  0  0  0  0  0  0
   27.6952  -18.6308   -7.2552 C   0  0  0  0  0  0  0  0  0  0  0  0
   28.0606  -17.9493   -6.1114 C   0  0  0  0  0  0  0  0  0  0  0  0
   28.5466  -18.6900   -5.0668 C   0  0  0  0  0  0  0  0  0  0  0  0
   28.6839  -20.0657   -5.1093 C   0  0  0  0  0  0  0  0  0  0  0  0
   28.3090  -20.7330   -6.2738 C   0  0  0  0  0  0  0  0  0  0  0  0
   25.5301  -20.7466  -10.2420 C   0  0  0  0  0  0  0  0  0  0  0  0
   25.1737  -21.9016  -10.5795 O   0  0  0  0  0  0  0  0  0  0  0  0
   25.5054  -19.7575  -11.2825 N   0  0  0  0  0  0  0  0  0  0  0  0
   24.9202  -20.0116  -12.5704 C   0  0  1  0  0  0  0  0  0  0  0  0
   23.4627  -20.3924  -12.3931 C   0  0  0  0  0  0  0  0  0  0  0  0
   22.5995  -20.5310  -13.9651 S   0  0  0  0  0  0  0  0  0  0  0  0
   25.0719  -18.8525  -13.4862 C   0  0  0  0  0  0  0  0  0  0  0  0
   24.5530  -17.7228  -13.1885 O   0  0  0  0  0  0  0  0  0  0  0  0
   28.3589  -17.6651  -14.7289 C   0  0  0  0  0  0  0  0  0  0  0  0
   27.5152  -17.8242  -15.9596 C   0  0  1  0  0  0  0  0  0  0  0  0
   27.8989  -19.1279  -16.6465 C   0  0  0  0  0  0  0  0  0  0  0  0
   26.0453  -17.8761  -15.5232 C   0  0  2  0  0  0  0  0  0  0  0  0
   25.8036  -19.0312  -14.6926 N   0  0  0  0  0  0  0  0  0  0  0  0
   25.2534  -17.9921  -16.7650 C   0  0  0  0  0  0  0  0  0  0  0  0
   24.6837  -19.2119  -17.0742 O   0  0  0  0  0  0  0  0  0  0  0  0
   25.0631  -17.0436  -17.5652 O   0  0  0  0  0  0  0  0  0  0  0  0
  2 10  1  0
  2  1  1  1
  3  2  1  0
  4  3  1  0
  5  4  2  0
  6  5  1  0
  7  8  1  0
  7  6  2  0
  8  9  2  0
  9  4  1  0
 10 11  2  0
 12 10  1  0
 12 13  1  0
 13 14  1  1
 14 15  1  0
 16 17  2  0
 16 13  1  0
 19 18  1  1
 19 20  1  0
 19 21  1  0
 21 22  1  1
 22 16  1  0
 23 24  1  0
 23 21  1  0
 25 23  2  0
M  END
$$$$
