FCV.pdb
     RDKit          3D

 25 25  0  0  1  0  0  0  0  0999 V2000
   28.0889  -19.4727  -15.9772 N   0  0  0  0  0  0  0  0  0  0  0  0
   27.2173  -18.8688  -14.9510 C   0  0  1  0  0  0  0  0  0  0  0  0
   26.2979  -17.8903  -15.6271 C   0  0  0  0  0  0  0  0  0  0  0  0
   27.0258  -16.6538  -15.9607 C   0  0  0  0  0  0  0  0  0  0  0  0
   27.2491  -15.7224  -14.9592 C   0  0  0  0  0  0  0  0  0  0  0  0
   27.9345  -14.5513  -15.2136 C   0  0  0  0  0  0  0  0  0  0  0  0
   28.3822  -14.3503  -16.4924 C   0  0  0  0  0  0  0  0  0  0  0  0
   28.1801  -15.2543  -17.5196 C   0  0  0  0  0  0  0  0  0  0  0  0
   27.4858  -16.4298  -17.2402 C   0  0  0  0  0  0  0  0  0  0  0  0
   26.5177  -19.9298  -14.1925 C   0  0  0  0  0  0  0  0  0  0  0  0
   26.0160  -20.9470  -14.7298 O   0  0  0  0  0  0  0  0  0  0  0  0
   26.3757  -19.8438  -12.7663 N   0  0  0  0  0  0  0  0  0  0  0  0
   25.4783  -20.6922  -12.0310 C   0  0  1  0  0  0  0  0  0  0  0  0
   25.7876  -20.5860  -10.5499 C   0  0  0  0  0  0  0  0  0  0  0  0
   24.6137  -21.5033   -9.5420 S   0  0  0  0  0  0  0  0  0  0  0  0
   24.0562  -20.3716  -12.3140 C   0  0  0  0  0  0  0  0  0  0  0  0
   23.6362  -19.1676  -12.2245 O   0  0  0  0  0  0  0  0  0  0  0  0
   22.1120  -21.2658  -15.3796 C   0  0  0  0  0  0  0  0  0  0  0  0
   21.3216  -21.8144  -14.2280 C   0  0  1  0  0  0  0  0  0  0  0  0
   21.5833  -23.3113  -14.1285 C   0  0  0  0  0  0  0  0  0  0  0  0
   21.7990  -21.1142  -12.9492 C   0  0  2  0  0  0  0  0  0  0  0  0
   23.1818  -21.4305  -12.6839 N   0  0  0  0  0  0  0  0  0  0  0  0
   20.9579  -21.6418  -11.8551 C   0  0  0  0  0  0  0  0  0  0  0  0
   19.6894  -21.1215  -11.6867 O   0  0  0  0  0  0  0  0  0  0  0  0
   21.3258  -22.5416  -11.0607 O   0  0  0  0  0  0  0  0  0  0  0  0
  2 10  1  0
  2  1  1  6
  3  2  1  0
  4  3  1  0
  5  4  2  0
  6  5  1  0
  7  8  1  0
  7  6  2  0
  8  9  2  0
  9  4  1  0
 10 11  2  0
 12 10  1  0
 12 13  1  0
 13 14  1  1
 14 15  1  0
 16 17  2  0
 16 13  1  0
 19 18  1  6
 19 20  1  0
 19 21  1  0
 21 22  1  1
 22 16  1  0
 23 24  1  0
 23 21  1  0
 25 23  2  0
M  END
$$$$
