FCV.pdb
     RDKit          3D

 25 25  0  0  1  0  0  0  0  0999 V2000
   27.5901  -20.6068  -15.0369 N   0  0  0  0  0  0  0  0  0  0  0  0
   27.0530  -19.8259  -13.9059 C   0  0  1  0  0  0  0  0  0  0  0  0
   26.1272  -18.7757  -14.4532 C   0  0  0  0  0  0  0  0  0  0  0  0
   26.8673  -17.8487  -15.3266 C   0  0  0  0  0  0  0  0  0  0  0  0
   26.9787  -18.1504  -16.6746 C   0  0  0  0  0  0  0  0  0  0  0  0
   27.6522  -17.3119  -17.5403 C   0  0  0  0  0  0  0  0  0  0  0  0
   28.2030  -16.1745  -17.0123 C   0  0  0  0  0  0  0  0  0  0  0  0
   28.1143  -15.8373  -15.6738 C   0  0  0  0  0  0  0  0  0  0  0  0
   27.4298  -16.6982  -14.8180 C   0  0  0  0  0  0  0  0  0  0  0  0
   26.4232  -20.7314  -12.9190 C   0  0  0  0  0  0  0  0  0  0  0  0
   25.8782  -21.8188  -13.2282 O   0  0  0  0  0  0  0  0  0  0  0  0
   26.4049  -20.3998  -11.5221 N   0  0  0  0  0  0  0  0  0  0  0  0
   25.4842  -21.0067  -10.6003 C   0  0  1  0  0  0  0  0  0  0  0  0
   25.9749  -20.7858   -9.1822 C   0  0  0  0  0  0  0  0  0  0  0  0
   25.7918  -19.0751   -8.6574 S   0  0  0  0  0  0  0  0  0  0  0  0
   24.1013  -20.4975  -10.7828 C   0  0  0  0  0  0  0  0  0  0  0  0
   23.8986  -19.3687  -11.3474 O   0  0  0  0  0  0  0  0  0  0  0  0
   22.4577  -20.3694  -12.9315 C   0  0  0  0  0  0  0  0  0  0  0  0
   21.4131  -21.1182  -12.1570 C   0  0  1  0  0  0  0  0  0  0  0  0
   21.5349  -22.6004  -12.4842 C   0  0  0  0  0  0  0  0  0  0  0  0
   21.6760  -20.8894  -10.6629 C   0  0  2  0  0  0  0  0  0  0  0  0
   23.0178  -21.2922  -10.3167 N   0  0  0  0  0  0  0  0  0  0  0  0
   20.7081  -21.7414   -9.9417 C   0  0  0  0  0  0  0  0  0  0  0  0
   21.1872  -22.8008   -9.1959 O   0  0  0  0  0  0  0  0  0  0  0  0
   19.4657  -21.5624   -9.9634 O   0  0  0  0  0  0  0  0  0  0  0  0
  2 10  1  0
  2  1  1  6
  3  2  1  0
  4  3  1  0
  5  4  2  0
  6  5  1  0
  7  8  1  0
  7  6  2  0
  8  9  2  0
  9  4  1  0
 10 11  2  0
 12 10  1  0
 12 13  1  0
 13 14  1  1
 14 15  1  0
 16 17  2  0
 16 13  1  0
 19 18  1  6
 19 20  1  0
 19 21  1  0
 21 22  1  6
 22 16  1  0
 23 24  1  0
 23 21  1  0
 25 23  2  0
M  END
$$$$
