FCV.pdb
     RDKit          3D

 25 25  0  0  1  0  0  0  0  0999 V2000
   22.5430  -10.6903  -16.5295 N   0  0  0  0  0  0  0  0  0  0  0  0
   22.1485   -9.4822  -15.7794 C   0  0  1  0  0  0  0  0  0  0  0  0
   23.3621   -8.9474  -15.0716 C   0  0  0  0  0  0  0  0  0  0  0  0
   23.0258   -7.7090  -14.3482 C   0  0  0  0  0  0  0  0  0  0  0  0
   22.4866   -7.8074  -13.0755 C   0  0  0  0  0  0  0  0  0  0  0  0
   22.1626   -6.6793  -12.3484 C   0  0  0  0  0  0  0  0  0  0  0  0
   22.3958   -5.4644  -12.9363 C   0  0  0  0  0  0  0  0  0  0  0  0
   22.9321   -5.3233  -14.2034 C   0  0  0  0  0  0  0  0  0  0  0  0
   23.2517   -6.4754  -14.9193 C   0  0  0  0  0  0  0  0  0  0  0  0
   21.5023   -8.5099  -16.6890 C   0  0  0  0  0  0  0  0  0  0  0  0
   21.8441   -8.3507  -17.8861 O   0  0  0  0  0  0  0  0  0  0  0  0
   20.4238   -7.6792  -16.2328 N   0  0  0  0  0  0  0  0  0  0  0  0
   19.7590   -6.7408  -17.0949 C   0  0  1  0  0  0  0  0  0  0  0  0
   18.4309   -7.3224  -17.5406 C   0  0  0  0  0  0  0  0  0  0  0  0
   17.4490   -6.1395  -18.4744 S   0  0  0  0  0  0  0  0  0  0  0  0
   19.5822   -5.4185  -16.4428 C   0  0  0  0  0  0  0  0  0  0  0  0
   19.3636   -5.3432  -15.1856 O   0  0  0  0  0  0  0  0  0  0  0  0
   21.8435   -2.3396  -17.3344 C   0  0  0  0  0  0  0  0  0  0  0  0
   20.9769   -2.5171  -16.1223 C   0  0  1  0  0  0  0  0  0  0  0  0
   20.8746   -1.1813  -15.3984 C   0  0  0  0  0  0  0  0  0  0  0  0
   19.5871   -2.9635  -16.5944 C   0  0  2  0  0  0  0  0  0  0  0  0
   19.6619   -4.2483  -17.2472 N   0  0  0  0  0  0  0  0  0  0  0  0
   19.1387   -1.9459  -17.5672 C   0  0  0  0  0  0  0  0  0  0  0  0
   18.7784   -0.6973  -17.0989 O   0  0  0  0  0  0  0  0  0  0  0  0
   19.0634   -2.1452  -18.8044 O   0  0  0  0  0  0  0  0  0  0  0  0
  2 10  1  0
  2  1  1  6
  3  2  1  0
  4  3  1  0
  5  4  2  0
  6  5  1  0
  7  8  1  0
  7  6  2  0
  8  9  2  0
  9  4  1  0
 10 11  2  0
 12 10  1  0
 12 13  1  0
 13 14  1  1
 14 15  1  0
 16 17  2  0
 16 13  1  0
 19 18  1  6
 19 20  1  0
 19 21  1  0
 21 22  1  6
 22 16  1  0
 23 24  1  0
 23 21  1  0
 25 23  2  0
M  END
$$$$
