FCV.pdb
     RDKit          3D

 25 25  0  0  1  0  0  0  0  0999 V2000
   22.3524  -12.3450  -17.7782 N   0  0  0  0  0  0  0  0  0  0  0  0
   21.4499  -11.7228  -16.7903 C   0  0  1  0  0  0  0  0  0  0  0  0
   22.0326  -11.9307  -15.4203 C   0  0  0  0  0  0  0  0  0  0  0  0
   22.1074  -13.3691  -15.1110 C   0  0  0  0  0  0  0  0  0  0  0  0
   20.9370  -14.1110  -15.1095 C   0  0  0  0  0  0  0  0  0  0  0  0
   20.9503  -15.4644  -14.8367 C   0  0  0  0  0  0  0  0  0  0  0  0
   22.1641  -16.0395  -14.5688 C   0  0  0  0  0  0  0  0  0  0  0  0
   23.3542  -15.3346  -14.5604 C   0  0  0  0  0  0  0  0  0  0  0  0
   23.3173  -13.9696  -14.8385 C   0  0  0  0  0  0  0  0  0  0  0  0
   21.2186  -10.3033  -17.1392 C   0  0  0  0  0  0  0  0  0  0  0  0
   22.0630   -9.5917  -17.7356 O   0  0  0  0  0  0  0  0  0  0  0  0
   19.9828   -9.6543  -16.8026 N   0  0  0  0  0  0  0  0  0  0  0  0
   19.7008   -8.2961  -17.1791 C   0  0  1  0  0  0  0  0  0  0  0  0
   18.4303   -8.2581  -18.0067 C   0  0  0  0  0  0  0  0  0  0  0  0
   17.9338   -6.5781  -18.4145 S   0  0  0  0  0  0  0  0  0  0  0  0
   19.6070   -7.4019  -15.9972 C   0  0  0  0  0  0  0  0  0  0  0  0
   18.9892   -7.7851  -14.9457 O   0  0  0  0  0  0  0  0  0  0  0  0
   21.4907   -4.0006  -13.2588 C   0  0  0  0  0  0  0  0  0  0  0  0
   21.5993   -4.9188  -14.4407 C   0  0  1  0  0  0  0  0  0  0  0  0
   22.3425   -6.1768  -14.0118 C   0  0  0  0  0  0  0  0  0  0  0  0
   20.1783   -5.2798  -14.8926 C   0  0  2  0  0  0  0  0  0  0  0  0
   20.2173   -6.1191  -16.0659 N   0  0  0  0  0  0  0  0  0  0  0  0
   19.5180   -4.0013  -15.2276 C   0  0  0  0  0  0  0  0  0  0  0  0
   19.2932   -3.7018  -16.5572 O   0  0  0  0  0  0  0  0  0  0  0  0
   19.1443   -3.1612  -14.3727 O   0  0  0  0  0  0  0  0  0  0  0  0
  2 10  1  0
  2  1  1  6
  3  2  1  0
  4  3  1  0
  5  4  2  0
  6  5  1  0
  7  8  1  0
  7  6  2  0
  8  9  2  0
  9  4  1  0
 10 11  2  0
 12 10  1  0
 12 13  1  0
 13 14  1  1
 14 15  1  0
 16 17  2  0
 16 13  1  0
 19 18  1  1
 19 20  1  0
 19 21  1  0
 21 22  1  6
 22 16  1  0
 23 24  1  0
 23 21  1  0
 25 23  2  0
M  END
$$$$
