FCV.pdb
     RDKit          3D

 25 25  0  0  1  0  0  0  0  0999 V2000
   27.9920  -20.5222  -15.5076 N   0  0  0  0  0  0  0  0  0  0  0  0
   27.1720  -19.7757  -14.5340 C   0  0  1  0  0  0  0  0  0  0  0  0
   26.3158  -18.7970  -15.2882 C   0  0  0  0  0  0  0  0  0  0  0  0
   27.1351  -17.6756  -15.7793 C   0  0  0  0  0  0  0  0  0  0  0  0
   27.3962  -16.6176  -14.9233 C   0  0  0  0  0  0  0  0  0  0  0  0
   28.1667  -15.5457  -15.3278 C   0  0  0  0  0  0  0  0  0  0  0  0
   28.6596  -15.5728  -16.6054 C   0  0  0  0  0  0  0  0  0  0  0  0
   28.4222  -16.6091  -17.4902 C   0  0  0  0  0  0  0  0  0  0  0  0
   27.6419  -17.6809  -17.0607 C   0  0  0  0  0  0  0  0  0  0  0  0
   26.4083  -20.7186  -13.6866 C   0  0  0  0  0  0  0  0  0  0  0  0
   25.9031  -21.7828  -14.1193 O   0  0  0  0  0  0  0  0  0  0  0  0
   26.2032  -20.4535  -12.2905 N   0  0  0  0  0  0  0  0  0  0  0  0
   25.0932  -21.0007  -11.5595 C   0  0  1  0  0  0  0  0  0  0  0  0
   25.2430  -20.6590  -10.0893 C   0  0  0  0  0  0  0  0  0  0  0  0
   26.8618  -21.1098   -9.4474 S   0  0  0  0  0  0  0  0  0  0  0  0
   23.7908  -20.5316  -12.0969 C   0  0  0  0  0  0  0  0  0  0  0  0
   23.6604  -19.3308  -12.5155 O   0  0  0  0  0  0  0  0  0  0  0  0
   22.5766  -20.8462  -14.9568 C   0  0  0  0  0  0  0  0  0  0  0  0
   21.4373  -21.4967  -14.2284 C   0  0  1  0  0  0  0  0  0  0  0  0
   21.6200  -23.0072  -14.2907 C   0  0  0  0  0  0  0  0  0  0  0  0
   21.4768  -21.0251  -12.7690 C   0  0  2  0  0  0  0  0  0  0  0  0
   22.7020  -21.4459  -12.1332 N   0  0  0  0  0  0  0  0  0  0  0  0
   20.3304  -21.6723  -12.0984 C   0  0  0  0  0  0  0  0  0  0  0  0
   19.0651  -21.1600  -12.3106 O   0  0  0  0  0  0  0  0  0  0  0  0
   20.4334  -22.6680  -11.3407 O   0  0  0  0  0  0  0  0  0  0  0  0
  2 10  1  0
  2  1  1  6
  3  2  1  0
  4  3  1  0
  5  4  2  0
  6  5  1  0
  7  8  1  0
  7  6  2  0
  8  9  2  0
  9  4  1  0
 10 11  2  0
 12 10  1  0
 12 13  1  0
 13 14  1  1
 14 15  1  0
 16 17  2  0
 16 13  1  0
 19 18  1  6
 19 20  1  0
 19 21  1  0
 21 22  1  1
 22 16  1  0
 23 24  1  0
 23 21  1  0
 25 23  2  0
M  END
$$$$
