FCV.pdb
     RDKit          3D

 25 25  0  0  1  0  0  0  0  0999 V2000
   28.5041  -20.1616  -15.7810 N   0  0  0  0  0  0  0  0  0  0  0  0
   27.6416  -19.4899  -14.7899 C   0  0  1  0  0  0  0  0  0  0  0  0
   26.6754  -18.6045  -15.5262 C   0  0  0  0  0  0  0  0  0  0  0  0
   27.3397  -17.3554  -15.9366 C   0  0  0  0  0  0  0  0  0  0  0  0
   27.8191  -17.2515  -17.2326 C   0  0  0  0  0  0  0  0  0  0  0  0
   28.4407  -16.1002  -17.6736 C   0  0  0  0  0  0  0  0  0  0  0  0
   28.5625  -15.0700  -16.7794 C   0  0  0  0  0  0  0  0  0  0  0  0
   28.0978  -15.1336  -15.4781 C   0  0  0  0  0  0  0  0  0  0  0  0
   27.4737  -16.3053  -15.0544 C   0  0  0  0  0  0  0  0  0  0  0  0
   26.9950  -20.4952  -13.9172 C   0  0  0  0  0  0  0  0  0  0  0  0
   26.4963  -21.5641  -14.3461 O   0  0  0  0  0  0  0  0  0  0  0  0
   26.9048  -20.2901  -12.4990 N   0  0  0  0  0  0  0  0  0  0  0  0
   25.8792  -20.9005  -11.6981 C   0  0  1  0  0  0  0  0  0  0  0  0
   26.1307  -20.5860  -10.2357 C   0  0  0  0  0  0  0  0  0  0  0  0
   24.7273  -21.0163   -9.1960 S   0  0  0  0  0  0  0  0  0  0  0  0
   24.5204  -20.4753  -12.1200 C   0  0  0  0  0  0  0  0  0  0  0  0
   24.2620  -19.2382  -12.3118 O   0  0  0  0  0  0  0  0  0  0  0  0
   22.1261  -23.0677  -14.2517 C   0  0  0  0  0  0  0  0  0  0  0  0
   22.0701  -21.5683  -14.2710 C   0  0  1  0  0  0  0  0  0  0  0  0
   20.7120  -21.1398  -14.8104 C   0  0  0  0  0  0  0  0  0  0  0  0
   22.2417  -21.0690  -12.8305 C   0  0  2  0  0  0  0  0  0  0  0  0
   23.5230  -21.4724  -12.3033 N   0  0  0  0  0  0  0  0  0  0  0  0
   21.1662  -21.7082  -12.0448 C   0  0  0  0  0  0  0  0  0  0  0  0
   19.9956  -21.0060  -11.8329 O   0  0  0  0  0  0  0  0  0  0  0  0
   21.2487  -22.8600  -11.5523 O   0  0  0  0  0  0  0  0  0  0  0  0
  2 10  1  0
  2  1  1  6
  3  2  1  0
  4  3  1  0
  5  4  2  0
  6  5  1  0
  7  8  1  0
  7  6  2  0
  8  9  2  0
  9  4  1  0
 10 11  2  0
 12 10  1  0
 12 13  1  0
 13 14  1  1
 14 15  1  0
 16 17  2  0
 16 13  1  0
 19 18  1  1
 19 20  1  0
 19 21  1  0
 21 22  1  1
 22 16  1  0
 23 24  1  0
 23 21  1  0
 25 23  2  0
M  END
$$$$
