LAK.pdb
     RDKit          3D

 23 22  0  0  1  0  0  0  0  0999 V2000
   18.6989  -12.9479  -19.4518 C   0  0  0  0  0  0  0  0  0  0  0  0
   19.2187  -13.8715  -18.3937 C   0  0  2  0  0  0  0  0  0  0  0  0
   18.3189  -15.0502  -18.1267 C   0  0  0  0  0  0  0  0  0  0  0  0
   19.4851  -13.0614  -17.1435 C   0  0  0  0  0  0  0  0  0  0  0  0
   20.5509  -12.0404  -17.4770 C   0  0  2  0  0  0  0  0  0  0  0  0
   21.7268  -12.7201  -17.9541 N   0  0  0  0  0  0  0  0  0  0  0  0
   20.8617  -11.1861  -16.2843 C   0  0  0  0  0  0  0  0  0  0  0  0
   19.9623  -10.6225  -15.6224 O   0  0  0  0  0  0  0  0  0  0  0  0
   24.1518  -10.2969  -14.5719 C   0  0  0  0  0  0  0  0  0  0  0  0
   22.6650  -10.1314  -14.8754 C   0  0  2  0  0  0  0  0  0  0  0  0
   22.2167  -11.0160  -15.9002 N   0  0  0  0  0  0  0  0  0  0  0  0
   22.4710   -8.6940  -15.2369 C   0  0  0  0  0  0  0  0  0  0  0  0
   22.6893   -8.3175  -16.4170 O   0  0  0  0  0  0  0  0  0  0  0  0
   22.0498   -7.7232  -14.3110 N   0  0  0  0  0  0  0  0  0  0  0  0
   21.8395   -6.3235  -14.6271 C   0  0  1  0  0  0  0  0  0  0  0  0
   20.3763   -6.1627  -14.9356 C   0  0  0  0  0  0  0  0  0  0  0  0
   19.9815   -6.5075  -16.3181 C   0  0  0  0  0  0  0  0  0  0  0  0
   18.5442   -6.4067  -16.6688 C   0  0  0  0  0  0  0  0  0  0  0  0
   18.1814   -6.8617  -18.0555 C   0  0  0  0  0  0  0  0  0  0  0  0
   16.7591   -6.8397  -18.3043 N   0  0  0  0  0  0  0  0  0  0  0  0
   22.2952   -5.5164  -13.4984 C   0  0  0  0  0  0  0  0  0  0  0  0
   22.6218   -4.1693  -13.5787 O   0  0  0  0  0  0  0  0  0  0  0  0
   22.4128   -6.0382  -12.3620 O   0  0  0  0  0  0  0  0  0  0  0  0
  2  1  1  6
  2  3  1  0
  4  2  1  0
  5  4  1  0
  5  7  1  0
  5  6  1  1
  7  8  2  0
  7 11  1  0
 10  9  1  6
 11 10  1  0
 12 10  1  0
 12 14  1  0
 13 12  2  0
 15 14  1  0
 15 21  1  0
 15 16  1  1
 17 18  1  0
 17 16  1  0
 19 18  1  0
 20 19  1  0
 21 22  1  0
 23 21  2  0
M  END
$$$$
