LAK.pdb
     RDKit          3D

 23 22  0  0  1  0  0  0  0  0999 V2000
   25.1118  -16.3308  -17.0727 C   0  0  0  0  0  0  0  0  0  0  0  0
   26.4711  -16.8464  -16.7133 C   0  0  2  0  0  0  0  0  0  0  0  0
   27.5314  -16.5125  -17.7303 C   0  0  0  0  0  0  0  0  0  0  0  0
   26.3654  -18.3358  -16.4662 C   0  0  0  0  0  0  0  0  0  0  0  0
   25.3185  -18.5498  -15.3948 C   0  0  2  0  0  0  0  0  0  0  0  0
   25.6677  -17.7803  -14.2293 N   0  0  0  0  0  0  0  0  0  0  0  0
   25.1838  -20.0066  -15.0655 C   0  0  0  0  0  0  0  0  0  0  0  0
   24.9581  -20.8654  -15.9464 O   0  0  0  0  0  0  0  0  0  0  0  0
   25.5686  -21.9383  -11.8040 C   0  0  0  0  0  0  0  0  0  0  0  0
   25.0980  -21.7449  -13.2432 C   0  0  2  0  0  0  0  0  0  0  0  0
   25.3173  -20.4167  -13.7140 N   0  0  0  0  0  0  0  0  0  0  0  0
   23.6530  -22.1267  -13.2641 C   0  0  0  0  0  0  0  0  0  0  0  0
   23.3159  -23.2926  -12.9339 O   0  0  0  0  0  0  0  0  0  0  0  0
   22.6323  -21.2356  -13.6403 N   0  0  0  0  0  0  0  0  0  0  0  0
   21.2361  -21.6000  -13.7851 C   0  0  1  0  0  0  0  0  0  0  0  0
   20.7551  -22.0268  -12.4256 C   0  0  0  0  0  0  0  0  0  0  0  0
   19.3167  -22.3587  -12.3409 C   0  0  0  0  0  0  0  0  0  0  0  0
   18.8110  -22.9061  -11.0588 C   0  0  0  0  0  0  0  0  0  0  0  0
   17.3977  -23.4192  -11.0850 C   0  0  0  0  0  0  0  0  0  0  0  0
   16.9941  -24.0297   -9.8401 N   0  0  0  0  0  0  0  0  0  0  0  0
   20.5101  -20.4580  -14.3346 C   0  0  0  0  0  0  0  0  0  0  0  0
   20.9023  -19.1344  -14.1864 O   0  0  0  0  0  0  0  0  0  0  0  0
   19.4558  -20.6431  -14.9915 O   0  0  0  0  0  0  0  0  0  0  0  0
  2  1  1  6
  2  3  1  0
  4  2  1  0
  5  4  1  0
  5  7  1  0
  5  6  1  1
  7  8  2  0
  7 11  1  0
 10  9  1  1
 11 10  1  0
 12 10  1  0
 12 14  1  0
 13 12  2  0
 15 14  1  0
 15 21  1  0
 15 16  1  1
 17 18  1  0
 17 16  1  0
 19 18  1  0
 20 19  1  0
 21 22  1  0
 23 21  2  0
M  END
$$$$
