LAK.pdb
     RDKit          3D

 23 22  0  0  1  0  0  0  0  0999 V2000
   26.5538  -19.6208   -7.3916 C   0  0  0  0  0  0  0  0  0  0  0  0
   27.4194  -20.5560   -8.1782 C   0  0  2  0  0  0  0  0  0  0  0  0
   28.7753  -20.7851   -7.5625 C   0  0  0  0  0  0  0  0  0  0  0  0
   27.5164  -20.0361   -9.5962 C   0  0  0  0  0  0  0  0  0  0  0  0
   27.5563  -21.2326  -10.5217 C   0  0  2  0  0  0  0  0  0  0  0  0
   28.8941  -21.3974  -11.0273 N   0  0  0  0  0  0  0  0  0  0  0  0
   26.5675  -21.0754  -11.6381 C   0  0  0  0  0  0  0  0  0  0  0  0
   26.7560  -20.2746  -12.5803 O   0  0  0  0  0  0  0  0  0  0  0  0
   23.3953  -22.9811  -12.5183 C   0  0  0  0  0  0  0  0  0  0  0  0
   24.3528  -21.7952  -12.6007 C   0  0  2  0  0  0  0  0  0  0  0  0
   25.3859  -21.8603  -11.6199 N   0  0  0  0  0  0  0  0  0  0  0  0
   23.5100  -20.5686  -12.4616 C   0  0  0  0  0  0  0  0  0  0  0  0
   23.8945  -19.6351  -11.7113 O   0  0  0  0  0  0  0  0  0  0  0  0
   22.2883  -20.3999  -13.1370 N   0  0  0  0  0  0  0  0  0  0  0  0
   21.9730  -19.2744  -13.9953 C   0  0  1  0  0  0  0  0  0  0  0  0
   22.9900  -19.2742  -15.1032 C   0  0  0  0  0  0  0  0  0  0  0  0
   22.8302  -18.1996  -16.1062 C   0  0  0  0  0  0  0  0  0  0  0  0
   23.7575  -18.1948  -17.2634 C   0  0  0  0  0  0  0  0  0  0  0  0
   23.5732  -17.0641  -18.2376 C   0  0  0  0  0  0  0  0  0  0  0  0
   24.5663  -17.0528  -19.2858 N   0  0  0  0  0  0  0  0  0  0  0  0
   20.5956  -19.4137  -14.4608 C   0  0  0  0  0  0  0  0  0  0  0  0
   19.6384  -18.4105  -14.3894 O   0  0  0  0  0  0  0  0  0  0  0  0
   20.2115  -20.4976  -14.9657 O   0  0  0  0  0  0  0  0  0  0  0  0
  2  1  1  1
  2  3  1  0
  4  2  1  0
  5  4  1  0
  5  7  1  0
  5  6  1  6
  7  8  2  0
  7 11  1  0
 10  9  1  1
 11 10  1  0
 12 10  1  0
 12 14  1  0
 13 12  2  0
 15 14  1  0
 15 21  1  0
 15 16  1  6
 17 18  1  0
 17 16  1  0
 19 18  1  0
 20 19  1  0
 21 22  1  0
 23 21  2  0
M  END
$$$$
