LAK.pdb
     RDKit          3D

 23 22  0  0  1  0  0  0  0  0999 V2000
   27.3505  -13.0081  -17.3802 C   0  0  0  0  0  0  0  0  0  0  0  0
   27.7651  -12.3460  -16.1025 C   0  0  2  0  0  0  0  0  0  0  0  0
   28.3516  -13.2978  -15.0924 C   0  0  0  0  0  0  0  0  0  0  0  0
   26.5764  -11.5889  -15.5510 C   0  0  0  0  0  0  0  0  0  0  0  0
   26.0783  -10.6620  -16.6385 C   0  0  2  0  0  0  0  0  0  0  0  0
   27.1469   -9.7859  -17.0419 N   0  0  0  0  0  0  0  0  0  0  0  0
   24.8841   -9.8851  -16.1702 C   0  0  0  0  0  0  0  0  0  0  0  0
   23.8524  -10.4507  -15.7457 O   0  0  0  0  0  0  0  0  0  0  0  0
   24.2800   -6.1330  -15.8257 C   0  0  0  0  0  0  0  0  0  0  0  0
   23.8880   -7.6069  -15.7618 C   0  0  2  0  0  0  0  0  0  0  0  0
   24.9318   -8.4679  -16.2122 N   0  0  0  0  0  0  0  0  0  0  0  0
   22.6434   -7.7430  -16.5783 C   0  0  0  0  0  0  0  0  0  0  0  0
   22.7323   -7.8616  -17.8273 O   0  0  0  0  0  0  0  0  0  0  0  0
   21.3555   -7.7453  -16.0139 N   0  0  0  0  0  0  0  0  0  0  0  0
   20.1247   -7.8230  -16.7769 C   0  0  1  0  0  0  0  0  0  0  0  0
   19.5099   -9.1619  -16.4751 C   0  0  0  0  0  0  0  0  0  0  0  0
   18.2075   -9.4192  -17.1260 C   0  0  0  0  0  0  0  0  0  0  0  0
   17.5476  -10.7193  -16.8550 C   0  0  0  0  0  0  0  0  0  0  0  0
   16.2297  -10.9344  -17.5467 C   0  0  0  0  0  0  0  0  0  0  0  0
   15.6979  -12.2626  -17.3506 N   0  0  0  0  0  0  0  0  0  0  0  0
   19.2773   -6.6906  -16.4125 C   0  0  0  0  0  0  0  0  0  0  0  0
   19.3967   -5.9696  -15.2320 O   0  0  0  0  0  0  0  0  0  0  0  0
   18.3680   -6.3122  -17.1919 O   0  0  0  0  0  0  0  0  0  0  0  0
  2  1  1  6
  2  3  1  0
  4  2  1  0
  5  4  1  0
  5  7  1  0
  5  6  1  1
  7  8  2  0
  7 11  1  0
 10  9  1  6
 11 10  1  0
 12 10  1  0
 12 14  1  0
 13 12  2  0
 15 14  1  0
 15 21  1  0
 15 16  1  1
 17 18  1  0
 17 16  1  0
 19 18  1  0
 20 19  1  0
 21 22  1  0
 23 21  2  0
M  END
$$$$
