LAK.pdb
     RDKit          3D

 23 22  0  0  1  0  0  0  0  0999 V2000
   26.8700  -21.4599   -7.0496 C   0  0  0  0  0  0  0  0  0  0  0  0
   27.6459  -20.3212   -7.6363 C   0  0  2  0  0  0  0  0  0  0  0  0
   28.0422  -19.2768   -6.6252 C   0  0  0  0  0  0  0  0  0  0  0  0
   26.8429  -19.7357   -8.7776 C   0  0  0  0  0  0  0  0  0  0  0  0
   26.5015  -20.8651   -9.7250 C   0  0  2  0  0  0  0  0  0  0  0  0
   27.7155  -21.3958  -10.2880 N   0  0  0  0  0  0  0  0  0  0  0  0
   25.5635  -20.3958  -10.7968 C   0  0  0  0  0  0  0  0  0  0  0  0
   24.4356  -19.9259  -10.5291 O   0  0  0  0  0  0  0  0  0  0  0  0
   26.0007  -19.9872  -14.5546 C   0  0  0  0  0  0  0  0  0  0  0  0
   25.1845  -20.0815  -13.2681 C   0  0  2  0  0  0  0  0  0  0  0  0
   25.9726  -20.4898  -12.1519 N   0  0  0  0  0  0  0  0  0  0  0  0
   24.0646  -21.0295  -13.5535 C   0  0  0  0  0  0  0  0  0  0  0  0
   24.2892  -22.2670  -13.5666 O   0  0  0  0  0  0  0  0  0  0  0  0
   22.7499  -20.6035  -13.8128 N   0  0  0  0  0  0  0  0  0  0  0  0
   21.6093  -21.4900  -13.9397 C   0  0  1  0  0  0  0  0  0  0  0  0
   20.4512  -20.8076  -13.2653 C   0  0  0  0  0  0  0  0  0  0  0  0
   19.1677  -21.5396  -13.3217 C   0  0  0  0  0  0  0  0  0  0  0  0
   18.7725  -22.3287  -12.1300 C   0  0  0  0  0  0  0  0  0  0  0  0
   17.4747  -23.0789  -12.2499 C   0  0  0  0  0  0  0  0  0  0  0  0
   17.1336  -23.8142  -11.0548 N   0  0  0  0  0  0  0  0  0  0  0  0
   21.3867  -21.7645  -15.3568 C   0  0  0  0  0  0  0  0  0  0  0  0
   20.7657  -22.9057  -15.8466 O   0  0  0  0  0  0  0  0  0  0  0  0
   21.7676  -20.9380  -16.2224 O   0  0  0  0  0  0  0  0  0  0  0  0
  2  1  1  1
  2  3  1  0
  4  2  1  0
  5  4  1  0
  5  7  1  0
  5  6  1  6
  7  8  2  0
  7 11  1  0
 10  9  1  6
 11 10  1  0
 12 10  1  0
 12 14  1  0
 13 12  2  0
 15 14  1  0
 15 21  1  0
 15 16  1  6
 17 18  1  0
 17 16  1  0
 19 18  1  0
 20 19  1  0
 21 22  1  0
 23 21  2  0
M  END
$$$$
