LAK.pdb
     RDKit          3D

 23 22  0  0  1  0  0  0  0  0999 V2000
   17.4632  -13.0139  -17.1272 C   0  0  0  0  0  0  0  0  0  0  0  0
   18.3461  -13.4490  -15.9986 C   0  0  2  0  0  0  0  0  0  0  0  0
   17.7617  -14.5641  -15.1708 C   0  0  0  0  0  0  0  0  0  0  0  0
   18.6840  -12.2336  -15.1625 C   0  0  0  0  0  0  0  0  0  0  0  0
   19.1774  -11.1540  -16.1011 C   0  0  2  0  0  0  0  0  0  0  0  0
   20.4802  -11.5143  -16.5961 N   0  0  0  0  0  0  0  0  0  0  0  0
   19.2053   -9.8220  -15.4127 C   0  0  0  0  0  0  0  0  0  0  0  0
   18.1835   -9.3278  -14.8871 O   0  0  0  0  0  0  0  0  0  0  0  0
   22.0352   -7.3856  -14.6621 C   0  0  0  0  0  0  0  0  0  0  0  0
   20.5731   -7.7817  -14.8507 C   0  0  2  0  0  0  0  0  0  0  0  0
   20.4290   -9.1063  -15.3589 N   0  0  0  0  0  0  0  0  0  0  0  0
   19.9766   -6.7542  -15.7578 C   0  0  0  0  0  0  0  0  0  0  0  0
   20.1201   -6.8688  -17.0022 O   0  0  0  0  0  0  0  0  0  0  0  0
   19.2507   -5.6465  -15.2854 N   0  0  0  0  0  0  0  0  0  0  0  0
   18.6977   -4.6059  -16.1305 C   0  0  1  0  0  0  0  0  0  0  0  0
   17.2027   -4.6732  -15.9812 C   0  0  0  0  0  0  0  0  0  0  0  0
   16.5535   -3.4137  -15.5588 C   0  0  0  0  0  0  0  0  0  0  0  0
   15.0750   -3.4061  -15.4448 C   0  0  0  0  0  0  0  0  0  0  0  0
   14.4586   -2.0812  -15.0894 C   0  0  0  0  0  0  0  0  0  0  0  0
   13.0150   -2.1046  -15.1115 N   0  0  0  0  0  0  0  0  0  0  0  0
   19.2722   -3.3243  -15.7295 C   0  0  0  0  0  0  0  0  0  0  0  0
   20.0388   -3.1314  -14.5881 O   0  0  0  0  0  0  0  0  0  0  0  0
   19.0834   -2.3042  -16.4373 O   0  0  0  0  0  0  0  0  0  0  0  0
  2  1  1  6
  2  3  1  0
  4  2  1  0
  5  4  1  0
  5  7  1  0
  5  6  1  1
  7  8  2  0
  7 11  1  0
 10  9  1  6
 11 10  1  0
 12 10  1  0
 12 14  1  0
 13 12  2  0
 15 14  1  0
 15 21  1  0
 15 16  1  1
 17 18  1  0
 17 16  1  0
 19 18  1  0
 20 19  1  0
 21 22  1  0
 23 21  2  0
M  END
$$$$
