LAK.pdb
     RDKit          3D

 23 22  0  0  1  0  0  0  0  0999 V2000
   30.3610   -9.7498  -20.4364 C   0  0  0  0  0  0  0  0  0  0  0  0
   30.2515  -11.1934  -20.0531 C   0  0  2  0  0  0  0  0  0  0  0  0
   30.5962  -12.1423  -21.1715 C   0  0  0  0  0  0  0  0  0  0  0  0
   28.8618  -11.4366  -19.5055 C   0  0  0  0  0  0  0  0  0  0  0  0
   28.6235  -10.4341  -18.3973 C   0  0  2  0  0  0  0  0  0  0  0  0
   29.5106  -10.7197  -17.3000 N   0  0  0  0  0  0  0  0  0  0  0  0
   27.1897  -10.4561  -17.9587 C   0  0  0  0  0  0  0  0  0  0  0  0
   26.2487  -10.2902  -18.7659 O   0  0  0  0  0  0  0  0  0  0  0  0
   25.5796  -11.0955  -14.5603 C   0  0  0  0  0  0  0  0  0  0  0  0
   25.5872  -10.6679  -16.0256 C   0  0  2  0  0  0  0  0  0  0  0  0
   26.8980  -10.6719  -16.5872 N   0  0  0  0  0  0  0  0  0  0  0  0
   24.9518   -9.3156  -16.0685 C   0  0  0  0  0  0  0  0  0  0  0  0
   25.6575   -8.2935  -15.8701 O   0  0  0  0  0  0  0  0  0  0  0  0
   23.5826   -9.1221  -16.3234 N   0  0  0  0  0  0  0  0  0  0  0  0
   22.9285   -7.8282  -16.3579 C   0  0  1  0  0  0  0  0  0  0  0  0
   22.2180   -7.7356  -17.6802 C   0  0  0  0  0  0  0  0  0  0  0  0
   21.4345   -6.4993  -17.8901 C   0  0  0  0  0  0  0  0  0  0  0  0
   20.7746   -6.3178  -19.2057 C   0  0  0  0  0  0  0  0  0  0  0  0
   20.0763   -5.0009  -19.4049 C   0  0  0  0  0  0  0  0  0  0  0  0
   19.4591   -4.4996  -18.1995 N   0  0  0  0  0  0  0  0  0  0  0  0
   22.0399   -7.7233  -15.2036 C   0  0  0  0  0  0  0  0  0  0  0  0
   21.6679   -6.5263  -14.6065 O   0  0  0  0  0  0  0  0  0  0  0  0
   21.5589   -8.7620  -14.6868 O   0  0  0  0  0  0  0  0  0  0  0  0
  2  1  1  6
  2  3  1  0
  4  2  1  0
  5  4  1  0
  5  7  1  0
  5  6  1  1
  7  8  2  0
  7 11  1  0
 10  9  1  1
 11 10  1  0
 12 10  1  0
 12 14  1  0
 13 12  2  0
 15 14  1  0
 15 21  1  0
 15 16  1  6
 17 18  1  0
 17 16  1  0
 19 18  1  0
 20 19  1  0
 21 22  1  0
 23 21  2  0
M  END
$$$$
