LAK.pdb
     RDKit          3D

 23 22  0  0  1  0  0  0  0  0999 V2000
   16.2449  -23.1458   -6.8177 C   0  0  0  0  0  0  0  0  0  0  0  0
   15.0187  -24.0037   -6.7625 C   0  0  2  0  0  0  0  0  0  0  0  0
   13.7343  -23.2176   -6.7101 C   0  0  0  0  0  0  0  0  0  0  0  0
   15.1548  -24.9543   -5.5928 C   0  0  0  0  0  0  0  0  0  0  0  0
   16.4080  -25.7737   -5.8111 C   0  0  2  0  0  0  0  0  0  0  0  0
   16.2682  -26.5420   -7.0205 N   0  0  0  0  0  0  0  0  0  0  0  0
   16.6774  -26.6592   -4.6312 C   0  0  0  0  0  0  0  0  0  0  0  0
   15.8968  -27.5801   -4.3038 O   0  0  0  0  0  0  0  0  0  0  0  0
   19.5794  -26.7997   -2.1596 C   0  0  0  0  0  0  0  0  0  0  0  0
   18.1730  -27.1234   -2.6571 C   0  0  2  0  0  0  0  0  0  0  0  0
   17.8533  -26.4416   -3.8681 N   0  0  0  0  0  0  0  0  0  0  0  0
   17.2442  -26.7698   -1.5405 C   0  0  0  0  0  0  0  0  0  0  0  0
   16.8903  -25.5728   -1.3852 O   0  0  0  0  0  0  0  0  0  0  0  0
   16.7363  -27.7213   -0.6384 N   0  0  0  0  0  0  0  0  0  0  0  0
   15.8424  -27.4148    0.4617 C   0  0  1  0  0  0  0  0  0  0  0  0
   15.3956  -28.7300    1.0381 C   0  0  0  0  0  0  0  0  0  0  0  0
   14.5732  -28.6351    2.2632 C   0  0  0  0  0  0  0  0  0  0  0  0
   13.4792  -29.6213    2.4359 C   0  0  0  0  0  0  0  0  0  0  0  0
   12.6850  -29.4932    3.7064 C   0  0  0  0  0  0  0  0  0  0  0  0
   11.6690  -30.5101    3.8435 N   0  0  0  0  0  0  0  0  0  0  0  0
   16.5500  -26.5642    1.4151 C   0  0  0  0  0  0  0  0  0  0  0  0
   15.9717  -25.5034    2.0993 O   0  0  0  0  0  0  0  0  0  0  0  0
   17.7638  -26.7733    1.6605 O   0  0  0  0  0  0  0  0  0  0  0  0
  2  1  1  1
  2  3  1  0
  4  2  1  0
  5  4  1  0
  5  7  1  0
  5  6  1  6
  7  8  2  0
  7 11  1  0
 10  9  1  1
 11 10  1  0
 12 10  1  0
 12 14  1  0
 13 12  2  0
 15 14  1  0
 15 21  1  0
 15 16  1  1
 17 18  1  0
 17 16  1  0
 19 18  1  0
 20 19  1  0
 21 22  1  0
 23 21  2  0
M  END
$$$$
