LAK.pdb
     RDKit          3D

 23 22  0  0  1  0  0  0  0  0999 V2000
   16.4842  -13.8442    3.5885 C   0  0  0  0  0  0  0  0  0  0  0  0
   17.6331  -14.6885    3.1304 C   0  0  2  0  0  0  0  0  0  0  0  0
   17.4287  -15.2974    1.7675 C   0  0  0  0  0  0  0  0  0  0  0  0
   17.9064  -15.7354    4.1886 C   0  0  0  0  0  0  0  0  0  0  0  0
   18.3132  -15.0128    5.4544 C   0  0  2  0  0  0  0  0  0  0  0  0
   19.4827  -14.2159    5.1911 N   0  0  0  0  0  0  0  0  0  0  0  0
   18.5569  -15.9866    6.5684 C   0  0  0  0  0  0  0  0  0  0  0  0
   19.4777  -16.8317    6.5183 O   0  0  0  0  0  0  0  0  0  0  0  0
   17.4176  -16.1588   10.1371 C   0  0  0  0  0  0  0  0  0  0  0  0
   17.8122  -16.8289    8.8235 C   0  0  2  0  0  0  0  0  0  0  0  0
   17.7157  -15.9434    7.7099 N   0  0  0  0  0  0  0  0  0  0  0  0
   16.9245  -18.0232    8.6818 C   0  0  0  0  0  0  0  0  0  0  0  0
   15.8414  -17.9182    8.0509 O   0  0  0  0  0  0  0  0  0  0  0  0
   17.2417  -19.2803    9.2262 N   0  0  0  0  0  0  0  0  0  0  0  0
   16.4086  -20.4612    9.1059 C   0  0  1  0  0  0  0  0  0  0  0  0
   17.3046  -21.6492    9.3241 C   0  0  0  0  0  0  0  0  0  0  0  0
   16.6508  -22.9675    9.1795 C   0  0  0  0  0  0  0  0  0  0  0  0
   17.4832  -24.1758    9.3944 C   0  0  0  0  0  0  0  0  0  0  0  0
   16.7792  -25.4909    9.2033 C   0  0  0  0  0  0  0  0  0  0  0  0
   17.6129  -26.6291    9.5111 N   0  0  0  0  0  0  0  0  0  0  0  0
   15.3166  -20.3625   10.0706 C   0  0  0  0  0  0  0  0  0  0  0  0
   14.1085  -21.0378    9.9595 O   0  0  0  0  0  0  0  0  0  0  0  0
   15.4388  -19.6284   11.0823 O   0  0  0  0  0  0  0  0  0  0  0  0
  2  1  1  1
  2  3  1  0
  4  2  1  0
  5  4  1  0
  5  7  1  0
  5  6  1  6
  7  8  2  0
  7 11  1  0
 10  9  1  1
 11 10  1  0
 12 10  1  0
 12 14  1  0
 13 12  2  0
 15 14  1  0
 15 21  1  0
 15 16  1  1
 17 18  1  0
 17 16  1  0
 19 18  1  0
 20 19  1  0
 21 22  1  0
 23 21  2  0
M  END
$$$$
