EQN.pdb
     RDKit          3D

 27 26  0  0  1  0  0  0  0  0999 V2000
    7.3050  -18.0165   19.3943 N   0  0  0  0  0  0  0  0  0  0  0  0
    8.7406  -17.7479   19.1542 C   0  0  1  0  0  0  0  0  0  0  0  0
    8.8082  -17.2461   17.7519 C   0  0  0  0  0  0  0  0  0  0  0  0
    7.7736  -16.2588   17.3501 C   0  0  0  0  0  0  0  0  0  0  0  0
    7.2657  -16.6626   15.9892 C   0  0  0  0  0  0  0  0  0  0  0  0
    7.7657  -16.1681   14.9496 O   0  0  0  0  0  0  0  0  0  0  0  0
    9.1949  -16.8262   20.1905 C   0  0  0  0  0  0  0  0  0  0  0  0
   10.3786  -16.3480   20.1418 O   0  0  0  0  0  0  0  0  0  0  0  0
    6.2408  -17.5837   15.8471 O   0  0  0  0  0  0  0  0  0  0  0  0
    5.7350  -14.4229   24.9150 N   0  0  0  0  0  0  0  0  0  0  0  0
    7.0175  -13.8673   25.1623 C   0  0  0  0  0  0  0  0  0  0  0  0
    7.1414  -13.0313   26.0860 O   0  0  0  0  0  0  0  0  0  0  0  0
    8.1902  -14.2577   24.3550 C   0  0  0  0  0  0  0  0  0  0  0  0
    7.7452  -15.1396   23.2353 C   0  0  0  0  0  0  0  0  0  0  0  0
    8.9235  -15.5277   22.3317 C   0  0  2  0  0  0  0  0  0  0  0  0
    8.4052  -16.3974   21.2883 N   0  0  0  0  0  0  0  0  0  0  0  0
    9.9216  -16.3048   23.1090 C   0  0  0  0  0  0  0  0  0  0  0  0
    9.6879  -17.4857   23.5100 O   0  0  0  0  0  0  0  0  0  0  0  0
   15.3531  -16.2558   25.5256 N   0  0  0  0  0  0  0  0  0  0  0  0
   14.6769  -16.8456   24.4233 C   0  0  0  0  0  0  0  0  0  0  0  0
   15.0330  -17.9804   24.0648 O   0  0  0  0  0  0  0  0  0  0  0  0
   13.5985  -16.0518   23.7917 C   0  0  0  0  0  0  0  0  0  0  0  0
   12.2255  -16.5783   24.1020 C   0  0  2  0  0  0  0  0  0  0  0  0
   11.2028  -15.7798   23.4554 N   0  0  0  0  0  0  0  0  0  0  0  0
   11.9831  -16.7001   25.5626 C   0  0  0  0  0  0  0  0  0  0  0  0
   11.3006  -15.7291   26.2818 O   0  0  0  0  0  0  0  0  0  0  0  0
   12.3922  -17.6991   26.2091 O   0  0  0  0  0  0  0  0  0  0  0  0
  2  1  1  1
  2  7  1  0
  3  2  1  0
  3  4  1  0
  4  5  1  0
  5  9  1  0
  6  5  2  0
  7  8  2  0
 11 10  1  0
 11 13  1  0
 12 11  2  0
 14 13  1  0
 15 14  1  1
 15 17  1  0
 16  7  1  0
 16 15  1  0
 17 18  2  0
 19 20  1  0
 20 21  2  0
 20 22  1  0
 23 22  1  1
 23 25  1  0
 24 17  1  0
 24 23  1  0
 25 27  2  0
 25 26  1  0
M  END
$$$$
