EQN.pdb
     RDKit          3D

 27 26  0  0  1  0  0  0  0  0999 V2000
    8.5051  -17.7836   21.7777 N   0  0  0  0  0  0  0  0  0  0  0  0
    9.8098  -17.0874   21.7175 C   0  0  1  0  0  0  0  0  0  0  0  0
    9.9733  -16.7004   20.2871 C   0  0  0  0  0  0  0  0  0  0  0  0
    8.7363  -16.3220   19.5568 C   0  0  0  0  0  0  0  0  0  0  0  0
    9.1356  -15.9485   18.1517 C   0  0  0  0  0  0  0  0  0  0  0  0
   10.3373  -16.0051   17.7941 O   0  0  0  0  0  0  0  0  0  0  0  0
    9.7682  -15.9914   22.6804 C   0  0  0  0  0  0  0  0  0  0  0  0
   10.7758  -15.2158   22.8050 O   0  0  0  0  0  0  0  0  0  0  0  0
    8.1958  -15.5352   17.2217 O   0  0  0  0  0  0  0  0  0  0  0  0
    5.0775  -12.7767   25.1921 N   0  0  0  0  0  0  0  0  0  0  0  0
    6.1705  -12.3982   26.0146 C   0  0  0  0  0  0  0  0  0  0  0  0
    6.0172  -11.4497   26.8174 O   0  0  0  0  0  0  0  0  0  0  0  0
    7.4673  -13.0994   25.9362 C   0  0  0  0  0  0  0  0  0  0  0  0
    7.4423  -14.0529   24.7874 C   0  0  0  0  0  0  0  0  0  0  0  0
    8.7672  -14.8190   24.6724 C   0  0  2  0  0  0  0  0  0  0  0  0
    8.6629  -15.7003   23.5207 N   0  0  0  0  0  0  0  0  0  0  0  0
    8.9643  -15.6704   25.8727 C   0  0  0  0  0  0  0  0  0  0  0  0
    8.9936  -15.1827   27.0437 O   0  0  0  0  0  0  0  0  0  0  0  0
    6.6546  -19.1688   25.3108 N   0  0  0  0  0  0  0  0  0  0  0  0
    7.0928  -18.8106   26.6145 C   0  0  0  0  0  0  0  0  0  0  0  0
    6.2737  -18.2630   27.3711 O   0  0  0  0  0  0  0  0  0  0  0  0
    8.4976  -19.1228   26.9623 C   0  0  0  0  0  0  0  0  0  0  0  0
    9.3856  -17.9104   26.9561 C   0  0  2  0  0  0  0  0  0  0  0  0
    9.1329  -17.0854   25.7912 N   0  0  0  0  0  0  0  0  0  0  0  0
   10.8239  -18.2621   27.0766 C   0  0  0  0  0  0  0  0  0  0  0  0
   11.7169  -18.0896   26.0285 O   0  0  0  0  0  0  0  0  0  0  0  0
   11.2910  -18.7345   28.1451 O   0  0  0  0  0  0  0  0  0  0  0  0
  2  1  1  6
  2  7  1  0
  3  2  1  0
  3  4  1  0
  4  5  1  0
  5  9  1  0
  6  5  2  0
  7  8  2  0
 11 10  1  0
 11 13  1  0
 12 11  2  0
 14 13  1  0
 15 14  1  1
 15 17  1  0
 16  7  1  0
 16 15  1  0
 17 18  2  0
 19 20  1  0
 20 21  2  0
 20 22  1  0
 23 22  1  6
 23 25  1  0
 24 17  1  0
 24 23  1  0
 25 27  2  0
 25 26  1  0
M  END
$$$$
