EQN.pdb
     RDKit          3D

 27 26  0  0  1  0  0  0  0  0999 V2000
    9.7896  -19.5225   17.7123 N   0  0  0  0  0  0  0  0  0  0  0  0
   10.0672  -18.0780   17.8765 C   0  0  1  0  0  0  0  0  0  0  0  0
    9.2342  -17.4062   16.8385 C   0  0  0  0  0  0  0  0  0  0  0  0
    9.5111  -17.7734   15.4260 C   0  0  0  0  0  0  0  0  0  0  0  0
    8.5099  -17.0469   14.5640 C   0  0  0  0  0  0  0  0  0  0  0  0
    8.8835  -16.1447   13.7756 O   0  0  0  0  0  0  0  0  0  0  0  0
    9.7738  -17.7287   19.2628 C   0  0  0  0  0  0  0  0  0  0  0  0
    9.9270  -16.5245   19.6613 O   0  0  0  0  0  0  0  0  0  0  0  0
    7.1595  -17.3511   14.6162 O   0  0  0  0  0  0  0  0  0  0  0  0
    6.6502  -21.2319   23.4585 N   0  0  0  0  0  0  0  0  0  0  0  0
    6.9562  -20.0678   24.2109 C   0  0  0  0  0  0  0  0  0  0  0  0
    6.4910  -19.9621   25.3685 O   0  0  0  0  0  0  0  0  0  0  0  0
    7.8040  -18.9957   23.6529 C   0  0  0  0  0  0  0  0  0  0  0  0
    8.1068  -19.3018   22.2232 C   0  0  0  0  0  0  0  0  0  0  0  0
    9.0476  -18.2515   21.6173 C   0  0  2  0  0  0  0  0  0  0  0  0
    9.3139  -18.6450   20.2433 N   0  0  0  0  0  0  0  0  0  0  0  0
   10.3424  -18.2539   22.3439 C   0  0  0  0  0  0  0  0  0  0  0  0
   11.0943  -19.2756   22.3714 O   0  0  0  0  0  0  0  0  0  0  0  0
   12.8123  -15.1009   21.1638 N   0  0  0  0  0  0  0  0  0  0  0  0
   13.3507  -16.1054   22.0131 C   0  0  0  0  0  0  0  0  0  0  0  0
   14.0930  -16.9600   21.5015 O   0  0  0  0  0  0  0  0  0  0  0  0
   12.9784  -16.0474   23.4448 C   0  0  0  0  0  0  0  0  0  0  0  0
   12.0377  -17.1469   23.8503 C   0  0  2  0  0  0  0  0  0  0  0  0
   10.8256  -17.1151   23.0558 N   0  0  0  0  0  0  0  0  0  0  0  0
   11.7393  -17.1282   25.3055 C   0  0  0  0  0  0  0  0  0  0  0  0
   12.7142  -17.3709   26.2628 O   0  0  0  0  0  0  0  0  0  0  0  0
   10.5788  -16.8889   25.7287 O   0  0  0  0  0  0  0  0  0  0  0  0
  2  1  1  1
  2  7  1  0
  3  2  1  0
  3  4  1  0
  4  5  1  0
  5  9  1  0
  6  5  2  0
  7  8  2  0
 11 10  1  0
 11 13  1  0
 12 11  2  0
 14 13  1  0
 15 14  1  1
 15 17  1  0
 16  7  1  0
 16 15  1  0
 17 18  2  0
 19 20  1  0
 20 21  2  0
 20 22  1  0
 23 22  1  6
 23 25  1  0
 24 17  1  0
 24 23  1  0
 25 27  2  0
 25 26  1  0
M  END
$$$$
