EQN.pdb
     RDKit          3D

 27 26  0  0  1  0  0  0  0  0999 V2000
   10.1817  -18.6270   20.5776 N   0  0  0  0  0  0  0  0  0  0  0  0
   11.4265  -17.8425   20.7375 C   0  0  1  0  0  0  0  0  0  0  0  0
   12.0076  -17.7602   19.3671 C   0  0  0  0  0  0  0  0  0  0  0  0
   11.2350  -18.4124   18.2788 C   0  0  0  0  0  0  0  0  0  0  0  0
   11.9988  -18.2078   16.9950 C   0  0  0  0  0  0  0  0  0  0  0  0
   12.9757  -18.9425   16.7106 O   0  0  0  0  0  0  0  0  0  0  0  0
   11.0689  -16.5730   21.3626 C   0  0  0  0  0  0  0  0  0  0  0  0
   11.9701  -15.6929   21.5754 O   0  0  0  0  0  0  0  0  0  0  0  0
   11.6478  -17.2113   16.0991 O   0  0  0  0  0  0  0  0  0  0  0  0
    6.4097  -13.0243   20.2887 N   0  0  0  0  0  0  0  0  0  0  0  0
    7.3889  -13.7504   19.5617 C   0  0  0  0  0  0  0  0  0  0  0  0
    7.2965  -13.7988   18.3140 O   0  0  0  0  0  0  0  0  0  0  0  0
    8.4990  -14.4393   20.2491 C   0  0  0  0  0  0  0  0  0  0  0  0
    8.3512  -14.2602   21.7240 C   0  0  0  0  0  0  0  0  0  0  0  0
    9.4671  -14.9871   22.4867 C   0  0  2  0  0  0  0  0  0  0  0  0
    9.7568  -16.2174   21.7681 N   0  0  0  0  0  0  0  0  0  0  0  0
    8.9916  -15.3608   23.8427 C   0  0  0  0  0  0  0  0  0  0  0  0
    8.5139  -14.5028   24.6462 O   0  0  0  0  0  0  0  0  0  0  0  0
    6.2448  -17.9515   23.5906 N   0  0  0  0  0  0  0  0  0  0  0  0
    6.3548  -17.5076   24.9363 C   0  0  0  0  0  0  0  0  0  0  0  0
    5.4767  -16.7419   25.3675 O   0  0  0  0  0  0  0  0  0  0  0  0
    7.5142  -17.9988   25.7150 C   0  0  0  0  0  0  0  0  0  0  0  0
    8.6797  -17.0504   25.6911 C   0  0  2  0  0  0  0  0  0  0  0  0
    9.0395  -16.7011   24.3309 N   0  0  0  0  0  0  0  0  0  0  0  0
    9.8466  -17.5690   26.4503 C   0  0  0  0  0  0  0  0  0  0  0  0
   11.1045  -17.6932   25.8776 O   0  0  0  0  0  0  0  0  0  0  0  0
    9.7365  -17.9186   27.6540 O   0  0  0  0  0  0  0  0  0  0  0  0
  2  1  1  6
  2  7  1  0
  3  2  1  0
  3  4  1  0
  4  5  1  0
  5  9  1  0
  6  5  2  0
  7  8  2  0
 11 10  1  0
 11 13  1  0
 12 11  2  0
 14 13  1  0
 15 14  1  6
 15 17  1  0
 16  7  1  0
 16 15  1  0
 17 18  2  0
 19 20  1  0
 20 21  2  0
 20 22  1  0
 23 22  1  6
 23 25  1  0
 24 17  1  0
 24 23  1  0
 25 27  2  0
 25 26  1  0
M  END
$$$$
