YNA.pdb
     RDKit          3D

 26 26  0  0  1  0  0  0  0  0999 V2000
   29.3949  -27.7114  -17.8335 O   0  0  0  0  0  0  0  0  0  0  0  0
   28.4597  -26.8843  -17.1938 C   0  0  0  0  0  0  0  0  0  0  0  0
   28.5997  -25.5158  -17.1301 C   0  0  0  0  0  0  0  0  0  0  0  0
   27.6540  -24.7430  -16.4896 C   0  0  0  0  0  0  0  0  0  0  0  0
   26.5368  -25.2748  -15.8875 C   0  0  0  0  0  0  0  0  0  0  0  0
   25.5278  -24.4249  -15.2024 C   0  0  0  0  0  0  0  0  0  0  0  0
   24.3042  -24.1648  -16.0831 C   0  0  2  0  0  0  0  0  0  0  0  0
   24.7320  -23.3066  -17.1452 N   0  0  0  0  0  0  0  0  0  0  0  0
   23.2985  -23.5229  -15.1971 C   0  0  0  0  0  0  0  0  0  0  0  0
   23.4117  -22.2951  -14.9526 O   0  0  0  0  0  0  0  0  0  0  0  0
   26.3864  -26.6529  -15.9454 C   0  0  0  0  0  0  0  0  0  0  0  0
   27.3334  -27.4240  -16.5865 C   0  0  0  0  0  0  0  0  0  0  0  0
   17.9787  -22.0873  -14.8707 N   0  0  0  0  0  0  0  0  0  0  0  0
   19.2822  -21.9934  -14.3680 C   0  0  0  0  0  0  0  0  0  0  0  0
   19.5008  -21.2731  -13.3503 O   0  0  0  0  0  0  0  0  0  0  0  0
   20.4219  -22.6945  -14.9697 C   0  0  0  0  0  0  0  0  0  0  0  0
   21.1139  -23.5380  -13.9141 C   0  0  2  0  0  0  0  0  0  0  0  0
   22.2230  -24.2156  -14.6149 N   0  0  0  0  0  0  0  0  0  0  0  0
   20.2363  -24.5601  -13.2985 C   0  0  0  0  0  0  0  0  0  0  0  0
   19.7368  -25.4404  -14.0703 O   0  0  0  0  0  0  0  0  0  0  0  0
   18.8781  -25.6652   -9.9698 C   0  0  0  0  0  0  0  0  0  0  0  0
   18.9830  -25.7129  -11.4550 C   0  0  2  0  0  0  0  0  0  0  0  0
   19.9014  -24.6537  -11.9330 N   0  0  0  0  0  0  0  0  0  0  0  0
   17.6454  -25.5821  -12.0422 C   0  0  0  0  0  0  0  0  0  0  0  0
   16.7942  -26.6523  -12.2064 O   0  0  0  0  0  0  0  0  0  0  0  0
   17.2661  -24.4474  -12.4087 O   0  0  0  0  0  0  0  0  0  0  0  0
  2 12  2  0
  2  1  1  0
  3  2  1  0
  4  5  1  0
  4  3  2  0
  5 11  2  0
  6  5  1  0
  7  6  1  0
  7  9  1  0
  7  8  1  6
  9 18  1  0
  9 10  2  0
 11 12  1  0
 14 13  1  0
 14 15  2  0
 16 14  1  0
 17 16  1  6
 18 17  1  0
 19 23  1  0
 19 17  1  0
 20 19  2  0
 22 21  1  1
 22 24  1  0
 22 23  1  0
 24 25  1  0
 26 24  2  0
M  END
$$$$
