YNA.pdb
     RDKit          3D

 26 26  0  0  1  0  0  0  0  0999 V2000
   15.6420  -15.1355  -15.4375 O   0  0  0  0  0  0  0  0  0  0  0  0
   16.7090  -14.2382  -15.5936 C   0  0  0  0  0  0  0  0  0  0  0  0
   16.5644  -13.0107  -16.2008 C   0  0  0  0  0  0  0  0  0  0  0  0
   17.6429  -12.1615  -16.3320 C   0  0  0  0  0  0  0  0  0  0  0  0
   18.9025  -12.4767  -15.8763 C   0  0  0  0  0  0  0  0  0  0  0  0
   20.0530  -11.5472  -16.0263 C   0  0  0  0  0  0  0  0  0  0  0  0
   20.5256  -11.4495  -17.4780 C   0  0  2  0  0  0  0  0  0  0  0  0
   21.1034  -12.7151  -17.8127 N   0  0  0  0  0  0  0  0  0  0  0  0
   21.5158  -10.3417  -17.5063 C   0  0  0  0  0  0  0  0  0  0  0  0
   22.6363  -10.5527  -18.0354 O   0  0  0  0  0  0  0  0  0  0  0  0
   19.0594  -13.7115  -15.2634 C   0  0  0  0  0  0  0  0  0  0  0  0
   17.9793  -14.5594  -15.1332 C   0  0  0  0  0  0  0  0  0  0  0  0
   24.5742   -6.7130  -19.5339 N   0  0  0  0  0  0  0  0  0  0  0  0
   23.4121   -6.6448  -18.7557 C   0  0  0  0  0  0  0  0  0  0  0  0
   23.1065   -5.5506  -18.1974 O   0  0  0  0  0  0  0  0  0  0  0  0
   22.5209   -7.7920  -18.5503 C   0  0  0  0  0  0  0  0  0  0  0  0
   22.2315   -7.9512  -17.0685 C   0  0  2  0  0  0  0  0  0  0  0  0
   21.2677   -9.0656  -16.9719 N   0  0  0  0  0  0  0  0  0  0  0  0
   21.6392   -6.7457  -16.4442 C   0  0  0  0  0  0  0  0  0  0  0  0
   20.4618   -6.4222  -16.8037 O   0  0  0  0  0  0  0  0  0  0  0  0
   21.3598   -5.7060  -13.2306 C   0  0  0  0  0  0  0  0  0  0  0  0
   21.4384   -5.0784  -14.5792 C   0  0  2  0  0  0  0  0  0  0  0  0
   22.2560   -5.9197  -15.4834 N   0  0  0  0  0  0  0  0  0  0  0  0
   21.9823   -3.7221  -14.4543 C   0  0  0  0  0  0  0  0  0  0  0  0
   21.2399   -2.6599  -13.9881 O   0  0  0  0  0  0  0  0  0  0  0  0
   23.1725   -3.5266  -14.7875 O   0  0  0  0  0  0  0  0  0  0  0  0
  2 12  2  0
  2  1  1  0
  3  2  1  0
  4  5  1  0
  4  3  2  0
  5 11  2  0
  6  5  1  0
  7  6  1  0
  7  9  1  0
  7  8  1  1
  9 18  1  0
  9 10  2  0
 11 12  1  0
 14 13  1  0
 14 15  2  0
 16 14  1  0
 17 16  1  6
 18 17  1  0
 19 23  1  0
 19 17  1  0
 20 19  2  0
 22 21  1  1
 22 24  1  0
 22 23  1  0
 24 25  1  0
 26 24  2  0
M  END
$$$$
