YNA.pdb
     RDKit          3D

 26 26  0  0  1  0  0  0  0  0999 V2000
   28.7972  -21.2347   -7.7029 O   0  0  0  0  0  0  0  0  0  0  0  0
   28.3438  -20.9171   -8.9919 C   0  0  0  0  0  0  0  0  0  0  0  0
   29.1988  -20.7334  -10.0557 C   0  0  0  0  0  0  0  0  0  0  0  0
   28.7066  -20.4218  -11.3056 C   0  0  0  0  0  0  0  0  0  0  0  0
   27.3631  -20.2778  -11.5656 C   0  0  0  0  0  0  0  0  0  0  0  0
   26.8516  -19.9423  -12.9206 C   0  0  0  0  0  0  0  0  0  0  0  0
   26.6189  -21.1923  -13.7712 C   0  0  2  0  0  0  0  0  0  0  0  0
   27.8918  -21.5787  -14.2985 N   0  0  0  0  0  0  0  0  0  0  0  0
   25.6588  -20.7864  -14.8305 C   0  0  0  0  0  0  0  0  0  0  0  0
   26.0864  -20.1098  -15.7998 O   0  0  0  0  0  0  0  0  0  0  0  0
   26.4928  -20.4601  -10.5005 C   0  0  0  0  0  0  0  0  0  0  0  0
   26.9872  -20.7718   -9.2511 C   0  0  0  0  0  0  0  0  0  0  0  0
   22.9333  -21.0818  -19.2080 N   0  0  0  0  0  0  0  0  0  0  0  0
   22.4583  -21.5667  -17.9832 C   0  0  0  0  0  0  0  0  0  0  0  0
   21.2140  -21.7403  -17.8288 O   0  0  0  0  0  0  0  0  0  0  0  0
   23.3406  -21.8854  -16.8551 C   0  0  0  0  0  0  0  0  0  0  0  0
   23.3518  -20.7253  -15.8759 C   0  0  2  0  0  0  0  0  0  0  0  0
   24.2933  -21.1187  -14.8085 N   0  0  0  0  0  0  0  0  0  0  0  0
   22.0293  -20.4421  -15.2722 C   0  0  0  0  0  0  0  0  0  0  0  0
   21.8374  -20.8376  -14.0777 O   0  0  0  0  0  0  0  0  0  0  0  0
   19.6082  -20.5559  -14.0284 C   0  0  0  0  0  0  0  0  0  0  0  0
   19.6437  -19.6646  -15.2215 C   0  0  2  0  0  0  0  0  0  0  0  0
   20.9583  -19.7712  -15.8954 N   0  0  0  0  0  0  0  0  0  0  0  0
   19.3507  -18.2878  -14.8098 C   0  0  0  0  0  0  0  0  0  0  0  0
   18.1724  -17.9271  -14.1948 O   0  0  0  0  0  0  0  0  0  0  0  0
   20.2114  -17.4065  -15.0295 O   0  0  0  0  0  0  0  0  0  0  0  0
  2 12  2  0
  2  1  1  0
  3  2  1  0
  4  5  1  0
  4  3  2  0
  5 11  2  0
  6  5  1  0
  7  6  1  0
  7  9  1  0
  7  8  1  6
  9 18  1  0
  9 10  2  0
 11 12  1  0
 14 13  1  0
 14 15  2  0
 16 14  1  0
 17 16  1  6
 18 17  1  0
 19 23  1  0
 19 17  1  0
 20 19  2  0
 22 21  1  1
 22 24  1  0
 22 23  1  0
 24 25  1  0
 26 24  2  0
M  END
$$$$
