YNA.pdb
     RDKit          3D

 26 26  0  0  1  0  0  0  0  0999 V2000
   30.2300  -21.1572  -10.1877 O   0  0  0  0  0  0  0  0  0  0  0  0
   29.2343  -20.7375  -11.0824 C   0  0  0  0  0  0  0  0  0  0  0  0
   29.5079  -19.9651  -12.1891 C   0  0  0  0  0  0  0  0  0  0  0  0
   28.4956  -19.5760  -13.0408 C   0  0  0  0  0  0  0  0  0  0  0  0
   27.1789  -19.9254  -12.8460 C   0  0  0  0  0  0  0  0  0  0  0  0
   26.1014  -19.4968  -13.7762 C   0  0  0  0  0  0  0  0  0  0  0  0
   25.5008  -20.6779  -14.5408 C   0  0  2  0  0  0  0  0  0  0  0  0
   26.5378  -21.2030  -15.3753 N   0  0  0  0  0  0  0  0  0  0  0  0
   24.3657  -20.1187  -15.3202 C   0  0  0  0  0  0  0  0  0  0  0  0
   24.6104  -19.2540  -16.1991 O   0  0  0  0  0  0  0  0  0  0  0  0
   26.8921  -20.7032  -11.7334 C   0  0  0  0  0  0  0  0  0  0  0  0
   27.9062  -21.0913  -10.8828 C   0  0  0  0  0  0  0  0  0  0  0  0
   23.1801  -22.1696  -18.3283 N   0  0  0  0  0  0  0  0  0  0  0  0
   22.4178  -21.0411  -18.0025 C   0  0  0  0  0  0  0  0  0  0  0  0
   22.5325  -19.9948  -18.7055 O   0  0  0  0  0  0  0  0  0  0  0  0
   21.4828  -21.0090  -16.8723 C   0  0  0  0  0  0  0  0  0  0  0  0
   21.9055  -19.9275  -15.8943 C   0  0  2  0  0  0  0  0  0  0  0  0
   23.0280  -20.5049  -15.1281 N   0  0  0  0  0  0  0  0  0  0  0  0
   20.8357  -19.5243  -14.9527 C   0  0  0  0  0  0  0  0  0  0  0  0
   20.5199  -20.3534  -14.0401 O   0  0  0  0  0  0  0  0  0  0  0  0
   18.9579  -16.6026  -13.6832 C   0  0  0  0  0  0  0  0  0  0  0  0
   19.0359  -18.0552  -14.0039 C   0  0  2  0  0  0  0  0  0  0  0  0
   20.1319  -18.3036  -14.9686 N   0  0  0  0  0  0  0  0  0  0  0  0
   17.7405  -18.5104  -14.5194 C   0  0  0  0  0  0  0  0  0  0  0  0
   17.5695  -18.9731  -15.8053 O   0  0  0  0  0  0  0  0  0  0  0  0
   16.7510  -18.4744  -13.7543 O   0  0  0  0  0  0  0  0  0  0  0  0
  2 12  2  0
  2  1  1  0
  3  2  1  0
  4  5  1  0
  4  3  2  0
  5 11  2  0
  6  5  1  0
  7  6  1  0
  7  9  1  0
  7  8  1  6
  9 18  1  0
  9 10  2  0
 11 12  1  0
 14 13  1  0
 14 15  2  0
 16 14  1  0
 17 16  1  6
 18 17  1  0
 19 23  1  0
 19 17  1  0
 20 19  2  0
 22 21  1  6
 22 24  1  0
 22 23  1  0
 24 25  1  0
 26 24  2  0
M  END
$$$$
