YNA.pdb
     RDKit          3D

 26 26  0  0  1  0  0  0  0  0999 V2000
    9.5237   -9.3286   -6.8092 O   0  0  0  0  0  0  0  0  0  0  0  0
   10.5925   -8.8149   -7.5590 C   0  0  0  0  0  0  0  0  0  0  0  0
   11.2539   -9.5554   -8.5133 C   0  0  0  0  0  0  0  0  0  0  0  0
   12.2998   -9.0076   -9.2257 C   0  0  0  0  0  0  0  0  0  0  0  0
   12.7401   -7.7179   -9.0350 C   0  0  0  0  0  0  0  0  0  0  0  0
   13.8693   -7.1448   -9.8138 C   0  0  0  0  0  0  0  0  0  0  0  0
   15.1785   -7.8949   -9.5618 C   0  0  2  0  0  0  0  0  0  0  0  0
   15.6307   -7.5147   -8.2585 N   0  0  0  0  0  0  0  0  0  0  0  0
   16.1057   -7.4614  -10.6393 C   0  0  0  0  0  0  0  0  0  0  0  0
   16.8385   -6.4611  -10.4331 O   0  0  0  0  0  0  0  0  0  0  0  0
   12.0810   -6.9632   -8.0753 C   0  0  0  0  0  0  0  0  0  0  0  0
   11.0350   -7.5131   -7.3638 C   0  0  0  0  0  0  0  0  0  0  0  0
   18.9212   -9.6182  -12.2061 N   0  0  0  0  0  0  0  0  0  0  0  0
   18.1963   -9.8174  -13.3875 C   0  0  0  0  0  0  0  0  0  0  0  0
   18.3718  -10.8834  -14.0470 O   0  0  0  0  0  0  0  0  0  0  0  0
   17.2333   -8.8400  -13.9071 C   0  0  0  0  0  0  0  0  0  0  0  0
   17.1307   -7.6685  -12.9469 C   0  0  2  0  0  0  0  0  0  0  0  0
   16.2090   -8.1108  -11.8815 N   0  0  0  0  0  0  0  0  0  0  0  0
   16.5946   -6.4349  -13.5670 C   0  0  0  0  0  0  0  0  0  0  0  0
   15.4031   -6.4773  -14.0127 O   0  0  0  0  0  0  0  0  0  0  0  0
   16.5620   -2.8878  -13.6150 C   0  0  0  0  0  0  0  0  0  0  0  0
   16.6765   -4.0974  -14.4767 C   0  0  2  0  0  0  0  0  0  0  0  0
   17.2795   -5.2117  -13.7095 N   0  0  0  0  0  0  0  0  0  0  0  0
   17.4597   -3.7709  -15.6730 C   0  0  0  0  0  0  0  0  0  0  0  0
   18.6090   -4.4458  -16.0202 O   0  0  0  0  0  0  0  0  0  0  0  0
   17.0629   -2.8378  -16.4061 O   0  0  0  0  0  0  0  0  0  0  0  0
  2 12  2  0
  2  1  1  0
  3  2  1  0
  4  5  1  0
  4  3  2  0
  5 11  2  0
  6  5  1  0
  7  6  1  0
  7  9  1  0
  7  8  1  1
  9 18  1  0
  9 10  2  0
 11 12  1  0
 14 13  1  0
 14 15  2  0
 16 14  1  0
 17 16  1  6
 18 17  1  0
 19 23  1  0
 19 17  1  0
 20 19  2  0
 22 21  1  1
 22 24  1  0
 22 23  1  0
 24 25  1  0
 26 24  2  0
M  END
$$$$
