YNA.pdb
     RDKit          3D

 26 26  0  0  1  0  0  0  0  0999 V2000
   29.1176  -20.1448   -3.9763 O   0  0  0  0  0  0  0  0  0  0  0  0
   28.5100  -20.0256   -5.2352 C   0  0  0  0  0  0  0  0  0  0  0  0
   28.9854  -19.1796   -6.2122 C   0  0  0  0  0  0  0  0  0  0  0  0
   28.3543  -19.0957   -7.4354 C   0  0  0  0  0  0  0  0  0  0  0  0
   27.2366  -19.8332   -7.7523 C   0  0  0  0  0  0  0  0  0  0  0  0
   26.5705  -19.7295   -9.0773 C   0  0  0  0  0  0  0  0  0  0  0  0
   26.6329  -21.0455   -9.8548 C   0  0  2  0  0  0  0  0  0  0  0  0
   28.0151  -21.3092  -10.1147 N   0  0  0  0  0  0  0  0  0  0  0  0
   25.8491  -20.8179  -11.0968 C   0  0  0  0  0  0  0  0  0  0  0  0
   26.3516  -20.1023  -11.9998 O   0  0  0  0  0  0  0  0  0  0  0  0
   26.7489  -20.6884   -6.7746 C   0  0  0  0  0  0  0  0  0  0  0  0
   27.3817  -20.7708   -5.5518 C   0  0  0  0  0  0  0  0  0  0  0  0
   25.4442  -24.3760  -13.4294 N   0  0  0  0  0  0  0  0  0  0  0  0
   24.8993  -23.1174  -13.7121 C   0  0  0  0  0  0  0  0  0  0  0  0
   25.5020  -22.3512  -14.5195 O   0  0  0  0  0  0  0  0  0  0  0  0
   23.6510  -22.6350  -13.1108 C   0  0  0  0  0  0  0  0  0  0  0  0
   23.8482  -21.2198  -12.5979 C   0  0  2  0  0  0  0  0  0  0  0  0
   24.5719  -21.3609  -11.3185 N   0  0  0  0  0  0  0  0  0  0  0  0
   22.5814  -20.4910  -12.3576 C   0  0  0  0  0  0  0  0  0  0  0  0
   21.9280  -20.7892  -11.3068 O   0  0  0  0  0  0  0  0  0  0  0  0
   20.3946  -17.8099  -13.8356 C   0  0  0  0  0  0  0  0  0  0  0  0
   20.7332  -18.8625  -12.8374 C   0  0  2  0  0  0  0  0  0  0  0  0
   22.0283  -19.4923  -13.1836 N   0  0  0  0  0  0  0  0  0  0  0  0
   19.6462  -19.8453  -12.7781 C   0  0  0  0  0  0  0  0  0  0  0  0
   19.6761  -21.0345  -13.4722 O   0  0  0  0  0  0  0  0  0  0  0  0
   18.6507  -19.5873  -12.0651 O   0  0  0  0  0  0  0  0  0  0  0  0
  2 12  2  0
  2  1  1  0
  3  2  1  0
  4  5  1  0
  4  3  2  0
  5 11  2  0
  6  5  1  0
  7  6  1  0
  7  9  1  0
  7  8  1  6
  9 18  1  0
  9 10  2  0
 11 12  1  0
 14 13  1  0
 14 15  2  0
 16 14  1  0
 17 16  1  1
 18 17  1  0
 19 23  1  0
 19 17  1  0
 20 19  2  0
 22 21  1  6
 22 24  1  0
 22 23  1  0
 24 25  1  0
 26 24  2  0
M  END
$$$$
