YNA.pdb
     RDKit          3D

 26 26  0  0  1  0  0  0  0  0999 V2000
   20.5726  -10.6580    5.4054 O   0  0  0  0  0  0  0  0  0  0  0  0
   19.9533  -11.9137    5.4938 C   0  0  0  0  0  0  0  0  0  0  0  0
   19.8262  -12.5970    6.6827 C   0  0  0  0  0  0  0  0  0  0  0  0
   19.2096  -13.8299    6.7207 C   0  0  0  0  0  0  0  0  0  0  0  0
   18.6937  -14.4427    5.6018 C   0  0  0  0  0  0  0  0  0  0  0  0
   18.0314  -15.7723    5.6631 C   0  0  0  0  0  0  0  0  0  0  0  0
   16.7023  -15.7862    4.9058 C   0  0  2  0  0  0  0  0  0  0  0  0
   15.7922  -14.9697    5.6491 N   0  0  0  0  0  0  0  0  0  0  0  0
   16.2827  -17.2109    4.8533 C   0  0  0  0  0  0  0  0  0  0  0  0
   15.3022  -17.5730    5.5515 O   0  0  0  0  0  0  0  0  0  0  0  0
   18.8170  -13.7630    4.3985 C   0  0  0  0  0  0  0  0  0  0  0  0
   19.4341  -12.5299    4.3628 C   0  0  0  0  0  0  0  0  0  0  0  0
   17.3293  -19.4281    0.4218 N   0  0  0  0  0  0  0  0  0  0  0  0
   16.5953  -19.7471    1.5707 C   0  0  0  0  0  0  0  0  0  0  0  0
   15.3335  -19.6493    1.5441 O   0  0  0  0  0  0  0  0  0  0  0  0
   17.2224  -20.1925    2.8201 C   0  0  0  0  0  0  0  0  0  0  0  0
   16.4851  -19.5883    4.0018 C   0  0  2  0  0  0  0  0  0  0  0  0
   16.9243  -18.1799    4.0628 N   0  0  0  0  0  0  0  0  0  0  0  0
   16.7904  -20.2452    5.2937 C   0  0  0  0  0  0  0  0  0  0  0  0
   17.9104  -19.9748    5.8345 O   0  0  0  0  0  0  0  0  0  0  0  0
   15.1853  -22.1273    8.0758 C   0  0  0  0  0  0  0  0  0  0  0  0
   16.3788  -21.7159    7.2852 C   0  0  2  0  0  0  0  0  0  0  0  0
   15.9546  -21.1435    5.9866 N   0  0  0  0  0  0  0  0  0  0  0  0
   17.2680  -22.8690    7.1097 C   0  0  0  0  0  0  0  0  0  0  0  0
   18.0526  -23.3683    8.1255 O   0  0  0  0  0  0  0  0  0  0  0  0
   17.3124  -23.4190    5.9866 O   0  0  0  0  0  0  0  0  0  0  0  0
  2 12  2  0
  2  1  1  0
  3  2  1  0
  4  5  1  0
  4  3  2  0
  5 11  2  0
  6  5  1  0
  7  6  1  0
  7  9  1  0
  7  8  1  1
  9 18  1  0
  9 10  2  0
 11 12  1  0
 14 13  1  0
 14 15  2  0
 16 14  1  0
 17 16  1  6
 18 17  1  0
 19 23  1  0
 19 17  1  0
 20 19  2  0
 22 21  1  6
 22 24  1  0
 22 23  1  0
 24 25  1  0
 26 24  2  0
M  END
$$$$
