YNA.pdb
     RDKit          3D

 26 26  0  0  1  0  0  0  0  0999 V2000
   27.0598  -16.3284  -16.2377 O   0  0  0  0  0  0  0  0  0  0  0  0
   26.2736  -15.1668  -16.2677 C   0  0  0  0  0  0  0  0  0  0  0  0
   26.0319  -14.4634  -17.4266 C   0  0  0  0  0  0  0  0  0  0  0  0
   25.2525  -13.3260  -17.4072 C   0  0  0  0  0  0  0  0  0  0  0  0
   24.6794  -12.8318  -16.2580 C   0  0  0  0  0  0  0  0  0  0  0  0
   23.8412  -11.6040  -16.2574 C   0  0  0  0  0  0  0  0  0  0  0  0
   22.3573  -11.9231  -16.0664 C   0  0  2  0  0  0  0  0  0  0  0  0
   21.9704  -12.7671  -17.1552 N   0  0  0  0  0  0  0  0  0  0  0  0
   21.6576  -10.6120  -16.0807 C   0  0  0  0  0  0  0  0  0  0  0  0
   21.5291  -10.0131  -17.1784 O   0  0  0  0  0  0  0  0  0  0  0  0
   24.9171  -13.5327  -15.0844 C   0  0  0  0  0  0  0  0  0  0  0  0
   25.6970  -14.6702  -15.1060 C   0  0  0  0  0  0  0  0  0  0  0  0
   18.2636  -10.1111  -16.1155 N   0  0  0  0  0  0  0  0  0  0  0  0
   18.1268   -9.7187  -14.7782 C   0  0  0  0  0  0  0  0  0  0  0  0
   17.0647  -10.0113  -14.1548 O   0  0  0  0  0  0  0  0  0  0  0  0
   19.1639   -8.9746  -14.0549 C   0  0  0  0  0  0  0  0  0  0  0  0
   20.3547   -8.7455  -14.9684 C   0  0  2  0  0  0  0  0  0  0  0  0
   21.1293  -10.0020  -14.9299 N   0  0  0  0  0  0  0  0  0  0  0  0
   21.2274   -7.6277  -14.5409 C   0  0  0  0  0  0  0  0  0  0  0  0
   22.1813   -7.9048  -13.7451 O   0  0  0  0  0  0  0  0  0  0  0  0
   22.9874   -4.8778  -15.5744 C   0  0  0  0  0  0  0  0  0  0  0  0
   22.0758   -5.2671  -14.4625 C   0  0  2  0  0  0  0  0  0  0  0  0
   21.1039   -6.2803  -14.9345 N   0  0  0  0  0  0  0  0  0  0  0  0
   21.4076   -4.0712  -13.9390 C   0  0  0  0  0  0  0  0  0  0  0  0
   22.0647   -3.1108  -13.2023 O   0  0  0  0  0  0  0  0  0  0  0  0
   20.1876   -3.9217  -14.1741 O   0  0  0  0  0  0  0  0  0  0  0  0
  2 12  2  0
  2  1  1  0
  3  2  1  0
  4  5  1  0
  4  3  2  0
  5 11  2  0
  6  5  1  0
  7  6  1  0
  7  9  1  0
  7  8  1  6
  9 18  1  0
  9 10  2  0
 11 12  1  0
 14 13  1  0
 14 15  2  0
 16 14  1  0
 17 16  1  1
 18 17  1  0
 19 23  1  0
 19 17  1  0
 20 19  2  0
 22 21  1  6
 22 24  1  0
 22 23  1  0
 24 25  1  0
 26 24  2  0
M  END
$$$$
