CHA.pdb
     RDKit          3D

 22 22  0  0  1  0  0  0  0  0999 V2000
    5.1767  -13.3096   25.8910 N   0  0  0  0  0  0  0  0  0  0  0  0
    6.5672  -13.0895   25.5729 C   0  0  1  0  0  0  0  0  0  0  0  0
    7.3000  -12.7378   26.8409 C   0  0  0  0  0  0  0  0  0  0  0  0
    6.8557  -11.0118   27.2455 S   0  0  0  0  0  0  0  0  0  0  0  0
    7.1542  -14.2692   24.8850 C   0  0  0  0  0  0  0  0  0  0  0  0
    6.6733  -15.3949   25.1291 O   0  0  0  0  0  0  0  0  0  0  0  0
    8.2333  -14.1623   23.9678 N   0  0  0  0  0  0  0  0  0  0  0  0
    8.7372  -15.3212   23.2746 C   0  0  1  0  0  0  0  0  0  0  0  0
    9.4508  -14.9329   21.9890 C   0  0  0  0  0  0  0  0  0  0  0  0
    8.5627  -14.3853   20.9739 C   0  0  0  0  0  0  0  0  0  0  0  0
    7.1884  -14.3136   21.0244 C   0  0  0  0  0  0  0  0  0  0  0  0
    6.7307  -13.7325   19.8764 N   0  0  0  0  0  0  0  0  0  0  0  0
    7.7984  -13.4491   19.1283 C   0  0  0  0  0  0  0  0  0  0  0  0
    8.9193  -13.8492   19.8011 N   0  0  0  0  0  0  0  0  0  0  0  0
    9.7710  -16.0316   24.1118 C   0  0  0  0  0  0  0  0  0  0  0  0
   10.6440  -15.3618   24.7211 O   0  0  0  0  0  0  0  0  0  0  0  0
   10.4756  -19.5402   25.1408 C   0  0  0  0  0  0  0  0  0  0  0  0
   10.8519  -18.0728   24.9621 C   0  0  2  0  0  0  0  0  0  0  0  0
    9.7891  -17.4474   24.2347 N   0  0  0  0  0  0  0  0  0  0  0  0
   12.1559  -17.9734   24.2723 C   0  0  0  0  0  0  0  0  0  0  0  0
   12.2373  -17.7208   23.0446 O   0  0  0  0  0  0  0  0  0  0  0  0
   13.3333  -18.1594   24.9758 O   0  0  0  0  0  0  0  0  0  0  0  0
  2  1  1  1
  2  5  1  0
  2  3  1  0
  3  4  1  0
  5  7  1  0
  6  5  2  0
  7  8  1  0
  8 15  1  0
  9 10  1  0
  8  9  1  6
 10 11  2  0
 12 11  1  0
 13 12  1  0
 14 13  2  0
 14 10  1  0
 15 16  2  0
 15 19  1  0
 18 17  1  6
 18 20  1  0
 19 18  1  0
 20 22  1  0
 21 20  2  0
M  END
$$$$
