CHA.pdb
     RDKit          3D

 22 22  0  0  1  0  0  0  0  0999 V2000
    7.6995  -15.4179   16.3501 N   0  0  0  0  0  0  0  0  0  0  0  0
    8.3062  -14.8333   17.5219 C   0  0  1  0  0  0  0  0  0  0  0  0
    7.6746  -13.4886   17.7695 C   0  0  0  0  0  0  0  0  0  0  0  0
    8.2762  -12.3728   16.4531 S   0  0  0  0  0  0  0  0  0  0  0  0
    8.1928  -15.7398   18.6946 C   0  0  0  0  0  0  0  0  0  0  0  0
    7.1051  -16.3202   18.8893 O   0  0  0  0  0  0  0  0  0  0  0  0
    9.2686  -15.9672   19.5936 N   0  0  0  0  0  0  0  0  0  0  0  0
    9.1017  -16.8023   20.7564 C   0  0  1  0  0  0  0  0  0  0  0  0
   10.0411  -17.9977   20.7214 C   0  0  0  0  0  0  0  0  0  0  0  0
    9.9688  -18.8289   21.9142 C   0  0  0  0  0  0  0  0  0  0  0  0
    8.8965  -19.5822   22.3374 C   0  0  0  0  0  0  0  0  0  0  0  0
    9.2293  -20.2160   23.5005 N   0  0  0  0  0  0  0  0  0  0  0  0
   10.4823  -19.8637   23.7937 C   0  0  0  0  0  0  0  0  0  0  0  0
   10.9340  -19.0146   22.8220 N   0  0  0  0  0  0  0  0  0  0  0  0
    9.4597  -16.0436   22.0096 C   0  0  0  0  0  0  0  0  0  0  0  0
   10.5518  -15.4226   22.0690 O   0  0  0  0  0  0  0  0  0  0  0  0
    7.7728  -14.7642   24.9931 C   0  0  0  0  0  0  0  0  0  0  0  0
    9.0193  -15.3358   24.3254 C   0  0  2  0  0  0  0  0  0  0  0  0
    8.5932  -16.0085   23.1355 N   0  0  0  0  0  0  0  0  0  0  0  0
    9.7244  -16.2297   25.2688 C   0  0  0  0  0  0  0  0  0  0  0  0
    9.7656  -17.4731   25.0967 O   0  0  0  0  0  0  0  0  0  0  0  0
   10.3642  -15.7069   26.3793 O   0  0  0  0  0  0  0  0  0  0  0  0
  2  1  1  6
  2  5  1  0
  2  3  1  0
  3  4  1  0
  5  7  1  0
  6  5  2  0
  7  8  1  0
  8 15  1  0
  9 10  1  0
  8  9  1  6
 10 11  2  0
 12 11  1  0
 13 12  1  0
 14 13  2  0
 14 10  1  0
 15 16  2  0
 15 19  1  0
 18 17  1  1
 18 20  1  0
 19 18  1  0
 20 22  1  0
 21 20  2  0
M  END
$$$$
