CHA.pdb
     RDKit          3D

 22 22  0  0  1  0  0  0  0  0999 V2000
    4.8949  -17.2467   18.9046 N   0  0  0  0  0  0  0  0  0  0  0  0
    5.5476  -16.2760   19.7500 C   0  0  1  0  0  0  0  0  0  0  0  0
    4.9797  -16.3909   21.1402 C   0  0  0  0  0  0  0  0  0  0  0  0
    5.4143  -18.0574   21.7516 S   0  0  0  0  0  0  0  0  0  0  0  0
    7.0241  -16.4462   19.7226 C   0  0  0  0  0  0  0  0  0  0  0  0
    7.5210  -17.1479   18.8178 O   0  0  0  0  0  0  0  0  0  0  0  0
    7.8823  -15.8442   20.6809 N   0  0  0  0  0  0  0  0  0  0  0  0
    9.3024  -16.0906   20.6657 C   0  0  1  0  0  0  0  0  0  0  0  0
    9.9633  -15.4559   19.4520 C   0  0  0  0  0  0  0  0  0  0  0  0
    9.0154  -14.8873   18.5049 C   0  0  0  0  0  0  0  0  0  0  0  0
    7.9612  -14.0477   18.7880 C   0  0  0  0  0  0  0  0  0  0  0  0
    7.3136  -13.7391   17.6259 N   0  0  0  0  0  0  0  0  0  0  0  0
    7.9522  -14.3738   16.6413 C   0  0  0  0  0  0  0  0  0  0  0  0
    8.9937  -15.0763   17.1805 N   0  0  0  0  0  0  0  0  0  0  0  0
    9.9632  -15.4562   21.8637 C   0  0  0  0  0  0  0  0  0  0  0  0
    9.5377  -14.3549   22.2971 O   0  0  0  0  0  0  0  0  0  0  0  0
    9.9366  -16.7101   24.5229 C   0  0  0  0  0  0  0  0  0  0  0  0
   11.1538  -15.9909   23.9504 C   0  0  2  0  0  0  0  0  0  0  0  0
   11.0618  -16.0702   22.5238 N   0  0  0  0  0  0  0  0  0  0  0  0
   12.3901  -16.6043   24.4809 C   0  0  0  0  0  0  0  0  0  0  0  0
   13.0626  -17.4248   23.8087 O   0  0  0  0  0  0  0  0  0  0  0  0
   12.8397  -16.2822   25.7498 O   0  0  0  0  0  0  0  0  0  0  0  0
  2  1  1  6
  2  5  1  0
  2  3  1  0
  3  4  1  0
  5  7  1  0
  6  5  2  0
  7  8  1  0
  8 15  1  0
  9 10  1  0
  8  9  1  6
 10 11  2  0
 12 11  1  0
 13 12  1  0
 14 13  2  0
 14 10  1  0
 15 16  2  0
 15 19  1  0
 18 17  1  1
 18 20  1  0
 19 18  1  0
 20 22  1  0
 21 20  2  0
M  END
$$$$
