CHA.pdb
     RDKit          3D

 22 22  0  0  1  0  0  0  0  0999 V2000
    8.2640  -15.1632   16.0190 N   0  0  0  0  0  0  0  0  0  0  0  0
    9.1145  -14.7994   17.1268 C   0  0  1  0  0  0  0  0  0  0  0  0
    9.0612  -13.3045   17.3026 C   0  0  0  0  0  0  0  0  0  0  0  0
    7.3835  -12.9039   17.9066 S   0  0  0  0  0  0  0  0  0  0  0  0
    8.7303  -15.5317   18.3621 C   0  0  0  0  0  0  0  0  0  0  0  0
    7.5754  -15.9991   18.4364 O   0  0  0  0  0  0  0  0  0  0  0  0
    9.6227  -15.7169   19.4514 N   0  0  0  0  0  0  0  0  0  0  0  0
    9.2649  -16.5498   20.5720 C   0  0  1  0  0  0  0  0  0  0  0  0
   10.1428  -17.7893   20.6455 C   0  0  0  0  0  0  0  0  0  0  0  0
    9.7542  -18.8332   19.7084 C   0  0  0  0  0  0  0  0  0  0  0  0
    8.4781  -19.2777   19.4431 C   0  0  0  0  0  0  0  0  0  0  0  0
    8.5378  -20.2670   18.5034 N   0  0  0  0  0  0  0  0  0  0  0  0
    9.8243  -20.4336   18.1915 C   0  0  0  0  0  0  0  0  0  0  0  0
   10.5680  -19.5554   18.9297 N   0  0  0  0  0  0  0  0  0  0  0  0
    9.4910  -15.8169   21.8705 C   0  0  0  0  0  0  0  0  0  0  0  0
   10.5716  -15.2008   22.0561 O   0  0  0  0  0  0  0  0  0  0  0  0
    7.3986  -14.7045   24.6978 C   0  0  0  0  0  0  0  0  0  0  0  0
    8.7558  -15.0370   24.0861 C   0  0  2  0  0  0  0  0  0  0  0  0
    8.5115  -15.8010   22.9002 N   0  0  0  0  0  0  0  0  0  0  0  0
    9.5839  -15.7604   25.0746 C   0  0  0  0  0  0  0  0  0  0  0  0
    9.8520  -16.9807   24.9464 O   0  0  0  0  0  0  0  0  0  0  0  0
   10.0893  -15.0977   26.1797 O   0  0  0  0  0  0  0  0  0  0  0  0
  2  1  1  6
  2  5  1  0
  2  3  1  0
  3  4  1  0
  5  7  1  0
  6  5  2  0
  7  8  1  0
  8 15  1  0
  9 10  1  0
  8  9  1  1
 10 11  2  0
 12 11  1  0
 13 12  1  0
 14 13  2  0
 14 10  1  0
 15 16  2  0
 15 19  1  0
 18 17  1  1
 18 20  1  0
 19 18  1  0
 20 22  1  0
 21 20  2  0
M  END
$$$$
