CHA.pdb
     RDKit          3D

 22 22  0  0  1  0  0  0  0  0999 V2000
    8.6651  -18.8332   16.7178 N   0  0  0  0  0  0  0  0  0  0  0  0
    8.2807  -18.9838   18.1008 C   0  0  1  0  0  0  0  0  0  0  0  0
    8.4137  -20.4351   18.4809 C   0  0  0  0  0  0  0  0  0  0  0  0
    6.7299  -21.1449   18.4499 S   0  0  0  0  0  0  0  0  0  0  0  0
    9.0785  -18.0898   18.9805 C   0  0  0  0  0  0  0  0  0  0  0  0
   10.2432  -17.8055   18.6333 O   0  0  0  0  0  0  0  0  0  0  0  0
    8.5673  -17.5520   20.1916 N   0  0  0  0  0  0  0  0  0  0  0  0
    9.3895  -16.7336   21.0469 C   0  0  1  0  0  0  0  0  0  0  0  0
    8.5758  -15.6366   21.7156 C   0  0  0  0  0  0  0  0  0  0  0  0
    8.2932  -14.5076   20.8412 C   0  0  0  0  0  0  0  0  0  0  0  0
    8.7546  -14.3155   19.5580 C   0  0  0  0  0  0  0  0  0  0  0  0
    8.2626  -13.1343   19.0804 N   0  0  0  0  0  0  0  0  0  0  0  0
    7.5111  -12.6038   20.0468 C   0  0  0  0  0  0  0  0  0  0  0  0
    7.5306  -13.4453   21.1242 N   0  0  0  0  0  0  0  0  0  0  0  0
    9.9634  -17.5550   22.1740 C   0  0  0  0  0  0  0  0  0  0  0  0
    9.2247  -18.3640   22.7917 O   0  0  0  0  0  0  0  0  0  0  0  0
   12.8157  -19.2417   23.0240 C   0  0  0  0  0  0  0  0  0  0  0  0
   11.8186  -18.2592   23.6301 C   0  0  2  0  0  0  0  0  0  0  0  0
   11.3257  -17.4417   22.5630 N   0  0  0  0  0  0  0  0  0  0  0  0
   12.4775  -17.4752   24.6966 C   0  0  0  0  0  0  0  0  0  0  0  0
   12.6655  -16.2381   24.5881 O   0  0  0  0  0  0  0  0  0  0  0  0
   12.9078  -18.0976   25.8555 O   0  0  0  0  0  0  0  0  0  0  0  0
  2  1  1  6
  2  5  1  0
  2  3  1  0
  3  4  1  0
  5  7  1  0
  6  5  2  0
  7  8  1  0
  8 15  1  0
  9 10  1  0
  8  9  1  1
 10 11  2  0
 12 11  1  0
 13 12  1  0
 14 13  2  0
 14 10  1  0
 15 16  2  0
 15 19  1  0
 18 17  1  6
 18 20  1  0
 19 18  1  0
 20 22  1  0
 21 20  2  0
M  END
$$$$
