CHA.pdb
     RDKit          3D

 22 22  0  0  1  0  0  0  0  0999 V2000
    5.7148  -16.0403   24.4965 N   0  0  0  0  0  0  0  0  0  0  0  0
    6.8826  -15.2279   24.2530 C   0  0  1  0  0  0  0  0  0  0  0  0
    7.5724  -14.9723   25.5673 C   0  0  0  0  0  0  0  0  0  0  0  0
    6.5567  -13.7478   26.4668 S   0  0  0  0  0  0  0  0  0  0  0  0
    7.7805  -15.8637   23.2533 C   0  0  0  0  0  0  0  0  0  0  0  0
    7.7519  -17.1063   23.1400 O   0  0  0  0  0  0  0  0  0  0  0  0
    8.6620  -15.1142   22.4297 N   0  0  0  0  0  0  0  0  0  0  0  0
    9.5825  -15.7707   21.5357 C   0  0  1  0  0  0  0  0  0  0  0  0
   10.0988  -14.8161   20.4706 C   0  0  0  0  0  0  0  0  0  0  0  0
    9.1303  -14.5388   19.4198 C   0  0  0  0  0  0  0  0  0  0  0  0
    8.0154  -15.2817   19.1013 C   0  0  0  0  0  0  0  0  0  0  0  0
    7.3683  -14.6872   18.0558 N   0  0  0  0  0  0  0  0  0  0  0  0
    8.0667  -13.5976   17.7316 C   0  0  0  0  0  0  0  0  0  0  0  0
    9.1451  -13.5077   18.5672 N   0  0  0  0  0  0  0  0  0  0  0  0
   10.8046  -16.2401   22.2844 C   0  0  0  0  0  0  0  0  0  0  0  0
   11.6574  -15.4001   22.6702 O   0  0  0  0  0  0  0  0  0  0  0  0
   11.7983  -19.1732   24.1960 C   0  0  0  0  0  0  0  0  0  0  0  0
   12.1910  -17.9990   23.3051 C   0  0  2  0  0  0  0  0  0  0  0  0
   11.0241  -17.6150   22.5698 N   0  0  0  0  0  0  0  0  0  0  0  0
   13.3169  -18.3918   22.4308 C   0  0  0  0  0  0  0  0  0  0  0  0
   13.1691  -18.5530   21.1941 O   0  0  0  0  0  0  0  0  0  0  0  0
   14.5777  -18.5933   22.9653 O   0  0  0  0  0  0  0  0  0  0  0  0
  2  1  1  1
  2  5  1  0
  2  3  1  0
  3  4  1  0
  5  7  1  0
  6  5  2  0
  7  8  1  0
  8 15  1  0
  9 10  1  0
  8  9  1  6
 10 11  2  0
 12 11  1  0
 13 12  1  0
 14 13  2  0
 14 10  1  0
 15 16  2  0
 15 19  1  0
 18 17  1  1
 18 20  1  0
 19 18  1  0
 20 22  1  0
 21 20  2  0
M  END
$$$$
