CHA.pdb
     RDKit          3D

 22 22  0  0  1  0  0  0  0  0999 V2000
    7.9233  -13.7178   17.3897 N   0  0  0  0  0  0  0  0  0  0  0  0
    8.9727  -13.2323   18.2534 C   0  0  1  0  0  0  0  0  0  0  0  0
    8.3443  -12.6501   19.4921 C   0  0  0  0  0  0  0  0  0  0  0  0
    7.4644  -14.0160   20.3290 S   0  0  0  0  0  0  0  0  0  0  0  0
    9.9531  -14.3058   18.5635 C   0  0  0  0  0  0  0  0  0  0  0  0
    9.6553  -15.4811   18.2670 O   0  0  0  0  0  0  0  0  0  0  0  0
   11.2058  -14.0443   19.1796 N   0  0  0  0  0  0  0  0  0  0  0  0
   12.1139  -15.1163   19.5017 C   0  0  1  0  0  0  0  0  0  0  0  0
   13.5617  -14.6553   19.4399 C   0  0  0  0  0  0  0  0  0  0  0  0
   14.1628  -14.8024   18.1223 C   0  0  0  0  0  0  0  0  0  0  0  0
   13.8756  -15.7663   17.1817 C   0  0  0  0  0  0  0  0  0  0  0  0
   14.6545  -15.5584   16.0793 N   0  0  0  0  0  0  0  0  0  0  0  0
   15.4099  -14.4875   16.3299 C   0  0  0  0  0  0  0  0  0  0  0  0
   15.1080  -14.0255   17.5807 N   0  0  0  0  0  0  0  0  0  0  0  0
   11.8992  -15.5849   20.9189 C   0  0  0  0  0  0  0  0  0  0  0  0
   11.7810  -14.7387   21.8418 O   0  0  0  0  0  0  0  0  0  0  0  0
   11.0774  -18.8159   22.5465 C   0  0  0  0  0  0  0  0  0  0  0  0
   11.4986  -17.3504   22.5864 C   0  0  2  0  0  0  0  0  0  0  0  0
   11.8256  -16.9659   21.2466 N   0  0  0  0  0  0  0  0  0  0  0  0
   12.6295  -17.1825   23.5240 C   0  0  0  0  0  0  0  0  0  0  0  0
   13.7918  -16.9307   23.1202 O   0  0  0  0  0  0  0  0  0  0  0  0
   12.4280  -17.3010   24.8882 O   0  0  0  0  0  0  0  0  0  0  0  0
  2  1  1  6
  2  5  1  0
  2  3  1  0
  3  4  1  0
  5  7  1  0
  6  5  2  0
  7  8  1  0
  8 15  1  0
  9 10  1  0
  8  9  1  1
 10 11  2  0
 12 11  1  0
 13 12  1  0
 14 13  2  0
 14 10  1  0
 15 16  2  0
 15 19  1  0
 18 17  1  6
 18 20  1  0
 19 18  1  0
 20 22  1  0
 21 20  2  0
M  END
$$$$
