CHA.pdb
     RDKit          3D

 22 22  0  0  1  0  0  0  0  0999 V2000
   10.0288  -19.3962   17.4025 N   0  0  0  0  0  0  0  0  0  0  0  0
    9.1179  -18.9732   18.4390 C   0  0  1  0  0  0  0  0  0  0  0  0
    8.6692  -20.1875   19.2089 C   0  0  0  0  0  0  0  0  0  0  0  0
   10.1420  -20.8380   20.0734 S   0  0  0  0  0  0  0  0  0  0  0  0
    9.7389  -17.9431   19.3125 C   0  0  0  0  0  0  0  0  0  0  0  0
   10.9285  -17.6294   19.1016 O   0  0  0  0  0  0  0  0  0  0  0  0
    9.0333  -17.3087   20.3692 N   0  0  0  0  0  0  0  0  0  0  0  0
    9.6688  -16.3121   21.1942 C   0  0  1  0  0  0  0  0  0  0  0  0
    8.6840  -15.2355   21.6228 C   0  0  0  0  0  0  0  0  0  0  0  0
    8.4283  -14.2386   20.5934 C   0  0  0  0  0  0  0  0  0  0  0  0
    9.0260  -14.1510   19.3558 C   0  0  0  0  0  0  0  0  0  0  0  0
    8.5114  -13.0765   18.6882 N   0  0  0  0  0  0  0  0  0  0  0  0
    7.6128  -12.5083   19.4943 C   0  0  0  0  0  0  0  0  0  0  0  0
    7.5627  -13.2205   20.6602 N   0  0  0  0  0  0  0  0  0  0  0  0
   10.1759  -16.9284   22.4738 C   0  0  0  0  0  0  0  0  0  0  0  0
    9.4562  -17.7523   23.0944 O   0  0  0  0  0  0  0  0  0  0  0  0
   12.1378  -18.7705   23.7188 C   0  0  0  0  0  0  0  0  0  0  0  0
   11.9395  -17.3196   24.1456 C   0  0  2  0  0  0  0  0  0  0  0  0
   11.4537  -16.6038   23.0047 N   0  0  0  0  0  0  0  0  0  0  0  0
   13.2118  -16.7750   24.6659 C   0  0  0  0  0  0  0  0  0  0  0  0
   13.7853  -15.7990   24.1217 O   0  0  0  0  0  0  0  0  0  0  0  0
   13.8073  -17.3380   25.7813 O   0  0  0  0  0  0  0  0  0  0  0  0
  2  1  1  6
  2  5  1  0
  2  3  1  0
  3  4  1  0
  5  7  1  0
  6  5  2  0
  7  8  1  0
  8 15  1  0
  9 10  1  0
  8  9  1  1
 10 11  2  0
 12 11  1  0
 13 12  1  0
 14 13  2  0
 14 10  1  0
 15 16  2  0
 15 19  1  0
 18 17  1  6
 18 20  1  0
 19 18  1  0
 20 22  1  0
 21 20  2  0
M  END
$$$$
