YYI.pdb
     RDKit          3D

 33 34  0  0  1  0  0  0  0  0999 V2000
   29.6895  -16.6169  -21.0593 O   0  0  0  0  0  0  0  0  0  0  0  0
   28.9003  -17.2966  -20.1235 C   0  0  0  0  0  0  0  0  0  0  0  0
   27.6800  -17.8479  -20.5110 C   0  0  0  0  0  0  0  0  0  0  0  0
   26.8821  -18.5285  -19.5889 C   0  0  0  0  0  0  0  0  0  0  0  0
   27.3116  -18.6510  -18.2902 C   0  0  0  0  0  0  0  0  0  0  0  0
   26.5005  -19.3641  -17.2751 C   0  0  0  0  0  0  0  0  0  0  0  0
   27.2799  -20.5880  -16.8560 C   0  0  2  0  0  0  0  0  0  0  0  0
   27.2362  -21.5475  -17.9251 N   0  0  0  0  0  0  0  0  0  0  0  0
   26.7180  -21.2132  -15.6221 C   0  0  0  0  0  0  0  0  0  0  0  0
   25.8043  -22.0441  -15.7176 O   0  0  0  0  0  0  0  0  0  0  0  0
   28.5266  -18.0955  -17.9284 C   0  0  0  0  0  0  0  0  0  0  0  0
   29.3194  -17.4235  -18.8290 C   0  0  0  0  0  0  0  0  0  0  0  0
   23.8978  -20.6675   -7.3531 O   0  0  0  0  0  0  0  0  0  0  0  0
   24.7147  -20.6541   -8.4727 C   0  0  0  0  0  0  0  0  0  0  0  0
   25.1776  -19.4528   -8.9817 C   0  0  0  0  0  0  0  0  0  0  0  0
   25.9872  -19.4292  -10.0901 C   0  0  0  0  0  0  0  0  0  0  0  0
   26.3207  -20.6377  -10.6745 C   0  0  0  0  0  0  0  0  0  0  0  0
   27.2046  -20.5731  -11.8803 C   0  0  0  0  0  0  0  0  0  0  0  0
   26.4995  -21.0275  -13.1158 C   0  0  2  0  0  0  0  0  0  0  0  0
   27.2181  -20.8679  -14.3293 N   0  0  0  0  0  0  0  0  0  0  0  0
   25.1505  -20.3584  -13.1282 C   0  0  0  0  0  0  0  0  0  0  0  0
   25.1122  -19.1204  -13.3184 O   0  0  0  0  0  0  0  0  0  0  0  0
   25.8552  -21.8306  -10.1608 C   0  0  0  0  0  0  0  0  0  0  0  0
   25.0403  -21.8541   -9.0452 C   0  0  0  0  0  0  0  0  0  0  0  0
   20.0120  -20.0991  -15.8053 C   0  0  0  0  0  0  0  0  0  0  0  0
   20.6681  -20.0133  -14.4787 C   0  0  0  0  0  0  0  0  0  0  0  0
   22.0312  -20.5520  -14.3375 C   0  0  2  0  0  0  0  0  0  0  0  0
   22.2962  -21.8589  -15.0405 C   0  0  0  0  0  0  0  0  0  0  0  0
   22.6169  -20.4036  -12.9879 C   0  0  2  0  0  0  0  0  0  0  0  0
   23.9537  -21.0469  -12.9399 N   0  0  0  0  0  0  0  0  0  0  0  0
   21.8719  -20.9012  -11.8438 C   0  0  0  0  0  0  0  0  0  0  0  0
   22.0480  -22.2369  -11.4250 O   0  0  0  0  0  0  0  0  0  0  0  0
   21.0506  -20.2550  -11.1492 O   0  0  0  0  0  0  0  0  0  0  0  0
  2  3  2  0
  2  1  1  0
  4  3  1  0
  5  4  2  0
  6  5  1  0
  7  6  1  0
  7  8  1  6
  9 10  2  0
  9  7  1  0
 11  5  1  0
 11 12  2  0
 12  2  1  0
 14 13  1  0
 15 14  2  0
 16 15  1  0
 17 23  1  0
 17 16  2  0
 18 17  1  0
 19 18  1  1
 19 20  1  0
 20  9  1  0
 21 30  1  0
 21 19  1  0
 22 21  2  0
 23 24  2  0
 24 14  1  0
 26 27  1  0
 26 25  1  0
 27 28  1  1
 27 29  1  0
 29 30  1  6
 29 31  1  0
 31 32  1  0
 33 31  2  0
M  END
$$$$
