YYI.pdb
     RDKit          3D

 33 34  0  0  1  0  0  0  0  0999 V2000
   31.1771  -17.5261  -20.1529 O   0  0  0  0  0  0  0  0  0  0  0  0
   30.0789  -17.3168  -19.3099 C   0  0  0  0  0  0  0  0  0  0  0  0
   29.7868  -16.0330  -18.8522 C   0  0  0  0  0  0  0  0  0  0  0  0
   28.6949  -15.8089  -18.0110 C   0  0  0  0  0  0  0  0  0  0  0  0
   27.9068  -16.8694  -17.6363 C   0  0  0  0  0  0  0  0  0  0  0  0
   26.7372  -16.6823  -16.7453 C   0  0  0  0  0  0  0  0  0  0  0  0
   25.5035  -17.0304  -17.5441 C   0  0  2  0  0  0  0  0  0  0  0  0
   25.2628  -15.9811  -18.4963 N   0  0  0  0  0  0  0  0  0  0  0  0
   24.2987  -17.1804  -16.6752 C   0  0  0  0  0  0  0  0  0  0  0  0
   23.8324  -16.1887  -16.0977 O   0  0  0  0  0  0  0  0  0  0  0  0
   28.2160  -18.1351  -18.1031 C   0  0  0  0  0  0  0  0  0  0  0  0
   29.2890  -18.3659  -18.9317 C   0  0  0  0  0  0  0  0  0  0  0  0
   19.9334  -13.7638  -18.5897 O   0  0  0  0  0  0  0  0  0  0  0  0
   20.2584  -14.9903  -18.0320 C   0  0  0  0  0  0  0  0  0  0  0  0
   19.8322  -15.3080  -16.7537 C   0  0  0  0  0  0  0  0  0  0  0  0
   20.1491  -16.5201  -16.1926 C   0  0  0  0  0  0  0  0  0  0  0  0
   20.9025  -17.4044  -16.9434 C   0  0  0  0  0  0  0  0  0  0  0  0
   21.2284  -18.7153  -16.2996 C   0  0  0  0  0  0  0  0  0  0  0  0
   22.5687  -18.6974  -15.6412 C   0  0  2  0  0  0  0  0  0  0  0  0
   23.6731  -18.4523  -16.4984 N   0  0  0  0  0  0  0  0  0  0  0  0
   22.6945  -19.9762  -14.8560 C   0  0  0  0  0  0  0  0  0  0  0  0
   22.9554  -21.0274  -15.4862 O   0  0  0  0  0  0  0  0  0  0  0  0
   21.3232  -17.0800  -18.2166 C   0  0  0  0  0  0  0  0  0  0  0  0
   21.0042  -15.8598  -18.7813 C   0  0  0  0  0  0  0  0  0  0  0  0
   24.7838  -20.2587   -9.6465 C   0  0  0  0  0  0  0  0  0  0  0  0
   23.6917  -20.3167  -10.6473 C   0  0  0  0  0  0  0  0  0  0  0  0
   23.8498  -21.2161  -11.8024 C   0  0  2  0  0  0  0  0  0  0  0  0
   25.1943  -21.1793  -12.4831 C   0  0  0  0  0  0  0  0  0  0  0  0
   22.6688  -21.2962  -12.6886 C   0  0  2  0  0  0  0  0  0  0  0  0
   22.5356  -20.0432  -13.4732 N   0  0  0  0  0  0  0  0  0  0  0  0
   21.3677  -21.5598  -12.0975 C   0  0  0  0  0  0  0  0  0  0  0  0
   21.1025  -22.8250  -11.5323 O   0  0  0  0  0  0  0  0  0  0  0  0
   20.4042  -20.7592  -12.0257 O   0  0  0  0  0  0  0  0  0  0  0  0
  2  3  2  0
  2  1  1  0
  4  3  1  0
  5  4  2  0
  6  5  1  0
  7  6  1  0
  7  8  1  6
  9 10  2  0
  9  7  1  0
 11  5  1  0
 11 12  2  0
 12  2  1  0
 14 13  1  0
 15 14  2  0
 16 15  1  0
 17 23  1  0
 17 16  2  0
 18 17  1  0
 19 18  1  6
 19 20  1  0
 20  9  1  0
 21 30  1  0
 21 19  1  0
 22 21  2  0
 23 24  2  0
 24 14  1  0
 26 27  1  0
 26 25  1  0
 27 28  1  6
 27 29  1  0
 29 30  1  1
 29 31  1  0
 31 32  1  0
 33 31  2  0
M  END
$$$$
