YYI.pdb
     RDKit          3D

 33 34  0  0  1  0  0  0  0  0999 V2000
   17.2879  -12.4223  -15.6983 O   0  0  0  0  0  0  0  0  0  0  0  0
   17.8841  -11.1831  -15.4344 C   0  0  0  0  0  0  0  0  0  0  0  0
   18.2708  -10.8588  -14.1350 C   0  0  0  0  0  0  0  0  0  0  0  0
   18.8665   -9.6269  -13.8566 C   0  0  0  0  0  0  0  0  0  0  0  0
   19.0695   -8.7325  -14.8789 C   0  0  0  0  0  0  0  0  0  0  0  0
   19.6979   -7.4127  -14.6336 C   0  0  0  0  0  0  0  0  0  0  0  0
   21.0107   -7.3944  -15.3800 C   0  0  2  0  0  0  0  0  0  0  0  0
   21.9537   -8.2134  -14.6690 N   0  0  0  0  0  0  0  0  0  0  0  0
   21.5652   -6.0135  -15.5021 C   0  0  0  0  0  0  0  0  0  0  0  0
   22.2446   -5.5422  -14.5797 O   0  0  0  0  0  0  0  0  0  0  0  0
   18.6775   -9.0762  -16.1610 C   0  0  0  0  0  0  0  0  0  0  0  0
   18.0902  -10.2867  -16.4452 C   0  0  0  0  0  0  0  0  0  0  0  0
   26.6181   -7.2951  -19.0944 O   0  0  0  0  0  0  0  0  0  0  0  0
   25.6026   -6.3821  -18.8571 C   0  0  0  0  0  0  0  0  0  0  0  0
   24.2934   -6.6993  -19.1762 C   0  0  0  0  0  0  0  0  0  0  0  0
   23.2808   -5.8017  -18.9450 C   0  0  0  0  0  0  0  0  0  0  0  0
   23.6126   -4.5804  -18.3868 C   0  0  0  0  0  0  0  0  0  0  0  0
   22.4832   -3.6278  -18.1491 C   0  0  0  0  0  0  0  0  0  0  0  0
   21.7880   -3.8961  -16.8550 C   0  0  2  0  0  0  0  0  0  0  0  0
   21.3246   -5.2246  -16.6683 N   0  0  0  0  0  0  0  0  0  0  0  0
   20.7049   -2.8599  -16.7101 C   0  0  0  0  0  0  0  0  0  0  0  0
   19.6292   -3.0468  -17.3251 O   0  0  0  0  0  0  0  0  0  0  0  0
   24.9199   -4.2722  -18.0717 C   0  0  0  0  0  0  0  0  0  0  0  0
   25.9391   -5.1757  -18.3045 C   0  0  0  0  0  0  0  0  0  0  0  0
   17.7354    0.3413  -12.6491 C   0  0  0  0  0  0  0  0  0  0  0  0
   18.3068    0.3218  -14.0168 C   0  0  0  0  0  0  0  0  0  0  0  0
   19.3445   -0.6760  -14.3263 C   0  0  2  0  0  0  0  0  0  0  0  0
   20.4393   -0.8234  -13.3005 C   0  0  0  0  0  0  0  0  0  0  0  0
   19.7655   -0.7097  -15.7433 C   0  0  2  0  0  0  0  0  0  0  0  0
   20.8429   -1.7134  -15.9301 N   0  0  0  0  0  0  0  0  0  0  0  0
   20.2271    0.5200  -16.3651 C   0  0  0  0  0  0  0  0  0  0  0  0
   19.2928    1.5184  -16.7128 O   0  0  0  0  0  0  0  0  0  0  0  0
   21.4142    0.8157  -16.6439 O   0  0  0  0  0  0  0  0  0  0  0  0
  2  3  2  0
  2  1  1  0
  4  3  1  0
  5  4  2  0
  6  5  1  0
  7  6  1  0
  7  8  1  1
  9 10  2  0
  9  7  1  0
 11  5  1  0
 11 12  2  0
 12  2  1  0
 14 13  1  0
 15 14  2  0
 16 15  1  0
 17 23  1  0
 17 16  2  0
 18 17  1  0
 19 18  1  6
 19 20  1  0
 20  9  1  0
 21 30  1  0
 21 19  1  0
 22 21  2  0
 23 24  2  0
 24 14  1  0
 26 27  1  0
 26 25  1  0
 27 28  1  1
 27 29  1  0
 29 30  1  1
 29 31  1  0
 31 32  1  0
 33 31  2  0
M  END
$$$$
