YYI.pdb
     RDKit          3D

 33 34  0  0  1  0  0  0  0  0999 V2000
   16.5485  -24.8269  -11.5255 O   0  0  0  0  0  0  0  0  0  0  0  0
   17.6688  -24.0571  -11.8616 C   0  0  0  0  0  0  0  0  0  0  0  0
   18.9450  -24.4942  -11.5104 C   0  0  0  0  0  0  0  0  0  0  0  0
   20.0716  -23.7373  -11.8388 C   0  0  0  0  0  0  0  0  0  0  0  0
   19.9113  -22.5523  -12.5143 C   0  0  0  0  0  0  0  0  0  0  0  0
   21.0759  -21.7139  -12.8851 C   0  0  0  0  0  0  0  0  0  0  0  0
   21.7093  -21.2317  -11.6016 C   0  0  2  0  0  0  0  0  0  0  0  0
   20.8398  -20.2591  -10.9986 N   0  0  0  0  0  0  0  0  0  0  0  0
   23.0443  -20.6062  -11.8375 C   0  0  0  0  0  0  0  0  0  0  0  0
   23.1173  -19.3975  -12.0982 O   0  0  0  0  0  0  0  0  0  0  0  0
   18.6346  -22.1384  -12.8526 C   0  0  0  0  0  0  0  0  0  0  0  0
   17.5191  -22.8767  -12.5336 C   0  0  0  0  0  0  0  0  0  0  0  0
   26.8508  -19.3312   -6.0641 O   0  0  0  0  0  0  0  0  0  0  0  0
   26.8033  -19.8488   -7.3489 C   0  0  0  0  0  0  0  0  0  0  0  0
   26.5892  -21.2023   -7.5461 C   0  0  0  0  0  0  0  0  0  0  0  0
   26.5405  -21.7244   -8.8147 C   0  0  0  0  0  0  0  0  0  0  0  0
   26.7115  -20.8577   -9.8790 C   0  0  0  0  0  0  0  0  0  0  0  0
   26.6522  -21.4622  -11.2466 C   0  0  0  0  0  0  0  0  0  0  0  0
   25.5407  -20.8900  -12.0635 C   0  0  2  0  0  0  0  0  0  0  0  0
   24.2423  -21.3810  -11.7672 N   0  0  0  0  0  0  0  0  0  0  0  0
   25.9246  -21.0523  -13.5106 C   0  0  0  0  0  0  0  0  0  0  0  0
   25.6271  -22.1289  -14.0785 O   0  0  0  0  0  0  0  0  0  0  0  0
   26.9244  -19.5101   -9.6738 C   0  0  0  0  0  0  0  0  0  0  0  0
   26.9734  -18.9846   -8.3968 C   0  0  0  0  0  0  0  0  0  0  0  0
   28.8060  -17.0712  -16.8056 C   0  0  0  0  0  0  0  0  0  0  0  0
   28.3226  -18.1556  -15.9179 C   0  0  0  0  0  0  0  0  0  0  0  0
   27.0839  -18.8608  -16.2873 C   0  0  2  0  0  0  0  0  0  0  0  0
   25.8404  -18.0112  -16.3539 C   0  0  0  0  0  0  0  0  0  0  0  0
   26.9308  -20.1996  -15.6788 C   0  0  2  0  0  0  0  0  0  0  0  0
   26.5893  -20.0686  -14.2402 N   0  0  0  0  0  0  0  0  0  0  0  0
   28.0387  -21.1364  -15.7620 C   0  0  0  0  0  0  0  0  0  0  0  0
   28.3551  -21.7334  -17.0005 O   0  0  0  0  0  0  0  0  0  0  0  0
   28.7845  -21.4962  -14.8192 O   0  0  0  0  0  0  0  0  0  0  0  0
  2  3  2  0
  2  1  1  0
  4  3  1  0
  5  4  2  0
  6  5  1  0
  7  6  1  0
  7  8  1  6
  9 10  2  0
  9  7  1  0
 11  5  1  0
 11 12  2  0
 12  2  1  0
 14 13  1  0
 15 14  2  0
 16 15  1  0
 17 23  1  0
 17 16  2  0
 18 17  1  0
 19 18  1  1
 19 20  1  0
 20  9  1  0
 21 30  1  0
 21 19  1  0
 22 21  2  0
 23 24  2  0
 24 14  1  0
 26 27  1  0
 26 25  1  0
 27 28  1  1
 27 29  1  0
 29 30  1  1
 29 31  1  0
 31 32  1  0
 33 31  2  0
M  END
$$$$
