YYI.pdb
     RDKit          3D

 33 34  0  0  1  0  0  0  0  0999 V2000
   28.4659  -19.9046   -4.6527 O   0  0  0  0  0  0  0  0  0  0  0  0
   28.1634  -19.8657   -6.0193 C   0  0  0  0  0  0  0  0  0  0  0  0
   29.1614  -20.1119   -6.9609 C   0  0  0  0  0  0  0  0  0  0  0  0
   28.8747  -20.0765   -8.3271 C   0  0  0  0  0  0  0  0  0  0  0  0
   27.5946  -19.7957   -8.7379 C   0  0  0  0  0  0  0  0  0  0  0  0
   27.2411  -19.7468  -10.1765 C   0  0  0  0  0  0  0  0  0  0  0  0
   26.6147  -21.0747  -10.5307 C   0  0  2  0  0  0  0  0  0  0  0  0
   27.6569  -22.0583  -10.6406 N   0  0  0  0  0  0  0  0  0  0  0  0
   25.8689  -21.0143  -11.8227 C   0  0  0  0  0  0  0  0  0  0  0  0
   26.4730  -21.1989  -12.8882 O   0  0  0  0  0  0  0  0  0  0  0  0
   26.6201  -19.5547   -7.7851 C   0  0  0  0  0  0  0  0  0  0  0  0
   26.8925  -19.5872   -6.4376 C   0  0  0  0  0  0  0  0  0  0  0  0
   26.8809  -24.1068  -17.3903 O   0  0  0  0  0  0  0  0  0  0  0  0
   26.0535  -23.7362  -16.3419 C   0  0  0  0  0  0  0  0  0  0  0  0
   24.8513  -23.0985  -16.5965 C   0  0  0  0  0  0  0  0  0  0  0  0
   24.0251  -22.7276  -15.5649 C   0  0  0  0  0  0  0  0  0  0  0  0
   24.4330  -23.0113  -14.2741 C   0  0  0  0  0  0  0  0  0  0  0  0
   23.5071  -22.5925  -13.1756 C   0  0  0  0  0  0  0  0  0  0  0  0
   23.5913  -21.1270  -12.9012 C   0  0  2  0  0  0  0  0  0  0  0  0
   24.4661  -20.7461  -11.8504 N   0  0  0  0  0  0  0  0  0  0  0  0
   22.1824  -20.6287  -12.7154 C   0  0  0  0  0  0  0  0  0  0  0  0
   21.6803  -20.7048  -11.5698 O   0  0  0  0  0  0  0  0  0  0  0  0
   25.6326  -23.6472  -14.0290 C   0  0  0  0  0  0  0  0  0  0  0  0
   26.4642  -24.0205  -15.0674 C   0  0  0  0  0  0  0  0  0  0  0  0
   19.2804  -17.8152  -16.9502 C   0  0  0  0  0  0  0  0  0  0  0  0
   19.5858  -18.8123  -15.8967 C   0  0  0  0  0  0  0  0  0  0  0  0
   19.9666  -18.3231  -14.5610 C   0  0  2  0  0  0  0  0  0  0  0  0
   20.9777  -17.2053  -14.5356 C   0  0  0  0  0  0  0  0  0  0  0  0
   20.1328  -19.3802  -13.5406 C   0  0  2  0  0  0  0  0  0  0  0  0
   21.4187  -20.0915  -13.7498 N   0  0  0  0  0  0  0  0  0  0  0  0
   19.1056  -20.4007  -13.4172 C   0  0  0  0  0  0  0  0  0  0  0  0
   19.3785  -21.7188  -13.8400 O   0  0  0  0  0  0  0  0  0  0  0  0
   17.9486  -20.2438  -12.9577 O   0  0  0  0  0  0  0  0  0  0  0  0
  2  3  2  0
  2  1  1  0
  4  3  1  0
  5  4  2  0
  6  5  1  0
  7  6  1  0
  7  8  1  6
  9 10  2  0
  9  7  1  0
 11  5  1  0
 11 12  2  0
 12  2  1  0
 14 13  1  0
 15 14  2  0
 16 15  1  0
 17 23  1  0
 17 16  2  0
 18 17  1  0
 19 18  1  1
 19 20  1  0
 20  9  1  0
 21 30  1  0
 21 19  1  0
 22 21  2  0
 23 24  2  0
 24 14  1  0
 26 27  1  0
 26 25  1  0
 27 28  1  6
 27 29  1  0
 29 30  1  6
 29 31  1  0
 31 32  1  0
 33 31  2  0
M  END
$$$$
