YYI.pdb
     RDKit          3D

 33 34  0  0  1  0  0  0  0  0999 V2000
   21.9129  -18.1801  -18.1841 O   0  0  0  0  0  0  0  0  0  0  0  0
   22.2613  -18.7611  -16.9587 C   0  0  0  0  0  0  0  0  0  0  0  0
   21.9320  -20.0906  -16.6994 C   0  0  0  0  0  0  0  0  0  0  0  0
   22.2729  -20.6835  -15.4820 C   0  0  0  0  0  0  0  0  0  0  0  0
   22.9388  -19.9423  -14.5369 C   0  0  0  0  0  0  0  0  0  0  0  0
   23.3222  -20.5268  -13.2299 C   0  0  0  0  0  0  0  0  0  0  0  0
   24.8126  -20.7684  -13.2655 C   0  0  2  0  0  0  0  0  0  0  0  0
   25.0816  -21.8380  -14.1871 N   0  0  0  0  0  0  0  0  0  0  0  0
   25.3511  -21.1399  -11.9234 C   0  0  0  0  0  0  0  0  0  0  0  0
   25.0623  -22.2387  -11.4300 O   0  0  0  0  0  0  0  0  0  0  0  0
   23.2554  -18.6242  -14.8164 C   0  0  0  0  0  0  0  0  0  0  0  0
   22.9241  -18.0314  -16.0122 C   0  0  0  0  0  0  0  0  0  0  0  0
   28.4967  -19.8081   -3.8489 O   0  0  0  0  0  0  0  0  0  0  0  0
   28.3234  -19.7714   -5.2235 C   0  0  0  0  0  0  0  0  0  0  0  0
   27.6272  -18.7280   -5.8093 C   0  0  0  0  0  0  0  0  0  0  0  0
   27.4503  -18.6828   -7.1699 C   0  0  0  0  0  0  0  0  0  0  0  0
   27.9877  -19.7078   -7.9274 C   0  0  0  0  0  0  0  0  0  0  0  0
   27.7751  -19.6251   -9.4063 C   0  0  0  0  0  0  0  0  0  0  0  0
   26.5985  -20.4316   -9.8484 C   0  0  2  0  0  0  0  0  0  0  0  0
   26.1962  -20.2464  -11.1969 N   0  0  0  0  0  0  0  0  0  0  0  0
   25.4931  -20.1843   -8.8562 C   0  0  0  0  0  0  0  0  0  0  0  0
   25.0077  -19.0306   -8.7951 O   0  0  0  0  0  0  0  0  0  0  0  0
   28.6802  -20.7440   -7.3357 C   0  0  0  0  0  0  0  0  0  0  0  0
   28.8582  -20.7893   -5.9662 C   0  0  0  0  0  0  0  0  0  0  0  0
   21.0128  -21.0642   -9.5284 C   0  0  0  0  0  0  0  0  0  0  0  0
   22.2646  -20.6616   -8.8440 C   0  0  0  0  0  0  0  0  0  0  0  0
   22.6067  -21.3175   -7.5708 C   0  0  2  0  0  0  0  0  0  0  0  0
   21.4764  -21.4642   -6.5842 C   0  0  0  0  0  0  0  0  0  0  0  0
   23.9194  -20.9312   -7.0105 C   0  0  2  0  0  0  0  0  0  0  0  0
   24.9898  -21.1709   -8.0106 N   0  0  0  0  0  0  0  0  0  0  0  0
   24.3595  -21.5484   -5.7707 C   0  0  0  0  0  0  0  0  0  0  0  0
   25.3660  -22.5366   -5.8032 O   0  0  0  0  0  0  0  0  0  0  0  0
   23.9317  -21.2965   -4.6184 O   0  0  0  0  0  0  0  0  0  0  0  0
  2  3  2  0
  2  1  1  0
  4  3  1  0
  5  4  2  0
  6  5  1  0
  7  6  1  0
  7  8  1  6
  9 10  2  0
  9  7  1  0
 11  5  1  0
 11 12  2  0
 12  2  1  0
 14 13  1  0
 15 14  2  0
 16 15  1  0
 17 23  1  0
 17 16  2  0
 18 17  1  0
 19 18  1  1
 19 20  1  0
 20  9  1  0
 21 30  1  0
 21 19  1  0
 22 21  2  0
 23 24  2  0
 24 14  1  0
 26 27  1  0
 26 25  1  0
 27 28  1  1
 27 29  1  0
 29 30  1  6
 29 31  1  0
 31 32  1  0
 33 31  2  0
M  END
$$$$
