YYI.pdb
     RDKit          3D

 33 34  0  0  1  0  0  0  0  0999 V2000
   20.6332  -24.3969  -23.6151 O   0  0  0  0  0  0  0  0  0  0  0  0
   21.2788  -23.9441  -22.4581 C   0  0  0  0  0  0  0  0  0  0  0  0
   20.6491  -23.0206  -21.6252 C   0  0  0  0  0  0  0  0  0  0  0  0
   21.2804  -22.5600  -20.4679 C   0  0  0  0  0  0  0  0  0  0  0  0
   22.5337  -23.0267  -20.1553 C   0  0  0  0  0  0  0  0  0  0  0  0
   23.2445  -22.5679  -18.9383 C   0  0  0  0  0  0  0  0  0  0  0  0
   23.4448  -21.0767  -19.0701 C   0  0  2  0  0  0  0  0  0  0  0  0
   24.4926  -20.8376  -20.0243 N   0  0  0  0  0  0  0  0  0  0  0  0
   23.8215  -20.4461  -17.7703 C   0  0  0  0  0  0  0  0  0  0  0  0
   25.0161  -20.3597  -17.4545 O   0  0  0  0  0  0  0  0  0  0  0  0
   23.1394  -23.9432  -20.9971 C   0  0  0  0  0  0  0  0  0  0  0  0
   22.5259  -24.4028  -22.1388 C   0  0  0  0  0  0  0  0  0  0  0  0
   16.7843  -19.6965  -15.4914 O   0  0  0  0  0  0  0  0  0  0  0  0
   18.1169  -19.3178  -15.4516 C   0  0  0  0  0  0  0  0  0  0  0  0
   18.7951  -19.2855  -14.2450 C   0  0  0  0  0  0  0  0  0  0  0  0
   20.1151  -18.9118  -14.1954 C   0  0  0  0  0  0  0  0  0  0  0  0
   20.7373  -18.5720  -15.3830 C   0  0  0  0  0  0  0  0  0  0  0  0
   22.1758  -18.1700  -15.2902 C   0  0  0  0  0  0  0  0  0  0  0  0
   23.0943  -19.2916  -15.6485 C   0  0  2  0  0  0  0  0  0  0  0  0
   22.8240  -19.9392  -16.8822 N   0  0  0  0  0  0  0  0  0  0  0  0
   23.1241  -20.2332  -14.4738 C   0  0  0  0  0  0  0  0  0  0  0  0
   22.6119  -21.3676  -14.6190 O   0  0  0  0  0  0  0  0  0  0  0  0
   20.0542  -18.6068  -16.5812 C   0  0  0  0  0  0  0  0  0  0  0  0
   18.7256  -18.9830  -16.6311 C   0  0  0  0  0  0  0  0  0  0  0  0
   25.6106  -21.0701   -8.9618 C   0  0  0  0  0  0  0  0  0  0  0  0
   25.2824  -21.6334  -10.2932 C   0  0  0  0  0  0  0  0  0  0  0  0
   25.0714  -20.7012  -11.4134 C   0  0  2  0  0  0  0  0  0  0  0  0
   25.5654  -19.2935  -11.1971 C   0  0  0  0  0  0  0  0  0  0  0  0
   23.7666  -20.8403  -12.0948 C   0  0  2  0  0  0  0  0  0  0  0  0
   23.6903  -19.9037  -13.2438 N   0  0  0  0  0  0  0  0  0  0  0  0
   22.5505  -20.6535  -11.3215 C   0  0  0  0  0  0  0  0  0  0  0  0
   21.7629  -19.5015  -11.5290 O   0  0  0  0  0  0  0  0  0  0  0  0
   22.0938  -21.4308  -10.4488 O   0  0  0  0  0  0  0  0  0  0  0  0
  2  3  2  0
  2  1  1  0
  4  3  1  0
  5  4  2  0
  6  5  1  0
  7  6  1  0
  7  8  1  6
  9 10  2  0
  9  7  1  0
 11  5  1  0
 11 12  2  0
 12  2  1  0
 14 13  1  0
 15 14  2  0
 16 15  1  0
 17 23  1  0
 17 16  2  0
 18 17  1  0
 19 18  1  1
 19 20  1  0
 20  9  1  0
 21 30  1  0
 21 19  1  0
 22 21  2  0
 23 24  2  0
 24 14  1  0
 26 27  1  0
 26 25  1  0
 27 28  1  1
 27 29  1  0
 29 30  1  6
 29 31  1  0
 31 32  1  0
 33 31  2  0
M  END
$$$$
