QYP.pdb
     RDKit          3D

 29 30  0  0  1  0  0  0  0  0999 V2000
   15.0978  -16.7852   20.5339 N   0  0  0  0  0  0  0  0  0  0  0  0
   14.9321  -18.2134   20.5917 C   0  0  0  0  0  0  0  0  0  0  0  0
   15.9898  -18.8706   20.6982 O   0  0  0  0  0  0  0  0  0  0  0  0
   13.5695  -18.7552   20.5246 C   0  0  0  0  0  0  0  0  0  0  0  0
   12.6495  -18.3638   21.6293 C   0  0  0  0  0  0  0  0  0  0  0  0
   11.4138  -17.6379   21.2428 C   0  0  2  0  0  0  0  0  0  0  0  0
   11.4297  -17.0264   19.9420 N   0  0  0  0  0  0  0  0  0  0  0  0
   11.0216  -16.6216   22.2892 C   0  0  0  0  0  0  0  0  0  0  0  0
   11.7861  -15.6588   22.5499 O   0  0  0  0  0  0  0  0  0  0  0  0
    5.9030  -11.5118   27.3309 O   0  0  0  0  0  0  0  0  0  0  0  0
    6.4086  -12.4512   26.4374 C   0  0  0  0  0  0  0  0  0  0  0  0
    6.2424  -13.7984   26.6858 C   0  0  0  0  0  0  0  0  0  0  0  0
    6.7361  -14.7470   25.8122 C   0  0  0  0  0  0  0  0  0  0  0  0
    7.4175  -14.3799   24.6527 C   0  0  0  0  0  0  0  0  0  0  0  0
    7.9467  -15.4034   23.7162 C   0  0  0  0  0  0  0  0  0  0  0  0
    9.3981  -15.7137   23.9858 C   0  0  2  0  0  0  0  0  0  0  0  0
    9.8095  -16.7178   22.9937 N   0  0  0  0  0  0  0  0  0  0  0  0
    9.6471  -16.2226   25.3303 C   0  0  0  0  0  0  0  0  0  0  0  0
    9.6862  -17.4841   25.4882 O   0  0  0  0  0  0  0  0  0  0  0  0
    7.5599  -13.0236   24.4453 C   0  0  0  0  0  0  0  0  0  0  0  0
    7.0772  -12.0631   25.3003 C   0  0  0  0  0  0  0  0  0  0  0  0
    9.8504  -15.4222   26.4818 N   0  0  0  0  0  0  0  0  0  0  0  0
    9.5830  -14.0075   26.6721 C   0  0  0  0  0  0  0  0  0  0  0  0
   10.8465  -13.6127   27.4515 C   0  0  0  0  0  0  0  0  0  0  0  0
   10.8021  -14.6762   28.5293 C   0  0  0  0  0  0  0  0  0  0  0  0
   10.3824  -15.8881   27.7491 C   0  0  1  0  0  0  0  0  0  0  0  0
    9.3752  -16.6391   28.5274 C   0  0  0  0  0  0  0  0  0  0  0  0
    9.7097  -17.2926   29.6941 O   0  0  0  0  0  0  0  0  0  0  0  0
    8.1967  -16.6823   28.1189 O   0  0  0  0  0  0  0  0  0  0  0  0
  1  2  1  0
  2  3  2  0
  2  4  1  0
  4  5  1  0
  6  5  1  0
  6  7  1  6
  8  9  2  0
  8  6  1  0
 10 11  1  0
 11 21  2  0
 11 12  1  0
 12 13  2  0
 13 14  1  0
 14 15  1  0
 16 15  1  1
 16 17  1  0
 17  8  1  0
 18 16  1  0
 18 19  2  0
 20 14  2  0
 21 20  1  0
 22 18  1  0
 23 22  1  0
 24 25  1  0
 24 23  1  0
 25 26  1  0
 26 22  1  0
 26 27  1  1
 27 29  2  0
 27 28  1  0
M  END
$$$$
