QYP.pdb
     RDKit          3D

 29 30  0  0  1  0  0  0  0  0999 V2000
    9.3259  -20.7775   22.8564 N   0  0  0  0  0  0  0  0  0  0  0  0
    8.6530  -22.0483   22.9099 C   0  0  0  0  0  0  0  0  0  0  0  0
    9.3483  -23.0049   23.3143 O   0  0  0  0  0  0  0  0  0  0  0  0
    7.2453  -22.1039   22.4976 C   0  0  0  0  0  0  0  0  0  0  0  0
    6.6378  -20.8184   22.0520 C   0  0  0  0  0  0  0  0  0  0  0  0
    5.5421  -20.2721   22.8911 C   0  0  2  0  0  0  0  0  0  0  0  0
    4.2080  -20.5872   22.4589 N   0  0  0  0  0  0  0  0  0  0  0  0
    5.6867  -18.7809   23.0838 C   0  0  0  0  0  0  0  0  0  0  0  0
    5.2163  -17.9871   22.2306 O   0  0  0  0  0  0  0  0  0  0  0  0
    7.5052  -10.9262   26.6997 O   0  0  0  0  0  0  0  0  0  0  0  0
    7.3403  -12.2894   26.4741 C   0  0  0  0  0  0  0  0  0  0  0  0
    6.0725  -12.8324   26.4290 C   0  0  0  0  0  0  0  0  0  0  0  0
    5.8867  -14.1826   26.2064 C   0  0  0  0  0  0  0  0  0  0  0  0
    6.9681  -15.0422   26.0199 C   0  0  0  0  0  0  0  0  0  0  0  0
    6.7636  -16.4933   25.7808 C   0  0  0  0  0  0  0  0  0  0  0  0
    6.6644  -16.8111   24.3096 C   0  0  2  0  0  0  0  0  0  0  0  0
    6.3407  -18.2415   24.2045 N   0  0  0  0  0  0  0  0  0  0  0  0
    7.8884  -16.5299   23.5670 C   0  0  0  0  0  0  0  0  0  0  0  0
    8.8209  -17.3937   23.6134 O   0  0  0  0  0  0  0  0  0  0  0  0
    8.2158  -14.4561   26.0731 C   0  0  0  0  0  0  0  0  0  0  0  0
    8.4239  -13.1164   26.2931 C   0  0  0  0  0  0  0  0  0  0  0  0
    8.1252  -15.3666   22.7933 N   0  0  0  0  0  0  0  0  0  0  0  0
    7.3682  -14.1281   22.7473 C   0  0  0  0  0  0  0  0  0  0  0  0
    7.3861  -13.8756   21.2321 C   0  0  0  0  0  0  0  0  0  0  0  0
    8.8744  -14.0146   20.9862 C   0  0  0  0  0  0  0  0  0  0  0  0
    9.2236  -15.1821   21.8628 C   0  0  1  0  0  0  0  0  0  0  0  0
   10.4956  -14.8996   22.5602 C   0  0  0  0  0  0  0  0  0  0  0  0
   11.6917  -14.8414   21.8776 O   0  0  0  0  0  0  0  0  0  0  0  0
   10.4858  -14.7098   23.7937 O   0  0  0  0  0  0  0  0  0  0  0  0
  1  2  1  0
  2  3  2  0
  2  4  1  0
  4  5  1  0
  6  5  1  0
  6  7  1  6
  8  9  2  0
  8  6  1  0
 10 11  1  0
 11 21  2  0
 11 12  1  0
 12 13  2  0
 13 14  1  0
 14 15  1  0
 16 15  1  1
 16 17  1  0
 17  8  1  0
 18 16  1  0
 18 19  2  0
 20 14  2  0
 21 20  1  0
 22 18  1  0
 23 22  1  0
 24 25  1  0
 24 23  1  0
 25 26  1  0
 26 22  1  0
 26 27  1  1
 27 29  2  0
 27 28  1  0
M  END
$$$$
