QYP.pdb
     RDKit          3D

 29 30  0  0  1  0  0  0  0  0999 V2000
    0.9958  -19.8162   20.2972 N   0  0  0  0  0  0  0  0  0  0  0  0
    1.1966  -19.7351   21.7197 C   0  0  0  0  0  0  0  0  0  0  0  0
    0.1614  -19.8368   22.4126 O   0  0  0  0  0  0  0  0  0  0  0  0
    2.5654  -19.5477   22.2158 C   0  0  0  0  0  0  0  0  0  0  0  0
    3.6233  -19.3734   21.1811 C   0  0  0  0  0  0  0  0  0  0  0  0
    5.0274  -19.3420   21.6613 C   0  0  2  0  0  0  0  0  0  0  0  0
    5.3594  -20.2965   22.6835 N   0  0  0  0  0  0  0  0  0  0  0  0
    5.4294  -17.9530   22.0980 C   0  0  0  0  0  0  0  0  0  0  0  0
    5.1748  -16.9641   21.3654 O   0  0  0  0  0  0  0  0  0  0  0  0
    7.6998  -11.1840   27.2373 O   0  0  0  0  0  0  0  0  0  0  0  0
    7.4711  -12.4619   26.7363 C   0  0  0  0  0  0  0  0  0  0  0  0
    8.5297  -13.2289   26.2945 C   0  0  0  0  0  0  0  0  0  0  0  0
    8.3249  -14.4994   25.7938 C   0  0  0  0  0  0  0  0  0  0  0  0
    7.0469  -15.0510   25.7167 C   0  0  0  0  0  0  0  0  0  0  0  0
    6.8313  -16.4176   25.1775 C   0  0  0  0  0  0  0  0  0  0  0  0
    6.6252  -16.4052   23.6833 C   0  0  2  0  0  0  0  0  0  0  0  0
    6.0902  -17.7248   23.3170 N   0  0  0  0  0  0  0  0  0  0  0  0
    7.8452  -16.1440   22.9270 C   0  0  0  0  0  0  0  0  0  0  0  0
    8.6403  -17.1172   22.7309 O   0  0  0  0  0  0  0  0  0  0  0  0
    6.0197  -14.2490   26.1692 C   0  0  0  0  0  0  0  0  0  0  0  0
    6.2004  -12.9832   26.6708 C   0  0  0  0  0  0  0  0  0  0  0  0
    8.2196  -14.8875   22.3893 N   0  0  0  0  0  0  0  0  0  0  0  0
    7.5868  -13.5920   22.5639 C   0  0  0  0  0  0  0  0  0  0  0  0
    7.6822  -13.0665   21.1235 C   0  0  0  0  0  0  0  0  0  0  0  0
    9.1579  -13.3069   20.8808 C   0  0  0  0  0  0  0  0  0  0  0  0
    9.3626  -14.6456   21.5285 C   0  0  1  0  0  0  0  0  0  0  0  0
   10.6305  -14.6266   22.2876 C   0  0  0  0  0  0  0  0  0  0  0  0
   11.8512  -14.6170   21.6474 O   0  0  0  0  0  0  0  0  0  0  0  0
   10.5944  -14.6192   23.5351 O   0  0  0  0  0  0  0  0  0  0  0  0
  1  2  1  0
  2  3  2  0
  2  4  1  0
  4  5  1  0
  6  5  1  0
  6  7  1  1
  8  9  2  0
  8  6  1  0
 10 11  1  0
 11 21  2  0
 11 12  1  0
 12 13  2  0
 13 14  1  0
 14 15  1  0
 16 15  1  1
 16 17  1  0
 17  8  1  0
 18 16  1  0
 18 19  2  0
 20 14  2  0
 21 20  1  0
 22 18  1  0
 23 22  1  0
 24 25  1  0
 24 23  1  0
 25 26  1  0
 26 22  1  0
 26 27  1  1
 27 29  2  0
 27 28  1  0
M  END
$$$$
