QYP.pdb
     RDKit          3D

 29 30  0  0  1  0  0  0  0  0999 V2000
    8.6136  -21.2119   21.2620 N   0  0  0  0  0  0  0  0  0  0  0  0
    9.3926  -21.1713   20.0529 C   0  0  0  0  0  0  0  0  0  0  0  0
   10.1646  -22.1392   19.8814 O   0  0  0  0  0  0  0  0  0  0  0  0
    9.2125  -20.0268   19.1516 C   0  0  0  0  0  0  0  0  0  0  0  0
    8.1911  -19.0214   19.5592 C   0  0  0  0  0  0  0  0  0  0  0  0
    8.5060  -17.5986   19.2771 C   0  0  2  0  0  0  0  0  0  0  0  0
    9.5314  -17.3683   18.2965 N   0  0  0  0  0  0  0  0  0  0  0  0
    8.8219  -16.8421   20.5458 C   0  0  0  0  0  0  0  0  0  0  0  0
   10.0171  -16.6478   20.8822 O   0  0  0  0  0  0  0  0  0  0  0  0
    7.5295  -11.5348   27.5411 O   0  0  0  0  0  0  0  0  0  0  0  0
    7.3533  -12.3480   26.4257 C   0  0  0  0  0  0  0  0  0  0  0  0
    7.7287  -11.8965   25.1770 C   0  0  0  0  0  0  0  0  0  0  0  0
    7.5626  -12.6874   24.0572 C   0  0  0  0  0  0  0  0  0  0  0  0
    7.0121  -13.9650   24.1471 C   0  0  0  0  0  0  0  0  0  0  0  0
    6.8353  -14.8119   22.9404 C   0  0  0  0  0  0  0  0  0  0  0  0
    8.1008  -15.5514   22.5837 C   0  0  2  0  0  0  0  0  0  0  0  0
    7.8070  -16.3394   21.3776 N   0  0  0  0  0  0  0  0  0  0  0  0
    8.5796  -16.4348   23.6415 C   0  0  0  0  0  0  0  0  0  0  0  0
    8.0491  -17.5869   23.7363 O   0  0  0  0  0  0  0  0  0  0  0  0
    6.6516  -14.3744   25.4142 C   0  0  0  0  0  0  0  0  0  0  0  0
    6.8077  -13.6049   26.5411 C   0  0  0  0  0  0  0  0  0  0  0  0
    9.5935  -16.1130   24.5776 N   0  0  0  0  0  0  0  0  0  0  0  0
   10.2795  -14.8500   24.7860 C   0  0  0  0  0  0  0  0  0  0  0  0
   11.7120  -15.3686   24.9834 C   0  0  0  0  0  0  0  0  0  0  0  0
   11.4410  -16.4158   26.0438 C   0  0  0  0  0  0  0  0  0  0  0  0
   10.1592  -17.0249   25.5546 C   0  0  1  0  0  0  0  0  0  0  0  0
    9.2535  -17.2334   26.7037 C   0  0  0  0  0  0  0  0  0  0  0  0
    9.5285  -18.1728   27.6743 O   0  0  0  0  0  0  0  0  0  0  0  0
    8.2175  -16.5436   26.7967 O   0  0  0  0  0  0  0  0  0  0  0  0
  1  2  1  0
  2  3  2  0
  2  4  1  0
  4  5  1  0
  6  5  1  0
  6  7  1  6
  8  9  2  0
  8  6  1  0
 10 11  1  0
 11 21  2  0
 11 12  1  0
 12 13  2  0
 13 14  1  0
 14 15  1  0
 16 15  1  1
 16 17  1  0
 17  8  1  0
 18 16  1  0
 18 19  2  0
 20 14  2  0
 21 20  1  0
 22 18  1  0
 23 22  1  0
 24 25  1  0
 24 23  1  0
 25 26  1  0
 26 22  1  0
 26 27  1  1
 27 29  2  0
 27 28  1  0
M  END
$$$$
