QYP.pdb
     RDKit          3D

 29 30  0  0  1  0  0  0  0  0999 V2000
    9.1565  -12.0418   19.2013 N   0  0  0  0  0  0  0  0  0  0  0  0
    8.5305  -13.0586   18.3983 C   0  0  0  0  0  0  0  0  0  0  0  0
    9.2436  -13.5370   17.4901 O   0  0  0  0  0  0  0  0  0  0  0  0
    7.1467  -13.4341   18.7124 C   0  0  0  0  0  0  0  0  0  0  0  0
    6.8865  -13.8833   20.1090 C   0  0  0  0  0  0  0  0  0  0  0  0
    7.2259  -15.2919   20.4309 C   0  0  2  0  0  0  0  0  0  0  0  0
    6.5976  -16.2894   19.6085 N   0  0  0  0  0  0  0  0  0  0  0  0
    6.9862  -15.5967   21.8908 C   0  0  0  0  0  0  0  0  0  0  0  0
    5.8317  -15.4884   22.3755 O   0  0  0  0  0  0  0  0  0  0  0  0
    8.4063  -18.7596   30.0381 O   0  0  0  0  0  0  0  0  0  0  0  0
    8.3948  -18.4842   28.6742 C   0  0  0  0  0  0  0  0  0  0  0  0
    7.2224  -18.6042   27.9564 C   0  0  0  0  0  0  0  0  0  0  0  0
    7.1890  -18.3357   26.6022 C   0  0  0  0  0  0  0  0  0  0  0  0
    8.3334  -17.9354   25.9141 C   0  0  0  0  0  0  0  0  0  0  0  0
    8.2929  -17.6478   24.4579 C   0  0  0  0  0  0  0  0  0  0  0  0
    7.8209  -16.2430   24.1764 C   0  0  2  0  0  0  0  0  0  0  0  0
    8.0284  -16.0046   22.7405 N   0  0  0  0  0  0  0  0  0  0  0  0
    8.5240  -15.2243   24.9488 C   0  0  0  0  0  0  0  0  0  0  0  0
    9.7596  -15.0448   24.7062 O   0  0  0  0  0  0  0  0  0  0  0  0
    9.4816  -17.8289   26.6713 C   0  0  0  0  0  0  0  0  0  0  0  0
    9.5376  -18.0908   28.0185 C   0  0  0  0  0  0  0  0  0  0  0  0
    7.9398  -14.4131   25.9532 N   0  0  0  0  0  0  0  0  0  0  0  0
    6.5586  -14.3607   26.3990 C   0  0  0  0  0  0  0  0  0  0  0  0
    6.3944  -12.8397   26.5390 C   0  0  0  0  0  0  0  0  0  0  0  0
    7.6126  -12.5472   27.3905 C   0  0  0  0  0  0  0  0  0  0  0  0
    8.6453  -13.4414   26.7682 C   0  0  1  0  0  0  0  0  0  0  0  0
    9.4334  -14.0877   27.8385 C   0  0  0  0  0  0  0  0  0  0  0  0
   10.4088  -13.3997   28.5280 O   0  0  0  0  0  0  0  0  0  0  0  0
    9.2104  -15.2821   28.1237 O   0  0  0  0  0  0  0  0  0  0  0  0
  1  2  1  0
  2  3  2  0
  2  4  1  0
  4  5  1  0
  6  5  1  0
  6  7  1  6
  8  9  2  0
  8  6  1  0
 10 11  1  0
 11 21  2  0
 11 12  1  0
 12 13  2  0
 13 14  1  0
 14 15  1  0
 16 15  1  1
 16 17  1  0
 17  8  1  0
 18 16  1  0
 18 19  2  0
 20 14  2  0
 21 20  1  0
 22 18  1  0
 23 22  1  0
 24 25  1  0
 24 23  1  0
 25 26  1  0
 26 22  1  0
 26 27  1  1
 27 29  2  0
 27 28  1  0
M  END
$$$$
