QYP.pdb
     RDKit          3D

 29 30  0  0  1  0  0  0  0  0999 V2000
    9.6901  -20.8538   22.0963 N   0  0  0  0  0  0  0  0  0  0  0  0
   10.2620  -20.9687   20.7809 C   0  0  0  0  0  0  0  0  0  0  0  0
   11.0434  -21.9308   20.6196 O   0  0  0  0  0  0  0  0  0  0  0  0
    9.8832  -19.9718   19.7722 C   0  0  0  0  0  0  0  0  0  0  0  0
    8.8773  -18.9568   20.1939 C   0  0  0  0  0  0  0  0  0  0  0  0
    9.1745  -17.5425   19.8556 C   0  0  2  0  0  0  0  0  0  0  0  0
   10.3014  -17.3312   18.9886 N   0  0  0  0  0  0  0  0  0  0  0  0
    9.3101  -16.6953   21.0988 C   0  0  0  0  0  0  0  0  0  0  0  0
   10.4481  -16.3455   21.5015 O   0  0  0  0  0  0  0  0  0  0  0  0
    6.9440  -11.3182   27.7518 O   0  0  0  0  0  0  0  0  0  0  0  0
    6.9661  -12.1270   26.6196 C   0  0  0  0  0  0  0  0  0  0  0  0
    6.4349  -13.3995   26.6708 C   0  0  0  0  0  0  0  0  0  0  0  0
    6.4468  -14.2184   25.5590 C   0  0  0  0  0  0  0  0  0  0  0  0
    6.9933  -13.7912   24.3498 C   0  0  0  0  0  0  0  0  0  0  0  0
    7.0039  -14.6752   23.1568 C   0  0  0  0  0  0  0  0  0  0  0  0
    8.3043  -15.4286   23.0282 C   0  0  2  0  0  0  0  0  0  0  0  0
    8.1874  -16.2775   21.8333 N   0  0  0  0  0  0  0  0  0  0  0  0
    8.6177  -16.2560   24.1883 C   0  0  0  0  0  0  0  0  0  0  0  0
    8.0149  -17.3703   24.3012 O   0  0  0  0  0  0  0  0  0  0  0  0
    7.5124  -12.5132   24.3449 C   0  0  0  0  0  0  0  0  0  0  0  0
    7.5113  -11.6819   25.4383 C   0  0  0  0  0  0  0  0  0  0  0  0
    9.5444  -15.9185   25.2058 N   0  0  0  0  0  0  0  0  0  0  0  0
   10.2431  -14.6648   25.4283 C   0  0  0  0  0  0  0  0  0  0  0  0
   11.6339  -15.2095   25.7874 C   0  0  0  0  0  0  0  0  0  0  0  0
   11.2306  -16.2019   26.8583 C   0  0  0  0  0  0  0  0  0  0  0  0
    9.9856  -16.8002   26.2707 C   0  0  1  0  0  0  0  0  0  0  0  0
    8.9665  -16.9354   27.3324 C   0  0  0  0  0  0  0  0  0  0  0  0
    7.7969  -16.2064   27.3029 O   0  0  0  0  0  0  0  0  0  0  0  0
    9.1697  -17.7268   28.2758 O   0  0  0  0  0  0  0  0  0  0  0  0
  1  2  1  0
  2  3  2  0
  2  4  1  0
  4  5  1  0
  6  5  1  0
  6  7  1  1
  8  9  2  0
  8  6  1  0
 10 11  1  0
 11 21  2  0
 11 12  1  0
 12 13  2  0
 13 14  1  0
 14 15  1  0
 16 15  1  1
 16 17  1  0
 17  8  1  0
 18 16  1  0
 18 19  2  0
 20 14  2  0
 21 20  1  0
 22 18  1  0
 23 22  1  0
 24 25  1  0
 24 23  1  0
 25 26  1  0
 26 22  1  0
 26 27  1  1
 27 29  2  0
 27 28  1  0
M  END
$$$$
