QYP.pdb
     RDKit          3D

 29 30  0  0  1  0  0  0  0  0999 V2000
    9.6137  -22.3563   21.3120 N   0  0  0  0  0  0  0  0  0  0  0  0
    9.5234  -22.0881   19.9012 C   0  0  0  0  0  0  0  0  0  0  0  0
    9.6190  -23.0895   19.1594 O   0  0  0  0  0  0  0  0  0  0  0  0
    9.3293  -20.6979   19.4720 C   0  0  0  0  0  0  0  0  0  0  0  0
    9.1038  -19.6993   20.5547 C   0  0  0  0  0  0  0  0  0  0  0  0
    8.6772  -18.3419   20.1319 C   0  0  2  0  0  0  0  0  0  0  0  0
    9.2259  -17.8737   18.8886 N   0  0  0  0  0  0  0  0  0  0  0  0
    8.9185  -17.3242   21.2217 C   0  0  0  0  0  0  0  0  0  0  0  0
   10.0258  -16.7348   21.2991 O   0  0  0  0  0  0  0  0  0  0  0  0
    7.0411  -11.4189   27.5644 O   0  0  0  0  0  0  0  0  0  0  0  0
    6.9902  -12.3534   26.5346 C   0  0  0  0  0  0  0  0  0  0  0  0
    6.5823  -13.6456   26.7957 C   0  0  0  0  0  0  0  0  0  0  0  0
    6.5247  -14.5884   25.7884 C   0  0  0  0  0  0  0  0  0  0  0  0
    6.8748  -14.2706   24.4770 C   0  0  0  0  0  0  0  0  0  0  0  0
    6.8112  -15.2876   23.3970 C   0  0  0  0  0  0  0  0  0  0  0  0
    8.1348  -15.9852   23.2046 C   0  0  2  0  0  0  0  0  0  0  0  0
    7.9295  -17.0082   22.1686 N   0  0  0  0  0  0  0  0  0  0  0  0
    8.6468  -16.6126   24.4181 C   0  0  0  0  0  0  0  0  0  0  0  0
    8.1208  -17.7114   24.7840 O   0  0  0  0  0  0  0  0  0  0  0  0
    7.2761  -12.9683   24.2626 C   0  0  0  0  0  0  0  0  0  0  0  0
    7.3409  -12.0146   25.2489 C   0  0  0  0  0  0  0  0  0  0  0  0
    9.6886  -16.0956   25.2277 N   0  0  0  0  0  0  0  0  0  0  0  0
   10.3033  -14.7801   25.1987 C   0  0  0  0  0  0  0  0  0  0  0  0
   11.7746  -15.1833   25.3792 C   0  0  0  0  0  0  0  0  0  0  0  0
   11.6300  -16.0676   26.6005 C   0  0  0  0  0  0  0  0  0  0  0  0
   10.3644  -16.8138   26.2924 C   0  0  1  0  0  0  0  0  0  0  0  0
    9.5389  -16.8915   27.5158 C   0  0  0  0  0  0  0  0  0  0  0  0
    8.3443  -16.2119   27.6208 O   0  0  0  0  0  0  0  0  0  0  0  0
    9.9324  -17.5877   28.4740 O   0  0  0  0  0  0  0  0  0  0  0  0
  1  2  1  0
  2  3  2  0
  2  4  1  0
  4  5  1  0
  6  5  1  0
  6  7  1  6
  8  9  2  0
  8  6  1  0
 10 11  1  0
 11 21  2  0
 11 12  1  0
 12 13  2  0
 13 14  1  0
 14 15  1  0
 16 15  1  1
 16 17  1  0
 17  8  1  0
 18 16  1  0
 18 19  2  0
 20 14  2  0
 21 20  1  0
 22 18  1  0
 23 22  1  0
 24 25  1  0
 24 23  1  0
 25 26  1  0
 26 22  1  0
 26 27  1  1
 27 29  2  0
 27 28  1  0
M  END
$$$$
