QYP.pdb
     RDKit          3D

 29 30  0  0  1  0  0  0  0  0999 V2000
    9.4240  -20.7606   20.8857 N   0  0  0  0  0  0  0  0  0  0  0  0
    9.1832  -21.7739   21.8785 C   0  0  0  0  0  0  0  0  0  0  0  0
   10.1057  -22.6034   22.0307 O   0  0  0  0  0  0  0  0  0  0  0  0
    7.9089  -21.7408   22.6062 C   0  0  0  0  0  0  0  0  0  0  0  0
    6.9297  -20.7044   22.1737 C   0  0  0  0  0  0  0  0  0  0  0  0
    5.8860  -20.3211   23.1570 C   0  0  2  0  0  0  0  0  0  0  0  0
    4.5681  -20.8345   22.9011 N   0  0  0  0  0  0  0  0  0  0  0  0
    5.8317  -18.8236   23.3474 C   0  0  0  0  0  0  0  0  0  0  0  0
    4.9403  -18.1478   22.7746 O   0  0  0  0  0  0  0  0  0  0  0  0
    7.2718  -10.7888   26.7293 O   0  0  0  0  0  0  0  0  0  0  0  0
    7.1029  -12.1491   26.4898 C   0  0  0  0  0  0  0  0  0  0  0  0
    8.1946  -12.9365   26.1857 C   0  0  0  0  0  0  0  0  0  0  0  0
    8.0490  -14.2883   25.9445 C   0  0  0  0  0  0  0  0  0  0  0  0
    6.7996  -14.9042   25.9993 C   0  0  0  0  0  0  0  0  0  0  0  0
    6.6478  -16.3582   25.7393 C   0  0  0  0  0  0  0  0  0  0  0  0
    6.7804  -16.6826   24.2721 C   0  0  2  0  0  0  0  0  0  0  0  0
    6.7604  -18.1484   24.1575 N   0  0  0  0  0  0  0  0  0  0  0  0
    8.0004  -16.1604   23.6659 C   0  0  0  0  0  0  0  0  0  0  0  0
    9.0902  -16.7694   23.9089 O   0  0  0  0  0  0  0  0  0  0  0  0
    5.7377  -14.0790   26.3066 C   0  0  0  0  0  0  0  0  0  0  0  0
    5.8593  -12.7327   26.5500 C   0  0  0  0  0  0  0  0  0  0  0  0
    8.0715  -15.0234   22.8231 N   0  0  0  0  0  0  0  0  0  0  0  0
    7.2835  -13.8041   22.8626 C   0  0  0  0  0  0  0  0  0  0  0  0
    7.0394  -13.6106   21.3583 C   0  0  0  0  0  0  0  0  0  0  0  0
    8.4684  -13.7273   20.8694 C   0  0  0  0  0  0  0  0  0  0  0  0
    8.9922  -14.8519   21.7145 C   0  0  1  0  0  0  0  0  0  0  0  0
   10.3550  -14.5153   22.1765 C   0  0  0  0  0  0  0  0  0  0  0  0
   10.6393  -14.3485   23.5150 O   0  0  0  0  0  0  0  0  0  0  0  0
   11.2677  -14.3793   21.3362 O   0  0  0  0  0  0  0  0  0  0  0  0
  1  2  1  0
  2  3  2  0
  2  4  1  0
  4  5  1  0
  6  5  1  0
  6  7  1  6
  8  9  2  0
  8  6  1  0
 10 11  1  0
 11 21  2  0
 11 12  1  0
 12 13  2  0
 13 14  1  0
 14 15  1  0
 16 15  1  1
 16 17  1  0
 17  8  1  0
 18 16  1  0
 18 19  2  0
 20 14  2  0
 21 20  1  0
 22 18  1  0
 23 22  1  0
 24 25  1  0
 24 23  1  0
 25 26  1  0
 26 22  1  0
 26 27  1  1
 27 29  2  0
 27 28  1  0
M  END
$$$$
