QYP.pdb
     RDKit          3D

 29 30  0  0  1  0  0  0  0  0999 V2000
   14.0276  -19.9417   23.3625 N   0  0  0  0  0  0  0  0  0  0  0  0
   13.4441  -20.4192   22.1370 C   0  0  0  0  0  0  0  0  0  0  0  0
   13.5843  -21.6419   21.9187 O   0  0  0  0  0  0  0  0  0  0  0  0
   12.7520  -19.4516   21.2770 C   0  0  0  0  0  0  0  0  0  0  0  0
   12.7177  -18.0438   21.7637 C   0  0  0  0  0  0  0  0  0  0  0  0
   11.6621  -17.1676   21.1971 C   0  0  2  0  0  0  0  0  0  0  0  0
   12.0107  -16.4707   19.9892 N   0  0  0  0  0  0  0  0  0  0  0  0
   11.1435  -16.1925   22.2276 C   0  0  0  0  0  0  0  0  0  0  0  0
   11.7428  -15.1054   22.4237 O   0  0  0  0  0  0  0  0  0  0  0  0
    5.6672  -11.4177   27.1054 O   0  0  0  0  0  0  0  0  0  0  0  0
    6.2398  -12.3712   26.2691 C   0  0  0  0  0  0  0  0  0  0  0  0
    6.8838  -11.9776   25.1140 C   0  0  0  0  0  0  0  0  0  0  0  0
    7.4587  -12.9074   24.2703 C   0  0  0  0  0  0  0  0  0  0  0  0
    7.4096  -14.2714   24.5535 C   0  0  0  0  0  0  0  0  0  0  0  0
    8.0292  -15.2677   23.6434 C   0  0  0  0  0  0  0  0  0  0  0  0
    9.4754  -15.5210   23.9897 C   0  0  2  0  0  0  0  0  0  0  0  0
    9.9934  -16.4643   22.9879 N   0  0  0  0  0  0  0  0  0  0  0  0
    9.6685  -16.0714   25.3270 C   0  0  0  0  0  0  0  0  0  0  0  0
    9.7384  -17.3362   25.4425 O   0  0  0  0  0  0  0  0  0  0  0  0
    6.7563  -14.6187   25.7178 C   0  0  0  0  0  0  0  0  0  0  0  0
    6.1776  -13.7112   26.5711 C   0  0  0  0  0  0  0  0  0  0  0  0
    9.7856  -15.3082   26.5152 N   0  0  0  0  0  0  0  0  0  0  0  0
    9.3730  -13.9389   26.7679 C   0  0  0  0  0  0  0  0  0  0  0  0
   10.5874  -13.4522   27.5731 C   0  0  0  0  0  0  0  0  0  0  0  0
   10.6509  -14.5631   28.6010 C   0  0  0  0  0  0  0  0  0  0  0  0
   10.3603  -15.7745   27.7635 C   0  0  1  0  0  0  0  0  0  0  0  0
    9.4345  -16.6605   28.4998 C   0  0  0  0  0  0  0  0  0  0  0  0
    9.8256  -17.3117   29.6501 O   0  0  0  0  0  0  0  0  0  0  0  0
    8.2739  -16.8221   28.0704 O   0  0  0  0  0  0  0  0  0  0  0  0
  1  2  1  0
  2  3  2  0
  2  4  1  0
  4  5  1  0
  6  5  1  0
  6  7  1  6
  8  9  2  0
  8  6  1  0
 10 11  1  0
 11 21  2  0
 11 12  1  0
 12 13  2  0
 13 14  1  0
 14 15  1  0
 16 15  1  6
 16 17  1  0
 17  8  1  0
 18 16  1  0
 18 19  2  0
 20 14  2  0
 21 20  1  0
 22 18  1  0
 23 22  1  0
 24 25  1  0
 24 23  1  0
 25 26  1  0
 26 22  1  0
 26 27  1  1
 27 29  2  0
 27 28  1  0
M  END
$$$$
