KVE.pdb
     RDKit          3D

 26 25  0  0  1  0  0  0  0  0999 V2000
   18.5170  -13.1977  -17.5546 N   0  0  0  0  0  0  0  0  0  0  0  0
   19.2281  -12.0121  -17.9698 C   0  0  1  0  0  0  0  0  0  0  0  0
   18.3065  -11.0939  -18.6888 C   0  0  0  0  0  0  0  0  0  0  0  0
   17.8761  -11.7297  -19.9865 C   0  0  0  0  0  0  0  0  0  0  0  0
   16.5559  -12.4350  -19.9190 C   0  0  0  0  0  0  0  0  0  0  0  0
   16.0867  -12.8529  -21.3199 C   0  0  0  0  0  0  0  0  0  0  0  0
   14.8497  -13.5739  -21.1696 N   0  0  0  0  0  0  0  0  0  0  0  0
   19.9155  -11.3959  -16.8216 C   0  0  0  0  0  0  0  0  0  0  0  0
   19.3122  -11.3396  -15.7233 O   0  0  0  0  0  0  0  0  0  0  0  0
   24.0239  -10.2534  -14.4301 C   0  0  0  0  0  0  0  0  0  0  0  0
   23.1642  -10.9136  -15.4750 C   0  0  1  0  0  0  0  0  0  0  0  0
   23.1238  -12.3825  -15.2138 C   0  0  0  0  0  0  0  0  0  0  0  0
   21.8414  -10.2415  -15.6525 C   0  0  2  0  0  0  0  0  0  0  0  0
   21.2265  -10.8516  -16.8586 N   0  0  0  0  0  0  0  0  0  0  0  0
   21.9074   -8.7788  -15.8235 C   0  0  0  0  0  0  0  0  0  0  0  0
   21.9395   -8.2488  -16.9852 O   0  0  0  0  0  0  0  0  0  0  0  0
   21.9386   -7.8554  -14.7492 N   0  0  0  0  0  0  0  0  0  0  0  0
   21.9282   -6.4356  -14.9198 C   0  0  1  0  0  0  0  0  0  0  0  0
   20.8972   -5.8951  -15.8310 C   0  0  0  0  0  0  0  0  0  0  0  0
   20.7956   -4.4283  -15.9423 C   0  0  0  0  0  0  0  0  0  0  0  0
   21.8198   -3.8167  -16.8016 C   0  0  0  0  0  0  0  0  0  0  0  0
   22.1488   -4.1912  -17.9389 O   0  0  0  0  0  0  0  0  0  0  0  0
   21.9860   -5.7201  -13.6122 C   0  0  0  0  0  0  0  0  0  0  0  0
   21.2213   -6.2041  -12.5683 O   0  0  0  0  0  0  0  0  0  0  0  0
   22.4834   -2.6942  -16.2625 O   0  0  0  0  0  0  0  0  0  0  0  0
   22.6917   -4.7051  -13.4159 O   0  0  0  0  0  0  0  0  0  0  0  0
  2  3  1  0
  2  1  1  1
  4  3  1  0
  5  4  1  0
  5  6  1  0
  7  6  1  0
  8  9  2  0
  8  2  1  0
 11 10  1  1
 11 12  1  0
 11 13  1  0
 13 14  1  6
 14  8  1  0
 15 16  2  0
 15 13  1  0
 17 15  1  0
 18 19  1  1
 18 17  1  0
 20 19  1  0
 20 21  1  0
 21 25  1  0
 22 21  2  0
 23 18  1  0
 24 23  1  0
 26 23  2  0
M  END
$$$$
