KVE.pdb
     RDKit          3D

 26 25  0  0  1  0  0  0  0  0999 V2000
   19.1763  -14.3597  -16.1782 N   0  0  0  0  0  0  0  0  0  0  0  0
   19.3353  -13.1803  -16.9951 C   0  0  1  0  0  0  0  0  0  0  0  0
   18.0534  -12.8577  -17.6749 C   0  0  0  0  0  0  0  0  0  0  0  0
   17.4953  -14.1055  -18.3115 C   0  0  0  0  0  0  0  0  0  0  0  0
   16.0963  -14.4387  -17.8912 C   0  0  0  0  0  0  0  0  0  0  0  0
   15.5894  -15.6907  -18.6211 C   0  0  0  0  0  0  0  0  0  0  0  0
   14.3865  -16.1252  -17.9601 N   0  0  0  0  0  0  0  0  0  0  0  0
   19.8875  -12.0721  -16.1967 C   0  0  0  0  0  0  0  0  0  0  0  0
   19.3169  -11.7671  -15.1220 O   0  0  0  0  0  0  0  0  0  0  0  0
   23.6651   -9.2908  -14.7999 C   0  0  0  0  0  0  0  0  0  0  0  0
   22.9640  -10.4509  -15.4551 C   0  0  1  0  0  0  0  0  0  0  0  0
   23.2976  -11.7022  -14.7130 C   0  0  0  0  0  0  0  0  0  0  0  0
   21.5110  -10.1961  -15.6930 C   0  0  2  0  0  0  0  0  0  0  0  0
   21.0314  -11.3091  -16.5510 N   0  0  0  0  0  0  0  0  0  0  0  0
   21.2059   -8.9094  -16.3446 C   0  0  0  0  0  0  0  0  0  0  0  0
   21.1630   -8.8053  -17.6168 O   0  0  0  0  0  0  0  0  0  0  0  0
   20.9389   -7.7084  -15.6418 N   0  0  0  0  0  0  0  0  0  0  0  0
   20.2791   -6.5786  -16.2191 C   0  0  1  0  0  0  0  0  0  0  0  0
   19.0224   -6.8575  -16.9458 C   0  0  0  0  0  0  0  0  0  0  0  0
   18.2996   -5.7043  -17.5132 C   0  0  0  0  0  0  0  0  0  0  0  0
   17.0251   -6.0505  -18.1593 C   0  0  0  0  0  0  0  0  0  0  0  0
   16.0718   -6.6507  -17.6370 O   0  0  0  0  0  0  0  0  0  0  0  0
   20.1553   -5.4533  -15.2476 C   0  0  0  0  0  0  0  0  0  0  0  0
   20.0100   -4.1730  -15.7460 O   0  0  0  0  0  0  0  0  0  0  0  0
   16.8916   -5.6526  -19.5066 O   0  0  0  0  0  0  0  0  0  0  0  0
   20.1770   -5.6128  -14.0063 O   0  0  0  0  0  0  0  0  0  0  0  0
  2  3  1  0
  2  1  1  1
  4  3  1  0
  5  4  1  0
  5  6  1  0
  7  6  1  0
  8  9  2  0
  8  2  1  0
 11 10  1  1
 11 12  1  0
 11 13  1  0
 13 14  1  6
 14  8  1  0
 15 16  2  0
 15 13  1  0
 17 15  1  0
 18 19  1  1
 18 17  1  0
 20 19  1  0
 20 21  1  0
 21 25  1  0
 22 21  2  0
 23 18  1  0
 24 23  1  0
 26 23  2  0
M  END
$$$$
