KVE.pdb
     RDKit          3D

 26 25  0  0  1  0  0  0  0  0999 V2000
   23.0516  -16.4228  -15.3787 N   0  0  0  0  0  0  0  0  0  0  0  0
   23.0434  -15.3186  -16.3083 C   0  0  1  0  0  0  0  0  0  0  0  0
   21.6937  -15.1759  -16.9142 C   0  0  0  0  0  0  0  0  0  0  0  0
   21.4332  -16.3384  -17.8386 C   0  0  0  0  0  0  0  0  0  0  0  0
   22.4880  -16.5438  -18.8826 C   0  0  0  0  0  0  0  0  0  0  0  0
   22.0835  -17.6594  -19.8568 C   0  0  0  0  0  0  0  0  0  0  0  0
   23.1533  -17.8195  -20.8068 N   0  0  0  0  0  0  0  0  0  0  0  0
   23.5424  -14.0946  -15.6575 C   0  0  0  0  0  0  0  0  0  0  0  0
   23.1099  -13.8053  -14.5162 O   0  0  0  0  0  0  0  0  0  0  0  0
   26.8968  -10.4767  -15.3065 C   0  0  0  0  0  0  0  0  0  0  0  0
   26.3633  -11.8144  -15.7455 C   0  0  1  0  0  0  0  0  0  0  0  0
   27.2204  -12.8920  -15.1697 C   0  0  0  0  0  0  0  0  0  0  0  0
   24.8923  -11.9571  -15.5251 C   0  0  2  0  0  0  0  0  0  0  0  0
   24.4882  -13.2017  -16.2271 N   0  0  0  0  0  0  0  0  0  0  0  0
   24.0794  -10.8308  -16.0189 C   0  0  0  0  0  0  0  0  0  0  0  0
   23.7762  -10.7249  -17.2551 O   0  0  0  0  0  0  0  0  0  0  0  0
   23.5743   -9.7957  -15.1936 N   0  0  0  0  0  0  0  0  0  0  0  0
   22.7387   -8.7364  -15.6676 C   0  0  1  0  0  0  0  0  0  0  0  0
   21.5568   -9.1409  -16.4580 C   0  0  0  0  0  0  0  0  0  0  0  0
   20.3377   -9.5051  -15.7126 C   0  0  0  0  0  0  0  0  0  0  0  0
   19.7045  -10.7523  -16.1655 C   0  0  0  0  0  0  0  0  0  0  0  0
   19.0200  -11.5253  -15.4758 O   0  0  0  0  0  0  0  0  0  0  0  0
   22.4132   -7.7615  -14.5864 C   0  0  0  0  0  0  0  0  0  0  0  0
   22.7517   -8.0892  -13.2877 O   0  0  0  0  0  0  0  0  0  0  0  0
   19.9064  -11.0864  -17.5215 O   0  0  0  0  0  0  0  0  0  0  0  0
   21.8497   -6.6641  -14.7987 O   0  0  0  0  0  0  0  0  0  0  0  0
  2  3  1  0
  2  1  1  1
  4  3  1  0
  5  4  1  0
  5  6  1  0
  7  6  1  0
  8  9  2  0
  8  2  1  0
 11 10  1  1
 11 12  1  0
 11 13  1  0
 13 14  1  6
 14  8  1  0
 15 16  2  0
 15 13  1  0
 17 15  1  0
 18 19  1  1
 18 17  1  0
 20 19  1  0
 20 21  1  0
 21 25  1  0
 22 21  2  0
 23 18  1  0
 24 23  1  0
 26 23  2  0
M  END
$$$$
