KVE.pdb
     RDKit          3D

 26 25  0  0  1  0  0  0  0  0999 V2000
   24.1308  -13.9524  -20.0064 N   0  0  0  0  0  0  0  0  0  0  0  0
   24.4640  -12.5480  -20.0124 C   0  0  1  0  0  0  0  0  0  0  0  0
   23.6102  -11.8285  -20.9937 C   0  0  0  0  0  0  0  0  0  0  0  0
   23.5751  -12.5999  -22.2887 C   0  0  0  0  0  0  0  0  0  0  0  0
   22.7177  -11.9823  -23.3509 C   0  0  0  0  0  0  0  0  0  0  0  0
   22.7027  -12.8519  -24.6161 C   0  0  0  0  0  0  0  0  0  0  0  0
   24.0606  -12.9748  -25.0783 N   0  0  0  0  0  0  0  0  0  0  0  0
   24.4030  -11.9989  -18.6466 C   0  0  0  0  0  0  0  0  0  0  0  0
   23.5972  -12.5098  -17.8322 O   0  0  0  0  0  0  0  0  0  0  0  0
   26.4822   -9.8439  -14.8156 C   0  0  0  0  0  0  0  0  0  0  0  0
   26.3887  -10.5479  -16.1432 C   0  0  1  0  0  0  0  0  0  0  0  0
   26.9027  -11.9409  -15.9917 C   0  0  0  0  0  0  0  0  0  0  0  0
   25.0460  -10.4094  -16.7842 C   0  0  2  0  0  0  0  0  0  0  0  0
   25.1951  -10.9210  -18.1702 N   0  0  0  0  0  0  0  0  0  0  0  0
   24.5172   -9.0339  -16.8244 C   0  0  0  0  0  0  0  0  0  0  0  0
   24.9423   -8.1860  -17.6798 O   0  0  0  0  0  0  0  0  0  0  0  0
   23.5195   -8.5420  -15.9468 N   0  0  0  0  0  0  0  0  0  0  0  0
   22.8725   -7.2767  -16.1071 C   0  0  1  0  0  0  0  0  0  0  0  0
   22.4673   -6.9203  -17.4833 C   0  0  0  0  0  0  0  0  0  0  0  0
   21.7321   -5.6552  -17.6652 C   0  0  0  0  0  0  0  0  0  0  0  0
   21.3041   -5.4004  -19.0485 C   0  0  0  0  0  0  0  0  0  0  0  0
   21.5213   -6.1245  -20.0336 O   0  0  0  0  0  0  0  0  0  0  0  0
   21.7824   -7.0814  -15.1076 C   0  0  0  0  0  0  0  0  0  0  0  0
   21.3132   -5.7995  -14.8949 O   0  0  0  0  0  0  0  0  0  0  0  0
   20.5755   -4.2100  -19.2566 O   0  0  0  0  0  0  0  0  0  0  0  0
   21.2742   -8.0203  -14.4543 O   0  0  0  0  0  0  0  0  0  0  0  0
  2  3  1  0
  2  1  1  1
  4  3  1  0
  5  4  1  0
  5  6  1  0
  7  6  1  0
  8  9  2  0
  8  2  1  0
 11 10  1  1
 11 12  1  0
 11 13  1  0
 13 14  1  6
 14  8  1  0
 15 16  2  0
 15 13  1  0
 17 15  1  0
 18 19  1  6
 18 17  1  0
 20 19  1  0
 20 21  1  0
 21 25  1  0
 22 21  2  0
 23 18  1  0
 24 23  1  0
 26 23  2  0
M  END
$$$$
