KVE.pdb
     RDKit          3D

 26 25  0  0  1  0  0  0  0  0999 V2000
   27.8328  -21.8198  -16.4111 N   0  0  0  0  0  0  0  0  0  0  0  0
   26.9752  -20.7357  -15.9953 C   0  0  1  0  0  0  0  0  0  0  0  0
   26.2442  -20.1889  -17.1683 C   0  0  0  0  0  0  0  0  0  0  0  0
   27.2286  -19.5732  -18.1304 C   0  0  0  0  0  0  0  0  0  0  0  0
   27.6412  -18.1762  -17.7799 C   0  0  0  0  0  0  0  0  0  0  0  0
   28.5994  -17.6075  -18.8362 C   0  0  0  0  0  0  0  0  0  0  0  0
   28.9841  -16.2867  -18.4117 N   0  0  0  0  0  0  0  0  0  0  0  0
   26.1013  -21.1660  -14.8899 C   0  0  0  0  0  0  0  0  0  0  0  0
   25.4554  -22.2335  -15.0191 O   0  0  0  0  0  0  0  0  0  0  0  0
   24.8275  -21.0355  -10.1239 C   0  0  0  0  0  0  0  0  0  0  0  0
   25.6821  -20.6843  -11.3127 C   0  0  1  0  0  0  0  0  0  0  0  0
   27.0333  -21.2933  -11.1367 C   0  0  0  0  0  0  0  0  0  0  0  0
   25.0056  -20.9531  -12.6178 C   0  0  2  0  0  0  0  0  0  0  0  0
   25.9283  -20.4586  -13.6709 N   0  0  0  0  0  0  0  0  0  0  0  0
   23.6896  -20.3084  -12.7781 C   0  0  0  0  0  0  0  0  0  0  0  0
   23.5746  -19.0367  -12.8087 O   0  0  0  0  0  0  0  0  0  0  0  0
   22.4701  -21.0176  -12.9102 N   0  0  0  0  0  0  0  0  0  0  0  0
   21.1949  -20.3871  -13.0573 C   0  0  1  0  0  0  0  0  0  0  0  0
   20.6558  -20.3172  -14.4319 C   0  0  0  0  0  0  0  0  0  0  0  0
   19.3348  -19.6864  -14.6085 C   0  0  0  0  0  0  0  0  0  0  0  0
   18.8366  -19.7083  -15.9916 C   0  0  0  0  0  0  0  0  0  0  0  0
   19.4132  -20.1980  -16.9762 O   0  0  0  0  0  0  0  0  0  0  0  0
   20.2053  -20.9010  -12.0665 C   0  0  0  0  0  0  0  0  0  0  0  0
   19.2261  -20.0382  -11.6134 O   0  0  0  0  0  0  0  0  0  0  0  0
   17.5764  -19.1085  -16.2000 O   0  0  0  0  0  0  0  0  0  0  0  0
   20.2195  -22.0730  -11.6270 O   0  0  0  0  0  0  0  0  0  0  0  0
  2  3  1  0
  2  1  1  6
  4  3  1  0
  5  4  1  0
  5  6  1  0
  7  6  1  0
  8  9  2  0
  8  2  1  0
 11 10  1  1
 11 12  1  0
 11 13  1  0
 13 14  1  6
 14  8  1  0
 15 16  2  0
 15 13  1  0
 17 15  1  0
 18 19  1  6
 18 17  1  0
 20 19  1  0
 20 21  1  0
 21 25  1  0
 22 21  2  0
 23 18  1  0
 24 23  1  0
 26 23  2  0
M  END
$$$$
