KVE.pdb
     RDKit          3D

 26 25  0  0  1  0  0  0  0  0999 V2000
   20.2173  -22.5237   -6.6689 N   0  0  0  0  0  0  0  0  0  0  0  0
   20.6522  -23.0358   -7.9464 C   0  0  1  0  0  0  0  0  0  0  0  0
   19.5501  -23.7988   -8.5887 C   0  0  0  0  0  0  0  0  0  0  0  0
   18.8163  -24.5978   -7.5415 C   0  0  0  0  0  0  0  0  0  0  0  0
   17.6678  -25.4006   -8.0715 C   0  0  0  0  0  0  0  0  0  0  0  0
   16.9212  -26.1066   -6.9307 C   0  0  0  0  0  0  0  0  0  0  0  0
   15.8866  -26.9159   -7.5202 N   0  0  0  0  0  0  0  0  0  0  0  0
   21.1946  -21.9479   -8.7790 C   0  0  0  0  0  0  0  0  0  0  0  0
   20.6194  -20.8335   -8.7558 O   0  0  0  0  0  0  0  0  0  0  0  0
   24.8881  -19.9797  -11.4135 C   0  0  0  0  0  0  0  0  0  0  0  0
   24.2650  -20.9128  -10.4095 C   0  0  1  0  0  0  0  0  0  0  0  0
   24.8563  -20.6453   -9.0655 C   0  0  0  0  0  0  0  0  0  0  0  0
   22.7724  -20.9322  -10.4782 C   0  0  2  0  0  0  0  0  0  0  0  0
   22.3339  -22.0610   -9.6189 N   0  0  0  0  0  0  0  0  0  0  0  0
   22.2165  -21.1035  -11.8328 C   0  0  0  0  0  0  0  0  0  0  0  0
   22.3233  -22.2128  -12.4569 O   0  0  0  0  0  0  0  0  0  0  0  0
   21.5329  -20.0863  -12.5439 N   0  0  0  0  0  0  0  0  0  0  0  0
   20.9606  -20.2698  -13.8415 C   0  0  1  0  0  0  0  0  0  0  0  0
   19.4922  -20.1266  -13.9336 C   0  0  0  0  0  0  0  0  0  0  0  0
   18.8789  -20.2936  -15.2641 C   0  0  0  0  0  0  0  0  0  0  0  0
   17.4251  -20.0761  -15.2892 C   0  0  0  0  0  0  0  0  0  0  0  0
   16.8417  -19.0206  -15.5850 O   0  0  0  0  0  0  0  0  0  0  0  0
   21.6905  -19.4915  -14.8840 C   0  0  0  0  0  0  0  0  0  0  0  0
   21.9350  -20.0984  -16.1007 O   0  0  0  0  0  0  0  0  0  0  0  0
   16.6314  -21.1891  -14.9395 O   0  0  0  0  0  0  0  0  0  0  0  0
   22.0911  -18.3185  -14.7097 O   0  0  0  0  0  0  0  0  0  0  0  0
  2  3  1  0
  2  1  1  1
  4  3  1  0
  5  4  1  0
  5  6  1  0
  7  6  1  0
  8  9  2  0
  8  2  1  0
 11 10  1  6
 11 12  1  0
 11 13  1  0
 13 14  1  1
 14  8  1  0
 15 16  2  0
 15 13  1  0
 17 15  1  0
 18 19  1  1
 18 17  1  0
 20 19  1  0
 20 21  1  0
 21 25  1  0
 22 21  2  0
 23 18  1  0
 24 23  1  0
 26 23  2  0
M  END
$$$$
