KVE.pdb
     RDKit          3D

 26 25  0  0  1  0  0  0  0  0999 V2000
   23.9352  -14.9427  -19.1117 N   0  0  0  0  0  0  0  0  0  0  0  0
   23.6731  -13.5454  -19.3612 C   0  0  1  0  0  0  0  0  0  0  0  0
   22.3476  -13.3870  -20.0151 C   0  0  0  0  0  0  0  0  0  0  0  0
   22.0382  -14.6194  -20.8268 C   0  0  0  0  0  0  0  0  0  0  0  0
   20.7673  -14.5347  -21.6156 C   0  0  0  0  0  0  0  0  0  0  0  0
   20.9937  -14.9805  -23.0673 C   0  0  0  0  0  0  0  0  0  0  0  0
   19.7278  -14.9085  -23.7492 N   0  0  0  0  0  0  0  0  0  0  0  0
   23.8291  -12.7635  -18.1222 C   0  0  0  0  0  0  0  0  0  0  0  0
   23.2145  -13.1405  -17.0958 O   0  0  0  0  0  0  0  0  0  0  0  0
   26.4579   -9.7642  -15.2802 C   0  0  0  0  0  0  0  0  0  0  0  0
   26.1804  -10.7098  -16.4184 C   0  0  1  0  0  0  0  0  0  0  0  0
   26.9421  -11.9740  -16.1965 C   0  0  0  0  0  0  0  0  0  0  0  0
   24.7224  -10.8638  -16.7074 C   0  0  2  0  0  0  0  0  0  0  0  0
   24.6316  -11.5990  -17.9943 N   0  0  0  0  0  0  0  0  0  0  0  0
   23.9744   -9.5978  -16.8132 C   0  0  0  0  0  0  0  0  0  0  0  0
   23.8706   -8.9813  -17.9270 O   0  0  0  0  0  0  0  0  0  0  0  0
   23.3214   -8.9693  -15.7242 N   0  0  0  0  0  0  0  0  0  0  0  0
   22.3629   -7.9180  -15.8705 C   0  0  1  0  0  0  0  0  0  0  0  0
   21.3370   -8.1110  -16.9171 C   0  0  0  0  0  0  0  0  0  0  0  0
   20.3101   -7.0623  -17.0584 C   0  0  0  0  0  0  0  0  0  0  0  0
   19.2819   -7.3576  -18.0670 C   0  0  0  0  0  0  0  0  0  0  0  0
   19.1983   -8.3870  -18.7564 O   0  0  0  0  0  0  0  0  0  0  0  0
   21.7880   -7.5058  -14.5572 C   0  0  0  0  0  0  0  0  0  0  0  0
   21.4219   -8.4950  -13.6649 O   0  0  0  0  0  0  0  0  0  0  0  0
   18.3021   -6.3599  -18.2555 O   0  0  0  0  0  0  0  0  0  0  0  0
   21.6216   -6.3103  -14.2258 O   0  0  0  0  0  0  0  0  0  0  0  0
  2  3  1  0
  2  1  1  1
  4  3  1  0
  5  4  1  0
  5  6  1  0
  7  6  1  0
  8  9  2  0
  8  2  1  0
 11 10  1  1
 11 12  1  0
 11 13  1  0
 13 14  1  6
 14  8  1  0
 15 16  2  0
 15 13  1  0
 17 15  1  0
 18 19  1  6
 18 17  1  0
 20 19  1  0
 20 21  1  0
 21 25  1  0
 22 21  2  0
 23 18  1  0
 24 23  1  0
 26 23  2  0
M  END
$$$$
