KVE.pdb
     RDKit          3D

 26 25  0  0  1  0  0  0  0  0999 V2000
   23.9943  -19.4931  -16.8005 N   0  0  0  0  0  0  0  0  0  0  0  0
   24.0911  -18.7980  -15.5392 C   0  0  1  0  0  0  0  0  0  0  0  0
   24.9755  -19.5510  -14.6118 C   0  0  0  0  0  0  0  0  0  0  0  0
   24.7423  -21.0304  -14.7865 C   0  0  0  0  0  0  0  0  0  0  0  0
   23.9572  -21.6654  -13.6796 C   0  0  0  0  0  0  0  0  0  0  0  0
   24.7615  -22.7919  -13.0151 C   0  0  0  0  0  0  0  0  0  0  0  0
   25.3738  -22.2513  -11.8296 N   0  0  0  0  0  0  0  0  0  0  0  0
   24.4977  -17.3981  -15.7532 C   0  0  0  0  0  0  0  0  0  0  0  0
   24.5746  -16.6389  -14.7576 O   0  0  0  0  0  0  0  0  0  0  0  0
   26.9500  -13.9893  -18.2282 C   0  0  0  0  0  0  0  0  0  0  0  0
   26.5072  -15.3781  -17.8514 C   0  0  1  0  0  0  0  0  0  0  0  0
   27.6329  -16.0775  -17.1649 C   0  0  0  0  0  0  0  0  0  0  0  0
   25.1915  -15.3994  -17.1433 C   0  0  2  0  0  0  0  0  0  0  0  0
   24.8142  -16.8299  -17.0154 N   0  0  0  0  0  0  0  0  0  0  0  0
   24.1089  -14.6668  -17.8249 C   0  0  0  0  0  0  0  0  0  0  0  0
   23.3775  -15.2341  -18.7051 O   0  0  0  0  0  0  0  0  0  0  0  0
   23.7891  -13.3096  -17.5732 N   0  0  0  0  0  0  0  0  0  0  0  0
   22.5048  -12.7344  -17.8276 C   0  0  1  0  0  0  0  0  0  0  0  0
   21.3410  -13.4746  -17.2957 C   0  0  0  0  0  0  0  0  0  0  0  0
   20.0103  -12.8686  -17.4857 C   0  0  0  0  0  0  0  0  0  0  0  0
   18.9030  -13.6588  -16.9280 C   0  0  0  0  0  0  0  0  0  0  0  0
   18.5040  -13.6433  -15.7523 O   0  0  0  0  0  0  0  0  0  0  0  0
   22.4737  -11.2801  -17.4966 C   0  0  0  0  0  0  0  0  0  0  0  0
   21.3623  -10.5490  -17.8692 O   0  0  0  0  0  0  0  0  0  0  0  0
   18.2408  -14.5135  -17.8348 O   0  0  0  0  0  0  0  0  0  0  0  0
   23.4036  -10.6922  -16.8995 O   0  0  0  0  0  0  0  0  0  0  0  0
  2  3  1  0
  2  1  1  6
  4  3  1  0
  5  4  1  0
  5  6  1  0
  7  6  1  0
  8  9  2  0
  8  2  1  0
 11 10  1  1
 11 12  1  0
 11 13  1  0
 13 14  1  6
 14  8  1  0
 15 16  2  0
 15 13  1  0
 17 15  1  0
 18 19  1  1
 18 17  1  0
 20 19  1  0
 20 21  1  0
 21 25  1  0
 22 21  2  0
 23 18  1  0
 24 23  1  0
 26 23  2  0
M  END
$$$$
