KVE.pdb
     RDKit          3D

 26 25  0  0  1  0  0  0  0  0999 V2000
   17.5569  -12.0243  -16.5931 N   0  0  0  0  0  0  0  0  0  0  0  0
   18.5391  -11.0901  -17.0890 C   0  0  1  0  0  0  0  0  0  0  0  0
   17.8732  -10.0356  -17.8977 C   0  0  0  0  0  0  0  0  0  0  0  0
   16.7689  -10.6544  -18.7171 C   0  0  0  0  0  0  0  0  0  0  0  0
   15.9900   -9.6749  -19.5409 C   0  0  0  0  0  0  0  0  0  0  0  0
   14.8474  -10.3761  -20.2892 C   0  0  0  0  0  0  0  0  0  0  0  0
   13.7354  -10.4896  -19.3818 N   0  0  0  0  0  0  0  0  0  0  0  0
   19.3592  -10.5695  -15.9812 C   0  0  0  0  0  0  0  0  0  0  0  0
   18.8243  -10.4309  -14.8551 O   0  0  0  0  0  0  0  0  0  0  0  0
   23.4689  -10.6694  -15.9150 C   0  0  0  0  0  0  0  0  0  0  0  0
   22.6424  -10.4054  -14.6845 C   0  0  1  0  0  0  0  0  0  0  0  0
   23.5398   -9.9370  -13.5878 C   0  0  0  0  0  0  0  0  0  0  0  0
   21.4422   -9.5582  -14.9580 C   0  0  2  0  0  0  0  0  0  0  0  0
   20.7278  -10.2061  -16.0871 N   0  0  0  0  0  0  0  0  0  0  0  0
   21.7391   -8.1569  -15.3063 C   0  0  0  0  0  0  0  0  0  0  0  0
   21.9592   -7.8074  -16.5149 O   0  0  0  0  0  0  0  0  0  0  0  0
   21.8040   -7.1019  -14.3626 N   0  0  0  0  0  0  0  0  0  0  0  0
   21.9180   -5.7216  -14.7189 C   0  0  1  0  0  0  0  0  0  0  0  0
   20.9856   -5.2365  -15.7583 C   0  0  0  0  0  0  0  0  0  0  0  0
   21.1241   -3.8330  -16.1887 C   0  0  0  0  0  0  0  0  0  0  0  0
   20.1910   -3.4340  -17.2525 C   0  0  0  0  0  0  0  0  0  0  0  0
   20.3467   -3.6033  -18.4727 O   0  0  0  0  0  0  0  0  0  0  0  0
   21.9620   -4.8408  -13.5158 C   0  0  0  0  0  0  0  0  0  0  0  0
   21.2961   -5.2548  -12.3783 O   0  0  0  0  0  0  0  0  0  0  0  0
   19.0071   -2.7969  -16.8239 O   0  0  0  0  0  0  0  0  0  0  0  0
   22.5712   -3.7477  -13.4874 O   0  0  0  0  0  0  0  0  0  0  0  0
  2  3  1  0
  2  1  1  1
  4  3  1  0
  5  4  1  0
  5  6  1  0
  7  6  1  0
  8  9  2  0
  8  2  1  0
 11 10  1  6
 11 12  1  0
 11 13  1  0
 13 14  1  6
 14  8  1  0
 15 16  2  0
 15 13  1  0
 17 15  1  0
 18 19  1  6
 18 17  1  0
 20 19  1  0
 20 21  1  0
 21 25  1  0
 22 21  2  0
 23 18  1  0
 24 23  1  0
 26 23  2  0
M  END
$$$$
