KVE.pdb
     RDKit          3D

 26 25  0  0  1  0  0  0  0  0999 V2000
   24.3017  -16.2079  -15.6764 N   0  0  0  0  0  0  0  0  0  0  0  0
   23.5256  -15.1588  -16.2933 C   0  0  1  0  0  0  0  0  0  0  0  0
   22.0915  -15.5472  -16.3360 C   0  0  0  0  0  0  0  0  0  0  0  0
   21.9420  -16.8294  -17.1152 C   0  0  0  0  0  0  0  0  0  0  0  0
   20.5343  -17.3342  -17.2070 C   0  0  0  0  0  0  0  0  0  0  0  0
   20.4675  -18.6196  -18.0441 C   0  0  0  0  0  0  0  0  0  0  0  0
   19.1288  -19.1390  -17.9416 N   0  0  0  0  0  0  0  0  0  0  0  0
   23.7795  -13.8704  -15.6253 C   0  0  0  0  0  0  0  0  0  0  0  0
   23.5828  -13.7887  -14.3892 O   0  0  0  0  0  0  0  0  0  0  0  0
   26.2491   -9.7051  -15.2441 C   0  0  0  0  0  0  0  0  0  0  0  0
   25.9065  -11.0930  -15.7166 C   0  0  1  0  0  0  0  0  0  0  0  0
   26.8910  -12.0579  -15.1443 C   0  0  0  0  0  0  0  0  0  0  0  0
   24.4645  -11.4354  -15.5258 C   0  0  2  0  0  0  0  0  0  0  0  0
   24.2359  -12.6950  -16.2782 N   0  0  0  0  0  0  0  0  0  0  0  0
   23.5165  -10.4075  -15.9926 C   0  0  0  0  0  0  0  0  0  0  0  0
   23.4534  -10.0755  -17.2244 O   0  0  0  0  0  0  0  0  0  0  0  0
   22.6155   -9.7164  -15.1451 N   0  0  0  0  0  0  0  0  0  0  0  0
   21.6706   -8.7483  -15.6089 C   0  0  1  0  0  0  0  0  0  0  0  0
   20.2941   -8.8767  -15.0856 C   0  0  0  0  0  0  0  0  0  0  0  0
   19.3365   -7.8109  -15.4339 C   0  0  0  0  0  0  0  0  0  0  0  0
   18.0169   -7.9563  -14.8021 C   0  0  0  0  0  0  0  0  0  0  0  0
   17.6726   -8.8472  -14.0087 O   0  0  0  0  0  0  0  0  0  0  0  0
   22.2065   -7.3596  -15.5101 C   0  0  0  0  0  0  0  0  0  0  0  0
   21.9770   -6.4944  -16.5624 O   0  0  0  0  0  0  0  0  0  0  0  0
   17.0609   -6.9764  -15.1442 O   0  0  0  0  0  0  0  0  0  0  0  0
   22.8524   -6.9419  -14.5226 O   0  0  0  0  0  0  0  0  0  0  0  0
  2  3  1  0
  2  1  1  1
  4  3  1  0
  5  4  1  0
  5  6  1  0
  7  6  1  0
  8  9  2  0
  8  2  1  0
 11 10  1  1
 11 12  1  0
 11 13  1  0
 13 14  1  6
 14  8  1  0
 15 16  2  0
 15 13  1  0
 17 15  1  0
 18 19  1  1
 18 17  1  0
 20 19  1  0
 20 21  1  0
 21 25  1  0
 22 21  2  0
 23 18  1  0
 24 23  1  0
 26 23  2  0
M  END
$$$$
