YKI.pdb
     RDKit          3D

 30 30  0  0  1  0  0  0  0  0999 V2000
    8.5745  -12.8469   16.4090 O   0  0  0  0  0  0  0  0  0  0  0  0
    8.2648  -13.2723   17.6865 C   0  0  0  0  0  0  0  0  0  0  0  0
    7.3537  -12.6131   18.4862 C   0  0  0  0  0  0  0  0  0  0  0  0
    7.0712  -13.0664   19.7523 C   0  0  0  0  0  0  0  0  0  0  0  0
    7.6753  -14.1815   20.2719 C   0  0  0  0  0  0  0  0  0  0  0  0
    7.3569  -14.6575   21.6645 C   0  0  0  0  0  0  0  0  0  0  0  0
    6.9726  -16.1446   21.5935 C   0  0  2  0  0  0  0  0  0  0  0  0
    5.7235  -16.2262   20.8975 N   0  0  0  0  0  0  0  0  0  0  0  0
    6.8726  -16.6985   22.9670 C   0  0  0  0  0  0  0  0  0  0  0  0
    6.0223  -16.1659   23.7465 O   0  0  0  0  0  0  0  0  0  0  0  0
    8.5851  -14.8465   19.4841 C   0  0  0  0  0  0  0  0  0  0  0  0
    8.8697  -14.3906   18.2096 C   0  0  0  0  0  0  0  0  0  0  0  0
    7.6942  -17.7780   23.3819 N   0  0  0  0  0  0  0  0  0  0  0  0
    7.8085  -18.1585   24.7559 C   0  0  1  0  0  0  0  0  0  0  0  0
    7.9170  -19.6723   24.9139 C   0  0  0  0  0  0  0  0  0  0  0  0
    6.6717  -20.3687   24.4494 C   0  0  0  0  0  0  0  0  0  0  0  0
    6.8484  -21.8591   24.6734 C   0  0  0  0  0  0  0  0  0  0  0  0
    5.6280  -22.6232   24.1795 C   0  0  0  0  0  0  0  0  0  0  0  0
    5.8488  -23.0358   22.8232 N   0  0  0  0  0  0  0  0  0  0  0  0
    8.9280  -17.5093   25.4550 C   0  0  0  0  0  0  0  0  0  0  0  0
   10.0352  -17.3497   24.8440 O   0  0  0  0  0  0  0  0  0  0  0  0
   10.1575  -13.3728   29.7386 C   0  0  0  0  0  0  0  0  0  0  0  0
   10.6536  -14.5590   28.9771 C   0  0  0  0  0  0  0  0  0  0  0  0
    9.5900  -15.0070   27.9959 C   0  0  2  0  0  0  0  0  0  0  0  0
    8.2851  -15.3101   28.6809 C   0  0  0  0  0  0  0  0  0  0  0  0
   10.0396  -16.3012   27.3042 C   0  0  2  0  0  0  0  0  0  0  0  0
    8.8985  -17.0229   26.7897 N   0  0  0  0  0  0  0  0  0  0  0  0
   10.6894  -17.1265   28.3414 C   0  0  0  0  0  0  0  0  0  0  0  0
   11.7869  -16.7950   28.8814 O   0  0  0  0  0  0  0  0  0  0  0  0
   10.0866  -18.3046   28.7447 O   0  0  0  0  0  0  0  0  0  0  0  0
  2  1  1  0
  3  2  2  0
  4  3  1  0
  5 11  1  0
  5  4  2  0
  6  5  1  0
  7  6  1  0
  7  8  1  1
  9  7  1  0
 10  9  2  0
 11 12  2  0
 12  2  1  0
 13  9  1  0
 14 13  1  0
 14 15  1  6
 16 15  1  0
 17 16  1  0
 18 17  1  0
 19 18  1  0
 20 14  1  0
 20 27  1  0
 21 20  2  0
 22 23  1  0
 23 24  1  0
 24 25  1  1
 26 27  1  1
 26 24  1  0
 26 28  1  0
 28 29  2  0
 28 30  1  0
M  END
$$$$
