YKI.pdb
     RDKit          3D

 30 30  0  0  1  0  0  0  0  0999 V2000
    7.8913  -11.5664   18.7249 O   0  0  0  0  0  0  0  0  0  0  0  0
    8.2089  -12.8938   18.9391 C   0  0  0  0  0  0  0  0  0  0  0  0
    7.8875  -13.8872   18.0369 C   0  0  0  0  0  0  0  0  0  0  0  0
    8.2202  -15.1973   18.2847 C   0  0  0  0  0  0  0  0  0  0  0  0
    8.8789  -15.5718   19.4267 C   0  0  0  0  0  0  0  0  0  0  0  0
    9.2279  -17.0141   19.6825 C   0  0  0  0  0  0  0  0  0  0  0  0
    7.9252  -17.7926   19.9292 C   0  0  2  0  0  0  0  0  0  0  0  0
    7.0253  -17.4596   18.8658 N   0  0  0  0  0  0  0  0  0  0  0  0
    7.3687  -17.4234   21.2548 C   0  0  0  0  0  0  0  0  0  0  0  0
    6.3580  -16.6535   21.2653 O   0  0  0  0  0  0  0  0  0  0  0  0
    9.2041  -14.5904   20.3332 C   0  0  0  0  0  0  0  0  0  0  0  0
    8.8696  -13.2716   20.0841 C   0  0  0  0  0  0  0  0  0  0  0  0
    7.9461  -17.9159   22.4533 N   0  0  0  0  0  0  0  0  0  0  0  0
    7.3665  -17.6577   23.7352 C   0  0  1  0  0  0  0  0  0  0  0  0
    7.2209  -18.9364   24.5551 C   0  0  0  0  0  0  0  0  0  0  0  0
    6.2362  -19.8835   23.9346 C   0  0  0  0  0  0  0  0  0  0  0  0
    6.2547  -21.1766   24.7286 C   0  0  0  0  0  0  0  0  0  0  0  0
    5.3497  -22.2154   24.0812 C   0  0  0  0  0  0  0  0  0  0  0  0
    5.3057  -23.3840   24.9123 N   0  0  0  0  0  0  0  0  0  0  0  0
    8.0978  -16.6509   24.5195 C   0  0  0  0  0  0  0  0  0  0  0  0
    9.3723  -16.6566   24.5064 O   0  0  0  0  0  0  0  0  0  0  0  0
    5.8739  -12.4050   27.7498 C   0  0  0  0  0  0  0  0  0  0  0  0
    6.4370  -13.6821   27.2161 C   0  0  0  0  0  0  0  0  0  0  0  0
    7.5594  -13.3705   26.2478 C   0  0  2  0  0  0  0  0  0  0  0  0
    7.0403  -12.8632   24.9298 C   0  0  0  0  0  0  0  0  0  0  0  0
    8.3528  -14.6500   25.9499 C   0  0  2  0  0  0  0  0  0  0  0  0
    7.5059  -15.6350   25.3174 N   0  0  0  0  0  0  0  0  0  0  0  0
    8.7978  -15.1801   27.2538 C   0  0  0  0  0  0  0  0  0  0  0  0
    8.3219  -16.2447   27.7500 O   0  0  0  0  0  0  0  0  0  0  0  0
    9.7678  -14.4979   27.9662 O   0  0  0  0  0  0  0  0  0  0  0  0
  2  1  1  0
  3  2  2  0
  4  3  1  0
  5 11  1  0
  5  4  2  0
  6  5  1  0
  7  6  1  0
  7  8  1  6
  9  7  1  0
 10  9  2  0
 11 12  2  0
 12  2  1  0
 13  9  1  0
 14 13  1  0
 14 15  1  1
 16 15  1  0
 17 16  1  0
 18 17  1  0
 19 18  1  0
 20 14  1  0
 20 27  1  0
 21 20  2  0
 22 23  1  0
 23 24  1  0
 24 25  1  6
 26 27  1  1
 26 24  1  0
 26 28  1  0
 28 29  2  0
 28 30  1  0
M  END
$$$$
