YKI.pdb
     RDKit          3D

 30 30  0  0  1  0  0  0  0  0999 V2000
    8.4056  -13.0413   16.2568 O   0  0  0  0  0  0  0  0  0  0  0  0
    8.1652  -13.4150   17.5650 C   0  0  0  0  0  0  0  0  0  0  0  0
    7.0808  -12.9502   18.2807 C   0  0  0  0  0  0  0  0  0  0  0  0
    6.8745  -13.3445   19.5808 C   0  0  0  0  0  0  0  0  0  0  0  0
    7.7272  -14.2077   20.2180 C   0  0  0  0  0  0  0  0  0  0  0  0
    7.4870  -14.6217   21.6456 C   0  0  0  0  0  0  0  0  0  0  0  0
    7.0831  -16.1052   21.6597 C   0  0  2  0  0  0  0  0  0  0  0  0
    5.6959  -16.1695   21.3091 N   0  0  0  0  0  0  0  0  0  0  0  0
    7.3357  -16.6766   23.0062 C   0  0  0  0  0  0  0  0  0  0  0  0
    6.4564  -16.4675   23.8991 O   0  0  0  0  0  0  0  0  0  0  0  0
    8.8114  -14.6773   19.5147 C   0  0  0  0  0  0  0  0  0  0  0  0
    9.0195  -14.2807   18.2060 C   0  0  0  0  0  0  0  0  0  0  0  0
    8.5108  -17.4247   23.2745 N   0  0  0  0  0  0  0  0  0  0  0  0
    8.8114  -17.9200   24.5822 C   0  0  1  0  0  0  0  0  0  0  0  0
    9.5136  -19.2736   24.5240 C   0  0  0  0  0  0  0  0  0  0  0  0
    9.8311  -19.7927   25.8955 C   0  0  0  0  0  0  0  0  0  0  0  0
   10.5905  -21.0979   25.7460 C   0  0  0  0  0  0  0  0  0  0  0  0
   10.9233  -21.6831   27.1114 C   0  0  0  0  0  0  0  0  0  0  0  0
   11.4712  -22.9978   26.9385 N   0  0  0  0  0  0  0  0  0  0  0  0
    9.6065  -16.9878   25.3961 C   0  0  0  0  0  0  0  0  0  0  0  0
   10.6844  -16.5056   24.9161 O   0  0  0  0  0  0  0  0  0  0  0  0
    7.4112  -12.8750   27.7409 C   0  0  0  0  0  0  0  0  0  0  0  0
    8.3509  -13.7968   27.0335 C   0  0  0  0  0  0  0  0  0  0  0  0
    9.2206  -14.5058   28.0512 C   0  0  2  0  0  0  0  0  0  0  0  0
   10.1507  -13.5555   28.7552 C   0  0  0  0  0  0  0  0  0  0  0  0
   10.1001  -15.5447   27.3424 C   0  0  2  0  0  0  0  0  0  0  0  0
    9.2819  -16.5533   26.7093 N   0  0  0  0  0  0  0  0  0  0  0  0
   10.9141  -16.1899   28.3914 C   0  0  0  0  0  0  0  0  0  0  0  0
   10.5848  -17.2929   28.9216 O   0  0  0  0  0  0  0  0  0  0  0  0
   12.0789  -15.5767   28.8170 O   0  0  0  0  0  0  0  0  0  0  0  0
  2  1  1  0
  3  2  2  0
  4  3  1  0
  5 11  1  0
  5  4  2  0
  6  5  1  0
  7  6  1  0
  7  8  1  1
  9  7  1  0
 10  9  2  0
 11 12  2  0
 12  2  1  0
 13  9  1  0
 14 13  1  0
 14 15  1  6
 16 15  1  0
 17 16  1  0
 18 17  1  0
 19 18  1  0
 20 14  1  0
 20 27  1  0
 21 20  2  0
 22 23  1  0
 23 24  1  0
 24 25  1  6
 26 27  1  1
 26 24  1  0
 26 28  1  0
 28 29  2  0
 28 30  1  0
M  END
$$$$
