YKI.pdb
     RDKit          3D

 30 30  0  0  1  0  0  0  0  0999 V2000
    7.9284  -13.4400   14.6254 O   0  0  0  0  0  0  0  0  0  0  0  0
    7.6099  -13.7800   15.9261 C   0  0  0  0  0  0  0  0  0  0  0  0
    7.0852  -15.0111   16.2625 C   0  0  0  0  0  0  0  0  0  0  0  0
    6.7806  -15.3133   17.5680 C   0  0  0  0  0  0  0  0  0  0  0  0
    6.9822  -14.4151   18.5834 C   0  0  0  0  0  0  0  0  0  0  0  0
    6.6351  -14.7636   20.0065 C   0  0  0  0  0  0  0  0  0  0  0  0
    7.9311  -15.1353   20.7456 C   0  0  2  0  0  0  0  0  0  0  0  0
    8.5822  -16.1508   19.9735 N   0  0  0  0  0  0  0  0  0  0  0  0
    7.6048  -15.6105   22.1134 C   0  0  0  0  0  0  0  0  0  0  0  0
    6.9677  -14.8114   22.8683 O   0  0  0  0  0  0  0  0  0  0  0  0
    7.5045  -13.1850   18.2600 C   0  0  0  0  0  0  0  0  0  0  0  0
    7.8113  -12.8804   16.9461 C   0  0  0  0  0  0  0  0  0  0  0  0
    7.9902  -16.9042   22.5495 N   0  0  0  0  0  0  0  0  0  0  0  0
    7.8248  -17.3269   23.9059 C   0  0  1  0  0  0  0  0  0  0  0  0
    8.2464  -18.7808   24.0980 C   0  0  0  0  0  0  0  0  0  0  0  0
    8.4494  -19.1122   25.5473 C   0  0  0  0  0  0  0  0  0  0  0  0
    7.2987  -19.9918   25.9998 C   0  0  0  0  0  0  0  0  0  0  0  0
    7.3984  -20.2785   27.4915 C   0  0  0  0  0  0  0  0  0  0  0  0
    6.2212  -20.9809   27.9150 N   0  0  0  0  0  0  0  0  0  0  0  0
    8.5308  -16.4774   24.8772 C   0  0  0  0  0  0  0  0  0  0  0  0
    9.7804  -16.2723   24.7325 O   0  0  0  0  0  0  0  0  0  0  0  0
    6.1760  -12.0579   26.7904 C   0  0  0  0  0  0  0  0  0  0  0  0
    7.1117  -13.0732   26.2189 C   0  0  0  0  0  0  0  0  0  0  0  0
    7.8184  -13.7964   27.3468 C   0  0  2  0  0  0  0  0  0  0  0  0
    8.7080  -12.8743   28.1356 C   0  0  0  0  0  0  0  0  0  0  0  0
    8.7195  -14.8961   26.7689 C   0  0  2  0  0  0  0  0  0  0  0  0
    7.9391  -15.8377   25.9996 N   0  0  0  0  0  0  0  0  0  0  0  0
    9.3079  -15.6048   27.9226 C   0  0  0  0  0  0  0  0  0  0  0  0
    8.8806  -16.7315   28.3149 O   0  0  0  0  0  0  0  0  0  0  0  0
   10.3631  -15.0267   28.6054 O   0  0  0  0  0  0  0  0  0  0  0  0
  2  1  1  0
  3  2  2  0
  4  3  1  0
  5 11  1  0
  5  4  2  0
  6  5  1  0
  7  6  1  0
  7  8  1  6
  9  7  1  0
 10  9  2  0
 11 12  2  0
 12  2  1  0
 13  9  1  0
 14 13  1  0
 14 15  1  6
 16 15  1  0
 17 16  1  0
 18 17  1  0
 19 18  1  0
 20 14  1  0
 20 27  1  0
 21 20  2  0
 22 23  1  0
 23 24  1  0
 24 25  1  6
 26 27  1  1
 26 24  1  0
 26 28  1  0
 28 29  2  0
 28 30  1  0
M  END
$$$$
