YKI.pdb
     RDKit          3D

 30 30  0  0  1  0  0  0  0  0999 V2000
    8.1692  -14.1348   14.3137 O   0  0  0  0  0  0  0  0  0  0  0  0
    7.9853  -14.1473   15.6829 C   0  0  0  0  0  0  0  0  0  0  0  0
    7.0539  -13.3473   16.3125 C   0  0  0  0  0  0  0  0  0  0  0  0
    6.8995  -13.3875   17.6774 C   0  0  0  0  0  0  0  0  0  0  0  0
    7.6556  -14.2150   18.4660 C   0  0  0  0  0  0  0  0  0  0  0  0
    7.4756  -14.2385   19.9608 C   0  0  0  0  0  0  0  0  0  0  0  0
    8.4600  -15.2607   20.5524 C   0  0  2  0  0  0  0  0  0  0  0  0
    8.4268  -16.4177   19.7088 N   0  0  0  0  0  0  0  0  0  0  0  0
    8.0623  -15.5856   21.9451 C   0  0  0  0  0  0  0  0  0  0  0  0
    7.7661  -14.6118   22.7057 O   0  0  0  0  0  0  0  0  0  0  0  0
    8.5872  -15.0167   17.8496 C   0  0  0  0  0  0  0  0  0  0  0  0
    8.7429  -14.9767   16.4757 C   0  0  0  0  0  0  0  0  0  0  0  0
    8.0159  -16.9291   22.3979 N   0  0  0  0  0  0  0  0  0  0  0  0
    7.7576  -17.2592   23.7655 C   0  0  1  0  0  0  0  0  0  0  0  0
    8.0648  -18.7248   24.0588 C   0  0  0  0  0  0  0  0  0  0  0  0
    8.0724  -19.0054   25.5328 C   0  0  0  0  0  0  0  0  0  0  0  0
    6.9155  -19.9361   25.8458 C   0  0  0  0  0  0  0  0  0  0  0  0
    6.9084  -20.3032   27.3232 C   0  0  0  0  0  0  0  0  0  0  0  0
    5.8784  -21.2731   27.5616 N   0  0  0  0  0  0  0  0  0  0  0  0
    8.4764  -16.4046   24.7229 C   0  0  0  0  0  0  0  0  0  0  0  0
    9.7479  -16.3374   24.6649 O   0  0  0  0  0  0  0  0  0  0  0  0
    5.8958  -12.4876   27.8138 C   0  0  0  0  0  0  0  0  0  0  0  0
    6.6249  -13.7554   27.5069 C   0  0  0  0  0  0  0  0  0  0  0  0
    7.9427  -13.4273   26.8358 C   0  0  2  0  0  0  0  0  0  0  0  0
    7.7443  -12.7144   25.5257 C   0  0  0  0  0  0  0  0  0  0  0  0
    8.6995  -14.7257   26.5246 C   0  0  2  0  0  0  0  0  0  0  0  0
    7.8752  -15.6169   25.7411 N   0  0  0  0  0  0  0  0  0  0  0  0
    8.9825  -15.3672   27.8237 C   0  0  0  0  0  0  0  0  0  0  0  0
    8.4484  -16.4636   28.1681 O   0  0  0  0  0  0  0  0  0  0  0  0
    9.8601  -14.7578   28.7025 O   0  0  0  0  0  0  0  0  0  0  0  0
  2  1  1  0
  3  2  2  0
  4  3  1  0
  5 11  1  0
  5  4  2  0
  6  5  1  0
  7  6  1  0
  7  8  1  6
  9  7  1  0
 10  9  2  0
 11 12  2  0
 12  2  1  0
 13  9  1  0
 14 13  1  0
 14 15  1  6
 16 15  1  0
 17 16  1  0
 18 17  1  0
 19 18  1  0
 20 14  1  0
 20 27  1  0
 21 20  2  0
 22 23  1  0
 23 24  1  0
 24 25  1  6
 26 27  1  6
 26 24  1  0
 26 28  1  0
 28 29  2  0
 28 30  1  0
M  END
$$$$
