YKI.pdb
     RDKit          3D

 30 30  0  0  1  0  0  0  0  0999 V2000
    3.1589  -25.2386   25.5046 O   0  0  0  0  0  0  0  0  0  0  0  0
    3.9096  -24.0793   25.4693 C   0  0  0  0  0  0  0  0  0  0  0  0
    4.9536  -23.8460   26.3409 C   0  0  0  0  0  0  0  0  0  0  0  0
    5.6781  -22.6801   26.2752 C   0  0  0  0  0  0  0  0  0  0  0  0
    5.3991  -21.7074   25.3510 C   0  0  0  0  0  0  0  0  0  0  0  0
    6.2007  -20.4337   25.3004 C   0  0  0  0  0  0  0  0  0  0  0  0
    6.7772  -20.2786   23.8836 C   0  0  2  0  0  0  0  0  0  0  0  0
    7.7730  -21.2947   23.7182 N   0  0  0  0  0  0  0  0  0  0  0  0
    7.3500  -18.9183   23.7259 C   0  0  0  0  0  0  0  0  0  0  0  0
    8.4723  -18.6942   24.2779 O   0  0  0  0  0  0  0  0  0  0  0  0
    4.3607  -21.9287   24.4773 C   0  0  0  0  0  0  0  0  0  0  0  0
    3.6313  -23.1021   24.5430 C   0  0  0  0  0  0  0  0  0  0  0  0
    6.6672  -17.9183   22.9869 N   0  0  0  0  0  0  0  0  0  0  0  0
    7.1112  -16.5589   22.9619 C   0  0  1  0  0  0  0  0  0  0  0  0
    6.4100  -15.7576   21.8689 C   0  0  0  0  0  0  0  0  0  0  0  0
    6.9256  -14.3503   21.7960 C   0  0  0  0  0  0  0  0  0  0  0  0
    7.6572  -14.1795   20.4775 C   0  0  0  0  0  0  0  0  0  0  0  0
    8.1290  -12.7420   20.3094 C   0  0  0  0  0  0  0  0  0  0  0  0
    8.8289  -12.6196   19.0629 N   0  0  0  0  0  0  0  0  0  0  0  0
    6.9621  -15.8674   24.2515 C   0  0  0  0  0  0  0  0  0  0  0  0
    5.8187  -15.8387   24.8141 O   0  0  0  0  0  0  0  0  0  0  0  0
    9.9491  -13.4457   29.1014 C   0  0  0  0  0  0  0  0  0  0  0  0
    8.6811  -13.7690   28.3799 C   0  0  0  0  0  0  0  0  0  0  0  0
    9.0105  -14.3323   27.0128 C   0  0  2  0  0  0  0  0  0  0  0  0
    9.8121  -13.3653   26.1845 C   0  0  0  0  0  0  0  0  0  0  0  0
    7.7119  -14.6068   26.2423 C   0  0  2  0  0  0  0  0  0  0  0  0
    8.0012  -15.2062   24.9599 N   0  0  0  0  0  0  0  0  0  0  0  0
    7.0744  -13.2948   26.0151 C   0  0  0  0  0  0  0  0  0  0  0  0
    7.1777  -12.6731   24.9157 O   0  0  0  0  0  0  0  0  0  0  0  0
    6.3363  -12.7160   27.0319 O   0  0  0  0  0  0  0  0  0  0  0  0
  2  1  1  0
  3  2  2  0
  4  3  1  0
  5 11  1  0
  5  4  2  0
  6  5  1  0
  7  6  1  0
  7  8  1  1
  9  7  1  0
 10  9  2  0
 11 12  2  0
 12  2  1  0
 13  9  1  0
 14 13  1  0
 14 15  1  6
 16 15  1  0
 17 16  1  0
 18 17  1  0
 19 18  1  0
 20 14  1  0
 20 27  1  0
 21 20  2  0
 22 23  1  0
 23 24  1  0
 24 25  1  6
 26 27  1  6
 26 24  1  0
 26 28  1  0
 28 29  2  0
 28 30  1  0
M  END
$$$$
