YKI.pdb
     RDKit          3D

 30 30  0  0  1  0  0  0  0  0999 V2000
    7.9631  -12.0511   16.1277 O   0  0  0  0  0  0  0  0  0  0  0  0
    7.8281  -12.6674   17.3568 C   0  0  0  0  0  0  0  0  0  0  0  0
    6.7110  -13.4018   17.6984 C   0  0  0  0  0  0  0  0  0  0  0  0
    6.6126  -14.0008   18.9313 C   0  0  0  0  0  0  0  0  0  0  0  0
    7.6088  -13.8967   19.8667 C   0  0  0  0  0  0  0  0  0  0  0  0
    7.4781  -14.5548   21.2147 C   0  0  0  0  0  0  0  0  0  0  0  0
    8.1498  -15.9362   21.1479 C   0  0  2  0  0  0  0  0  0  0  0  0
    7.3379  -16.7614   20.3045 N   0  0  0  0  0  0  0  0  0  0  0  0
    8.2676  -16.4987   22.5165 C   0  0  0  0  0  0  0  0  0  0  0  0
    7.1869  -16.7739   23.1252 O   0  0  0  0  0  0  0  0  0  0  0  0
    8.7268  -13.1671   19.5374 C   0  0  0  0  0  0  0  0  0  0  0  0
    8.8263  -12.5641   18.2966 C   0  0  0  0  0  0  0  0  0  0  0  0
    9.5371  -16.7178   23.1104 N   0  0  0  0  0  0  0  0  0  0  0  0
    9.6738  -17.2397   24.4351 C   0  0  1  0  0  0  0  0  0  0  0  0
   10.6094  -18.4446   24.4719 C   0  0  0  0  0  0  0  0  0  0  0  0
   10.1213  -19.5525   23.5856 C   0  0  0  0  0  0  0  0  0  0  0  0
   11.0837  -20.7193   23.7088 C   0  0  0  0  0  0  0  0  0  0  0  0
   10.6406  -21.8747   22.8223 C   0  0  0  0  0  0  0  0  0  0  0  0
   11.6430  -22.9008   22.8513 N   0  0  0  0  0  0  0  0  0  0  0  0
   10.1196  -16.2403   25.4180 C   0  0  0  0  0  0  0  0  0  0  0  0
   11.2575  -15.6856   25.2697 O   0  0  0  0  0  0  0  0  0  0  0  0
    6.8205  -12.7487   28.0258 C   0  0  0  0  0  0  0  0  0  0  0  0
    7.6818  -13.9685   27.9695 C   0  0  0  0  0  0  0  0  0  0  0  0
    9.0727  -13.5808   27.5113 C   0  0  2  0  0  0  0  0  0  0  0  0
    9.0629  -12.9789   26.1324 C   0  0  0  0  0  0  0  0  0  0  0  0
    9.9599  -14.8313   27.4438 C   0  0  2  0  0  0  0  0  0  0  0  0
    9.3829  -15.8141   26.5557 N   0  0  0  0  0  0  0  0  0  0  0  0
    9.9956  -15.3937   28.8082 C   0  0  0  0  0  0  0  0  0  0  0  0
    9.4812  -16.5167   29.0913 O   0  0  0  0  0  0  0  0  0  0  0  0
   10.6100  -14.6772   29.8196 O   0  0  0  0  0  0  0  0  0  0  0  0
  2  1  1  0
  3  2  2  0
  4  3  1  0
  5 11  1  0
  5  4  2  0
  6  5  1  0
  7  6  1  0
  7  8  1  6
  9  7  1  0
 10  9  2  0
 11 12  2  0
 12  2  1  0
 13  9  1  0
 14 13  1  0
 14 15  1  6
 16 15  1  0
 17 16  1  0
 18 17  1  0
 19 18  1  0
 20 14  1  0
 20 27  1  0
 21 20  2  0
 22 23  1  0
 23 24  1  0
 24 25  1  6
 26 27  1  6
 26 24  1  0
 26 28  1  0
 28 29  2  0
 28 30  1  0
M  END
$$$$
