YKI.pdb
     RDKit          3D

 30 30  0  0  1  0  0  0  0  0999 V2000
    9.1442  -14.1105   14.9373 O   0  0  0  0  0  0  0  0  0  0  0  0
    8.7158  -14.2951   16.2378 C   0  0  0  0  0  0  0  0  0  0  0  0
    9.1202  -15.3680   17.0056 C   0  0  0  0  0  0  0  0  0  0  0  0
    8.6727  -15.5181   18.2962 C   0  0  0  0  0  0  0  0  0  0  0  0
    7.8140  -14.6187   18.8723 C   0  0  0  0  0  0  0  0  0  0  0  0
    7.3298  -14.8055   20.2858 C   0  0  0  0  0  0  0  0  0  0  0  0
    7.0192  -16.2961   20.4998 C   0  0  2  0  0  0  0  0  0  0  0  0
    5.8372  -16.5943   19.7479 N   0  0  0  0  0  0  0  0  0  0  0  0
    6.8299  -16.5617   21.9479 C   0  0  0  0  0  0  0  0  0  0  0  0
    5.7905  -16.0777   22.4951 O   0  0  0  0  0  0  0  0  0  0  0  0
    7.4041  -13.5456   18.1166 C   0  0  0  0  0  0  0  0  0  0  0  0
    7.8543  -13.3940   16.8176 C   0  0  0  0  0  0  0  0  0  0  0  0
    7.7738  -17.3263   22.6806 N   0  0  0  0  0  0  0  0  0  0  0  0
    7.7288  -17.4202   24.1072 C   0  0  1  0  0  0  0  0  0  0  0  0
    8.2648  -18.7611   24.6004 C   0  0  0  0  0  0  0  0  0  0  0  0
    8.3868  -18.7931   26.0956 C   0  0  0  0  0  0  0  0  0  0  0  0
    7.1518  -19.4712   26.6591 C   0  0  0  0  0  0  0  0  0  0  0  0
    7.2226  -19.5357   28.1784 C   0  0  0  0  0  0  0  0  0  0  0  0
    8.2635  -20.4454   28.5624 N   0  0  0  0  0  0  0  0  0  0  0  0
    8.4348  -16.3262   24.7914 C   0  0  0  0  0  0  0  0  0  0  0  0
    9.6744  -16.1429   24.5578 O   0  0  0  0  0  0  0  0  0  0  0  0
    5.9926  -11.9878   27.5507 C   0  0  0  0  0  0  0  0  0  0  0  0
    6.6455  -13.3010   27.2638 C   0  0  0  0  0  0  0  0  0  0  0  0
    7.8824  -13.0734   26.4195 C   0  0  2  0  0  0  0  0  0  0  0  0
    7.5362  -12.6465   25.0189 C   0  0  0  0  0  0  0  0  0  0  0  0
    8.6739  -14.3830   26.3018 C   0  0  2  0  0  0  0  0  0  0  0  0
    7.8537  -15.4195   25.7182 N   0  0  0  0  0  0  0  0  0  0  0  0
    9.0287  -14.7831   27.6778 C   0  0  0  0  0  0  0  0  0  0  0  0
    8.4865  -15.7713   28.2568 O   0  0  0  0  0  0  0  0  0  0  0  0
    9.9857  -14.0600   28.3672 O   0  0  0  0  0  0  0  0  0  0  0  0
  2  1  1  0
  3  2  2  0
  4  3  1  0
  5 11  1  0
  5  4  2  0
  6  5  1  0
  7  6  1  0
  7  8  1  6
  9  7  1  0
 10  9  2  0
 11 12  2  0
 12  2  1  0
 13  9  1  0
 14 13  1  0
 14 15  1  6
 16 15  1  0
 17 16  1  0
 18 17  1  0
 19 18  1  0
 20 14  1  0
 20 27  1  0
 21 20  2  0
 22 23  1  0
 23 24  1  0
 24 25  1  6
 26 27  1  1
 26 24  1  0
 26 28  1  0
 28 29  2  0
 28 30  1  0
M  END
$$$$
