YKI.pdb
     RDKit          3D

 30 30  0  0  1  0  0  0  0  0999 V2000
   10.6058  -13.2462   17.5762 O   0  0  0  0  0  0  0  0  0  0  0  0
    9.5652  -13.6932   18.3676 C   0  0  0  0  0  0  0  0  0  0  0  0
    9.7662  -14.2219   19.6262 C   0  0  0  0  0  0  0  0  0  0  0  0
    8.7057  -14.6563   20.3845 C   0  0  0  0  0  0  0  0  0  0  0  0
    7.4149  -14.5846   19.9296 C   0  0  0  0  0  0  0  0  0  0  0  0
    6.2675  -15.0729   20.7736 C   0  0  0  0  0  0  0  0  0  0  0  0
    6.3192  -16.6088   20.8220 C   0  0  2  0  0  0  0  0  0  0  0  0
    5.2033  -17.0939   20.0665 N   0  0  0  0  0  0  0  0  0  0  0  0
    6.2655  -17.0639   22.2338 C   0  0  0  0  0  0  0  0  0  0  0  0
    5.1436  -16.9873   22.8254 O   0  0  0  0  0  0  0  0  0  0  0  0
    7.2025  -14.0597   18.6766 C   0  0  0  0  0  0  0  0  0  0  0  0
    8.2696  -13.6222   17.9130 C   0  0  0  0  0  0  0  0  0  0  0  0
    7.4221  -17.5637   22.8857 N   0  0  0  0  0  0  0  0  0  0  0  0
    7.5257  -17.6147   24.3114 C   0  0  1  0  0  0  0  0  0  0  0  0
    8.3904  -18.7847   24.7716 C   0  0  0  0  0  0  0  0  0  0  0  0
    8.4789  -18.8536   26.2679 C   0  0  0  0  0  0  0  0  0  0  0  0
    9.3095  -20.0678   26.6398 C   0  0  0  0  0  0  0  0  0  0  0  0
    9.2772  -20.2982   28.1442 C   0  0  0  0  0  0  0  0  0  0  0  0
    9.8671  -21.5727   28.4375 N   0  0  0  0  0  0  0  0  0  0  0  0
    8.0259  -16.3677   24.9099 C   0  0  0  0  0  0  0  0  0  0  0  0
    9.1245  -15.8737   24.4929 O   0  0  0  0  0  0  0  0  0  0  0  0
    6.4898  -11.0235   27.3447 C   0  0  0  0  0  0  0  0  0  0  0  0
    7.5248  -12.0977   27.2556 C   0  0  0  0  0  0  0  0  0  0  0  0
    6.8845  -13.3711   26.7424 C   0  0  2  0  0  0  0  0  0  0  0  0
    5.9980  -14.0107   27.7762 C   0  0  0  0  0  0  0  0  0  0  0  0
    7.9758  -14.3941   26.3989 C   0  0  2  0  0  0  0  0  0  0  0  0
    7.3847  -15.6306   25.9416 N   0  0  0  0  0  0  0  0  0  0  0  0
    8.7106  -14.6592   27.6515 C   0  0  0  0  0  0  0  0  0  0  0  0
    9.4197  -13.7763   28.2204 O   0  0  0  0  0  0  0  0  0  0  0  0
    8.6282  -15.9122   28.2321 O   0  0  0  0  0  0  0  0  0  0  0  0
  2  1  1  0
  3  2  2  0
  4  3  1  0
  5 11  1  0
  5  4  2  0
  6  5  1  0
  7  6  1  0
  7  8  1  6
  9  7  1  0
 10  9  2  0
 11 12  2  0
 12  2  1  0
 13  9  1  0
 14 13  1  0
 14 15  1  6
 16 15  1  0
 17 16  1  0
 18 17  1  0
 19 18  1  0
 20 14  1  0
 20 27  1  0
 21 20  2  0
 22 23  1  0
 23 24  1  0
 24 25  1  1
 26 27  1  1
 26 24  1  0
 26 28  1  0
 28 29  2  0
 28 30  1  0
M  END
$$$$
