SHR.pdb
     RDKit          3D

 28 28  0  0  1  0  0  0  0  0999 V2000
    8.1731  -15.1579   18.8637 O   0  0  0  0  0  0  0  0  0  0  0  0
    6.9991  -14.4565   19.1237 C   0  0  0  0  0  0  0  0  0  0  0  0
    7.3157  -13.1167   19.8042 C   0  0  2  0  0  0  0  0  0  0  0  0
    8.1596  -12.3250   18.9348 N   0  0  0  0  0  0  0  0  0  0  0  0
    8.0475  -13.4174   21.0784 C   0  0  0  0  0  0  0  0  0  0  0  0
    9.3083  -13.5121   21.1307 O   0  0  0  0  0  0  0  0  0  0  0  0
    7.2843  -13.5995   22.2533 N   0  0  0  0  0  0  0  0  0  0  0  0
    7.8642  -13.8288   23.5530 C   0  0  1  0  0  0  0  0  0  0  0  0
    6.8378  -13.6438   24.6650 C   0  0  0  0  0  0  0  0  0  0  0  0
    7.4436  -13.8083   26.0036 C   0  0  0  0  0  0  0  0  0  0  0  0
    7.8068  -12.7768   26.8308 C   0  0  0  0  0  0  0  0  0  0  0  0
    8.3267  -13.2585   27.9721 N   0  0  0  0  0  0  0  0  0  0  0  0
    8.2899  -14.5965   27.8614 C   0  0  0  0  0  0  0  0  0  0  0  0
    7.7484  -14.9336   26.6543 N   0  0  0  0  0  0  0  0  0  0  0  0
    8.4413  -15.1918   23.5866 C   0  0  0  0  0  0  0  0  0  0  0  0
    7.7398  -16.1800   23.1751 O   0  0  0  0  0  0  0  0  0  0  0  0
   13.6903  -16.1480   18.4718 N   0  0  0  0  0  0  0  0  0  0  0  0
   14.1902  -15.3173   19.5039 C   0  0  0  0  0  0  0  0  0  0  0  0
   15.2950  -14.6724   19.3424 N   0  0  0  0  0  0  0  0  0  0  0  0
   13.5164  -15.1502   20.7502 N   0  0  0  0  0  0  0  0  0  0  0  0
   12.6343  -16.1817   21.2244 C   0  0  0  0  0  0  0  0  0  0  0  0
   12.1343  -15.9090   22.6332 C   0  0  0  0  0  0  0  0  0  0  0  0
   11.1535  -17.0063   22.9505 C   0  0  0  0  0  0  0  0  0  0  0  0
   10.3008  -16.7553   24.1615 C   0  0  2  0  0  0  0  0  0  0  0  0
    9.7570  -15.4049   24.0680 N   0  0  0  0  0  0  0  0  0  0  0  0
   11.0681  -16.8981   25.4161 C   0  0  0  0  0  0  0  0  0  0  0  0
   11.7170  -17.9307   25.6876 O   0  0  0  0  0  0  0  0  0  0  0  0
   11.0601  -15.8307   26.3254 O   0  0  0  0  0  0  0  0  0  0  0  0
  2  3  1  0
  2  1  1  0
  3  4  1  6
  5  6  2  0
  5  3  1  0
  7  5  1  0
  8  7  1  0
  9 10  1  0
  8  9  1  1
 10 14  1  0
 11 12  1  0
 11 10  2  0
 12 13  1  0
 13 14  2  0
 15 25  1  0
 15  8  1  0
 16 15  2  0
 18 20  1  0
 18 17  1  0
 19 18  2  0
 21 22  1  0
 21 20  1  0
 22 23  1  0
 24 23  1  6
 24 25  1  0
 26 24  1  0
 27 26  2  0
 28 26  1  0
M  END
$$$$
