SHR.pdb
     RDKit          3D

 28 28  0  0  1  0  0  0  0  0999 V2000
    5.2728  -19.2044   21.1036 O   0  0  0  0  0  0  0  0  0  0  0  0
    4.6906  -18.1078   20.4740 C   0  0  0  0  0  0  0  0  0  0  0  0
    5.5236  -17.6865   19.2546 C   0  0  2  0  0  0  0  0  0  0  0  0
    5.7373  -18.8349   18.3999 N   0  0  0  0  0  0  0  0  0  0  0  0
    6.8429  -17.1823   19.7592 C   0  0  0  0  0  0  0  0  0  0  0  0
    7.8883  -17.8954   19.7555 O   0  0  0  0  0  0  0  0  0  0  0  0
    6.9013  -15.8603   20.2540 N   0  0  0  0  0  0  0  0  0  0  0  0
    8.1052  -15.2520   20.7627 C   0  0  1  0  0  0  0  0  0  0  0  0
    8.1104  -13.7444   20.5353 C   0  0  0  0  0  0  0  0  0  0  0  0
    8.2300  -13.4064   19.1010 C   0  0  0  0  0  0  0  0  0  0  0  0
    7.2936  -12.7111   18.3797 C   0  0  0  0  0  0  0  0  0  0  0  0
    7.6998  -12.5695   17.1070 N   0  0  0  0  0  0  0  0  0  0  0  0
    8.8948  -13.1775   17.0287 C   0  0  0  0  0  0  0  0  0  0  0  0
    9.2199  -13.6907   18.2514 N   0  0  0  0  0  0  0  0  0  0  0  0
    8.2315  -15.5705   22.2029 C   0  0  0  0  0  0  0  0  0  0  0  0
    7.2348  -15.3675   22.9798 O   0  0  0  0  0  0  0  0  0  0  0  0
   12.3607  -22.3159   24.5883 N   0  0  0  0  0  0  0  0  0  0  0  0
   12.2349  -21.7277   25.8703 C   0  0  0  0  0  0  0  0  0  0  0  0
   12.7164  -22.3213   26.9086 N   0  0  0  0  0  0  0  0  0  0  0  0
   11.5848  -20.4753   26.0808 N   0  0  0  0  0  0  0  0  0  0  0  0
   10.5249  -20.0684   25.1987 C   0  0  0  0  0  0  0  0  0  0  0  0
   10.0916  -18.6326   25.4434 C   0  0  0  0  0  0  0  0  0  0  0  0
    9.8593  -18.0267   24.0849 C   0  0  0  0  0  0  0  0  0  0  0  0
    9.5140  -16.5649   24.1002 C   0  0  2  0  0  0  0  0  0  0  0  0
    9.4415  -16.0959   22.7207 N   0  0  0  0  0  0  0  0  0  0  0  0
   10.5118  -15.7697   24.8454 C   0  0  0  0  0  0  0  0  0  0  0  0
   11.4511  -15.1746   24.2756 O   0  0  0  0  0  0  0  0  0  0  0  0
   10.3894  -15.6875   26.2398 O   0  0  0  0  0  0  0  0  0  0  0  0
  2  3  1  0
  2  1  1  0
  3  4  1  6
  5  6  2  0
  5  3  1  0
  7  5  1  0
  8  7  1  0
  9 10  1  0
  8  9  1  1
 10 14  1  0
 11 12  1  0
 11 10  2  0
 12 13  1  0
 13 14  2  0
 15 25  1  0
 15  8  1  0
 16 15  2  0
 18 20  1  0
 18 17  1  0
 19 18  2  0
 21 22  1  0
 21 20  1  0
 22 23  1  0
 24 23  1  6
 24 25  1  0
 26 24  1  0
 27 26  2  0
 28 26  1  0
M  END
$$$$
