SHR.pdb
     RDKit          3D

 28 28  0  0  1  0  0  0  0  0999 V2000
   12.2013  -18.4325   14.3289 O   0  0  0  0  0  0  0  0  0  0  0  0
   10.8177  -18.4152   14.4817 C   0  0  0  0  0  0  0  0  0  0  0  0
   10.2327  -17.1142   13.9129 C   0  0  2  0  0  0  0  0  0  0  0  0
   11.0558  -16.6592   12.8127 N   0  0  0  0  0  0  0  0  0  0  0  0
   10.2496  -16.0919   15.0103 C   0  0  0  0  0  0  0  0  0  0  0  0
   11.2037  -15.2746   15.1617 O   0  0  0  0  0  0  0  0  0  0  0  0
    9.1515  -16.0556   15.8985 N   0  0  0  0  0  0  0  0  0  0  0  0
    9.0905  -15.1984   17.0559 C   0  0  1  0  0  0  0  0  0  0  0  0
    7.6821  -15.1411   17.6370 C   0  0  0  0  0  0  0  0  0  0  0  0
    7.5996  -14.2127   18.7846 C   0  0  0  0  0  0  0  0  0  0  0  0
    7.0918  -14.5344   20.0171 C   0  0  0  0  0  0  0  0  0  0  0  0
    7.1589  -13.4730   20.8379 N   0  0  0  0  0  0  0  0  0  0  0  0
    7.7105  -12.4818   20.1189 C   0  0  0  0  0  0  0  0  0  0  0  0
    7.9807  -12.9354   18.8598 N   0  0  0  0  0  0  0  0  0  0  0  0
   10.0597  -15.6844   18.0639 C   0  0  0  0  0  0  0  0  0  0  0  0
   10.2385  -16.9437   18.2058 O   0  0  0  0  0  0  0  0  0  0  0  0
   15.7335  -14.8992   16.6007 N   0  0  0  0  0  0  0  0  0  0  0  0
   16.7375  -15.0105   17.5931 C   0  0  0  0  0  0  0  0  0  0  0  0
   17.8735  -15.5515   17.3114 N   0  0  0  0  0  0  0  0  0  0  0  0
   16.5541  -14.5416   18.9279 N   0  0  0  0  0  0  0  0  0  0  0  0
   15.2814  -14.0013   19.3221 C   0  0  0  0  0  0  0  0  0  0  0  0
   14.2315  -15.0829   19.5141 C   0  0  0  0  0  0  0  0  0  0  0  0
   12.9454  -14.3679   19.8332 C   0  0  0  0  0  0  0  0  0  0  0  0
   11.7294  -15.2489   19.8683 C   0  0  2  0  0  0  0  0  0  0  0  0
   10.7852  -14.7681   18.8654 N   0  0  0  0  0  0  0  0  0  0  0  0
   11.0863  -15.2496   21.1986 C   0  0  0  0  0  0  0  0  0  0  0  0
   10.0749  -14.5610   21.4511 O   0  0  0  0  0  0  0  0  0  0  0  0
   11.6396  -16.0553   22.2041 O   0  0  0  0  0  0  0  0  0  0  0  0
  2  3  1  0
  2  1  1  0
  3  4  1  6
  5  6  2  0
  5  3  1  0
  7  5  1  0
  8  7  1  0
  9 10  1  0
  8  9  1  1
 10 14  1  0
 11 12  1  0
 11 10  2  0
 12 13  1  0
 13 14  2  0
 15 25  1  0
 15  8  1  0
 16 15  2  0
 18 20  1  0
 18 17  1  0
 19 18  2  0
 21 22  1  0
 21 20  1  0
 22 23  1  0
 24 23  1  1
 24 25  1  0
 26 24  1  0
 27 26  2  0
 28 26  1  0
M  END
$$$$
