SHR.pdb
     RDKit          3D

 28 28  0  0  1  0  0  0  0  0999 V2000
   10.5874  -13.3033   19.2409 O   0  0  0  0  0  0  0  0  0  0  0  0
   10.1078  -14.2492   18.3391 C   0  0  0  0  0  0  0  0  0  0  0  0
    8.5778  -14.1639   18.2372 C   0  0  2  0  0  0  0  0  0  0  0  0
    8.1893  -12.7911   17.9932 N   0  0  0  0  0  0  0  0  0  0  0  0
    8.0101  -14.6222   19.5476 C   0  0  0  0  0  0  0  0  0  0  0  0
    7.0193  -14.0551   20.0934 O   0  0  0  0  0  0  0  0  0  0  0  0
    8.6176  -15.7289   20.1817 N   0  0  0  0  0  0  0  0  0  0  0  0
    8.0809  -16.3675   21.3574 C   0  0  1  0  0  0  0  0  0  0  0  0
    7.4307  -17.7049   21.0213 C   0  0  0  0  0  0  0  0  0  0  0  0
    7.0099  -18.4316   22.2381 C   0  0  0  0  0  0  0  0  0  0  0  0
    7.1442  -17.9587   23.5182 C   0  0  0  0  0  0  0  0  0  0  0  0
    6.6668  -18.8560   24.3967 N   0  0  0  0  0  0  0  0  0  0  0  0
    6.2313  -19.8955   23.6661 C   0  0  0  0  0  0  0  0  0  0  0  0
    6.4417  -19.6352   22.3425 N   0  0  0  0  0  0  0  0  0  0  0  0
    9.1682  -16.5414   22.3470 C   0  0  0  0  0  0  0  0  0  0  0  0
    9.7625  -17.6717   22.4335 O   0  0  0  0  0  0  0  0  0  0  0  0
    4.7809  -11.6909   26.0967 N   0  0  0  0  0  0  0  0  0  0  0  0
    6.1015  -11.6820   26.6077 C   0  0  0  0  0  0  0  0  0  0  0  0
    6.7845  -10.5886   26.6263 N   0  0  0  0  0  0  0  0  0  0  0  0
    6.7356  -12.8532   27.1190 N   0  0  0  0  0  0  0  0  0  0  0  0
    6.8519  -14.0190   26.2857 C   0  0  0  0  0  0  0  0  0  0  0  0
    8.1443  -14.0288   25.4866 C   0  0  0  0  0  0  0  0  0  0  0  0
    8.5597  -15.4719   25.3777 C   0  0  0  0  0  0  0  0  0  0  0  0
    9.8267  -15.7038   24.6048 C   0  0  2  0  0  0  0  0  0  0  0  0
    9.5514  -15.4698   23.1914 N   0  0  0  0  0  0  0  0  0  0  0  0
   10.3442  -17.0751   24.7916 C   0  0  0  0  0  0  0  0  0  0  0  0
   10.2098  -17.9630   23.9230 O   0  0  0  0  0  0  0  0  0  0  0  0
   11.0073  -17.3781   25.9894 O   0  0  0  0  0  0  0  0  0  0  0  0
  2  3  1  0
  2  1  1  0
  3  4  1  1
  5  6  2  0
  5  3  1  0
  7  5  1  0
  8  7  1  0
  9 10  1  0
  8  9  1  6
 10 14  1  0
 11 12  1  0
 11 10  2  0
 12 13  1  0
 13 14  2  0
 15 25  1  0
 15  8  1  0
 16 15  2  0
 18 20  1  0
 18 17  1  0
 19 18  2  0
 21 22  1  0
 21 20  1  0
 22 23  1  0
 24 23  1  1
 24 25  1  0
 26 24  1  0
 27 26  2  0
 28 26  1  0
M  END
$$$$
