SHR.pdb
     RDKit          3D

 28 28  0  0  1  0  0  0  0  0999 V2000
    8.9405  -19.8537   19.8671 O   0  0  0  0  0  0  0  0  0  0  0  0
    7.7227  -19.3040   19.4766 C   0  0  0  0  0  0  0  0  0  0  0  0
    7.9347  -17.9078   18.8732 C   0  0  2  0  0  0  0  0  0  0  0  0
    8.6964  -18.0255   17.6480 N   0  0  0  0  0  0  0  0  0  0  0  0
    8.7072  -17.0959   19.8699 C   0  0  0  0  0  0  0  0  0  0  0  0
    9.9319  -16.8174   19.7151 O   0  0  0  0  0  0  0  0  0  0  0  0
    8.0261  -16.6343   21.0184 N   0  0  0  0  0  0  0  0  0  0  0  0
    8.6189  -15.7598   21.9991 C   0  0  1  0  0  0  0  0  0  0  0  0
    7.8172  -14.4729   22.1598 C   0  0  0  0  0  0  0  0  0  0  0  0
    7.8867  -13.6284   20.9484 C   0  0  0  0  0  0  0  0  0  0  0  0
    6.8585  -13.4488   20.0591 C   0  0  0  0  0  0  0  0  0  0  0  0
    7.2404  -12.6256   19.0684 N   0  0  0  0  0  0  0  0  0  0  0  0
    8.5122  -12.2872   19.3363 C   0  0  0  0  0  0  0  0  0  0  0  0
    8.9085  -12.9021   20.4891 N   0  0  0  0  0  0  0  0  0  0  0  0
    8.7221  -16.4834   23.2865 C   0  0  0  0  0  0  0  0  0  0  0  0
    7.6529  -16.8390   23.8934 O   0  0  0  0  0  0  0  0  0  0  0  0
   13.7598  -21.9182   21.9812 N   0  0  0  0  0  0  0  0  0  0  0  0
   14.1736  -21.0966   23.0578 C   0  0  0  0  0  0  0  0  0  0  0  0
   15.3742  -20.6280   23.0946 N   0  0  0  0  0  0  0  0  0  0  0  0
   13.3068  -20.7486   24.1362 N   0  0  0  0  0  0  0  0  0  0  0  0
   11.9381  -20.4028   23.8639 C   0  0  0  0  0  0  0  0  0  0  0  0
   11.7514  -18.9086   23.6599 C   0  0  0  0  0  0  0  0  0  0  0  0
   11.3959  -18.3419   25.0088 C   0  0  0  0  0  0  0  0  0  0  0  0
   10.0936  -17.5946   25.0522 C   0  0  2  0  0  0  0  0  0  0  0  0
    9.9899  -16.7824   23.8448 N   0  0  0  0  0  0  0  0  0  0  0  0
    9.9933  -16.7290   26.2455 C   0  0  0  0  0  0  0  0  0  0  0  0
   10.0568  -15.4832   26.1734 O   0  0  0  0  0  0  0  0  0  0  0  0
    9.8209  -17.3385   27.4965 O   0  0  0  0  0  0  0  0  0  0  0  0
  2  3  1  0
  2  1  1  0
  3  4  1  6
  5  6  2  0
  5  3  1  0
  7  5  1  0
  8  7  1  0
  9 10  1  0
  8  9  1  1
 10 14  1  0
 11 12  1  0
 11 10  2  0
 12 13  1  0
 13 14  2  0
 15 25  1  0
 15  8  1  0
 16 15  2  0
 18 20  1  0
 18 17  1  0
 19 18  2  0
 21 22  1  0
 21 20  1  0
 22 23  1  0
 24 23  1  6
 24 25  1  0
 26 24  1  0
 27 26  2  0
 28 26  1  0
M  END
$$$$
