SHR.pdb
     RDKit          3D

 28 28  0  0  1  0  0  0  0  0999 V2000
   11.4235  -20.3978   17.6463 O   0  0  0  0  0  0  0  0  0  0  0  0
   10.1041  -20.0086   17.8602 C   0  0  0  0  0  0  0  0  0  0  0  0
    9.8678  -18.5940   17.3113 C   0  0  2  0  0  0  0  0  0  0  0  0
   10.5719  -18.4431   16.0557 N   0  0  0  0  0  0  0  0  0  0  0  0
   10.4136  -17.6216   18.3143 C   0  0  0  0  0  0  0  0  0  0  0  0
   11.5391  -17.0607   18.1729 O   0  0  0  0  0  0  0  0  0  0  0  0
    9.6285  -17.3343   19.4532 N   0  0  0  0  0  0  0  0  0  0  0  0
   10.0234  -16.4015   20.4789 C   0  0  1  0  0  0  0  0  0  0  0  0
    8.8137  -15.8069   21.1913 C   0  0  0  0  0  0  0  0  0  0  0  0
    8.1745  -14.7411   20.3904 C   0  0  0  0  0  0  0  0  0  0  0  0
    8.6460  -14.2739   19.1905 C   0  0  0  0  0  0  0  0  0  0  0  0
    7.8401  -13.3075   18.7200 N   0  0  0  0  0  0  0  0  0  0  0  0
    6.8596  -13.1673   19.6271 C   0  0  0  0  0  0  0  0  0  0  0  0
    7.0647  -14.0464   20.6514 N   0  0  0  0  0  0  0  0  0  0  0  0
   10.9153  -17.0924   21.4375 C   0  0  0  0  0  0  0  0  0  0  0  0
   10.6578  -18.2997   21.7754 O   0  0  0  0  0  0  0  0  0  0  0  0
   19.1650  -14.8262   23.3947 N   0  0  0  0  0  0  0  0  0  0  0  0
   18.9448  -15.9303   24.2537 C   0  0  0  0  0  0  0  0  0  0  0  0
   19.9002  -16.3792   24.9941 N   0  0  0  0  0  0  0  0  0  0  0  0
   17.6844  -16.5920   24.3469 N   0  0  0  0  0  0  0  0  0  0  0  0
   16.5975  -16.1713   23.5052 C   0  0  0  0  0  0  0  0  0  0  0  0
   15.3534  -17.0209   23.7036 C   0  0  0  0  0  0  0  0  0  0  0  0
   14.3067  -16.4550   22.7811 C   0  0  0  0  0  0  0  0  0  0  0  0
   12.9702  -17.1365   22.8548 C   0  0  2  0  0  0  0  0  0  0  0  0
   12.0447  -16.4281   21.9774 N   0  0  0  0  0  0  0  0  0  0  0  0
   12.4355  -17.1557   24.2322 C   0  0  0  0  0  0  0  0  0  0  0  0
   11.6078  -16.3126   24.6384 O   0  0  0  0  0  0  0  0  0  0  0  0
   12.8801  -18.1599   25.1039 O   0  0  0  0  0  0  0  0  0  0  0  0
  2  3  1  0
  2  1  1  0
  3  4  1  6
  5  6  2  0
  5  3  1  0
  7  5  1  0
  8  7  1  0
  9 10  1  0
  8  9  1  1
 10 14  1  0
 11 12  1  0
 11 10  2  0
 12 13  1  0
 13 14  2  0
 15 25  1  0
 15  8  1  0
 16 15  2  0
 18 20  1  0
 18 17  1  0
 19 18  2  0
 21 22  1  0
 21 20  1  0
 22 23  1  0
 24 23  1  1
 24 25  1  0
 26 24  1  0
 27 26  2  0
 28 26  1  0
M  END
$$$$
