SHR.pdb
     RDKit          3D

 28 28  0  0  1  0  0  0  0  0999 V2000
   10.1678  -18.7229   21.5388 O   0  0  0  0  0  0  0  0  0  0  0  0
    9.6892  -17.4247   21.3853 C   0  0  0  0  0  0  0  0  0  0  0  0
   10.7900  -16.4060   21.7153 C   0  0  2  0  0  0  0  0  0  0  0  0
   11.9514  -16.6720   20.8935 N   0  0  0  0  0  0  0  0  0  0  0  0
   11.1472  -16.5775   23.1619 C   0  0  0  0  0  0  0  0  0  0  0  0
   12.2254  -17.1252   23.5343 O   0  0  0  0  0  0  0  0  0  0  0  0
   10.2335  -16.1047   24.1302 N   0  0  0  0  0  0  0  0  0  0  0  0
   10.4604  -16.1940   25.5510 C   0  0  1  0  0  0  0  0  0  0  0  0
    9.7099  -15.1039   26.3079 C   0  0  0  0  0  0  0  0  0  0  0  0
    9.9603  -15.1747   27.7632 C   0  0  0  0  0  0  0  0  0  0  0  0
   10.8650  -14.3984   28.4407 C   0  0  0  0  0  0  0  0  0  0  0  0
   10.8527  -14.7059   29.7484 N   0  0  0  0  0  0  0  0  0  0  0  0
    9.9375  -15.6782   29.8927 C   0  0  0  0  0  0  0  0  0  0  0  0
    9.3903  -15.9657   28.6753 N   0  0  0  0  0  0  0  0  0  0  0  0
   10.0534  -17.5387   26.0177 C   0  0  0  0  0  0  0  0  0  0  0  0
    8.8931  -17.9840   25.7120 O   0  0  0  0  0  0  0  0  0  0  0  0
   15.8539  -21.7875   30.5833 N   0  0  0  0  0  0  0  0  0  0  0  0
   15.0592  -20.9343   31.3869 C   0  0  0  0  0  0  0  0  0  0  0  0
   15.4167  -20.6591   32.5948 N   0  0  0  0  0  0  0  0  0  0  0  0
   13.8479  -20.3447   30.9173 N   0  0  0  0  0  0  0  0  0  0  0  0
   13.3765  -20.6492   29.5937 C   0  0  0  0  0  0  0  0  0  0  0  0
   12.0710  -19.9418   29.2705 C   0  0  0  0  0  0  0  0  0  0  0  0
   11.7194  -20.3331   27.8598 C   0  0  0  0  0  0  0  0  0  0  0  0
   10.5161  -19.6330   27.2956 C   0  0  2  0  0  0  0  0  0  0  0  0
   10.9366  -18.3290   26.7948 N   0  0  0  0  0  0  0  0  0  0  0  0
    9.4535  -19.4594   28.3075 C   0  0  0  0  0  0  0  0  0  0  0  0
    9.3277  -18.4071   28.9692 O   0  0  0  0  0  0  0  0  0  0  0  0
    8.5615  -20.5196   28.5235 O   0  0  0  0  0  0  0  0  0  0  0  0
  2  3  1  0
  2  1  1  0
  3  4  1  6
  5  6  2  0
  5  3  1  0
  7  5  1  0
  8  7  1  0
  9 10  1  0
  8  9  1  1
 10 14  1  0
 11 12  1  0
 11 10  2  0
 12 13  1  0
 13 14  2  0
 15 25  1  0
 15  8  1  0
 16 15  2  0
 18 20  1  0
 18 17  1  0
 19 18  2  0
 21 22  1  0
 21 20  1  0
 22 23  1  0
 24 23  1  1
 24 25  1  0
 26 24  1  0
 27 26  2  0
 28 26  1  0
M  END
$$$$
