SHR.pdb
     RDKit          3D

 28 28  0  0  1  0  0  0  0  0999 V2000
    9.9246  -20.0809   20.0309 O   0  0  0  0  0  0  0  0  0  0  0  0
    8.6074  -19.6578   19.8767 C   0  0  0  0  0  0  0  0  0  0  0  0
    8.5247  -18.5350   18.8322 C   0  0  2  0  0  0  0  0  0  0  0  0
    9.1112  -18.9915   17.5902 N   0  0  0  0  0  0  0  0  0  0  0  0
    9.3059  -17.3679   19.3586 C   0  0  0  0  0  0  0  0  0  0  0  0
   10.4434  -17.0518   18.9031 O   0  0  0  0  0  0  0  0  0  0  0  0
    8.7351  -16.6055   20.4021 N   0  0  0  0  0  0  0  0  0  0  0  0
    9.3617  -15.4388   20.9716 C   0  0  1  0  0  0  0  0  0  0  0  0
    8.3673  -14.2957   21.1423 C   0  0  0  0  0  0  0  0  0  0  0  0
    7.8940  -13.7811   19.8397 C   0  0  0  0  0  0  0  0  0  0  0  0
    8.3233  -12.6176   19.2547 C   0  0  0  0  0  0  0  0  0  0  0  0
    7.7022  -12.4335   18.0777 N   0  0  0  0  0  0  0  0  0  0  0  0
    6.8805  -13.4845   17.9230 C   0  0  0  0  0  0  0  0  0  0  0  0
    6.9981  -14.3109   19.0035 N   0  0  0  0  0  0  0  0  0  0  0  0
    9.9721  -15.8076   22.2689 C   0  0  0  0  0  0  0  0  0  0  0  0
    9.2518  -16.3744   23.1622 O   0  0  0  0  0  0  0  0  0  0  0  0
   10.3628  -22.0154   25.6595 N   0  0  0  0  0  0  0  0  0  0  0  0
   11.7007  -22.1161   25.2066 C   0  0  0  0  0  0  0  0  0  0  0  0
   12.2842  -23.2646   25.1516 N   0  0  0  0  0  0  0  0  0  0  0  0
   12.4602  -20.9808   24.7949 N   0  0  0  0  0  0  0  0  0  0  0  0
   11.8301  -19.9492   24.0166 C   0  0  0  0  0  0  0  0  0  0  0  0
   12.7993  -18.8427   23.6352 C   0  0  0  0  0  0  0  0  0  0  0  0
   11.9935  -17.8215   22.8770 C   0  0  0  0  0  0  0  0  0  0  0  0
   12.1172  -16.4159   23.3921 C   0  0  2  0  0  0  0  0  0  0  0  0
   11.3400  -15.5387   22.5234 N   0  0  0  0  0  0  0  0  0  0  0  0
   13.5233  -15.9631   23.4287 C   0  0  0  0  0  0  0  0  0  0  0  0
   14.0186  -15.2513   22.5292 O   0  0  0  0  0  0  0  0  0  0  0  0
   14.3189  -16.3522   24.5157 O   0  0  0  0  0  0  0  0  0  0  0  0
  2  3  1  0
  2  1  1  0
  3  4  1  6
  5  6  2  0
  5  3  1  0
  7  5  1  0
  8  7  1  0
  9 10  1  0
  8  9  1  1
 10 14  1  0
 11 12  1  0
 11 10  2  0
 12 13  1  0
 13 14  2  0
 15 25  1  0
 15  8  1  0
 16 15  2  0
 18 20  1  0
 18 17  1  0
 19 18  2  0
 21 22  1  0
 21 20  1  0
 22 23  1  0
 24 23  1  6
 24 25  1  0
 26 24  1  0
 27 26  2  0
 28 26  1  0
M  END
$$$$
