KYH.pdb
     RDKit          3D

 32 33  0  0  1  0  0  0  0  0999 V2000
   15.3662  -13.2376  -18.3317 N   0  0  0  0  0  0  0  0  0  0  0  0
   16.1384  -12.8696  -17.1878 C   0  0  1  0  0  0  0  0  0  0  0  0
   17.2928  -13.8041  -16.9011 C   0  0  0  0  0  0  0  0  0  0  0  0
   16.7538  -15.1133  -16.3926 C   0  0  0  0  0  0  0  0  0  0  0  0
   17.8688  -16.0106  -15.9476 C   0  0  0  0  0  0  0  0  0  0  0  0
   17.3788  -17.3565  -15.4298 C   0  0  0  0  0  0  0  0  0  0  0  0
   18.4686  -18.0969  -14.8173 N   0  0  0  0  0  0  0  0  0  0  0  0
   16.6940  -11.4945  -17.3507 C   0  0  0  0  0  0  0  0  0  0  0  0
   17.0146  -11.0627  -18.4974 O   0  0  0  0  0  0  0  0  0  0  0  0
   11.4564   -8.1700  -18.6408 O   0  0  0  0  0  0  0  0  0  0  0  0
   12.6609   -8.2155  -17.9415 C   0  0  0  0  0  0  0  0  0  0  0  0
   13.7466   -7.5110  -18.4298 C   0  0  0  0  0  0  0  0  0  0  0  0
   14.9559   -7.5355  -17.7595 C   0  0  0  0  0  0  0  0  0  0  0  0
   15.0949   -8.2613  -16.5979 C   0  0  0  0  0  0  0  0  0  0  0  0
   16.3664   -8.3093  -15.8714 C   0  0  0  0  0  0  0  0  0  0  0  0
   17.3559   -9.2829  -16.4653 C   0  0  2  0  0  0  0  0  0  0  0  0
   16.8702  -10.6557  -16.2291 N   0  0  0  0  0  0  0  0  0  0  0  0
   18.6698   -9.0924  -15.8123 C   0  0  0  0  0  0  0  0  0  0  0  0
   19.1931  -10.0389  -15.2049 O   0  0  0  0  0  0  0  0  0  0  0  0
   14.0171   -8.9639  -16.1080 C   0  0  0  0  0  0  0  0  0  0  0  0
   12.8086   -8.9425  -16.7732 C   0  0  0  0  0  0  0  0  0  0  0  0
   19.3470   -7.8421  -15.8668 N   0  0  0  0  0  0  0  0  0  0  0  0
   20.6625   -7.6240  -15.2669 C   0  0  1  0  0  0  0  0  0  0  0  0
   21.7627   -7.9768  -16.2002 C   0  0  0  0  0  0  0  0  0  0  0  0
   21.9169   -9.4424  -16.2909 C   0  0  0  0  0  0  0  0  0  0  0  0
   21.2203  -10.4198  -15.5750 C   0  0  0  0  0  0  0  0  0  0  0  0
   21.6844  -11.6070  -15.9477 N   0  0  0  0  0  0  0  0  0  0  0  0
   22.6386  -11.3973  -16.8641 C   0  0  0  0  0  0  0  0  0  0  0  0
   22.8062  -10.0921  -17.0969 N   0  0  0  0  0  0  0  0  0  0  0  0
   20.7762   -6.2873  -14.6802 C   0  0  0  0  0  0  0  0  0  0  0  0
   19.8167   -5.4733  -14.9163 O   0  0  0  0  0  0  0  0  0  0  0  0
   21.8069   -5.8182  -13.9008 O   0  0  0  0  0  0  0  0  0  0  0  0
  2  1  1  6
  2  3  1  0
  3  4  1  0
  4  5  1  0
  6  5  1  0
  7  6  1  0
  8  2  1  0
  9  8  2  0
 10 11  1  0
 11 21  2  0
 11 12  1  0
 12 13  2  0
 13 14  1  0
 14 15  1  0
 16 15  1  1
 16 17  1  0
 17  8  1  0
 18 16  1  0
 18 22  1  0
 19 18  2  0
 20 14  2  0
 21 20  1  0
 23 22  1  0
 23 30  1  0
 23 24  1  6
 24 25  1  0
 25 29  1  0
 25 26  2  0
 26 27  1  0
 28 27  1  0
 29 28  2  0
 30 32  1  0
 31 30  2  0
M  END
$$$$
