KYH.pdb
     RDKit          3D

 32 33  0  0  1  0  0  0  0  0999 V2000
   27.4917  -22.4003  -17.2549 N   0  0  0  0  0  0  0  0  0  0  0  0
   26.1517  -22.8563  -17.0629 C   0  0  1  0  0  0  0  0  0  0  0  0
   25.9380  -24.3062  -17.4378 C   0  0  0  0  0  0  0  0  0  0  0  0
   26.2549  -24.4908  -18.8967 C   0  0  0  0  0  0  0  0  0  0  0  0
   25.0648  -24.1596  -19.7455 C   0  0  0  0  0  0  0  0  0  0  0  0
   25.3143  -24.3795  -21.2317 C   0  0  0  0  0  0  0  0  0  0  0  0
   24.1274  -24.0536  -22.0038 N   0  0  0  0  0  0  0  0  0  0  0  0
   25.7397  -22.6876  -15.6388 C   0  0  0  0  0  0  0  0  0  0  0  0
   24.7439  -23.3206  -15.1788 O   0  0  0  0  0  0  0  0  0  0  0  0
   25.2600  -20.1221   -7.2540 O   0  0  0  0  0  0  0  0  0  0  0  0
   25.6787  -20.3225   -8.5679 C   0  0  0  0  0  0  0  0  0  0  0  0
   25.9703  -21.6072   -8.9900 C   0  0  0  0  0  0  0  0  0  0  0  0
   26.3882  -21.8398  -10.2876 C   0  0  0  0  0  0  0  0  0  0  0  0
   26.5196  -20.7962  -11.1757 C   0  0  0  0  0  0  0  0  0  0  0  0
   26.9663  -21.0140  -12.5540 C   0  0  0  0  0  0  0  0  0  0  0  0
   25.8725  -21.5234  -13.4616 C   0  0  2  0  0  0  0  0  0  0  0  0
   26.4540  -21.8201  -14.7846 N   0  0  0  0  0  0  0  0  0  0  0  0
   24.8297  -20.4817  -13.5903 C   0  0  0  0  0  0  0  0  0  0  0  0
   24.9816  -19.5630  -14.4096 O   0  0  0  0  0  0  0  0  0  0  0  0
   26.2304  -19.5158  -10.7601 C   0  0  0  0  0  0  0  0  0  0  0  0
   25.8130  -19.2788   -9.4667 C   0  0  0  0  0  0  0  0  0  0  0  0
   23.6529  -20.5126  -12.7908 N   0  0  0  0  0  0  0  0  0  0  0  0
   22.4111  -19.8448  -13.1784 C   0  0  1  0  0  0  0  0  0  0  0  0
   22.5817  -19.0261  -14.4057 C   0  0  0  0  0  0  0  0  0  0  0  0
   21.3393  -18.2915  -14.7169 C   0  0  0  0  0  0  0  0  0  0  0  0
   20.5654  -17.5170  -13.8484 C   0  0  0  0  0  0  0  0  0  0  0  0
   19.5247  -17.0544  -14.5315 N   0  0  0  0  0  0  0  0  0  0  0  0
   19.6289  -17.5143  -15.7854 C   0  0  0  0  0  0  0  0  0  0  0  0
   20.7209  -18.2702  -15.9334 N   0  0  0  0  0  0  0  0  0  0  0  0
   21.2857  -20.7800  -13.2303 C   0  0  0  0  0  0  0  0  0  0  0  0
   20.1594  -20.3024  -13.6077 O   0  0  0  0  0  0  0  0  0  0  0  0
   21.3156  -22.1182  -12.9170 O   0  0  0  0  0  0  0  0  0  0  0  0
  2  1  1  1
  2  3  1  0
  3  4  1  0
  4  5  1  0
  6  5  1  0
  7  6  1  0
  8  2  1  0
  9  8  2  0
 10 11  1  0
 11 21  2  0
 11 12  1  0
 12 13  2  0
 13 14  1  0
 14 15  1  0
 16 15  1  1
 16 17  1  0
 17  8  1  0
 18 16  1  0
 18 22  1  0
 19 18  2  0
 20 14  2  0
 21 20  1  0
 23 22  1  0
 23 30  1  0
 23 24  1  6
 24 25  1  0
 25 29  1  0
 25 26  2  0
 26 27  1  0
 28 27  1  0
 29 28  2  0
 30 32  1  0
 31 30  2  0
M  END
$$$$
