KYH.pdb
     RDKit          3D

 32 33  0  0  1  0  0  0  0  0999 V2000
   39.3362  -24.2250    5.0130 N   0  0  0  0  0  0  0  0  0  0  0  0
   37.9797  -24.5097    4.6678 C   0  0  1  0  0  0  0  0  0  0  0  0
   37.6658  -25.9871    4.5839 C   0  0  0  0  0  0  0  0  0  0  0  0
   38.3047  -26.5583    3.3476 C   0  0  0  0  0  0  0  0  0  0  0  0
   37.9923  -28.0180    3.2134 C   0  0  0  0  0  0  0  0  0  0  0  0
   38.6375  -28.6545    1.9894 C   0  0  0  0  0  0  0  0  0  0  0  0
   38.3072  -30.0673    1.9130 N   0  0  0  0  0  0  0  0  0  0  0  0
   37.0472  -23.9007    5.6606 C   0  0  0  0  0  0  0  0  0  0  0  0
   37.4231  -23.6936    6.8522 O   0  0  0  0  0  0  0  0  0  0  0  0
   30.2547  -19.4480    9.0651 O   0  0  0  0  0  0  0  0  0  0  0  0
   31.1126  -20.1215    8.1978 C   0  0  0  0  0  0  0  0  0  0  0  0
   32.4609  -19.8127    8.2145 C   0  0  0  0  0  0  0  0  0  0  0  0
   33.3387  -20.4629    7.3664 C   0  0  0  0  0  0  0  0  0  0  0  0
   32.8820  -21.4255    6.4946 C   0  0  0  0  0  0  0  0  0  0  0  0
   33.7893  -22.1251    5.5812 C   0  0  0  0  0  0  0  0  0  0  0  0
   34.8851  -22.8815    6.2929 C   0  0  2  0  0  0  0  0  0  0  0  0
   35.7332  -23.5469    5.2857 N   0  0  0  0  0  0  0  0  0  0  0  0
   34.2725  -23.8912    7.1841 C   0  0  0  0  0  0  0  0  0  0  0  0
   33.7337  -24.8941    6.6918 O   0  0  0  0  0  0  0  0  0  0  0  0
   31.5409  -21.7363    6.4744 C   0  0  0  0  0  0  0  0  0  0  0  0
   30.6614  -21.0904    7.3186 C   0  0  0  0  0  0  0  0  0  0  0  0
   34.2889  -23.7346    8.5984 N   0  0  0  0  0  0  0  0  0  0  0  0
   33.5856  -24.6397    9.5064 C   0  0  1  0  0  0  0  0  0  0  0  0
   34.4647  -25.1169   10.6042 C   0  0  0  0  0  0  0  0  0  0  0  0
   35.4669  -26.0712   10.0896 C   0  0  0  0  0  0  0  0  0  0  0  0
   35.9342  -26.1937    8.7782 C   0  0  0  0  0  0  0  0  0  0  0  0
   36.8122  -27.1897    8.7491 N   0  0  0  0  0  0  0  0  0  0  0  0
   36.9025  -27.6838    9.9910 C   0  0  0  0  0  0  0  0  0  0  0  0
   36.0978  -27.0272   10.8318 N   0  0  0  0  0  0  0  0  0  0  0  0
   32.3124  -24.0744    9.9573 C   0  0  0  0  0  0  0  0  0  0  0  0
   31.3144  -24.8748   10.0065 O   0  0  0  0  0  0  0  0  0  0  0  0
   32.0801  -22.7731   10.3346 O   0  0  0  0  0  0  0  0  0  0  0  0
  2  1  1  1
  2  3  1  0
  3  4  1  0
  4  5  1  0
  6  5  1  0
  7  6  1  0
  8  2  1  0
  9  8  2  0
 10 11  1  0
 11 21  2  0
 11 12  1  0
 12 13  2  0
 13 14  1  0
 14 15  1  0
 16 15  1  6
 16 17  1  0
 17  8  1  0
 18 16  1  0
 18 22  1  0
 19 18  2  0
 20 14  2  0
 21 20  1  0
 23 22  1  0
 23 30  1  0
 23 24  1  1
 24 25  1  0
 25 29  1  0
 25 26  2  0
 26 27  1  0
 28 27  1  0
 29 28  2  0
 30 32  1  0
 31 30  2  0
M  END
$$$$
