KYH.pdb
     RDKit          3D

 32 33  0  0  1  0  0  0  0  0999 V2000
   27.0544  -18.5565  -18.1770 N   0  0  0  0  0  0  0  0  0  0  0  0
   27.7894  -19.7751  -18.0545 C   0  0  1  0  0  0  0  0  0  0  0  0
   29.2731  -19.6241  -18.3078 C   0  0  0  0  0  0  0  0  0  0  0  0
   29.5237  -18.3178  -19.0104 C   0  0  0  0  0  0  0  0  0  0  0  0
   30.9762  -18.1650  -19.3469 C   0  0  0  0  0  0  0  0  0  0  0  0
   31.2940  -16.8375  -20.0224 C   0  0  0  0  0  0  0  0  0  0  0  0
   32.7116  -16.7442  -20.3265 N   0  0  0  0  0  0  0  0  0  0  0  0
   27.6159  -20.3570  -16.6916 C   0  0  0  0  0  0  0  0  0  0  0  0
   28.1347  -21.4749  -16.3995 O   0  0  0  0  0  0  0  0  0  0  0  0
   25.8000  -21.1587   -8.1316 O   0  0  0  0  0  0  0  0  0  0  0  0
   26.1027  -20.7025   -9.4130 C   0  0  0  0  0  0  0  0  0  0  0  0
   25.2710  -19.7702  -10.0067 C   0  0  0  0  0  0  0  0  0  0  0  0
   25.5435  -19.2973  -11.2773 C   0  0  0  0  0  0  0  0  0  0  0  0
   26.6458  -19.7483  -11.9678 C   0  0  0  0  0  0  0  0  0  0  0  0
   26.9542  -19.2685  -13.3174 C   0  0  0  0  0  0  0  0  0  0  0  0
   26.7209  -20.3079  -14.3874 C   0  0  2  0  0  0  0  0  0  0  0  0
   26.8712  -19.6698  -15.7090 N   0  0  0  0  0  0  0  0  0  0  0  0
   25.3523  -20.8506  -14.2410 C   0  0  0  0  0  0  0  0  0  0  0  0
   25.0571  -21.4981  -13.2250 O   0  0  0  0  0  0  0  0  0  0  0  0
   27.4766  -20.6762  -11.3810 C   0  0  0  0  0  0  0  0  0  0  0  0
   27.2089  -21.1508  -10.1135 C   0  0  0  0  0  0  0  0  0  0  0  0
   24.3651  -20.6444  -15.2449 N   0  0  0  0  0  0  0  0  0  0  0  0
   22.9315  -20.6231  -14.9573 C   0  0  1  0  0  0  0  0  0  0  0  0
   22.6111  -19.7484  -13.8007 C   0  0  0  0  0  0  0  0  0  0  0  0
   21.7336  -20.4523  -12.8445 C   0  0  0  0  0  0  0  0  0  0  0  0
   21.3066  -21.7820  -12.8974 C   0  0  0  0  0  0  0  0  0  0  0  0
   20.5140  -21.9979  -11.8539 N   0  0  0  0  0  0  0  0  0  0  0  0
   20.4372  -20.8533  -11.1622 C   0  0  0  0  0  0  0  0  0  0  0  0
   21.1669  -19.8922  -11.7364 N   0  0  0  0  0  0  0  0  0  0  0  0
   22.1414  -20.3463  -16.1585 C   0  0  0  0  0  0  0  0  0  0  0  0
   22.5210  -19.3595  -16.8805 O   0  0  0  0  0  0  0  0  0  0  0  0
   21.0352  -21.0386  -16.5908 O   0  0  0  0  0  0  0  0  0  0  0  0
  2  1  1  1
  2  3  1  0
  3  4  1  0
  4  5  1  0
  6  5  1  0
  7  6  1  0
  8  2  1  0
  9  8  2  0
 10 11  1  0
 11 21  2  0
 11 12  1  0
 12 13  2  0
 13 14  1  0
 14 15  1  0
 16 15  1  1
 16 17  1  0
 17  8  1  0
 18 16  1  0
 18 22  1  0
 19 18  2  0
 20 14  2  0
 21 20  1  0
 23 22  1  0
 23 30  1  0
 23 24  1  1
 24 25  1  0
 25 29  1  0
 25 26  2  0
 26 27  1  0
 28 27  1  0
 29 28  2  0
 30 32  1  0
 31 30  2  0
M  END
$$$$
