KYH.pdb
     RDKit          3D

 32 33  0  0  1  0  0  0  0  0999 V2000
   32.6674  -11.3204  -19.3978 N   0  0  0  0  0  0  0  0  0  0  0  0
   31.6815  -11.2170  -18.3695 C   0  0  1  0  0  0  0  0  0  0  0  0
   31.2011   -9.8043  -18.1208 C   0  0  0  0  0  0  0  0  0  0  0  0
   32.3214   -9.0005  -17.5193 C   0  0  0  0  0  0  0  0  0  0  0  0
   31.8831   -7.5915  -17.2561 C   0  0  0  0  0  0  0  0  0  0  0  0
   32.9821   -6.7306  -16.6473 C   0  0  0  0  0  0  0  0  0  0  0  0
   32.4446   -5.4586  -16.1954 N   0  0  0  0  0  0  0  0  0  0  0  0
   30.4903  -12.0527  -18.6995 C   0  0  0  0  0  0  0  0  0  0  0  0
   30.2598  -12.3989  -19.8958 O   0  0  0  0  0  0  0  0  0  0  0  0
   31.7125  -18.6402  -19.3692 O   0  0  0  0  0  0  0  0  0  0  0  0
   30.8908  -17.6398  -18.8539 C   0  0  0  0  0  0  0  0  0  0  0  0
   31.4573  -16.6312  -18.0954 C   0  0  0  0  0  0  0  0  0  0  0  0
   30.6694  -15.6237  -17.5697 C   0  0  0  0  0  0  0  0  0  0  0  0
   29.3112  -15.6114  -17.7941 C   0  0  0  0  0  0  0  0  0  0  0  0
   28.4526  -14.5594  -17.2438 C   0  0  0  0  0  0  0  0  0  0  0  0
   28.4482  -13.2984  -18.0743 C   0  0  2  0  0  0  0  0  0  0  0  0
   29.6038  -12.4690  -17.6830 N   0  0  0  0  0  0  0  0  0  0  0  0
   27.1897  -12.5618  -17.8242 C   0  0  0  0  0  0  0  0  0  0  0  0
   27.0443  -11.9452  -16.7578 O   0  0  0  0  0  0  0  0  0  0  0  0
   28.7428  -16.6131  -18.5485 C   0  0  0  0  0  0  0  0  0  0  0  0
   29.5248  -17.6203  -19.0752 C   0  0  0  0  0  0  0  0  0  0  0  0
   26.1399  -12.5463  -18.7847 N   0  0  0  0  0  0  0  0  0  0  0  0
   24.8949  -11.8046  -18.5894 C   0  0  1  0  0  0  0  0  0  0  0  0
   24.5623  -10.9606  -19.7653 C   0  0  0  0  0  0  0  0  0  0  0  0
   25.4484   -9.7811  -19.8253 C   0  0  0  0  0  0  0  0  0  0  0  0
   26.3376   -9.3309  -18.8456 C   0  0  0  0  0  0  0  0  0  0  0  0
   26.9193   -8.2264  -19.2989 N   0  0  0  0  0  0  0  0  0  0  0  0
   26.4224   -7.9804  -20.5184 C   0  0  0  0  0  0  0  0  0  0  0  0
   25.5251   -8.9062  -20.8700 N   0  0  0  0  0  0  0  0  0  0  0  0
   23.8062  -12.6788  -18.1487 C   0  0  0  0  0  0  0  0  0  0  0  0
   24.0429  -13.9370  -18.1527 O   0  0  0  0  0  0  0  0  0  0  0  0
   22.5571  -12.2864  -17.7297 O   0  0  0  0  0  0  0  0  0  0  0  0
  2  1  1  6
  2  3  1  0
  3  4  1  0
  4  5  1  0
  6  5  1  0
  7  6  1  0
  8  2  1  0
  9  8  2  0
 10 11  1  0
 11 21  2  0
 11 12  1  0
 12 13  2  0
 13 14  1  0
 14 15  1  0
 16 15  1  1
 16 17  1  0
 17  8  1  0
 18 16  1  0
 18 22  1  0
 19 18  2  0
 20 14  2  0
 21 20  1  0
 23 22  1  0
 23 30  1  0
 23 24  1  6
 24 25  1  0
 25 29  1  0
 25 26  2  0
 26 27  1  0
 28 27  1  0
 29 28  2  0
 30 32  1  0
 31 30  2  0
M  END
$$$$
