KYH.pdb
     RDKit          3D

 32 33  0  0  1  0  0  0  0  0999 V2000
   26.1234  -19.4238  -17.6177 N   0  0  0  0  0  0  0  0  0  0  0  0
   25.2644  -18.7077  -16.7290 C   0  0  1  0  0  0  0  0  0  0  0  0
   24.1151  -18.0072  -17.4194 C   0  0  0  0  0  0  0  0  0  0  0  0
   24.0641  -18.4425  -18.8584 C   0  0  0  0  0  0  0  0  0  0  0  0
   22.8058  -19.2073  -19.1383 C   0  0  0  0  0  0  0  0  0  0  0  0
   22.6694  -19.6139  -20.5997 C   0  0  0  0  0  0  0  0  0  0  0  0
   21.4973  -20.4508  -20.7909 N   0  0  0  0  0  0  0  0  0  0  0  0
   24.6893  -19.6255  -15.7028 C   0  0  0  0  0  0  0  0  0  0  0  0
   24.5924  -20.8671  -15.9334 O   0  0  0  0  0  0  0  0  0  0  0  0
   29.8516  -21.3145  -11.9231 O   0  0  0  0  0  0  0  0  0  0  0  0
   28.5177  -20.9159  -11.9840 C   0  0  0  0  0  0  0  0  0  0  0  0
   27.5571  -21.6911  -11.3596 C   0  0  0  0  0  0  0  0  0  0  0  0
   26.2247  -21.3232  -11.4015 C   0  0  0  0  0  0  0  0  0  0  0  0
   25.8371  -20.1810  -12.0652 C   0  0  0  0  0  0  0  0  0  0  0  0
   24.4318  -19.7716  -12.1301 C   0  0  0  0  0  0  0  0  0  0  0  0
   23.7778  -20.0930  -13.4525 C   0  0  2  0  0  0  0  0  0  0  0  0
   24.2453  -19.1228  -14.4608 N   0  0  0  0  0  0  0  0  0  0  0  0
   22.3095  -19.9950  -13.2998 C   0  0  0  0  0  0  0  0  0  0  0  0
   21.7910  -18.8912  -13.0735 O   0  0  0  0  0  0  0  0  0  0  0  0
   26.7896  -19.4062  -12.6881 C   0  0  0  0  0  0  0  0  0  0  0  0
   28.1201  -19.7691  -12.6489 C   0  0  0  0  0  0  0  0  0  0  0  0
   21.4778  -21.1446  -13.4073 N   0  0  0  0  0  0  0  0  0  0  0  0
   20.0314  -21.1016  -13.1965 C   0  0  1  0  0  0  0  0  0  0  0  0
   19.3013  -21.9259  -14.1930 C   0  0  0  0  0  0  0  0  0  0  0  0
   19.3209  -21.2763  -15.5188 C   0  0  0  0  0  0  0  0  0  0  0  0
   19.8160  -20.0098  -15.8414 C   0  0  0  0  0  0  0  0  0  0  0  0
   19.6172  -19.8124  -17.1395 N   0  0  0  0  0  0  0  0  0  0  0  0
   19.0193  -20.9076  -17.6270 C   0  0  0  0  0  0  0  0  0  0  0  0
   18.8240  -21.8182  -16.6686 N   0  0  0  0  0  0  0  0  0  0  0  0
   19.6775  -21.3864  -11.8046 C   0  0  0  0  0  0  0  0  0  0  0  0
   20.4882  -22.1269  -11.1461 O   0  0  0  0  0  0  0  0  0  0  0  0
   18.5650  -20.9386  -11.1326 O   0  0  0  0  0  0  0  0  0  0  0  0
  2  1  1  6
  2  3  1  0
  3  4  1  0
  4  5  1  0
  6  5  1  0
  7  6  1  0
  8  2  1  0
  9  8  2  0
 10 11  1  0
 11 21  2  0
 11 12  1  0
 12 13  2  0
 13 14  1  0
 14 15  1  0
 16 15  1  1
 16 17  1  0
 17  8  1  0
 18 16  1  0
 18 22  1  0
 19 18  2  0
 20 14  2  0
 21 20  1  0
 23 22  1  0
 23 30  1  0
 23 24  1  6
 24 25  1  0
 25 29  1  0
 25 26  2  0
 26 27  1  0
 28 27  1  0
 29 28  2  0
 30 32  1  0
 31 30  2  0
M  END
$$$$
