KYH.pdb
     RDKit          3D

 32 33  0  0  1  0  0  0  0  0999 V2000
   23.4603  -14.6557  -16.7586 N   0  0  0  0  0  0  0  0  0  0  0  0
   22.6152  -13.5950  -17.2068 C   0  0  1  0  0  0  0  0  0  0  0  0
   21.1396  -13.9244  -17.1576 C   0  0  0  0  0  0  0  0  0  0  0  0
   20.9590  -15.4081  -17.3280 C   0  0  0  0  0  0  0  0  0  0  0  0
   20.1361  -15.9754  -16.2112 C   0  0  0  0  0  0  0  0  0  0  0  0
   18.9225  -16.7536  -16.7022 C   0  0  0  0  0  0  0  0  0  0  0  0
   18.1476  -17.2550  -15.5801 N   0  0  0  0  0  0  0  0  0  0  0  0
   22.8363  -12.3672  -16.3884 C   0  0  0  0  0  0  0  0  0  0  0  0
   22.8259  -12.4278  -15.1233 O   0  0  0  0  0  0  0  0  0  0  0  0
   29.0193  -12.7088  -16.0263 O   0  0  0  0  0  0  0  0  0  0  0  0
   27.9188  -11.8663  -16.1705 C   0  0  0  0  0  0  0  0  0  0  0  0
   27.4728  -11.1521  -15.0731 C   0  0  0  0  0  0  0  0  0  0  0  0
   26.3834  -10.3074  -15.1830 C   0  0  0  0  0  0  0  0  0  0  0  0
   25.7287  -10.1665  -16.3859 C   0  0  0  0  0  0  0  0  0  0  0  0
   24.5684   -9.2832  -16.5284 C   0  0  0  0  0  0  0  0  0  0  0  0
   23.2656   -9.9443  -16.1470 C   0  0  2  0  0  0  0  0  0  0  0  0
   23.0600  -11.1211  -17.0126 N   0  0  0  0  0  0  0  0  0  0  0  0
   22.1617   -8.9779  -16.3375 C   0  0  0  0  0  0  0  0  0  0  0  0
   21.7075   -8.7856  -17.4756 O   0  0  0  0  0  0  0  0  0  0  0  0
   26.1691  -10.8752  -17.4810 C   0  0  0  0  0  0  0  0  0  0  0  0
   27.2555  -11.7191  -17.3762 C   0  0  0  0  0  0  0  0  0  0  0  0
   21.6090   -8.2624  -15.2386 N   0  0  0  0  0  0  0  0  0  0  0  0
   20.5499   -7.2658  -15.3910 C   0  0  1  0  0  0  0  0  0  0  0  0
   19.2144   -7.8200  -15.0518 C   0  0  0  0  0  0  0  0  0  0  0  0
   18.1635   -6.8026  -15.2532 C   0  0  0  0  0  0  0  0  0  0  0  0
   18.3304   -5.4634  -15.6163 C   0  0  0  0  0  0  0  0  0  0  0  0
   17.1284   -4.9010  -15.6660 N   0  0  0  0  0  0  0  0  0  0  0  0
   16.2297   -5.8420  -15.3475 C   0  0  0  0  0  0  0  0  0  0  0  0
   16.8245   -7.0107  -15.0905 N   0  0  0  0  0  0  0  0  0  0  0  0
   20.8766   -6.0171  -14.6998 C   0  0  0  0  0  0  0  0  0  0  0  0
   21.5258   -6.1219  -13.6013 O   0  0  0  0  0  0  0  0  0  0  0  0
   20.5591   -4.7443  -15.1109 O   0  0  0  0  0  0  0  0  0  0  0  0
  2  1  1  1
  2  3  1  0
  3  4  1  0
  4  5  1  0
  6  5  1  0
  7  6  1  0
  8  2  1  0
  9  8  2  0
 10 11  1  0
 11 21  2  0
 11 12  1  0
 12 13  2  0
 13 14  1  0
 14 15  1  0
 16 15  1  6
 16 17  1  0
 17  8  1  0
 18 16  1  0
 18 22  1  0
 19 18  2  0
 20 14  2  0
 21 20  1  0
 23 22  1  0
 23 30  1  0
 23 24  1  1
 24 25  1  0
 25 29  1  0
 25 26  2  0
 26 27  1  0
 28 27  1  0
 29 28  2  0
 30 32  1  0
 31 30  2  0
M  END
$$$$
