QCH.pdb
     RDKit          3D

 26 26  0  0  1  0  0  0  0  0999 V2000
    8.1572  -13.0683   15.6246 N   0  0  0  0  0  0  0  0  0  0  0  0
    7.9806  -14.2519   14.8693 C   0  0  0  0  0  0  0  0  0  0  0  0
    7.2800  -14.2410   13.8560 O   0  0  0  0  0  0  0  0  0  0  0  0
    8.6783  -15.4907   15.3606 C   0  0  0  0  0  0  0  0  0  0  0  0
    9.4882  -15.2153   16.5795 C   0  0  0  0  0  0  0  0  0  0  0  0
    9.0900  -16.1256   17.6946 C   0  0  2  0  0  0  0  0  0  0  0  0
    7.6256  -16.3401   17.6644 N   0  0  0  0  0  0  0  0  0  0  0  0
    9.4411  -15.6630   19.0448 C   0  0  0  0  0  0  0  0  0  0  0  0
   10.6286  -15.5051   19.4123 O   0  0  0  0  0  0  0  0  0  0  0  0
    8.4354  -15.3634   20.0275 N   0  0  0  0  0  0  0  0  0  0  0  0
    8.8309  -15.0657   21.3872 C   0  0  1  0  0  0  0  0  0  0  0  0
    7.6363  -14.4761   22.1321 C   0  0  0  0  0  0  0  0  0  0  0  0
    6.1608  -15.3695   21.5177 S   0  0  0  0  0  0  0  0  0  0  0  0
    9.2404  -16.3104   22.1137 C   0  0  0  0  0  0  0  0  0  0  0  0
    9.1774  -17.3974   21.5179 O   0  0  0  0  0  0  0  0  0  0  0  0
    9.6959  -16.2684   23.4615 N   0  0  0  0  0  0  0  0  0  0  0  0
   10.9089  -16.9318   23.8851 C   0  0  1  0  0  0  0  0  0  0  0  0
   12.0370  -16.4003   23.0567 C   0  0  0  0  0  0  0  0  0  0  0  0
   12.4102  -17.2654   21.9148 C   0  0  0  0  0  0  0  0  0  0  0  0
   11.7807  -18.4547   21.6157 C   0  0  0  0  0  0  0  0  0  0  0  0
   12.3931  -18.9449   20.5255 N   0  0  0  0  0  0  0  0  0  0  0  0
   13.3739  -18.1138   20.1347 C   0  0  0  0  0  0  0  0  0  0  0  0
   13.3772  -17.0820   20.9962 N   0  0  0  0  0  0  0  0  0  0  0  0
   11.1330  -16.7990   25.3443 C   0  0  0  0  0  0  0  0  0  0  0  0
   12.1185  -17.3325   25.9132 O   0  0  0  0  0  0  0  0  0  0  0  0
   10.2723  -16.0790   26.1773 O   0  0  0  0  0  0  0  0  0  0  0  0
  1  2  1  0
  2  3  2  0
  4  2  1  0
  4  5  1  0
  6  5  1  0
  6  7  1  1
  8  9  2  0
  8  6  1  0
 10  8  1  0
 11 10  1  0
 11 12  1  1
 13 12  1  0
 14 11  1  0
 15 14  2  0
 16 14  1  0
 17 16  1  0
 17 18  1  6
 18 19  1  0
 19 23  1  0
 20 19  2  0
 20 21  1  0
 21 22  1  0
 23 22  2  0
 24 17  1  0
 25 24  2  0
 26 24  1  0
M  END
$$$$
