QCH.pdb
     RDKit          3D

 26 26  0  0  1  0  0  0  0  0999 V2000
    5.8006  -20.4084   18.6686 N   0  0  0  0  0  0  0  0  0  0  0  0
    7.2127  -20.4661   18.5968 C   0  0  0  0  0  0  0  0  0  0  0  0
    7.8198  -21.4149   19.0958 O   0  0  0  0  0  0  0  0  0  0  0  0
    7.9116  -19.3338   17.8953 C   0  0  0  0  0  0  0  0  0  0  0  0
    6.9492  -18.2864   17.4543 C   0  0  0  0  0  0  0  0  0  0  0  0
    7.6455  -16.9804   17.2542 C   0  0  2  0  0  0  0  0  0  0  0  0
    8.5878  -17.0868   16.1174 N   0  0  0  0  0  0  0  0  0  0  0  0
    8.4034  -16.4838   18.4114 C   0  0  0  0  0  0  0  0  0  0  0  0
    9.6348  -16.6771   18.5401 O   0  0  0  0  0  0  0  0  0  0  0  0
    7.7711  -15.7429   19.4688 N   0  0  0  0  0  0  0  0  0  0  0  0
    8.5585  -15.2935   20.5966 C   0  0  1  0  0  0  0  0  0  0  0  0
    7.7438  -14.2808   21.3967 C   0  0  0  0  0  0  0  0  0  0  0  0
    6.3958  -15.2280   22.1957 S   0  0  0  0  0  0  0  0  0  0  0  0
    8.8824  -16.4320   21.5151 C   0  0  0  0  0  0  0  0  0  0  0  0
    8.6691  -17.5914   21.1268 O   0  0  0  0  0  0  0  0  0  0  0  0
    9.4247  -16.2094   22.8121 N   0  0  0  0  0  0  0  0  0  0  0  0
   10.5598  -16.9541   23.3099 C   0  0  1  0  0  0  0  0  0  0  0  0
   11.6871  -16.7766   22.3408 C   0  0  0  0  0  0  0  0  0  0  0  0
   11.8451  -17.8948   21.3837 C   0  0  0  0  0  0  0  0  0  0  0  0
   10.9949  -18.9782   21.3228 C   0  0  0  0  0  0  0  0  0  0  0  0
   11.4592  -19.7707   20.3429 N   0  0  0  0  0  0  0  0  0  0  0  0
   12.5587  -19.2283   19.7931 C   0  0  0  0  0  0  0  0  0  0  0  0
   12.7891  -18.0730   20.4404 N   0  0  0  0  0  0  0  0  0  0  0  0
   10.9082  -16.5713   24.6989 C   0  0  0  0  0  0  0  0  0  0  0  0
   10.6829  -15.4174   25.1431 O   0  0  0  0  0  0  0  0  0  0  0  0
   11.5045  -17.4587   25.5990 O   0  0  0  0  0  0  0  0  0  0  0  0
  1  2  1  0
  2  3  2  0
  4  2  1  0
  4  5  1  0
  6  5  1  0
  6  7  1  6
  8  9  2  0
  8  6  1  0
 10  8  1  0
 11 10  1  0
 11 12  1  1
 13 12  1  0
 14 11  1  0
 15 14  2  0
 16 14  1  0
 17 16  1  0
 17 18  1  6
 18 19  1  0
 19 23  1  0
 20 19  2  0
 20 21  1  0
 21 22  1  0
 23 22  2  0
 24 17  1  0
 25 24  2  0
 26 24  1  0
M  END
$$$$
