QCH.pdb
     RDKit          3D

 26 26  0  0  1  0  0  0  0  0999 V2000
    9.0335  -12.7792   17.9932 N   0  0  0  0  0  0  0  0  0  0  0  0
    7.9401  -13.6709   17.8859 C   0  0  0  0  0  0  0  0  0  0  0  0
    7.2204  -13.6508   16.8862 O   0  0  0  0  0  0  0  0  0  0  0  0
    7.7124  -14.6194   19.0310 C   0  0  0  0  0  0  0  0  0  0  0  0
    8.7241  -14.4303   20.1073 C   0  0  0  0  0  0  0  0  0  0  0  0
    8.3407  -15.1938   21.3323 C   0  0  2  0  0  0  0  0  0  0  0  0
    6.8688  -15.3430   21.3865 N   0  0  0  0  0  0  0  0  0  0  0  0
    8.7721  -14.6028   22.6069 C   0  0  0  0  0  0  0  0  0  0  0  0
    9.9266  -14.1468   22.7784 O   0  0  0  0  0  0  0  0  0  0  0  0
    7.8883  -14.5133   23.7373 N   0  0  0  0  0  0  0  0  0  0  0  0
    8.4405  -14.4542   25.0735 C   0  0  1  0  0  0  0  0  0  0  0  0
    7.4463  -13.7447   25.9887 C   0  0  0  0  0  0  0  0  0  0  0  0
    5.8344  -14.5745   25.7313 S   0  0  0  0  0  0  0  0  0  0  0  0
    8.6561  -15.8290   25.6284 C   0  0  0  0  0  0  0  0  0  0  0  0
    7.7021  -16.6229   25.6436 O   0  0  0  0  0  0  0  0  0  0  0  0
    9.9229  -16.2365   26.1333 N   0  0  0  0  0  0  0  0  0  0  0  0
   10.1389  -17.5478   26.7030 C   0  0  1  0  0  0  0  0  0  0  0  0
   11.4122  -18.0923   26.1340 C   0  0  0  0  0  0  0  0  0  0  0  0
   11.4080  -18.2276   24.6598 C   0  0  0  0  0  0  0  0  0  0  0  0
   10.2818  -18.0781   23.8791 C   0  0  0  0  0  0  0  0  0  0  0  0
   10.6716  -18.2738   22.6088 N   0  0  0  0  0  0  0  0  0  0  0  0
   11.9883  -18.5377   22.5659 C   0  0  0  0  0  0  0  0  0  0  0  0
   12.4337  -18.5072   23.8338 N   0  0  0  0  0  0  0  0  0  0  0  0
   10.1182  -17.5188   28.1849 C   0  0  0  0  0  0  0  0  0  0  0  0
   10.2573  -18.5641   28.8687 O   0  0  0  0  0  0  0  0  0  0  0  0
    9.9443  -16.3393   28.9141 O   0  0  0  0  0  0  0  0  0  0  0  0
  1  2  1  0
  2  3  2  0
  4  2  1  0
  4  5  1  0
  6  5  1  0
  6  7  1  1
  8  9  2  0
  8  6  1  0
 10  8  1  0
 11 10  1  0
 11 12  1  1
 13 12  1  0
 14 11  1  0
 15 14  2  0
 16 14  1  0
 17 16  1  0
 17 18  1  1
 18 19  1  0
 19 23  1  0
 20 19  2  0
 20 21  1  0
 21 22  1  0
 23 22  2  0
 24 17  1  0
 25 24  2  0
 26 24  1  0
M  END
$$$$
