QCH.pdb
     RDKit          3D

 26 26  0  0  1  0  0  0  0  0999 V2000
    6.9560  -12.9447   20.6056 N   0  0  0  0  0  0  0  0  0  0  0  0
    7.2336  -14.1285   19.8817 C   0  0  0  0  0  0  0  0  0  0  0  0
    6.5565  -14.4246   18.8959 O   0  0  0  0  0  0  0  0  0  0  0  0
    8.3716  -14.9819   20.3708 C   0  0  0  0  0  0  0  0  0  0  0  0
    9.0392  -14.3763   21.5562 C   0  0  0  0  0  0  0  0  0  0  0  0
   10.1698  -15.2343   22.0210 C   0  0  2  0  0  0  0  0  0  0  0  0
   10.0745  -16.5699   21.3894 N   0  0  0  0  0  0  0  0  0  0  0  0
   10.2536  -15.4378   23.4742 C   0  0  0  0  0  0  0  0  0  0  0  0
   11.0742  -16.2289   23.9947 O   0  0  0  0  0  0  0  0  0  0  0  0
    9.3933  -14.7360   24.3875 N   0  0  0  0  0  0  0  0  0  0  0  0
    9.6820  -14.7626   25.8052 C   0  0  1  0  0  0  0  0  0  0  0  0
    8.7622  -13.7738   26.5161 C   0  0  0  0  0  0  0  0  0  0  0  0
    9.2513  -13.8002   28.2805 S   0  0  0  0  0  0  0  0  0  0  0  0
    9.4135  -16.1182   26.3840 C   0  0  0  0  0  0  0  0  0  0  0  0
    8.4465  -16.7687   25.9570 O   0  0  0  0  0  0  0  0  0  0  0  0
   10.2396  -16.6675   27.4046 N   0  0  0  0  0  0  0  0  0  0  0  0
   10.2100  -18.0722   27.7460 C   0  0  1  0  0  0  0  0  0  0  0  0
   10.7358  -18.8414   26.5742 C   0  0  0  0  0  0  0  0  0  0  0  0
   10.7723  -20.3072   26.7785 C   0  0  0  0  0  0  0  0  0  0  0  0
   10.2365  -20.9417   27.8788 C   0  0  0  0  0  0  0  0  0  0  0  0
   10.4639  -22.2544   27.7082 N   0  0  0  0  0  0  0  0  0  0  0  0
   11.1163  -22.4631   26.5523 C   0  0  0  0  0  0  0  0  0  0  0  0
   11.3021  -21.2581   25.9862 N   0  0  0  0  0  0  0  0  0  0  0  0
   10.9334  -18.3513   29.0094 C   0  0  0  0  0  0  0  0  0  0  0  0
   11.7321  -17.5208   29.5113 O   0  0  0  0  0  0  0  0  0  0  0  0
   10.7777  -19.5444   29.7202 O   0  0  0  0  0  0  0  0  0  0  0  0
  1  2  1  0
  2  3  2  0
  4  2  1  0
  4  5  1  0
  6  5  1  0
  6  7  1  6
  8  9  2  0
  8  6  1  0
 10  8  1  0
 11 10  1  0
 11 12  1  1
 13 12  1  0
 14 11  1  0
 15 14  2  0
 16 14  1  0
 17 16  1  0
 17 18  1  6
 18 19  1  0
 19 23  1  0
 20 19  2  0
 20 21  1  0
 21 22  1  0
 23 22  2  0
 24 17  1  0
 25 24  2  0
 26 24  1  0
M  END
$$$$
