QCH.pdb
     RDKit          3D

 26 26  0  0  1  0  0  0  0  0999 V2000
   12.4591  -16.7722   16.0943 N   0  0  0  0  0  0  0  0  0  0  0  0
   11.1402  -17.2655   15.9539 C   0  0  0  0  0  0  0  0  0  0  0  0
   10.7292  -17.6286   14.8507 O   0  0  0  0  0  0  0  0  0  0  0  0
   10.2915  -17.3198   17.1946 C   0  0  0  0  0  0  0  0  0  0  0  0
   11.0320  -16.8203   18.3861 C   0  0  0  0  0  0  0  0  0  0  0  0
   10.6743  -17.6128   19.6003 C   0  0  2  0  0  0  0  0  0  0  0  0
    9.2659  -18.0592   19.5074 N   0  0  0  0  0  0  0  0  0  0  0  0
   10.8320  -16.9118   20.8825 C   0  0  0  0  0  0  0  0  0  0  0  0
   11.8827  -16.3016   21.1888 O   0  0  0  0  0  0  0  0  0  0  0  0
    9.7827  -16.8858   21.8649 N   0  0  0  0  0  0  0  0  0  0  0  0
   10.0543  -16.3648   23.1873 C   0  0  1  0  0  0  0  0  0  0  0  0
    8.8350  -15.5853   23.6720 C   0  0  0  0  0  0  0  0  0  0  0  0
    8.6850  -14.1337   22.5660 S   0  0  0  0  0  0  0  0  0  0  0  0
   10.2925  -17.4748   24.1649 C   0  0  0  0  0  0  0  0  0  0  0  0
    9.5344  -18.4574   24.1487 O   0  0  0  0  0  0  0  0  0  0  0  0
   11.3622  -17.4227   25.1024 N   0  0  0  0  0  0  0  0  0  0  0  0
   11.6466  -18.5141   26.0073 C   0  0  1  0  0  0  0  0  0  0  0  0
   13.1304  -18.7111   26.0382 C   0  0  0  0  0  0  0  0  0  0  0  0
   13.6939  -19.2673   24.7874 C   0  0  0  0  0  0  0  0  0  0  0  0
   12.9352  -19.5995   23.6855 C   0  0  0  0  0  0  0  0  0  0  0  0
   13.7910  -20.0671   22.7620 N   0  0  0  0  0  0  0  0  0  0  0  0
   15.0462  -20.0401   23.2408 C   0  0  0  0  0  0  0  0  0  0  0  0
   14.9769  -19.5459   24.4890 N   0  0  0  0  0  0  0  0  0  0  0  0
   11.0513  -18.2933   27.3467 C   0  0  0  0  0  0  0  0  0  0  0  0
   10.4689  -17.2197   27.6427 O   0  0  0  0  0  0  0  0  0  0  0  0
   11.0970  -19.2544   28.3604 O   0  0  0  0  0  0  0  0  0  0  0  0
  1  2  1  0
  2  3  2  0
  4  2  1  0
  4  5  1  0
  6  5  1  0
  6  7  1  6
  8  9  2  0
  8  6  1  0
 10  8  1  0
 11 10  1  0
 11 12  1  1
 13 12  1  0
 14 11  1  0
 15 14  2  0
 16 14  1  0
 17 16  1  0
 17 18  1  1
 18 19  1  0
 19 23  1  0
 20 19  2  0
 20 21  1  0
 21 22  1  0
 23 22  2  0
 24 17  1  0
 25 24  2  0
 26 24  1  0
M  END
$$$$
