QCH.pdb
     RDKit          3D

 26 26  0  0  1  0  0  0  0  0999 V2000
    7.5262  -17.6937   19.2795 N   0  0  0  0  0  0  0  0  0  0  0  0
    6.9979  -17.0618   18.1289 C   0  0  0  0  0  0  0  0  0  0  0  0
    6.1072  -17.6082   17.4762 O   0  0  0  0  0  0  0  0  0  0  0  0
    7.5701  -15.7211   17.7578 C   0  0  0  0  0  0  0  0  0  0  0  0
    8.5102  -15.2205   18.7986 C   0  0  0  0  0  0  0  0  0  0  0  0
    7.8427  -14.2072   19.6694 C   0  0  2  0  0  0  0  0  0  0  0  0
    8.0057  -12.8588   19.0805 N   0  0  0  0  0  0  0  0  0  0  0  0
    8.3283  -14.1459   21.0552 C   0  0  0  0  0  0  0  0  0  0  0  0
    9.5111  -13.8445   21.3390 O   0  0  0  0  0  0  0  0  0  0  0  0
    7.4684  -14.4300   22.1718 N   0  0  0  0  0  0  0  0  0  0  0  0
    8.0326  -14.5335   23.5003 C   0  0  1  0  0  0  0  0  0  0  0  0
    6.9068  -14.4282   24.5255 C   0  0  0  0  0  0  0  0  0  0  0  0
    6.8065  -12.6607   24.9931 S   0  0  0  0  0  0  0  0  0  0  0  0
    8.6971  -15.8612   23.7012 C   0  0  0  0  0  0  0  0  0  0  0  0
    8.9150  -16.5756   22.7099 O   0  0  0  0  0  0  0  0  0  0  0  0
    9.0790  -16.3128   24.9957 N   0  0  0  0  0  0  0  0  0  0  0  0
   10.1800  -17.2282   25.1979 C   0  0  1  0  0  0  0  0  0  0  0  0
   11.4226  -16.5747   24.6781 C   0  0  0  0  0  0  0  0  0  0  0  0
   11.6933  -16.8395   23.2470 C   0  0  0  0  0  0  0  0  0  0  0  0
   10.8490  -17.5567   22.4267 C   0  0  0  0  0  0  0  0  0  0  0  0
   11.4290  -17.5843   21.2156 N   0  0  0  0  0  0  0  0  0  0  0  0
   12.5947  -16.9169   21.2472 C   0  0  0  0  0  0  0  0  0  0  0  0
   12.7495  -16.4615   22.5025 N   0  0  0  0  0  0  0  0  0  0  0  0
   10.2873  -17.6631   26.6108 C   0  0  0  0  0  0  0  0  0  0  0  0
    9.8392  -16.9635   27.5539 O   0  0  0  0  0  0  0  0  0  0  0  0
   10.8877  -18.8682   26.9858 O   0  0  0  0  0  0  0  0  0  0  0  0
  1  2  1  0
  2  3  2  0
  4  2  1  0
  4  5  1  0
  6  5  1  0
  6  7  1  6
  8  9  2  0
  8  6  1  0
 10  8  1  0
 11 10  1  0
 11 12  1  1
 13 12  1  0
 14 11  1  0
 15 14  2  0
 16 14  1  0
 17 16  1  0
 17 18  1  1
 18 19  1  0
 19 23  1  0
 20 19  2  0
 20 21  1  0
 21 22  1  0
 23 22  2  0
 24 17  1  0
 25 24  2  0
 26 24  1  0
M  END
$$$$
