QCH.pdb
     RDKit          3D

 26 26  0  0  1  0  0  0  0  0999 V2000
    7.9802  -11.9679   18.3090 N   0  0  0  0  0  0  0  0  0  0  0  0
    7.7342  -13.2974   18.7265 C   0  0  0  0  0  0  0  0  0  0  0  0
    6.9247  -13.5238   19.6272 O   0  0  0  0  0  0  0  0  0  0  0  0
    8.4968  -14.3892   18.0271 C   0  0  0  0  0  0  0  0  0  0  0  0
    9.4417  -13.8362   17.0177 C   0  0  0  0  0  0  0  0  0  0  0  0
   10.2033  -14.9340   16.3505 C   0  0  2  0  0  0  0  0  0  0  0  0
    9.2660  -15.8238   15.6284 N   0  0  0  0  0  0  0  0  0  0  0  0
   11.0125  -15.7758   17.2431 C   0  0  0  0  0  0  0  0  0  0  0  0
   11.5846  -16.8178   16.8467 O   0  0  0  0  0  0  0  0  0  0  0  0
   11.1951  -15.4495   18.6313 N   0  0  0  0  0  0  0  0  0  0  0  0
   12.0967  -16.2422   19.4393 C   0  0  1  0  0  0  0  0  0  0  0  0
   13.5299  -15.9753   18.9878 C   0  0  0  0  0  0  0  0  0  0  0  0
   13.7792  -14.1664   19.1246 S   0  0  0  0  0  0  0  0  0  0  0  0
   12.0044  -15.8573   20.8843 C   0  0  0  0  0  0  0  0  0  0  0  0
   12.5191  -14.7892   21.2515 O   0  0  0  0  0  0  0  0  0  0  0  0
   11.3435  -16.6866   21.8336 N   0  0  0  0  0  0  0  0  0  0  0  0
   11.2338  -16.3232   23.2288 C   0  0  1  0  0  0  0  0  0  0  0  0
    9.8120  -16.5332   23.6482 C   0  0  0  0  0  0  0  0  0  0  0  0
    8.8167  -15.8974   22.7556 C   0  0  0  0  0  0  0  0  0  0  0  0
    8.5862  -14.5391   22.7080 C   0  0  0  0  0  0  0  0  0  0  0  0
    7.6235  -14.3492   21.7910 N   0  0  0  0  0  0  0  0  0  0  0  0
    7.2462  -15.5277   21.2675 C   0  0  0  0  0  0  0  0  0  0  0  0
    7.9865  -16.4759   21.8675 N   0  0  0  0  0  0  0  0  0  0  0  0
   12.2124  -17.0520   24.0704 C   0  0  0  0  0  0  0  0  0  0  0  0
   12.9632  -17.9398   23.5932 O   0  0  0  0  0  0  0  0  0  0  0  0
   12.3646  -16.8037   25.4373 O   0  0  0  0  0  0  0  0  0  0  0  0
  1  2  1  0
  2  3  2  0
  4  2  1  0
  4  5  1  0
  6  5  1  0
  6  7  1  1
  8  9  2  0
  8  6  1  0
 10  8  1  0
 11 10  1  0
 11 12  1  6
 13 12  1  0
 14 11  1  0
 15 14  2  0
 16 14  1  0
 17 16  1  0
 17 18  1  1
 18 19  1  0
 19 23  1  0
 20 19  2  0
 20 21  1  0
 21 22  1  0
 23 22  2  0
 24 17  1  0
 25 24  2  0
 26 24  1  0
M  END
$$$$
