QCH.pdb
     RDKit          3D

 26 26  0  0  1  0  0  0  0  0999 V2000
    7.9358  -20.0882   19.3294 N   0  0  0  0  0  0  0  0  0  0  0  0
    9.1034  -20.8497   19.0861 C   0  0  0  0  0  0  0  0  0  0  0  0
    9.0745  -21.7910   18.2919 O   0  0  0  0  0  0  0  0  0  0  0  0
   10.3485  -20.4552   19.8324 C   0  0  0  0  0  0  0  0  0  0  0  0
   10.0782  -19.3639   20.8090 C   0  0  0  0  0  0  0  0  0  0  0  0
   10.4137  -18.0332   20.2198 C   0  0  2  0  0  0  0  0  0  0  0  0
   11.7276  -18.1052   19.5414 N   0  0  0  0  0  0  0  0  0  0  0  0
   10.4690  -16.9154   21.1724 C   0  0  0  0  0  0  0  0  0  0  0  0
   11.5503  -16.4717   21.6243 O   0  0  0  0  0  0  0  0  0  0  0  0
    9.2777  -16.2628   21.6434 N   0  0  0  0  0  0  0  0  0  0  0  0
    9.3661  -15.3108   22.7296 C   0  0  1  0  0  0  0  0  0  0  0  0
    8.0261  -14.5935   22.8690 C   0  0  0  0  0  0  0  0  0  0  0  0
    7.6967  -13.8088   21.2477 S   0  0  0  0  0  0  0  0  0  0  0  0
    9.6403  -16.0019   24.0304 C   0  0  0  0  0  0  0  0  0  0  0  0
    8.9480  -16.9839   24.3420 O   0  0  0  0  0  0  0  0  0  0  0  0
   10.6702  -15.5566   24.9059 N   0  0  0  0  0  0  0  0  0  0  0  0
   10.9439  -16.2089   26.1670 C   0  0  1  0  0  0  0  0  0  0  0  0
    9.7755  -15.9689   27.0719 C   0  0  0  0  0  0  0  0  0  0  0  0
    9.4462  -14.5393   27.2701 C   0  0  0  0  0  0  0  0  0  0  0  0
   10.2342  -13.5013   26.8207 C   0  0  0  0  0  0  0  0  0  0  0  0
    9.6142  -12.3676   27.1872 N   0  0  0  0  0  0  0  0  0  0  0  0
    8.4775  -12.6550   27.8434 C   0  0  0  0  0  0  0  0  0  0  0  0
    8.3821  -13.9951   27.8899 N   0  0  0  0  0  0  0  0  0  0  0  0
   11.2696  -17.6441   25.9899 C   0  0  0  0  0  0  0  0  0  0  0  0
   10.6951  -18.3506   25.1237 O   0  0  0  0  0  0  0  0  0  0  0  0
   12.2278  -18.3016   26.7662 O   0  0  0  0  0  0  0  0  0  0  0  0
  1  2  1  0
  2  3  2  0
  4  2  1  0
  4  5  1  0
  6  5  1  0
  6  7  1  1
  8  9  2  0
  8  6  1  0
 10  8  1  0
 11 10  1  0
 11 12  1  1
 13 12  1  0
 14 11  1  0
 15 14  2  0
 16 14  1  0
 17 16  1  0
 17 18  1  1
 18 19  1  0
 19 23  1  0
 20 19  2  0
 20 21  1  0
 21 22  1  0
 23 22  2  0
 24 17  1  0
 25 24  2  0
 26 24  1  0
M  END
$$$$
