ENF.pdb
     RDKit          3D

 29 29  0  0  1  0  0  0  0  0999 V2000
   18.2868  -25.0947  -12.7776 N   0  0  0  0  0  0  0  0  0  0  0  0
   18.9142  -23.9918  -12.1190 C   0  0  1  0  0  0  0  0  0  0  0  0
   19.2132  -24.4300  -10.6939 C   0  0  0  0  0  0  0  0  0  0  0  0
   17.8601  -24.6576  -10.0446 C   0  0  0  0  0  0  0  0  0  0  0  0
   17.3010  -23.4031   -9.4878 C   0  0  0  0  0  0  0  0  0  0  0  0
   17.0587  -22.4016  -10.2012 O   0  0  0  0  0  0  0  0  0  0  0  0
   20.0973  -23.4604  -12.8108 C   0  0  0  0  0  0  0  0  0  0  0  0
   20.9429  -24.2491  -13.3094 O   0  0  0  0  0  0  0  0  0  0  0  0
   17.0450  -23.3549   -8.1366 O   0  0  0  0  0  0  0  0  0  0  0  0
   20.8197  -22.1109  -16.3627 N   0  0  0  0  0  0  0  0  0  0  0  0
   20.9548  -20.7896  -15.8966 C   0  0  0  0  0  0  0  0  0  0  0  0
   20.7452  -19.8577  -16.7161 O   0  0  0  0  0  0  0  0  0  0  0  0
   21.3229  -20.4047  -14.5226 C   0  0  0  0  0  0  0  0  0  0  0  0
   21.5903  -21.5810  -13.6288 C   0  0  2  0  0  0  0  0  0  0  0  0
   20.3939  -22.0810  -12.9797 N   0  0  0  0  0  0  0  0  0  0  0  0
   22.4919  -21.0943  -12.5327 C   0  0  0  0  0  0  0  0  0  0  0  0
   22.1157  -20.2698  -11.6586 O   0  0  0  0  0  0  0  0  0  0  0  0
   23.8355  -21.5502  -12.4299 N   0  0  0  0  0  0  0  0  0  0  0  0
   24.7845  -20.9881  -11.4537 C   0  0  1  0  0  0  0  0  0  0  0  0
   25.2323  -22.0555  -10.5117 C   0  0  0  0  0  0  0  0  0  0  0  0
   26.1665  -21.5056   -9.5246 C   0  0  0  0  0  0  0  0  0  0  0  0
   25.7707  -20.6879   -8.4784 C   0  0  0  0  0  0  0  0  0  0  0  0
   26.6617  -20.1813   -7.5546 C   0  0  0  0  0  0  0  0  0  0  0  0
   28.0018  -20.4877   -7.6580 C   0  0  0  0  0  0  0  0  0  0  0  0
   28.4074  -21.3022   -8.6977 C   0  0  0  0  0  0  0  0  0  0  0  0
   27.5294  -21.8119   -9.6224 C   0  0  0  0  0  0  0  0  0  0  0  0
   25.8451  -20.3161  -12.2042 C   0  0  0  0  0  0  0  0  0  0  0  0
   26.3021  -20.8171  -13.2738 O   0  0  0  0  0  0  0  0  0  0  0  0
   26.4141  -19.1177  -11.8179 O   0  0  0  0  0  0  0  0  0  0  0  0
  2  1  1  6
  3  4  1  0
  3  2  1  0
  5  4  1  0
  6  5  2  0
  7  2  1  0
  7  8  2  0
  9  5  1  0
 11 10  1  0
 12 11  2  0
 14 13  1  6
 13 11  1  0
 14 15  1  0
 15  7  1  0
 16 14  1  0
 17 16  2  0
 18 16  1  0
 19 27  1  0
 19 18  1  0
 20 21  1  0
 19 20  1  6
 21 22  2  0
 22 23  1  0
 24 23  2  0
 25 24  1  0
 26 21  1  0
 26 25  2  0
 27 29  1  0
 28 27  2  0
M  END
$$$$
