ENF.pdb
     RDKit          3D

 29 29  0  0  1  0  0  0  0  0999 V2000
   28.3190  -31.5170  -14.9817 N   0  0  0  0  0  0  0  0  0  0  0  0
   27.5534  -32.4325  -15.7687 C   0  0  1  0  0  0  0  0  0  0  0  0
   28.4218  -33.6583  -16.0046 C   0  0  0  0  0  0  0  0  0  0  0  0
   29.4876  -33.2193  -16.9921 C   0  0  0  0  0  0  0  0  0  0  0  0
   29.0226  -33.3459  -18.3935 C   0  0  0  0  0  0  0  0  0  0  0  0
   28.9598  -32.3649  -19.1710 O   0  0  0  0  0  0  0  0  0  0  0  0
   26.2369  -32.7676  -15.2070 C   0  0  0  0  0  0  0  0  0  0  0  0
   25.4556  -33.5247  -15.8410 O   0  0  0  0  0  0  0  0  0  0  0  0
   28.6505  -34.5934  -18.8395 O   0  0  0  0  0  0  0  0  0  0  0  0
   26.2185  -33.1611  -10.3476 N   0  0  0  0  0  0  0  0  0  0  0  0
   25.1630  -33.4732  -11.2251 C   0  0  0  0  0  0  0  0  0  0  0  0
   24.8994  -34.6896  -11.4110 O   0  0  0  0  0  0  0  0  0  0  0  0
   24.3371  -32.4895  -11.9475 C   0  0  0  0  0  0  0  0  0  0  0  0
   24.4235  -32.6249  -13.4402 C   0  0  2  0  0  0  0  0  0  0  0  0
   25.7367  -32.2995  -13.9621 N   0  0  0  0  0  0  0  0  0  0  0  0
   23.4776  -31.6153  -14.0208 C   0  0  0  0  0  0  0  0  0  0  0  0
   23.7071  -30.3775  -13.9995 O   0  0  0  0  0  0  0  0  0  0  0  0
   22.2578  -32.0180  -14.6321 N   0  0  0  0  0  0  0  0  0  0  0  0
   21.3161  -31.0507  -15.2212 C   0  0  1  0  0  0  0  0  0  0  0  0
   21.2988  -31.2020  -16.7058 C   0  0  0  0  0  0  0  0  0  0  0  0
   22.4829  -30.5707  -17.2966 C   0  0  0  0  0  0  0  0  0  0  0  0
   22.5817  -29.2077  -17.5254 C   0  0  0  0  0  0  0  0  0  0  0  0
   23.7048  -28.6277  -18.0787 C   0  0  0  0  0  0  0  0  0  0  0  0
   24.7814  -29.4162  -18.4246 C   0  0  0  0  0  0  0  0  0  0  0  0
   24.6934  -30.7767  -18.2008 C   0  0  0  0  0  0  0  0  0  0  0  0
   23.5808  -31.3644  -17.6509 C   0  0  0  0  0  0  0  0  0  0  0  0
   20.0280  -31.2217  -14.5494 C   0  0  0  0  0  0  0  0  0  0  0  0
   19.0440  -30.4758  -14.8308 O   0  0  0  0  0  0  0  0  0  0  0  0
   19.7900  -32.1822  -13.5850 O   0  0  0  0  0  0  0  0  0  0  0  0
  2  1  1  1
  3  4  1  0
  3  2  1  0
  5  4  1  0
  6  5  2  0
  7  2  1  0
  7  8  2  0
  9  5  1  0
 11 10  1  0
 12 11  2  0
 14 13  1  1
 13 11  1  0
 14 15  1  0
 15  7  1  0
 16 14  1  0
 17 16  2  0
 18 16  1  0
 19 27  1  0
 19 18  1  0
 20 21  1  0
 19 20  1  6
 21 22  2  0
 22 23  1  0
 24 23  2  0
 25 24  1  0
 26 21  1  0
 26 25  2  0
 27 29  1  0
 28 27  2  0
M  END
$$$$
