ENF.pdb
     RDKit          3D

 29 29  0  0  1  0  0  0  0  0999 V2000
   30.2911  -24.5652  -17.2297 N   0  0  0  0  0  0  0  0  0  0  0  0
   28.9574  -24.1677  -17.5566 C   0  0  1  0  0  0  0  0  0  0  0  0
   28.1370  -25.4375  -17.7201 C   0  0  0  0  0  0  0  0  0  0  0  0
   28.4601  -25.9560  -19.1096 C   0  0  0  0  0  0  0  0  0  0  0  0
   27.7756  -25.1684  -20.1619 C   0  0  0  0  0  0  0  0  0  0  0  0
   28.3637  -24.2843  -20.8278 O   0  0  0  0  0  0  0  0  0  0  0  0
   28.3540  -23.2185  -16.6102 C   0  0  0  0  0  0  0  0  0  0  0  0
   28.6746  -23.2525  -15.3930 O   0  0  0  0  0  0  0  0  0  0  0  0
   26.4465  -25.4312  -20.4025 O   0  0  0  0  0  0  0  0  0  0  0  0
   25.2357  -17.9859  -15.9787 N   0  0  0  0  0  0  0  0  0  0  0  0
   26.3713  -18.7890  -15.7624 C   0  0  0  0  0  0  0  0  0  0  0  0
   27.0252  -18.6018  -14.7036 O   0  0  0  0  0  0  0  0  0  0  0  0
   26.8606  -19.8359  -16.6771 C   0  0  0  0  0  0  0  0  0  0  0  0
   26.9421  -21.1916  -16.0371 C   0  0  2  0  0  0  0  0  0  0  0  0
   27.4010  -22.2207  -16.9498 N   0  0  0  0  0  0  0  0  0  0  0  0
   25.5437  -21.5690  -15.6457 C   0  0  0  0  0  0  0  0  0  0  0  0
   24.7025  -22.0117  -16.4714 O   0  0  0  0  0  0  0  0  0  0  0  0
   25.0975  -21.4414  -14.3009 N   0  0  0  0  0  0  0  0  0  0  0  0
   23.7650  -21.8956  -13.8677 C   0  0  1  0  0  0  0  0  0  0  0  0
   23.8768  -22.6255  -12.5708 C   0  0  0  0  0  0  0  0  0  0  0  0
   24.4399  -21.7491  -11.5392 C   0  0  0  0  0  0  0  0  0  0  0  0
   25.7905  -21.7086  -11.2323 C   0  0  0  0  0  0  0  0  0  0  0  0
   26.3060  -20.8749  -10.2610 C   0  0  0  0  0  0  0  0  0  0  0  0
   25.4627  -20.0423   -9.5569 C   0  0  0  0  0  0  0  0  0  0  0  0
   24.1140  -20.0747   -9.8549 C   0  0  0  0  0  0  0  0  0  0  0  0
   23.5903  -20.9002  -10.8192 C   0  0  0  0  0  0  0  0  0  0  0  0
   22.8790  -20.7317  -13.8681 C   0  0  0  0  0  0  0  0  0  0  0  0
   23.3498  -19.5564  -13.9001 O   0  0  0  0  0  0  0  0  0  0  0  0
   21.5005  -20.8198  -13.8359 O   0  0  0  0  0  0  0  0  0  0  0  0
  2  1  1  1
  3  4  1  0
  3  2  1  0
  5  4  1  0
  6  5  2  0
  7  2  1  0
  7  8  2  0
  9  5  1  0
 11 10  1  0
 12 11  2  0
 14 13  1  6
 13 11  1  0
 14 15  1  0
 15  7  1  0
 16 14  1  0
 17 16  2  0
 18 16  1  0
 19 27  1  0
 19 18  1  0
 20 21  1  0
 19 20  1  1
 21 22  2  0
 22 23  1  0
 24 23  2  0
 25 24  1  0
 26 21  1  0
 26 25  2  0
 27 29  1  0
 28 27  2  0
M  END
$$$$
