ENF.pdb
     RDKit          3D

 29 29  0  0  1  0  0  0  0  0999 V2000
   17.6321  -12.4245  -17.8518 N   0  0  0  0  0  0  0  0  0  0  0  0
   17.0848  -11.1674  -17.4470 C   0  0  1  0  0  0  0  0  0  0  0  0
   16.6537  -11.3109  -15.9959 C   0  0  0  0  0  0  0  0  0  0  0  0
   15.1478  -11.4969  -16.0341 C   0  0  0  0  0  0  0  0  0  0  0  0
   14.6894  -12.4713  -15.0159 C   0  0  0  0  0  0  0  0  0  0  0  0
   14.4169  -12.1347  -13.8397 O   0  0  0  0  0  0  0  0  0  0  0  0
   17.9725  -10.0164  -17.6656 C   0  0  0  0  0  0  0  0  0  0  0  0
   18.4577   -9.8027  -18.8078 O   0  0  0  0  0  0  0  0  0  0  0  0
   14.5644  -13.7886  -15.3938 O   0  0  0  0  0  0  0  0  0  0  0  0
   20.7611   -5.5646  -17.4771 N   0  0  0  0  0  0  0  0  0  0  0  0
   19.5644   -5.8332  -18.1677 C   0  0  0  0  0  0  0  0  0  0  0  0
   19.1852   -4.9944  -19.0259 O   0  0  0  0  0  0  0  0  0  0  0  0
   18.7144   -7.0206  -17.9687 C   0  0  0  0  0  0  0  0  0  0  0  0
   19.2324   -7.9497  -16.9093 C   0  0  2  0  0  0  0  0  0  0  0  0
   18.3543   -9.0783  -16.6689 N   0  0  0  0  0  0  0  0  0  0  0  0
   19.2718   -7.1667  -15.6300 C   0  0  0  0  0  0  0  0  0  0  0  0
   18.2429   -6.6583  -15.1121 O   0  0  0  0  0  0  0  0  0  0  0  0
   20.4943   -6.9600  -14.9326 N   0  0  0  0  0  0  0  0  0  0  0  0
   20.5338   -6.5179  -13.5281 C   0  0  1  0  0  0  0  0  0  0  0  0
   21.2548   -7.5287  -12.7002 C   0  0  0  0  0  0  0  0  0  0  0  0
   21.2922   -7.1057  -11.2969 C   0  0  0  0  0  0  0  0  0  0  0  0
   20.3169   -7.4490  -10.3745 C   0  0  0  0  0  0  0  0  0  0  0  0
   20.3683   -7.0464   -9.0557 C   0  0  0  0  0  0  0  0  0  0  0  0
   21.4215   -6.2721   -8.6179 C   0  0  0  0  0  0  0  0  0  0  0  0
   22.3995   -5.9238   -9.5295 C   0  0  0  0  0  0  0  0  0  0  0  0
   22.3584   -6.3190  -10.8440 C   0  0  0  0  0  0  0  0  0  0  0  0
   21.0887   -5.1647  -13.5057 C   0  0  0  0  0  0  0  0  0  0  0  0
   22.0766   -4.8550  -14.2352 O   0  0  0  0  0  0  0  0  0  0  0  0
   20.5934   -4.1479  -12.7120 O   0  0  0  0  0  0  0  0  0  0  0  0
  2  1  1  1
  3  4  1  0
  3  2  1  0
  5  4  1  0
  6  5  2  0
  7  2  1  0
  7  8  2  0
  9  5  1  0
 11 10  1  0
 12 11  2  0
 14 13  1  6
 13 11  1  0
 14 15  1  0
 15  7  1  0
 16 14  1  0
 17 16  2  0
 18 16  1  0
 19 27  1  0
 19 18  1  0
 20 21  1  0
 19 20  1  1
 21 22  2  0
 22 23  1  0
 24 23  2  0
 25 24  1  0
 26 21  1  0
 26 25  2  0
 27 29  1  0
 28 27  2  0
M  END
$$$$
