ENF.pdb
     RDKit          3D

 29 29  0  0  1  0  0  0  0  0999 V2000
   24.0398  -20.6169  -19.5950 N   0  0  0  0  0  0  0  0  0  0  0  0
   23.9289  -19.9717  -18.3241 C   0  0  1  0  0  0  0  0  0  0  0  0
   22.4526  -19.6933  -18.0884 C   0  0  0  0  0  0  0  0  0  0  0  0
   22.2111  -18.2932  -18.6225 C   0  0  0  0  0  0  0  0  0  0  0  0
   22.4182  -17.2638  -17.5767 C   0  0  0  0  0  0  0  0  0  0  0  0
   21.5657  -17.0283  -16.6887 O   0  0  0  0  0  0  0  0  0  0  0  0
   24.5547  -20.7016  -17.2122 C   0  0  0  0  0  0  0  0  0  0  0  0
   23.9920  -21.7202  -16.7311 O   0  0  0  0  0  0  0  0  0  0  0  0
   23.5951  -16.5509  -17.5973 O   0  0  0  0  0  0  0  0  0  0  0  0
   27.7970  -23.0398  -17.0571 N   0  0  0  0  0  0  0  0  0  0  0  0
   28.4947  -22.0553  -16.3322 C   0  0  0  0  0  0  0  0  0  0  0  0
   29.7504  -22.0495  -16.4160 O   0  0  0  0  0  0  0  0  0  0  0  0
   27.8742  -21.0260  -15.4793 C   0  0  0  0  0  0  0  0  0  0  0  0
   26.3738  -21.0764  -15.4856 C   0  0  2  0  0  0  0  0  0  0  0  0
   25.7888  -20.3548  -16.5991 N   0  0  0  0  0  0  0  0  0  0  0  0
   25.9130  -20.3759  -14.2413 C   0  0  0  0  0  0  0  0  0  0  0  0
   25.5709  -19.1642  -14.2302 O   0  0  0  0  0  0  0  0  0  0  0  0
   25.8408  -21.0610  -12.9967 N   0  0  0  0  0  0  0  0  0  0  0  0
   24.9393  -20.6320  -11.9137 C   0  0  1  0  0  0  0  0  0  0  0  0
   23.5241  -20.6807  -12.3850 C   0  0  0  0  0  0  0  0  0  0  0  0
   22.6117  -20.3103  -11.2988 C   0  0  0  0  0  0  0  0  0  0  0  0
   21.7107  -19.2615  -11.3890 C   0  0  0  0  0  0  0  0  0  0  0  0
   20.8552  -18.9276  -10.3591 C   0  0  0  0  0  0  0  0  0  0  0  0
   20.8816  -19.6520   -9.1865 C   0  0  0  0  0  0  0  0  0  0  0  0
   21.7764  -20.6998   -9.0858 C   0  0  0  0  0  0  0  0  0  0  0  0
   22.6320  -21.0408  -10.1043 C   0  0  0  0  0  0  0  0  0  0  0  0
   25.2456  -21.4432  -10.7356 C   0  0  0  0  0  0  0  0  0  0  0  0
   25.4257  -22.6928  -10.8358 O   0  0  0  0  0  0  0  0  0  0  0  0
   25.3604  -20.9259   -9.4596 O   0  0  0  0  0  0  0  0  0  0  0  0
  2  1  1  6
  3  4  1  0
  3  2  1  0
  5  4  1  0
  6  5  2  0
  7  2  1  0
  7  8  2  0
  9  5  1  0
 11 10  1  0
 12 11  2  0
 14 13  1  6
 13 11  1  0
 14 15  1  0
 15  7  1  0
 16 14  1  0
 17 16  2  0
 18 16  1  0
 19 27  1  0
 19 18  1  0
 20 21  1  0
 19 20  1  6
 21 22  2  0
 22 23  1  0
 24 23  2  0
 25 24  1  0
 26 21  1  0
 26 25  2  0
 27 29  1  0
 28 27  2  0
M  END
$$$$
