ENF.pdb
     RDKit          3D

 29 29  0  0  1  0  0  0  0  0999 V2000
   25.6660  -21.4554  -15.6436 N   0  0  0  0  0  0  0  0  0  0  0  0
   26.6438  -21.1201  -14.6561 C   0  0  1  0  0  0  0  0  0  0  0  0
   27.7550  -20.3603  -15.3633 C   0  0  0  0  0  0  0  0  0  0  0  0
   27.2922  -20.2046  -16.8005 C   0  0  0  0  0  0  0  0  0  0  0  0
   27.4228  -18.8051  -17.2703 C   0  0  0  0  0  0  0  0  0  0  0  0
   26.4356  -18.1250  -17.6358 O   0  0  0  0  0  0  0  0  0  0  0  0
   26.1124  -20.3974  -13.4916 C   0  0  0  0  0  0  0  0  0  0  0  0
   25.4529  -19.3373  -13.6551 O   0  0  0  0  0  0  0  0  0  0  0  0
   28.6813  -18.2491  -17.2994 O   0  0  0  0  0  0  0  0  0  0  0  0
   22.8546  -21.5689   -8.8927 N   0  0  0  0  0  0  0  0  0  0  0  0
   23.1979  -20.7151   -9.9579 C   0  0  0  0  0  0  0  0  0  0  0  0
   22.7257  -19.5486   -9.9460 O   0  0  0  0  0  0  0  0  0  0  0  0
   24.0683  -21.0752  -11.0913 C   0  0  0  0  0  0  0  0  0  0  0  0
   25.4014  -20.3856  -11.0575 C   0  0  2  0  0  0  0  0  0  0  0  0
   26.2775  -20.7960  -12.1377 N   0  0  0  0  0  0  0  0  0  0  0  0
   26.0746  -20.8095   -9.7853 C   0  0  0  0  0  0  0  0  0  0  0  0
   26.3924  -22.0049   -9.5498 O   0  0  0  0  0  0  0  0  0  0  0  0
   26.3895  -19.8637   -8.7704 N   0  0  0  0  0  0  0  0  0  0  0  0
   27.1390  -20.2318   -7.5571 C   0  0  1  0  0  0  0  0  0  0  0  0
   27.9550  -19.0707   -7.0953 C   0  0  0  0  0  0  0  0  0  0  0  0
   28.6367  -19.3942   -5.8383 C   0  0  0  0  0  0  0  0  0  0  0  0
   29.7250  -20.2486   -5.7632 C   0  0  0  0  0  0  0  0  0  0  0  0
   30.3588  -20.5401   -4.5727 C   0  0  0  0  0  0  0  0  0  0  0  0
   29.9081  -19.9704   -3.4011 C   0  0  0  0  0  0  0  0  0  0  0  0
   28.8234  -19.1170   -3.4645 C   0  0  0  0  0  0  0  0  0  0  0  0
   28.1854  -18.8200   -4.6436 C   0  0  0  0  0  0  0  0  0  0  0  0
   26.1796  -20.7606   -6.5878 C   0  0  0  0  0  0  0  0  0  0  0  0
   24.9536  -20.4493   -6.6504 O   0  0  0  0  0  0  0  0  0  0  0  0
   26.5243  -21.6165   -5.5593 O   0  0  0  0  0  0  0  0  0  0  0  0
  2  1  1  6
  3  4  1  0
  3  2  1  0
  5  4  1  0
  6  5  2  0
  7  2  1  0
  7  8  2  0
  9  5  1  0
 11 10  1  0
 12 11  2  0
 14 13  1  6
 13 11  1  0
 14 15  1  0
 15  7  1  0
 16 14  1  0
 17 16  2  0
 18 16  1  0
 19 27  1  0
 19 18  1  0
 20 21  1  0
 19 20  1  1
 21 22  2  0
 22 23  1  0
 24 23  2  0
 25 24  1  0
 26 21  1  0
 26 25  2  0
 27 29  1  0
 28 27  2  0
M  END
$$$$
