ENF.pdb
     RDKit          3D

 29 29  0  0  1  0  0  0  0  0999 V2000
   27.0838  -22.6295  -15.4431 N   0  0  0  0  0  0  0  0  0  0  0  0
   27.5578  -21.3060  -15.1838 C   0  0  1  0  0  0  0  0  0  0  0  0
   27.5231  -20.5495  -16.5025 C   0  0  0  0  0  0  0  0  0  0  0  0
   27.8720  -21.5719  -17.5687 C   0  0  0  0  0  0  0  0  0  0  0  0
   26.7212  -21.8488  -18.4606 C   0  0  0  0  0  0  0  0  0  0  0  0
   25.9189  -20.9548  -18.8182 O   0  0  0  0  0  0  0  0  0  0  0  0
   26.8471  -20.6032  -14.1060 C   0  0  0  0  0  0  0  0  0  0  0  0
   27.1224  -19.4017  -13.8485 O   0  0  0  0  0  0  0  0  0  0  0  0
   26.5433  -23.1400  -18.9020 O   0  0  0  0  0  0  0  0  0  0  0  0
   23.3314  -19.3098  -14.2027 N   0  0  0  0  0  0  0  0  0  0  0  0
   22.8490  -20.1686  -13.1972 C   0  0  0  0  0  0  0  0  0  0  0  0
   21.6129  -20.4043  -13.1748 O   0  0  0  0  0  0  0  0  0  0  0  0
   23.6747  -20.8178  -12.1634 C   0  0  0  0  0  0  0  0  0  0  0  0
   25.1279  -20.4504  -12.2482 C   0  0  2  0  0  0  0  0  0  0  0  0
   25.8337  -21.1727  -13.2888 N   0  0  0  0  0  0  0  0  0  0  0  0
   25.7543  -20.8643  -10.9492 C   0  0  0  0  0  0  0  0  0  0  0  0
   25.7998  -22.0634  -10.5678 O   0  0  0  0  0  0  0  0  0  0  0  0
   26.3351  -19.9041  -10.0748 N   0  0  0  0  0  0  0  0  0  0  0  0
   26.8542  -20.2641   -8.7442 C   0  0  1  0  0  0  0  0  0  0  0  0
   27.7872  -19.2038   -8.2619 C   0  0  0  0  0  0  0  0  0  0  0  0
   28.2486  -19.5096   -6.9043 C   0  0  0  0  0  0  0  0  0  0  0  0
   29.2115  -20.4669   -6.6276 C   0  0  0  0  0  0  0  0  0  0  0  0
   29.6384  -20.7405   -5.3443 C   0  0  0  0  0  0  0  0  0  0  0  0
   29.0995  -20.0466   -4.2820 C   0  0  0  0  0  0  0  0  0  0  0  0
   28.1385  -19.0899   -4.5466 C   0  0  0  0  0  0  0  0  0  0  0  0
   27.7063  -18.8096   -5.8195 C   0  0  0  0  0  0  0  0  0  0  0  0
   25.7059  -20.5414   -7.8816 C   0  0  0  0  0  0  0  0  0  0  0  0
   24.6269  -19.8902   -8.0063 O   0  0  0  0  0  0  0  0  0  0  0  0
   25.7072  -21.5071   -6.8933 O   0  0  0  0  0  0  0  0  0  0  0  0
  2  1  1  6
  3  4  1  0
  3  2  1  0
  5  4  1  0
  6  5  2  0
  7  2  1  0
  7  8  2  0
  9  5  1  0
 11 10  1  0
 12 11  2  0
 14 13  1  1
 13 11  1  0
 14 15  1  0
 15  7  1  0
 16 14  1  0
 17 16  2  0
 18 16  1  0
 19 27  1  0
 19 18  1  0
 20 21  1  0
 19 20  1  1
 21 22  2  0
 22 23  1  0
 24 23  2  0
 25 24  1  0
 26 21  1  0
 26 25  2  0
 27 29  1  0
 28 27  2  0
M  END
$$$$
