MGN.pdb
     RDKit          3D

 21 20  0  0  1  0  0  0  0  0999 V2000
    6.0587  -10.9152   25.8504 C   0  0  0  0  0  0  0  0  0  0  0  0
    7.1606  -11.5885   27.1201 S   0  0  0  0  0  0  0  0  0  0  0  0
    7.3040  -13.3750   26.8780 C   0  0  0  0  0  0  0  0  0  0  0  0
    6.9541  -13.7266   25.4489 C   0  0  0  0  0  0  0  0  0  0  0  0
    7.1859  -15.2016   25.2755 C   0  0  2  0  0  0  0  0  0  0  0  0
    7.8056  -15.7400   26.4451 N   0  0  0  0  0  0  0  0  0  0  0  0
    7.9827  -15.5191   24.0729 C   0  0  0  0  0  0  0  0  0  0  0  0
    7.5067  -15.4783   22.9038 O   0  0  0  0  0  0  0  0  0  0  0  0
    9.3311  -15.8863   24.2022 N   0  0  0  0  0  0  0  0  0  0  0  0
   10.2107  -16.0921   23.0501 C   0  0  0  0  0  0  0  0  0  0  0  0
   11.2930  -17.0321   23.4217 C   0  0  0  0  0  0  0  0  0  0  0  0
   11.7441  -17.0388   24.6010 O   0  0  0  0  0  0  0  0  0  0  0  0
   10.6520  -21.2103   23.1653 N   0  0  0  0  0  0  0  0  0  0  0  0
   11.8569  -20.6477   23.6653 C   0  0  0  0  0  0  0  0  0  0  0  0
   12.0031  -20.5984   24.9109 O   0  0  0  0  0  0  0  0  0  0  0  0
   12.8532  -20.1606   22.7061 C   0  0  0  0  0  0  0  0  0  0  0  0
   13.0499  -18.6515   22.8049 C   0  0  2  0  0  0  0  0  0  0  0  0
   11.8515  -17.9344   22.5045 N   0  0  0  0  0  0  0  0  0  0  0  0
   14.1692  -18.3305   21.8696 C   0  0  0  0  0  0  0  0  0  0  0  0
   15.3388  -18.7508   22.0189 O   0  0  0  0  0  0  0  0  0  0  0  0
   13.8653  -17.5200   20.7851 O   0  0  0  0  0  0  0  0  0  0  0  0
  2  1  1  0
  3  2  1  0
  4  5  1  0
  4  3  1  0
  5  6  1  1
  7  5  1  0
  7  8  2  0
  9  7  1  0
 10  9  1  0
 10 11  1  0
 11 18  1  0
 12 11  2  0
 13 14  1  0
 14 16  1  0
 15 14  2  0
 17 16  1  6
 17 19  1  0
 18 17  1  0
 19 21  1  0
 20 19  2  0
M  END
$$$$
