MGN.pdb
     RDKit          3D

 21 20  0  0  1  0  0  0  0  0999 V2000
    6.6932  -10.8029   26.8584 C   0  0  0  0  0  0  0  0  0  0  0  0
    5.3612  -11.7859   26.1241 S   0  0  0  0  0  0  0  0  0  0  0  0
    5.8996  -13.5092   26.0195 C   0  0  0  0  0  0  0  0  0  0  0  0
    6.6859  -13.7223   24.7448 C   0  0  0  0  0  0  0  0  0  0  0  0
    7.1544  -15.1504   24.7348 C   0  0  2  0  0  0  0  0  0  0  0  0
    7.9054  -15.4269   25.9186 N   0  0  0  0  0  0  0  0  0  0  0  0
    7.9408  -15.4873   23.5306 C   0  0  0  0  0  0  0  0  0  0  0  0
    7.4913  -16.2103   22.5976 O   0  0  0  0  0  0  0  0  0  0  0  0
    9.2484  -14.9982   23.3877 N   0  0  0  0  0  0  0  0  0  0  0  0
   10.2492  -15.6469   22.5387 C   0  0  0  0  0  0  0  0  0  0  0  0
   11.2025  -16.3955   23.3895 C   0  0  0  0  0  0  0  0  0  0  0  0
   12.2346  -16.9108   22.8760 O   0  0  0  0  0  0  0  0  0  0  0  0
   10.7350  -15.1119   28.3917 N   0  0  0  0  0  0  0  0  0  0  0  0
   11.5942  -15.5039   27.3304 C   0  0  0  0  0  0  0  0  0  0  0  0
   12.1585  -14.5959   26.6728 O   0  0  0  0  0  0  0  0  0  0  0  0
   11.7718  -16.9352   27.0655 C   0  0  0  0  0  0  0  0  0  0  0  0
   11.9809  -17.2188   25.5817 C   0  0  2  0  0  0  0  0  0  0  0  0
   11.0074  -16.5617   24.7685 N   0  0  0  0  0  0  0  0  0  0  0  0
   11.9417  -18.7058   25.4479 C   0  0  0  0  0  0  0  0  0  0  0  0
   10.9719  -19.3325   24.9645 O   0  0  0  0  0  0  0  0  0  0  0  0
   13.0557  -19.4035   25.8925 O   0  0  0  0  0  0  0  0  0  0  0  0
  2  1  1  0
  3  2  1  0
  4  5  1  0
  4  3  1  0
  5  6  1  1
  7  5  1  0
  7  8  2  0
  9  7  1  0
 10  9  1  0
 10 11  1  0
 11 18  1  0
 12 11  2  0
 13 14  1  0
 14 16  1  0
 15 14  2  0
 17 16  1  1
 17 19  1  0
 18 17  1  0
 19 21  1  0
 20 19  2  0
M  END
$$$$
