MGN.pdb
     RDKit          3D

 21 20  0  0  1  0  0  0  0  0999 V2000
    7.3144  -11.6887   26.7986 C   0  0  0  0  0  0  0  0  0  0  0  0
    6.0155  -12.9506   26.8127 S   0  0  0  0  0  0  0  0  0  0  0  0
    6.3364  -14.1307   25.4804 C   0  0  0  0  0  0  0  0  0  0  0  0
    7.0469  -13.4341   24.3409 C   0  0  0  0  0  0  0  0  0  0  0  0
    7.1545  -14.4147   23.2069 C   0  0  2  0  0  0  0  0  0  0  0  0
    6.3050  -15.5378   23.4495 N   0  0  0  0  0  0  0  0  0  0  0  0
    8.5422  -14.8570   22.9612 C   0  0  0  0  0  0  0  0  0  0  0  0
    9.4949  -14.0512   22.7654 O   0  0  0  0  0  0  0  0  0  0  0  0
    8.8478  -16.2266   22.9377 N   0  0  0  0  0  0  0  0  0  0  0  0
   10.1775  -16.7366   22.5984 C   0  0  0  0  0  0  0  0  0  0  0  0
   10.9257  -17.0213   23.8442 C   0  0  0  0  0  0  0  0  0  0  0  0
   12.0563  -16.4923   24.0348 O   0  0  0  0  0  0  0  0  0  0  0  0
    8.0975  -18.2041   27.0968 N   0  0  0  0  0  0  0  0  0  0  0  0
    9.4233  -18.1484   27.6040 C   0  0  0  0  0  0  0  0  0  0  0  0
    9.6536  -17.3495   28.5443 O   0  0  0  0  0  0  0  0  0  0  0  0
   10.4392  -19.0201   27.0055 C   0  0  0  0  0  0  0  0  0  0  0  0
   11.2462  -18.3004   25.9300 C   0  0  2  0  0  0  0  0  0  0  0  0
   10.4254  -17.8692   24.8432 N   0  0  0  0  0  0  0  0  0  0  0  0
   12.3061  -19.2654   25.5105 C   0  0  0  0  0  0  0  0  0  0  0  0
   13.2647  -19.6024   26.2416 O   0  0  0  0  0  0  0  0  0  0  0  0
   12.1953  -19.8009   24.2352 O   0  0  0  0  0  0  0  0  0  0  0  0
  2  1  1  0
  3  2  1  0
  4  5  1  0
  4  3  1  0
  5  6  1  1
  7  5  1  0
  7  8  2  0
  9  7  1  0
 10  9  1  0
 10 11  1  0
 11 18  1  0
 12 11  2  0
 13 14  1  0
 14 16  1  0
 15 14  2  0
 17 16  1  1
 17 19  1  0
 18 17  1  0
 19 21  1  0
 20 19  2  0
M  END
$$$$
