MGN.pdb
     RDKit          3D

 21 20  0  0  1  0  0  0  0  0999 V2000
    6.9932  -10.9695   26.5184 C   0  0  0  0  0  0  0  0  0  0  0  0
    5.6271  -12.1331   26.7618 S   0  0  0  0  0  0  0  0  0  0  0  0
    5.8609  -13.5445   25.6554 C   0  0  0  0  0  0  0  0  0  0  0  0
    7.2275  -13.4677   25.0112 C   0  0  0  0  0  0  0  0  0  0  0  0
    7.3341  -14.6080   24.0377 C   0  0  2  0  0  0  0  0  0  0  0  0
    6.6877  -15.7664   24.5687 N   0  0  0  0  0  0  0  0  0  0  0  0
    8.7303  -14.9165   23.6670 C   0  0  0  0  0  0  0  0  0  0  0  0
    9.5566  -14.0314   23.3080 O   0  0  0  0  0  0  0  0  0  0  0  0
    9.1890  -16.2424   23.7047 N   0  0  0  0  0  0  0  0  0  0  0  0
   10.5431  -16.6247   23.3003 C   0  0  0  0  0  0  0  0  0  0  0  0
   11.3852  -16.7943   24.5066 C   0  0  0  0  0  0  0  0  0  0  0  0
   12.6229  -17.0127   24.3852 O   0  0  0  0  0  0  0  0  0  0  0  0
   11.2891  -14.3030   27.4269 N   0  0  0  0  0  0  0  0  0  0  0  0
   10.7574  -15.1760   28.4135 C   0  0  0  0  0  0  0  0  0  0  0  0
   10.1431  -14.6587   29.3781 O   0  0  0  0  0  0  0  0  0  0  0  0
   10.9546  -16.6198   28.2507 C   0  0  0  0  0  0  0  0  0  0  0  0
   11.6803  -16.9534   26.9514 C   0  0  2  0  0  0  0  0  0  0  0  0
   10.8599  -16.7218   25.8051 N   0  0  0  0  0  0  0  0  0  0  0  0
   12.1050  -18.3791   27.0836 C   0  0  0  0  0  0  0  0  0  0  0  0
   13.1210  -18.7433   27.7176 O   0  0  0  0  0  0  0  0  0  0  0  0
   11.3100  -19.3293   26.4586 O   0  0  0  0  0  0  0  0  0  0  0  0
  2  1  1  0
  3  2  1  0
  4  5  1  0
  4  3  1  0
  5  6  1  1
  7  5  1  0
  7  8  2  0
  9  7  1  0
 10  9  1  0
 10 11  1  0
 11 18  1  0
 12 11  2  0
 13 14  1  0
 14 16  1  0
 15 14  2  0
 17 16  1  1
 17 19  1  0
 18 17  1  0
 19 21  1  0
 20 19  2  0
M  END
$$$$
