MGN.pdb
     RDKit          3D

 21 20  0  0  1  0  0  0  0  0999 V2000
    4.7944  -12.0941   25.8080 C   0  0  0  0  0  0  0  0  0  0  0  0
    6.5745  -11.9987   26.1270 S   0  0  0  0  0  0  0  0  0  0  0  0
    7.3728  -13.4549   25.4108 C   0  0  0  0  0  0  0  0  0  0  0  0
    7.3488  -13.3601   23.9012 C   0  0  0  0  0  0  0  0  0  0  0  0
    7.5015  -14.7529   23.3572 C   0  0  2  0  0  0  0  0  0  0  0  0
    6.7189  -15.6672   24.1275 N   0  0  0  0  0  0  0  0  0  0  0  0
    8.9098  -15.1949   23.3004 C   0  0  0  0  0  0  0  0  0  0  0  0
    9.8084  -14.5472   22.6936 O   0  0  0  0  0  0  0  0  0  0  0  0
    9.2980  -16.3831   23.9385 N   0  0  0  0  0  0  0  0  0  0  0  0
   10.6433  -16.9470   23.8139 C   0  0  0  0  0  0  0  0  0  0  0  0
   11.2106  -17.1641   25.1645 C   0  0  0  0  0  0  0  0  0  0  0  0
   12.4173  -17.5130   25.2922 O   0  0  0  0  0  0  0  0  0  0  0  0
   10.2114  -13.8784   28.3599 N   0  0  0  0  0  0  0  0  0  0  0  0
   11.1220  -14.9652   28.2723 C   0  0  0  0  0  0  0  0  0  0  0  0
   12.2803  -14.7217   27.8545 O   0  0  0  0  0  0  0  0  0  0  0  0
   10.6614  -16.2988   28.6717 C   0  0  0  0  0  0  0  0  0  0  0  0
   10.9760  -17.3513   27.6139 C   0  0  2  0  0  0  0  0  0  0  0  0
   10.4529  -16.9962   26.3329 N   0  0  0  0  0  0  0  0  0  0  0  0
   10.4096  -18.6297   28.1389 C   0  0  0  0  0  0  0  0  0  0  0  0
   10.7499  -19.1420   29.2291 O   0  0  0  0  0  0  0  0  0  0  0  0
    9.4560  -19.2608   27.3529 O   0  0  0  0  0  0  0  0  0  0  0  0
  2  1  1  0
  3  2  1  0
  4  5  1  0
  4  3  1  0
  5  6  1  1
  7  5  1  0
  7  8  2  0
  9  7  1  0
 10  9  1  0
 10 11  1  0
 11 18  1  0
 12 11  2  0
 13 14  1  0
 14 16  1  0
 15 14  2  0
 17 16  1  1
 17 19  1  0
 18 17  1  0
 19 21  1  0
 20 19  2  0
M  END
$$$$
