MGN.pdb
     RDKit          3D

 21 20  0  0  1  0  0  0  0  0999 V2000
    8.5317  -11.8741   21.3434 C   0  0  0  0  0  0  0  0  0  0  0  0
    7.7637  -12.5539   19.8509 S   0  0  0  0  0  0  0  0  0  0  0  0
    7.6815  -14.3538   20.0070 C   0  0  0  0  0  0  0  0  0  0  0  0
    9.0766  -14.9173   20.1635 C   0  0  0  0  0  0  0  0  0  0  0  0
    8.9501  -16.4086   20.3018 C   0  0  2  0  0  0  0  0  0  0  0  0
    8.1673  -16.9345   19.2282 N   0  0  0  0  0  0  0  0  0  0  0  0
    8.3861  -16.8177   21.6043 C   0  0  0  0  0  0  0  0  0  0  0  0
    7.2225  -17.2925   21.7296 O   0  0  0  0  0  0  0  0  0  0  0  0
    9.1522  -16.6849   22.7728 N   0  0  0  0  0  0  0  0  0  0  0  0
    8.7229  -17.2175   24.0671 C   0  0  0  0  0  0  0  0  0  0  0  0
    9.6812  -16.7937   25.1135 C   0  0  0  0  0  0  0  0  0  0  0  0
   10.9180  -16.9898   24.9518 O   0  0  0  0  0  0  0  0  0  0  0  0
    8.1652  -12.6867   28.1886 N   0  0  0  0  0  0  0  0  0  0  0  0
    8.9657  -13.6134   27.4685 C   0  0  0  0  0  0  0  0  0  0  0  0
    9.0537  -13.4635   26.2254 O   0  0  0  0  0  0  0  0  0  0  0  0
    9.6384  -14.6836   28.2117 C   0  0  0  0  0  0  0  0  0  0  0  0
   10.2156  -15.7469   27.2834 C   0  0  2  0  0  0  0  0  0  0  0  0
    9.2692  -16.1711   26.3010 N   0  0  0  0  0  0  0  0  0  0  0  0
   10.6646  -16.8575   28.1754 C   0  0  0  0  0  0  0  0  0  0  0  0
   10.2071  -18.0212   28.1167 O   0  0  0  0  0  0  0  0  0  0  0  0
   11.6435  -16.5522   29.1102 O   0  0  0  0  0  0  0  0  0  0  0  0
  2  1  1  0
  3  2  1  0
  4  5  1  0
  4  3  1  0
  5  6  1  6
  7  5  1  0
  7  8  2  0
  9  7  1  0
 10  9  1  0
 10 11  1  0
 11 18  1  0
 12 11  2  0
 13 14  1  0
 14 16  1  0
 15 14  2  0
 17 16  1  1
 17 19  1  0
 18 17  1  0
 19 21  1  0
 20 19  2  0
M  END
$$$$
