MGN.pdb
     RDKit          3D

 21 20  0  0  1  0  0  0  0  0999 V2000
    6.6256  -10.5674   25.7640 C   0  0  0  0  0  0  0  0  0  0  0  0
    5.3379  -11.7622   26.2044 S   0  0  0  0  0  0  0  0  0  0  0  0
    5.6479  -13.3060   25.3148 C   0  0  0  0  0  0  0  0  0  0  0  0
    7.1273  -13.6210   25.3383 C   0  0  0  0  0  0  0  0  0  0  0  0
    7.3398  -14.8603   24.5147 C   0  0  2  0  0  0  0  0  0  0  0  0
    6.2850  -15.7938   24.7549 N   0  0  0  0  0  0  0  0  0  0  0  0
    8.6545  -15.4894   24.7545 C   0  0  0  0  0  0  0  0  0  0  0  0
    9.2585  -15.4167   25.8614 O   0  0  0  0  0  0  0  0  0  0  0  0
    9.2867  -16.2062   23.7267 N   0  0  0  0  0  0  0  0  0  0  0  0
   10.6946  -16.0128   23.3751 C   0  0  0  0  0  0  0  0  0  0  0  0
   11.5465  -16.4542   24.5032 C   0  0  0  0  0  0  0  0  0  0  0  0
   12.8014  -16.3361   24.4286 O   0  0  0  0  0  0  0  0  0  0  0  0
   11.8365  -14.9359   27.6439 N   0  0  0  0  0  0  0  0  0  0  0  0
   11.2091  -15.8885   28.4907 C   0  0  0  0  0  0  0  0  0  0  0  0
   10.6615  -15.4650   29.5377 O   0  0  0  0  0  0  0  0  0  0  0  0
   11.2362  -17.3008   28.0970 C   0  0  0  0  0  0  0  0  0  0  0  0
   11.8577  -17.4966   26.7181 C   0  0  2  0  0  0  0  0  0  0  0  0
   11.0119  -17.0089   25.6753 N   0  0  0  0  0  0  0  0  0  0  0  0
   12.1331  -18.9602   26.6063 C   0  0  0  0  0  0  0  0  0  0  0  0
   11.6164  -19.6980   25.7371 O   0  0  0  0  0  0  0  0  0  0  0  0
   13.0143  -19.5033   27.5305 O   0  0  0  0  0  0  0  0  0  0  0  0
  2  1  1  0
  3  2  1  0
  4  5  1  0
  4  3  1  0
  5  6  1  1
  7  5  1  0
  7  8  2  0
  9  7  1  0
 10  9  1  0
 10 11  1  0
 11 18  1  0
 12 11  2  0
 13 14  1  0
 14 16  1  0
 15 14  2  0
 17 16  1  1
 17 19  1  0
 18 17  1  0
 19 21  1  0
 20 19  2  0
M  END
$$$$
