MGN.pdb
     RDKit          3D

 21 20  0  0  1  0  0  0  0  0999 V2000
    7.3284  -12.4688   28.0909 C   0  0  0  0  0  0  0  0  0  0  0  0
    6.6723  -11.9468   26.4857 S   0  0  0  0  0  0  0  0  0  0  0  0
    6.3244  -13.4180   25.4931 C   0  0  0  0  0  0  0  0  0  0  0  0
    7.5621  -14.2840   25.4121 C   0  0  0  0  0  0  0  0  0  0  0  0
    7.2208  -15.4849   24.5749 C   0  0  2  0  0  0  0  0  0  0  0  0
    6.0674  -16.1397   25.1066 N   0  0  0  0  0  0  0  0  0  0  0  0
    8.3452  -16.4345   24.4494 C   0  0  0  0  0  0  0  0  0  0  0  0
    8.5060  -17.4147   25.2295 O   0  0  0  0  0  0  0  0  0  0  0  0
    9.2940  -16.2668   23.4288 N   0  0  0  0  0  0  0  0  0  0  0  0
   10.4261  -17.1758   23.2416 C   0  0  0  0  0  0  0  0  0  0  0  0
   11.1402  -17.3406   24.5284 C   0  0  0  0  0  0  0  0  0  0  0  0
   11.6588  -16.3378   25.0939 O   0  0  0  0  0  0  0  0  0  0  0  0
   10.3611  -17.7520   28.2941 N   0  0  0  0  0  0  0  0  0  0  0  0
   10.4598  -19.1681   28.2413 C   0  0  0  0  0  0  0  0  0  0  0  0
    9.7211  -19.8320   29.0088 O   0  0  0  0  0  0  0  0  0  0  0  0
   11.4109  -19.7693   27.3010 C   0  0  0  0  0  0  0  0  0  0  0  0
   12.0225  -18.7309   26.3664 C   0  0  2  0  0  0  0  0  0  0  0  0
   11.2695  -18.5857   25.1611 N   0  0  0  0  0  0  0  0  0  0  0  0
   13.4246  -19.1850   26.1245 C   0  0  0  0  0  0  0  0  0  0  0  0
   14.2984  -19.2419   27.0189 O   0  0  0  0  0  0  0  0  0  0  0  0
   13.7464  -19.5579   24.8272 O   0  0  0  0  0  0  0  0  0  0  0  0
  2  1  1  0
  3  2  1  0
  4  5  1  0
  4  3  1  0
  5  6  1  1
  7  5  1  0
  7  8  2  0
  9  7  1  0
 10  9  1  0
 10 11  1  0
 11 18  1  0
 12 11  2  0
 13 14  1  0
 14 16  1  0
 15 14  2  0
 17 16  1  1
 17 19  1  0
 18 17  1  0
 19 21  1  0
 20 19  2  0
M  END
$$$$
