MGN.pdb
     RDKit          3D

 21 20  0  0  1  0  0  0  0  0999 V2000
    5.0217  -11.4377   25.9825 C   0  0  0  0  0  0  0  0  0  0  0  0
    6.2300  -12.5335   26.7691 S   0  0  0  0  0  0  0  0  0  0  0  0
    6.3817  -14.0389   25.7783 C   0  0  0  0  0  0  0  0  0  0  0  0
    7.0609  -13.7197   24.4648 C   0  0  0  0  0  0  0  0  0  0  0  0
    7.2628  -15.0166   23.7324 C   0  0  2  0  0  0  0  0  0  0  0  0
    6.7451  -16.1008   24.5059 N   0  0  0  0  0  0  0  0  0  0  0  0
    8.6758  -15.2604   23.3773 C   0  0  0  0  0  0  0  0  0  0  0  0
    9.3837  -14.4161   22.7599 O   0  0  0  0  0  0  0  0  0  0  0  0
    9.2872  -16.4743   23.7272 N   0  0  0  0  0  0  0  0  0  0  0  0
   10.6436  -16.8291   23.3060 C   0  0  0  0  0  0  0  0  0  0  0  0
   11.5091  -16.9600   24.5006 C   0  0  0  0  0  0  0  0  0  0  0  0
   12.7345  -17.2323   24.3638 O   0  0  0  0  0  0  0  0  0  0  0  0
    9.7508  -14.5231   28.4377 N   0  0  0  0  0  0  0  0  0  0  0  0
   11.0151  -15.0325   28.0375 C   0  0  0  0  0  0  0  0  0  0  0  0
   11.8403  -14.2232   27.5482 O   0  0  0  0  0  0  0  0  0  0  0  0
   11.2826  -16.4630   28.2173 C   0  0  0  0  0  0  0  0  0  0  0  0
   11.8211  -17.1070   26.9440 C   0  0  2  0  0  0  0  0  0  0  0  0
   11.0197  -16.7917   25.8042 N   0  0  0  0  0  0  0  0  0  0  0  0
   11.8768  -18.5722   27.2279 C   0  0  0  0  0  0  0  0  0  0  0  0
   11.2703  -19.4326   26.5507 O   0  0  0  0  0  0  0  0  0  0  0  0
   12.6515  -18.9711   28.3078 O   0  0  0  0  0  0  0  0  0  0  0  0
  2  1  1  0
  3  2  1  0
  4  5  1  0
  4  3  1  0
  5  6  1  1
  7  5  1  0
  7  8  2  0
  9  7  1  0
 10  9  1  0
 10 11  1  0
 11 18  1  0
 12 11  2  0
 13 14  1  0
 14 16  1  0
 15 14  2  0
 17 16  1  1
 17 19  1  0
 18 17  1  0
 19 21  1  0
 20 19  2  0
M  END
$$$$
