MGN.pdb
     RDKit          3D

 21 20  0  0  1  0  0  0  0  0999 V2000
    6.0596  -12.3139   27.2917 C   0  0  0  0  0  0  0  0  0  0  0  0
    7.0309  -12.1170   25.7760 S   0  0  0  0  0  0  0  0  0  0  0  0
    6.9014  -13.6345   24.8007 C   0  0  0  0  0  0  0  0  0  0  0  0
    7.7436  -13.5115   23.5501 C   0  0  0  0  0  0  0  0  0  0  0  0
    7.9371  -14.8954   22.9963 C   0  0  2  0  0  0  0  0  0  0  0  0
    7.1582  -15.8335   23.7414 N   0  0  0  0  0  0  0  0  0  0  0  0
    9.3553  -15.3072   22.9648 C   0  0  0  0  0  0  0  0  0  0  0  0
   10.2603  -14.6106   22.4255 O   0  0  0  0  0  0  0  0  0  0  0  0
    9.7461  -16.5210   23.5511 N   0  0  0  0  0  0  0  0  0  0  0  0
   11.1439  -16.9485   23.6320 C   0  0  0  0  0  0  0  0  0  0  0  0
   11.5817  -16.9272   25.0466 C   0  0  0  0  0  0  0  0  0  0  0  0
   12.8029  -17.0773   25.3304 O   0  0  0  0  0  0  0  0  0  0  0  0
   11.2275  -14.1710   27.3382 N   0  0  0  0  0  0  0  0  0  0  0  0
   10.2590  -14.6885   28.2395 C   0  0  0  0  0  0  0  0  0  0  0  0
    9.5149  -13.8672   28.8287 O   0  0  0  0  0  0  0  0  0  0  0  0
   10.1837  -16.1406   28.4288 C   0  0  0  0  0  0  0  0  0  0  0  0
   11.0998  -16.8894   27.4665 C   0  0  2  0  0  0  0  0  0  0  0  0
   10.6831  -16.7438   26.1078 N   0  0  0  0  0  0  0  0  0  0  0  0
   11.0914  -18.3098   27.9278 C   0  0  0  0  0  0  0  0  0  0  0  0
   11.5760  -18.6867   29.0187 O   0  0  0  0  0  0  0  0  0  0  0  0
   10.5077  -19.2398   27.0794 O   0  0  0  0  0  0  0  0  0  0  0  0
  2  1  1  0
  3  2  1  0
  4  5  1  0
  4  3  1  0
  5  6  1  1
  7  5  1  0
  7  8  2  0
  9  7  1  0
 10  9  1  0
 10 11  1  0
 11 18  1  0
 12 11  2  0
 13 14  1  0
 14 16  1  0
 15 14  2  0
 17 16  1  1
 17 19  1  0
 18 17  1  0
 19 21  1  0
 20 19  2  0
M  END
$$$$
