MGN.pdb
     RDKit          3D

 21 20  0  0  1  0  0  0  0  0999 V2000
    7.6670  -11.5592   27.2751 C   0  0  0  0  0  0  0  0  0  0  0  0
    5.9597  -12.0981   27.0025 S   0  0  0  0  0  0  0  0  0  0  0  0
    5.9559  -13.4129   25.7607 C   0  0  0  0  0  0  0  0  0  0  0  0
    7.3391  -13.5577   25.1657 C   0  0  0  0  0  0  0  0  0  0  0  0
    7.2674  -14.6210   24.1058 C   0  0  2  0  0  0  0  0  0  0  0  0
    6.7002  -15.8149   24.6486 N   0  0  0  0  0  0  0  0  0  0  0  0
    8.5789  -14.9037   23.4877 C   0  0  0  0  0  0  0  0  0  0  0  0
    9.2612  -14.0231   22.8927 O   0  0  0  0  0  0  0  0  0  0  0  0
    9.1173  -16.1985   23.5470 N   0  0  0  0  0  0  0  0  0  0  0  0
   10.4100  -16.5474   22.9549 C   0  0  0  0  0  0  0  0  0  0  0  0
   11.3750  -16.8593   24.0340 C   0  0  0  0  0  0  0  0  0  0  0  0
   12.5741  -17.1317   23.7473 O   0  0  0  0  0  0  0  0  0  0  0  0
    9.7902  -15.4266   28.6214 N   0  0  0  0  0  0  0  0  0  0  0  0
   11.0302  -15.7588   28.0128 C   0  0  0  0  0  0  0  0  0  0  0  0
   11.7927  -14.8146   27.6926 O   0  0  0  0  0  0  0  0  0  0  0  0
   11.3466  -17.1739   27.7951 C   0  0  0  0  0  0  0  0  0  0  0  0
   11.8643  -17.4320   26.3839 C   0  0  2  0  0  0  0  0  0  0  0  0
   11.0103  -16.8660   25.3884 N   0  0  0  0  0  0  0  0  0  0  0  0
   11.9890  -18.9157   26.2673 C   0  0  0  0  0  0  0  0  0  0  0  0
   11.3787  -19.5971   25.4129 O   0  0  0  0  0  0  0  0  0  0  0  0
   12.8352  -19.5451   27.1691 O   0  0  0  0  0  0  0  0  0  0  0  0
  2  1  1  0
  3  2  1  0
  4  5  1  0
  4  3  1  0
  5  6  1  1
  7  5  1  0
  7  8  2  0
  9  7  1  0
 10  9  1  0
 10 11  1  0
 11 18  1  0
 12 11  2  0
 13 14  1  0
 14 16  1  0
 15 14  2  0
 17 16  1  1
 17 19  1  0
 18 17  1  0
 19 21  1  0
 20 19  2  0
M  END
$$$$
