GME.pdb
     RDKit          3D

 22 21  0  0  1  0  0  0  0  0999 V2000
    5.7034  -19.8347   21.7082 N   0  0  0  0  0  0  0  0  0  0  0  0
    5.5644  -19.4180   23.0890 C   0  0  0  0  0  0  0  0  0  0  0  0
    6.3357  -18.1796   23.2771 C   0  0  0  0  0  0  0  0  0  0  0  0
    7.2337  -17.8135   22.4401 O   0  0  0  0  0  0  0  0  0  0  0  0
    7.1528  -11.2099   26.9274 C   0  0  0  0  0  0  0  0  0  0  0  0
    6.3182  -12.8110   26.7999 S   0  0  0  0  0  0  0  0  0  0  0  0
    7.2030  -13.9471   25.7054 C   0  0  0  0  0  0  0  0  0  0  0  0
    6.3859  -15.2071   25.5797 C   0  0  0  0  0  0  0  0  0  0  0  0
    7.0140  -16.1953   24.6144 C   0  0  2  0  0  0  0  0  0  0  0  0
    6.1307  -17.3240   24.3861 N   0  0  0  0  0  0  0  0  0  0  0  0
    8.2820  -16.6656   25.1865 C   0  0  0  0  0  0  0  0  0  0  0  0
    8.3750  -17.4652   26.1542 O   0  0  0  0  0  0  0  0  0  0  0  0
    9.4958  -16.2045   24.6309 N   0  0  0  0  0  0  0  0  0  0  0  0
   10.8000  -16.8186   24.9206 C   0  0  1  0  0  0  0  0  0  0  0  0
   11.7413  -16.2771   23.8836 C   0  0  0  0  0  0  0  0  0  0  0  0
   13.1699  -16.6448   24.1044 C   0  0  0  0  0  0  0  0  0  0  0  0
   13.9507  -16.1178   22.9571 C   0  0  0  0  0  0  0  0  0  0  0  0
   13.6279  -16.4235   21.7849 O   0  0  0  0  0  0  0  0  0  0  0  0
   11.1807  -16.5789   26.3059 C   0  0  0  0  0  0  0  0  0  0  0  0
   11.8971  -17.4101   26.9100 O   0  0  0  0  0  0  0  0  0  0  0  0
   15.0495  -15.2757   23.1389 O   0  0  0  0  0  0  0  0  0  0  0  0
   10.7712  -15.4471   26.9895 O   0  0  0  0  0  0  0  0  0  0  0  0
  2  3  1  0
  2  1  1  0
  3 10  1  0
  4  3  2  0
  6  7  1  0
  6  5  1  0
  9  8  1  1
  8  7  1  0
  9 11  1  0
 10  9  1  0
 11 13  1  0
 11 12  2  0
 13 14  1  0
 14 19  1  0
 14 15  1  6
 16 17  1  0
 16 15  1  0
 17 18  2  0
 19 22  1  0
 20 19  2  0
 21 17  1  0
M  END
$$$$
