GME.pdb
     RDKit          3D

 22 21  0  0  1  0  0  0  0  0999 V2000
    8.1946  -16.1250   18.9300 N   0  0  0  0  0  0  0  0  0  0  0  0
    7.2294  -16.0680   20.0091 C   0  0  0  0  0  0  0  0  0  0  0  0
    7.8836  -15.4684   21.1823 C   0  0  0  0  0  0  0  0  0  0  0  0
    9.1578  -15.3612   21.2596 O   0  0  0  0  0  0  0  0  0  0  0  0
    7.0847  -11.6931   28.1418 C   0  0  0  0  0  0  0  0  0  0  0  0
    6.3465  -12.4070   26.6513 S   0  0  0  0  0  0  0  0  0  0  0  0
    7.5755  -13.2544   25.6300 C   0  0  0  0  0  0  0  0  0  0  0  0
    6.8893  -13.7406   24.3794 C   0  0  0  0  0  0  0  0  0  0  0  0
    7.8361  -14.5099   23.4769 C   0  0  2  0  0  0  0  0  0  0  0  0
    7.1480  -14.9757   22.2869 N   0  0  0  0  0  0  0  0  0  0  0  0
    8.3655  -15.6574   24.2248 C   0  0  0  0  0  0  0  0  0  0  0  0
    7.7026  -16.6876   24.5143 O   0  0  0  0  0  0  0  0  0  0  0  0
    9.7085  -15.6289   24.6609 N   0  0  0  0  0  0  0  0  0  0  0  0
   10.4275  -16.8203   25.1359 C   0  0  1  0  0  0  0  0  0  0  0  0
   11.6685  -16.9058   24.2949 C   0  0  0  0  0  0  0  0  0  0  0  0
   12.6043  -15.7574   24.4691 C   0  0  0  0  0  0  0  0  0  0  0  0
   13.8861  -16.1206   23.8142 C   0  0  0  0  0  0  0  0  0  0  0  0
   13.9178  -17.0420   22.9645 O   0  0  0  0  0  0  0  0  0  0  0  0
   10.6434  -16.7463   26.5746 C   0  0  0  0  0  0  0  0  0  0  0  0
   11.1857  -17.7024   27.1751 O   0  0  0  0  0  0  0  0  0  0  0  0
   15.0790  -15.4591   24.1126 O   0  0  0  0  0  0  0  0  0  0  0  0
   10.2633  -15.6391   27.3131 O   0  0  0  0  0  0  0  0  0  0  0  0
  2  3  1  0
  2  1  1  0
  3 10  1  0
  4  3  2  0
  6  7  1  0
  6  5  1  0
  9  8  1  1
  8  7  1  0
  9 11  1  0
 10  9  1  0
 11 13  1  0
 11 12  2  0
 13 14  1  0
 14 19  1  0
 14 15  1  6
 16 17  1  0
 16 15  1  0
 17 18  2  0
 19 22  1  0
 20 19  2  0
 21 17  1  0
M  END
$$$$
