GME.pdb
     RDKit          3D

 22 21  0  0  1  0  0  0  0  0999 V2000
    7.8194  -15.0970   19.4775 N   0  0  0  0  0  0  0  0  0  0  0  0
    6.9585  -15.3883   20.6060 C   0  0  0  0  0  0  0  0  0  0  0  0
    7.6694  -15.0126   21.8378 C   0  0  0  0  0  0  0  0  0  0  0  0
    8.9301  -14.7855   21.8435 O   0  0  0  0  0  0  0  0  0  0  0  0
    7.0164  -11.0629   27.3698 C   0  0  0  0  0  0  0  0  0  0  0  0
    5.7571  -12.2560   26.8529 S   0  0  0  0  0  0  0  0  0  0  0  0
    6.1259  -12.9648   25.2303 C   0  0  0  0  0  0  0  0  0  0  0  0
    6.8338  -14.2781   25.4434 C   0  0  0  0  0  0  0  0  0  0  0  0
    7.7623  -14.6142   24.2911 C   0  0  2  0  0  0  0  0  0  0  0  0
    7.0057  -14.8786   23.0811 N   0  0  0  0  0  0  0  0  0  0  0  0
    8.5472  -15.8008   24.6545 C   0  0  0  0  0  0  0  0  0  0  0  0
    8.1031  -16.9787   24.6505 O   0  0  0  0  0  0  0  0  0  0  0  0
    9.8964  -15.6372   25.0385 N   0  0  0  0  0  0  0  0  0  0  0  0
   10.8537  -16.7506   25.1152 C   0  0  1  0  0  0  0  0  0  0  0  0
   12.0448  -16.3160   24.3106 C   0  0  0  0  0  0  0  0  0  0  0  0
   13.1665  -17.2991   24.3009 C   0  0  0  0  0  0  0  0  0  0  0  0
   14.2178  -16.7704   23.3960 C   0  0  0  0  0  0  0  0  0  0  0  0
   14.3317  -17.2249   22.2331 O   0  0  0  0  0  0  0  0  0  0  0  0
   11.1225  -17.0981   26.5040 C   0  0  0  0  0  0  0  0  0  0  0  0
   10.8057  -16.3040   27.4194 O   0  0  0  0  0  0  0  0  0  0  0  0
   15.0984  -15.7643   23.7986 O   0  0  0  0  0  0  0  0  0  0  0  0
   11.7263  -18.2937   26.8530 O   0  0  0  0  0  0  0  0  0  0  0  0
  2  3  1  0
  2  1  1  0
  3 10  1  0
  4  3  2  0
  6  7  1  0
  6  5  1  0
  9  8  1  1
  8  7  1  0
  9 11  1  0
 10  9  1  0
 11 13  1  0
 11 12  2  0
 13 14  1  0
 14 19  1  0
 14 15  1  1
 16 17  1  0
 16 15  1  0
 17 18  2  0
 19 22  1  0
 20 19  2  0
 21 17  1  0
M  END
$$$$
