GME.pdb
     RDKit          3D

 22 21  0  0  1  0  0  0  0  0999 V2000
    8.9471  -16.2641   19.1483 N   0  0  0  0  0  0  0  0  0  0  0  0
    7.8780  -16.2949   20.1257 C   0  0  0  0  0  0  0  0  0  0  0  0
    8.3602  -15.6517   21.3576 C   0  0  0  0  0  0  0  0  0  0  0  0
    9.6041  -15.4117   21.5478 O   0  0  0  0  0  0  0  0  0  0  0  0
    6.5431  -11.8565   28.0977 C   0  0  0  0  0  0  0  0  0  0  0  0
    6.0137  -12.7732   26.6295 S   0  0  0  0  0  0  0  0  0  0  0  0
    7.4160  -13.4927   25.7421 C   0  0  0  0  0  0  0  0  0  0  0  0
    6.8902  -14.1543   24.4943 C   0  0  0  0  0  0  0  0  0  0  0  0
    8.0100  -14.7048   23.6306 C   0  0  2  0  0  0  0  0  0  0  0  0
    7.4832  -15.2606   22.3978 N   0  0  0  0  0  0  0  0  0  0  0  0
    8.7118  -15.7503   24.3860 C   0  0  0  0  0  0  0  0  0  0  0  0
    8.2851  -16.9239   24.5449 O   0  0  0  0  0  0  0  0  0  0  0  0
    9.9534  -15.4446   24.9855 N   0  0  0  0  0  0  0  0  0  0  0  0
   10.8598  -16.4666   25.5293 C   0  0  1  0  0  0  0  0  0  0  0  0
   12.2378  -16.0573   25.0954 C   0  0  0  0  0  0  0  0  0  0  0  0
   12.8847  -17.0055   24.1429 C   0  0  0  0  0  0  0  0  0  0  0  0
   14.2232  -16.4589   23.8062 C   0  0  0  0  0  0  0  0  0  0  0  0
   14.6834  -15.4856   24.4485 O   0  0  0  0  0  0  0  0  0  0  0  0
   10.6661  -16.6083   26.9661 C   0  0  0  0  0  0  0  0  0  0  0  0
   11.3414  -17.4453   27.6082 O   0  0  0  0  0  0  0  0  0  0  0  0
   15.0045  -17.0015   22.7840 O   0  0  0  0  0  0  0  0  0  0  0  0
    9.7463  -15.8388   27.6574 O   0  0  0  0  0  0  0  0  0  0  0  0
  2  3  1  0
  2  1  1  0
  3 10  1  0
  4  3  2  0
  6  7  1  0
  6  5  1  0
  9  8  1  1
  8  7  1  0
  9 11  1  0
 10  9  1  0
 11 13  1  0
 11 12  2  0
 13 14  1  0
 14 19  1  0
 14 15  1  1
 16 17  1  0
 16 15  1  0
 17 18  2  0
 19 22  1  0
 20 19  2  0
 21 17  1  0
M  END
$$$$
