GME.pdb
     RDKit          3D

 22 21  0  0  1  0  0  0  0  0999 V2000
    4.6675  -18.9265   22.5502 N   0  0  0  0  0  0  0  0  0  0  0  0
    5.1103  -18.6204   23.8954 C   0  0  0  0  0  0  0  0  0  0  0  0
    6.1424  -17.5753   23.8150 C   0  0  0  0  0  0  0  0  0  0  0  0
    6.9493  -17.5027   22.8227 O   0  0  0  0  0  0  0  0  0  0  0  0
    7.3929  -11.4014   26.8472 C   0  0  0  0  0  0  0  0  0  0  0  0
    5.9249  -12.4596   26.8096 S   0  0  0  0  0  0  0  0  0  0  0  0
    6.0394  -13.7258   25.5232 C   0  0  0  0  0  0  0  0  0  0  0  0
    7.2562  -14.5695   25.8042 C   0  0  0  0  0  0  0  0  0  0  0  0
    7.4263  -15.6765   24.7803 C   0  0  2  0  0  0  0  0  0  0  0  0
    6.3019  -16.5933   24.8220 N   0  0  0  0  0  0  0  0  0  0  0  0
    8.6684  -16.4011   25.0777 C   0  0  0  0  0  0  0  0  0  0  0  0
    8.7948  -17.2538   25.9950 O   0  0  0  0  0  0  0  0  0  0  0  0
    9.8153  -16.1425   24.2952 N   0  0  0  0  0  0  0  0  0  0  0  0
   11.0494  -16.9367   24.3860 C   0  0  1  0  0  0  0  0  0  0  0  0
   11.8885  -16.5155   23.2143 C   0  0  0  0  0  0  0  0  0  0  0  0
   13.2709  -17.0757   23.2207 C   0  0  0  0  0  0  0  0  0  0  0  0
   13.9516  -16.6032   21.9889 C   0  0  0  0  0  0  0  0  0  0  0  0
   13.3867  -15.7723   21.2391 O   0  0  0  0  0  0  0  0  0  0  0  0
   11.6661  -16.7737   25.6956 C   0  0  0  0  0  0  0  0  0  0  0  0
   12.3554  -17.6999   26.1813 O   0  0  0  0  0  0  0  0  0  0  0  0
   15.2229  -17.0558   21.6302 O   0  0  0  0  0  0  0  0  0  0  0  0
   11.5137  -15.6131   26.4342 O   0  0  0  0  0  0  0  0  0  0  0  0
  2  3  1  0
  2  1  1  0
  3 10  1  0
  4  3  2  0
  6  7  1  0
  6  5  1  0
  9  8  1  1
  8  7  1  0
  9 11  1  0
 10  9  1  0
 11 13  1  0
 11 12  2  0
 13 14  1  0
 14 19  1  0
 14 15  1  6
 16 17  1  0
 16 15  1  0
 17 18  2  0
 19 22  1  0
 20 19  2  0
 21 17  1  0
M  END
$$$$
