GME.pdb
     RDKit          3D

 22 21  0  0  1  0  0  0  0  0999 V2000
    7.6501  -15.1725   19.1524 N   0  0  0  0  0  0  0  0  0  0  0  0
    6.8861  -15.6245   20.2974 C   0  0  0  0  0  0  0  0  0  0  0  0
    7.5831  -15.1903   21.5179 C   0  0  0  0  0  0  0  0  0  0  0  0
    8.8616  -15.1392   21.5795 O   0  0  0  0  0  0  0  0  0  0  0  0
    7.0729  -10.4685   26.4272 C   0  0  0  0  0  0  0  0  0  0  0  0
    6.5075  -12.1033   26.9602 S   0  0  0  0  0  0  0  0  0  0  0  0
    7.4452  -13.4320   26.1687 C   0  0  0  0  0  0  0  0  0  0  0  0
    6.6945  -13.8638   24.9353 C   0  0  0  0  0  0  0  0  0  0  0  0
    7.6129  -14.4963   23.9061 C   0  0  2  0  0  0  0  0  0  0  0  0
    6.8863  -14.8037   22.6879 N   0  0  0  0  0  0  0  0  0  0  0  0
    8.1724  -15.7293   24.4744 C   0  0  0  0  0  0  0  0  0  0  0  0
    7.5186  -16.7881   24.6643 O   0  0  0  0  0  0  0  0  0  0  0  0
    9.5359  -15.7562   24.8413 N   0  0  0  0  0  0  0  0  0  0  0  0
   10.2237  -16.9719   25.3005 C   0  0  1  0  0  0  0  0  0  0  0  0
   11.6023  -16.9045   24.7090 C   0  0  0  0  0  0  0  0  0  0  0  0
   11.6421  -17.0958   23.2303 C   0  0  0  0  0  0  0  0  0  0  0  0
   13.0630  -17.0218   22.8070 C   0  0  0  0  0  0  0  0  0  0  0  0
   13.8514  -17.9549   23.0893 O   0  0  0  0  0  0  0  0  0  0  0  0
   10.1637  -17.0749   26.7522 C   0  0  0  0  0  0  0  0  0  0  0  0
    9.8848  -18.1712   27.2899 O   0  0  0  0  0  0  0  0  0  0  0  0
   13.5621  -15.9328   22.0897 O   0  0  0  0  0  0  0  0  0  0  0  0
   10.4069  -15.9859   27.5713 O   0  0  0  0  0  0  0  0  0  0  0  0
  2  3  1  0
  2  1  1  0
  3 10  1  0
  4  3  2  0
  6  7  1  0
  6  5  1  0
  9  8  1  1
  8  7  1  0
  9 11  1  0
 10  9  1  0
 11 13  1  0
 11 12  2  0
 13 14  1  0
 14 19  1  0
 14 15  1  1
 16 17  1  0
 16 15  1  0
 17 18  2  0
 19 22  1  0
 20 19  2  0
 21 17  1  0
M  END
$$$$
