GME.pdb
     RDKit          3D

 22 21  0  0  1  0  0  0  0  0999 V2000
    7.2752  -15.3074   19.5717 N   0  0  0  0  0  0  0  0  0  0  0  0
    6.6110  -15.5950   20.8269 C   0  0  0  0  0  0  0  0  0  0  0  0
    7.4679  -15.1166   21.9226 C   0  0  0  0  0  0  0  0  0  0  0  0
    8.7174  -14.8932   21.7501 O   0  0  0  0  0  0  0  0  0  0  0  0
    7.1588  -11.6437   27.7553 C   0  0  0  0  0  0  0  0  0  0  0  0
    5.8309  -11.8235   26.5385 S   0  0  0  0  0  0  0  0  0  0  0  0
    6.3945  -12.6772   25.0469 C   0  0  0  0  0  0  0  0  0  0  0  0
    7.1232  -13.9267   25.4702 C   0  0  0  0  0  0  0  0  0  0  0  0
    7.8708  -14.5651   24.3142 C   0  0  2  0  0  0  0  0  0  0  0  0
    6.9646  -14.8743   23.2235 N   0  0  0  0  0  0  0  0  0  0  0  0
    8.5083  -15.7979   24.7940 C   0  0  0  0  0  0  0  0  0  0  0  0
    7.8840  -16.8256   25.1664 O   0  0  0  0  0  0  0  0  0  0  0  0
    9.9180  -15.8614   24.8512 N   0  0  0  0  0  0  0  0  0  0  0  0
   10.6563  -17.0811   25.2107 C   0  0  1  0  0  0  0  0  0  0  0  0
   11.8801  -17.0842   24.3407 C   0  0  0  0  0  0  0  0  0  0  0  0
   12.7458  -15.8801   24.5006 C   0  0  0  0  0  0  0  0  0  0  0  0
   13.9076  -16.0395   23.5904 C   0  0  0  0  0  0  0  0  0  0  0  0
   14.0060  -17.0617   22.8712 O   0  0  0  0  0  0  0  0  0  0  0  0
   10.9015  -17.1251   26.6458 C   0  0  0  0  0  0  0  0  0  0  0  0
   11.4535  -18.1275   27.1551 O   0  0  0  0  0  0  0  0  0  0  0  0
   14.9116  -15.0731   23.5014 O   0  0  0  0  0  0  0  0  0  0  0  0
   10.5391  -16.0816   27.4800 O   0  0  0  0  0  0  0  0  0  0  0  0
  2  3  1  0
  2  1  1  0
  3 10  1  0
  4  3  2  0
  6  7  1  0
  6  5  1  0
  9  8  1  1
  8  7  1  0
  9 11  1  0
 10  9  1  0
 11 13  1  0
 11 12  2  0
 13 14  1  0
 14 19  1  0
 14 15  1  6
 16 17  1  0
 16 15  1  0
 17 18  2  0
 19 22  1  0
 20 19  2  0
 21 17  1  0
M  END
$$$$
