GME.pdb
     RDKit          3D

 22 21  0  0  1  0  0  0  0  0999 V2000
    7.7553  -15.3741   19.4395 N   0  0  0  0  0  0  0  0  0  0  0  0
    6.8301  -15.2168   20.5434 C   0  0  0  0  0  0  0  0  0  0  0  0
    7.5961  -14.8180   21.7343 C   0  0  0  0  0  0  0  0  0  0  0  0
    8.8705  -14.9372   21.7845 O   0  0  0  0  0  0  0  0  0  0  0  0
    8.7794  -12.9333   28.9168 C   0  0  0  0  0  0  0  0  0  0  0  0
    8.0153  -13.6917   27.4618 S   0  0  0  0  0  0  0  0  0  0  0  0
    7.8595  -12.5188   26.0938 C   0  0  0  0  0  0  0  0  0  0  0  0
    6.9698  -13.1373   25.0463 C   0  0  0  0  0  0  0  0  0  0  0  0
    7.7528  -14.0071   24.0803 C   0  0  2  0  0  0  0  0  0  0  0  0
    6.9739  -14.2803   22.8866 N   0  0  0  0  0  0  0  0  0  0  0  0
    8.0877  -15.2684   24.7535 C   0  0  0  0  0  0  0  0  0  0  0  0
    7.3031  -16.2460   24.8682 O   0  0  0  0  0  0  0  0  0  0  0  0
    9.3725  -15.4215   25.3197 N   0  0  0  0  0  0  0  0  0  0  0  0
    9.8896  -16.7076   25.8100 C   0  0  1  0  0  0  0  0  0  0  0  0
   10.5120  -17.3745   24.6173 C   0  0  0  0  0  0  0  0  0  0  0  0
   11.7587  -16.7156   24.1310 C   0  0  0  0  0  0  0  0  0  0  0  0
   12.3318  -17.5735   23.0636 C   0  0  0  0  0  0  0  0  0  0  0  0
   11.7409  -18.6236   22.7175 O   0  0  0  0  0  0  0  0  0  0  0  0
   10.7721  -16.5015   26.9504 C   0  0  0  0  0  0  0  0  0  0  0  0
   11.0590  -15.3384   27.3165 O   0  0  0  0  0  0  0  0  0  0  0  0
   13.5249  -17.2458   22.4165 O   0  0  0  0  0  0  0  0  0  0  0  0
   11.3143  -17.5629   27.6542 O   0  0  0  0  0  0  0  0  0  0  0  0
  2  3  1  0
  2  1  1  0
  3 10  1  0
  4  3  2  0
  6  7  1  0
  6  5  1  0
  9  8  1  1
  8  7  1  0
  9 11  1  0
 10  9  1  0
 11 13  1  0
 11 12  2  0
 13 14  1  0
 14 19  1  0
 14 15  1  6
 16 17  1  0
 16 15  1  0
 17 18  2  0
 19 22  1  0
 20 19  2  0
 21 17  1  0
M  END
$$$$
