HVF.pdb
     RDKit          3D

 29 30  0  0  1  0  0  0  0  0999 V2000
    6.9586  -16.5859   20.4641 N   0  0  0  0  0  0  0  0  0  0  0  0
    7.9271  -15.9469   21.2952 C   0  0  1  0  0  0  0  0  0  0  0  0
    7.5602  -14.4964   21.4732 C   0  0  0  0  0  0  0  0  0  0  0  0
    7.7846  -13.8034   20.1788 C   0  0  0  0  0  0  0  0  0  0  0  0
    8.2877  -14.3430   19.0129 C   0  0  0  0  0  0  0  0  0  0  0  0
    8.3444  -13.4051   18.0536 N   0  0  0  0  0  0  0  0  0  0  0  0
    7.8764  -12.2589   18.6040 C   0  0  0  0  0  0  0  0  0  0  0  0
    7.5391  -12.5061   19.8906 N   0  0  0  0  0  0  0  0  0  0  0  0
    8.0327  -16.6292   22.6437 C   0  0  0  0  0  0  0  0  0  0  0  0
    7.0008  -17.1463   23.0524 O   0  0  0  0  0  0  0  0  0  0  0  0
   10.8957  -19.3000   25.5000 C   0  0  0  0  0  0  0  0  0  0  0  0
   10.5088  -18.6010   24.2116 C   0  0  2  0  0  0  0  0  0  0  0  0
   11.7795  -18.1713   23.5524 C   0  0  0  0  0  0  0  0  0  0  0  0
    9.6095  -17.4486   24.5028 C   0  0  2  0  0  0  0  0  0  0  0  0
    9.2046  -16.6679   23.3634 N   0  0  0  0  0  0  0  0  0  0  0  0
   10.0024  -16.5419   25.5729 C   0  0  0  0  0  0  0  0  0  0  0  0
   10.8418  -15.5914   25.3003 O   0  0  0  0  0  0  0  0  0  0  0  0
    9.5774  -16.5479   26.9208 N   0  0  0  0  0  0  0  0  0  0  0  0
   10.1495  -15.6463   27.9386 C   0  0  1  0  0  0  0  0  0  0  0  0
    9.1260  -14.7069   28.4637 C   0  0  0  0  0  0  0  0  0  0  0  0
    8.4123  -13.9317   27.4339 C   0  0  0  0  0  0  0  0  0  0  0  0
    8.9098  -12.6741   27.0922 C   0  0  0  0  0  0  0  0  0  0  0  0
    8.2837  -11.9066   26.1364 C   0  0  0  0  0  0  0  0  0  0  0  0
    7.1550  -12.3995   25.5197 C   0  0  0  0  0  0  0  0  0  0  0  0
    6.6465  -13.6387   25.8416 C   0  0  0  0  0  0  0  0  0  0  0  0
    7.2801  -14.3944   26.7966 C   0  0  0  0  0  0  0  0  0  0  0  0
   10.8811  -16.4187   28.9659 C   0  0  0  0  0  0  0  0  0  0  0  0
   10.7777  -17.6507   29.0035 O   0  0  0  0  0  0  0  0  0  0  0  0
   11.6774  -15.7559   29.8809 O   0  0  0  0  0  0  0  0  0  0  0  0
  2  1  1  6
  2  9  1  0
  2  3  1  0
  3  4  1  0
  4  5  2  0
  4  8  1  0
  5  6  1  0
  6  7  1  0
  8  7  2  0
  9 10  2  0
 12 11  1  1
 12 14  1  0
 13 12  1  0
 14 15  1  6
 15  9  1  0
 16 17  2  0
 16 14  1  0
 18 16  1  0
 19 18  1  0
 19 27  1  0
 19 20  1  1
 21 20  1  0
 21 26  1  0
 22 21  2  0
 23 22  1  0
 23 24  2  0
 24 25  1  0
 25 26  2  0
 27 28  2  0
 27 29  1  0
M  END
$$$$
