HVF.pdb
     RDKit          3D

 29 30  0  0  1  0  0  0  0  0999 V2000
    9.3792  -18.1719   18.3118 N   0  0  0  0  0  0  0  0  0  0  0  0
   10.3120  -17.1226   18.0547 C   0  0  1  0  0  0  0  0  0  0  0  0
   10.1042  -16.5943   16.6590 C   0  0  0  0  0  0  0  0  0  0  0  0
   11.3235  -16.8973   15.8666 C   0  0  0  0  0  0  0  0  0  0  0  0
   12.6330  -16.6189   16.2001 C   0  0  0  0  0  0  0  0  0  0  0  0
   13.4596  -17.0443   15.2311 N   0  0  0  0  0  0  0  0  0  0  0  0
   12.6795  -17.5979   14.2715 C   0  0  0  0  0  0  0  0  0  0  0  0
   11.3874  -17.5060   14.6617 N   0  0  0  0  0  0  0  0  0  0  0  0
   10.1735  -16.0018   19.0644 C   0  0  0  0  0  0  0  0  0  0  0  0
   11.1998  -15.3763   19.2981 O   0  0  0  0  0  0  0  0  0  0  0  0
    7.9215  -12.9370   19.3968 C   0  0  0  0  0  0  0  0  0  0  0  0
    7.5546  -13.8630   20.5397 C   0  0  2  0  0  0  0  0  0  0  0  0
    7.2937  -12.9994   21.7314 C   0  0  0  0  0  0  0  0  0  0  0  0
    8.6546  -14.8388   20.7833 C   0  0  2  0  0  0  0  0  0  0  0  0
    8.9794  -15.7033   19.6792 N   0  0  0  0  0  0  0  0  0  0  0  0
    8.5869  -15.6401   21.9978 C   0  0  0  0  0  0  0  0  0  0  0  0
    7.7111  -16.5948   22.0602 O   0  0  0  0  0  0  0  0  0  0  0  0
    9.3761  -15.5233   23.1644 N   0  0  0  0  0  0  0  0  0  0  0  0
    8.8070  -15.1599   24.4760 C   0  0  1  0  0  0  0  0  0  0  0  0
    8.4894  -13.7107   24.5435 C   0  0  0  0  0  0  0  0  0  0  0  0
    7.7745  -13.2908   25.7614 C   0  0  0  0  0  0  0  0  0  0  0  0
    6.4067  -13.0336   25.6677 C   0  0  0  0  0  0  0  0  0  0  0  0
    5.6883  -12.6388   26.7735 C   0  0  0  0  0  0  0  0  0  0  0  0
    6.3415  -12.5008   27.9784 C   0  0  0  0  0  0  0  0  0  0  0  0
    7.6915  -12.7495   28.0937 C   0  0  0  0  0  0  0  0  0  0  0  0
    8.3966  -13.1426   26.9834 C   0  0  0  0  0  0  0  0  0  0  0  0
    7.6924  -16.0659   24.8285 C   0  0  0  0  0  0  0  0  0  0  0  0
    7.2317  -16.0618   25.9764 O   0  0  0  0  0  0  0  0  0  0  0  0
    7.1724  -16.9149   23.8697 O   0  0  0  0  0  0  0  0  0  0  0  0
  2  1  1  1
  2  9  1  0
  2  3  1  0
  3  4  1  0
  4  5  2  0
  4  8  1  0
  5  6  1  0
  6  7  1  0
  8  7  2  0
  9 10  2  0
 12 11  1  6
 12 14  1  0
 13 12  1  0
 14 15  1  6
 15  9  1  0
 16 17  2  0
 16 14  1  0
 18 16  1  0
 19 18  1  0
 19 27  1  0
 19 20  1  6
 21 20  1  0
 21 26  1  0
 22 21  2  0
 23 22  1  0
 23 24  2  0
 24 25  1  0
 25 26  2  0
 27 28  2  0
 27 29  1  0
M  END
$$$$
