HVF.pdb
     RDKit          3D

 29 30  0  0  1  0  0  0  0  0999 V2000
    9.5583  -19.0436   19.2037 N   0  0  0  0  0  0  0  0  0  0  0  0
    8.4930  -18.4118   19.9130 C   0  0  1  0  0  0  0  0  0  0  0  0
    7.9327  -19.3660   20.9357 C   0  0  0  0  0  0  0  0  0  0  0  0
    7.2844  -20.4884   20.2104 C   0  0  0  0  0  0  0  0  0  0  0  0
    7.1831  -20.6597   18.8451 C   0  0  0  0  0  0  0  0  0  0  0  0
    6.5266  -21.7975   18.5671 N   0  0  0  0  0  0  0  0  0  0  0  0
    6.2046  -22.3599   19.7570 C   0  0  0  0  0  0  0  0  0  0  0  0
    6.6659  -21.5630   20.7481 N   0  0  0  0  0  0  0  0  0  0  0  0
    8.9585  -17.1371   20.5865 C   0  0  0  0  0  0  0  0  0  0  0  0
   10.1344  -17.1232   20.9276 O   0  0  0  0  0  0  0  0  0  0  0  0
    7.0154  -13.6068   19.6685 C   0  0  0  0  0  0  0  0  0  0  0  0
    7.2765  -13.7602   21.1540 C   0  0  2  0  0  0  0  0  0  0  0  0
    7.6547  -12.4093   21.6699 C   0  0  0  0  0  0  0  0  0  0  0  0
    8.3480  -14.7701   21.3854 C   0  0  2  0  0  0  0  0  0  0  0  0
    8.1219  -16.0664   20.8023 N   0  0  0  0  0  0  0  0  0  0  0  0
    8.8197  -14.9498   22.7518 C   0  0  0  0  0  0  0  0  0  0  0  0
    9.7469  -14.1583   23.1945 O   0  0  0  0  0  0  0  0  0  0  0  0
    8.3890  -15.9006   23.7047 N   0  0  0  0  0  0  0  0  0  0  0  0
    8.8114  -15.8573   25.1175 C   0  0  1  0  0  0  0  0  0  0  0  0
    7.6944  -15.4378   26.0019 C   0  0  0  0  0  0  0  0  0  0  0  0
    7.5285  -13.9803   26.1390 C   0  0  0  0  0  0  0  0  0  0  0  0
    6.2615  -13.4377   25.9244 C   0  0  0  0  0  0  0  0  0  0  0  0
    6.0484  -12.0827   26.0394 C   0  0  0  0  0  0  0  0  0  0  0  0
    7.1078  -11.2670   26.3707 C   0  0  0  0  0  0  0  0  0  0  0  0
    8.3673  -11.7815   26.5870 C   0  0  0  0  0  0  0  0  0  0  0  0
    8.5667  -13.1346   26.4692 C   0  0  0  0  0  0  0  0  0  0  0  0
    9.4773  -17.1210   25.5005 C   0  0  0  0  0  0  0  0  0  0  0  0
    9.5458  -18.0539   24.6912 O   0  0  0  0  0  0  0  0  0  0  0  0
   10.0194  -17.2517   26.7653 O   0  0  0  0  0  0  0  0  0  0  0  0
  2  1  1  1
  2  9  1  0
  2  3  1  0
  3  4  1  0
  4  5  2  0
  4  8  1  0
  5  6  1  0
  6  7  1  0
  8  7  2  0
  9 10  2  0
 12 11  1  6
 12 14  1  0
 13 12  1  0
 14 15  1  1
 15  9  1  0
 16 17  2  0
 16 14  1  0
 18 16  1  0
 19 18  1  0
 19 27  1  0
 19 20  1  1
 21 20  1  0
 21 26  1  0
 22 21  2  0
 23 22  1  0
 23 24  2  0
 24 25  1  0
 25 26  2  0
 27 28  2  0
 27 29  1  0
M  END
$$$$
