HVF.pdb
     RDKit          3D

 29 30  0  0  1  0  0  0  0  0999 V2000
    9.6332  -18.6713   18.7920 N   0  0  0  0  0  0  0  0  0  0  0  0
    8.8516  -18.2363   19.9042 C   0  0  1  0  0  0  0  0  0  0  0  0
    8.9716  -19.2351   21.0260 C   0  0  0  0  0  0  0  0  0  0  0  0
    8.3705  -20.5141   20.5688 C   0  0  0  0  0  0  0  0  0  0  0  0
    7.3934  -20.6881   19.6103 C   0  0  0  0  0  0  0  0  0  0  0  0
    7.1065  -21.9924   19.4708 N   0  0  0  0  0  0  0  0  0  0  0  0
    7.9014  -22.6594   20.3420 C   0  0  0  0  0  0  0  0  0  0  0  0
    8.6643  -21.7594   21.0038 N   0  0  0  0  0  0  0  0  0  0  0  0
    9.2826  -16.8633   20.3779 C   0  0  0  0  0  0  0  0  0  0  0  0
   10.4903  -16.7078   20.5064 O   0  0  0  0  0  0  0  0  0  0  0  0
    7.8019  -13.3108   19.2300 C   0  0  0  0  0  0  0  0  0  0  0  0
    7.6175  -13.4984   20.7230 C   0  0  2  0  0  0  0  0  0  0  0  0
    7.8705  -12.1710   21.3618 C   0  0  0  0  0  0  0  0  0  0  0  0
    8.5455  -14.5503   21.2267 C   0  0  2  0  0  0  0  0  0  0  0  0
    8.3832  -15.8574   20.6465 N   0  0  0  0  0  0  0  0  0  0  0  0
    8.6794  -14.6947   22.6700 C   0  0  0  0  0  0  0  0  0  0  0  0
    8.4125  -13.6713   23.4207 O   0  0  0  0  0  0  0  0  0  0  0  0
    9.0703  -15.8408   23.3988 N   0  0  0  0  0  0  0  0  0  0  0  0
    8.9727  -15.9194   24.8687 C   0  0  1  0  0  0  0  0  0  0  0  0
    7.6053  -15.5786   25.3376 C   0  0  0  0  0  0  0  0  0  0  0  0
    7.4400  -14.1913   25.8052 C   0  0  0  0  0  0  0  0  0  0  0  0
    8.5312  -13.5634   26.4059 C   0  0  0  0  0  0  0  0  0  0  0  0
    8.4339  -12.2679   26.8609 C   0  0  0  0  0  0  0  0  0  0  0  0
    7.2394  -11.5978   26.7141 C   0  0  0  0  0  0  0  0  0  0  0  0
    6.1492  -12.1985   26.1239 C   0  0  0  0  0  0  0  0  0  0  0  0
    6.2592  -13.4909   25.6743 C   0  0  0  0  0  0  0  0  0  0  0  0
    9.5022  -17.2110   25.3571 C   0  0  0  0  0  0  0  0  0  0  0  0
    9.7912  -18.1048   24.5525 O   0  0  0  0  0  0  0  0  0  0  0  0
    9.6699  -17.4115   26.7144 O   0  0  0  0  0  0  0  0  0  0  0  0
  2  1  1  6
  2  9  1  0
  2  3  1  0
  3  4  1  0
  4  5  2  0
  4  8  1  0
  5  6  1  0
  6  7  1  0
  8  7  2  0
  9 10  2  0
 12 11  1  6
 12 14  1  0
 13 12  1  0
 14 15  1  1
 15  9  1  0
 16 17  2  0
 16 14  1  0
 18 16  1  0
 19 18  1  0
 19 27  1  0
 19 20  1  6
 21 20  1  0
 21 26  1  0
 22 21  2  0
 23 22  1  0
 23 24  2  0
 24 25  1  0
 25 26  2  0
 27 28  2  0
 27 29  1  0
M  END
$$$$
