HVF.pdb
     RDKit          3D

 29 30  0  0  1  0  0  0  0  0999 V2000
   12.0295  -17.3403   18.7149 N   0  0  0  0  0  0  0  0  0  0  0  0
   11.2992  -17.8600   19.8255 C   0  0  1  0  0  0  0  0  0  0  0  0
   12.1817  -18.7881   20.6192 C   0  0  0  0  0  0  0  0  0  0  0  0
   12.3661  -20.0333   19.8307 C   0  0  0  0  0  0  0  0  0  0  0  0
   11.4917  -21.0949   19.7199 C   0  0  0  0  0  0  0  0  0  0  0  0
   12.0075  -22.0397   18.9171 N   0  0  0  0  0  0  0  0  0  0  0  0
   13.2172  -21.5845   18.5105 C   0  0  0  0  0  0  0  0  0  0  0  0
   13.4288  -20.3697   19.0667 N   0  0  0  0  0  0  0  0  0  0  0  0
   10.7783  -16.7477   20.7123 C   0  0  0  0  0  0  0  0  0  0  0  0
   11.6364  -16.0486   21.2359 O   0  0  0  0  0  0  0  0  0  0  0  0
    7.7006  -14.3861   19.7654 C   0  0  0  0  0  0  0  0  0  0  0  0
    7.4418  -15.0661   21.0954 C   0  0  2  0  0  0  0  0  0  0  0  0
    6.7587  -14.0643   21.9694 C   0  0  0  0  0  0  0  0  0  0  0  0
    8.7241  -15.5445   21.6855 C   0  0  2  0  0  0  0  0  0  0  0  0
    9.4349  -16.5335   20.9184 N   0  0  0  0  0  0  0  0  0  0  0  0
    8.7090  -15.9603   23.0814 C   0  0  0  0  0  0  0  0  0  0  0  0
    8.6443  -17.2281   23.3478 O   0  0  0  0  0  0  0  0  0  0  0  0
    8.7620  -15.1449   24.2345 N   0  0  0  0  0  0  0  0  0  0  0  0
    8.7941  -15.7011   25.6005 C   0  0  1  0  0  0  0  0  0  0  0  0
    9.0649  -14.6435   26.6075 C   0  0  0  0  0  0  0  0  0  0  0  0
    8.1057  -13.5252   26.6024 C   0  0  0  0  0  0  0  0  0  0  0  0
    8.0705  -12.6916   25.4846 C   0  0  0  0  0  0  0  0  0  0  0  0
    7.1940  -11.6319   25.4254 C   0  0  0  0  0  0  0  0  0  0  0  0
    6.3490  -11.4054   26.4893 C   0  0  0  0  0  0  0  0  0  0  0  0
    6.3668  -12.2160   27.6030 C   0  0  0  0  0  0  0  0  0  0  0  0
    7.2456  -13.2695   27.6498 C   0  0  0  0  0  0  0  0  0  0  0  0
    7.5904  -16.5212   25.8568 C   0  0  0  0  0  0  0  0  0  0  0  0
    6.5811  -16.3737   25.1573 O   0  0  0  0  0  0  0  0  0  0  0  0
    7.6013  -17.4494   26.8811 O   0  0  0  0  0  0  0  0  0  0  0  0
  2  1  1  6
  2  9  1  0
  2  3  1  0
  3  4  1  0
  4  5  2  0
  4  8  1  0
  5  6  1  0
  6  7  1  0
  8  7  2  0
  9 10  2  0
 12 11  1  6
 12 14  1  0
 13 12  1  0
 14 15  1  6
 15  9  1  0
 16 17  2  0
 16 14  1  0
 18 16  1  0
 19 18  1  0
 19 27  1  0
 19 20  1  1
 21 20  1  0
 21 26  1  0
 22 21  2  0
 23 22  1  0
 23 24  2  0
 24 25  1  0
 25 26  2  0
 27 28  2  0
 27 29  1  0
M  END
$$$$
