HVF.pdb
     RDKit          3D

 29 30  0  0  1  0  0  0  0  0999 V2000
    6.2549  -16.6334   19.1661 N   0  0  0  0  0  0  0  0  0  0  0  0
    7.1581  -16.1012   20.1346 C   0  0  1  0  0  0  0  0  0  0  0  0
    7.1657  -14.5972   20.0439 C   0  0  0  0  0  0  0  0  0  0  0  0
    7.7223  -14.2194   18.7196 C   0  0  0  0  0  0  0  0  0  0  0  0
    7.8556  -12.9502   18.1952 C   0  0  0  0  0  0  0  0  0  0  0  0
    8.4022  -13.0088   16.9701 N   0  0  0  0  0  0  0  0  0  0  0  0
    8.6212  -14.3194   16.7057 C   0  0  0  0  0  0  0  0  0  0  0  0
    8.2077  -15.0475   17.7683 N   0  0  0  0  0  0  0  0  0  0  0  0
    6.7849  -16.5389   21.5361 C   0  0  0  0  0  0  0  0  0  0  0  0
    5.6796  -16.1795   21.9211 O   0  0  0  0  0  0  0  0  0  0  0  0
    5.9807  -19.6218   23.1200 C   0  0  0  0  0  0  0  0  0  0  0  0
    7.2628  -19.2298   23.8279 C   0  0  2  0  0  0  0  0  0  0  0  0
    7.1085  -19.6313   25.2593 C   0  0  0  0  0  0  0  0  0  0  0  0
    7.5054  -17.7669   23.6778 C   0  0  2  0  0  0  0  0  0  0  0  0
    7.6261  -17.2885   22.3256 N   0  0  0  0  0  0  0  0  0  0  0  0
    8.5694  -17.1756   24.4777 C   0  0  0  0  0  0  0  0  0  0  0  0
    9.7986  -17.3742   24.1146 O   0  0  0  0  0  0  0  0  0  0  0  0
    8.4473  -16.3788   25.6386 N   0  0  0  0  0  0  0  0  0  0  0  0
    9.6164  -15.8460   26.3636 C   0  0  1  0  0  0  0  0  0  0  0  0
    9.8216  -14.4044   26.0711 C   0  0  0  0  0  0  0  0  0  0  0  0
    8.6573  -13.5455   26.3493 C   0  0  0  0  0  0  0  0  0  0  0  0
    7.6007  -13.5516   25.4387 C   0  0  0  0  0  0  0  0  0  0  0  0
    6.4876  -12.7693   25.6483 C   0  0  0  0  0  0  0  0  0  0  0  0
    6.4317  -11.9774   26.7740 C   0  0  0  0  0  0  0  0  0  0  0  0
    7.4636  -11.9559   27.6862 C   0  0  0  0  0  0  0  0  0  0  0  0
    8.5682  -12.7407   27.4657 C   0  0  0  0  0  0  0  0  0  0  0  0
    9.5407  -16.1926   27.7993 C   0  0  0  0  0  0  0  0  0  0  0  0
    8.4941  -16.6545   28.2696 O   0  0  0  0  0  0  0  0  0  0  0  0
   10.6437  -15.9959   28.6089 O   0  0  0  0  0  0  0  0  0  0  0  0
  2  1  1  6
  2  9  1  0
  2  3  1  0
  3  4  1  0
  4  5  2  0
  4  8  1  0
  5  6  1  0
  6  7  1  0
  8  7  2  0
  9 10  2  0
 12 11  1  6
 12 14  1  0
 13 12  1  0
 14 15  1  6
 15  9  1  0
 16 17  2  0
 16 14  1  0
 18 16  1  0
 19 18  1  0
 19 27  1  0
 19 20  1  1
 21 20  1  0
 21 26  1  0
 22 21  2  0
 23 22  1  0
 23 24  2  0
 24 25  1  0
 25 26  2  0
 27 28  2  0
 27 29  1  0
M  END
$$$$
