HVF.pdb
     RDKit          3D

 29 30  0  0  1  0  0  0  0  0999 V2000
    7.1360  -17.1661   19.0397 N   0  0  0  0  0  0  0  0  0  0  0  0
    7.3622  -16.2140   20.0786 C   0  0  1  0  0  0  0  0  0  0  0  0
    6.7348  -14.8972   19.7009 C   0  0  0  0  0  0  0  0  0  0  0  0
    7.5042  -14.3310   18.5635 C   0  0  0  0  0  0  0  0  0  0  0  0
    8.3994  -13.2815   18.5942 C   0  0  0  0  0  0  0  0  0  0  0  0
    8.8958  -13.0584   17.3667 N   0  0  0  0  0  0  0  0  0  0  0  0
    8.3183  -13.9669   16.5440 C   0  0  0  0  0  0  0  0  0  0  0  0
    7.4769  -14.7345   17.2740 N   0  0  0  0  0  0  0  0  0  0  0  0
    6.8053  -16.6985   21.4016 C   0  0  0  0  0  0  0  0  0  0  0  0
    5.6137  -16.9801   21.3978 O   0  0  0  0  0  0  0  0  0  0  0  0
    5.5630  -18.9261   22.9985 C   0  0  0  0  0  0  0  0  0  0  0  0
    6.8474  -18.8206   23.7970 C   0  0  2  0  0  0  0  0  0  0  0  0
    6.5495  -19.3354   25.1682 C   0  0  0  0  0  0  0  0  0  0  0  0
    7.3241  -17.4086   23.8184 C   0  0  2  0  0  0  0  0  0  0  0  0
    7.5806  -16.8157   22.5321 N   0  0  0  0  0  0  0  0  0  0  0  0
    8.4301  -17.0850   24.7093 C   0  0  0  0  0  0  0  0  0  0  0  0
    9.6408  -17.2048   24.2599 O   0  0  0  0  0  0  0  0  0  0  0  0
    8.3684  -16.6356   26.0479 N   0  0  0  0  0  0  0  0  0  0  0  0
    9.5425  -16.0970   26.7603 C   0  0  1  0  0  0  0  0  0  0  0  0
    9.6824  -14.6347   26.5414 C   0  0  0  0  0  0  0  0  0  0  0  0
    8.4857  -13.8426   26.8749 C   0  0  0  0  0  0  0  0  0  0  0  0
    8.5144  -13.0578   28.0277 C   0  0  0  0  0  0  0  0  0  0  0  0
    7.4251  -12.2971   28.3875 C   0  0  0  0  0  0  0  0  0  0  0  0
    6.3021  -12.3218   27.5903 C   0  0  0  0  0  0  0  0  0  0  0  0
    6.2520  -13.0896   26.4476 C   0  0  0  0  0  0  0  0  0  0  0  0
    7.3450  -13.8437   26.0997 C   0  0  0  0  0  0  0  0  0  0  0  0
    9.5329  -16.5237   28.1763 C   0  0  0  0  0  0  0  0  0  0  0  0
   10.4525  -16.1845   28.9306 O   0  0  0  0  0  0  0  0  0  0  0  0
    8.4929  -17.3024   28.6483 O   0  0  0  0  0  0  0  0  0  0  0  0
  2  1  1  6
  2  9  1  0
  2  3  1  0
  3  4  1  0
  4  5  2  0
  4  8  1  0
  5  6  1  0
  6  7  1  0
  8  7  2  0
  9 10  2  0
 12 11  1  6
 12 14  1  0
 13 12  1  0
 14 15  1  6
 15  9  1  0
 16 17  2  0
 16 14  1  0
 18 16  1  0
 19 18  1  0
 19 27  1  0
 19 20  1  1
 21 20  1  0
 21 26  1  0
 22 21  2  0
 23 22  1  0
 23 24  2  0
 24 25  1  0
 25 26  2  0
 27 28  2  0
 27 29  1  0
M  END
$$$$
