HVF.pdb
     RDKit          3D

 29 30  0  0  1  0  0  0  0  0999 V2000
   10.1766  -18.7992   19.3795 N   0  0  0  0  0  0  0  0  0  0  0  0
    9.1137  -18.4845   20.2786 C   0  0  1  0  0  0  0  0  0  0  0  0
    9.0443  -19.5291   21.3623 C   0  0  0  0  0  0  0  0  0  0  0  0
    8.3935  -20.7377   20.7948 C   0  0  0  0  0  0  0  0  0  0  0  0
    7.9512  -20.9248   19.5013 C   0  0  0  0  0  0  0  0  0  0  0  0
    7.4164  -22.1491   19.3659 N   0  0  0  0  0  0  0  0  0  0  0  0
    7.5149  -22.7511   20.5757 C   0  0  0  0  0  0  0  0  0  0  0  0
    8.1072  -21.8920   21.4366 N   0  0  0  0  0  0  0  0  0  0  0  0
    9.2956  -17.1096   20.8881 C   0  0  0  0  0  0  0  0  0  0  0  0
   10.4108  -16.8783   21.3376 O   0  0  0  0  0  0  0  0  0  0  0  0
    7.6785  -13.6641   19.4185 C   0  0  0  0  0  0  0  0  0  0  0  0
    7.2546  -13.9239   20.8507 C   0  0  2  0  0  0  0  0  0  0  0  0
    7.2077  -12.5969   21.5370 C   0  0  0  0  0  0  0  0  0  0  0  0
    8.2093  -14.8620   21.5065 C   0  0  2  0  0  0  0  0  0  0  0  0
    8.2811  -16.1814   20.9357 N   0  0  0  0  0  0  0  0  0  0  0  0
    8.1435  -14.9848   22.9564 C   0  0  0  0  0  0  0  0  0  0  0  0
    8.2813  -16.1617   23.4837 O   0  0  0  0  0  0  0  0  0  0  0  0
    7.9477  -13.9602   23.9101 N   0  0  0  0  0  0  0  0  0  0  0  0
    8.1087  -14.1823   25.3595 C   0  0  1  0  0  0  0  0  0  0  0  0
    9.4479  -14.7420   25.6742 C   0  0  0  0  0  0  0  0  0  0  0  0
    9.7353  -14.8860   27.1120 C   0  0  0  0  0  0  0  0  0  0  0  0
    9.9399  -16.1696   27.6183 C   0  0  0  0  0  0  0  0  0  0  0  0
   10.2124  -16.3633   28.9536 C   0  0  0  0  0  0  0  0  0  0  0  0
   10.2804  -15.2678   29.7859 C   0  0  0  0  0  0  0  0  0  0  0  0
   10.0817  -13.9915   29.3072 C   0  0  0  0  0  0  0  0  0  0  0  0
    9.8107  -13.8117   27.9735 C   0  0  0  0  0  0  0  0  0  0  0  0
    7.7410  -12.9660   26.1163 C   0  0  0  0  0  0  0  0  0  0  0  0
    6.9951  -13.0511   27.0992 O   0  0  0  0  0  0  0  0  0  0  0  0
    8.2343  -11.7379   25.7176 O   0  0  0  0  0  0  0  0  0  0  0  0
  2  1  1  6
  2  9  1  0
  2  3  1  0
  3  4  1  0
  4  5  2  0
  4  8  1  0
  5  6  1  0
  6  7  1  0
  8  7  2  0
  9 10  2  0
 12 11  1  6
 12 14  1  0
 13 12  1  0
 14 15  1  6
 15  9  1  0
 16 17  2  0
 16 14  1  0
 18 16  1  0
 19 18  1  0
 19 27  1  0
 19 20  1  6
 21 20  1  0
 21 26  1  0
 22 21  2  0
 23 22  1  0
 23 24  2  0
 24 25  1  0
 25 26  2  0
 27 28  2  0
 27 29  1  0
M  END
$$$$
