STW.pdb
     RDKit          3D

 28 29  0  0  1  0  0  0  0  0999 V2000
   10.4479  -12.7742   19.2744 O   0  0  0  0  0  0  0  0  0  0  0  0
   10.5421  -13.8017   18.3470 C   0  0  0  0  0  0  0  0  0  0  0  0
    9.1312  -14.2348   18.0010 C   0  0  2  0  0  0  0  0  0  0  0  0
    8.2792  -13.1008   17.7119 N   0  0  0  0  0  0  0  0  0  0  0  0
    8.5873  -14.9954   19.1655 C   0  0  0  0  0  0  0  0  0  0  0  0
    7.3484  -15.2359   19.1897 O   0  0  0  0  0  0  0  0  0  0  0  0
    7.6288  -17.1564   19.3840 C   0  0  0  0  0  0  0  0  0  0  0  0
    8.4073  -17.5916   20.6190 C   0  0  1  0  0  0  0  0  0  0  0  0
    9.5000  -18.3539   20.2252 O   0  0  0  0  0  0  0  0  0  0  0  0
    8.9114  -16.3067   21.2664 C   0  0  2  0  0  0  0  0  0  0  0  0
    9.3947  -15.4504   20.2257 N   0  0  0  0  0  0  0  0  0  0  0  0
    9.9408  -16.5910   22.2943 C   0  0  0  0  0  0  0  0  0  0  0  0
   11.1586  -16.3713   22.0640 O   0  0  0  0  0  0  0  0  0  0  0  0
    9.5854  -17.1172   23.5603 N   0  0  0  0  0  0  0  0  0  0  0  0
    9.8910  -16.4726   24.8341 C   0  0  1  0  0  0  0  0  0  0  0  0
    9.3950  -15.0614   24.7359 C   0  0  0  0  0  0  0  0  0  0  0  0
    8.0611  -14.7864   25.2516 C   0  0  0  0  0  0  0  0  0  0  0  0
    6.9729  -15.6602   25.3220 C   0  0  0  0  0  0  0  0  0  0  0  0
    5.9585  -14.9710   25.8296 N   0  0  0  0  0  0  0  0  0  0  0  0
    6.2990  -13.7135   26.0977 C   0  0  0  0  0  0  0  0  0  0  0  0
    5.5729  -12.6492   26.6448 C   0  0  0  0  0  0  0  0  0  0  0  0
    6.2238  -11.4450   26.8202 C   0  0  0  0  0  0  0  0  0  0  0  0
    7.5532  -11.2844   26.4696 C   0  0  0  0  0  0  0  0  0  0  0  0
    8.2577  -12.3356   25.9325 C   0  0  0  0  0  0  0  0  0  0  0  0
    7.6191  -13.5654   25.7445 C   0  0  0  0  0  0  0  0  0  0  0  0
    9.4091  -17.2523   25.9714 C   0  0  0  0  0  0  0  0  0  0  0  0
    8.4991  -18.1103   25.8929 O   0  0  0  0  0  0  0  0  0  0  0  0
    9.9625  -17.0662   27.2346 O   0  0  0  0  0  0  0  0  0  0  0  0
  2  3  1  0
  2  1  1  0
  3  4  1  1
  5  6  2  0
  5  3  1  0
  8  7  1  6
  8  9  1  0
  8 10  1  0
 10 11  1  6
 11  5  1  0
 12 13  2  0
 12 10  1  0
 14 12  1  0
 15 16  1  6
 15 14  1  0
 17 25  1  0
 17 16  1  0
 18 17  2  0
 19 18  1  0
 19 20  1  0
 20 21  1  0
 20 25  2  0
 21 22  2  0
 22 23  1  0
 24 23  2  0
 25 24  1  0
 26 15  1  0
 27 26  2  0
 28 26  1  0
M  END
$$$$
