STW.pdb
     RDKit          3D

 28 29  0  0  1  0  0  0  0  0999 V2000
   10.3769  -12.8383   19.6836 O   0  0  0  0  0  0  0  0  0  0  0  0
   10.0624  -13.6936   18.6376 C   0  0  0  0  0  0  0  0  0  0  0  0
    8.5535  -13.8347   18.6016 C   0  0  2  0  0  0  0  0  0  0  0  0
    7.8956  -12.5453   18.5940 N   0  0  0  0  0  0  0  0  0  0  0  0
    8.1374  -14.6106   19.8079 C   0  0  0  0  0  0  0  0  0  0  0  0
    7.4946  -14.0046   20.7096 O   0  0  0  0  0  0  0  0  0  0  0  0
    7.5405  -18.8876   22.0625 C   0  0  0  0  0  0  0  0  0  0  0  0
    8.0793  -18.1853   20.8228 C   0  0  1  0  0  0  0  0  0  0  0  0
    7.1907  -18.3695   19.7708 O   0  0  0  0  0  0  0  0  0  0  0  0
    8.1266  -16.7023   21.1729 C   0  0  2  0  0  0  0  0  0  0  0  0
    8.4305  -15.9776   19.9761 N   0  0  0  0  0  0  0  0  0  0  0  0
    9.0977  -16.4379   22.2612 C   0  0  0  0  0  0  0  0  0  0  0  0
   10.0444  -15.6250   22.0960 O   0  0  0  0  0  0  0  0  0  0  0  0
    8.9894  -17.0906   23.5134 N   0  0  0  0  0  0  0  0  0  0  0  0
    9.7442  -16.7142   24.7051 C   0  0  1  0  0  0  0  0  0  0  0  0
    9.4926  -15.2544   24.9345 C   0  0  0  0  0  0  0  0  0  0  0  0
    8.1968  -14.8797   25.4835 C   0  0  0  0  0  0  0  0  0  0  0  0
    7.0880  -15.7021   25.7002 C   0  0  0  0  0  0  0  0  0  0  0  0
    6.1231  -14.9280   26.1812 N   0  0  0  0  0  0  0  0  0  0  0  0
    6.5150  -13.6622   26.2968 C   0  0  0  0  0  0  0  0  0  0  0  0
    5.8512  -12.5214   26.7628 C   0  0  0  0  0  0  0  0  0  0  0  0
    6.5464  -11.3293   26.7765 C   0  0  0  0  0  0  0  0  0  0  0  0
    7.8595  -11.2535   26.3454 C   0  0  0  0  0  0  0  0  0  0  0  0
    8.5027  -12.3796   25.8890 C   0  0  0  0  0  0  0  0  0  0  0  0
    7.8184  -13.5988   25.8649 C   0  0  0  0  0  0  0  0  0  0  0  0
    9.4705  -17.6047   25.8300 C   0  0  0  0  0  0  0  0  0  0  0  0
    8.5281  -18.4304   25.8523 O   0  0  0  0  0  0  0  0  0  0  0  0
   10.2760  -17.5701   26.9643 O   0  0  0  0  0  0  0  0  0  0  0  0
  2  3  1  0
  2  1  1  0
  3  4  1  1
  5  6  2  0
  5  3  1  0
  8  7  1  1
  8  9  1  0
  8 10  1  0
 10 11  1  6
 11  5  1  0
 12 13  2  0
 12 10  1  0
 14 12  1  0
 15 16  1  1
 15 14  1  0
 17 25  1  0
 17 16  1  0
 18 17  2  0
 19 18  1  0
 19 20  1  0
 20 21  1  0
 20 25  2  0
 21 22  2  0
 22 23  1  0
 24 23  2  0
 25 24  1  0
 26 15  1  0
 27 26  2  0
 28 26  1  0
M  END
$$$$
