STW.pdb
     RDKit          3D

 28 29  0  0  1  0  0  0  0  0999 V2000
   10.3623  -12.1174   18.5735 O   0  0  0  0  0  0  0  0  0  0  0  0
    9.4545  -12.7319   19.4236 C   0  0  0  0  0  0  0  0  0  0  0  0
    8.7909  -13.8533   18.6489 C   0  0  2  0  0  0  0  0  0  0  0  0
    7.7444  -13.3573   17.7804 N   0  0  0  0  0  0  0  0  0  0  0  0
    8.2180  -14.8157   19.6368 C   0  0  0  0  0  0  0  0  0  0  0  0
    7.1084  -14.5306   20.1667 O   0  0  0  0  0  0  0  0  0  0  0  0
    7.7793  -18.4330   19.4943 C   0  0  0  0  0  0  0  0  0  0  0  0
    8.6021  -18.2645   20.7652 C   0  0  1  0  0  0  0  0  0  0  0  0
    9.9322  -18.5569   20.4905 O   0  0  0  0  0  0  0  0  0  0  0  0
    8.4896  -16.7912   21.1407 C   0  0  2  0  0  0  0  0  0  0  0  0
    8.8607  -16.0161   19.9955 N   0  0  0  0  0  0  0  0  0  0  0  0
    9.3123  -16.4763   22.3328 C   0  0  0  0  0  0  0  0  0  0  0  0
   10.2231  -15.6094   22.2759 O   0  0  0  0  0  0  0  0  0  0  0  0
    9.0990  -17.1400   23.5657 N   0  0  0  0  0  0  0  0  0  0  0  0
    9.7653  -16.7871   24.8159 C   0  0  1  0  0  0  0  0  0  0  0  0
    9.5200  -15.3255   25.0403 C   0  0  0  0  0  0  0  0  0  0  0  0
    8.1571  -14.9190   25.3540 C   0  0  0  0  0  0  0  0  0  0  0  0
    6.9948  -15.6914   25.2825 C   0  0  0  0  0  0  0  0  0  0  0  0
    5.9859  -14.9008   25.6268 N   0  0  0  0  0  0  0  0  0  0  0  0
    6.3981  -13.6704   25.9189 C   0  0  0  0  0  0  0  0  0  0  0  0
    5.7019  -12.5304   26.3371 C   0  0  0  0  0  0  0  0  0  0  0  0
    6.4284  -11.3831   26.5830 C   0  0  0  0  0  0  0  0  0  0  0  0
    7.8031  -11.3504   26.4244 C   0  0  0  0  0  0  0  0  0  0  0  0
    8.4779  -12.4752   26.0128 C   0  0  0  0  0  0  0  0  0  0  0  0
    7.7629  -13.6495   25.7566 C   0  0  0  0  0  0  0  0  0  0  0  0
    9.3914  -17.6832   25.9070 C   0  0  0  0  0  0  0  0  0  0  0  0
    8.4552  -18.5133   25.8377 O   0  0  0  0  0  0  0  0  0  0  0  0
   10.0864  -17.6493   27.1122 O   0  0  0  0  0  0  0  0  0  0  0  0
  2  3  1  0
  2  1  1  0
  3  4  1  6
  5  6  2  0
  5  3  1  0
  8  7  1  6
  8  9  1  0
  8 10  1  0
 10 11  1  6
 11  5  1  0
 12 13  2  0
 12 10  1  0
 14 12  1  0
 15 16  1  1
 15 14  1  0
 17 25  1  0
 17 16  1  0
 18 17  2  0
 19 18  1  0
 19 20  1  0
 20 21  1  0
 20 25  2  0
 21 22  2  0
 22 23  1  0
 24 23  2  0
 25 24  1  0
 26 15  1  0
 27 26  2  0
 28 26  1  0
M  END
$$$$
