STW.pdb
     RDKit          3D

 28 29  0  0  1  0  0  0  0  0999 V2000
   11.2059  -12.6351   18.1799 O   0  0  0  0  0  0  0  0  0  0  0  0
   10.3043  -13.0879   19.1320 C   0  0  0  0  0  0  0  0  0  0  0  0
    9.2804  -13.9483   18.4182 C   0  0  2  0  0  0  0  0  0  0  0  0
    8.3358  -13.1460   17.6702 N   0  0  0  0  0  0  0  0  0  0  0  0
    8.5596  -14.7527   19.4495 C   0  0  0  0  0  0  0  0  0  0  0  0
    7.5059  -14.2689   19.9484 O   0  0  0  0  0  0  0  0  0  0  0  0
    7.5837  -18.2810   19.5251 C   0  0  0  0  0  0  0  0  0  0  0  0
    8.4214  -18.1493   20.7906 C   0  0  1  0  0  0  0  0  0  0  0  0
    9.6961  -18.6462   20.5486 O   0  0  0  0  0  0  0  0  0  0  0  0
    8.5211  -16.6537   21.0691 C   0  0  2  0  0  0  0  0  0  0  0  0
    9.0049  -16.0168   19.8816 N   0  0  0  0  0  0  0  0  0  0  0  0
    9.3757  -16.3829   22.2495 C   0  0  0  0  0  0  0  0  0  0  0  0
   10.4895  -15.8108   22.1205 O   0  0  0  0  0  0  0  0  0  0  0  0
    8.9658  -16.7594   23.5519 N   0  0  0  0  0  0  0  0  0  0  0  0
    9.7385  -16.5026   24.7638 C   0  0  1  0  0  0  0  0  0  0  0  0
    9.4972  -15.0709   25.1366 C   0  0  0  0  0  0  0  0  0  0  0  0
    8.1495  -14.7089   25.5531 C   0  0  0  0  0  0  0  0  0  0  0  0
    7.0199  -15.5296   25.6068 C   0  0  0  0  0  0  0  0  0  0  0  0
    6.0103  -14.7687   26.0110 N   0  0  0  0  0  0  0  0  0  0  0  0
    6.3922  -13.5130   26.2268 C   0  0  0  0  0  0  0  0  0  0  0  0
    5.6851  -12.3878   26.6665 C   0  0  0  0  0  0  0  0  0  0  0  0
    6.3795  -11.2041   26.8120 C   0  0  0  0  0  0  0  0  0  0  0  0
    7.7331  -11.1216   26.5348 C   0  0  0  0  0  0  0  0  0  0  0  0
    8.4187  -12.2322   26.1030 C   0  0  0  0  0  0  0  0  0  0  0  0
    7.7362  -13.4427   25.9472 C   0  0  0  0  0  0  0  0  0  0  0  0
    9.4757  -17.4968   25.8011 C   0  0  0  0  0  0  0  0  0  0  0  0
    8.5569  -18.3463   25.7358 O   0  0  0  0  0  0  0  0  0  0  0  0
   10.2653  -17.5415   26.9461 O   0  0  0  0  0  0  0  0  0  0  0  0
  2  3  1  0
  2  1  1  0
  3  4  1  1
  5  6  2  0
  5  3  1  0
  8  7  1  6
  8  9  1  0
  8 10  1  0
 10 11  1  6
 11  5  1  0
 12 13  2  0
 12 10  1  0
 14 12  1  0
 15 16  1  1
 15 14  1  0
 17 25  1  0
 17 16  1  0
 18 17  2  0
 19 18  1  0
 19 20  1  0
 20 21  1  0
 20 25  2  0
 21 22  2  0
 22 23  1  0
 24 23  2  0
 25 24  1  0
 26 15  1  0
 27 26  2  0
 28 26  1  0
M  END
$$$$
