STW.pdb
     RDKit          3D

 28 29  0  0  1  0  0  0  0  0999 V2000
    8.8704  -12.0686   18.1432 O   0  0  0  0  0  0  0  0  0  0  0  0
    8.3851  -12.9581   19.0909 C   0  0  0  0  0  0  0  0  0  0  0  0
    8.6655  -14.3599   18.5867 C   0  0  2  0  0  0  0  0  0  0  0  0
    7.8641  -14.6808   17.4247 N   0  0  0  0  0  0  0  0  0  0  0  0
    8.3600  -15.3143   19.6941 C   0  0  0  0  0  0  0  0  0  0  0  0
    7.4507  -16.1692   19.5055 O   0  0  0  0  0  0  0  0  0  0  0  0
    8.0863  -17.7510   20.1651 C   0  0  0  0  0  0  0  0  0  0  0  0
    9.0596  -17.6534   21.3329 C   0  0  1  0  0  0  0  0  0  0  0  0
   10.3606  -17.7187   20.8502 O   0  0  0  0  0  0  0  0  0  0  0  0
    8.8320  -16.2778   21.9496 C   0  0  2  0  0  0  0  0  0  0  0  0
    9.0405  -15.2978   20.9268 N   0  0  0  0  0  0  0  0  0  0  0  0
    9.7058  -16.0662   23.1281 C   0  0  0  0  0  0  0  0  0  0  0  0
   10.8029  -15.4596   23.0156 O   0  0  0  0  0  0  0  0  0  0  0  0
    9.3333  -16.5395   24.4099 N   0  0  0  0  0  0  0  0  0  0  0  0
   10.0698  -16.2544   25.6379 C   0  0  1  0  0  0  0  0  0  0  0  0
    9.0506  -16.0636   26.7204 C   0  0  0  0  0  0  0  0  0  0  0  0
    7.8394  -15.3330   26.3739 C   0  0  0  0  0  0  0  0  0  0  0  0
    6.6419  -15.8489   25.8714 C   0  0  0  0  0  0  0  0  0  0  0  0
    5.8316  -14.8166   25.6729 N   0  0  0  0  0  0  0  0  0  0  0  0
    6.4061  -13.6645   26.0075 C   0  0  0  0  0  0  0  0  0  0  0  0
    5.9341  -12.3470   25.9810 C   0  0  0  0  0  0  0  0  0  0  0  0
    6.7804  -11.3483   26.4179 C   0  0  0  0  0  0  0  0  0  0  0  0
    8.0577  -11.6301   26.8706 C   0  0  0  0  0  0  0  0  0  0  0  0
    8.5123  -12.9273   26.8923 C   0  0  0  0  0  0  0  0  0  0  0  0
    7.6731  -13.9563   26.4535 C   0  0  0  0  0  0  0  0  0  0  0  0
   11.1110  -17.2463   25.8942 C   0  0  0  0  0  0  0  0  0  0  0  0
   11.9499  -17.1531   26.8204 O   0  0  0  0  0  0  0  0  0  0  0  0
   11.2164  -18.3767   25.0894 O   0  0  0  0  0  0  0  0  0  0  0  0
  2  3  1  0
  2  1  1  0
  3  4  1  6
  5  6  2  0
  5  3  1  0
  8  7  1  6
  8  9  1  0
  8 10  1  0
 10 11  1  6
 11  5  1  0
 12 13  2  0
 12 10  1  0
 14 12  1  0
 15 16  1  1
 15 14  1  0
 17 25  1  0
 17 16  1  0
 18 17  2  0
 19 18  1  0
 19 20  1  0
 20 21  1  0
 20 25  2  0
 21 22  2  0
 22 23  1  0
 24 23  2  0
 25 24  1  0
 26 15  1  0
 27 26  2  0
 28 26  1  0
M  END
$$$$
