STW.pdb
     RDKit          3D

 28 29  0  0  1  0  0  0  0  0999 V2000
    6.0297  -15.1918   20.7395 O   0  0  0  0  0  0  0  0  0  0  0  0
    7.1923  -14.4616   20.5401 C   0  0  0  0  0  0  0  0  0  0  0  0
    8.2149  -15.3925   19.9191 C   0  0  2  0  0  0  0  0  0  0  0  0
    7.6721  -16.0990   18.7782 N   0  0  0  0  0  0  0  0  0  0  0  0
    8.6406  -16.3688   20.9660 C   0  0  0  0  0  0  0  0  0  0  0  0
    7.9867  -17.4429   21.0755 O   0  0  0  0  0  0  0  0  0  0  0  0
   11.9301  -18.7395   23.2639 C   0  0  0  0  0  0  0  0  0  0  0  0
   11.4425  -17.7682   22.1964 C   0  0  1  0  0  0  0  0  0  0  0  0
   11.0839  -18.4814   21.0593 O   0  0  0  0  0  0  0  0  0  0  0  0
   10.1972  -17.1059   22.7749 C   0  0  2  0  0  0  0  0  0  0  0  0
    9.7320  -16.1400   21.8259 N   0  0  0  0  0  0  0  0  0  0  0  0
   10.4733  -16.5113   24.1043 C   0  0  0  0  0  0  0  0  0  0  0  0
   11.3006  -15.5710   24.2299 O   0  0  0  0  0  0  0  0  0  0  0  0
    9.8174  -16.9829   25.2677 N   0  0  0  0  0  0  0  0  0  0  0  0
   10.0667  -16.4772   26.6145 C   0  0  1  0  0  0  0  0  0  0  0  0
    8.7308  -16.3422   27.2810 C   0  0  0  0  0  0  0  0  0  0  0  0
    7.7029  -15.5962   26.5683 C   0  0  0  0  0  0  0  0  0  0  0  0
    6.6569  -16.1050   25.7939 C   0  0  0  0  0  0  0  0  0  0  0  0
    5.9922  -15.0619   25.3124 N   0  0  0  0  0  0  0  0  0  0  0  0
    6.5221  -13.9094   25.7125 C   0  0  0  0  0  0  0  0  0  0  0  0
    6.1530  -12.5813   25.4691 C   0  0  0  0  0  0  0  0  0  0  0  0
    6.9075  -11.5835   26.0520 C   0  0  0  0  0  0  0  0  0  0  0  0
    7.9968  -11.8763   26.8543 C   0  0  0  0  0  0  0  0  0  0  0  0
    8.3516  -13.1840   27.0870 C   0  0  0  0  0  0  0  0  0  0  0  0
    7.6026  -14.2123   26.5063 C   0  0  0  0  0  0  0  0  0  0  0  0
   11.0673  -17.2728   27.3211 C   0  0  0  0  0  0  0  0  0  0  0  0
   11.4012  -18.4325   26.9836 O   0  0  0  0  0  0  0  0  0  0  0  0
   11.7138  -16.7547   28.4392 O   0  0  0  0  0  0  0  0  0  0  0  0
  2  3  1  0
  2  1  1  0
  3  4  1  6
  5  6  2  0
  5  3  1  0
  8  7  1  1
  8  9  1  0
  8 10  1  0
 10 11  1  6
 11  5  1  0
 12 13  2  0
 12 10  1  0
 14 12  1  0
 15 16  1  1
 15 14  1  0
 17 25  1  0
 17 16  1  0
 18 17  2  0
 19 18  1  0
 19 20  1  0
 20 21  1  0
 20 25  2  0
 21 22  2  0
 22 23  1  0
 24 23  2  0
 25 24  1  0
 26 15  1  0
 27 26  2  0
 28 26  1  0
M  END
$$$$
