STW.pdb
     RDKit          3D

 28 29  0  0  1  0  0  0  0  0999 V2000
   11.4094  -13.1286   18.3880 O   0  0  0  0  0  0  0  0  0  0  0  0
   10.3330  -13.2203   19.2585 C   0  0  0  0  0  0  0  0  0  0  0  0
    9.3449  -14.2021   18.6604 C   0  0  2  0  0  0  0  0  0  0  0  0
    8.2921  -13.5254   17.9330 N   0  0  0  0  0  0  0  0  0  0  0  0
    8.7586  -14.9998   19.7785 C   0  0  0  0  0  0  0  0  0  0  0  0
    7.5296  -15.2826   19.7237 O   0  0  0  0  0  0  0  0  0  0  0  0
    7.8304  -17.3130   19.9750 C   0  0  0  0  0  0  0  0  0  0  0  0
    8.6881  -17.6666   21.1832 C   0  0  1  0  0  0  0  0  0  0  0  0
    9.8759  -18.2409   20.7479 O   0  0  0  0  0  0  0  0  0  0  0  0
    9.0044  -16.3428   21.8700 C   0  0  2  0  0  0  0  0  0  0  0  0
    9.5159  -15.4447   20.8791 N   0  0  0  0  0  0  0  0  0  0  0  0
    9.9413  -16.5354   23.0023 C   0  0  0  0  0  0  0  0  0  0  0  0
   11.1434  -16.1732   22.9122 O   0  0  0  0  0  0  0  0  0  0  0  0
    9.5130  -17.1312   24.2137 N   0  0  0  0  0  0  0  0  0  0  0  0
    9.9728  -16.7241   25.5382 C   0  0  1  0  0  0  0  0  0  0  0  0
    9.6119  -15.2779   25.6969 C   0  0  0  0  0  0  0  0  0  0  0  0
    8.2189  -14.9665   25.9857 C   0  0  0  0  0  0  0  0  0  0  0  0
    7.1238  -15.8341   25.9589 C   0  0  0  0  0  0  0  0  0  0  0  0
    6.0519  -15.1099   26.2561 N   0  0  0  0  0  0  0  0  0  0  0  0
    6.3610  -13.8351   26.4761 C   0  0  0  0  0  0  0  0  0  0  0  0
    5.5720  -12.7334   26.8267 C   0  0  0  0  0  0  0  0  0  0  0  0
    6.2013  -11.5183   27.0056 C   0  0  0  0  0  0  0  0  0  0  0  0
    7.5695  -11.3827   26.8459 C   0  0  0  0  0  0  0  0  0  0  0  0
    8.3359  -12.4706   26.5009 C   0  0  0  0  0  0  0  0  0  0  0  0
    7.7203  -13.7122   26.3134 C   0  0  0  0  0  0  0  0  0  0  0  0
    9.5014  -17.6293   26.5832 C   0  0  0  0  0  0  0  0  0  0  0  0
    8.6039  -18.4864   26.4102 O   0  0  0  0  0  0  0  0  0  0  0  0
   10.0514  -17.5734   27.8603 O   0  0  0  0  0  0  0  0  0  0  0  0
  2  3  1  0
  2  1  1  0
  3  4  1  1
  5  6  2  0
  5  3  1  0
  8  7  1  6
  8  9  1  0
  8 10  1  0
 10 11  1  6
 11  5  1  0
 12 13  2  0
 12 10  1  0
 14 12  1  0
 15 16  1  1
 15 14  1  0
 17 25  1  0
 17 16  1  0
 18 17  2  0
 19 18  1  0
 19 20  1  0
 20 21  1  0
 20 25  2  0
 21 22  2  0
 22 23  1  0
 24 23  2  0
 25 24  1  0
 26 15  1  0
 27 26  2  0
 28 26  1  0
M  END
$$$$
