STW.pdb
     RDKit          3D

 28 29  0  0  1  0  0  0  0  0999 V2000
   10.8101  -13.3686   18.8952 O   0  0  0  0  0  0  0  0  0  0  0  0
   10.2820  -14.2852   17.9976 C   0  0  0  0  0  0  0  0  0  0  0  0
    8.7727  -14.1526   18.0450 C   0  0  2  0  0  0  0  0  0  0  0  0
    8.3489  -12.7845   17.8345 N   0  0  0  0  0  0  0  0  0  0  0  0
    8.3134  -14.6266   19.3847 C   0  0  0  0  0  0  0  0  0  0  0  0
    8.0467  -13.7581   20.2611 O   0  0  0  0  0  0  0  0  0  0  0  0
    6.3308  -17.9468   19.7535 C   0  0  0  0  0  0  0  0  0  0  0  0
    7.3609  -17.9119   20.8751 C   0  0  1  0  0  0  0  0  0  0  0  0
    8.4652  -18.6694   20.5051 O   0  0  0  0  0  0  0  0  0  0  0  0
    7.7855  -16.4534   21.0041 C   0  0  2  0  0  0  0  0  0  0  0  0
    8.1671  -15.9901   19.7042 N   0  0  0  0  0  0  0  0  0  0  0  0
    8.8669  -16.2951   22.0054 C   0  0  0  0  0  0  0  0  0  0  0  0
   10.0466  -16.0449   21.6450 O   0  0  0  0  0  0  0  0  0  0  0  0
    8.6052  -16.4215   23.3916 N   0  0  0  0  0  0  0  0  0  0  0  0
    9.6167  -16.2839   24.4355 C   0  0  1  0  0  0  0  0  0  0  0  0
    9.3965  -14.9483   25.0792 C   0  0  0  0  0  0  0  0  0  0  0  0
    8.0652  -14.6713   25.6007 C   0  0  0  0  0  0  0  0  0  0  0  0
    7.0064  -15.5680   25.7667 C   0  0  0  0  0  0  0  0  0  0  0  0
    5.9813  -14.8697   26.2390 N   0  0  0  0  0  0  0  0  0  0  0  0
    6.2876  -13.5848   26.3957 C   0  0  0  0  0  0  0  0  0  0  0  0
    5.5396  -12.5010   26.8702 C   0  0  0  0  0  0  0  0  0  0  0  0
    6.1559  -11.2678   26.9319 C   0  0  0  0  0  0  0  0  0  0  0  0
    7.4723  -11.0973   26.5395 C   0  0  0  0  0  0  0  0  0  0  0  0
    8.1986  -12.1680   26.0744 C   0  0  0  0  0  0  0  0  0  0  0  0
    7.5951  -13.4274   26.0020 C   0  0  0  0  0  0  0  0  0  0  0  0
    9.6414  -17.4391   25.3290 C   0  0  0  0  0  0  0  0  0  0  0  0
    8.7570  -18.3268   25.3455 O   0  0  0  0  0  0  0  0  0  0  0  0
   10.6876  -17.6059   26.2313 O   0  0  0  0  0  0  0  0  0  0  0  0
  2  3  1  0
  2  1  1  0
  3  4  1  1
  5  6  2  0
  5  3  1  0
  8  7  1  6
  8  9  1  0
  8 10  1  0
 10 11  1  6
 11  5  1  0
 12 13  2  0
 12 10  1  0
 14 12  1  0
 15 16  1  1
 15 14  1  0
 17 25  1  0
 17 16  1  0
 18 17  2  0
 19 18  1  0
 19 20  1  0
 20 21  1  0
 20 25  2  0
 21 22  2  0
 22 23  1  0
 24 23  2  0
 25 24  1  0
 26 15  1  0
 27 26  2  0
 28 26  1  0
M  END
$$$$
