STW.pdb
     RDKit          3D

 28 29  0  0  1  0  0  0  0  0999 V2000
   11.9582  -18.9202   20.2634 O   0  0  0  0  0  0  0  0  0  0  0  0
   12.7603  -18.0620   19.5255 C   0  0  0  0  0  0  0  0  0  0  0  0
   11.8492  -17.0666   18.8348 C   0  0  2  0  0  0  0  0  0  0  0  0
   12.5871  -16.1910   17.9492 N   0  0  0  0  0  0  0  0  0  0  0  0
   11.1655  -16.2623   19.8913 C   0  0  0  0  0  0  0  0  0  0  0  0
   11.8292  -15.3575   20.4696 O   0  0  0  0  0  0  0  0  0  0  0  0
    7.0501  -15.2303   22.3399 C   0  0  0  0  0  0  0  0  0  0  0  0
    7.7331  -16.2074   21.3917 C   0  0  1  0  0  0  0  0  0  0  0  0
    7.2033  -16.0528   20.1167 O   0  0  0  0  0  0  0  0  0  0  0  0
    9.2028  -15.8031   21.3662 C   0  0  2  0  0  0  0  0  0  0  0  0
    9.8235  -16.4715   20.2626 N   0  0  0  0  0  0  0  0  0  0  0  0
    9.8647  -16.1017   22.6584 C   0  0  0  0  0  0  0  0  0  0  0  0
   11.0248  -15.6777   22.9008 O   0  0  0  0  0  0  0  0  0  0  0  0
    9.2138  -16.8707   23.6538 N   0  0  0  0  0  0  0  0  0  0  0  0
    9.5323  -16.8123   25.0775 C   0  0  1  0  0  0  0  0  0  0  0  0
    9.4223  -15.3748   25.4877 C   0  0  0  0  0  0  0  0  0  0  0  0
    8.0861  -14.8553   25.7440 C   0  0  0  0  0  0  0  0  0  0  0  0
    6.8694  -15.5359   25.6483 C   0  0  0  0  0  0  0  0  0  0  0  0
    5.9151  -14.6606   25.9392 N   0  0  0  0  0  0  0  0  0  0  0  0
    6.4133  -13.4593   26.2187 C   0  0  0  0  0  0  0  0  0  0  0  0
    5.7957  -12.2584   26.5869 C   0  0  0  0  0  0  0  0  0  0  0  0
    6.6020  -11.1658   26.8332 C   0  0  0  0  0  0  0  0  0  0  0  0
    7.9795  -11.2447   26.7227 C   0  0  0  0  0  0  0  0  0  0  0  0
    8.5767  -12.4287   26.3600 C   0  0  0  0  0  0  0  0  0  0  0  0
    7.7801  -13.5493   26.1045 C   0  0  0  0  0  0  0  0  0  0  0  0
    8.7489  -17.7706   25.8531 C   0  0  0  0  0  0  0  0  0  0  0  0
    8.9598  -18.0277   27.0613 O   0  0  0  0  0  0  0  0  0  0  0  0
    7.6977  -18.4619   25.2585 O   0  0  0  0  0  0  0  0  0  0  0  0
  2  3  1  0
  2  1  1  0
  3  4  1  6
  5  6  2  0
  5  3  1  0
  8  7  1  1
  8  9  1  0
  8 10  1  0
 10 11  1  6
 11  5  1  0
 12 13  2  0
 12 10  1  0
 14 12  1  0
 15 16  1  1
 15 14  1  0
 17 25  1  0
 17 16  1  0
 18 17  2  0
 19 18  1  0
 19 20  1  0
 20 21  1  0
 20 25  2  0
 21 22  2  0
 22 23  1  0
 24 23  2  0
 25 24  1  0
 26 15  1  0
 27 26  2  0
 28 26  1  0
M  END
$$$$
