STW.pdb
     RDKit          3D

 28 29  0  0  1  0  0  0  0  0999 V2000
   11.3153  -12.5429   18.6540 O   0  0  0  0  0  0  0  0  0  0  0  0
   11.0096  -13.8809   18.8565 C   0  0  0  0  0  0  0  0  0  0  0  0
    9.5942  -14.1054   18.3623 C   0  0  2  0  0  0  0  0  0  0  0  0
    8.9454  -12.8594   18.0133 N   0  0  0  0  0  0  0  0  0  0  0  0
    8.8323  -14.7879   19.4505 C   0  0  0  0  0  0  0  0  0  0  0  0
    7.9391  -14.1289   20.0516 O   0  0  0  0  0  0  0  0  0  0  0  0
    7.4653  -18.3113   19.6468 C   0  0  0  0  0  0  0  0  0  0  0  0
    8.4009  -18.1826   20.8420 C   0  0  1  0  0  0  0  0  0  0  0  0
    9.6269  -18.7550   20.5263 O   0  0  0  0  0  0  0  0  0  0  0  0
    8.5973  -16.6861   21.0567 C   0  0  2  0  0  0  0  0  0  0  0  0
    9.0689  -16.1239   19.8273 N   0  0  0  0  0  0  0  0  0  0  0  0
    9.5126  -16.4218   22.1922 C   0  0  0  0  0  0  0  0  0  0  0  0
   10.7013  -16.0602   21.9904 O   0  0  0  0  0  0  0  0  0  0  0  0
    9.0783  -16.5690   23.5322 N   0  0  0  0  0  0  0  0  0  0  0  0
    9.9058  -16.2847   24.7010 C   0  0  1  0  0  0  0  0  0  0  0  0
    9.5129  -14.9231   25.1895 C   0  0  0  0  0  0  0  0  0  0  0  0
    8.1062  -14.7057   25.4973 C   0  0  0  0  0  0  0  0  0  0  0  0
    7.0634  -15.6341   25.4402 C   0  0  0  0  0  0  0  0  0  0  0  0
    5.9533  -14.9865   25.7717 N   0  0  0  0  0  0  0  0  0  0  0  0
    6.1891  -13.7057   26.0422 C   0  0  0  0  0  0  0  0  0  0  0  0
    5.3397  -12.6672   26.4414 C   0  0  0  0  0  0  0  0  0  0  0  0
    5.8984  -11.4257   26.6669 C   0  0  0  0  0  0  0  0  0  0  0  0
    7.2552  -11.2039   26.5066 C   0  0  0  0  0  0  0  0  0  0  0  0
    8.0812  -12.2302   26.1138 C   0  0  0  0  0  0  0  0  0  0  0  0
    7.5378  -13.4971   25.8785 C   0  0  0  0  0  0  0  0  0  0  0  0
    9.8565  -17.3656   25.6821 C   0  0  0  0  0  0  0  0  0  0  0  0
   10.5236  -17.3752   26.7429 O   0  0  0  0  0  0  0  0  0  0  0  0
    9.0358  -18.4692   25.4696 O   0  0  0  0  0  0  0  0  0  0  0  0
  2  3  1  0
  2  1  1  0
  3  4  1  1
  5  6  2  0
  5  3  1  0
  8  7  1  6
  8  9  1  0
  8 10  1  0
 10 11  1  6
 11  5  1  0
 12 13  2  0
 12 10  1  0
 14 12  1  0
 15 16  1  1
 15 14  1  0
 17 25  1  0
 17 16  1  0
 18 17  2  0
 19 18  1  0
 19 20  1  0
 20 21  1  0
 20 25  2  0
 21 22  2  0
 22 23  1  0
 24 23  2  0
 25 24  1  0
 26 15  1  0
 27 26  2  0
 28 26  1  0
M  END
$$$$
