STW.pdb
     RDKit          3D

 28 29  0  0  1  0  0  0  0  0999 V2000
   10.1183  -11.8893   18.3733 O   0  0  0  0  0  0  0  0  0  0  0  0
    9.4221  -12.6654   19.2884 C   0  0  0  0  0  0  0  0  0  0  0  0
    8.9026  -13.8840   18.5514 C   0  0  2  0  0  0  0  0  0  0  0  0
    7.7848  -13.5538   17.6931 N   0  0  0  0  0  0  0  0  0  0  0  0
    8.4806  -14.8902   19.5712 C   0  0  0  0  0  0  0  0  0  0  0  0
    7.3478  -15.4307   19.4368 O   0  0  0  0  0  0  0  0  0  0  0  0
    7.8200  -17.2216   19.6363 C   0  0  0  0  0  0  0  0  0  0  0  0
    8.7471  -17.5807   20.7904 C   0  0  1  0  0  0  0  0  0  0  0  0
    9.9767  -17.9799   20.2816 O   0  0  0  0  0  0  0  0  0  0  0  0
    8.9381  -16.2941   21.5857 C   0  0  2  0  0  0  0  0  0  0  0  0
    9.2893  -15.2559   20.6644 N   0  0  0  0  0  0  0  0  0  0  0  0
    9.9465  -16.4697   22.6577 C   0  0  0  0  0  0  0  0  0  0  0  0
   11.1359  -16.0930   22.4909 O   0  0  0  0  0  0  0  0  0  0  0  0
    9.6026  -17.0654   23.8958 N   0  0  0  0  0  0  0  0  0  0  0  0
   10.0219  -16.5559   25.1982 C   0  0  1  0  0  0  0  0  0  0  0  0
    9.6023  -15.1180   25.2568 C   0  0  0  0  0  0  0  0  0  0  0  0
    8.2061  -14.8434   25.5668 C   0  0  0  0  0  0  0  0  0  0  0  0
    7.1117  -15.7001   25.4214 C   0  0  0  0  0  0  0  0  0  0  0  0
    6.0364  -15.0170   25.7939 N   0  0  0  0  0  0  0  0  0  0  0  0
    6.3426  -13.7793   26.1727 C   0  0  0  0  0  0  0  0  0  0  0  0
    5.5493  -12.7285   26.6479 C   0  0  0  0  0  0  0  0  0  0  0  0
    6.1761  -11.5453   26.9819 C   0  0  0  0  0  0  0  0  0  0  0  0
    7.5459  -11.3923   26.8551 C   0  0  0  0  0  0  0  0  0  0  0  0
    8.3164  -12.4301   26.3869 C   0  0  0  0  0  0  0  0  0  0  0  0
    7.7035  -13.6385   26.0412 C   0  0  0  0  0  0  0  0  0  0  0  0
    9.5668  -17.4101   26.2922 C   0  0  0  0  0  0  0  0  0  0  0  0
    8.6632  -18.2704   26.1753 O   0  0  0  0  0  0  0  0  0  0  0  0
   10.1404  -17.2980   27.5551 O   0  0  0  0  0  0  0  0  0  0  0  0
  2  3  1  0
  2  1  1  0
  3  4  1  1
  5  6  2  0
  5  3  1  0
  8  7  1  6
  8  9  1  0
  8 10  1  0
 10 11  1  6
 11  5  1  0
 12 13  2  0
 12 10  1  0
 14 12  1  0
 15 16  1  1
 15 14  1  0
 17 25  1  0
 17 16  1  0
 18 17  2  0
 19 18  1  0
 19 20  1  0
 20 21  1  0
 20 25  2  0
 21 22  2  0
 22 23  1  0
 24 23  2  0
 25 24  1  0
 26 15  1  0
 27 26  2  0
 28 26  1  0
M  END
$$$$
