VFL.pdb
     RDKit          3D

 27 27  0  0  1  0  0  0  0  0999 V2000
   20.5683  -13.2958  -16.6037 C   0  0  0  0  0  0  0  0  0  0  0  0
   21.2913  -13.9140  -17.7639 C   0  0  1  0  0  0  0  0  0  0  0  0
   21.0889  -15.3846  -17.9241 C   0  0  0  0  0  0  0  0  0  0  0  0
   21.1508  -13.1341  -19.0498 C   0  0  2  0  0  0  0  0  0  0  0  0
   22.1342  -13.7016  -19.9824 N   0  0  0  0  0  0  0  0  0  0  0  0
   21.3069  -11.6914  -18.9278 C   0  0  0  0  0  0  0  0  0  0  0  0
   22.4776  -11.2072  -18.9038 O   0  0  0  0  0  0  0  0  0  0  0  0
   20.2013  -10.8318  -18.8378 N   0  0  0  0  0  0  0  0  0  0  0  0
   20.3679   -9.3557  -18.7529 C   0  0  1  0  0  0  0  0  0  0  0  0
   19.3020   -8.8082  -19.6316 C   0  0  0  0  0  0  0  0  0  0  0  0
   19.1314   -7.3687  -19.6934 C   0  0  0  0  0  0  0  0  0  0  0  0
   20.0619   -6.5811  -20.3279 C   0  0  0  0  0  0  0  0  0  0  0  0
   19.9102   -5.1974  -20.3868 C   0  0  0  0  0  0  0  0  0  0  0  0
   18.8122   -4.5796  -19.8044 C   0  0  0  0  0  0  0  0  0  0  0  0
   17.8876   -5.3529  -19.1753 C   0  0  0  0  0  0  0  0  0  0  0  0
   18.0370   -6.7246  -19.1163 C   0  0  0  0  0  0  0  0  0  0  0  0
   20.2744   -9.0048  -17.3223 C   0  0  0  0  0  0  0  0  0  0  0  0
   19.7317   -9.8601  -16.5289 O   0  0  0  0  0  0  0  0  0  0  0  0
   23.5020  -10.7765  -14.4817 C   0  0  0  0  0  0  0  0  0  0  0  0
   22.2690   -9.9818  -14.7318 C   0  0  1  0  0  0  0  0  0  0  0  0
   21.2725  -10.1144  -13.5694 C   0  0  0  0  0  0  0  0  0  0  0  0
   22.4373   -8.5758  -15.1437 C   0  0  0  0  0  0  0  0  0  0  0  0
   21.1868   -7.7688  -15.3880 C   0  0  2  0  0  0  0  0  0  0  0  0
   20.7525   -7.7789  -16.7617 N   0  0  0  0  0  0  0  0  0  0  0  0
   21.2822   -6.4105  -14.8024 C   0  0  0  0  0  0  0  0  0  0  0  0
   21.3822   -5.3914  -15.5204 O   0  0  0  0  0  0  0  0  0  0  0  0
   21.2623   -6.2398  -13.4400 O   0  0  0  0  0  0  0  0  0  0  0  0
  2  3  1  6
  2  1  1  0
  4  5  1  6
  4  2  1  0
  6  4  1  0
  7  6  2  0
  8  6  1  0
  9  8  1  0
  9 10  1  6
 10 11  1  0
 11 16  2  0
 12 11  1  0
 12 13  2  0
 13 14  1  0
 14 15  2  0
 16 15  1  0
 17 18  2  0
 17  9  1  0
 20 19  1  1
 20 22  1  0
 20 21  1  0
 23 22  1  6
 23 24  1  0
 24 17  1  0
 25 23  1  0
 26 25  2  0
 27 25  1  0
M  END
$$$$
