VFL.pdb
     RDKit          3D

 27 27  0  0  1  0  0  0  0  0999 V2000
   28.6842  -22.6041  -17.2965 C   0  0  0  0  0  0  0  0  0  0  0  0
   27.9210  -21.9946  -16.1576 C   0  0  1  0  0  0  0  0  0  0  0  0
   28.7623  -21.3515  -15.1052 C   0  0  0  0  0  0  0  0  0  0  0  0
   26.7450  -21.1550  -16.5976 C   0  0  2  0  0  0  0  0  0  0  0  0
   27.2429  -20.2831  -17.6702 N   0  0  0  0  0  0  0  0  0  0  0  0
   26.0970  -20.3842  -15.5455 C   0  0  0  0  0  0  0  0  0  0  0  0
   26.4021  -19.1616  -15.4130 O   0  0  0  0  0  0  0  0  0  0  0  0
   25.1503  -20.9580  -14.6830 N   0  0  0  0  0  0  0  0  0  0  0  0
   24.5375  -20.1808  -13.5721 C   0  0  1  0  0  0  0  0  0  0  0  0
   23.0761  -20.4037  -13.7217 C   0  0  0  0  0  0  0  0  0  0  0  0
   22.1931  -19.9065  -12.6834 C   0  0  0  0  0  0  0  0  0  0  0  0
   21.7764  -20.7310  -11.6660 C   0  0  0  0  0  0  0  0  0  0  0  0
   20.9233  -20.2646  -10.6682 C   0  0  0  0  0  0  0  0  0  0  0  0
   20.4728  -18.9518  -10.6777 C   0  0  0  0  0  0  0  0  0  0  0  0
   20.8815  -18.1304  -11.6813 C   0  0  0  0  0  0  0  0  0  0  0  0
   21.7269  -18.5919  -12.6710 C   0  0  0  0  0  0  0  0  0  0  0  0
   25.1467  -20.6813  -12.3244 C   0  0  0  0  0  0  0  0  0  0  0  0
   25.2694  -21.9546  -12.1853 O   0  0  0  0  0  0  0  0  0  0  0  0
   28.3734  -21.1757   -7.9087 C   0  0  0  0  0  0  0  0  0  0  0  0
   27.3832  -20.0651   -7.8924 C   0  0  1  0  0  0  0  0  0  0  0  0
   27.8300  -18.9308   -6.9566 C   0  0  0  0  0  0  0  0  0  0  0  0
   26.9226  -19.5448   -9.1932 C   0  0  0  0  0  0  0  0  0  0  0  0
   26.0821  -20.4589  -10.0490 C   0  0  2  0  0  0  0  0  0  0  0  0
   25.6131  -19.8426  -11.2639 N   0  0  0  0  0  0  0  0  0  0  0  0
   25.0131  -21.1219   -9.2651 C   0  0  0  0  0  0  0  0  0  0  0  0
   23.8912  -20.5926   -9.1059 O   0  0  0  0  0  0  0  0  0  0  0  0
   25.2347  -22.3487   -8.6892 O   0  0  0  0  0  0  0  0  0  0  0  0
  2  3  1  6
  2  1  1  0
  4  5  1  6
  4  2  1  0
  6  4  1  0
  7  6  2  0
  8  6  1  0
  9  8  1  0
  9 10  1  1
 10 11  1  0
 11 16  2  0
 12 11  1  0
 12 13  2  0
 13 14  1  0
 14 15  2  0
 16 15  1  0
 17 18  2  0
 17  9  1  0
 20 19  1  6
 20 22  1  0
 20 21  1  0
 23 22  1  1
 23 24  1  0
 24 17  1  0
 25 23  1  0
 26 25  2  0
 27 25  1  0
M  END
$$$$
