VFL.pdb
     RDKit          3D

 27 27  0  0  1  0  0  0  0  0999 V2000
   28.4310  -18.4875  -15.8897 C   0  0  0  0  0  0  0  0  0  0  0  0
   27.3474  -19.2378  -15.1729 C   0  0  1  0  0  0  0  0  0  0  0  0
   26.3483  -19.9056  -16.0589 C   0  0  0  0  0  0  0  0  0  0  0  0
   27.8572  -20.1169  -14.0554 C   0  0  2  0  0  0  0  0  0  0  0  0
   28.6490  -21.1758  -14.6962 N   0  0  0  0  0  0  0  0  0  0  0  0
   26.8350  -20.6748  -13.1810 C   0  0  0  0  0  0  0  0  0  0  0  0
   26.4076  -21.8442  -13.4156 O   0  0  0  0  0  0  0  0  0  0  0  0
   26.3170  -19.9546  -12.0936 N   0  0  0  0  0  0  0  0  0  0  0  0
   25.3017  -20.5461  -11.1809 C   0  0  1  0  0  0  0  0  0  0  0  0
   25.3345  -19.6801   -9.9739 C   0  0  0  0  0  0  0  0  0  0  0  0
   26.2559  -20.0204   -8.9062 C   0  0  0  0  0  0  0  0  0  0  0  0
   26.7837  -21.2861   -8.8151 C   0  0  0  0  0  0  0  0  0  0  0  0
   27.6640  -21.6243   -7.7896 C   0  0  0  0  0  0  0  0  0  0  0  0
   28.0304  -20.6880   -6.8327 C   0  0  0  0  0  0  0  0  0  0  0  0
   27.5121  -19.4338   -6.9170 C   0  0  0  0  0  0  0  0  0  0  0  0
   26.6393  -19.0976   -7.9330 C   0  0  0  0  0  0  0  0  0  0  0  0
   24.0294  -20.5706  -11.9286 C   0  0  0  0  0  0  0  0  0  0  0  0
   23.7119  -19.5245  -12.6071 O   0  0  0  0  0  0  0  0  0  0  0  0
   20.4063  -22.1402  -15.5630 C   0  0  0  0  0  0  0  0  0  0  0  0
   20.3080  -22.8285  -14.2474 C   0  0  1  0  0  0  0  0  0  0  0  0
   19.6869  -24.2268  -14.3926 C   0  0  0  0  0  0  0  0  0  0  0  0
   21.5162  -22.8572  -13.4023 C   0  0  0  0  0  0  0  0  0  0  0  0
   21.9142  -21.5750  -12.7153 C   0  0  2  0  0  0  0  0  0  0  0  0
   23.1308  -21.6831  -11.9511 N   0  0  0  0  0  0  0  0  0  0  0  0
   20.7864  -20.9792  -11.9603 C   0  0  0  0  0  0  0  0  0  0  0  0
   20.4113  -21.4466  -10.8626 O   0  0  0  0  0  0  0  0  0  0  0  0
   20.1202  -19.8858  -12.4569 O   0  0  0  0  0  0  0  0  0  0  0  0
  2  3  1  6
  2  1  1  0
  4  5  1  6
  4  2  1  0
  6  4  1  0
  7  6  2  0
  8  6  1  0
  9  8  1  0
  9 10  1  1
 10 11  1  0
 11 16  2  0
 12 11  1  0
 12 13  2  0
 13 14  1  0
 14 15  2  0
 16 15  1  0
 17 18  2  0
 17  9  1  0
 20 19  1  6
 20 22  1  0
 20 21  1  0
 23 22  1  1
 23 24  1  0
 24 17  1  0
 25 23  1  0
 26 25  2  0
 27 25  1  0
M  END
$$$$
