VFL.pdb
     RDKit          3D

 27 27  0  0  1  0  0  0  0  0999 V2000
   27.4598  -22.3871  -19.6263 C   0  0  0  0  0  0  0  0  0  0  0  0
   26.6985  -22.6052  -18.3521 C   0  0  1  0  0  0  0  0  0  0  0  0
   25.5367  -23.5366  -18.4612 C   0  0  0  0  0  0  0  0  0  0  0  0
   27.5828  -22.8688  -17.1562 C   0  0  2  0  0  0  0  0  0  0  0  0
   28.3521  -24.0793  -17.4747 N   0  0  0  0  0  0  0  0  0  0  0  0
   26.8903  -23.0007  -15.8819 C   0  0  0  0  0  0  0  0  0  0  0  0
   26.4902  -24.1484  -15.5243 O   0  0  0  0  0  0  0  0  0  0  0  0
   26.6584  -21.8966  -15.0473 N   0  0  0  0  0  0  0  0  0  0  0  0
   25.8629  -22.0202  -13.7960 C   0  0  1  0  0  0  0  0  0  0  0  0
   26.4654  -21.0262  -12.8703 C   0  0  0  0  0  0  0  0  0  0  0  0
   25.8863  -20.8756  -11.5486 C   0  0  0  0  0  0  0  0  0  0  0  0
   24.7008  -20.2019  -11.3774 C   0  0  0  0  0  0  0  0  0  0  0  0
   24.1402  -20.0463  -10.1115 C   0  0  0  0  0  0  0  0  0  0  0  0
   24.7676  -20.5701   -8.9896 C   0  0  0  0  0  0  0  0  0  0  0  0
   25.9407  -21.2381   -9.1519 C   0  0  0  0  0  0  0  0  0  0  0  0
   26.4972  -21.3927  -10.4063 C   0  0  0  0  0  0  0  0  0  0  0  0
   24.4540  -21.7889  -14.1703 C   0  0  0  0  0  0  0  0  0  0  0  0
   24.2003  -20.8282  -14.9877 O   0  0  0  0  0  0  0  0  0  0  0  0
   20.0256  -21.7752  -16.6284 C   0  0  0  0  0  0  0  0  0  0  0  0
   20.0709  -22.8528  -15.6032 C   0  0  1  0  0  0  0  0  0  0  0  0
   19.3120  -24.1040  -16.0728 C   0  0  0  0  0  0  0  0  0  0  0  0
   21.3879  -23.1985  -15.0368 C   0  0  0  0  0  0  0  0  0  0  0  0
   22.0206  -22.2063  -14.0934 C   0  0  2  0  0  0  0  0  0  0  0  0
   23.3551  -22.5664  -13.6870 N   0  0  0  0  0  0  0  0  0  0  0  0
   21.1234  -21.8685  -12.9631 C   0  0  0  0  0  0  0  0  0  0  0  0
   21.0189  -22.6120  -11.9628 O   0  0  0  0  0  0  0  0  0  0  0  0
   20.3775  -20.7158  -12.9902 O   0  0  0  0  0  0  0  0  0  0  0  0
  2  3  1  6
  2  1  1  0
  4  5  1  6
  4  2  1  0
  6  4  1  0
  7  6  2  0
  8  6  1  0
  9  8  1  0
  9 10  1  1
 10 11  1  0
 11 16  2  0
 12 11  1  0
 12 13  2  0
 13 14  1  0
 14 15  2  0
 16 15  1  0
 17 18  2  0
 17  9  1  0
 20 19  1  6
 20 22  1  0
 20 21  1  0
 23 22  1  1
 23 24  1  0
 24 17  1  0
 25 23  1  0
 26 25  2  0
 27 25  1  0
M  END
$$$$
