VFL.pdb
     RDKit          3D

 27 27  0  0  1  0  0  0  0  0999 V2000
   18.3937  -21.0636  -17.5976 C   0  0  0  0  0  0  0  0  0  0  0  0
   19.0419  -21.8664  -16.5085 C   0  0  1  0  0  0  0  0  0  0  0  0
   19.0346  -23.3440  -16.7223 C   0  0  0  0  0  0  0  0  0  0  0  0
   20.3789  -21.3193  -16.0671 C   0  0  2  0  0  0  0  0  0  0  0  0
   20.8278  -22.1774  -14.9622 N   0  0  0  0  0  0  0  0  0  0  0  0
   20.3852  -19.9144  -15.6836 C   0  0  0  0  0  0  0  0  0  0  0  0
   19.2927  -19.2732  -15.7087 O   0  0  0  0  0  0  0  0  0  0  0  0
   21.5623  -19.2597  -15.2895 N   0  0  0  0  0  0  0  0  0  0  0  0
   21.5502  -17.8425  -14.8364 C   0  0  1  0  0  0  0  0  0  0  0  0
   21.9430  -17.9046  -13.4046 C   0  0  0  0  0  0  0  0  0  0  0  0
   20.9695  -18.3869  -12.4431 C   0  0  0  0  0  0  0  0  0  0  0  0
   21.2295  -19.5033  -11.6849 C   0  0  0  0  0  0  0  0  0  0  0  0
   20.2983  -19.9779  -10.7638 C   0  0  0  0  0  0  0  0  0  0  0  0
   19.0820  -19.3324  -10.5891 C   0  0  0  0  0  0  0  0  0  0  0  0
   18.8184  -18.2271  -11.3358 C   0  0  0  0  0  0  0  0  0  0  0  0
   19.7407  -17.7559  -12.2493 C   0  0  0  0  0  0  0  0  0  0  0  0
   22.4672  -17.1087  -15.7303 C   0  0  0  0  0  0  0  0  0  0  0  0
   22.7478  -15.8890  -15.4319 O   0  0  0  0  0  0  0  0  0  0  0  0
   27.3753  -16.5068  -15.9398 C   0  0  0  0  0  0  0  0  0  0  0  0
   26.7706  -17.8647  -16.0093 C   0  0  1  0  0  0  0  0  0  0  0  0
   27.4739  -18.8400  -15.0522 C   0  0  0  0  0  0  0  0  0  0  0  0
   25.3032  -17.9626  -15.9010 C   0  0  0  0  0  0  0  0  0  0  0  0
   24.4876  -17.5209  -17.0903 C   0  0  2  0  0  0  0  0  0  0  0  0
   23.0667  -17.6676  -16.9024 N   0  0  0  0  0  0  0  0  0  0  0  0
   24.9867  -18.1137  -18.3538 C   0  0  0  0  0  0  0  0  0  0  0  0
   25.2194  -19.3381  -18.4577 O   0  0  0  0  0  0  0  0  0  0  0  0
   25.2071  -17.3200  -19.4526 O   0  0  0  0  0  0  0  0  0  0  0  0
  2  3  1  6
  2  1  1  0
  4  5  1  1
  4  2  1  0
  6  4  1  0
  7  6  2  0
  8  6  1  0
  9  8  1  0
  9 10  1  1
 10 11  1  0
 11 16  2  0
 12 11  1  0
 12 13  2  0
 13 14  1  0
 14 15  2  0
 16 15  1  0
 17 18  2  0
 17  9  1  0
 20 19  1  1
 20 22  1  0
 20 21  1  0
 23 22  1  1
 23 24  1  0
 24 17  1  0
 25 23  1  0
 26 25  2  0
 27 25  1  0
M  END
$$$$
