VFL.pdb
     RDKit          3D

 27 27  0  0  1  0  0  0  0  0999 V2000
   28.1894  -20.2064  -17.3211 C   0  0  0  0  0  0  0  0  0  0  0  0
   27.9060  -20.4236  -15.8639 C   0  0  1  0  0  0  0  0  0  0  0  0
   28.1221  -19.2303  -14.9930 C   0  0  0  0  0  0  0  0  0  0  0  0
   26.6047  -21.1442  -15.6012 C   0  0  2  0  0  0  0  0  0  0  0  0
   25.5582  -20.3543  -16.2642 N   0  0  0  0  0  0  0  0  0  0  0  0
   26.2874  -21.3731  -14.1984 C   0  0  0  0  0  0  0  0  0  0  0  0
   26.8801  -22.3114  -13.5872 O   0  0  0  0  0  0  0  0  0  0  0  0
   25.3496  -20.5855  -13.5132 N   0  0  0  0  0  0  0  0  0  0  0  0
   25.0627  -20.7971  -12.0686 C   0  0  1  0  0  0  0  0  0  0  0  0
   25.8825  -19.7728  -11.3709 C   0  0  0  0  0  0  0  0  0  0  0  0
   25.9958  -19.8475   -9.9264 C   0  0  0  0  0  0  0  0  0  0  0  0
   25.0856  -19.2076   -9.1198 C   0  0  0  0  0  0  0  0  0  0  0  0
   25.1898  -19.2679   -7.7318 C   0  0  0  0  0  0  0  0  0  0  0  0
   26.2185  -19.9783   -7.1288 C   0  0  0  0  0  0  0  0  0  0  0  0
   27.1225  -20.6140   -7.9209 C   0  0  0  0  0  0  0  0  0  0  0  0
   27.0201  -20.5547   -9.2969 C   0  0  0  0  0  0  0  0  0  0  0  0
   23.6003  -20.6774  -11.9096 C   0  0  0  0  0  0  0  0  0  0  0  0
   22.9413  -20.0885  -12.8447 O   0  0  0  0  0  0  0  0  0  0  0  0
   19.6938  -24.0952   -9.3035 C   0  0  0  0  0  0  0  0  0  0  0  0
   20.3522  -23.1631  -10.2585 C   0  0  1  0  0  0  0  0  0  0  0  0
   19.5761  -23.0778  -11.5822 C   0  0  0  0  0  0  0  0  0  0  0  0
   20.7208  -21.8253   -9.7592 C   0  0  0  0  0  0  0  0  0  0  0  0
   21.4564  -20.9090  -10.7047 C   0  0  2  0  0  0  0  0  0  0  0  0
   22.8694  -21.1779  -10.7867 N   0  0  0  0  0  0  0  0  0  0  0  0
   21.1337  -19.4839  -10.4565 C   0  0  0  0  0  0  0  0  0  0  0  0
   21.9820  -18.6892   -9.9951 O   0  0  0  0  0  0  0  0  0  0  0  0
   19.8788  -18.9988  -10.7321 O   0  0  0  0  0  0  0  0  0  0  0  0
  2  3  1  1
  2  1  1  0
  4  5  1  1
  4  2  1  0
  6  4  1  0
  7  6  2  0
  8  6  1  0
  9  8  1  0
  9 10  1  1
 10 11  1  0
 11 16  2  0
 12 11  1  0
 12 13  2  0
 13 14  1  0
 14 15  2  0
 16 15  1  0
 17 18  2  0
 17  9  1  0
 20 19  1  1
 20 22  1  0
 20 21  1  0
 23 22  1  1
 23 24  1  0
 24 17  1  0
 25 23  1  0
 26 25  2  0
 27 25  1  0
M  END
$$$$
