VFL.pdb
     RDKit          3D

 27 27  0  0  1  0  0  0  0  0999 V2000
   25.7836  -20.8069  -16.8898 C   0  0  0  0  0  0  0  0  0  0  0  0
   26.2266  -21.1691  -15.5029 C   0  0  1  0  0  0  0  0  0  0  0  0
   27.5669  -20.6419  -15.1094 C   0  0  0  0  0  0  0  0  0  0  0  0
   25.1585  -20.9670  -14.4541 C   0  0  2  0  0  0  0  0  0  0  0  0
   24.7347  -19.5647  -14.5662 N   0  0  0  0  0  0  0  0  0  0  0  0
   25.5496  -21.2953  -13.0903 C   0  0  0  0  0  0  0  0  0  0  0  0
   25.9932  -22.4573  -12.8488 O   0  0  0  0  0  0  0  0  0  0  0  0
   25.4485  -20.3630  -12.0462 N   0  0  0  0  0  0  0  0  0  0  0  0
   25.7909  -20.7245  -10.6441 C   0  0  1  0  0  0  0  0  0  0  0  0
   26.7800  -19.6982  -10.2244 C   0  0  0  0  0  0  0  0  0  0  0  0
   27.2938  -19.7497   -8.8686 C   0  0  0  0  0  0  0  0  0  0  0  0
   28.2359  -20.6850   -8.5130 C   0  0  0  0  0  0  0  0  0  0  0  0
   28.7304  -20.7466   -7.2120 C   0  0  0  0  0  0  0  0  0  0  0  0
   28.2821  -19.8619   -6.2410 C   0  0  0  0  0  0  0  0  0  0  0  0
   27.3503  -18.9338   -6.5861 C   0  0  0  0  0  0  0  0  0  0  0  0
   26.8594  -18.8719   -7.8754 C   0  0  0  0  0  0  0  0  0  0  0  0
   24.5197  -20.7465   -9.8944 C   0  0  0  0  0  0  0  0  0  0  0  0
   23.6580  -19.8251  -10.1471 O   0  0  0  0  0  0  0  0  0  0  0  0
   20.0428  -22.6393   -7.6375 C   0  0  0  0  0  0  0  0  0  0  0  0
   21.2333  -22.8493   -6.7697 C   0  0  1  0  0  0  0  0  0  0  0  0
   21.0589  -24.0827   -5.8696 C   0  0  0  0  0  0  0  0  0  0  0  0
   22.5585  -22.8333   -7.4165 C   0  0  0  0  0  0  0  0  0  0  0  0
   22.9287  -21.6065   -8.2119 C   0  0  2  0  0  0  0  0  0  0  0  0
   24.1830  -21.7282   -8.9102 N   0  0  0  0  0  0  0  0  0  0  0  0
   22.8127  -20.3687   -7.4049 C   0  0  0  0  0  0  0  0  0  0  0  0
   21.8204  -19.6134   -7.5001 O   0  0  0  0  0  0  0  0  0  0  0  0
   23.8060  -20.0201   -6.5230 O   0  0  0  0  0  0  0  0  0  0  0  0
  2  3  1  1
  2  1  1  0
  4  5  1  1
  4  2  1  0
  6  4  1  0
  7  6  2  0
  8  6  1  0
  9  8  1  0
  9 10  1  1
 10 11  1  0
 11 16  2  0
 12 11  1  0
 12 13  2  0
 13 14  1  0
 14 15  2  0
 16 15  1  0
 17 18  2  0
 17  9  1  0
 20 19  1  6
 20 22  1  0
 20 21  1  0
 23 22  1  1
 23 24  1  0
 24 17  1  0
 25 23  1  0
 26 25  2  0
 27 25  1  0
M  END
$$$$
