CYY.pdb
     RDKit          3D

 31 32  0  0  1  0  0  0  0  0999 V2000
   10.9500  -16.6885   18.2926 N   0  0  0  0  0  0  0  0  0  0  0  0
    9.8450  -17.1140   19.1316 C   0  0  1  0  0  0  0  0  0  0  0  0
   10.0060  -18.5986   19.3579 C   0  0  0  0  0  0  0  0  0  0  0  0
    9.9333  -19.5365   17.8138 S   0  0  0  0  0  0  0  0  0  0  0  0
    9.8016  -16.3584   20.4073 C   0  0  0  0  0  0  0  0  0  0  0  0
   10.8822  -16.0175   20.9289 O   0  0  0  0  0  0  0  0  0  0  0  0
    6.5532  -11.7260   27.3313 O   0  0  0  0  0  0  0  0  0  0  0  0
    6.6909  -12.4323   26.1182 C   0  0  0  0  0  0  0  0  0  0  0  0
    6.2456  -13.7307   26.0036 C   0  0  0  0  0  0  0  0  0  0  0  0
    6.3824  -14.4143   24.8193 C   0  0  0  0  0  0  0  0  0  0  0  0
    6.9720  -13.8437   23.6776 C   0  0  0  0  0  0  0  0  0  0  0  0
    7.0698  -14.6463   22.4324 C   0  0  0  0  0  0  0  0  0  0  0  0
    8.4514  -15.2470   22.2249 C   0  0  2  0  0  0  0  0  0  0  0  0
    8.5861  -16.0243   21.0299 N   0  0  0  0  0  0  0  0  0  0  0  0
    8.9646  -15.8981   23.4387 C   0  0  0  0  0  0  0  0  0  0  0  0
    8.7255  -17.1167   23.6151 O   0  0  0  0  0  0  0  0  0  0  0  0
    7.4038  -12.5518   23.8245 C   0  0  0  0  0  0  0  0  0  0  0  0
    7.2696  -11.8520   25.0198 C   0  0  0  0  0  0  0  0  0  0  0  0
   11.9815  -17.2128   31.5974 O   0  0  0  0  0  0  0  0  0  0  0  0
   11.6432  -16.6049   30.3928 C   0  0  0  0  0  0  0  0  0  0  0  0
   12.1102  -17.1073   29.1981 C   0  0  0  0  0  0  0  0  0  0  0  0
   11.7879  -16.5217   27.9930 C   0  0  0  0  0  0  0  0  0  0  0  0
   10.9697  -15.3876   27.9300 C   0  0  0  0  0  0  0  0  0  0  0  0
   10.6642  -14.7824   26.6170 C   0  0  0  0  0  0  0  0  0  0  0  0
   10.1383  -15.8146   25.6636 C   0  0  2  0  0  0  0  0  0  0  0  0
    9.7129  -15.2079   24.4083 N   0  0  0  0  0  0  0  0  0  0  0  0
    9.0493  -16.6299   26.1991 C   0  0  0  0  0  0  0  0  0  0  0  0
    7.7634  -16.1587   26.3785 O   0  0  0  0  0  0  0  0  0  0  0  0
   10.5116  -14.8982   29.1338 C   0  0  0  0  0  0  0  0  0  0  0  0
   10.8361  -15.4880   30.3459 C   0  0  0  0  0  0  0  0  0  0  0  0
    9.2662  -17.8362   26.5264 O   0  0  0  0  0  0  0  0  0  0  0  0
  2  3  1  0
  2  1  1  6
  4  3  1  0
  5  2  1  0
  6  5  2  0
  8  9  2  0
  8  7  1  0
 10  9  1  0
 11 10  2  0
 13 12  1  1
 12 11  1  0
 13 14  1  0
 14  5  1  0
 15 26  1  0
 15 13  1  0
 16 15  2  0
 17 11  1  0
 17 18  2  0
 18  8  1  0
 20 19  1  0
 21 20  2  0
 22 21  1  0
 23 29  1  0
 23 22  2  0
 24 23  1  0
 25 24  1  1
 25 26  1  0
 27 28  1  0
 27 25  1  0
 29 30  2  0
 30 20  1  0
 31 27  2  0
M  END
$$$$
