CYY.pdb
     RDKit          3D

 31 32  0  0  1  0  0  0  0  0999 V2000
    9.4286  -17.5611   19.1455 N   0  0  0  0  0  0  0  0  0  0  0  0
    8.2568  -17.4922   19.9989 C   0  0  1  0  0  0  0  0  0  0  0  0
    7.8280  -18.9131   20.2790 C   0  0  0  0  0  0  0  0  0  0  0  0
    7.0113  -19.6730   18.8562 S   0  0  0  0  0  0  0  0  0  0  0  0
    8.5296  -16.7373   21.2462 C   0  0  0  0  0  0  0  0  0  0  0  0
    9.6191  -16.9251   21.8240 O   0  0  0  0  0  0  0  0  0  0  0  0
    7.2469  -11.7055   28.4645 O   0  0  0  0  0  0  0  0  0  0  0  0
    7.0854  -12.3032   27.1971 C   0  0  0  0  0  0  0  0  0  0  0  0
    7.9401  -12.0002   26.1604 C   0  0  0  0  0  0  0  0  0  0  0  0
    7.7781  -12.5852   24.9276 C   0  0  0  0  0  0  0  0  0  0  0  0
    6.7533  -13.5082   24.6545 C   0  0  0  0  0  0  0  0  0  0  0  0
    6.6554  -14.1050   23.2985 C   0  0  0  0  0  0  0  0  0  0  0  0
    7.7299  -15.1483   23.0344 C   0  0  2  0  0  0  0  0  0  0  0  0
    7.5993  -15.8291   21.7814 N   0  0  0  0  0  0  0  0  0  0  0  0
    7.9465  -16.0308   24.1898 C   0  0  0  0  0  0  0  0  0  0  0  0
    7.0788  -16.8961   24.4574 O   0  0  0  0  0  0  0  0  0  0  0  0
    5.9211  -13.7882   25.7062 C   0  0  0  0  0  0  0  0  0  0  0  0
    6.0775  -13.2004   26.9579 C   0  0  0  0  0  0  0  0  0  0  0  0
    5.6052  -21.4140   28.3698 O   0  0  0  0  0  0  0  0  0  0  0  0
    6.5299  -20.6827   27.6314 C   0  0  0  0  0  0  0  0  0  0  0  0
    6.8647  -19.3986   28.0011 C   0  0  0  0  0  0  0  0  0  0  0  0
    7.7780  -18.6557   27.2849 C   0  0  0  0  0  0  0  0  0  0  0  0
    8.4073  -19.1748   26.1473 C   0  0  0  0  0  0  0  0  0  0  0  0
    9.3673  -18.3362   25.3999 C   0  0  0  0  0  0  0  0  0  0  0  0
    9.4427  -16.9583   25.9887 C   0  0  2  0  0  0  0  0  0  0  0  0
    9.0882  -15.9423   25.0054 N   0  0  0  0  0  0  0  0  0  0  0  0
   10.7377  -16.6261   26.5804 C   0  0  0  0  0  0  0  0  0  0  0  0
   11.2171  -17.2082   27.7377 O   0  0  0  0  0  0  0  0  0  0  0  0
    8.0610  -20.4602   25.7917 C   0  0  0  0  0  0  0  0  0  0  0  0
    7.1420  -21.2070   26.5127 C   0  0  0  0  0  0  0  0  0  0  0  0
   11.4815  -15.7609   26.0260 O   0  0  0  0  0  0  0  0  0  0  0  0
  2  3  1  0
  2  1  1  6
  4  3  1  0
  5  2  1  0
  6  5  2  0
  8  9  2  0
  8  7  1  0
 10  9  1  0
 11 10  2  0
 13 12  1  1
 12 11  1  0
 13 14  1  0
 14  5  1  0
 15 26  1  0
 15 13  1  0
 16 15  2  0
 17 11  1  0
 17 18  2  0
 18  8  1  0
 20 19  1  0
 21 20  2  0
 22 21  1  0
 23 29  1  0
 23 22  2  0
 24 23  1  0
 25 24  1  6
 25 26  1  0
 27 28  1  0
 27 25  1  0
 29 30  2  0
 30 20  1  0
 31 27  2  0
M  END
$$$$
