CYY.pdb
     RDKit          3D

 31 32  0  0  1  0  0  0  0  0999 V2000
    8.2791  -19.5085   20.1293 N   0  0  0  0  0  0  0  0  0  0  0  0
    7.6359  -18.7675   21.1985 C   0  0  1  0  0  0  0  0  0  0  0  0
    7.2084  -19.7737   22.2407 C   0  0  0  0  0  0  0  0  0  0  0  0
    6.2853  -19.0061   23.5926 S   0  0  0  0  0  0  0  0  0  0  0  0
    8.5319  -17.7287   21.7628 C   0  0  0  0  0  0  0  0  0  0  0  0
    9.7614  -17.9390   21.7503 O   0  0  0  0  0  0  0  0  0  0  0  0
    7.4837  -13.1398   16.8313 O   0  0  0  0  0  0  0  0  0  0  0  0
    7.6496  -13.3748   18.2122 C   0  0  0  0  0  0  0  0  0  0  0  0
    8.8519  -13.1155   18.8322 C   0  0  0  0  0  0  0  0  0  0  0  0
    9.0082  -13.3465   20.1778 C   0  0  0  0  0  0  0  0  0  0  0  0
    7.9741  -13.8502   20.9863 C   0  0  0  0  0  0  0  0  0  0  0  0
    8.2211  -14.0592   22.4354 C   0  0  0  0  0  0  0  0  0  0  0  0
    8.8232  -15.4220   22.7405 C   0  0  2  0  0  0  0  0  0  0  0  0
    8.0306  -16.5313   22.3027 N   0  0  0  0  0  0  0  0  0  0  0  0
    9.3026  -15.5224   24.1264 C   0  0  0  0  0  0  0  0  0  0  0  0
   10.2277  -14.7622   24.4999 O   0  0  0  0  0  0  0  0  0  0  0  0
    6.7918  -14.0970   20.3396 C   0  0  0  0  0  0  0  0  0  0  0  0
    6.6246  -13.8663   18.9775 C   0  0  0  0  0  0  0  0  0  0  0  0
    6.4471  -10.7011   26.4898 O   0  0  0  0  0  0  0  0  0  0  0  0
    6.7977  -12.0322   26.6914 C   0  0  0  0  0  0  0  0  0  0  0  0
    8.0091  -12.3601   27.2594 C   0  0  0  0  0  0  0  0  0  0  0  0
    8.3773  -13.6715   27.4686 C   0  0  0  0  0  0  0  0  0  0  0  0
    7.5341  -14.7306   27.1122 C   0  0  0  0  0  0  0  0  0  0  0  0
    7.9772  -16.1219   27.3390 C   0  0  0  0  0  0  0  0  0  0  0  0
    9.1419  -16.4611   26.4561 C   0  0  2  0  0  0  0  0  0  0  0  0
    8.7639  -16.4367   25.0485 N   0  0  0  0  0  0  0  0  0  0  0  0
    9.7775  -17.7415   26.7630 C   0  0  0  0  0  0  0  0  0  0  0  0
   10.2745  -18.0645   28.0105 O   0  0  0  0  0  0  0  0  0  0  0  0
    6.3267  -14.3849   26.5454 C   0  0  0  0  0  0  0  0  0  0  0  0
    5.9569  -13.0653   26.3352 C   0  0  0  0  0  0  0  0  0  0  0  0
    9.8945  -18.6212   25.8565 O   0  0  0  0  0  0  0  0  0  0  0  0
  2  3  1  0
  2  1  1  6
  4  3  1  0
  5  2  1  0
  6  5  2  0
  8  9  2  0
  8  7  1  0
 10  9  1  0
 11 10  2  0
 13 12  1  1
 12 11  1  0
 13 14  1  0
 14  5  1  0
 15 26  1  0
 15 13  1  0
 16 15  2  0
 17 11  1  0
 17 18  2  0
 18  8  1  0
 20 19  1  0
 21 20  2  0
 22 21  1  0
 23 29  1  0
 23 22  2  0
 24 23  1  0
 25 24  1  1
 25 26  1  0
 27 28  1  0
 27 25  1  0
 29 30  2  0
 30 20  1  0
 31 27  2  0
M  END
$$$$
