CYY.pdb
     RDKit          3D

 31 32  0  0  1  0  0  0  0  0999 V2000
    9.9120  -17.1792   17.6120 N   0  0  0  0  0  0  0  0  0  0  0  0
    9.1092  -17.6128   18.7404 C   0  0  1  0  0  0  0  0  0  0  0  0
    9.5557  -19.0125   19.0906 C   0  0  0  0  0  0  0  0  0  0  0  0
    8.7307  -19.6420   20.5712 S   0  0  0  0  0  0  0  0  0  0  0  0
    9.2332  -16.6851   19.8912 C   0  0  0  0  0  0  0  0  0  0  0  0
   10.3591  -16.2168   20.1537 O   0  0  0  0  0  0  0  0  0  0  0  0
    7.2133  -11.5442   26.8605 O   0  0  0  0  0  0  0  0  0  0  0  0
    7.1081  -12.3939   25.7396 C   0  0  0  0  0  0  0  0  0  0  0  0
    7.3226  -11.9125   24.4671 C   0  0  0  0  0  0  0  0  0  0  0  0
    7.2186  -12.7446   23.3784 C   0  0  0  0  0  0  0  0  0  0  0  0
    6.8942  -14.1077   23.4937 C   0  0  0  0  0  0  0  0  0  0  0  0
    6.8146  -14.9417   22.2679 C   0  0  0  0  0  0  0  0  0  0  0  0
    8.1658  -15.4943   21.8417 C   0  0  2  0  0  0  0  0  0  0  0  0
    8.1245  -16.3291   20.6791 N   0  0  0  0  0  0  0  0  0  0  0  0
    8.9201  -16.0562   22.9712 C   0  0  0  0  0  0  0  0  0  0  0  0
    8.4792  -17.0852   23.5371 O   0  0  0  0  0  0  0  0  0  0  0  0
    6.6874  -14.5550   24.7721 C   0  0  0  0  0  0  0  0  0  0  0  0
    6.7904  -13.7196   25.8802 C   0  0  0  0  0  0  0  0  0  0  0  0
   11.2614  -16.1427   31.1615 O   0  0  0  0  0  0  0  0  0  0  0  0
   10.8322  -15.9846   29.8478 C   0  0  0  0  0  0  0  0  0  0  0  0
   10.6376  -14.7271   29.3200 C   0  0  0  0  0  0  0  0  0  0  0  0
   10.2130  -14.5466   28.0215 C   0  0  0  0  0  0  0  0  0  0  0  0
    9.9601  -15.6361   27.1797 C   0  0  0  0  0  0  0  0  0  0  0  0
    9.4894  -15.3959   25.7997 C   0  0  0  0  0  0  0  0  0  0  0  0
   10.5890  -15.6466   24.8102 C   0  0  2  0  0  0  0  0  0  0  0  0
   10.1158  -15.4853   23.4409 N   0  0  0  0  0  0  0  0  0  0  0  0
   11.2365  -16.9502   24.9466 C   0  0  0  0  0  0  0  0  0  0  0  0
   12.2322  -17.2125   25.8673 O   0  0  0  0  0  0  0  0  0  0  0  0
   10.1595  -16.8863   27.7234 C   0  0  0  0  0  0  0  0  0  0  0  0
   10.5868  -17.0672   29.0300 C   0  0  0  0  0  0  0  0  0  0  0  0
   10.8883  -17.9097   24.1934 O   0  0  0  0  0  0  0  0  0  0  0  0
  2  3  1  0
  2  1  1  6
  4  3  1  0
  5  2  1  0
  6  5  2  0
  8  9  2  0
  8  7  1  0
 10  9  1  0
 11 10  2  0
 13 12  1  1
 12 11  1  0
 13 14  1  0
 14  5  1  0
 15 26  1  0
 15 13  1  0
 16 15  2  0
 17 11  1  0
 17 18  2  0
 18  8  1  0
 20 19  1  0
 21 20  2  0
 22 21  1  0
 23 29  1  0
 23 22  2  0
 24 23  1  0
 25 24  1  1
 25 26  1  0
 27 28  1  0
 27 25  1  0
 29 30  2  0
 30 20  1  0
 31 27  2  0
M  END
$$$$
