CYY.pdb
     RDKit          3D

 31 32  0  0  1  0  0  0  0  0999 V2000
    9.9548  -19.0853   18.7330 N   0  0  0  0  0  0  0  0  0  0  0  0
    8.9565  -18.6738   19.7025 C   0  0  1  0  0  0  0  0  0  0  0  0
    8.7353  -19.8418   20.6343 C   0  0  0  0  0  0  0  0  0  0  0  0
   10.1593  -20.1376   21.7084 S   0  0  0  0  0  0  0  0  0  0  0  0
    9.3712  -17.4508   20.4323 C   0  0  0  0  0  0  0  0  0  0  0  0
   10.5806  -17.1453   20.4335 O   0  0  0  0  0  0  0  0  0  0  0  0
    7.2354  -12.8435   16.1334 O   0  0  0  0  0  0  0  0  0  0  0  0
    7.3746  -13.1903   17.4935 C   0  0  0  0  0  0  0  0  0  0  0  0
    6.6959  -14.2672   18.0196 C   0  0  0  0  0  0  0  0  0  0  0  0
    6.8350  -14.6006   19.3455 C   0  0  0  0  0  0  0  0  0  0  0  0
    7.6596  -13.8795   20.2267 C   0  0  0  0  0  0  0  0  0  0  0  0
    7.7647  -14.3137   21.6427 C   0  0  0  0  0  0  0  0  0  0  0  0
    8.7565  -15.4497   21.8392 C   0  0  2  0  0  0  0  0  0  0  0  0
    8.4429  -16.6424   21.1116 N   0  0  0  0  0  0  0  0  0  0  0  0
    9.0833  -15.6660   23.2559 C   0  0  0  0  0  0  0  0  0  0  0  0
    8.3274  -16.3931   23.9438 O   0  0  0  0  0  0  0  0  0  0  0  0
    8.3206  -12.8152   19.6724 C   0  0  0  0  0  0  0  0  0  0  0  0
    8.1857  -12.4702   18.3310 C   0  0  0  0  0  0  0  0  0  0  0  0
   10.5163  -15.8086   31.6378 O   0  0  0  0  0  0  0  0  0  0  0  0
   10.2113  -15.6221   30.2935 C   0  0  0  0  0  0  0  0  0  0  0  0
    9.8433  -16.6888   29.5032 C   0  0  0  0  0  0  0  0  0  0  0  0
    9.5367  -16.5276   28.1694 C   0  0  0  0  0  0  0  0  0  0  0  0
    9.5860  -15.2695   27.5575 C   0  0  0  0  0  0  0  0  0  0  0  0
    9.2659  -15.1460   26.1202 C   0  0  0  0  0  0  0  0  0  0  0  0
   10.5094  -15.2453   25.2867 C   0  0  2  0  0  0  0  0  0  0  0  0
   10.2099  -15.0900   23.8686 N   0  0  0  0  0  0  0  0  0  0  0  0
   11.2720  -16.4764   25.4869 C   0  0  0  0  0  0  0  0  0  0  0  0
   11.0485  -17.6351   24.7691 O   0  0  0  0  0  0  0  0  0  0  0  0
    9.9559  -14.2139   28.3622 C   0  0  0  0  0  0  0  0  0  0  0  0
   10.2641  -14.3768   29.7041 C   0  0  0  0  0  0  0  0  0  0  0  0
   12.1924  -16.5138   26.3591 O   0  0  0  0  0  0  0  0  0  0  0  0
  2  3  1  0
  2  1  1  6
  4  3  1  0
  5  2  1  0
  6  5  2  0
  8  9  2  0
  8  7  1  0
 10  9  1  0
 11 10  2  0
 13 12  1  1
 12 11  1  0
 13 14  1  0
 14  5  1  0
 15 26  1  0
 15 13  1  0
 16 15  2  0
 17 11  1  0
 17 18  2  0
 18  8  1  0
 20 19  1  0
 21 20  2  0
 22 21  1  0
 23 29  1  0
 23 22  2  0
 24 23  1  0
 25 24  1  1
 25 26  1  0
 27 28  1  0
 27 25  1  0
 29 30  2  0
 30 20  1  0
 31 27  2  0
M  END
$$$$
