WEK.pdb
     RDKit          3D

 33 34  0  0  1  0  0  0  0  0999 V2000
   18.1452  -15.6813    2.7366 N   0  0  0  0  0  0  0  0  0  0  0  0
   18.0700  -16.8713    3.5692 C   0  0  1  0  0  0  0  0  0  0  0  0
   19.2373  -17.7166    3.2780 C   0  0  0  0  0  0  0  0  0  0  0  0
   19.4907  -18.0061    1.8529 C   0  0  0  0  0  0  0  0  0  0  0  0
   18.4901  -18.3864    0.9500 C   0  0  0  0  0  0  0  0  0  0  0  0
   19.0638  -18.5267   -0.2449 N   0  0  0  0  0  0  0  0  0  0  0  0
   20.3928  -18.2666   -0.2005 C   0  0  0  0  0  0  0  0  0  0  0  0
   21.3903  -18.2952   -1.1573 C   0  0  0  0  0  0  0  0  0  0  0  0
   22.6722  -17.9921   -0.7766 C   0  0  0  0  0  0  0  0  0  0  0  0
   22.9637  -17.6666    0.5286 C   0  0  0  0  0  0  0  0  0  0  0  0
   21.9603  -17.6440    1.4533 C   0  0  0  0  0  0  0  0  0  0  0  0
   20.6425  -17.9397    1.1353 C   0  0  0  0  0  0  0  0  0  0  0  0
   17.6440  -16.6779    4.9270 C   0  0  0  0  0  0  0  0  0  0  0  0
   17.7311  -15.5512    5.5128 O   0  0  0  0  0  0  0  0  0  0  0  0
   17.0951  -17.7057    5.7684 N   0  0  0  0  0  0  0  0  0  0  0  0
   17.0253  -17.7220    7.1723 C   0  0  1  0  0  0  0  0  0  0  0  0
   15.8944  -18.3197    7.8786 C   0  0  0  0  0  0  0  0  0  0  0  0
   15.8456  -18.1391    9.3704 C   0  0  0  0  0  0  0  0  0  0  0  0
   14.5816  -18.7097    9.9226 C   0  0  0  0  0  0  0  0  0  0  0  0
   13.7450  -19.2986    9.2227 O   0  0  0  0  0  0  0  0  0  0  0  0
   18.3062  -18.3285    7.6996 C   0  0  0  0  0  0  0  0  0  0  0  0
   18.8891  -19.2143    7.0457 O   0  0  0  0  0  0  0  0  0  0  0  0
   14.2568  -18.6142   11.2831 O   0  0  0  0  0  0  0  0  0  0  0  0
   18.8763  -17.9245    8.9198 N   0  0  0  0  0  0  0  0  0  0  0  0
   20.2196  -18.5000    9.3591 C   0  0  1  0  0  0  0  0  0  0  0  0
   20.7890  -17.4170   10.1778 C   0  0  0  0  0  0  0  0  0  0  0  0
   22.1916  -17.2311   10.4848 C   0  0  0  0  0  0  0  0  0  0  0  0
   22.7393  -16.1675   11.3389 C   0  0  0  0  0  0  0  0  0  0  0  0
   24.2583  -16.1927   11.4322 C   0  0  0  0  0  0  0  0  0  0  0  0
   24.6828  -15.0046   12.2151 N   0  0  0  0  0  0  0  0  0  0  0  0
   19.6847  -19.6528   10.1929 C   0  0  0  0  0  0  0  0  0  0  0  0
   20.3685  -20.7942   10.4220 O   0  0  0  0  0  0  0  0  0  0  0  0
   18.5227  -19.5072   10.6961 O   0  0  0  0  0  0  0  0  0  0  0  0
  2  1  1  1
  3  2  1  0
  4  3  1  0
  4  5  2  0
  6  5  1  0
  7  6  1  0
  8  7  2  0
  9  8  1  0
 10  9  2  0
 10 11  1  0
 11 12  2  0
 12  7  1  0
 12  4  1  0
 13 14  2  0
 13  2  1  0
 15 13  1  0
 16 17  1  6
 16 15  1  0
 18 19  1  0
 18 17  1  0
 19 23  1  0
 20 19  2  0
 21 16  1  0
 22 21  2  0
 24 21  1  0
 25 24  1  0
 26 27  1  0
 25 26  1  1
 28 29  1  0
 28 27  1  0
 29 30  1  0
 31 25  1  0
 31 32  1  0
 33 31  2  0
M  END
$$$$
