WEK.pdb
     RDKit          3D

 33 34  0  0  1  0  0  0  0  0999 V2000
   27.3327  -20.3960  -16.4267 N   0  0  0  0  0  0  0  0  0  0  0  0
   26.0121  -19.9210  -16.0451 C   0  0  1  0  0  0  0  0  0  0  0  0
   25.5234  -19.0141  -17.0941 C   0  0  0  0  0  0  0  0  0  0  0  0
   26.3542  -17.8239  -17.3631 C   0  0  0  0  0  0  0  0  0  0  0  0
   27.0667  -17.6296  -18.5529 C   0  0  0  0  0  0  0  0  0  0  0  0
   27.6677  -16.4428  -18.4683 N   0  0  0  0  0  0  0  0  0  0  0  0
   27.4050  -15.8268  -17.2904 C   0  0  0  0  0  0  0  0  0  0  0  0
   27.8068  -14.6198  -16.7490 C   0  0  0  0  0  0  0  0  0  0  0  0
   27.3713  -14.2883  -15.4918 C   0  0  0  0  0  0  0  0  0  0  0  0
   26.5525  -15.1361  -14.7810 C   0  0  0  0  0  0  0  0  0  0  0  0
   26.1690  -16.3210  -15.3390 C   0  0  0  0  0  0  0  0  0  0  0  0
   26.5730  -16.7172  -16.6060 C   0  0  0  0  0  0  0  0  0  0  0  0
   25.1259  -20.8896  -15.4629 C   0  0  0  0  0  0  0  0  0  0  0  0
   25.0167  -22.0725  -15.9202 O   0  0  0  0  0  0  0  0  0  0  0  0
   24.2709  -20.6445  -14.3340 N   0  0  0  0  0  0  0  0  0  0  0  0
   23.3855  -21.5434  -13.7143 C   0  0  1  0  0  0  0  0  0  0  0  0
   23.0416  -21.4304  -12.2986 C   0  0  0  0  0  0  0  0  0  0  0  0
   22.6346  -20.0721  -11.7990 C   0  0  0  0  0  0  0  0  0  0  0  0
   22.3488  -20.1203  -10.3347 C   0  0  0  0  0  0  0  0  0  0  0  0
   21.1991  -20.1603   -9.8727 O   0  0  0  0  0  0  0  0  0  0  0  0
   22.1097  -21.5809  -14.5253 C   0  0  0  0  0  0  0  0  0  0  0  0
   21.6898  -20.5425  -15.0706 O   0  0  0  0  0  0  0  0  0  0  0  0
   23.3740  -20.1230   -9.3784 O   0  0  0  0  0  0  0  0  0  0  0  0
   21.3660  -22.7624  -14.6923 N   0  0  0  0  0  0  0  0  0  0  0  0
   20.0282  -22.7217  -15.4252 C   0  0  1  0  0  0  0  0  0  0  0  0
   19.7295  -24.1468  -15.6431 C   0  0  0  0  0  0  0  0  0  0  0  0
   18.8892  -24.6886  -16.6901 C   0  0  0  0  0  0  0  0  0  0  0  0
   18.6592  -26.1191  -16.9382 C   0  0  0  0  0  0  0  0  0  0  0  0
   17.6490  -26.3833  -18.0456 C   0  0  0  0  0  0  0  0  0  0  0  0
   17.6507  -27.8424  -18.3205 N   0  0  0  0  0  0  0  0  0  0  0  0
   19.2014  -22.1087  -14.3067 C   0  0  0  0  0  0  0  0  0  0  0  0
   18.1876  -21.2409  -14.5116 O   0  0  0  0  0  0  0  0  0  0  0  0
   19.5006  -22.4524  -13.1164 O   0  0  0  0  0  0  0  0  0  0  0  0
  2  1  1  6
  3  2  1  0
  4  3  1  0
  4  5  2  0
  6  5  1  0
  7  6  1  0
  8  7  2  0
  9  8  1  0
 10  9  2  0
 10 11  1  0
 11 12  2  0
 12  7  1  0
 12  4  1  0
 13 14  2  0
 13  2  1  0
 15 13  1  0
 16 17  1  1
 16 15  1  0
 18 19  1  0
 18 17  1  0
 19 23  1  0
 20 19  2  0
 21 16  1  0
 22 21  2  0
 24 21  1  0
 25 24  1  0
 26 27  1  0
 25 26  1  1
 28 29  1  0
 28 27  1  0
 29 30  1  0
 31 25  1  0
 31 32  1  0
 33 31  2  0
M  END
$$$$
