WEK.pdb
     RDKit          3D

 33 34  0  0  1  0  0  0  0  0999 V2000
   26.0312  -22.4418  -11.8691 N   0  0  0  0  0  0  0  0  0  0  0  0
   25.5492  -21.3660  -11.0173 C   0  0  1  0  0  0  0  0  0  0  0  0
   26.5814  -20.3205  -10.9602 C   0  0  0  0  0  0  0  0  0  0  0  0
   27.7627  -20.6185  -10.1267 C   0  0  0  0  0  0  0  0  0  0  0  0
   28.9216  -21.2331  -10.6172 C   0  0  0  0  0  0  0  0  0  0  0  0
   29.7894  -21.3102   -9.6083 N   0  0  0  0  0  0  0  0  0  0  0  0
   29.2830  -20.7867   -8.4657 C   0  0  0  0  0  0  0  0  0  0  0  0
   29.7868  -20.6584   -7.1847 C   0  0  0  0  0  0  0  0  0  0  0  0
   28.9939  -20.0869   -6.2231 C   0  0  0  0  0  0  0  0  0  0  0  0
   27.7235  -19.6498   -6.5225 C   0  0  0  0  0  0  0  0  0  0  0  0
   27.2507  -19.7866   -7.7953 C   0  0  0  0  0  0  0  0  0  0  0  0
   28.0003  -20.3552   -8.8152 C   0  0  0  0  0  0  0  0  0  0  0  0
   24.1671  -21.0036  -11.1624 C   0  0  0  0  0  0  0  0  0  0  0  0
   23.6362  -20.0643  -10.4871 O   0  0  0  0  0  0  0  0  0  0  0  0
   23.2400  -21.6467  -12.0525 N   0  0  0  0  0  0  0  0  0  0  0  0
   21.8928  -21.3146  -12.2781 C   0  0  1  0  0  0  0  0  0  0  0  0
   21.4482  -20.7202  -13.5367 C   0  0  0  0  0  0  0  0  0  0  0  0
   21.4125  -19.2189  -13.6103 C   0  0  0  0  0  0  0  0  0  0  0  0
   21.7126  -18.7586  -14.9982 C   0  0  0  0  0  0  0  0  0  0  0  0
   21.3039  -19.3498  -16.0082 O   0  0  0  0  0  0  0  0  0  0  0  0
   21.0527  -22.5391  -11.9927 C   0  0  0  0  0  0  0  0  0  0  0  0
   21.2163  -23.5750  -12.6652 O   0  0  0  0  0  0  0  0  0  0  0  0
   22.4849  -17.6160  -15.2501 O   0  0  0  0  0  0  0  0  0  0  0  0
   20.0777  -22.5558  -10.9797 N   0  0  0  0  0  0  0  0  0  0  0  0
   19.2393  -23.8102  -10.7518 C   0  0  1  0  0  0  0  0  0  0  0  0
   18.8557  -23.6961   -9.3349 C   0  0  0  0  0  0  0  0  0  0  0  0
   18.2537  -24.7385   -8.5307 C   0  0  0  0  0  0  0  0  0  0  0  0
   17.8095  -24.5856   -7.1379 C   0  0  0  0  0  0  0  0  0  0  0  0
   17.1720  -25.8445   -6.5676 C   0  0  0  0  0  0  0  0  0  0  0  0
   16.8369  -25.5774   -5.1459 N   0  0  0  0  0  0  0  0  0  0  0  0
   18.1019  -23.4707  -11.7013 C   0  0  0  0  0  0  0  0  0  0  0  0
   17.6795  -22.2121  -11.9470 O   0  0  0  0  0  0  0  0  0  0  0  0
   17.5329  -24.4482  -12.2889 O   0  0  0  0  0  0  0  0  0  0  0  0
  2  1  1  6
  3  2  1  0
  4  3  1  0
  4  5  2  0
  6  5  1  0
  7  6  1  0
  8  7  2  0
  9  8  1  0
 10  9  2  0
 10 11  1  0
 11 12  2  0
 12  7  1  0
 12  4  1  0
 13 14  2  0
 13  2  1  0
 15 13  1  0
 16 17  1  6
 16 15  1  0
 18 19  1  0
 18 17  1  0
 19 23  1  0
 20 19  2  0
 21 16  1  0
 22 21  2  0
 24 21  1  0
 25 24  1  0
 26 27  1  0
 25 26  1  1
 28 29  1  0
 28 27  1  0
 29 30  1  0
 31 25  1  0
 31 32  1  0
 33 31  2  0
M  END
$$$$
