WEK.pdb
     RDKit          3D

 33 34  0  0  1  0  0  0  0  0999 V2000
   27.0423  -22.8764  -11.8175 N   0  0  0  0  0  0  0  0  0  0  0  0
   26.3221  -21.6177  -11.9277 C   0  0  1  0  0  0  0  0  0  0  0  0
   27.2645  -20.5190  -11.6700 C   0  0  0  0  0  0  0  0  0  0  0  0
   28.0736  -20.6318  -10.4405 C   0  0  0  0  0  0  0  0  0  0  0  0
   29.3903  -21.1083  -10.4209 C   0  0  0  0  0  0  0  0  0  0  0  0
   29.8214  -21.0365   -9.1616 N   0  0  0  0  0  0  0  0  0  0  0  0
   28.8721  -20.5427   -8.3304 C   0  0  0  0  0  0  0  0  0  0  0  0
   28.8442  -20.3048   -6.9688 C   0  0  0  0  0  0  0  0  0  0  0  0
   27.6933  -19.8069   -6.4142 C   0  0  0  0  0  0  0  0  0  0  0  0
   26.5878  -19.5487   -7.1924 C   0  0  0  0  0  0  0  0  0  0  0  0
   26.6421  -19.7908   -8.5344 C   0  0  0  0  0  0  0  0  0  0  0  0
   27.7745  -20.2935   -9.1591 C   0  0  0  0  0  0  0  0  0  0  0  0
   25.3737  -21.5136  -13.0012 C   0  0  0  0  0  0  0  0  0  0  0  0
   25.7329  -21.3880  -14.2158 O   0  0  0  0  0  0  0  0  0  0  0  0
   23.9458  -21.5261  -12.8378 N   0  0  0  0  0  0  0  0  0  0  0  0
   22.9682  -21.7196  -13.8292 C   0  0  1  0  0  0  0  0  0  0  0  0
   22.8382  -22.9878  -14.5431 C   0  0  0  0  0  0  0  0  0  0  0  0
   23.7606  -24.1022  -14.1332 C   0  0  0  0  0  0  0  0  0  0  0  0
   24.7619  -24.3705  -15.2072 C   0  0  0  0  0  0  0  0  0  0  0  0
   24.4923  -24.2957  -16.4149 O   0  0  0  0  0  0  0  0  0  0  0  0
   21.6245  -21.3492  -13.2429 C   0  0  0  0  0  0  0  0  0  0  0  0
   21.3554  -21.6542  -12.0654 O   0  0  0  0  0  0  0  0  0  0  0  0
   26.0854  -24.7288  -14.9148 O   0  0  0  0  0  0  0  0  0  0  0  0
   20.6498  -20.6609  -13.9867 N   0  0  0  0  0  0  0  0  0  0  0  0
   19.3311  -20.2643  -13.3292 C   0  0  1  0  0  0  0  0  0  0  0  0
   18.8043  -19.2371  -14.2430 C   0  0  0  0  0  0  0  0  0  0  0  0
   18.6322  -19.3795  -15.6734 C   0  0  0  0  0  0  0  0  0  0  0  0
   18.0980  -18.3451  -16.5707 C   0  0  0  0  0  0  0  0  0  0  0  0
   18.0352  -18.7849  -18.0265 C   0  0  0  0  0  0  0  0  0  0  0  0
   19.4114  -18.7154  -18.5795 N   0  0  0  0  0  0  0  0  0  0  0  0
   18.6221  -21.6013  -13.4711 C   0  0  0  0  0  0  0  0  0  0  0  0
   19.1146  -22.6408  -14.1780 O   0  0  0  0  0  0  0  0  0  0  0  0
   17.5014  -21.7233  -12.8763 O   0  0  0  0  0  0  0  0  0  0  0  0
  2  1  1  6
  3  2  1  0
  4  3  1  0
  4  5  2  0
  6  5  1  0
  7  6  1  0
  8  7  2  0
  9  8  1  0
 10  9  2  0
 10 11  1  0
 11 12  2  0
 12  7  1  0
 12  4  1  0
 13 14  2  0
 13  2  1  0
 15 13  1  0
 16 17  1  1
 16 15  1  0
 18 19  1  0
 18 17  1  0
 19 23  1  0
 20 19  2  0
 21 16  1  0
 22 21  2  0
 24 21  1  0
 25 24  1  0
 26 27  1  0
 25 26  1  6
 28 29  1  0
 28 27  1  0
 29 30  1  0
 31 25  1  0
 31 32  1  0
 33 31  2  0
M  END
$$$$
