WEK.pdb
     RDKit          3D

 33 34  0  0  1  0  0  0  0  0999 V2000
   27.7394  -21.9730  -13.5026 N   0  0  0  0  0  0  0  0  0  0  0  0
   26.6198  -21.3668  -12.7997 C   0  0  1  0  0  0  0  0  0  0  0  0
   27.1190  -20.2117  -12.0393 C   0  0  0  0  0  0  0  0  0  0  0  0
   28.0308  -20.5160  -10.9190 C   0  0  0  0  0  0  0  0  0  0  0  0
   29.4268  -20.4800  -11.0249 C   0  0  0  0  0  0  0  0  0  0  0  0
   29.9252  -20.7678   -9.8227 N   0  0  0  0  0  0  0  0  0  0  0  0
   28.9479  -20.9989   -8.9131 C   0  0  0  0  0  0  0  0  0  0  0  0
   28.9700  -21.3424   -7.5741 C   0  0  0  0  0  0  0  0  0  0  0  0
   27.7762  -21.5298   -6.9261 C   0  0  0  0  0  0  0  0  0  0  0  0
   26.5801  -21.3807   -7.5906 C   0  0  0  0  0  0  0  0  0  0  0  0
   26.5861  -21.0396   -8.9120 C   0  0  0  0  0  0  0  0  0  0  0  0
   27.7575  -20.8349   -9.6269 C   0  0  0  0  0  0  0  0  0  0  0  0
   25.3842  -21.2696  -13.5252 C   0  0  0  0  0  0  0  0  0  0  0  0
   25.3462  -21.0176  -14.7723 O   0  0  0  0  0  0  0  0  0  0  0  0
   24.0786  -21.4282  -12.9458 N   0  0  0  0  0  0  0  0  0  0  0  0
   22.8458  -21.5196  -13.6151 C   0  0  1  0  0  0  0  0  0  0  0  0
   21.9211  -22.6252  -13.3750 C   0  0  0  0  0  0  0  0  0  0  0  0
   20.6344  -22.6231  -14.1527 C   0  0  0  0  0  0  0  0  0  0  0  0
   20.8636  -23.1267  -15.5392 C   0  0  0  0  0  0  0  0  0  0  0  0
   21.7578  -23.9368  -15.8234 O   0  0  0  0  0  0  0  0  0  0  0  0
   22.1074  -20.2143  -13.4205 C   0  0  0  0  0  0  0  0  0  0  0  0
   21.9260  -19.7688  -12.2713 O   0  0  0  0  0  0  0  0  0  0  0  0
   20.0735  -22.7101  -16.6198 O   0  0  0  0  0  0  0  0  0  0  0  0
   21.6095  -19.4697  -14.5043 N   0  0  0  0  0  0  0  0  0  0  0  0
   20.9528  -18.1145  -14.2582 C   0  0  1  0  0  0  0  0  0  0  0  0
   20.9517  -17.5019  -15.5970 C   0  0  0  0  0  0  0  0  0  0  0  0
   21.4248  -16.1735  -15.9243 C   0  0  0  0  0  0  0  0  0  0  0  0
   21.3699  -15.5580  -17.2580 C   0  0  0  0  0  0  0  0  0  0  0  0
   21.9529  -14.1526  -17.2971 C   0  0  0  0  0  0  0  0  0  0  0  0
   21.8235  -13.6480  -18.6875 N   0  0  0  0  0  0  0  0  0  0  0  0
   19.5833  -18.6243  -13.8401 C   0  0  0  0  0  0  0  0  0  0  0  0
   18.7612  -17.9632  -12.9976 O   0  0  0  0  0  0  0  0  0  0  0  0
   19.2121  -19.7412  -14.3296 O   0  0  0  0  0  0  0  0  0  0  0  0
  2  1  1  6
  3  2  1  0
  4  3  1  0
  4  5  2  0
  6  5  1  0
  7  6  1  0
  8  7  2  0
  9  8  1  0
 10  9  2  0
 10 11  1  0
 11 12  2  0
 12  7  1  0
 12  4  1  0
 13 14  2  0
 13  2  1  0
 15 13  1  0
 16 17  1  1
 16 15  1  0
 18 19  1  0
 18 17  1  0
 19 23  1  0
 20 19  2  0
 21 16  1  0
 22 21  2  0
 24 21  1  0
 25 24  1  0
 26 27  1  0
 25 26  1  6
 28 29  1  0
 28 27  1  0
 29 30  1  0
 31 25  1  0
 31 32  1  0
 33 31  2  0
M  END
$$$$
