WEK.pdb
     RDKit          3D

 33 34  0  0  1  0  0  0  0  0999 V2000
   28.1724  -22.2958  -12.7050 N   0  0  0  0  0  0  0  0  0  0  0  0
   27.1303  -21.3028  -12.4975 C   0  0  1  0  0  0  0  0  0  0  0  0
   27.7438  -20.0999  -11.9156 C   0  0  0  0  0  0  0  0  0  0  0  0
   28.3994  -20.2742  -10.6046 C   0  0  0  0  0  0  0  0  0  0  0  0
   29.7496  -20.6134  -10.4529 C   0  0  0  0  0  0  0  0  0  0  0  0
   30.0076  -20.6472   -9.1455 N   0  0  0  0  0  0  0  0  0  0  0  0
   28.9103  -20.3539   -8.4067 C   0  0  0  0  0  0  0  0  0  0  0  0
   28.6839  -20.2824   -7.0447 C   0  0  0  0  0  0  0  0  0  0  0  0
   27.4223  -19.9729   -6.6057 C   0  0  0  0  0  0  0  0  0  0  0  0
   26.4010  -19.7385   -7.4981 C   0  0  0  0  0  0  0  0  0  0  0  0
   26.6514  -19.8138   -8.8375 C   0  0  0  0  0  0  0  0  0  0  0  0
   27.9042  -20.1215   -9.3486 C   0  0  0  0  0  0  0  0  0  0  0  0
   26.1485  -21.1767  -13.5380 C   0  0  0  0  0  0  0  0  0  0  0  0
   26.4691  -21.0433  -14.7626 O   0  0  0  0  0  0  0  0  0  0  0  0
   24.7267  -21.1737  -13.3278 N   0  0  0  0  0  0  0  0  0  0  0  0
   23.7132  -21.1873  -14.3018 C   0  0  1  0  0  0  0  0  0  0  0  0
   23.4385  -22.3744  -15.1084 C   0  0  0  0  0  0  0  0  0  0  0  0
   23.7712  -23.7082  -14.4995 C   0  0  0  0  0  0  0  0  0  0  0  0
   23.3026  -24.8155  -15.3841 C   0  0  0  0  0  0  0  0  0  0  0  0
   22.2786  -25.4752  -15.1542 O   0  0  0  0  0  0  0  0  0  0  0  0
   22.4275  -20.7326  -13.6485 C   0  0  0  0  0  0  0  0  0  0  0  0
   22.1750  -21.0669  -12.4752 O   0  0  0  0  0  0  0  0  0  0  0  0
   23.9991  -25.1839  -16.5437 O   0  0  0  0  0  0  0  0  0  0  0  0
   21.4894  -19.9322  -14.3241 N   0  0  0  0  0  0  0  0  0  0  0  0
   20.1685  -19.5744  -13.6491 C   0  0  1  0  0  0  0  0  0  0  0  0
   19.5367  -18.6687  -14.6228 C   0  0  0  0  0  0  0  0  0  0  0  0
   18.2830  -17.9676  -14.4423 C   0  0  0  0  0  0  0  0  0  0  0  0
   17.6827  -17.0399  -15.4116 C   0  0  0  0  0  0  0  0  0  0  0  0
   17.0642  -15.8092  -14.7638 C   0  0  0  0  0  0  0  0  0  0  0  0
   15.8828  -16.2550  -13.9826 N   0  0  0  0  0  0  0  0  0  0  0  0
   19.5552  -20.9652  -13.6510 C   0  0  0  0  0  0  0  0  0  0  0  0
   19.8261  -21.9038  -14.5830 O   0  0  0  0  0  0  0  0  0  0  0  0
   18.7442  -21.2368  -12.7060 O   0  0  0  0  0  0  0  0  0  0  0  0
  2  1  1  6
  3  2  1  0
  4  3  1  0
  4  5  2  0
  6  5  1  0
  7  6  1  0
  8  7  2  0
  9  8  1  0
 10  9  2  0
 10 11  1  0
 11 12  2  0
 12  7  1  0
 12  4  1  0
 13 14  2  0
 13  2  1  0
 15 13  1  0
 16 17  1  1
 16 15  1  0
 18 19  1  0
 18 17  1  0
 19 23  1  0
 20 19  2  0
 21 16  1  0
 22 21  2  0
 24 21  1  0
 25 24  1  0
 26 27  1  0
 25 26  1  6
 28 29  1  0
 28 27  1  0
 29 30  1  0
 31 25  1  0
 31 32  1  0
 33 31  2  0
M  END
$$$$
