WEK.pdb
     RDKit          3D

 33 34  0  0  1  0  0  0  0  0999 V2000
   23.3181  -20.4348  -10.3974 N   0  0  0  0  0  0  0  0  0  0  0  0
   23.0625  -21.1780   -9.1737 C   0  0  1  0  0  0  0  0  0  0  0  0
   23.8566  -20.5782   -8.0914 C   0  0  0  0  0  0  0  0  0  0  0  0
   25.3218  -20.7130   -8.2089 C   0  0  0  0  0  0  0  0  0  0  0  0
   25.9633  -21.2362   -9.3385 C   0  0  0  0  0  0  0  0  0  0  0  0
   27.2761  -21.1730   -9.1165 N   0  0  0  0  0  0  0  0  0  0  0  0
   27.5577  -20.6409   -7.9026 C   0  0  0  0  0  0  0  0  0  0  0  0
   28.7428  -20.3947   -7.2345 C   0  0  0  0  0  0  0  0  0  0  0  0
   28.6851  -19.8529   -5.9763 C   0  0  0  0  0  0  0  0  0  0  0  0
   27.4760  -19.5597   -5.3876 C   0  0  0  0  0  0  0  0  0  0  0  0
   26.3208  -19.8109   -6.0693 C   0  0  0  0  0  0  0  0  0  0  0  0
   26.3080  -20.3572   -7.3447 C   0  0  0  0  0  0  0  0  0  0  0  0
   21.7018  -21.5698   -8.9339 C   0  0  0  0  0  0  0  0  0  0  0  0
   20.7307  -20.7537   -9.0395 O   0  0  0  0  0  0  0  0  0  0  0  0
   21.2849  -22.8892   -8.5452 N   0  0  0  0  0  0  0  0  0  0  0  0
   19.9881  -23.4301   -8.5914 C   0  0  1  0  0  0  0  0  0  0  0  0
   19.6585  -24.5632   -9.4530 C   0  0  0  0  0  0  0  0  0  0  0  0
   18.2158  -24.9827   -9.5108 C   0  0  0  0  0  0  0  0  0  0  0  0
   18.0292  -26.0669  -10.5198 C   0  0  0  0  0  0  0  0  0  0  0  0
   18.9696  -26.5684  -11.1529 O   0  0  0  0  0  0  0  0  0  0  0  0
   19.5626  -23.7523   -7.1766 C   0  0  0  0  0  0  0  0  0  0  0  0
   20.4228  -23.8959   -6.2869 O   0  0  0  0  0  0  0  0  0  0  0  0
   16.7642  -26.5921  -10.8190 O   0  0  0  0  0  0  0  0  0  0  0  0
   18.2107  -23.8978   -6.8186 N   0  0  0  0  0  0  0  0  0  0  0  0
   17.8375  -24.2346   -5.3779 C   0  0  1  0  0  0  0  0  0  0  0  0
   16.4033  -23.9061   -5.3247 C   0  0  0  0  0  0  0  0  0  0  0  0
   15.5554  -23.9881   -4.1541 C   0  0  0  0  0  0  0  0  0  0  0  0
   15.4663  -22.9694   -3.0981 C   0  0  0  0  0  0  0  0  0  0  0  0
   14.4948  -23.3383   -1.9861 C   0  0  0  0  0  0  0  0  0  0  0  0
   14.6128  -22.3088   -0.9227 N   0  0  0  0  0  0  0  0  0  0  0  0
   18.0993  -25.7304   -5.4437 C   0  0  0  0  0  0  0  0  0  0  0  0
   18.4062  -26.4868   -4.3682 O   0  0  0  0  0  0  0  0  0  0  0  0
   18.0151  -26.2785   -6.5914 O   0  0  0  0  0  0  0  0  0  0  0  0
  2  1  1  6
  3  2  1  0
  4  3  1  0
  4  5  2  0
  6  5  1  0
  7  6  1  0
  8  7  2  0
  9  8  1  0
 10  9  2  0
 10 11  1  0
 11 12  2  0
 12  7  1  0
 12  4  1  0
 13 14  2  0
 13  2  1  0
 15 13  1  0
 16 17  1  6
 16 15  1  0
 18 19  1  0
 18 17  1  0
 19 23  1  0
 20 19  2  0
 21 16  1  0
 22 21  2  0
 24 21  1  0
 25 24  1  0
 26 27  1  0
 25 26  1  6
 28 29  1  0
 28 27  1  0
 29 30  1  0
 31 25  1  0
 31 32  1  0
 33 31  2  0
M  END
$$$$
