WEK.pdb
     RDKit          3D

 33 34  0  0  1  0  0  0  0  0999 V2000
   23.4955  -18.8393  -19.9793 N   0  0  0  0  0  0  0  0  0  0  0  0
   22.3216  -18.5366  -19.1758 C   0  0  1  0  0  0  0  0  0  0  0  0
   21.2739  -18.0109  -20.0633 C   0  0  0  0  0  0  0  0  0  0  0  0
   21.5424  -16.6960  -20.6780 C   0  0  0  0  0  0  0  0  0  0  0  0
   21.8083  -16.5181  -22.0414 C   0  0  0  0  0  0  0  0  0  0  0  0
   21.9626  -15.2107  -22.2501 N   0  0  0  0  0  0  0  0  0  0  0  0
   21.8196  -14.4967  -21.1075 C   0  0  0  0  0  0  0  0  0  0  0  0
   21.9062  -13.1463  -20.8240 C   0  0  0  0  0  0  0  0  0  0  0  0
   21.7260  -12.7361  -19.5281 C   0  0  0  0  0  0  0  0  0  0  0  0
   21.4652  -13.6456  -18.5285 C   0  0  0  0  0  0  0  0  0  0  0  0
   21.3832  -14.9729  -18.8353 C   0  0  0  0  0  0  0  0  0  0  0  0
   21.5546  -15.4549  -20.1251 C   0  0  0  0  0  0  0  0  0  0  0  0
   21.9853  -19.4836  -18.1498 C   0  0  0  0  0  0  0  0  0  0  0  0
   22.1744  -20.7344  -18.2909 O   0  0  0  0  0  0  0  0  0  0  0  0
   21.4005  -19.1452  -16.8814 N   0  0  0  0  0  0  0  0  0  0  0  0
   21.1483  -20.0006  -15.7947 C   0  0  1  0  0  0  0  0  0  0  0  0
   21.9415  -19.9402  -14.5691 C   0  0  0  0  0  0  0  0  0  0  0  0
   21.5595  -20.8797  -13.4591 C   0  0  0  0  0  0  0  0  0  0  0  0
   22.4637  -20.6940  -12.2860 C   0  0  0  0  0  0  0  0  0  0  0  0
   22.3579  -21.3535  -11.2417 O   0  0  0  0  0  0  0  0  0  0  0  0
   19.6841  -19.8846  -15.4351 C   0  0  0  0  0  0  0  0  0  0  0  0
   19.1510  -18.7613  -15.3568 O   0  0  0  0  0  0  0  0  0  0  0  0
   23.5011  -19.7511  -12.2908 O   0  0  0  0  0  0  0  0  0  0  0  0
   18.8859  -21.0141  -15.1823 N   0  0  0  0  0  0  0  0  0  0  0  0
   17.4179  -20.8388  -14.8045 C   0  0  1  0  0  0  0  0  0  0  0  0
   16.9789  -22.2196  -14.5429 C   0  0  0  0  0  0  0  0  0  0  0  0
   15.6324  -22.6347  -14.2105 C   0  0  0  0  0  0  0  0  0  0  0  0
   15.1841  -24.0277  -14.0716 C   0  0  0  0  0  0  0  0  0  0  0  0
   13.6901  -24.1561  -13.8101 C   0  0  0  0  0  0  0  0  0  0  0  0
   13.3230  -25.5850  -13.9781 N   0  0  0  0  0  0  0  0  0  0  0  0
   17.6294  -20.0347  -13.5321 C   0  0  0  0  0  0  0  0  0  0  0  0
   16.7984  -19.0552  -13.1163 O   0  0  0  0  0  0  0  0  0  0  0  0
   18.6559  -20.3234  -12.8339 O   0  0  0  0  0  0  0  0  0  0  0  0
  2  1  1  6
  3  2  1  0
  4  3  1  0
  4  5  2  0
  6  5  1  0
  7  6  1  0
  8  7  2  0
  9  8  1  0
 10  9  2  0
 10 11  1  0
 11 12  2  0
 12  7  1  0
 12  4  1  0
 13 14  2  0
 13  2  1  0
 15 13  1  0
 16 17  1  1
 16 15  1  0
 18 19  1  0
 18 17  1  0
 19 23  1  0
 20 19  2  0
 21 16  1  0
 22 21  2  0
 24 21  1  0
 25 24  1  0
 26 27  1  0
 25 26  1  1
 28 29  1  0
 28 27  1  0
 29 30  1  0
 31 25  1  0
 31 32  1  0
 33 31  2  0
M  END
$$$$
