WEK.pdb
     RDKit          3D

 33 34  0  0  1  0  0  0  0  0999 V2000
   21.5618  -31.2473   -0.3858 N   0  0  0  0  0  0  0  0  0  0  0  0
   21.7781  -30.6900    0.9400 C   0  0  1  0  0  0  0  0  0  0  0  0
   20.5348  -30.0397    1.3793 C   0  0  0  0  0  0  0  0  0  0  0  0
   20.2852  -28.6866    0.8447 C   0  0  0  0  0  0  0  0  0  0  0  0
   19.7842  -28.4415   -0.4398 C   0  0  0  0  0  0  0  0  0  0  0  0
   19.6486  -27.1219   -0.5697 N   0  0  0  0  0  0  0  0  0  0  0  0
   20.0316  -26.4624    0.5503 C   0  0  0  0  0  0  0  0  0  0  0  0
   20.0878  -25.1210    0.8802 C   0  0  0  0  0  0  0  0  0  0  0  0
   20.5554  -24.7705    2.1206 C   0  0  0  0  0  0  0  0  0  0  0  0
   20.9613  -25.7300    3.0201 C   0  0  0  0  0  0  0  0  0  0  0  0
   20.8940  -27.0474    2.6701 C   0  0  0  0  0  0  0  0  0  0  0  0
   20.4310  -27.4703    1.4324 C   0  0  0  0  0  0  0  0  0  0  0  0
   22.5304  -31.4969    1.8596 C   0  0  0  0  0  0  0  0  0  0  0  0
   22.1715  -32.6750    2.1812 O   0  0  0  0  0  0  0  0  0  0  0  0
   23.7377  -31.0797    2.5184 N   0  0  0  0  0  0  0  0  0  0  0  0
   24.5133  -31.8097    3.4359 C   0  0  1  0  0  0  0  0  0  0  0  0
   25.9638  -31.6515    3.5130 C   0  0  0  0  0  0  0  0  0  0  0  0
   26.7861  -32.3574    2.4709 C   0  0  0  0  0  0  0  0  0  0  0  0
   27.5624  -33.4730    3.0883 C   0  0  0  0  0  0  0  0  0  0  0  0
   28.4137  -33.2944    3.9715 O   0  0  0  0  0  0  0  0  0  0  0  0
   23.9258  -31.6061    4.8144 C   0  0  0  0  0  0  0  0  0  0  0  0
   23.4976  -30.4847    5.1476 O   0  0  0  0  0  0  0  0  0  0  0  0
   27.3760  -34.8082    2.7036 O   0  0  0  0  0  0  0  0  0  0  0  0
   23.8413  -32.6511    5.7514 N   0  0  0  0  0  0  0  0  0  0  0  0
   23.3265  -32.3696    7.1600 C   0  0  1  0  0  0  0  0  0  0  0  0
   22.2568  -33.3678    7.3245 C   0  0  0  0  0  0  0  0  0  0  0  0
   21.4552  -33.5665    8.5135 C   0  0  0  0  0  0  0  0  0  0  0  0
   20.3842  -34.5628    8.6578 C   0  0  0  0  0  0  0  0  0  0  0  0
   19.6624  -34.4816    9.9954 C   0  0  0  0  0  0  0  0  0  0  0  0
   18.4844  -35.3830    9.9290 N   0  0  0  0  0  0  0  0  0  0  0  0
   24.5942  -32.7316    7.9165 C   0  0  0  0  0  0  0  0  0  0  0  0
   25.6139  -33.4350    7.3795 O   0  0  0  0  0  0  0  0  0  0  0  0
   24.6756  -32.3338    9.1247 O   0  0  0  0  0  0  0  0  0  0  0  0
  2  1  1  6
  3  2  1  0
  4  3  1  0
  4  5  2  0
  6  5  1  0
  7  6  1  0
  8  7  2  0
  9  8  1  0
 10  9  2  0
 10 11  1  0
 11 12  2  0
 12  7  1  0
 12  4  1  0
 13 14  2  0
 13  2  1  0
 15 13  1  0
 16 17  1  1
 16 15  1  0
 18 19  1  0
 18 17  1  0
 19 23  1  0
 20 19  2  0
 21 16  1  0
 22 21  2  0
 24 21  1  0
 25 24  1  0
 26 27  1  0
 25 26  1  1
 28 29  1  0
 28 27  1  0
 29 30  1  0
 31 25  1  0
 31 32  1  0
 33 31  2  0
M  END
$$$$
