WEK.pdb
     RDKit          3D

 33 34  0  0  1  0  0  0  0  0999 V2000
   27.9203  -22.3163  -10.1356 N   0  0  0  0  0  0  0  0  0  0  0  0
   26.8977  -21.2845  -10.0672 C   0  0  1  0  0  0  0  0  0  0  0  0
   27.4644  -20.1132   -9.3825 C   0  0  0  0  0  0  0  0  0  0  0  0
   28.2561  -20.3906   -8.1679 C   0  0  0  0  0  0  0  0  0  0  0  0
   29.4874  -21.0577   -8.1815 C   0  0  0  0  0  0  0  0  0  0  0  0
   29.9330  -21.0977   -6.9259 N   0  0  0  0  0  0  0  0  0  0  0  0
   29.0734  -20.4997   -6.0659 C   0  0  0  0  0  0  0  0  0  0  0  0
   29.0905  -20.3113   -4.6964 C   0  0  0  0  0  0  0  0  0  0  0  0
   28.0304  -19.6690   -4.1102 C   0  0  0  0  0  0  0  0  0  0  0  0
   26.9703  -19.2208   -4.8650 C   0  0  0  0  0  0  0  0  0  0  0  0
   26.9788  -19.4180   -6.2154 C   0  0  0  0  0  0  0  0  0  0  0  0
   28.0195  -20.0597   -6.8716 C   0  0  0  0  0  0  0  0  0  0  0  0
   26.0852  -21.1084  -11.2382 C   0  0  0  0  0  0  0  0  0  0  0  0
   26.4778  -20.4323  -12.2427 O   0  0  0  0  0  0  0  0  0  0  0  0
   24.7641  -21.6482  -11.4083 N   0  0  0  0  0  0  0  0  0  0  0  0
   23.9662  -21.6212  -12.5654 C   0  0  1  0  0  0  0  0  0  0  0  0
   23.6617  -22.8365  -13.3172 C   0  0  0  0  0  0  0  0  0  0  0  0
   24.8201  -23.5650  -13.9399 C   0  0  0  0  0  0  0  0  0  0  0  0
   25.5929  -22.6493  -14.8301 C   0  0  0  0  0  0  0  0  0  0  0  0
   26.8165  -22.4802  -14.7252 O   0  0  0  0  0  0  0  0  0  0  0  0
   22.6706  -20.9190  -12.2265 C   0  0  0  0  0  0  0  0  0  0  0  0
   22.1834  -21.0310  -11.0854 O   0  0  0  0  0  0  0  0  0  0  0  0
   24.9767  -21.9137  -15.8523 O   0  0  0  0  0  0  0  0  0  0  0  0
   21.9820  -20.1297  -13.1646 N   0  0  0  0  0  0  0  0  0  0  0  0
   20.7096  -19.3951  -12.7524 C   0  0  1  0  0  0  0  0  0  0  0  0
   20.5481  -18.3937  -13.8195 C   0  0  0  0  0  0  0  0  0  0  0  0
   19.7080  -17.2161  -13.7599 C   0  0  0  0  0  0  0  0  0  0  0  0
   19.5902  -16.2036  -14.8190 C   0  0  0  0  0  0  0  0  0  0  0  0
   18.6415  -15.0678  -14.4632 C   0  0  0  0  0  0  0  0  0  0  0  0
   18.5196  -14.1905  -15.6549 N   0  0  0  0  0  0  0  0  0  0  0  0
   19.7467  -20.5635  -12.8876 C   0  0  0  0  0  0  0  0  0  0  0  0
   18.6301  -20.7061  -12.1421 O   0  0  0  0  0  0  0  0  0  0  0  0
   20.0311  -21.4438  -13.7644 O   0  0  0  0  0  0  0  0  0  0  0  0
  2  1  1  6
  3  2  1  0
  4  3  1  0
  4  5  2  0
  6  5  1  0
  7  6  1  0
  8  7  2  0
  9  8  1  0
 10  9  2  0
 10 11  1  0
 11 12  2  0
 12  7  1  0
 12  4  1  0
 13 14  2  0
 13  2  1  0
 15 13  1  0
 16 17  1  1
 16 15  1  0
 18 19  1  0
 18 17  1  0
 19 23  1  0
 20 19  2  0
 21 16  1  0
 22 21  2  0
 24 21  1  0
 25 24  1  0
 26 27  1  0
 25 26  1  6
 28 29  1  0
 28 27  1  0
 29 30  1  0
 31 25  1  0
 31 32  1  0
 33 31  2  0
M  END
$$$$
