ESI.pdb
     RDKit          3D

 24 23  0  0  1  0  0  0  0  0999 V2000
   14.4954   -7.5298  -15.3956 N   0  0  0  0  0  0  0  0  0  0  0  0
   15.8164   -6.8427  -15.3180 C   0  0  1  0  0  0  0  0  0  0  0  0
   15.7642   -6.0909  -14.0315 C   0  0  0  0  0  0  0  0  0  0  0  0
   15.1006   -4.7652  -14.0335 C   0  0  0  0  0  0  0  0  0  0  0  0
   16.0716   -3.6592  -14.2247 C   0  0  0  0  0  0  0  0  0  0  0  0
   17.3173   -3.8057  -14.1270 O   0  0  0  0  0  0  0  0  0  0  0  0
   16.8086   -7.9268  -15.3718 C   0  0  0  0  0  0  0  0  0  0  0  0
   16.4342   -9.1097  -15.0674 O   0  0  0  0  0  0  0  0  0  0  0  0
   15.5717   -2.3653  -14.5369 O   0  0  0  0  0  0  0  0  0  0  0  0
   17.7859  -10.7804  -16.9098 O   0  0  0  0  0  0  0  0  0  0  0  0
   18.4695   -9.6277  -17.3015 C   0  0  0  0  0  0  0  0  0  0  0  0
   18.9825   -8.9773  -16.0501 C   0  0  2  0  0  0  0  0  0  0  0  0
   18.1757   -7.7934  -15.7404 N   0  0  0  0  0  0  0  0  0  0  0  0
   20.3969   -8.5611  -16.1949 C   0  0  0  0  0  0  0  0  0  0  0  0
   20.6756   -7.4091  -16.5816 O   0  0  0  0  0  0  0  0  0  0  0  0
   25.9948  -10.3092  -14.1114 C   0  0  0  0  0  0  0  0  0  0  0  0
   25.0931   -9.4196  -14.9401 C   0  0  0  0  0  0  0  0  0  0  0  0
   23.6680   -9.8725  -14.9154 C   0  0  2  0  0  0  0  0  0  0  0  0
   23.5040  -11.3229  -15.2792 C   0  0  0  0  0  0  0  0  0  0  0  0
   22.8648   -9.0397  -15.9024 C   0  0  2  0  0  0  0  0  0  0  0  0
   21.4751   -9.4437  -15.9032 N   0  0  0  0  0  0  0  0  0  0  0  0
   23.4302   -9.1415  -17.2727 C   0  0  0  0  0  0  0  0  0  0  0  0
   23.0777  -10.0369  -18.0955 O   0  0  0  0  0  0  0  0  0  0  0  0
   24.3868   -8.2442  -17.7237 O   0  0  0  0  0  0  0  0  0  0  0  0
  2  1  1  1
  3  2  1  0
  4  3  1  0
  5  4  1  0
  6  5  2  0
  7  2  1  0
  8  7  2  0
  9  5  1  0
 10 11  1  0
 12 11  1  6
 12 14  1  0
 12 13  1  0
 13  7  1  0
 14 21  1  0
 15 14  2  0
 17 16  1  0
 18 20  1  0
 18 17  1  0
 18 19  1  6
 20 22  1  0
 20 21  1  6
 22 23  2  0
 22 24  1  0
M  END
$$$$
