ESI.pdb
     RDKit          3D

 24 23  0  0  1  0  0  0  0  0999 V2000
   24.5432  -21.7149  -15.2463 N   0  0  0  0  0  0  0  0  0  0  0  0
   25.5036  -22.7623  -14.7952 C   0  0  1  0  0  0  0  0  0  0  0  0
   26.2250  -23.1589  -16.0384 C   0  0  0  0  0  0  0  0  0  0  0  0
   25.4322  -23.2897  -17.2842 C   0  0  0  0  0  0  0  0  0  0  0  0
   24.2590  -24.1807  -17.1041 C   0  0  0  0  0  0  0  0  0  0  0  0
   24.3107  -25.2804  -16.4952 O   0  0  0  0  0  0  0  0  0  0  0  0
   26.3296  -22.1013  -13.7738 C   0  0  0  0  0  0  0  0  0  0  0  0
   27.5819  -22.3529  -13.7480 O   0  0  0  0  0  0  0  0  0  0  0  0
   23.0090  -23.7725  -17.6447 O   0  0  0  0  0  0  0  0  0  0  0  0
   25.4933  -18.6956  -12.1575 O   0  0  0  0  0  0  0  0  0  0  0  0
   26.8192  -19.0998  -11.9897 C   0  0  0  0  0  0  0  0  0  0  0  0
   26.8042  -20.5917  -11.8282 C   0  0  2  0  0  0  0  0  0  0  0  0
   25.8692  -21.1847  -12.7887 N   0  0  0  0  0  0  0  0  0  0  0  0
   26.3913  -20.9859  -10.4611 C   0  0  0  0  0  0  0  0  0  0  0  0
   25.3293  -21.6141  -10.2830 O   0  0  0  0  0  0  0  0  0  0  0  0
   28.2047  -20.0688   -4.5217 C   0  0  0  0  0  0  0  0  0  0  0  0
   27.3469  -20.7262   -5.5814 C   0  0  0  0  0  0  0  0  0  0  0  0
   27.7312  -20.3082   -6.9650 C   0  0  2  0  0  0  0  0  0  0  0  0
   27.7447  -18.8150   -7.1473 C   0  0  0  0  0  0  0  0  0  0  0  0
   26.7412  -20.9004   -7.9560 C   0  0  2  0  0  0  0  0  0  0  0  0
   27.1767  -20.6693   -9.3167 N   0  0  0  0  0  0  0  0  0  0  0  0
   25.3796  -20.3421   -7.7505 C   0  0  0  0  0  0  0  0  0  0  0  0
   25.0057  -19.2426   -8.2546 O   0  0  0  0  0  0  0  0  0  0  0  0
   24.4369  -21.0114   -6.9843 O   0  0  0  0  0  0  0  0  0  0  0  0
  2  1  1  6
  3  2  1  0
  4  3  1  0
  5  4  1  0
  6  5  2  0
  7  2  1  0
  8  7  2  0
  9  5  1  0
 10 11  1  0
 12 11  1  1
 12 14  1  0
 12 13  1  0
 13  7  1  0
 14 21  1  0
 15 14  2  0
 17 16  1  0
 18 20  1  0
 18 17  1  0
 18 19  1  1
 20 22  1  0
 20 21  1  6
 22 23  2  0
 22 24  1  0
M  END
$$$$
