ESI.pdb
     RDKit          3D

 24 23  0  0  1  0  0  0  0  0999 V2000
   17.6611  -12.8902  -16.5555 N   0  0  0  0  0  0  0  0  0  0  0  0
   18.6403  -12.8486  -17.6791 C   0  0  1  0  0  0  0  0  0  0  0  0
   17.8872  -13.3972  -18.8430 C   0  0  0  0  0  0  0  0  0  0  0  0
   17.5696  -14.8453  -18.8389 C   0  0  0  0  0  0  0  0  0  0  0  0
   16.2520  -15.1223  -18.2145 C   0  0  0  0  0  0  0  0  0  0  0  0
   15.1550  -14.7945  -18.7361 O   0  0  0  0  0  0  0  0  0  0  0  0
   19.0255  -11.4338  -17.7909 C   0  0  0  0  0  0  0  0  0  0  0  0
   19.8434  -11.0972  -18.7128 O   0  0  0  0  0  0  0  0  0  0  0  0
   16.2238  -15.7952  -16.9624 O   0  0  0  0  0  0  0  0  0  0  0  0
   18.4817   -6.8032  -17.5892 O   0  0  0  0  0  0  0  0  0  0  0  0
   17.9375   -8.0816  -17.4506 C   0  0  0  0  0  0  0  0  0  0  0  0
   19.0761   -9.0106  -17.1465 C   0  0  2  0  0  0  0  0  0  0  0  0
   18.5681  -10.3731  -16.9613 N   0  0  0  0  0  0  0  0  0  0  0  0
   19.7961   -8.6032  -15.9175 C   0  0  0  0  0  0  0  0  0  0  0  0
   19.3355   -8.8921  -14.7955 O   0  0  0  0  0  0  0  0  0  0  0  0
   24.7546   -6.6313  -15.9504 C   0  0  0  0  0  0  0  0  0  0  0  0
   23.8404   -7.8318  -16.0691 C   0  0  0  0  0  0  0  0  0  0  0  0
   23.1416   -8.1445  -14.7843 C   0  0  2  0  0  0  0  0  0  0  0  0
   22.9568   -9.6201  -14.5577 C   0  0  0  0  0  0  0  0  0  0  0  0
   21.7698   -7.4879  -14.7924 C   0  0  2  0  0  0  0  0  0  0  0  0
   21.0207   -7.8790  -15.9673 N   0  0  0  0  0  0  0  0  0  0  0  0
   21.8844   -6.0080  -14.7252 C   0  0  0  0  0  0  0  0  0  0  0  0
   21.5464   -5.2496  -15.6810 O   0  0  0  0  0  0  0  0  0  0  0  0
   22.3748   -5.3762  -13.5921 O   0  0  0  0  0  0  0  0  0  0  0  0
  2  1  1  1
  3  2  1  0
  4  3  1  0
  5  4  1  0
  6  5  2  0
  7  2  1  0
  8  7  2  0
  9  5  1  0
 10 11  1  0
 12 11  1  1
 12 14  1  0
 12 13  1  0
 13  7  1  0
 14 21  1  0
 15 14  2  0
 17 16  1  0
 18 20  1  0
 18 17  1  0
 18 19  1  6
 20 22  1  0
 20 21  1  6
 22 23  2  0
 22 24  1  0
M  END
$$$$
