ESI.pdb
     RDKit          3D

 24 23  0  0  1  0  0  0  0  0999 V2000
   23.4539  -21.0797  -13.4300 N   0  0  0  0  0  0  0  0  0  0  0  0
   23.0811  -20.3529  -12.1827 C   0  0  1  0  0  0  0  0  0  0  0  0
   21.6329  -20.6566  -11.9996 C   0  0  0  0  0  0  0  0  0  0  0  0
   20.6507  -19.6909  -12.5478 C   0  0  0  0  0  0  0  0  0  0  0  0
   21.2089  -18.9171  -13.6846 C   0  0  0  0  0  0  0  0  0  0  0  0
   21.6901  -17.7607  -13.5663 O   0  0  0  0  0  0  0  0  0  0  0  0
   23.9727  -20.8983  -11.1482 C   0  0  0  0  0  0  0  0  0  0  0  0
   23.6407  -21.9896  -10.5728 O   0  0  0  0  0  0  0  0  0  0  0  0
   21.2034  -19.5113  -14.9762 O   0  0  0  0  0  0  0  0  0  0  0  0
   27.9006  -20.4518  -11.0375 O   0  0  0  0  0  0  0  0  0  0  0  0
   27.2771  -21.5482  -10.4386 C   0  0  0  0  0  0  0  0  0  0  0  0
   26.0495  -21.0297   -9.7484 C   0  0  2  0  0  0  0  0  0  0  0  0
   25.1992  -20.3253  -10.7125 N   0  0  0  0  0  0  0  0  0  0  0  0
   26.3964  -20.0952   -8.6525 C   0  0  0  0  0  0  0  0  0  0  0  0
   26.1420  -18.8795   -8.7603 O   0  0  0  0  0  0  0  0  0  0  0  0
   28.3533  -20.1128   -2.7148 C   0  0  0  0  0  0  0  0  0  0  0  0
   27.9682  -19.4298   -4.0095 C   0  0  0  0  0  0  0  0  0  0  0  0
   27.6722  -20.4069   -5.1025 C   0  0  2  0  0  0  0  0  0  0  0  0
   28.7708  -21.4143   -5.3060 C   0  0  0  0  0  0  0  0  0  0  0  0
   27.4729  -19.6490   -6.4059 C   0  0  2  0  0  0  0  0  0  0  0  0
   27.0224  -20.5399   -7.4537 N   0  0  0  0  0  0  0  0  0  0  0  0
   28.7220  -18.9591   -6.8200 C   0  0  0  0  0  0  0  0  0  0  0  0
   29.0747  -17.8378   -6.3497 O   0  0  0  0  0  0  0  0  0  0  0  0
   29.5763  -19.5211   -7.7571 O   0  0  0  0  0  0  0  0  0  0  0  0
  2  1  1  6
  3  2  1  0
  4  3  1  0
  5  4  1  0
  6  5  2  0
  7  2  1  0
  8  7  2  0
  9  5  1  0
 10 11  1  0
 12 11  1  6
 12 14  1  0
 12 13  1  0
 13  7  1  0
 14 21  1  0
 15 14  2  0
 17 16  1  0
 18 20  1  0
 18 17  1  0
 18 19  1  6
 20 22  1  0
 20 21  1  6
 22 23  2  0
 22 24  1  0
M  END
$$$$
