ESI.pdb
     RDKit          3D

 24 23  0  0  1  0  0  0  0  0999 V2000
   17.7555  -25.5499  -14.0961 N   0  0  0  0  0  0  0  0  0  0  0  0
   17.7335  -24.6115  -12.9377 C   0  0  1  0  0  0  0  0  0  0  0  0
   16.6384  -23.6532  -13.2622 C   0  0  0  0  0  0  0  0  0  0  0  0
   16.9406  -22.5559  -14.2122 C   0  0  0  0  0  0  0  0  0  0  0  0
   17.5592  -21.3898  -13.5338 C   0  0  0  0  0  0  0  0  0  0  0  0
   17.1450  -20.9231  -12.4414 O   0  0  0  0  0  0  0  0  0  0  0  0
   17.4931  -25.4660  -11.7652 C   0  0  0  0  0  0  0  0  0  0  0  0
   16.3748  -26.0774  -11.6772 O   0  0  0  0  0  0  0  0  0  0  0  0
   18.6804  -20.7659  -14.1466 O   0  0  0  0  0  0  0  0  0  0  0  0
   20.2751  -27.2802   -9.8781 O   0  0  0  0  0  0  0  0  0  0  0  0
   18.9988  -27.7890   -9.6298 C   0  0  0  0  0  0  0  0  0  0  0  0
   18.0582  -26.6198   -9.6114 C   0  0  2  0  0  0  0  0  0  0  0  0
   18.4000  -25.6917  -10.6932 N   0  0  0  0  0  0  0  0  0  0  0  0
   18.1240  -25.8901   -8.3238 C   0  0  0  0  0  0  0  0  0  0  0  0
   18.9933  -25.0152   -8.1421 O   0  0  0  0  0  0  0  0  0  0  0  0
   13.7128  -24.9902   -6.3764 C   0  0  0  0  0  0  0  0  0  0  0  0
   15.1315  -24.4877   -6.2152 C   0  0  0  0  0  0  0  0  0  0  0  0
   15.9493  -25.3677   -5.3244 C   0  0  2  0  0  0  0  0  0  0  0  0
   16.1319  -24.8014   -3.9428 C   0  0  0  0  0  0  0  0  0  0  0  0
   17.3240  -25.5629   -5.9451 C   0  0  2  0  0  0  0  0  0  0  0  0
   17.2133  -26.1535   -7.2617 N   0  0  0  0  0  0  0  0  0  0  0  0
   18.1890  -26.4024   -5.0764 C   0  0  0  0  0  0  0  0  0  0  0  0
   18.2175  -27.6658   -5.1524 O   0  0  0  0  0  0  0  0  0  0  0  0
   19.0216  -25.8316   -4.1253 O   0  0  0  0  0  0  0  0  0  0  0  0
  2  1  1  6
  3  2  1  0
  4  3  1  0
  5  4  1  0
  6  5  2  0
  7  2  1  0
  8  7  2  0
  9  5  1  0
 10 11  1  0
 12 11  1  1
 12 14  1  0
 12 13  1  0
 13  7  1  0
 14 21  1  0
 15 14  2  0
 17 16  1  0
 18 20  1  0
 18 17  1  0
 18 19  1  1
 20 22  1  0
 20 21  1  6
 22 23  2  0
 22 24  1  0
M  END
$$$$
