ESI.pdb
     RDKit          3D

 24 23  0  0  1  0  0  0  0  0999 V2000
   21.1527  -27.7726  -11.3525 N   0  0  0  0  0  0  0  0  0  0  0  0
   19.8283  -27.1068  -11.5130 C   0  0  1  0  0  0  0  0  0  0  0  0
   18.8741  -28.2331  -11.7228 C   0  0  0  0  0  0  0  0  0  0  0  0
   18.5270  -28.5924  -13.1186 C   0  0  0  0  0  0  0  0  0  0  0  0
   17.8099  -27.4935  -13.8122 C   0  0  0  0  0  0  0  0  0  0  0  0
   18.3665  -26.7004  -14.6146 O   0  0  0  0  0  0  0  0  0  0  0  0
   19.6366  -26.3448  -10.2699 C   0  0  0  0  0  0  0  0  0  0  0  0
   20.1507  -26.7996   -9.1923 O   0  0  0  0  0  0  0  0  0  0  0  0
   16.4205  -27.3266  -13.5608 O   0  0  0  0  0  0  0  0  0  0  0  0
   19.2580  -22.4019   -9.7992 O   0  0  0  0  0  0  0  0  0  0  0  0
   18.3109  -23.0610   -9.0129 C   0  0  0  0  0  0  0  0  0  0  0  0
   18.7968  -24.4694   -8.8322 C   0  0  2  0  0  0  0  0  0  0  0  0
   18.9236  -25.1213  -10.1389 N   0  0  0  0  0  0  0  0  0  0  0  0
   17.8653  -25.2622   -7.9966 C   0  0  0  0  0  0  0  0  0  0  0  0
   16.9306  -25.8948   -8.5262 O   0  0  0  0  0  0  0  0  0  0  0  0
   17.6878  -28.1742   -2.5540 C   0  0  0  0  0  0  0  0  0  0  0  0
   16.9753  -27.4994   -3.7064 C   0  0  0  0  0  0  0  0  0  0  0  0
   17.9221  -26.8061   -4.6337 C   0  0  2  0  0  0  0  0  0  0  0  0
   18.7700  -25.7716   -3.9452 C   0  0  0  0  0  0  0  0  0  0  0  0
   17.1270  -26.1168   -5.7317 C   0  0  2  0  0  0  0  0  0  0  0  0
   17.9979  -25.3327   -6.5808 N   0  0  0  0  0  0  0  0  0  0  0  0
   16.0579  -25.2580   -5.1595 C   0  0  0  0  0  0  0  0  0  0  0  0
   16.1529  -23.9973   -5.0929 O   0  0  0  0  0  0  0  0  0  0  0  0
   14.8844  -25.8063   -4.6637 O   0  0  0  0  0  0  0  0  0  0  0  0
  2  1  1  1
  3  2  1  0
  4  3  1  0
  5  4  1  0
  6  5  2  0
  7  2  1  0
  8  7  2  0
  9  5  1  0
 10 11  1  0
 12 11  1  6
 12 14  1  0
 12 13  1  0
 13  7  1  0
 14 21  1  0
 15 14  2  0
 17 16  1  0
 18 20  1  0
 18 17  1  0
 18 19  1  1
 20 22  1  0
 20 21  1  1
 22 23  2  0
 22 24  1  0
M  END
$$$$
