ESI.pdb
     RDKit          3D

 24 23  0  0  1  0  0  0  0  0999 V2000
   14.5102  -18.8464    4.0379 N   0  0  0  0  0  0  0  0  0  0  0  0
   15.4522  -19.1630    5.1494 C   0  0  1  0  0  0  0  0  0  0  0  0
   16.5736  -19.8871    4.4853 C   0  0  0  0  0  0  0  0  0  0  0  0
   16.4828  -21.3640    4.3933 C   0  0  0  0  0  0  0  0  0  0  0  0
   17.7410  -21.9664    3.8866 C   0  0  0  0  0  0  0  0  0  0  0  0
   18.7153  -21.2887    3.4693 O   0  0  0  0  0  0  0  0  0  0  0  0
   15.8034  -17.8578    5.7288 C   0  0  0  0  0  0  0  0  0  0  0  0
   15.6801  -16.8157    5.0001 O   0  0  0  0  0  0  0  0  0  0  0  0
   17.8559  -23.3835    3.8725 O   0  0  0  0  0  0  0  0  0  0  0  0
   14.4872  -16.1317    8.8675 O   0  0  0  0  0  0  0  0  0  0  0  0
   15.8788  -16.1908    8.9656 C   0  0  0  0  0  0  0  0  0  0  0  0
   16.4130  -16.2621    7.5651 C   0  0  2  0  0  0  0  0  0  0  0  0
   16.2746  -17.6277    7.0508 N   0  0  0  0  0  0  0  0  0  0  0  0
   17.8428  -15.8783    7.5090 C   0  0  0  0  0  0  0  0  0  0  0  0
   18.7302  -16.7495    7.5962 O   0  0  0  0  0  0  0  0  0  0  0  0
   19.6456  -11.6033    4.5397 C   0  0  0  0  0  0  0  0  0  0  0  0
   19.5559  -12.9130    5.2933 C   0  0  0  0  0  0  0  0  0  0  0  0
   19.8194  -12.7472    6.7561 C   0  0  2  0  0  0  0  0  0  0  0  0
   21.2098  -12.2552    7.0526 C   0  0  0  0  0  0  0  0  0  0  0  0
   19.6298  -14.0872    7.4501 C   0  0  2  0  0  0  0  0  0  0  0  0
   18.2533  -14.5238    7.3555 N   0  0  0  0  0  0  0  0  0  0  0  0
   20.0498  -14.0167    8.8736 C   0  0  0  0  0  0  0  0  0  0  0  0
   21.2567  -14.1294    9.2392 O   0  0  0  0  0  0  0  0  0  0  0  0
   19.1235  -13.8195    9.8869 O   0  0  0  0  0  0  0  0  0  0  0  0
  2  1  1  6
  3  2  1  0
  4  3  1  0
  5  4  1  0
  6  5  2  0
  7  2  1  0
  8  7  2  0
  9  5  1  0
 10 11  1  0
 12 11  1  1
 12 14  1  0
 12 13  1  0
 13  7  1  0
 14 21  1  0
 15 14  2  0
 17 16  1  0
 18 20  1  0
 18 17  1  0
 18 19  1  6
 20 22  1  0
 20 21  1  1
 22 23  2  0
 22 24  1  0
M  END
$$$$
