VLW.pdb
     RDKit          3D

 30 31  0  0  1  0  0  0  0  0999 V2000
   17.6036  -10.8034  -15.7741 C   0  0  0  0  0  0  0  0  0  0  0  0
   18.7357  -11.6145  -16.3628 C   0  0  1  0  0  0  0  0  0  0  0  0
   18.4792  -13.1032  -16.2329 C   0  0  0  0  0  0  0  0  0  0  0  0
   18.9606  -11.2327  -17.8257 C   0  0  2  0  0  0  0  0  0  0  0  0
   19.9730  -12.0559  -18.4115 N   0  0  0  0  0  0  0  0  0  0  0  0
   19.3776   -9.7808  -17.8096 C   0  0  0  0  0  0  0  0  0  0  0  0
   20.5278   -9.4439  -17.5033 O   0  0  0  0  0  0  0  0  0  0  0  0
   19.9345   -6.4584  -20.8250 C   0  0  0  0  0  0  0  0  0  0  0  0
   18.4598   -6.8207  -20.6780 C   0  0  2  0  0  0  0  0  0  0  0  0
   17.6698   -6.2176  -21.7614 C   0  0  0  0  0  0  0  0  0  0  0  0
   18.0284   -6.6174  -19.2867 C   0  0  0  0  0  0  0  0  0  0  0  0
   18.7207   -7.3511  -18.1976 C   0  0  2  0  0  0  0  0  0  0  0  0
   18.4507   -8.7605  -18.1481 N   0  0  0  0  0  0  0  0  0  0  0  0
   18.6734   -6.6868  -16.8832 C   0  0  0  0  0  0  0  0  0  0  0  0
   17.9295   -7.1644  -16.0006 O   0  0  0  0  0  0  0  0  0  0  0  0
   19.4171   -5.5348  -16.5461 N   0  0  0  0  0  0  0  0  0  0  0  0
   19.4845   -4.9820  -15.1756 C   0  0  1  0  0  0  0  0  0  0  0  0
   19.9623   -5.9930  -14.2163 C   0  0  0  0  0  0  0  0  0  0  0  0
   21.3548   -6.3744  -14.4504 C   0  0  0  0  0  0  0  0  0  0  0  0
   22.4275   -5.5074  -14.5965 C   0  0  0  0  0  0  0  0  0  0  0  0
   23.5473   -6.1954  -14.8401 N   0  0  0  0  0  0  0  0  0  0  0  0
   23.2604   -7.5035  -14.8621 C   0  0  0  0  0  0  0  0  0  0  0  0
   24.0181   -8.6425  -15.0468 C   0  0  0  0  0  0  0  0  0  0  0  0
   23.4701   -9.8852  -14.9977 C   0  0  0  0  0  0  0  0  0  0  0  0
   22.1225  -10.0404  -14.7583 C   0  0  0  0  0  0  0  0  0  0  0  0
   21.3524   -8.9227  -14.5733 C   0  0  0  0  0  0  0  0  0  0  0  0
   21.8898   -7.6575  -14.6203 C   0  0  0  0  0  0  0  0  0  0  0  0
   20.2125   -3.7191  -15.1665 C   0  0  0  0  0  0  0  0  0  0  0  0
   20.8052   -3.1754  -16.1240 O   0  0  0  0  0  0  0  0  0  0  0  0
   20.2774   -2.9986  -13.9551 O   0  0  0  0  0  0  0  0  0  0  0  0
  2  1  1  6
  3  2  1  0
  4  2  1  0
  4  5  1  1
  6  7  2  0
  6  4  1  0
  9  8  1  1
  9 11  1  0
 10  9  1  0
 12 11  1  6
 12 13  1  0
 13  6  1  0
 14 12  1  0
 14 16  1  0
 15 14  2  0
 17 16  1  0
 17 28  1  0
 17 18  1  1
 19 18  1  0
 20 19  2  0
 21 22  1  0
 21 20  1  0
 22 27  2  0
 23 24  2  0
 23 22  1  0
 24 25  1  0
 25 26  2  0
 27 19  1  0
 27 26  1  0
 28 29  2  0
 28 30  1  0
M  END
$$$$
