VLW.pdb
     RDKit          3D

 30 31  0  0  1  0  0  0  0  0999 V2000
   25.6652  -24.6756  -18.7978 C   0  0  0  0  0  0  0  0  0  0  0  0
   26.0141  -23.9570  -17.5140 C   0  0  1  0  0  0  0  0  0  0  0  0
   26.2907  -24.9336  -16.3877 C   0  0  0  0  0  0  0  0  0  0  0  0
   27.2110  -23.0311  -17.7297 C   0  0  2  0  0  0  0  0  0  0  0  0
   28.3730  -23.7846  -18.0871 N   0  0  0  0  0  0  0  0  0  0  0  0
   27.4099  -22.3082  -16.4183 C   0  0  0  0  0  0  0  0  0  0  0  0
   28.1904  -22.7352  -15.5587 O   0  0  0  0  0  0  0  0  0  0  0  0
   29.1161  -18.6060  -15.4994 C   0  0  0  0  0  0  0  0  0  0  0  0
   27.7041  -18.2467  -15.9521 C   0  0  2  0  0  0  0  0  0  0  0  0
   27.5950  -16.8024  -16.2043 C   0  0  0  0  0  0  0  0  0  0  0  0
   26.7155  -18.8907  -15.0740 C   0  0  0  0  0  0  0  0  0  0  0  0
   26.7404  -20.3663  -14.9127 C   0  0  2  0  0  0  0  0  0  0  0  0
   26.6989  -21.1117  -16.1393 N   0  0  0  0  0  0  0  0  0  0  0  0
   25.8407  -20.8849  -13.8674 C   0  0  0  0  0  0  0  0  0  0  0  0
   24.6479  -21.1073  -14.1643 O   0  0  0  0  0  0  0  0  0  0  0  0
   26.2349  -21.1510  -12.5378 N   0  0  0  0  0  0  0  0  0  0  0  0
   25.2864  -21.5325  -11.4687 C   0  0  1  0  0  0  0  0  0  0  0  0
   25.9980  -22.0165  -10.2730 C   0  0  0  0  0  0  0  0  0  0  0  0
   26.3609  -20.9335   -9.3594 C   0  0  0  0  0  0  0  0  0  0  0  0
   25.6775  -19.7379   -9.1949 C   0  0  0  0  0  0  0  0  0  0  0  0
   26.3113  -18.9618   -8.3101 N   0  0  0  0  0  0  0  0  0  0  0  0
   27.4038  -19.6008   -7.8720 C   0  0  0  0  0  0  0  0  0  0  0  0
   28.3913  -19.2854   -6.9605 C   0  0  0  0  0  0  0  0  0  0  0  0
   29.4050  -20.1442   -6.6742 C   0  0  0  0  0  0  0  0  0  0  0  0
   29.4723  -21.3708   -7.2974 C   0  0  0  0  0  0  0  0  0  0  0  0
   28.5027  -21.7029   -8.2062 C   0  0  0  0  0  0  0  0  0  0  0  0
   27.4701  -20.8462   -8.5088 C   0  0  0  0  0  0  0  0  0  0  0  0
   24.3225  -20.4648  -11.2323 C   0  0  0  0  0  0  0  0  0  0  0  0
   23.1938  -20.5619  -10.7029 O   0  0  0  0  0  0  0  0  0  0  0  0
   24.6680  -19.1571  -11.6340 O   0  0  0  0  0  0  0  0  0  0  0  0
  2  1  1  6
  3  2  1  0
  4  2  1  0
  4  5  1  1
  6  7  2  0
  6  4  1  0
  9  8  1  1
  9 11  1  0
 10  9  1  0
 12 11  1  6
 12 13  1  0
 13  6  1  0
 14 12  1  0
 14 16  1  0
 15 14  2  0
 17 16  1  0
 17 28  1  0
 17 18  1  1
 19 18  1  0
 20 19  2  0
 21 22  1  0
 21 20  1  0
 22 27  2  0
 23 24  2  0
 23 22  1  0
 24 25  1  0
 25 26  2  0
 27 19  1  0
 27 26  1  0
 28 29  2  0
 28 30  1  0
M  END
$$$$
