VLW.pdb
     RDKit          3D

 30 31  0  0  1  0  0  0  0  0999 V2000
   26.6493  -18.3045  -14.1690 C   0  0  0  0  0  0  0  0  0  0  0  0
   27.3329  -19.3892  -14.9706 C   0  0  1  0  0  0  0  0  0  0  0  0
   28.3503  -18.8107  -15.9345 C   0  0  0  0  0  0  0  0  0  0  0  0
   27.9918  -20.4058  -14.0386 C   0  0  2  0  0  0  0  0  0  0  0  0
   28.7122  -21.3862  -14.7907 N   0  0  0  0  0  0  0  0  0  0  0  0
   26.8626  -21.0364  -13.2580 C   0  0  0  0  0  0  0  0  0  0  0  0
   26.2250  -21.9960  -13.7082 O   0  0  0  0  0  0  0  0  0  0  0  0
   28.0516  -21.2037   -9.2252 C   0  0  0  0  0  0  0  0  0  0  0  0
   26.8726  -20.2356   -9.2052 C   0  0  2  0  0  0  0  0  0  0  0  0
   26.8171  -19.5164   -7.9241 C   0  0  0  0  0  0  0  0  0  0  0  0
   25.6603  -20.9095   -9.6942 C   0  0  0  0  0  0  0  0  0  0  0  0
   25.4242  -21.0075  -11.1566 C   0  0  2  0  0  0  0  0  0  0  0  0
   26.5037  -20.5374  -11.9785 N   0  0  0  0  0  0  0  0  0  0  0  0
   24.0947  -20.5486  -11.5960 C   0  0  0  0  0  0  0  0  0  0  0  0
   23.6675  -19.4577  -11.1625 O   0  0  0  0  0  0  0  0  0  0  0  0
   23.2586  -21.2626  -12.4820 N   0  0  0  0  0  0  0  0  0  0  0  0
   21.9482  -20.7589  -12.9482 C   0  0  1  0  0  0  0  0  0  0  0  0
   22.0639  -19.3930  -13.4879 C   0  0  0  0  0  0  0  0  0  0  0  0
   22.8876  -19.3347  -14.6951 C   0  0  0  0  0  0  0  0  0  0  0  0
   23.1360  -20.3836  -15.5679 C   0  0  0  0  0  0  0  0  0  0  0  0
   23.9642  -19.9889  -16.5400 N   0  0  0  0  0  0  0  0  0  0  0  0
   24.2816  -18.7020  -16.3480 C   0  0  0  0  0  0  0  0  0  0  0  0
   25.0661  -17.8004  -17.0390 C   0  0  0  0  0  0  0  0  0  0  0  0
   25.2068  -16.5115  -16.6317 C   0  0  0  0  0  0  0  0  0  0  0  0
   24.5591  -16.0665  -15.5004 C   0  0  0  0  0  0  0  0  0  0  0  0
   23.7766  -16.9456  -14.7995 C   0  0  0  0  0  0  0  0  0  0  0  0
   23.6231  -18.2535  -15.1966 C   0  0  0  0  0  0  0  0  0  0  0  0
   21.3104  -21.7275  -13.8314 C   0  0  0  0  0  0  0  0  0  0  0  0
   21.8048  -22.7808  -14.2894 O   0  0  0  0  0  0  0  0  0  0  0  0
   19.9817  -21.4818  -14.2375 O   0  0  0  0  0  0  0  0  0  0  0  0
  2  1  1  1
  3  2  1  0
  4  2  1  0
  4  5  1  6
  6  7  2  0
  6  4  1  0
  9  8  1  1
  9 11  1  0
 10  9  1  0
 12 11  1  1
 12 13  1  0
 13  6  1  0
 14 12  1  0
 14 16  1  0
 15 14  2  0
 17 16  1  0
 17 28  1  0
 17 18  1  6
 19 18  1  0
 20 19  2  0
 21 22  1  0
 21 20  1  0
 22 27  2  0
 23 24  2  0
 23 22  1  0
 24 25  1  0
 25 26  2  0
 27 19  1  0
 27 26  1  0
 28 29  2  0
 28 30  1  0
M  END
$$$$
