VLW.pdb
     RDKit          3D

 30 31  0  0  1  0  0  0  0  0999 V2000
   24.4479  -18.3688  -13.3062 C   0  0  0  0  0  0  0  0  0  0  0  0
   24.5708  -18.5309  -14.8045 C   0  0  1  0  0  0  0  0  0  0  0  0
   23.8171  -17.4436  -15.5450 C   0  0  0  0  0  0  0  0  0  0  0  0
   26.0416  -18.5451  -15.2202 C   0  0  2  0  0  0  0  0  0  0  0  0
   26.1639  -18.7211  -16.6344 N   0  0  0  0  0  0  0  0  0  0  0  0
   26.6673  -19.6971  -14.4696 C   0  0  0  0  0  0  0  0  0  0  0  0
   26.3381  -20.8680  -14.6949 O   0  0  0  0  0  0  0  0  0  0  0  0
   31.4431  -20.3645  -10.4876 C   0  0  0  0  0  0  0  0  0  0  0  0
   30.2727  -21.0392  -11.1965 C   0  0  2  0  0  0  0  0  0  0  0  0
   30.7131  -22.2776  -11.8552 C   0  0  0  0  0  0  0  0  0  0  0  0
   29.5199  -20.0476  -11.9794 C   0  0  0  0  0  0  0  0  0  0  0  0
   28.2314  -20.4415  -12.6027 C   0  0  2  0  0  0  0  0  0  0  0  0
   27.6561  -19.4602  -13.4791 N   0  0  0  0  0  0  0  0  0  0  0  0
   27.2641  -21.0564  -11.6767 C   0  0  0  0  0  0  0  0  0  0  0  0
   27.1097  -22.2954  -11.7125 O   0  0  0  0  0  0  0  0  0  0  0  0
   26.4893  -20.3365  -10.7412 N   0  0  0  0  0  0  0  0  0  0  0  0
   25.5996  -20.9834   -9.7521 C   0  0  1  0  0  0  0  0  0  0  0  0
   26.3557  -21.4369   -8.5718 C   0  0  0  0  0  0  0  0  0  0  0  0
   26.9285  -20.3263   -7.8117 C   0  0  0  0  0  0  0  0  0  0  0  0
   26.8897  -18.9859   -8.1661 C   0  0  0  0  0  0  0  0  0  0  0  0
   27.5482  -18.2508   -7.2645 N   0  0  0  0  0  0  0  0  0  0  0  0
   28.0302  -19.0580   -6.3106 C   0  0  0  0  0  0  0  0  0  0  0  0
   28.7542  -18.8419   -5.1553 C   0  0  0  0  0  0  0  0  0  0  0  0
   29.1065  -19.8607   -4.3276 C   0  0  0  0  0  0  0  0  0  0  0  0
   28.7432  -21.1552   -4.6269 C   0  0  0  0  0  0  0  0  0  0  0  0
   28.0253  -21.3915   -5.7694 C   0  0  0  0  0  0  0  0  0  0  0  0
   27.6608  -20.3730   -6.6188 C   0  0  0  0  0  0  0  0  0  0  0  0
   24.4466  -20.1378   -9.4682 C   0  0  0  0  0  0  0  0  0  0  0  0
   24.2181  -18.9897   -9.9081 O   0  0  0  0  0  0  0  0  0  0  0  0
   23.4529  -20.6390   -8.6010 O   0  0  0  0  0  0  0  0  0  0  0  0
  2  1  1  1
  3  2  1  0
  4  2  1  0
  4  5  1  6
  6  7  2  0
  6  4  1  0
  9  8  1  6
  9 11  1  0
 10  9  1  0
 12 11  1  1
 12 13  1  0
 13  6  1  0
 14 12  1  0
 14 16  1  0
 15 14  2  0
 17 16  1  0
 17 28  1  0
 17 18  1  1
 19 18  1  0
 20 19  2  0
 21 22  1  0
 21 20  1  0
 22 27  2  0
 23 24  2  0
 23 22  1  0
 24 25  1  0
 25 26  2  0
 27 19  1  0
 27 26  1  0
 28 29  2  0
 28 30  1  0
M  END
$$$$
