VLW.pdb
     RDKit          3D

 30 31  0  0  1  0  0  0  0  0999 V2000
   26.4105  -25.2065  -19.2958 C   0  0  0  0  0  0  0  0  0  0  0  0
   26.2989  -24.4821  -17.9734 C   0  0  1  0  0  0  0  0  0  0  0  0
   25.6191  -25.3406  -16.9248 C   0  0  0  0  0  0  0  0  0  0  0  0
   27.6792  -24.0361  -17.4916 C   0  0  2  0  0  0  0  0  0  0  0  0
   28.4884  -25.1687  -17.1626 N   0  0  0  0  0  0  0  0  0  0  0  0
   27.4289  -23.1717  -16.2783 C   0  0  0  0  0  0  0  0  0  0  0  0
   27.4240  -23.6487  -15.1369 O   0  0  0  0  0  0  0  0  0  0  0  0
   29.4246  -19.1488  -15.1856 C   0  0  0  0  0  0  0  0  0  0  0  0
   28.3353  -18.8857  -16.2209 C   0  0  2  0  0  0  0  0  0  0  0  0
   28.3981  -17.4951  -16.6938 C   0  0  0  0  0  0  0  0  0  0  0  0
   27.0492  -19.4158  -15.7432 C   0  0  0  0  0  0  0  0  0  0  0  0
   26.9522  -20.8458  -15.3569 C   0  0  2  0  0  0  0  0  0  0  0  0
   27.1908  -21.7796  -16.4213 N   0  0  0  0  0  0  0  0  0  0  0  0
   25.7853  -21.1781  -14.5206 C   0  0  0  0  0  0  0  0  0  0  0  0
   24.7204  -21.5046  -15.0861 O   0  0  0  0  0  0  0  0  0  0  0  0
   25.7846  -21.1528  -13.1088 N   0  0  0  0  0  0  0  0  0  0  0  0
   24.5962  -21.4774  -12.2898 C   0  0  1  0  0  0  0  0  0  0  0  0
   24.9858  -22.0441  -10.9869 C   0  0  0  0  0  0  0  0  0  0  0  0
   25.7353  -21.0952  -10.1640 C   0  0  0  0  0  0  0  0  0  0  0  0
   25.1956  -20.0797   -9.3886 C   0  0  0  0  0  0  0  0  0  0  0  0
   26.1709  -19.3779   -8.8030 N   0  0  0  0  0  0  0  0  0  0  0  0
   27.3547  -19.8919   -9.1613 C   0  0  0  0  0  0  0  0  0  0  0  0
   28.6628  -19.5821   -8.8472 C   0  0  0  0  0  0  0  0  0  0  0  0
   29.7083  -20.2956   -9.3421 C   0  0  0  0  0  0  0  0  0  0  0  0
   29.4838  -21.3630  -10.1833 C   0  0  0  0  0  0  0  0  0  0  0  0
   28.1931  -21.6865  -10.5084 C   0  0  0  0  0  0  0  0  0  0  0  0
   27.1229  -20.9753  -10.0176 C   0  0  0  0  0  0  0  0  0  0  0  0
   23.6878  -20.3389  -12.2292 C   0  0  0  0  0  0  0  0  0  0  0  0
   23.9607  -19.1358  -12.4336 O   0  0  0  0  0  0  0  0  0  0  0  0
   22.3365  -20.5840  -11.9055 O   0  0  0  0  0  0  0  0  0  0  0  0
  2  1  1  6
  3  2  1  0
  4  2  1  0
  4  5  1  1
  6  7  2  0
  6  4  1  0
  9  8  1  1
  9 11  1  0
 10  9  1  0
 12 11  1  6
 12 13  1  0
 13  6  1  0
 14 12  1  0
 14 16  1  0
 15 14  2  0
 17 16  1  0
 17 28  1  0
 17 18  1  1
 19 18  1  0
 20 19  2  0
 21 22  1  0
 21 20  1  0
 22 27  2  0
 23 24  2  0
 23 22  1  0
 24 25  1  0
 25 26  2  0
 27 19  1  0
 27 26  1  0
 28 29  2  0
 28 30  1  0
M  END
$$$$
