VLW.pdb
     RDKit          3D

 30 31  0  0  1  0  0  0  0  0999 V2000
   21.9289  -17.3599  -18.1353 C   0  0  0  0  0  0  0  0  0  0  0  0
   23.0305  -18.3588  -17.8613 C   0  0  1  0  0  0  0  0  0  0  0  0
   24.3730  -17.8549  -18.3537 C   0  0  0  0  0  0  0  0  0  0  0  0
   23.0931  -18.6876  -16.3699 C   0  0  2  0  0  0  0  0  0  0  0  0
   23.4860  -17.5372  -15.6162 N   0  0  0  0  0  0  0  0  0  0  0  0
   24.1070  -19.7997  -16.2388 C   0  0  0  0  0  0  0  0  0  0  0  0
   23.8765  -20.9362  -16.6694 O   0  0  0  0  0  0  0  0  0  0  0  0
   27.2613  -17.6818  -14.9555 C   0  0  0  0  0  0  0  0  0  0  0  0
   28.2130  -18.8571  -14.7539 C   0  0  2  0  0  0  0  0  0  0  0  0
   29.6108  -18.4093  -14.8372 C   0  0  0  0  0  0  0  0  0  0  0  0
   27.7831  -19.9988  -15.5754 C   0  0  0  0  0  0  0  0  0  0  0  0
   26.4051  -20.5282  -15.4179 C   0  0  2  0  0  0  0  0  0  0  0  0
   25.3587  -19.5642  -15.6122 N   0  0  0  0  0  0  0  0  0  0  0  0
   26.2103  -21.3927  -14.2407 C   0  0  0  0  0  0  0  0  0  0  0  0
   26.8742  -22.4477  -14.1596 O   0  0  0  0  0  0  0  0  0  0  0  0
   25.3156  -21.1109  -13.1853 N   0  0  0  0  0  0  0  0  0  0  0  0
   24.9873  -22.0794  -12.1163 C   0  0  1  0  0  0  0  0  0  0  0  0
   26.0801  -22.1783  -11.1332 C   0  0  0  0  0  0  0  0  0  0  0  0
   26.0632  -21.0835  -10.1635 C   0  0  0  0  0  0  0  0  0  0  0  0
   25.0614  -20.1357  -10.0165 C   0  0  0  0  0  0  0  0  0  0  0  0
   25.3922  -19.2583   -9.0639 N   0  0  0  0  0  0  0  0  0  0  0  0
   26.5898  -19.5878   -8.5631 C   0  0  0  0  0  0  0  0  0  0  0  0
   27.3873  -19.0547   -7.5704 C   0  0  0  0  0  0  0  0  0  0  0  0
   28.5813  -19.6095   -7.2332 C   0  0  0  0  0  0  0  0  0  0  0  0
   29.0317  -20.7363   -7.8851 C   0  0  0  0  0  0  0  0  0  0  0  0
   28.2559  -21.2806   -8.8742 C   0  0  0  0  0  0  0  0  0  0  0  0
   27.0455  -20.7322   -9.2290 C   0  0  0  0  0  0  0  0  0  0  0  0
   23.6692  -21.8019  -11.5590 C   0  0  0  0  0  0  0  0  0  0  0  0
   23.0624  -22.4520  -10.6799 O   0  0  0  0  0  0  0  0  0  0  0  0
   22.9665  -20.6782  -12.0431 O   0  0  0  0  0  0  0  0  0  0  0  0
  2  1  1  1
  3  2  1  0
  4  2  1  0
  4  5  1  1
  6  7  2  0
  6  4  1  0
  9  8  1  6
  9 11  1  0
 10  9  1  0
 12 11  1  1
 12 13  1  0
 13  6  1  0
 14 12  1  0
 14 16  1  0
 15 14  2  0
 17 16  1  0
 17 28  1  0
 17 18  1  1
 19 18  1  0
 20 19  2  0
 21 22  1  0
 21 20  1  0
 22 27  2  0
 23 24  2  0
 23 22  1  0
 24 25  1  0
 25 26  2  0
 27 19  1  0
 27 26  1  0
 28 29  2  0
 28 30  1  0
M  END
$$$$
