VLW.pdb
     RDKit          3D

 30 31  0  0  1  0  0  0  0  0999 V2000
   22.4886  -18.4714  -14.3434 C   0  0  0  0  0  0  0  0  0  0  0  0
   22.2305  -18.2284  -15.8133 C   0  0  1  0  0  0  0  0  0  0  0  0
   21.1439  -17.1919  -16.0231 C   0  0  0  0  0  0  0  0  0  0  0  0
   23.5195  -17.8072  -16.5185 C   0  0  2  0  0  0  0  0  0  0  0  0
   23.2693  -17.5213  -17.8974 N   0  0  0  0  0  0  0  0  0  0  0  0
   24.4687  -18.9724  -16.3650 C   0  0  0  0  0  0  0  0  0  0  0  0
   24.2103  -20.0821  -16.8466 O   0  0  0  0  0  0  0  0  0  0  0  0
   28.7443  -19.2495  -17.5555 C   0  0  0  0  0  0  0  0  0  0  0  0
   28.7041  -18.5038  -16.2251 C   0  0  2  0  0  0  0  0  0  0  0  0
   30.0146  -17.9074  -15.9281 C   0  0  0  0  0  0  0  0  0  0  0  0
   28.0546  -19.3365  -15.2014 C   0  0  0  0  0  0  0  0  0  0  0  0
   26.6780  -19.8382  -15.4403 C   0  0  2  0  0  0  0  0  0  0  0  0
   25.6898  -18.8193  -15.6577 N   0  0  0  0  0  0  0  0  0  0  0  0
   26.2448  -20.9043  -14.5200 C   0  0  0  0  0  0  0  0  0  0  0  0
   26.2157  -22.0799  -14.9413 O   0  0  0  0  0  0  0  0  0  0  0  0
   25.8548  -20.6895  -13.1800 N   0  0  0  0  0  0  0  0  0  0  0  0
   25.1910  -21.7191  -12.3507 C   0  0  1  0  0  0  0  0  0  0  0  0
   26.0970  -22.2269  -11.3058 C   0  0  0  0  0  0  0  0  0  0  0  0
   26.2828  -21.2733  -10.2124 C   0  0  0  0  0  0  0  0  0  0  0  0
   25.2781  -20.5957   -9.5378 C   0  0  0  0  0  0  0  0  0  0  0  0
   25.8073  -19.7729   -8.6270 N   0  0  0  0  0  0  0  0  0  0  0  0
   27.1420  -19.8765   -8.6676 C   0  0  0  0  0  0  0  0  0  0  0  0
   28.1660  -19.2866   -7.9542 C   0  0  0  0  0  0  0  0  0  0  0  0
   29.4702  -19.5918   -8.1844 C   0  0  0  0  0  0  0  0  0  0  0  0
   29.8070  -20.5128   -9.1517 C   0  0  0  0  0  0  0  0  0  0  0  0
   28.8059  -21.1091   -9.8719 C   0  0  0  0  0  0  0  0  0  0  0  0
   27.4809  -20.8119   -9.6530 C   0  0  0  0  0  0  0  0  0  0  0  0
   23.8973  -21.2419  -11.8776 C   0  0  0  0  0  0  0  0  0  0  0  0
   23.4680  -20.0675  -11.8913 O   0  0  0  0  0  0  0  0  0  0  0  0
   22.9993  -22.1853  -11.3353 O   0  0  0  0  0  0  0  0  0  0  0  0
  2  1  1  1
  3  2  1  0
  4  2  1  0
  4  5  1  6
  6  7  2  0
  6  4  1  0
  9  8  1  6
  9 11  1  0
 10  9  1  0
 12 11  1  1
 12 13  1  0
 13  6  1  0
 14 12  1  0
 14 16  1  0
 15 14  2  0
 17 16  1  0
 17 28  1  0
 17 18  1  1
 19 18  1  0
 20 19  2  0
 21 22  1  0
 21 20  1  0
 22 27  2  0
 23 24  2  0
 23 22  1  0
 24 25  1  0
 25 26  2  0
 27 19  1  0
 27 26  1  0
 28 29  2  0
 28 30  1  0
M  END
$$$$
