VLW.pdb
     RDKit          3D

 30 31  0  0  1  0  0  0  0  0999 V2000
   23.1616  -32.3824  -15.4857 C   0  0  0  0  0  0  0  0  0  0  0  0
   22.8030  -32.9194  -14.1185 C   0  0  1  0  0  0  0  0  0  0  0  0
   21.5067  -33.7051  -14.1523 C   0  0  0  0  0  0  0  0  0  0  0  0
   23.9401  -33.7804  -13.5689 C   0  0  2  0  0  0  0  0  0  0  0  0
   24.1266  -34.9451  -14.3779 N   0  0  0  0  0  0  0  0  0  0  0  0
   23.5293  -34.1509  -12.1632 C   0  0  0  0  0  0  0  0  0  0  0  0
   23.1855  -35.3036  -11.8748 O   0  0  0  0  0  0  0  0  0  0  0  0
   25.8794  -34.2878   -8.5231 C   0  0  0  0  0  0  0  0  0  0  0  0
   25.5569  -32.8202   -8.7875 C   0  0  2  0  0  0  0  0  0  0  0  0
   26.3850  -31.9493   -7.9406 C   0  0  0  0  0  0  0  0  0  0  0  0
   24.0999  -32.6201   -8.8011 C   0  0  0  0  0  0  0  0  0  0  0  0
   23.2671  -33.4134   -9.7397 C   0  0  2  0  0  0  0  0  0  0  0  0
   23.5278  -33.1758  -11.1317 N   0  0  0  0  0  0  0  0  0  0  0  0
   21.8342  -33.4607   -9.3995 C   0  0  0  0  0  0  0  0  0  0  0  0
   21.5106  -33.6479   -8.2076 O   0  0  0  0  0  0  0  0  0  0  0  0
   20.7882  -33.3084  -10.3358 N   0  0  0  0  0  0  0  0  0  0  0  0
   19.3714  -33.1276   -9.9507 C   0  0  1  0  0  0  0  0  0  0  0  0
   19.2128  -31.9976   -9.0187 C   0  0  0  0  0  0  0  0  0  0  0  0
   18.8941  -32.4323   -7.6591 C   0  0  0  0  0  0  0  0  0  0  0  0
   19.5042  -33.4676   -6.9666 C   0  0  0  0  0  0  0  0  0  0  0  0
   18.9363  -33.6176   -5.7659 N   0  0  0  0  0  0  0  0  0  0  0  0
   17.9596  -32.7116   -5.6282 C   0  0  0  0  0  0  0  0  0  0  0  0
   17.0789  -32.4067   -4.6098 C   0  0  0  0  0  0  0  0  0  0  0  0
   16.1764  -31.3965   -4.7195 C   0  0  0  0  0  0  0  0  0  0  0  0
   16.1179  -30.6399   -5.8691 C   0  0  0  0  0  0  0  0  0  0  0  0
   16.9825  -30.9267   -6.8922 C   0  0  0  0  0  0  0  0  0  0  0  0
   17.9018  -31.9456   -6.7989 C   0  0  0  0  0  0  0  0  0  0  0  0
   18.5192  -33.0867  -11.1326 C   0  0  0  0  0  0  0  0  0  0  0  0
   18.8729  -33.1702  -12.3291 O   0  0  0  0  0  0  0  0  0  0  0  0
   17.1290  -32.9366  -10.9442 O   0  0  0  0  0  0  0  0  0  0  0  0
  2  1  1  6
  3  2  1  0
  4  2  1  0
  4  5  1  6
  6  7  2  0
  6  4  1  0
  9  8  1  1
  9 11  1  0
 10  9  1  0
 12 11  1  1
 12 13  1  0
 13  6  1  0
 14 12  1  0
 14 16  1  0
 15 14  2  0
 17 16  1  0
 17 28  1  0
 17 18  1  6
 19 18  1  0
 20 19  2  0
 21 22  1  0
 21 20  1  0
 22 27  2  0
 23 24  2  0
 23 22  1  0
 24 25  1  0
 25 26  2  0
 27 19  1  0
 27 26  1  0
 28 29  2  0
 28 30  1  0
M  END
$$$$
