MII.pdb
     RDKit          3D

 25 24  0  0  1  0  0  0  0  0999 V2000
   14.2472  -21.7649  -12.4795 C   0  0  0  0  0  0  0  0  0  0  0  0
   14.9817  -21.1799  -14.0195 S   0  0  0  0  0  0  0  0  0  0  0  0
   16.7969  -21.4027  -13.9984 C   0  0  0  0  0  0  0  0  0  0  0  0
   17.2060  -22.1631  -12.7306 C   0  0  0  0  0  0  0  0  0  0  0  0
   18.7348  -22.2088  -12.7388 C   0  0  2  0  0  0  0  0  0  0  0  0
   19.1185  -23.0597  -13.8220 N   0  0  0  0  0  0  0  0  0  0  0  0
   19.2445  -22.6704  -11.4231 C   0  0  0  0  0  0  0  0  0  0  0  0
   19.2987  -23.9106  -11.2336 O   0  0  0  0  0  0  0  0  0  0  0  0
   23.2236  -20.2339   -8.5202 C   0  0  0  0  0  0  0  0  0  0  0  0
   22.3522  -21.2563   -9.2960 C   0  0  0  0  0  0  0  0  0  0  0  0
   21.1206  -21.4565   -8.4612 C   0  0  2  0  0  0  0  0  0  0  0  0
   21.5964  -21.9513   -7.1122 C   0  0  0  0  0  0  0  0  0  0  0  0
   20.1379  -22.3591   -9.1059 C   0  0  2  0  0  0  0  0  0  0  0  0
   19.6682  -21.8210  -10.3811 N   0  0  0  0  0  0  0  0  0  0  0  0
   18.9631  -22.6386   -8.2384 C   0  0  0  0  0  0  0  0  0  0  0  0
   18.0540  -21.8048   -8.0454 O   0  0  0  0  0  0  0  0  0  0  0  0
   14.5643  -26.3550   -6.9699 C   0  0  0  0  0  0  0  0  0  0  0  0
   15.6144  -25.4170   -6.4321 C   0  0  0  0  0  0  0  0  0  0  0  0
   16.6886  -25.1143   -7.4541 C   0  0  2  0  0  0  0  0  0  0  0  0
   17.3638  -26.3347   -7.9924 C   0  0  0  0  0  0  0  0  0  0  0  0
   17.6640  -24.1555   -6.7926 C   0  0  2  0  0  0  0  0  0  0  0  0
   18.8211  -23.9025   -7.5737 N   0  0  0  0  0  0  0  0  0  0  0  0
   17.9849  -24.6163   -5.4078 C   0  0  0  0  0  0  0  0  0  0  0  0
   19.2485  -24.9467   -4.9805 O   0  0  0  0  0  0  0  0  0  0  0  0
   17.0323  -24.7025   -4.5951 O   0  0  0  0  0  0  0  0  0  0  0  0
  1  2  1  0
  3  2  1  0
  3  4  1  0
  5  4  1  0
  5  6  1  6
  7  5  1  0
  8  7  2  0
 10  9  1  0
 11 13  1  0
 11 10  1  0
 11 12  1  1
 13 14  1  6
 14  7  1  0
 15 22  1  0
 15 13  1  0
 16 15  2  0
 18 19  1  0
 18 17  1  0
 19 20  1  1
 21 22  1  6
 21 19  1  0
 23 21  1  0
 23 24  1  0
 25 23  2  0
M  END
$$$$
