MII.pdb
     RDKit          3D

 25 24  0  0  1  0  0  0  0  0999 V2000
   19.5163  -20.4256  -10.0496 C   0  0  0  0  0  0  0  0  0  0  0  0
   19.6048  -19.3325  -11.4816 S   0  0  0  0  0  0  0  0  0  0  0  0
   21.0834  -19.7047  -12.4916 C   0  0  0  0  0  0  0  0  0  0  0  0
   22.0018  -20.6635  -11.7234 C   0  0  0  0  0  0  0  0  0  0  0  0
   23.2799  -20.7834  -12.5549 C   0  0  2  0  0  0  0  0  0  0  0  0
   22.9824  -21.6541  -13.6495 N   0  0  0  0  0  0  0  0  0  0  0  0
   24.4015  -21.2667  -11.7109 C   0  0  0  0  0  0  0  0  0  0  0  0
   24.4916  -22.5066  -11.5342 O   0  0  0  0  0  0  0  0  0  0  0  0
   30.1108  -21.4726  -11.2741 C   0  0  0  0  0  0  0  0  0  0  0  0
   28.8624  -21.6512  -10.3706 C   0  0  0  0  0  0  0  0  0  0  0  0
   27.7497  -20.9221  -11.0664 C   0  0  2  0  0  0  0  0  0  0  0  0
   28.2364  -19.5046  -11.2779 C   0  0  0  0  0  0  0  0  0  0  0  0
   26.4688  -21.0000  -10.3254 C   0  0  2  0  0  0  0  0  0  0  0  0
   25.3638  -20.4378  -11.0995 N   0  0  0  0  0  0  0  0  0  0  0  0
   26.5292  -20.3178   -9.0057 C   0  0  0  0  0  0  0  0  0  0  0  0
   26.1046  -19.1574   -8.8265 O   0  0  0  0  0  0  0  0  0  0  0  0
   28.6366  -20.8262   -3.1599 C   0  0  0  0  0  0  0  0  0  0  0  0
   27.7699  -20.2833   -4.2673 C   0  0  0  0  0  0  0  0  0  0  0  0
   27.9659  -21.0331   -5.5670 C   0  0  2  0  0  0  0  0  0  0  0  0
   29.4017  -21.2258   -5.9364 C   0  0  0  0  0  0  0  0  0  0  0  0
   27.1896  -20.2752   -6.6305 C   0  0  2  0  0  0  0  0  0  0  0  0
   27.0883  -20.9765   -7.8598 N   0  0  0  0  0  0  0  0  0  0  0  0
   27.7414  -18.8957   -6.7903 C   0  0  0  0  0  0  0  0  0  0  0  0
   28.7252  -18.5600   -7.6890 O   0  0  0  0  0  0  0  0  0  0  0  0
   27.2681  -17.9979   -6.0519 O   0  0  0  0  0  0  0  0  0  0  0  0
  1  2  1  0
  3  2  1  0
  3  4  1  0
  5  4  1  0
  5  6  1  6
  7  5  1  0
  8  7  2  0
 10  9  1  0
 11 13  1  0
 11 10  1  0
 11 12  1  1
 13 14  1  6
 14  7  1  0
 15 22  1  0
 15 13  1  0
 16 15  2  0
 18 19  1  0
 18 17  1  0
 19 20  1  6
 21 22  1  6
 21 19  1  0
 23 21  1  0
 23 24  1  0
 25 23  2  0
M  END
$$$$
