MII.pdb
     RDKit          3D

 25 24  0  0  1  0  0  0  0  0999 V2000
   31.7942  -23.9979  -15.3695 C   0  0  0  0  0  0  0  0  0  0  0  0
   30.6184  -24.9798  -16.3218 S   0  0  0  0  0  0  0  0  0  0  0  0
   29.3196  -23.9147  -17.0455 C   0  0  0  0  0  0  0  0  0  0  0  0
   28.8338  -22.9104  -15.9928 C   0  0  0  0  0  0  0  0  0  0  0  0
   27.8096  -22.0198  -16.6978 C   0  0  2  0  0  0  0  0  0  0  0  0
   28.5345  -21.2077  -17.6249 N   0  0  0  0  0  0  0  0  0  0  0  0
   27.0415  -21.2292  -15.7033 C   0  0  0  0  0  0  0  0  0  0  0  0
   27.5502  -20.1488  -15.3151 O   0  0  0  0  0  0  0  0  0  0  0  0
   23.5844  -20.3205  -17.1410 C   0  0  0  0  0  0  0  0  0  0  0  0
   23.7554  -19.4457  -15.8714 C   0  0  0  0  0  0  0  0  0  0  0  0
   23.7250  -20.4003  -14.7132 C   0  0  2  0  0  0  0  0  0  0  0  0
   22.8500  -19.7604  -13.6568 C   0  0  0  0  0  0  0  0  0  0  0  0
   25.0811  -20.7440  -14.2246 C   0  0  2  0  0  0  0  0  0  0  0  0
   25.7919  -21.6037  -15.1692 N   0  0  0  0  0  0  0  0  0  0  0  0
   25.0588  -21.4056  -12.8933 C   0  0  0  0  0  0  0  0  0  0  0  0
   24.7805  -22.6137  -12.7453 O   0  0  0  0  0  0  0  0  0  0  0  0
   26.8359  -19.0940   -7.8160 C   0  0  0  0  0  0  0  0  0  0  0  0
   25.9307  -19.5136   -8.9458 C   0  0  0  0  0  0  0  0  0  0  0  0
   26.2112  -20.9266   -9.4091 C   0  0  2  0  0  0  0  0  0  0  0  0
   27.5951  -21.1187   -9.9410 C   0  0  0  0  0  0  0  0  0  0  0  0
   25.1429  -21.2715  -10.4327 C   0  0  2  0  0  0  0  0  0  0  0  0
   25.3621  -20.6700  -11.6990 N   0  0  0  0  0  0  0  0  0  0  0  0
   23.7842  -20.9868   -9.8797 C   0  0  0  0  0  0  0  0  0  0  0  0
   23.1744  -21.7448   -8.9093 O   0  0  0  0  0  0  0  0  0  0  0  0
   23.1736  -19.9908  -10.3386 O   0  0  0  0  0  0  0  0  0  0  0  0
  1  2  1  0
  3  2  1  0
  3  4  1  0
  5  4  1  0
  5  6  1  6
  7  5  1  0
  8  7  2  0
 10  9  1  0
 11 13  1  0
 11 10  1  0
 11 12  1  1
 13 14  1  6
 14  7  1  0
 15 22  1  0
 15 13  1  0
 16 15  2  0
 18 19  1  0
 18 17  1  0
 19 20  1  6
 21 22  1  6
 21 19  1  0
 23 21  1  0
 23 24  1  0
 25 23  2  0
M  END
$$$$
