MII.pdb
     RDKit          3D

 25 24  0  0  1  0  0  0  0  0999 V2000
   26.2316  -17.2879  -17.6959 C   0  0  0  0  0  0  0  0  0  0  0  0
   28.0259  -17.2468  -17.5165 S   0  0  0  0  0  0  0  0  0  0  0  0
   28.6063  -18.6366  -16.4788 C   0  0  0  0  0  0  0  0  0  0  0  0
   27.4016  -19.3344  -15.8349 C   0  0  0  0  0  0  0  0  0  0  0  0
   27.9784  -20.3976  -14.8988 C   0  0  2  0  0  0  0  0  0  0  0  0
   28.5803  -21.3963  -15.7264 N   0  0  0  0  0  0  0  0  0  0  0  0
   26.9164  -20.9352  -14.0115 C   0  0  0  0  0  0  0  0  0  0  0  0
   26.3319  -21.9810  -14.3873 O   0  0  0  0  0  0  0  0  0  0  0  0
   26.7089  -20.8230   -8.5247 C   0  0  0  0  0  0  0  0  0  0  0  0
   26.6174  -21.3359   -9.9859 C   0  0  0  0  0  0  0  0  0  0  0  0
   25.4680  -20.5948  -10.6053 C   0  0  2  0  0  0  0  0  0  0  0  0
   24.2340  -20.9944   -9.8254 C   0  0  0  0  0  0  0  0  0  0  0  0
   25.3501  -20.8438  -12.0613 C   0  0  2  0  0  0  0  0  0  0  0  0
   26.5223  -20.3584  -12.7872 N   0  0  0  0  0  0  0  0  0  0  0  0
   24.1304  -20.2300  -12.6496 C   0  0  0  0  0  0  0  0  0  0  0  0
   23.9697  -18.9945  -12.7315 O   0  0  0  0  0  0  0  0  0  0  0  0
   20.6491  -20.1319  -17.3833 C   0  0  0  0  0  0  0  0  0  0  0  0
   20.7536  -19.9880  -15.8865 C   0  0  0  0  0  0  0  0  0  0  0  0
   21.9709  -20.6922  -15.3276 C   0  0  2  0  0  0  0  0  0  0  0  0
   22.0237  -22.1494  -15.6576 C   0  0  0  0  0  0  0  0  0  0  0  0
   21.9756  -20.4357  -13.8302 C   0  0  2  0  0  0  0  0  0  0  0  0
   23.0657  -21.0468  -13.1582 N   0  0  0  0  0  0  0  0  0  0  0  0
   20.6511  -20.7949  -13.2388 C   0  0  0  0  0  0  0  0  0  0  0  0
   19.5480  -19.9761  -13.2683 O   0  0  0  0  0  0  0  0  0  0  0  0
   20.5542  -21.9166  -12.6840 O   0  0  0  0  0  0  0  0  0  0  0  0
  1  2  1  0
  3  2  1  0
  3  4  1  0
  5  4  1  0
  5  6  1  6
  7  5  1  0
  8  7  2  0
 10  9  1  0
 11 13  1  0
 11 10  1  0
 11 12  1  1
 13 14  1  6
 14  7  1  0
 15 22  1  0
 15 13  1  0
 16 15  2  0
 18 19  1  0
 18 17  1  0
 19 20  1  1
 21 22  1  1
 21 19  1  0
 23 21  1  0
 23 24  1  0
 25 23  2  0
M  END
$$$$
