GAM.pdb
     RDKit          3D

 18 17  0  0  1  0  0  0  0  0999 V2000
   18.9796  -14.8288  -17.1994 N   0  0  0  0  0  0  0  0  0  0  0  0
   18.0098  -13.9524  -16.6249 C   0  0  0  0  0  0  0  0  0  0  0  0
   18.3666  -12.5316  -16.7045 C   0  0  0  0  0  0  0  0  0  0  0  0
   19.4580  -12.2509  -17.3040 O   0  0  0  0  0  0  0  0  0  0  0  0
   16.8457   -9.1773  -16.0277 C   0  0  0  0  0  0  0  0  0  0  0  0
   17.9981  -10.0898  -16.3771 C   0  0  2  0  0  0  0  0  0  0  0  0
   17.6065  -11.4627  -16.1765 N   0  0  0  0  0  0  0  0  0  0  0  0
   19.2024   -9.8050  -15.5537 C   0  0  0  0  0  0  0  0  0  0  0  0
   19.5652  -10.6114  -14.6456 O   0  0  0  0  0  0  0  0  0  0  0  0
   26.2819  -10.8004  -14.6798 C   0  0  0  0  0  0  0  0  0  0  0  0
   24.6674  -10.9082  -15.4722 S   0  0  0  0  0  0  0  0  0  0  0  0
   23.5839   -9.5400  -14.9333 C   0  0  0  0  0  0  0  0  0  0  0  0
   22.2082   -9.6760  -15.5223 C   0  0  0  0  0  0  0  0  0  0  0  0
   21.3569   -8.5248  -15.1337 C   0  0  2  0  0  0  0  0  0  0  0  0
   20.0045   -8.6518  -15.7181 N   0  0  0  0  0  0  0  0  0  0  0  0
   21.9129   -7.2025  -15.4154 C   0  0  0  0  0  0  0  0  0  0  0  0
   22.5640   -6.4726  -14.6400 O   0  0  0  0  0  0  0  0  0  0  0  0
   21.7136   -6.6494  -16.7009 O   0  0  0  0  0  0  0  0  0  0  0  0
  2  1  1  0
  3  2  1  0
  4  3  2  0
  6  5  1  1
  6  7  1  0
  7  3  1  0
  8  6  1  0
  8  9  2  0
 11 10  1  0
 12 13  1  0
 12 11  1  0
 14 13  1  6
 14 15  1  0
 15  8  1  0
 16 14  1  0
 16 18  1  0
 17 16  2  0
M  END
$$$$
