GAM.pdb
     RDKit          3D

 18 17  0  0  1  0  0  0  0  0999 V2000
   16.8746  -11.3828  -15.6792 N   0  0  0  0  0  0  0  0  0  0  0  0
   16.2117  -10.2340  -16.2080 C   0  0  0  0  0  0  0  0  0  0  0  0
   17.0520   -9.0328  -16.2659 C   0  0  0  0  0  0  0  0  0  0  0  0
   18.1791   -9.1537  -16.8527 O   0  0  0  0  0  0  0  0  0  0  0  0
   16.8309   -5.3606  -15.6158 C   0  0  0  0  0  0  0  0  0  0  0  0
   17.6011   -6.6376  -15.8576 C   0  0  2  0  0  0  0  0  0  0  0  0
   16.7159   -7.7684  -15.7300 N   0  0  0  0  0  0  0  0  0  0  0  0
   18.7291   -6.7961  -14.9026 C   0  0  0  0  0  0  0  0  0  0  0  0
   18.7018   -7.7068  -14.0215 O   0  0  0  0  0  0  0  0  0  0  0  0
   24.9619  -10.2511  -13.9492 C   0  0  0  0  0  0  0  0  0  0  0  0
   23.4350   -9.7405  -14.7579 S   0  0  0  0  0  0  0  0  0  0  0  0
   22.8829   -8.1125  -14.1404 C   0  0  0  0  0  0  0  0  0  0  0  0
   21.5893   -7.7007  -14.7845 C   0  0  0  0  0  0  0  0  0  0  0  0
   21.1575   -6.3714  -14.2870 C   0  0  2  0  0  0  0  0  0  0  0  0
   19.8768   -5.9697  -14.9076 N   0  0  0  0  0  0  0  0  0  0  0  0
   22.1431   -5.2986  -14.4097 C   0  0  0  0  0  0  0  0  0  0  0  0
   22.9311   -4.8886  -13.5329 O   0  0  0  0  0  0  0  0  0  0  0  0
   22.2491   -4.6214  -15.6460 O   0  0  0  0  0  0  0  0  0  0  0  0
  2  1  1  0
  3  2  1  0
  4  3  2  0
  6  5  1  1
  6  7  1  0
  7  3  1  0
  8  6  1  0
  8  9  2  0
 11 10  1  0
 12 13  1  0
 12 11  1  0
 14 13  1  6
 14 15  1  0
 15  8  1  0
 16 14  1  0
 16 18  1  0
 17 16  2  0
M  END
$$$$
