GAM.pdb
     RDKit          3D

 18 17  0  0  1  0  0  0  0  0999 V2000
   26.5136  -24.1340  -16.1103 N   0  0  0  0  0  0  0  0  0  0  0  0
   25.5213  -23.6712  -15.1939 C   0  0  0  0  0  0  0  0  0  0  0  0
   25.9842  -22.6036  -14.3004 C   0  0  0  0  0  0  0  0  0  0  0  0
   27.1298  -22.7679  -13.7620 O   0  0  0  0  0  0  0  0  0  0  0  0
   25.0849  -19.1074  -13.3373 C   0  0  0  0  0  0  0  0  0  0  0  0
   25.8307  -20.4060  -13.1376 C   0  0  2  0  0  0  0  0  0  0  0  0
   25.2706  -21.4225  -13.9929 N   0  0  0  0  0  0  0  0  0  0  0  0
   25.7681  -20.8721  -11.7274 C   0  0  0  0  0  0  0  0  0  0  0  0
   24.9122  -21.7376  -11.3743 O   0  0  0  0  0  0  0  0  0  0  0  0
   28.1181  -19.7371   -4.1963 C   0  0  0  0  0  0  0  0  0  0  0  0
   28.3169  -19.2993   -5.9327 S   0  0  0  0  0  0  0  0  0  0  0  0
   27.1690  -20.2571   -6.9822 C   0  0  0  0  0  0  0  0  0  0  0  0
   27.4074  -19.9767   -8.4391 C   0  0  0  0  0  0  0  0  0  0  0  0
   26.4307  -20.7121   -9.2796 C   0  0  2  0  0  0  0  0  0  0  0  0
   26.6304  -20.3993  -10.7110 N   0  0  0  0  0  0  0  0  0  0  0  0
   25.0259  -20.5448   -8.9114 C   0  0  0  0  0  0  0  0  0  0  0  0
   24.2620  -19.6132   -9.2377 O   0  0  0  0  0  0  0  0  0  0  0  0
   24.4238  -21.5277   -8.0930 O   0  0  0  0  0  0  0  0  0  0  0  0
  2  1  1  0
  3  2  1  0
  4  3  2  0
  6  5  1  1
  6  7  1  0
  7  3  1  0
  8  6  1  0
  8  9  2  0
 11 10  1  0
 12 13  1  0
 12 11  1  0
 14 13  1  1
 14 15  1  0
 15  8  1  0
 16 14  1  0
 16 18  1  0
 17 16  2  0
M  END
$$$$
