GAM.pdb
     RDKit          3D

 18 17  0  0  1  0  0  0  0  0999 V2000
   17.1360  -10.4487  -15.7598 N   0  0  0  0  0  0  0  0  0  0  0  0
   18.4495   -9.9746  -15.4619 C   0  0  0  0  0  0  0  0  0  0  0  0
   18.6351   -9.5663  -14.0650 C   0  0  0  0  0  0  0  0  0  0  0  0
   17.9240  -10.1719  -13.1950 O   0  0  0  0  0  0  0  0  0  0  0  0
   20.8743   -7.3795  -12.0004 C   0  0  0  0  0  0  0  0  0  0  0  0
   19.6640   -8.2589  -12.2110 C   0  0  2  0  0  0  0  0  0  0  0  0
   19.5280   -8.5677  -13.6127 N   0  0  0  0  0  0  0  0  0  0  0  0
   18.4147   -7.6089  -11.7355 C   0  0  0  0  0  0  0  0  0  0  0  0
   17.7903   -6.7951  -12.4800 O   0  0  0  0  0  0  0  0  0  0  0  0
   11.6695   -8.2570   -7.8686 C   0  0  0  0  0  0  0  0  0  0  0  0
   13.2695   -8.9632   -8.3018 S   0  0  0  0  0  0  0  0  0  0  0  0
   14.3726   -7.6921   -9.0116 C   0  0  0  0  0  0  0  0  0  0  0  0
   15.6889   -8.2882   -9.4239 C   0  0  0  0  0  0  0  0  0  0  0  0
   16.5634   -7.2551  -10.0313 C   0  0  2  0  0  0  0  0  0  0  0  0
   17.8506   -7.8434  -10.4599 N   0  0  0  0  0  0  0  0  0  0  0  0
   16.7928   -6.0620   -9.2183 C   0  0  0  0  0  0  0  0  0  0  0  0
   17.7886   -5.8062   -8.5107 O   0  0  0  0  0  0  0  0  0  0  0  0
   15.7982   -5.0576   -9.2030 O   0  0  0  0  0  0  0  0  0  0  0  0
  2  1  1  0
  3  2  1  0
  4  3  2  0
  6  5  1  6
  6  7  1  0
  7  3  1  0
  8  6  1  0
  8  9  2  0
 11 10  1  0
 12 13  1  0
 12 11  1  0
 14 13  1  1
 14 15  1  0
 15  8  1  0
 16 14  1  0
 16 18  1  0
 17 16  2  0
M  END
$$$$
