GAM.pdb
     RDKit          3D

 18 17  0  0  1  0  0  0  0  0999 V2000
   16.5222  -13.2154  -16.0909 N   0  0  0  0  0  0  0  0  0  0  0  0
   16.6932  -12.7392  -17.4261 C   0  0  0  0  0  0  0  0  0  0  0  0
   17.6178  -11.6061  -17.5428 C   0  0  0  0  0  0  0  0  0  0  0  0
   18.8496  -11.8914  -17.7176 O   0  0  0  0  0  0  0  0  0  0  0  0
   17.5440   -7.8707  -17.8298 C   0  0  0  0  0  0  0  0  0  0  0  0
   18.2391   -9.1949  -17.6157 C   0  0  2  0  0  0  0  0  0  0  0  0
   17.2564  -10.2407  -17.4777 N   0  0  0  0  0  0  0  0  0  0  0  0
   19.1030   -9.1804  -16.4061 C   0  0  0  0  0  0  0  0  0  0  0  0
   18.6112   -9.4180  -15.2624 O   0  0  0  0  0  0  0  0  0  0  0  0
   26.0133   -9.7712  -15.7239 C   0  0  0  0  0  0  0  0  0  0  0  0
   24.9843  -10.7015  -14.5743 S   0  0  0  0  0  0  0  0  0  0  0  0
   23.4159   -9.8245  -14.2466 C   0  0  0  0  0  0  0  0  0  0  0  0
   22.5648   -9.7591  -15.4831 C   0  0  0  0  0  0  0  0  0  0  0  0
   21.3474   -8.9474  -15.2376 C   0  0  2  0  0  0  0  0  0  0  0  0
   20.4906   -8.9093  -16.4423 N   0  0  0  0  0  0  0  0  0  0  0  0
   21.5791   -7.5951  -14.7328 C   0  0  0  0  0  0  0  0  0  0  0  0
   21.6887   -7.2386  -13.5417 O   0  0  0  0  0  0  0  0  0  0  0  0
   21.6990   -6.5404  -15.6663 O   0  0  0  0  0  0  0  0  0  0  0  0
  2  1  1  0
  3  2  1  0
  4  3  2  0
  6  5  1  1
  6  7  1  0
  7  3  1  0
  8  6  1  0
  8  9  2  0
 11 10  1  0
 12 13  1  0
 12 11  1  0
 14 13  1  6
 14 15  1  0
 15  8  1  0
 16 14  1  0
 16 18  1  0
 17 16  2  0
M  END
$$$$
