GAM.pdb
     RDKit          3D

 18 17  0  0  1  0  0  0  0  0999 V2000
   19.1110  -14.8731  -17.3303 N   0  0  0  0  0  0  0  0  0  0  0  0
   18.1435  -13.9054  -16.9228 C   0  0  0  0  0  0  0  0  0  0  0  0
   18.5952  -12.5159  -17.0556 C   0  0  0  0  0  0  0  0  0  0  0  0
   19.8123  -12.3427  -17.3989 O   0  0  0  0  0  0  0  0  0  0  0  0
   17.1707   -9.0447  -17.0080 C   0  0  0  0  0  0  0  0  0  0  0  0
   18.3018  -10.0425  -17.0951 C   0  0  2  0  0  0  0  0  0  0  0  0
   17.7987  -11.3685  -16.8361 N   0  0  0  0  0  0  0  0  0  0  0  0
   19.3871   -9.7390  -16.1256 C   0  0  0  0  0  0  0  0  0  0  0  0
   19.2770  -10.0811  -14.9102 O   0  0  0  0  0  0  0  0  0  0  0  0
   26.5523  -10.9756  -14.6716 C   0  0  0  0  0  0  0  0  0  0  0  0
   25.6437  -10.0554  -15.9261 S   0  0  0  0  0  0  0  0  0  0  0  0
   24.1285   -9.3163  -15.2231 C   0  0  0  0  0  0  0  0  0  0  0  0
   22.9569   -9.5063  -16.1446 C   0  0  0  0  0  0  0  0  0  0  0  0
   21.7259   -8.9288  -15.5511 C   0  0  2  0  0  0  0  0  0  0  0  0
   20.5817   -9.0686  -16.4773 N   0  0  0  0  0  0  0  0  0  0  0  0
   21.8367   -7.5491  -15.0809 C   0  0  0  0  0  0  0  0  0  0  0  0
   21.5382   -6.5092  -15.7034 O   0  0  0  0  0  0  0  0  0  0  0  0
   22.3343   -7.3210  -13.7776 O   0  0  0  0  0  0  0  0  0  0  0  0
  2  1  1  0
  3  2  1  0
  4  3  2  0
  6  5  1  1
  6  7  1  0
  7  3  1  0
  8  6  1  0
  8  9  2  0
 11 10  1  0
 12 13  1  0
 12 11  1  0
 14 13  1  6
 14 15  1  0
 15  8  1  0
 16 14  1  0
 16 18  1  0
 17 16  2  0
M  END
$$$$
