GAM.pdb
     RDKit          3D

 18 17  0  0  1  0  0  0  0  0999 V2000
   19.5120  -14.5172  -18.9897 N   0  0  0  0  0  0  0  0  0  0  0  0
   20.3061  -13.5501  -19.6774 C   0  0  0  0  0  0  0  0  0  0  0  0
   20.1441  -12.1800  -19.1787 C   0  0  0  0  0  0  0  0  0  0  0  0
   21.0675  -11.3514  -19.4789 O   0  0  0  0  0  0  0  0  0  0  0  0
   17.6010  -10.0189  -17.4898 C   0  0  0  0  0  0  0  0  0  0  0  0
   19.0096  -10.3525  -17.9224 C   0  0  2  0  0  0  0  0  0  0  0  0
   19.0598  -11.7112  -18.4019 N   0  0  0  0  0  0  0  0  0  0  0  0
   19.9845  -10.1954  -16.8113 C   0  0  0  0  0  0  0  0  0  0  0  0
   20.3438  -11.1986  -16.1252 O   0  0  0  0  0  0  0  0  0  0  0  0
   26.8731  -10.5772  -14.8250 C   0  0  0  0  0  0  0  0  0  0  0  0
   25.4491  -10.6150  -15.9281 S   0  0  0  0  0  0  0  0  0  0  0  0
   24.0850   -9.5957  -15.2673 C   0  0  0  0  0  0  0  0  0  0  0  0
   22.8733   -9.6753  -16.1522 C   0  0  0  0  0  0  0  0  0  0  0  0
   21.7695   -8.8501  -15.6028 C   0  0  2  0  0  0  0  0  0  0  0  0
   20.5630   -8.9561  -16.4511 N   0  0  0  0  0  0  0  0  0  0  0  0
   22.0935   -7.4473  -15.3487 C   0  0  0  0  0  0  0  0  0  0  0  0
   22.1499   -6.5191  -16.1812 O   0  0  0  0  0  0  0  0  0  0  0  0
   22.3828   -7.0539  -14.0221 O   0  0  0  0  0  0  0  0  0  0  0  0
  2  1  1  0
  3  2  1  0
  4  3  2  0
  6  5  1  1
  6  7  1  0
  7  3  1  0
  8  6  1  0
  8  9  2  0
 11 10  1  0
 12 13  1  0
 12 11  1  0
 14 13  1  6
 14 15  1  0
 15  8  1  0
 16 14  1  0
 16 18  1  0
 17 16  2  0
M  END
$$$$
