GAM.pdb
     RDKit          3D

 18 17  0  0  1  0  0  0  0  0999 V2000
   25.4549   -9.1638  -20.8419 N   0  0  0  0  0  0  0  0  0  0  0  0
   26.7512   -9.7088  -20.5942 C   0  0  0  0  0  0  0  0  0  0  0  0
   27.8355   -8.7223  -20.6532 C   0  0  0  0  0  0  0  0  0  0  0  0
   29.0187   -9.1643  -20.4687 O   0  0  0  0  0  0  0  0  0  0  0  0
   28.3851   -5.1306  -21.5620 C   0  0  0  0  0  0  0  0  0  0  0  0
   28.8082   -6.4494  -20.9585 C   0  0  2  0  0  0  0  0  0  0  0  0
   27.6751   -7.3386  -20.8952 N   0  0  0  0  0  0  0  0  0  0  0  0
   29.3682   -6.2815  -19.5918 C   0  0  0  0  0  0  0  0  0  0  0  0
   28.5983   -6.1444  -18.5944 O   0  0  0  0  0  0  0  0  0  0  0  0
   35.0340   -7.9671  -14.4287 C   0  0  0  0  0  0  0  0  0  0  0  0
   34.3130   -8.1806  -16.0660 S   0  0  0  0  0  0  0  0  0  0  0  0
   33.0077   -6.9396  -16.3706 C   0  0  0  0  0  0  0  0  0  0  0  0
   32.3665   -7.1484  -17.7133 C   0  0  0  0  0  0  0  0  0  0  0  0
   31.2975   -6.1458  -17.9437 C   0  0  2  0  0  0  0  0  0  0  0  0
   30.7549   -6.2631  -19.3143 N   0  0  0  0  0  0  0  0  0  0  0  0
   31.6569   -4.7588  -17.6537 C   0  0  0  0  0  0  0  0  0  0  0  0
   31.6804   -4.1985  -16.5386 O   0  0  0  0  0  0  0  0  0  0  0  0
   32.0268   -3.9210  -18.7306 O   0  0  0  0  0  0  0  0  0  0  0  0
  2  1  1  0
  3  2  1  0
  4  3  2  0
  6  5  1  1
  6  7  1  0
  7  3  1  0
  8  6  1  0
  8  9  2  0
 11 10  1  0
 12 13  1  0
 12 11  1  0
 14 13  1  6
 14 15  1  0
 15  8  1  0
 16 14  1  0
 16 18  1  0
 17 16  2  0
M  END
$$$$
