GAM.pdb
     RDKit          3D

 18 17  0  0  1  0  0  0  0  0999 V2000
   20.2782  -13.8406  -19.7795 N   0  0  0  0  0  0  0  0  0  0  0  0
   19.1074  -13.0871  -19.4632 C   0  0  0  0  0  0  0  0  0  0  0  0
   19.3794  -11.7079  -19.0436 C   0  0  0  0  0  0  0  0  0  0  0  0
   20.5243  -11.2343  -19.3504 O   0  0  0  0  0  0  0  0  0  0  0  0
   17.5649   -8.7449  -17.6650 C   0  0  0  0  0  0  0  0  0  0  0  0
   18.8204   -9.5069  -18.0196 C   0  0  2  0  0  0  0  0  0  0  0  0
   18.4848  -10.8730  -18.3354 N   0  0  0  0  0  0  0  0  0  0  0  0
   19.8096   -9.4960  -16.9101 C   0  0  0  0  0  0  0  0  0  0  0  0
   20.0768  -10.5611  -16.2771 O   0  0  0  0  0  0  0  0  0  0  0  0
   26.4562  -10.8946  -14.7534 C   0  0  0  0  0  0  0  0  0  0  0  0
   25.0831  -10.6901  -15.9019 S   0  0  0  0  0  0  0  0  0  0  0  0
   23.8884   -9.4578  -15.2771 C   0  0  0  0  0  0  0  0  0  0  0  0
   22.6931   -9.3570  -16.1820 C   0  0  0  0  0  0  0  0  0  0  0  0
   21.7114   -8.3828  -15.6448 C   0  0  2  0  0  0  0  0  0  0  0  0
   20.5016   -8.3349  -16.4939 N   0  0  0  0  0  0  0  0  0  0  0  0
   22.2226   -7.0339  -15.4078 C   0  0  0  0  0  0  0  0  0  0  0  0
   22.3373   -6.1093  -16.2383 O   0  0  0  0  0  0  0  0  0  0  0  0
   22.6467   -6.6955  -14.1024 O   0  0  0  0  0  0  0  0  0  0  0  0
  2  1  1  0
  3  2  1  0
  4  3  2  0
  6  5  1  1
  6  7  1  0
  7  3  1  0
  8  6  1  0
  8  9  2  0
 11 10  1  0
 12 13  1  0
 12 11  1  0
 14 13  1  6
 14 15  1  0
 15  8  1  0
 16 14  1  0
 16 18  1  0
 17 16  2  0
M  END
$$$$
