SKT.pdb
     RDKit          3D

 23 22  0  0  1  0  0  0  0  0999 V2000
   10.4964  -12.9047   18.7829 O   0  0  0  0  0  0  0  0  0  0  0  0
    9.6634  -13.0117   19.8934 C   0  0  0  0  0  0  0  0  0  0  0  0
    8.4643  -13.8826   19.5514 C   0  0  2  0  0  0  0  0  0  0  0  0
    7.5346  -13.0499   18.8113 N   0  0  0  0  0  0  0  0  0  0  0  0
    7.8459  -14.3499   20.8299 C   0  0  0  0  0  0  0  0  0  0  0  0
    6.9018  -13.6598   21.2971 O   0  0  0  0  0  0  0  0  0  0  0  0
    8.2840  -15.5157   21.5071 N   0  0  0  0  0  0  0  0  0  0  0  0
    7.7143  -15.9764   22.7276 C   0  0  1  0  0  0  0  0  0  0  0  0
    7.7452  -17.4833   22.8860 C   0  0  0  0  0  0  0  0  0  0  0  0
    7.1815  -17.9787   24.1495 C   0  0  0  0  0  0  0  0  0  0  0  0
    7.3264  -19.4593   24.2917 C   0  0  0  0  0  0  0  0  0  0  0  0
    6.7972  -20.0774   25.5316 C   0  0  0  0  0  0  0  0  0  0  0  0
    7.1023  -21.4661   25.7323 N   0  0  0  0  0  0  0  0  0  0  0  0
    8.3245  -15.3111   23.9287 C   0  0  0  0  0  0  0  0  0  0  0  0
    9.5766  -15.2694   24.0416 O   0  0  0  0  0  0  0  0  0  0  0  0
    6.8911  -11.8350   25.8755 C   0  0  0  0  0  0  0  0  0  0  0  0
    7.1136  -13.0769   26.7160 C   0  0  1  0  0  0  0  0  0  0  0  0
    5.8941  -13.7247   26.8612 O   0  0  0  0  0  0  0  0  0  0  0  0
    8.1256  -14.0102   26.0749 C   0  0  2  0  0  0  0  0  0  0  0  0
    7.5246  -14.7231   24.9489 N   0  0  0  0  0  0  0  0  0  0  0  0
    8.5447  -14.9844   27.1146 C   0  0  0  0  0  0  0  0  0  0  0  0
    8.3465  -16.2252   27.0038 O   0  0  0  0  0  0  0  0  0  0  0  0
    9.1769  -14.5436   28.2549 O   0  0  0  0  0  0  0  0  0  0  0  0
  2  1  1  0
  2  3  1  0
  3  5  1  0
  3  4  1  1
  5  6  2  0
  7  8  1  0
  7  5  1  0
  8  9  1  1
 10  9  1  0
 11 10  1  0
 11 12  1  0
 13 12  1  0
 14 15  2  0
 14  8  1  0
 17 16  1  6
 17 19  1  0
 18 17  1  0
 19 21  1  0
 19 20  1  6
 20 14  1  0
 21 23  1  0
 22 21  2  0
M  END
$$$$
