SKT.pdb
     RDKit          3D

 23 22  0  0  1  0  0  0  0  0999 V2000
    9.4028  -14.8323   13.8196 O   0  0  0  0  0  0  0  0  0  0  0  0
    8.9106  -15.6659   14.8204 C   0  0  0  0  0  0  0  0  0  0  0  0
    8.2005  -14.8333   15.8766 C   0  0  2  0  0  0  0  0  0  0  0  0
    8.1015  -13.4831   15.3543 N   0  0  0  0  0  0  0  0  0  0  0  0
    9.0269  -14.8541   17.1223 C   0  0  0  0  0  0  0  0  0  0  0  0
    9.9659  -14.0189   17.2026 O   0  0  0  0  0  0  0  0  0  0  0  0
    8.7853  -15.7639   18.1822 N   0  0  0  0  0  0  0  0  0  0  0  0
    9.5753  -15.8200   19.3652 C   0  0  1  0  0  0  0  0  0  0  0  0
    8.9972  -16.7135   20.4443 C   0  0  0  0  0  0  0  0  0  0  0  0
    9.8176  -16.8170   21.6591 C   0  0  0  0  0  0  0  0  0  0  0  0
    9.2050  -17.7200   22.6803 C   0  0  0  0  0  0  0  0  0  0  0  0
    9.9680  -17.9462   23.9317 C   0  0  0  0  0  0  0  0  0  0  0  0
    9.3084  -18.7129   24.9510 N   0  0  0  0  0  0  0  0  0  0  0  0
   11.0015  -16.1979   19.0810 C   0  0  0  0  0  0  0  0  0  0  0  0
   11.2453  -17.2615   18.4553 O   0  0  0  0  0  0  0  0  0  0  0  0
   13.5669  -14.5387   17.0972 C   0  0  0  0  0  0  0  0  0  0  0  0
   14.2108  -14.7375   18.4552 C   0  0  1  0  0  0  0  0  0  0  0  0
   14.1958  -13.5203   19.1230 O   0  0  0  0  0  0  0  0  0  0  0  0
   13.4781  -15.7879   19.2714 C   0  0  2  0  0  0  0  0  0  0  0  0
   12.0918  -15.3845   19.5006 N   0  0  0  0  0  0  0  0  0  0  0  0
   14.1846  -15.9046   20.5725 C   0  0  0  0  0  0  0  0  0  0  0  0
   13.6393  -15.6110   21.6715 O   0  0  0  0  0  0  0  0  0  0  0  0
   15.4870  -16.3480   20.6105 O   0  0  0  0  0  0  0  0  0  0  0  0
  2  1  1  0
  2  3  1  0
  3  5  1  0
  3  4  1  6
  5  6  2  0
  7  8  1  0
  7  5  1  0
  8  9  1  1
 10  9  1  0
 11 10  1  0
 11 12  1  0
 13 12  1  0
 14 15  2  0
 14  8  1  0
 17 16  1  6
 17 19  1  0
 18 17  1  0
 19 21  1  0
 19 20  1  1
 20 14  1  0
 21 23  1  0
 22 21  2  0
M  END
$$$$
