SKT.pdb
     RDKit          3D

 23 22  0  0  1  0  0  0  0  0999 V2000
    9.7542  -12.8564   18.7713 O   0  0  0  0  0  0  0  0  0  0  0  0
    9.0125  -12.9906   19.9419 C   0  0  0  0  0  0  0  0  0  0  0  0
    8.0713  -14.1788   19.8179 C   0  0  2  0  0  0  0  0  0  0  0  0
    6.9492  -13.7463   19.0060 N   0  0  0  0  0  0  0  0  0  0  0  0
    7.6111  -14.5561   21.1895 C   0  0  0  0  0  0  0  0  0  0  0  0
    6.6721  -13.8802   21.6864 O   0  0  0  0  0  0  0  0  0  0  0  0
    8.1896  -15.6240   21.9207 N   0  0  0  0  0  0  0  0  0  0  0  0
    7.7347  -16.0335   23.2060 C   0  0  1  0  0  0  0  0  0  0  0  0
    7.9383  -17.5092   23.4847 C   0  0  0  0  0  0  0  0  0  0  0  0
    7.5643  -17.9343   24.8408 C   0  0  0  0  0  0  0  0  0  0  0  0
    7.7150  -19.4086   25.0334 C   0  0  0  0  0  0  0  0  0  0  0  0
    7.3875  -19.9555   26.3724 C   0  0  0  0  0  0  0  0  0  0  0  0
    7.4427  -21.3839   26.5089 N   0  0  0  0  0  0  0  0  0  0  0  0
    8.3270  -15.2054   24.3110 C   0  0  0  0  0  0  0  0  0  0  0  0
    9.5767  -15.0868   24.3915 O   0  0  0  0  0  0  0  0  0  0  0  0
    7.1465  -11.5348   25.8617 C   0  0  0  0  0  0  0  0  0  0  0  0
    7.1571  -12.6944   26.8382 C   0  0  1  0  0  0  0  0  0  0  0  0
    5.8625  -13.1860   26.9395 O   0  0  0  0  0  0  0  0  0  0  0  0
    8.0983  -13.7966   26.3849 C   0  0  2  0  0  0  0  0  0  0  0  0
    7.5128  -14.5471   25.2754 N   0  0  0  0  0  0  0  0  0  0  0  0
    8.3054  -14.7016   27.5441 C   0  0  0  0  0  0  0  0  0  0  0  0
    7.9518  -15.9124   27.5336 O   0  0  0  0  0  0  0  0  0  0  0  0
    8.9047  -14.2269   28.6885 O   0  0  0  0  0  0  0  0  0  0  0  0
  2  1  1  0
  2  3  1  0
  3  5  1  0
  3  4  1  6
  5  6  2  0
  7  8  1  0
  7  5  1  0
  8  9  1  1
 10  9  1  0
 11 10  1  0
 11 12  1  0
 13 12  1  0
 14 15  2  0
 14  8  1  0
 17 16  1  6
 17 19  1  0
 18 17  1  0
 19 21  1  0
 19 20  1  6
 20 14  1  0
 21 23  1  0
 22 21  2  0
M  END
$$$$
