SKT.pdb
     RDKit          3D

 23 22  0  0  1  0  0  0  0  0999 V2000
   10.3986  -12.7299   20.2300 O   0  0  0  0  0  0  0  0  0  0  0  0
    9.9225  -13.8309   19.5230 C   0  0  0  0  0  0  0  0  0  0  0  0
    8.4026  -13.7931   19.4801 C   0  0  2  0  0  0  0  0  0  0  0  0
    8.0216  -12.4203   19.2052 N   0  0  0  0  0  0  0  0  0  0  0  0
    7.8861  -14.2230   20.8157 C   0  0  0  0  0  0  0  0  0  0  0  0
    7.2945  -13.3544   21.5094 O   0  0  0  0  0  0  0  0  0  0  0  0
    8.0422  -15.5447   21.3039 N   0  0  0  0  0  0  0  0  0  0  0  0
    7.5245  -15.9868   22.5542 C   0  0  1  0  0  0  0  0  0  0  0  0
    7.5333  -17.4931   22.7210 C   0  0  0  0  0  0  0  0  0  0  0  0
    6.9995  -17.9710   24.0040 C   0  0  0  0  0  0  0  0  0  0  0  0
    6.9824  -19.4629   24.0892 C   0  0  0  0  0  0  0  0  0  0  0  0
    6.2931  -20.0687   25.2542 C   0  0  0  0  0  0  0  0  0  0  0  0
    6.1545  -21.4979   25.2410 N   0  0  0  0  0  0  0  0  0  0  0  0
    8.2065  -15.3271   23.7192 C   0  0  0  0  0  0  0  0  0  0  0  0
    9.4540  -15.1677   23.6947 O   0  0  0  0  0  0  0  0  0  0  0  0
    7.0316  -11.9227   25.6847 C   0  0  0  0  0  0  0  0  0  0  0  0
    7.1932  -13.1445   26.5675 C   0  0  1  0  0  0  0  0  0  0  0  0
    5.9400  -13.7130   26.7523 O   0  0  0  0  0  0  0  0  0  0  0  0
    8.1387  -14.1588   25.9482 C   0  0  2  0  0  0  0  0  0  0  0  0
    7.4801  -14.8742   24.8566 N   0  0  0  0  0  0  0  0  0  0  0  0
    8.5146  -15.1186   27.0174 C   0  0  0  0  0  0  0  0  0  0  0  0
    8.2649  -16.3528   26.9424 O   0  0  0  0  0  0  0  0  0  0  0  0
    9.1624  -14.6712   28.1463 O   0  0  0  0  0  0  0  0  0  0  0  0
  2  1  1  0
  2  3  1  0
  3  5  1  0
  3  4  1  1
  5  6  2  0
  7  8  1  0
  7  5  1  0
  8  9  1  1
 10  9  1  0
 11 10  1  0
 11 12  1  0
 13 12  1  0
 14 15  2  0
 14  8  1  0
 17 16  1  6
 17 19  1  0
 18 17  1  0
 19 21  1  0
 19 20  1  6
 20 14  1  0
 21 23  1  0
 22 21  2  0
M  END
$$$$
