SKT.pdb
     RDKit          3D

 23 22  0  0  1  0  0  0  0  0999 V2000
    8.3948  -13.2453   18.2211 O   0  0  0  0  0  0  0  0  0  0  0  0
    7.9192  -13.5798   19.4862 C   0  0  0  0  0  0  0  0  0  0  0  0
    7.9674  -15.0890   19.6684 C   0  0  2  0  0  0  0  0  0  0  0  0
    6.8715  -15.6432   18.8956 N   0  0  0  0  0  0  0  0  0  0  0  0
    7.7890  -15.3906   21.1218 C   0  0  0  0  0  0  0  0  0  0  0  0
    6.6163  -15.3442   21.5783 O   0  0  0  0  0  0  0  0  0  0  0  0
    8.8757  -15.7174   21.9715 N   0  0  0  0  0  0  0  0  0  0  0  0
    8.7190  -16.1232   23.3270 C   0  0  1  0  0  0  0  0  0  0  0  0
    9.5649  -17.3216   23.7078 C   0  0  0  0  0  0  0  0  0  0  0  0
    9.4440  -17.7358   25.1126 C   0  0  0  0  0  0  0  0  0  0  0  0
   10.3770  -18.8517   25.4558 C   0  0  0  0  0  0  0  0  0  0  0  0
   10.3755  -19.3308   26.8593 C   0  0  0  0  0  0  0  0  0  0  0  0
   11.2479  -20.4315   27.1584 N   0  0  0  0  0  0  0  0  0  0  0  0
    8.9478  -14.9933   24.2906 C   0  0  0  0  0  0  0  0  0  0  0  0
   10.0478  -14.3834   24.2766 O   0  0  0  0  0  0  0  0  0  0  0  0
    6.5830  -11.8010   25.2132 C   0  0  0  0  0  0  0  0  0  0  0  0
    6.9003  -12.7068   26.3867 C   0  0  1  0  0  0  0  0  0  0  0  0
    5.8351  -13.5807   26.5586 O   0  0  0  0  0  0  0  0  0  0  0  0
    8.1824  -13.4878   26.1576 C   0  0  2  0  0  0  0  0  0  0  0  0
    7.9523  -14.5893   25.2245 N   0  0  0  0  0  0  0  0  0  0  0  0
    8.6074  -14.0300   27.4732 C   0  0  0  0  0  0  0  0  0  0  0  0
    8.6428  -15.2665   27.7202 O   0  0  0  0  0  0  0  0  0  0  0  0
    8.9831  -13.1720   28.4817 O   0  0  0  0  0  0  0  0  0  0  0  0
  2  1  1  0
  2  3  1  0
  3  5  1  0
  3  4  1  6
  5  6  2  0
  7  8  1  0
  7  5  1  0
  8  9  1  1
 10  9  1  0
 11 10  1  0
 11 12  1  0
 13 12  1  0
 14 15  2  0
 14  8  1  0
 17 16  1  6
 17 19  1  0
 18 17  1  0
 19 21  1  0
 19 20  1  6
 20 14  1  0
 21 23  1  0
 22 21  2  0
M  END
$$$$
