SKT.pdb
     RDKit          3D

 23 22  0  0  1  0  0  0  0  0999 V2000
    9.5760  -12.7305   18.5665 O   0  0  0  0  0  0  0  0  0  0  0  0
    8.8617  -12.8420   19.7565 C   0  0  0  0  0  0  0  0  0  0  0  0
    8.0395  -14.1215   19.7417 C   0  0  2  0  0  0  0  0  0  0  0  0
    6.8272  -13.8362   18.9972 N   0  0  0  0  0  0  0  0  0  0  0  0
    7.7135  -14.4844   21.1549 C   0  0  0  0  0  0  0  0  0  0  0  0
    6.7500  -13.8800   21.6955 O   0  0  0  0  0  0  0  0  0  0  0  0
    8.4413  -15.4627   21.8780 N   0  0  0  0  0  0  0  0  0  0  0  0
    8.0558  -15.9383   23.1632 C   0  0  1  0  0  0  0  0  0  0  0  0
    8.5110  -17.3547   23.4525 C   0  0  0  0  0  0  0  0  0  0  0  0
    8.1043  -17.8731   24.7660 C   0  0  0  0  0  0  0  0  0  0  0  0
    8.4869  -19.3057   24.9520 C   0  0  0  0  0  0  0  0  0  0  0  0
    8.0106  -19.9815   26.1832 C   0  0  0  0  0  0  0  0  0  0  0  0
    8.2789  -21.3886   26.2829 N   0  0  0  0  0  0  0  0  0  0  0  0
    8.4875  -15.0141   24.2664 C   0  0  0  0  0  0  0  0  0  0  0  0
    9.6857  -14.6352   24.3208 O   0  0  0  0  0  0  0  0  0  0  0  0
    6.5199  -11.6709   25.6187 C   0  0  0  0  0  0  0  0  0  0  0  0
    6.8202  -12.7079   26.6830 C   0  0  1  0  0  0  0  0  0  0  0  0
    5.6799  -13.4777   26.8703 O   0  0  0  0  0  0  0  0  0  0  0  0
    7.9869  -13.5945   26.2844 C   0  0  2  0  0  0  0  0  0  0  0  0
    7.5769  -14.5511   25.2578 N   0  0  0  0  0  0  0  0  0  0  0  0
    8.4189  -14.3259   27.5026 C   0  0  0  0  0  0  0  0  0  0  0  0
    8.3350  -15.5800   27.6089 O   0  0  0  0  0  0  0  0  0  0  0  0
    8.9353  -13.6328   28.5737 O   0  0  0  0  0  0  0  0  0  0  0  0
  2  1  1  0
  2  3  1  0
  3  5  1  0
  3  4  1  6
  5  6  2  0
  7  8  1  0
  7  5  1  0
  8  9  1  1
 10  9  1  0
 11 10  1  0
 11 12  1  0
 13 12  1  0
 14 15  2  0
 14  8  1  0
 17 16  1  6
 17 19  1  0
 18 17  1  0
 19 21  1  0
 19 20  1  6
 20 14  1  0
 21 23  1  0
 22 21  2  0
M  END
$$$$
