SKT.pdb
     RDKit          3D

 23 22  0  0  1  0  0  0  0  0999 V2000
    9.0193  -13.9758   18.7115 O   0  0  0  0  0  0  0  0  0  0  0  0
    8.4103  -13.9249   19.9626 C   0  0  0  0  0  0  0  0  0  0  0  0
    7.4875  -15.1220   20.1317 C   0  0  2  0  0  0  0  0  0  0  0  0
    6.2916  -14.8464   19.3577 N   0  0  0  0  0  0  0  0  0  0  0  0
    7.1538  -15.2541   21.5830 C   0  0  0  0  0  0  0  0  0  0  0  0
    6.2226  -14.5314   22.0262 O   0  0  0  0  0  0  0  0  0  0  0  0
    7.8399  -16.1462   22.4449 N   0  0  0  0  0  0  0  0  0  0  0  0
    7.4936  -16.3405   23.8120 C   0  0  1  0  0  0  0  0  0  0  0  0
    7.7463  -17.7487   24.3122 C   0  0  0  0  0  0  0  0  0  0  0  0
    7.4694  -17.9505   25.7412 C   0  0  0  0  0  0  0  0  0  0  0  0
    7.7434  -19.3532   26.1779 C   0  0  0  0  0  0  0  0  0  0  0  0
    7.3801  -19.7143   27.5697 C   0  0  0  0  0  0  0  0  0  0  0  0
    7.6817  -21.0570   27.9797 N   0  0  0  0  0  0  0  0  0  0  0  0
    8.1537  -15.3377   24.7155 C   0  0  0  0  0  0  0  0  0  0  0  0
    9.3794  -15.0929   24.5748 O   0  0  0  0  0  0  0  0  0  0  0  0
    6.8928  -11.6156   25.8311 C   0  0  0  0  0  0  0  0  0  0  0  0
    7.1173  -12.5712   26.9864 C   0  0  1  0  0  0  0  0  0  0  0  0
    5.8891  -13.1087   27.3476 O   0  0  0  0  0  0  0  0  0  0  0  0
    8.0817  -13.6828   26.6113 C   0  0  2  0  0  0  0  0  0  0  0  0
    7.4303  -14.6520   25.7319 N   0  0  0  0  0  0  0  0  0  0  0  0
    8.4926  -14.3516   27.8720 C   0  0  0  0  0  0  0  0  0  0  0  0
    8.2435  -15.5648   28.1112 O   0  0  0  0  0  0  0  0  0  0  0  0
    9.1739  -13.6433   28.8357 O   0  0  0  0  0  0  0  0  0  0  0  0
  2  1  1  0
  2  3  1  0
  3  5  1  0
  3  4  1  6
  5  6  2  0
  7  8  1  0
  7  5  1  0
  8  9  1  1
 10  9  1  0
 11 10  1  0
 11 12  1  0
 13 12  1  0
 14 15  2  0
 14  8  1  0
 17 16  1  6
 17 19  1  0
 18 17  1  0
 19 21  1  0
 19 20  1  6
 20 14  1  0
 21 23  1  0
 22 21  2  0
M  END
$$$$
