SKT.pdb
     RDKit          3D

 23 22  0  0  1  0  0  0  0  0999 V2000
    8.9324  -14.1032   19.4951 O   0  0  0  0  0  0  0  0  0  0  0  0
    8.4917  -14.1354   20.8155 C   0  0  0  0  0  0  0  0  0  0  0  0
    7.4531  -15.2340   20.9816 C   0  0  2  0  0  0  0  0  0  0  0  0
    6.2143  -14.7336   20.4155 N   0  0  0  0  0  0  0  0  0  0  0  0
    7.2895  -15.5061   22.4426 C   0  0  0  0  0  0  0  0  0  0  0  0
    6.5387  -14.7302   23.0907 O   0  0  0  0  0  0  0  0  0  0  0  0
    7.9400  -16.5837   23.0948 N   0  0  0  0  0  0  0  0  0  0  0  0
    7.7900  -16.8687   24.4815 C   0  0  1  0  0  0  0  0  0  0  0  0
    7.6334  -18.3445   24.7886 C   0  0  0  0  0  0  0  0  0  0  0  0
    7.5045  -18.6630   26.2174 C   0  0  0  0  0  0  0  0  0  0  0  0
    7.3953  -20.1334   26.4616 C   0  0  0  0  0  0  0  0  0  0  0  0
    7.2660  -20.5800   27.8699 C   0  0  0  0  0  0  0  0  0  0  0  0
    7.1467  -21.9952   28.0817 N   0  0  0  0  0  0  0  0  0  0  0  0
    8.8962  -16.2764   25.3082 C   0  0  0  0  0  0  0  0  0  0  0  0
   10.0923  -16.5059   24.9939 O   0  0  0  0  0  0  0  0  0  0  0  0
    9.1523  -12.4834   26.8462 C   0  0  0  0  0  0  0  0  0  0  0  0
    9.2797  -13.5844   27.8804 C   0  0  1  0  0  0  0  0  0  0  0  0
    8.0472  -13.7393   28.5009 O   0  0  0  0  0  0  0  0  0  0  0  0
    9.7126  -14.8957   27.2485 C   0  0  2  0  0  0  0  0  0  0  0  0
    8.6306  -15.4588   26.4428 N   0  0  0  0  0  0  0  0  0  0  0  0
   10.0461  -15.8277   28.3557 C   0  0  0  0  0  0  0  0  0  0  0  0
    9.3814  -16.8744   28.5876 O   0  0  0  0  0  0  0  0  0  0  0  0
   11.1183  -15.5636   29.1773 O   0  0  0  0  0  0  0  0  0  0  0  0
  2  1  1  0
  2  3  1  0
  3  5  1  0
  3  4  1  1
  5  6  2  0
  7  8  1  0
  7  5  1  0
  8  9  1  6
 10  9  1  0
 11 10  1  0
 11 12  1  0
 13 12  1  0
 14 15  2  0
 14  8  1  0
 17 16  1  6
 17 19  1  0
 18 17  1  0
 19 21  1  0
 19 20  1  1
 20 14  1  0
 21 23  1  0
 22 21  2  0
M  END
$$$$
