SKT.pdb
     RDKit          3D

 23 22  0  0  1  0  0  0  0  0999 V2000
   10.2105  -21.2927   17.7002 O   0  0  0  0  0  0  0  0  0  0  0  0
   11.1674  -20.3440   17.3496 C   0  0  0  0  0  0  0  0  0  0  0  0
   10.5490  -18.9550   17.3881 C   0  0  2  0  0  0  0  0  0  0  0  0
   10.8632  -18.3173   16.1232 N   0  0  0  0  0  0  0  0  0  0  0  0
   11.1641  -18.2003   18.5226 C   0  0  0  0  0  0  0  0  0  0  0  0
   12.1897  -17.5155   18.2678 O   0  0  0  0  0  0  0  0  0  0  0  0
   10.6360  -18.2367   19.8377 N   0  0  0  0  0  0  0  0  0  0  0  0
   11.1977  -17.5176   20.9303 C   0  0  1  0  0  0  0  0  0  0  0  0
   10.1744  -17.0542   21.9476 C   0  0  0  0  0  0  0  0  0  0  0  0
   10.7349  -16.3188   23.0898 C   0  0  0  0  0  0  0  0  0  0  0  0
    9.6741  -15.8148   24.0139 C   0  0  0  0  0  0  0  0  0  0  0  0
   10.1129  -14.9922   25.1672 C   0  0  0  0  0  0  0  0  0  0  0  0
    9.0935  -14.6126   26.1045 N   0  0  0  0  0  0  0  0  0  0  0  0
   12.3012  -18.2799   21.6077 C   0  0  0  0  0  0  0  0  0  0  0  0
   12.0278  -19.3361   22.2336 O   0  0  0  0  0  0  0  0  0  0  0  0
   15.7721  -19.3611   20.0252 C   0  0  0  0  0  0  0  0  0  0  0  0
   15.9747  -18.5873   21.3130 C   0  0  1  0  0  0  0  0  0  0  0  0
   16.2966  -17.2773   20.9841 O   0  0  0  0  0  0  0  0  0  0  0  0
   14.7294  -18.6148   22.1818 C   0  0  2  0  0  0  0  0  0  0  0  0
   13.6547  -17.8411   21.5626 N   0  0  0  0  0  0  0  0  0  0  0  0
   15.0917  -18.0073   23.4878 C   0  0  0  0  0  0  0  0  0  0  0  0
   14.6338  -16.8965   23.8718 O   0  0  0  0  0  0  0  0  0  0  0  0
   15.9596  -18.6607   24.3328 O   0  0  0  0  0  0  0  0  0  0  0  0
  2  1  1  0
  2  3  1  0
  3  5  1  0
  3  4  1  6
  5  6  2  0
  7  8  1  0
  7  5  1  0
  8  9  1  1
 10  9  1  0
 11 10  1  0
 11 12  1  0
 13 12  1  0
 14 15  2  0
 14  8  1  0
 17 16  1  6
 17 19  1  0
 18 17  1  0
 19 21  1  0
 19 20  1  6
 20 14  1  0
 21 23  1  0
 22 21  2  0
M  END
$$$$
