ADG.pdb
     RDKit          3D

 18 17  0  0  1  0  0  0  0  0999 V2000
    7.3119  -14.0219   18.4735 C   0  0  0  0  0  0  0  0  0  0  0  0
    8.4203  -13.2963   19.2087 C   0  0  2  0  0  0  0  0  0  0  0  0
    9.0191  -12.3106   18.3373 N   0  0  0  0  0  0  0  0  0  0  0  0
    9.4219  -14.3300   19.5562 C   0  0  0  0  0  0  0  0  0  0  0  0
    9.0607  -15.3465   20.1782 O   0  0  0  0  0  0  0  0  0  0  0  0
   10.7808  -14.1829   19.1963 N   0  0  0  0  0  0  0  0  0  0  0  0
   11.7371  -15.1866   19.5998 C   0  0  1  0  0  0  0  0  0  0  0  0
   12.9343  -15.0517   18.6782 C   0  0  0  0  0  0  0  0  0  0  0  0
   12.5687  -15.5488   17.3240 C   0  0  0  0  0  0  0  0  0  0  0  0
   12.7778  -14.8866   16.2837 O   0  0  0  0  0  0  0  0  0  0  0  0
   12.1177  -15.0706   21.0032 C   0  0  0  0  0  0  0  0  0  0  0  0
   12.6851  -14.0318   21.4425 O   0  0  0  0  0  0  0  0  0  0  0  0
   11.9694  -16.8268   17.3210 O   0  0  0  0  0  0  0  0  0  0  0  0
   11.8801  -16.1098   21.9605 N   0  0  0  0  0  0  0  0  0  0  0  0
   12.1525  -15.8795   23.3565 C   0  0  0  0  0  0  0  0  0  0  0  0
   11.7159  -17.0114   24.1773 C   0  0  0  0  0  0  0  0  0  0  0  0
   11.1284  -18.0374   23.7016 O   0  0  0  0  0  0  0  0  0  0  0  0
   11.9217  -17.0324   25.5589 O   0  0  0  0  0  0  0  0  0  0  0  0
  2  1  1  6
  3  2  1  0
  4  2  1  0
  4  5  2  0
  6  4  1  0
  7  6  1  0
  7  8  1  6
  9 10  2  0
  9  8  1  0
 11  7  1  0
 12 11  2  0
 13  9  1  0
 14 11  1  0
 15 14  1  0
 16 15  1  0
 16 18  1  0
 17 16  2  0
M  END
$$$$
