ADG.pdb
     RDKit          3D

 18 17  0  0  1  0  0  0  0  0999 V2000
    5.8954  -19.6807   18.1200 C   0  0  0  0  0  0  0  0  0  0  0  0
    6.2166  -18.2817   18.6047 C   0  0  2  0  0  0  0  0  0  0  0  0
    6.4866  -17.4239   17.4731 N   0  0  0  0  0  0  0  0  0  0  0  0
    7.4350  -18.4096   19.4365 C   0  0  0  0  0  0  0  0  0  0  0  0
    7.4147  -19.1447   20.4413 O   0  0  0  0  0  0  0  0  0  0  0  0
    8.6199  -17.7108   19.1114 N   0  0  0  0  0  0  0  0  0  0  0  0
    9.7837  -17.8518   19.9541 C   0  0  1  0  0  0  0  0  0  0  0  0
   10.9967  -17.7943   19.0452 C   0  0  0  0  0  0  0  0  0  0  0  0
   11.2094  -19.1311   18.4269 C   0  0  0  0  0  0  0  0  0  0  0  0
   11.2313  -20.1875   19.0961 O   0  0  0  0  0  0  0  0  0  0  0  0
    9.8450  -16.8411   21.0043 C   0  0  0  0  0  0  0  0  0  0  0  0
    9.8484  -15.6095   20.7261 O   0  0  0  0  0  0  0  0  0  0  0  0
   11.3821  -19.0981   17.0263 O   0  0  0  0  0  0  0  0  0  0  0  0
    9.9069  -17.1714   22.3970 N   0  0  0  0  0  0  0  0  0  0  0  0
    9.8944  -16.1245   23.3870 C   0  0  0  0  0  0  0  0  0  0  0  0
   11.1716  -16.0518   24.1003 C   0  0  0  0  0  0  0  0  0  0  0  0
   12.1507  -16.8336   23.8670 O   0  0  0  0  0  0  0  0  0  0  0  0
   11.3955  -15.1017   25.0996 O   0  0  0  0  0  0  0  0  0  0  0  0
  2  1  1  6
  3  2  1  0
  4  2  1  0
  4  5  2  0
  6  4  1  0
  7  6  1  0
  7  8  1  6
  9 10  2  0
  9  8  1  0
 11  7  1  0
 12 11  2  0
 13  9  1  0
 14 11  1  0
 15 14  1  0
 16 15  1  0
 16 18  1  0
 17 16  2  0
M  END
$$$$
