ADG.pdb
     RDKit          3D

 18 17  0  0  1  0  0  0  0  0999 V2000
    6.9169  -13.1665   19.1897 C   0  0  0  0  0  0  0  0  0  0  0  0
    8.4297  -13.2021   19.1145 C   0  0  2  0  0  0  0  0  0  0  0  0
    8.8439  -13.4672   17.7553 N   0  0  0  0  0  0  0  0  0  0  0  0
    8.8540  -14.3167   19.9923 C   0  0  0  0  0  0  0  0  0  0  0  0
    8.5349  -14.3024   21.1958 O   0  0  0  0  0  0  0  0  0  0  0  0
    9.6162  -15.3954   19.4891 N   0  0  0  0  0  0  0  0  0  0  0  0
    9.9473  -16.5000   20.3579 C   0  0  1  0  0  0  0  0  0  0  0  0
   10.3717  -17.6513   19.4664 C   0  0  0  0  0  0  0  0  0  0  0  0
    9.2226  -18.0602   18.6138 C   0  0  0  0  0  0  0  0  0  0  0  0
    8.2279  -18.6669   19.0688 O   0  0  0  0  0  0  0  0  0  0  0  0
   10.9781  -16.1608   21.3328 C   0  0  0  0  0  0  0  0  0  0  0  0
   11.9594  -15.4312   21.0188 O   0  0  0  0  0  0  0  0  0  0  0  0
    9.3565  -17.7027   17.2548 O   0  0  0  0  0  0  0  0  0  0  0  0
   10.9487  -16.6263   22.6875 N   0  0  0  0  0  0  0  0  0  0  0  0
   11.9215  -16.1459   23.6357 C   0  0  0  0  0  0  0  0  0  0  0  0
   11.6586  -16.6688   24.9784 C   0  0  0  0  0  0  0  0  0  0  0  0
   10.6636  -17.4142   25.2585 O   0  0  0  0  0  0  0  0  0  0  0  0
   12.5007  -16.3739   26.0534 O   0  0  0  0  0  0  0  0  0  0  0  0
  2  1  1  6
  3  2  1  0
  4  2  1  0
  4  5  2  0
  6  4  1  0
  7  6  1  0
  7  8  1  6
  9 10  2  0
  9  8  1  0
 11  7  1  0
 12 11  2  0
 13  9  1  0
 14 11  1  0
 15 14  1  0
 16 15  1  0
 16 18  1  0
 17 16  2  0
M  END
$$$$
