ADG.pdb
     RDKit          3D

 18 17  0  0  1  0  0  0  0  0999 V2000
   -3.5730  -24.4036   24.4809 C   0  0  0  0  0  0  0  0  0  0  0  0
   -3.9374  -23.3417   25.4983 C   0  0  2  0  0  0  0  0  0  0  0  0
   -2.7404  -22.8603   26.1501 N   0  0  0  0  0  0  0  0  0  0  0  0
   -4.8109  -24.0111   26.4891 C   0  0  0  0  0  0  0  0  0  0  0  0
   -5.9302  -24.4264   26.1352 O   0  0  0  0  0  0  0  0  0  0  0  0
   -4.3979  -24.1853   27.8296 N   0  0  0  0  0  0  0  0  0  0  0  0
   -5.2277  -24.9408   28.7380 C   0  0  1  0  0  0  0  0  0  0  0  0
   -4.2946  -25.7367   29.6304 C   0  0  0  0  0  0  0  0  0  0  0  0
   -3.6259  -26.7924   28.8224 C   0  0  0  0  0  0  0  0  0  0  0  0
   -2.3912  -26.9888   28.8595 O   0  0  0  0  0  0  0  0  0  0  0  0
   -6.1292  -24.0955   29.5132 C   0  0  0  0  0  0  0  0  0  0  0  0
   -6.8983  -24.5880   30.3850 O   0  0  0  0  0  0  0  0  0  0  0  0
   -4.5061  -27.5467   28.0169 O   0  0  0  0  0  0  0  0  0  0  0  0
   -6.2035  -22.6754   29.3392 N   0  0  0  0  0  0  0  0  0  0  0  0
   -7.0982  -21.8953   30.1560 C   0  0  0  0  0  0  0  0  0  0  0  0
   -8.4856  -22.0348   29.7076 C   0  0  0  0  0  0  0  0  0  0  0  0
   -8.8379  -22.7859   28.7402 O   0  0  0  0  0  0  0  0  0  0  0  0
   -9.5256  -21.3373   30.3269 O   0  0  0  0  0  0  0  0  0  0  0  0
  2  1  1  6
  3  2  1  0
  4  2  1  0
  4  5  2  0
  6  4  1  0
  7  6  1  0
  7  8  1  1
  9 10  2  0
  9  8  1  0
 11  7  1  0
 12 11  2  0
 13  9  1  0
 14 11  1  0
 15 14  1  0
 16 15  1  0
 16 18  1  0
 17 16  2  0
M  END
$$$$
