ADG.pdb
     RDKit          3D

 18 17  0  0  1  0  0  0  0  0999 V2000
    7.3922  -11.3296   26.0051 C   0  0  0  0  0  0  0  0  0  0  0  0
    6.3004  -12.2528   25.5042 C   0  0  2  0  0  0  0  0  0  0  0  0
    5.2745  -12.3868   26.5138 N   0  0  0  0  0  0  0  0  0  0  0  0
    6.9499  -13.5636   25.2751 C   0  0  0  0  0  0  0  0  0  0  0  0
    6.9887  -14.3965   26.1999 O   0  0  0  0  0  0  0  0  0  0  0  0
    7.5283  -13.8856   24.0263 N   0  0  0  0  0  0  0  0  0  0  0  0
    8.1264  -15.1853   23.8323 C   0  0  1  0  0  0  0  0  0  0  0  0
    8.3512  -15.3500   22.3413 C   0  0  0  0  0  0  0  0  0  0  0  0
    7.0358  -15.3591   21.6455 C   0  0  0  0  0  0  0  0  0  0  0  0
    6.1150  -16.1469   21.9551 O   0  0  0  0  0  0  0  0  0  0  0  0
    9.3619  -15.3558   24.5889 C   0  0  0  0  0  0  0  0  0  0  0  0
   10.2671  -14.4759   24.5682 O   0  0  0  0  0  0  0  0  0  0  0  0
    6.9229  -14.4039   20.6123 O   0  0  0  0  0  0  0  0  0  0  0  0
    9.6283  -16.5133   25.3900 N   0  0  0  0  0  0  0  0  0  0  0  0
   10.8653  -16.6138   26.1220 C   0  0  0  0  0  0  0  0  0  0  0  0
   10.9343  -17.8650   26.8804 C   0  0  0  0  0  0  0  0  0  0  0  0
    9.9842  -18.7134   26.9218 O   0  0  0  0  0  0  0  0  0  0  0  0
   12.0694  -18.2084   27.6187 O   0  0  0  0  0  0  0  0  0  0  0  0
  2  1  1  1
  3  2  1  0
  4  2  1  0
  4  5  2  0
  6  4  1  0
  7  6  1  0
  7  8  1  6
  9 10  2  0
  9  8  1  0
 11  7  1  0
 12 11  2  0
 13  9  1  0
 14 11  1  0
 15 14  1  0
 16 15  1  0
 16 18  1  0
 17 16  2  0
M  END
$$$$
