ADG.pdb
     RDKit          3D

 18 17  0  0  1  0  0  0  0  0999 V2000
    8.0698  -12.3841   19.7306 C   0  0  0  0  0  0  0  0  0  0  0  0
    8.0877  -13.5180   18.7260 C   0  0  2  0  0  0  0  0  0  0  0  0
    6.7351  -13.8418   18.3324 N   0  0  0  0  0  0  0  0  0  0  0  0
    8.6938  -14.6728   19.4274 C   0  0  0  0  0  0  0  0  0  0  0  0
    7.9545  -15.5127   19.9738 O   0  0  0  0  0  0  0  0  0  0  0  0
   10.0962  -14.8378   19.4894 N   0  0  0  0  0  0  0  0  0  0  0  0
   10.6477  -16.0142   20.1191 C   0  0  1  0  0  0  0  0  0  0  0  0
   11.6281  -16.6234   19.1349 C   0  0  0  0  0  0  0  0  0  0  0  0
   12.1054  -17.9298   19.6639 C   0  0  0  0  0  0  0  0  0  0  0  0
   11.3253  -18.8122   20.0849 O   0  0  0  0  0  0  0  0  0  0  0  0
   11.2778  -15.7237   21.4023 C   0  0  0  0  0  0  0  0  0  0  0  0
   12.0160  -14.7105   21.5530 O   0  0  0  0  0  0  0  0  0  0  0  0
   13.5087  -18.0812   19.6466 O   0  0  0  0  0  0  0  0  0  0  0  0
   11.1069  -16.5546   22.5569 N   0  0  0  0  0  0  0  0  0  0  0  0
   11.6314  -16.1340   23.8313 C   0  0  0  0  0  0  0  0  0  0  0  0
   11.3371  -17.1157   24.8777 C   0  0  0  0  0  0  0  0  0  0  0  0
   10.6184  -18.1506   24.6864 O   0  0  0  0  0  0  0  0  0  0  0  0
   11.8371  -16.9715   26.1741 O   0  0  0  0  0  0  0  0  0  0  0  0
  2  1  1  1
  3  2  1  0
  4  2  1  0
  4  5  2  0
  6  4  1  0
  7  6  1  0
  7  8  1  6
  9 10  2  0
  9  8  1  0
 11  7  1  0
 12 11  2  0
 13  9  1  0
 14 11  1  0
 15 14  1  0
 16 15  1  0
 16 18  1  0
 17 16  2  0
M  END
$$$$
