ADG.pdb
     RDKit          3D

 18 17  0  0  1  0  0  0  0  0999 V2000
    7.4566  -12.6618   19.8516 C   0  0  0  0  0  0  0  0  0  0  0  0
    8.4837  -13.3455   20.7308 C   0  0  2  0  0  0  0  0  0  0  0  0
    9.1897  -14.3484   19.9659 N   0  0  0  0  0  0  0  0  0  0  0  0
    7.7187  -13.9948   21.8199 C   0  0  0  0  0  0  0  0  0  0  0  0
    6.9707  -13.3044   22.5371 O   0  0  0  0  0  0  0  0  0  0  0  0
    7.8237  -15.3835   22.0611 N   0  0  0  0  0  0  0  0  0  0  0  0
    7.0774  -15.9764   23.1455 C   0  0  1  0  0  0  0  0  0  0  0  0
    6.6608  -17.3617   22.6893 C   0  0  0  0  0  0  0  0  0  0  0  0
    5.9052  -17.2503   21.4122 C   0  0  0  0  0  0  0  0  0  0  0  0
    6.4240  -17.4878   20.2991 O   0  0  0  0  0  0  0  0  0  0  0  0
    7.8338  -16.0210   24.3921 C   0  0  0  0  0  0  0  0  0  0  0  0
    7.2768  -16.3244   25.4837 O   0  0  0  0  0  0  0  0  0  0  0  0
    4.5591  -16.8558   21.5706 O   0  0  0  0  0  0  0  0  0  0  0  0
    9.2342  -15.7263   24.4614 N   0  0  0  0  0  0  0  0  0  0  0  0
    9.8894  -15.6379   25.7416 C   0  0  0  0  0  0  0  0  0  0  0  0
   10.4118  -16.9399   26.1627 C   0  0  0  0  0  0  0  0  0  0  0  0
   10.3038  -17.9989   25.4620 O   0  0  0  0  0  0  0  0  0  0  0  0
   11.0722  -17.1003   27.3833 O   0  0  0  0  0  0  0  0  0  0  0  0
  2  1  1  6
  3  2  1  0
  4  2  1  0
  4  5  2  0
  6  4  1  0
  7  6  1  0
  7  8  1  6
  9 10  2  0
  9  8  1  0
 11  7  1  0
 12 11  2  0
 13  9  1  0
 14 11  1  0
 15 14  1  0
 16 15  1  0
 16 18  1  0
 17 16  2  0
M  END
$$$$
