ADG.pdb
     RDKit          3D

 18 17  0  0  1  0  0  0  0  0999 V2000
    8.4079  -12.4624   19.7454 C   0  0  0  0  0  0  0  0  0  0  0  0
    8.0202  -13.8051   19.1604 C   0  0  2  0  0  0  0  0  0  0  0  0
    6.5801  -13.9082   19.0894 N   0  0  0  0  0  0  0  0  0  0  0  0
    8.5482  -14.8239   20.0964 C   0  0  0  0  0  0  0  0  0  0  0  0
    7.8472  -15.1933   21.0569 O   0  0  0  0  0  0  0  0  0  0  0  0
    9.8343  -15.3832   19.9202 N   0  0  0  0  0  0  0  0  0  0  0  0
   10.2832  -16.4304   20.8071 C   0  0  1  0  0  0  0  0  0  0  0  0
   11.3442  -17.2165   20.0608 C   0  0  0  0  0  0  0  0  0  0  0  0
   10.7161  -17.9128   18.9054 C   0  0  0  0  0  0  0  0  0  0  0  0
    9.6708  -18.5909   19.0142 O   0  0  0  0  0  0  0  0  0  0  0  0
   10.7824  -15.9170   22.0780 C   0  0  0  0  0  0  0  0  0  0  0  0
   11.3347  -14.7841   22.1532 O   0  0  0  0  0  0  0  0  0  0  0  0
   11.4025  -17.7388   17.6843 O   0  0  0  0  0  0  0  0  0  0  0  0
   10.6841  -16.6513   23.3043 N   0  0  0  0  0  0  0  0  0  0  0  0
   11.0191  -16.0159   24.5534 C   0  0  0  0  0  0  0  0  0  0  0  0
   10.7528  -16.9019   25.6889 C   0  0  0  0  0  0  0  0  0  0  0  0
   10.2553  -18.0688   25.5665 O   0  0  0  0  0  0  0  0  0  0  0  0
   11.0339  -16.5109   27.0003 O   0  0  0  0  0  0  0  0  0  0  0  0
  2  1  1  1
  3  2  1  0
  4  2  1  0
  4  5  2  0
  6  4  1  0
  7  6  1  0
  7  8  1  6
  9 10  2  0
  9  8  1  0
 11  7  1  0
 12 11  2  0
 13  9  1  0
 14 11  1  0
 15 14  1  0
 16 15  1  0
 16 18  1  0
 17 16  2  0
M  END
$$$$
