FAY.pdb
     RDKit          3D

 29 30  0  0  1  0  0  0  0  0999 V2000
    6.7914  -19.9729   22.5023 N   0  0  0  0  0  0  0  0  0  0  0  0
    6.0526  -18.7118   22.3544 C   0  0  1  0  0  0  0  0  0  0  0  0
    5.1543  -18.4835   23.5213 C   0  0  0  0  0  0  0  0  0  0  0  0
    5.8332  -18.5270   24.8167 C   0  0  0  0  0  0  0  0  0  0  0  0
    6.2207  -19.7380   25.3948 C   0  0  0  0  0  0  0  0  0  0  0  0
    6.8618  -19.8082   26.6116 C   0  0  0  0  0  0  0  0  0  0  0  0
    7.1380  -18.6436   27.2967 C   0  0  0  0  0  0  0  0  0  0  0  0
    6.7706  -17.4180   26.7590 C   0  0  0  0  0  0  0  0  0  0  0  0
    6.1326  -17.3882   25.5426 C   0  0  0  0  0  0  0  0  0  0  0  0
    6.9752  -17.5945   22.0482 C   0  0  0  0  0  0  0  0  0  0  0  0
    8.1811  -17.8313   21.7967 O   0  0  0  0  0  0  0  0  0  0  0  0
    6.7538  -13.8708   21.4611 C   0  0  0  0  0  0  0  0  0  0  0  0
    7.4833  -15.2037   21.5968 C   0  0  2  0  0  0  0  0  0  0  0  0
    6.5597  -16.2357   22.0230 N   0  0  0  0  0  0  0  0  0  0  0  0
    8.6070  -15.0873   22.5765 C   0  0  0  0  0  0  0  0  0  0  0  0
    9.6026  -14.3623   22.3127 O   0  0  0  0  0  0  0  0  0  0  0  0
    5.4512  -11.2679   26.7232 O   0  0  0  0  0  0  0  0  0  0  0  0
    6.3436  -12.3227   26.5851 C   0  0  0  0  0  0  0  0  0  0  0  0
    5.9284  -13.6069   26.8621 C   0  0  0  0  0  0  0  0  0  0  0  0
    6.8261  -14.6287   26.7184 C   0  0  0  0  0  0  0  0  0  0  0  0
    8.1281  -14.4027   26.3054 C   0  0  0  0  0  0  0  0  0  0  0  0
    9.0844  -15.5017   26.1550 C   0  0  0  0  0  0  0  0  0  0  0  0
    9.6900  -15.5786   24.7652 C   0  0  2  0  0  0  0  0  0  0  0  0
    8.6093  -15.7637   23.8103 N   0  0  0  0  0  0  0  0  0  0  0  0
   10.7434  -16.5759   24.6228 C   0  0  0  0  0  0  0  0  0  0  0  0
   10.7087  -17.5213   23.6059 O   0  0  0  0  0  0  0  0  0  0  0  0
    8.5151  -13.1028   26.0349 C   0  0  0  0  0  0  0  0  0  0  0  0
    7.6240  -12.0609   26.1742 C   0  0  0  0  0  0  0  0  0  0  0  0
   11.7251  -16.6308   25.4030 O   0  0  0  0  0  0  0  0  0  0  0  0
  2  1  1  1
  2  3  1  0
  4  3  1  0
  4  9  1  0
  5  4  2  0
  6  5  1  0
  6  7  2  0
  7  8  1  0
  8  9  2  0
 10  2  1  0
 11 10  2  0
 13 12  1  1
 13 14  1  0
 14 10  1  0
 15 13  1  0
 15 16  2  0
 18 17  1  0
 19 18  2  0
 20 19  1  0
 21 20  2  0
 21 27  1  0
 23 22  1  1
 22 21  1  0
 23 24  1  0
 24 15  1  0
 25 23  1  0
 26 25  1  0
 27 28  2  0
 28 18  1  0
 29 25  2  0
M  END
$$$$
