FAY.pdb
     RDKit          3D

 29 30  0  0  1  0  0  0  0  0999 V2000
    8.2838  -16.7066   25.4616 N   0  0  0  0  0  0  0  0  0  0  0  0
    6.9537  -16.8489   24.8546 C   0  0  1  0  0  0  0  0  0  0  0  0
    6.0208  -15.8078   25.3712 C   0  0  0  0  0  0  0  0  0  0  0  0
    6.6663  -14.5372   25.7024 C   0  0  0  0  0  0  0  0  0  0  0  0
    6.3390  -13.8362   26.8654 C   0  0  0  0  0  0  0  0  0  0  0  0
    6.9312  -12.6394   27.2022 C   0  0  0  0  0  0  0  0  0  0  0  0
    7.8870  -12.1009   26.3664 C   0  0  0  0  0  0  0  0  0  0  0  0
    8.2426  -12.7641   25.2002 C   0  0  0  0  0  0  0  0  0  0  0  0
    7.6297  -13.9559   24.8979 C   0  0  0  0  0  0  0  0  0  0  0  0
    7.0539  -16.9210   23.3788 C   0  0  0  0  0  0  0  0  0  0  0  0
    6.0973  -16.5294   22.6680 O   0  0  0  0  0  0  0  0  0  0  0  0
    7.9569  -15.4956   21.2316 C   0  0  0  0  0  0  0  0  0  0  0  0
    8.8856  -16.5986   21.7299 C   0  0  2  0  0  0  0  0  0  0  0  0
    8.2017  -17.4217   22.7069 N   0  0  0  0  0  0  0  0  0  0  0  0
   10.1206  -16.0095   22.3327 C   0  0  0  0  0  0  0  0  0  0  0  0
   10.9825  -15.4599   21.5969 O   0  0  0  0  0  0  0  0  0  0  0  0
    9.4536  -16.2330   30.1963 O   0  0  0  0  0  0  0  0  0  0  0  0
    9.9011  -15.7831   28.9611 C   0  0  0  0  0  0  0  0  0  0  0  0
    9.0950  -15.9225   27.8525 C   0  0  0  0  0  0  0  0  0  0  0  0
    9.5584  -15.4714   26.6474 C   0  0  0  0  0  0  0  0  0  0  0  0
   10.8058  -14.8844   26.5192 C   0  0  0  0  0  0  0  0  0  0  0  0
   11.2960  -14.4049   25.2252 C   0  0  0  0  0  0  0  0  0  0  0  0
   11.6248  -15.5284   24.2590 C   0  0  2  0  0  0  0  0  0  0  0  0
   10.3762  -16.0384   23.7161 N   0  0  0  0  0  0  0  0  0  0  0  0
   12.4641  -16.5789   24.8217 C   0  0  0  0  0  0  0  0  0  0  0  0
   13.7531  -16.3123   25.2649 O   0  0  0  0  0  0  0  0  0  0  0  0
   11.5918  -14.7585   27.6501 C   0  0  0  0  0  0  0  0  0  0  0  0
   11.1411  -15.2074   28.8727 C   0  0  0  0  0  0  0  0  0  0  0  0
   12.0694  -17.7652   24.9337 O   0  0  0  0  0  0  0  0  0  0  0  0
  2  1  1  1
  2  3  1  0
  4  3  1  0
  4  9  1  0
  5  4  2  0
  6  5  1  0
  6  7  2  0
  7  8  1  0
  8  9  2  0
 10  2  1  0
 11 10  2  0
 13 12  1  1
 13 14  1  0
 14 10  1  0
 15 13  1  0
 15 16  2  0
 18 17  1  0
 19 18  2  0
 20 19  1  0
 21 20  2  0
 21 27  1  0
 23 22  1  1
 22 21  1  0
 23 24  1  0
 24 15  1  0
 25 23  1  0
 26 25  1  0
 27 28  2  0
 28 18  1  0
 29 25  2  0
M  END
$$$$
