FAY.pdb
     RDKit          3D

 29 30  0  0  1  0  0  0  0  0999 V2000
    6.4442  -17.3947   25.4335 N   0  0  0  0  0  0  0  0  0  0  0  0
    6.4233  -17.0653   24.0021 C   0  0  1  0  0  0  0  0  0  0  0  0
    5.5955  -15.8522   23.7491 C   0  0  0  0  0  0  0  0  0  0  0  0
    6.0666  -14.6516   24.4399 C   0  0  0  0  0  0  0  0  0  0  0  0
    5.6062  -14.3184   25.7159 C   0  0  0  0  0  0  0  0  0  0  0  0
    6.0332  -13.1957   26.3894 C   0  0  0  0  0  0  0  0  0  0  0  0
    6.9518  -12.3588   25.7913 C   0  0  0  0  0  0  0  0  0  0  0  0
    7.4359  -12.6519   24.5240 C   0  0  0  0  0  0  0  0  0  0  0  0
    6.9863  -13.7810   23.8835 C   0  0  0  0  0  0  0  0  0  0  0  0
    7.7984  -17.0085   23.4552 C   0  0  0  0  0  0  0  0  0  0  0  0
    8.7258  -17.6259   24.0317 O   0  0  0  0  0  0  0  0  0  0  0  0
    9.4804  -15.7271   20.3274 C   0  0  0  0  0  0  0  0  0  0  0  0
    9.4373  -16.4415   21.6746 C   0  0  2  0  0  0  0  0  0  0  0  0
    8.1336  -16.2752   22.2849 N   0  0  0  0  0  0  0  0  0  0  0  0
   10.4986  -15.9086   22.5831 C   0  0  0  0  0  0  0  0  0  0  0  0
   11.7083  -16.1915   22.3758 O   0  0  0  0  0  0  0  0  0  0  0  0
   11.7877  -16.2705   31.1835 O   0  0  0  0  0  0  0  0  0  0  0  0
   11.3063  -15.9666   29.9170 C   0  0  0  0  0  0  0  0  0  0  0  0
   11.3767  -14.6708   29.4543 C   0  0  0  0  0  0  0  0  0  0  0  0
   10.8959  -14.3970   28.2036 C   0  0  0  0  0  0  0  0  0  0  0  0
   10.3463  -15.3828   27.4017 C   0  0  0  0  0  0  0  0  0  0  0  0
    9.8321  -15.0820   26.0638 C   0  0  0  0  0  0  0  0  0  0  0  0
   10.8622  -15.2910   24.9687 C   0  0  2  0  0  0  0  0  0  0  0  0
   10.2078  -15.0856   23.6868 N   0  0  0  0  0  0  0  0  0  0  0  0
   11.5681  -16.5641   25.0423 C   0  0  0  0  0  0  0  0  0  0  0  0
   12.8052  -16.6678   25.6652 O   0  0  0  0  0  0  0  0  0  0  0  0
   10.2895  -16.6740   27.8939 C   0  0  0  0  0  0  0  0  0  0  0  0
   10.7693  -16.9682   29.1519 C   0  0  0  0  0  0  0  0  0  0  0  0
   11.0994  -17.6204   24.5523 O   0  0  0  0  0  0  0  0  0  0  0  0
  2  1  1  1
  2  3  1  0
  4  3  1  0
  4  9  1  0
  5  4  2  0
  6  5  1  0
  6  7  2  0
  7  8  1  0
  8  9  2  0
 10  2  1  0
 11 10  2  0
 13 12  1  6
 13 14  1  0
 14 10  1  0
 15 13  1  0
 15 16  2  0
 18 17  1  0
 19 18  2  0
 20 19  1  0
 21 20  2  0
 21 27  1  0
 23 22  1  1
 22 21  1  0
 23 24  1  0
 24 15  1  0
 25 23  1  0
 26 25  1  0
 27 28  2  0
 28 18  1  0
 29 25  2  0
M  END
$$$$
