FAY.pdb
     RDKit          3D

 29 30  0  0  1  0  0  0  0  0999 V2000
    8.3212  -15.7202   15.2617 N   0  0  0  0  0  0  0  0  0  0  0  0
    8.5626  -15.3761   16.6692 C   0  0  1  0  0  0  0  0  0  0  0  0
    7.4818  -14.4933   17.1922 C   0  0  0  0  0  0  0  0  0  0  0  0
    7.6516  -14.1050   18.5926 C   0  0  0  0  0  0  0  0  0  0  0  0
    7.0402  -14.8199   19.6251 C   0  0  0  0  0  0  0  0  0  0  0  0
    7.1836  -14.4776   20.9513 C   0  0  0  0  0  0  0  0  0  0  0  0
    7.9592  -13.3876   21.2865 C   0  0  0  0  0  0  0  0  0  0  0  0
    8.5850  -12.6487   20.2923 C   0  0  0  0  0  0  0  0  0  0  0  0
    8.4184  -13.0210   18.9804 C   0  0  0  0  0  0  0  0  0  0  0  0
    8.8177  -16.5940   17.4723 C   0  0  0  0  0  0  0  0  0  0  0  0
    7.8803  -17.3930   17.7100 O   0  0  0  0  0  0  0  0  0  0  0  0
   11.3505  -18.9935   18.2382 C   0  0  0  0  0  0  0  0  0  0  0  0
   10.2645  -18.0964   18.8240 C   0  0  2  0  0  0  0  0  0  0  0  0
   10.0968  -16.9154   18.0015 N   0  0  0  0  0  0  0  0  0  0  0  0
   10.6126  -17.6996   20.2230 C   0  0  0  0  0  0  0  0  0  0  0  0
   11.1136  -18.5431   21.0129 O   0  0  0  0  0  0  0  0  0  0  0  0
   15.7071  -14.6124   18.1689 O   0  0  0  0  0  0  0  0  0  0  0  0
   14.6712  -14.6224   19.0936 C   0  0  0  0  0  0  0  0  0  0  0  0
   13.4152  -14.2024   18.7139 C   0  0  0  0  0  0  0  0  0  0  0  0
   12.4117  -14.2217   19.6429 C   0  0  0  0  0  0  0  0  0  0  0  0
   12.6285  -14.6494   20.9418 C   0  0  0  0  0  0  0  0  0  0  0  0
   11.5494  -14.6662   21.9317 C   0  0  0  0  0  0  0  0  0  0  0  0
   10.8620  -16.0151   22.0410 C   0  0  2  0  0  0  0  0  0  0  0  0
   10.4036  -16.3982   20.7154 N   0  0  0  0  0  0  0  0  0  0  0  0
    9.8024  -16.0707   23.0404 C   0  0  0  0  0  0  0  0  0  0  0  0
    8.4847  -16.3232   22.6811 O   0  0  0  0  0  0  0  0  0  0  0  0
   13.9000  -15.0650   21.2928 C   0  0  0  0  0  0  0  0  0  0  0  0
   14.9233  -15.0523   20.3697 C   0  0  0  0  0  0  0  0  0  0  0  0
   10.0238  -15.8953   24.2634 O   0  0  0  0  0  0  0  0  0  0  0  0
  2  1  1  6
  2  3  1  0
  4  3  1  0
  4  9  1  0
  5  4  2  0
  6  5  1  0
  6  7  2  0
  7  8  1  0
  8  9  2  0
 10  2  1  0
 11 10  2  0
 13 12  1  6
 13 14  1  0
 14 10  1  0
 15 13  1  0
 15 16  2  0
 18 17  1  0
 19 18  2  0
 20 19  1  0
 21 20  2  0
 21 27  1  0
 23 22  1  6
 22 21  1  0
 23 24  1  0
 24 15  1  0
 25 23  1  0
 26 25  1  0
 27 28  2  0
 28 18  1  0
 29 25  2  0
M  END
$$$$
