FAY.pdb
     RDKit          3D

 29 30  0  0  1  0  0  0  0  0999 V2000
    6.2305  -18.2616   23.9004 N   0  0  0  0  0  0  0  0  0  0  0  0
    7.2222  -17.2603   23.4859 C   0  0  1  0  0  0  0  0  0  0  0  0
    6.8500  -15.9066   23.9859 C   0  0  0  0  0  0  0  0  0  0  0  0
    7.1279  -14.8231   23.0428 C   0  0  0  0  0  0  0  0  0  0  0  0
    7.2830  -13.5040   23.4751 C   0  0  0  0  0  0  0  0  0  0  0  0
    7.5461  -12.4653   22.6100 C   0  0  0  0  0  0  0  0  0  0  0  0
    7.6634  -12.7246   21.2606 C   0  0  0  0  0  0  0  0  0  0  0  0
    7.5165  -14.0210   20.7874 C   0  0  0  0  0  0  0  0  0  0  0  0
    7.2546  -15.0311   21.6811 C   0  0  0  0  0  0  0  0  0  0  0  0
    8.5922  -17.7005   23.8358 C   0  0  0  0  0  0  0  0  0  0  0  0
    8.7661  -18.5136   24.7752 O   0  0  0  0  0  0  0  0  0  0  0  0
   12.0832  -17.3685   22.4560 C   0  0  0  0  0  0  0  0  0  0  0  0
   11.0576  -17.7399   23.5225 C   0  0  2  0  0  0  0  0  0  0  0  0
    9.7490  -17.2416   23.1497 N   0  0  0  0  0  0  0  0  0  0  0  0
   11.4581  -17.1808   24.8502 C   0  0  0  0  0  0  0  0  0  0  0  0
   12.5152  -17.5762   25.4093 O   0  0  0  0  0  0  0  0  0  0  0  0
    5.6195  -12.5220   26.4212 O   0  0  0  0  0  0  0  0  0  0  0  0
    6.9469  -12.9208   26.5053 C   0  0  0  0  0  0  0  0  0  0  0  0
    7.6160  -12.8124   27.7048 C   0  0  0  0  0  0  0  0  0  0  0  0
    8.9228  -13.2119   27.7620 C   0  0  0  0  0  0  0  0  0  0  0  0
    9.5800  -13.7171   26.6530 C   0  0  0  0  0  0  0  0  0  0  0  0
   10.9799  -14.1417   26.7213 C   0  0  0  0  0  0  0  0  0  0  0  0
   11.1427  -15.6493   26.7892 C   0  0  2  0  0  0  0  0  0  0  0  0
   10.6948  -16.2102   25.5248 N   0  0  0  0  0  0  0  0  0  0  0  0
   10.5003  -16.2722   27.9398 C   0  0  0  0  0  0  0  0  0  0  0  0
   10.8423  -15.9150   29.2377 O   0  0  0  0  0  0  0  0  0  0  0  0
    8.8818  -13.8136   25.4632 C   0  0  0  0  0  0  0  0  0  0  0  0
    7.5645  -13.4158   25.3871 C   0  0  0  0  0  0  0  0  0  0  0  0
    9.6148  -17.1534   27.8183 O   0  0  0  0  0  0  0  0  0  0  0  0
  2  1  1  1
  2  3  1  0
  4  3  1  0
  4  9  1  0
  5  4  2  0
  6  5  1  0
  6  7  2  0
  7  8  1  0
  8  9  2  0
 10  2  1  0
 11 10  2  0
 13 12  1  6
 13 14  1  0
 14 10  1  0
 15 13  1  0
 15 16  2  0
 18 17  1  0
 19 18  2  0
 20 19  1  0
 21 20  2  0
 21 27  1  0
 23 22  1  6
 22 21  1  0
 23 24  1  0
 24 15  1  0
 25 23  1  0
 26 25  1  0
 27 28  2  0
 28 18  1  0
 29 25  2  0
M  END
$$$$
