FAY.pdb
     RDKit          3D

 29 30  0  0  1  0  0  0  0  0999 V2000
    6.2881  -16.6265   22.2751 N   0  0  0  0  0  0  0  0  0  0  0  0
    7.3424  -16.1959   23.2030 C   0  0  1  0  0  0  0  0  0  0  0  0
    6.7665  -15.8335   24.5288 C   0  0  0  0  0  0  0  0  0  0  0  0
    6.8077  -14.4019   24.8279 C   0  0  0  0  0  0  0  0  0  0  0  0
    6.5071  -13.9159   26.1025 C   0  0  0  0  0  0  0  0  0  0  0  0
    6.5390  -12.5744   26.4120 C   0  0  0  0  0  0  0  0  0  0  0  0
    6.8797  -11.6643   25.4335 C   0  0  0  0  0  0  0  0  0  0  0  0
    7.1858  -12.1035   24.1531 C   0  0  0  0  0  0  0  0  0  0  0  0
    7.1431  -13.4497   23.8823 C   0  0  0  0  0  0  0  0  0  0  0  0
    8.4403  -17.1888   23.2491 C   0  0  0  0  0  0  0  0  0  0  0  0
    8.2609  -18.3403   22.7849 O   0  0  0  0  0  0  0  0  0  0  0  0
   11.1003  -17.3912   21.8560 C   0  0  0  0  0  0  0  0  0  0  0  0
   10.8846  -17.6289   23.3474 C   0  0  2  0  0  0  0  0  0  0  0  0
    9.7170  -16.9023   23.8037 N   0  0  0  0  0  0  0  0  0  0  0  0
   12.0885  -17.2015   24.1245 C   0  0  0  0  0  0  0  0  0  0  0  0
   13.2326  -17.2634   23.6016 O   0  0  0  0  0  0  0  0  0  0  0  0
    8.0709  -13.4349   28.1203 O   0  0  0  0  0  0  0  0  0  0  0  0
    9.1610  -14.2911   28.0375 C   0  0  0  0  0  0  0  0  0  0  0  0
   10.3511  -13.8304   27.5183 C   0  0  0  0  0  0  0  0  0  0  0  0
   11.4100  -14.6930   27.4474 C   0  0  0  0  0  0  0  0  0  0  0  0
   11.3127  -16.0042   27.8813 C   0  0  0  0  0  0  0  0  0  0  0  0
   12.4505  -16.9227   27.8011 C   0  0  0  0  0  0  0  0  0  0  0  0
   13.0556  -17.0020   26.4113 C   0  0  2  0  0  0  0  0  0  0  0  0
   12.0067  -16.7211   25.4444 N   0  0  0  0  0  0  0  0  0  0  0  0
   13.7591  -18.2476   26.1320 C   0  0  0  0  0  0  0  0  0  0  0  0
   15.1446  -18.3225   26.1923 O   0  0  0  0  0  0  0  0  0  0  0  0
   10.1050  -16.4373   28.3976 C   0  0  0  0  0  0  0  0  0  0  0  0
    9.0274  -15.5819   28.4767 C   0  0  0  0  0  0  0  0  0  0  0  0
   13.1556  -19.3049   25.8262 O   0  0  0  0  0  0  0  0  0  0  0  0
  2  1  1  6
  2  3  1  0
  4  3  1  0
  4  9  1  0
  5  4  2  0
  6  5  1  0
  6  7  2  0
  7  8  1  0
  8  9  2  0
 10  2  1  0
 11 10  2  0
 13 12  1  6
 13 14  1  0
 14 10  1  0
 15 13  1  0
 15 16  2  0
 18 17  1  0
 19 18  2  0
 20 19  1  0
 21 20  2  0
 21 27  1  0
 23 22  1  1
 22 21  1  0
 23 24  1  0
 24 15  1  0
 25 23  1  0
 26 25  1  0
 27 28  2  0
 28 18  1  0
 29 25  2  0
M  END
$$$$
