FAY.pdb
     RDKit          3D

 29 30  0  0  1  0  0  0  0  0999 V2000
    6.1673  -18.0167   19.7294 N   0  0  0  0  0  0  0  0  0  0  0  0
    6.9379  -16.8578   20.1995 C   0  0  1  0  0  0  0  0  0  0  0  0
    6.0306  -15.7536   20.6218 C   0  0  0  0  0  0  0  0  0  0  0  0
    6.7254  -14.5456   21.0678 C   0  0  0  0  0  0  0  0  0  0  0  0
    6.8671  -14.2468   22.4248 C   0  0  0  0  0  0  0  0  0  0  0  0
    7.5169  -13.1181   22.8725 C   0  0  0  0  0  0  0  0  0  0  0  0
    8.0535  -12.2399   21.9544 C   0  0  0  0  0  0  0  0  0  0  0  0
    7.9358  -12.4979   20.5959 C   0  0  0  0  0  0  0  0  0  0  0  0
    7.2805  -13.6343   20.1876 C   0  0  0  0  0  0  0  0  0  0  0  0
    7.9377  -17.2668   21.2126 C   0  0  0  0  0  0  0  0  0  0  0  0
    7.5602  -17.8069   22.2800 O   0  0  0  0  0  0  0  0  0  0  0  0
   11.6695  -17.6288   21.4764 C   0  0  0  0  0  0  0  0  0  0  0  0
   10.2609  -17.5343   22.0545 C   0  0  2  0  0  0  0  0  0  0  0  0
    9.3352  -17.0766   21.0381 N   0  0  0  0  0  0  0  0  0  0  0  0
   10.2373  -16.6029   23.2240 C   0  0  0  0  0  0  0  0  0  0  0  0
   10.4308  -15.3700   23.0538 O   0  0  0  0  0  0  0  0  0  0  0  0
    6.3838  -10.9935   26.2966 O   0  0  0  0  0  0  0  0  0  0  0  0
    6.9534  -12.2598   26.3021 C   0  0  0  0  0  0  0  0  0  0  0  0
    6.2435  -13.3283   25.7995 C   0  0  0  0  0  0  0  0  0  0  0  0
    6.8265  -14.5654   25.8160 C   0  0  0  0  0  0  0  0  0  0  0  0
    8.1001  -14.7646   26.3212 C   0  0  0  0  0  0  0  0  0  0  0  0
    8.7176  -16.0925   26.3369 C   0  0  0  0  0  0  0  0  0  0  0  0
   10.0775  -16.1252   25.6635 C   0  0  2  0  0  0  0  0  0  0  0  0
   10.0039  -17.0445   24.5395 N   0  0  0  0  0  0  0  0  0  0  0  0
   11.1862  -16.4228   26.5618 C   0  0  0  0  0  0  0  0  0  0  0  0
   11.5535  -17.7320   26.8449 O   0  0  0  0  0  0  0  0  0  0  0  0
    8.7876  -13.6726   26.8188 C   0  0  0  0  0  0  0  0  0  0  0  0
    8.2158  -12.4187   26.8101 C   0  0  0  0  0  0  0  0  0  0  0  0
   11.8585  -15.5213   27.1192 O   0  0  0  0  0  0  0  0  0  0  0  0
  2  1  1  1
  2  3  1  0
  4  3  1  0
  4  9  1  0
  5  4  2  0
  6  5  1  0
  6  7  2  0
  7  8  1  0
  8  9  2  0
 10  2  1  0
 11 10  2  0
 13 12  1  6
 13 14  1  0
 14 10  1  0
 15 13  1  0
 15 16  2  0
 18 17  1  0
 19 18  2  0
 20 19  1  0
 21 20  2  0
 21 27  1  0
 23 22  1  1
 22 21  1  0
 23 24  1  0
 24 15  1  0
 25 23  1  0
 26 25  1  0
 27 28  2  0
 28 18  1  0
 29 25  2  0
M  END
$$$$
