FAY.pdb
     RDKit          3D

 29 30  0  0  1  0  0  0  0  0999 V2000
    5.9955  -17.5306   25.0296 N   0  0  0  0  0  0  0  0  0  0  0  0
    6.8296  -16.3783   24.6632 C   0  0  1  0  0  0  0  0  0  0  0  0
    7.4125  -15.7385   25.8764 C   0  0  0  0  0  0  0  0  0  0  0  0
    7.1139  -14.3117   26.0024 C   0  0  0  0  0  0  0  0  0  0  0  0
    5.9452  -13.8649   26.6233 C   0  0  0  0  0  0  0  0  0  0  0  0
    5.6396  -12.5288   26.7566 C   0  0  0  0  0  0  0  0  0  0  0  0
    6.5140  -11.5841   26.2617 C   0  0  0  0  0  0  0  0  0  0  0  0
    7.6872  -11.9838   25.6372 C   0  0  0  0  0  0  0  0  0  0  0  0
    7.9577  -13.3259   25.5230 C   0  0  0  0  0  0  0  0  0  0  0  0
    7.8125  -16.7508   23.6200 C   0  0  0  0  0  0  0  0  0  0  0  0
    8.3122  -17.9015   23.6152 O   0  0  0  0  0  0  0  0  0  0  0  0
    9.3094  -15.2873   20.4871 C   0  0  0  0  0  0  0  0  0  0  0  0
    9.2686  -16.2517   21.6684 C   0  0  2  0  0  0  0  0  0  0  0  0
    8.2314  -15.8551   22.5994 N   0  0  0  0  0  0  0  0  0  0  0  0
   10.5927  -16.2848   22.3623 C   0  0  0  0  0  0  0  0  0  0  0  0
   11.6161  -15.8216   21.7928 O   0  0  0  0  0  0  0  0  0  0  0  0
    9.6881  -15.1158   29.9765 O   0  0  0  0  0  0  0  0  0  0  0  0
   10.3058  -15.1853   28.7348 C   0  0  0  0  0  0  0  0  0  0  0  0
    9.8871  -14.3549   27.7183 C   0  0  0  0  0  0  0  0  0  0  0  0
   10.5115  -14.4424   26.5046 C   0  0  0  0  0  0  0  0  0  0  0  0
   11.5434  -15.3373   26.2784 C   0  0  0  0  0  0  0  0  0  0  0  0
   12.2066  -15.4264   24.9757 C   0  0  0  0  0  0  0  0  0  0  0  0
   12.0502  -16.7860   24.3191 C   0  0  2  0  0  0  0  0  0  0  0  0
   10.7584  -16.8208   23.6527 N   0  0  0  0  0  0  0  0  0  0  0  0
   12.2491  -17.9149   25.2195 C   0  0  0  0  0  0  0  0  0  0  0  0
   13.4546  -18.1047   25.8826 O   0  0  0  0  0  0  0  0  0  0  0  0
   11.9414  -16.1575   27.3183 C   0  0  0  0  0  0  0  0  0  0  0  0
   11.3236  -16.0831   28.5479 C   0  0  0  0  0  0  0  0  0  0  0  0
   11.3511  -18.7638   25.4396 O   0  0  0  0  0  0  0  0  0  0  0  0
  2  1  1  1
  2  3  1  0
  4  3  1  0
  4  9  1  0
  5  4  2  0
  6  5  1  0
  6  7  2  0
  7  8  1  0
  8  9  2  0
 10  2  1  0
 11 10  2  0
 13 12  1  6
 13 14  1  0
 14 10  1  0
 15 13  1  0
 15 16  2  0
 18 17  1  0
 19 18  2  0
 20 19  1  0
 21 20  2  0
 21 27  1  0
 23 22  1  1
 22 21  1  0
 23 24  1  0
 24 15  1  0
 25 23  1  0
 26 25  1  0
 27 28  2  0
 28 18  1  0
 29 25  2  0
M  END
$$$$
