FAY.pdb
     RDKit          3D

 29 30  0  0  1  0  0  0  0  0999 V2000
    6.2632  -17.0554   25.2461 N   0  0  0  0  0  0  0  0  0  0  0  0
    7.1755  -16.0367   24.7097 C   0  0  1  0  0  0  0  0  0  0  0  0
    7.6839  -15.1542   25.7977 C   0  0  0  0  0  0  0  0  0  0  0  0
    7.1396  -13.7964   25.7703 C   0  0  0  0  0  0  0  0  0  0  0  0
    7.8849  -12.7235   25.2758 C   0  0  0  0  0  0  0  0  0  0  0  0
    7.3974  -11.4362   25.2371 C   0  0  0  0  0  0  0  0  0  0  0  0
    6.1240  -11.1828   25.7022 C   0  0  0  0  0  0  0  0  0  0  0  0
    5.3485  -12.2195   26.2023 C   0  0  0  0  0  0  0  0  0  0  0  0
    5.8693  -13.4906   26.2246 C   0  0  0  0  0  0  0  0  0  0  0  0
    8.2240  -16.6595   23.8694 C   0  0  0  0  0  0  0  0  0  0  0  0
    8.4305  -17.8947   23.9419 O   0  0  0  0  0  0  0  0  0  0  0  0
    9.5200  -16.0847   20.5807 C   0  0  0  0  0  0  0  0  0  0  0  0
    9.8362  -16.6080   21.9784 C   0  0  2  0  0  0  0  0  0  0  0  0
    9.0287  -15.9171   22.9633 N   0  0  0  0  0  0  0  0  0  0  0  0
   11.2875  -16.4260   22.2888 C   0  0  0  0  0  0  0  0  0  0  0  0
   12.1383  -17.2316   21.8268 O   0  0  0  0  0  0  0  0  0  0  0  0
   11.2517  -16.2060   30.7851 O   0  0  0  0  0  0  0  0  0  0  0  0
   11.1146  -16.0699   29.4100 C   0  0  0  0  0  0  0  0  0  0  0  0
   10.8625  -14.8276   28.8702 C   0  0  0  0  0  0  0  0  0  0  0  0
   10.7317  -14.7196   27.5131 C   0  0  0  0  0  0  0  0  0  0  0  0
   10.8459  -15.8193   26.6798 C   0  0  0  0  0  0  0  0  0  0  0  0
   10.7033  -15.6964   25.2274 C   0  0  0  0  0  0  0  0  0  0  0  0
   12.0333  -15.5715   24.5066 C   0  0  2  0  0  0  0  0  0  0  0  0
   11.7641  -15.3732   23.0916 N   0  0  0  0  0  0  0  0  0  0  0  0
   12.9572  -16.6712   24.7547 C   0  0  0  0  0  0  0  0  0  0  0  0
   12.6641  -17.9657   24.3454 O   0  0  0  0  0  0  0  0  0  0  0  0
   11.0992  -17.0530   27.2512 C   0  0  0  0  0  0  0  0  0  0  0  0
   11.2340  -17.1805   28.6168 C   0  0  0  0  0  0  0  0  0  0  0  0
   14.0530  -16.5067   25.3442 O   0  0  0  0  0  0  0  0  0  0  0  0
  2  1  1  1
  2  3  1  0
  4  3  1  0
  4  9  1  0
  5  4  2  0
  6  5  1  0
  6  7  2  0
  7  8  1  0
  8  9  2  0
 10  2  1  0
 11 10  2  0
 13 12  1  6
 13 14  1  0
 14 10  1  0
 15 13  1  0
 15 16  2  0
 18 17  1  0
 19 18  2  0
 20 19  1  0
 21 20  2  0
 21 27  1  0
 23 22  1  1
 22 21  1  0
 23 24  1  0
 24 15  1  0
 25 23  1  0
 26 25  1  0
 27 28  2  0
 28 18  1  0
 29 25  2  0
M  END
$$$$
