TYD.pdb
     RDKit          3D

 28 28  0  0  1  0  0  0  0  0999 V2000
   27.3463  -20.5469  -18.6859 C   0  0  0  0  0  0  0  0  0  0  0  0
   28.2221  -21.7914  -18.7877 C   0  0  1  0  0  0  0  0  0  0  0  0
   29.2855  -21.6132  -19.6658 O   0  0  0  0  0  0  0  0  0  0  0  0
   28.8335  -22.0801  -17.4126 C   0  0  2  0  0  0  0  0  0  0  0  0
   29.5840  -23.3289  -17.4874 N   0  0  0  0  0  0  0  0  0  0  0  0
   27.8092  -22.2341  -16.3622 C   0  0  0  0  0  0  0  0  0  0  0  0
   27.1904  -23.3388  -16.2136 O   0  0  0  0  0  0  0  0  0  0  0  0
   23.3517  -20.7432   -8.8032 O   0  0  0  0  0  0  0  0  0  0  0  0
   24.1973  -20.6578   -9.9071 C   0  0  0  0  0  0  0  0  0  0  0  0
   25.4458  -21.2523   -9.9076 C   0  0  0  0  0  0  0  0  0  0  0  0
   26.2846  -21.1690  -10.9994 C   0  0  0  0  0  0  0  0  0  0  0  0
   25.9102  -20.4837  -12.1455 C   0  0  0  0  0  0  0  0  0  0  0  0
   26.8251  -20.4092  -13.2997 C   0  0  0  0  0  0  0  0  0  0  0  0
   26.4401  -21.3672  -14.4063 C   0  0  2  0  0  0  0  0  0  0  0  0
   27.4243  -21.2147  -15.4493 N   0  0  0  0  0  0  0  0  0  0  0  0
   25.0564  -21.2050  -14.8839 C   0  0  0  0  0  0  0  0  0  0  0  0
   24.7787  -20.2176  -15.6004 O   0  0  0  0  0  0  0  0  0  0  0  0
   24.6713  -19.8900  -12.1538 C   0  0  0  0  0  0  0  0  0  0  0  0
   23.8231  -19.9760  -11.0459 C   0  0  0  0  0  0  0  0  0  0  0  0
   24.0314  -22.1256  -14.5637 N   0  0  0  0  0  0  0  0  0  0  0  0
   22.6463  -21.8319  -14.9674 C   0  0  1  0  0  0  0  0  0  0  0  0
   22.1486  -20.6744  -14.1215 C   0  0  0  0  0  0  0  0  0  0  0  0
   21.0158  -21.0569  -13.2511 C   0  0  0  0  0  0  0  0  0  0  0  0
   20.5888  -22.2289  -13.1098 O   0  0  0  0  0  0  0  0  0  0  0  0
   22.6266  -21.4583  -16.4016 C   0  0  0  0  0  0  0  0  0  0  0  0
   21.6609  -20.8496  -16.9239 O   0  0  0  0  0  0  0  0  0  0  0  0
   20.3689  -20.0527  -12.5318 O   0  0  0  0  0  0  0  0  0  0  0  0
   23.6878  -21.7602  -17.2710 O   0  0  0  0  0  0  0  0  0  0  0  0
  2  1  1  1
  2  3  1  0
  4  2  1  0
  4  5  1  6
  6  4  1  0
  6  7  2  0
  8  9  1  0
  9 10  2  0
 10 11  1  0
 12 13  1  0
 12 11  2  0
 14 13  1  1
 14 15  1  0
 15  6  1  0
 16 14  1  0
 17 16  2  0
 18 12  1  0
 19 18  2  0
 19  9  1  0
 20 16  1  0
 21 20  1  0
 21 25  1  0
 21 22  1  1
 23 22  1  0
 24 23  2  0
 25 26  2  0
 25 28  1  0
 27 23  1  0
M  END
$$$$
