TYD.pdb
     RDKit          3D

 28 28  0  0  1  0  0  0  0  0999 V2000
   21.4481   -9.5271  -20.4010 C   0  0  0  0  0  0  0  0  0  0  0  0
   21.5855  -10.9391  -19.8410 C   0  0  1  0  0  0  0  0  0  0  0  0
   21.6621  -11.8963  -20.8467 O   0  0  0  0  0  0  0  0  0  0  0  0
   22.8933  -11.0318  -19.0478 C   0  0  2  0  0  0  0  0  0  0  0  0
   23.0244  -12.3850  -18.5188 N   0  0  0  0  0  0  0  0  0  0  0  0
   22.9265  -10.0982  -17.9061 C   0  0  0  0  0  0  0  0  0  0  0  0
   22.3334  -10.3839  -16.8143 O   0  0  0  0  0  0  0  0  0  0  0  0
   28.7261  -11.7571  -16.0737 O   0  0  0  0  0  0  0  0  0  0  0  0
   27.8300  -10.7011  -16.2245 C   0  0  0  0  0  0  0  0  0  0  0  0
   26.9830  -10.3213  -15.1996 C   0  0  0  0  0  0  0  0  0  0  0  0
   26.0950   -9.2761  -15.3467 C   0  0  0  0  0  0  0  0  0  0  0  0
   26.0141   -8.5604  -16.5318 C   0  0  0  0  0  0  0  0  0  0  0  0
   25.0563   -7.4469  -16.6643 C   0  0  0  0  0  0  0  0  0  0  0  0
   23.6262   -7.9255  -16.7921 C   0  0  2  0  0  0  0  0  0  0  0  0
   23.5926   -8.8424  -17.9047 N   0  0  0  0  0  0  0  0  0  0  0  0
   22.6390   -6.8383  -16.9042 C   0  0  0  0  0  0  0  0  0  0  0  0
   22.5675   -6.1984  -17.9770 O   0  0  0  0  0  0  0  0  0  0  0  0
   26.8520   -8.9310  -17.5556 C   0  0  0  0  0  0  0  0  0  0  0  0
   27.7511   -9.9907  -17.4038 C   0  0  0  0  0  0  0  0  0  0  0  0
   21.7682   -6.4932  -15.8444 N   0  0  0  0  0  0  0  0  0  0  0  0
   20.7476   -5.4538  -16.0589 C   0  0  1  0  0  0  0  0  0  0  0  0
   19.3853   -6.0832  -15.8337 C   0  0  0  0  0  0  0  0  0  0  0  0
   18.2893   -5.0917  -15.8856 C   0  0  0  0  0  0  0  0  0  0  0  0
   18.4178   -3.9063  -16.2782 O   0  0  0  0  0  0  0  0  0  0  0  0
   20.9645   -4.3522  -15.0914 C   0  0  0  0  0  0  0  0  0  0  0  0
   21.8505   -4.4028  -14.2035 O   0  0  0  0  0  0  0  0  0  0  0  0
   17.0191   -5.4909  -15.4716 O   0  0  0  0  0  0  0  0  0  0  0  0
   20.1932   -3.1783  -15.1045 O   0  0  0  0  0  0  0  0  0  0  0  0
  2  1  1  6
  2  3  1  0
  4  2  1  0
  4  5  1  1
  6  4  1  0
  6  7  2  0
  8  9  1  0
  9 10  2  0
 10 11  1  0
 12 13  1  0
 12 11  2  0
 14 13  1  6
 14 15  1  0
 15  6  1  0
 16 14  1  0
 17 16  2  0
 18 12  1  0
 19 18  2  0
 19  9  1  0
 20 16  1  0
 21 20  1  0
 21 25  1  0
 21 22  1  1
 23 22  1  0
 24 23  2  0
 25 26  2  0
 25 28  1  0
 27 23  1  0
M  END
$$$$
