TYD.pdb
     RDKit          3D

 28 28  0  0  1  0  0  0  0  0999 V2000
   21.6474   -9.0250  -19.1546 C   0  0  0  0  0  0  0  0  0  0  0  0
   21.1784  -10.4488  -18.8733 C   0  0  1  0  0  0  0  0  0  0  0  0
   21.7310  -11.3670  -19.7594 O   0  0  0  0  0  0  0  0  0  0  0  0
   21.6463  -10.8563  -17.4722 C   0  0  2  0  0  0  0  0  0  0  0  0
   21.2987  -12.2558  -17.2517 N   0  0  0  0  0  0  0  0  0  0  0  0
   21.0018  -10.0609  -16.4100 C   0  0  0  0  0  0  0  0  0  0  0  0
   19.7503  -10.1627  -16.1893 O   0  0  0  0  0  0  0  0  0  0  0  0
   19.7693   -4.9371   -9.2691 O   0  0  0  0  0  0  0  0  0  0  0  0
   20.3043   -5.7272  -10.2841 C   0  0  0  0  0  0  0  0  0  0  0  0
   19.9776   -7.0654  -10.4052 C   0  0  0  0  0  0  0  0  0  0  0  0
   20.5062   -7.8496  -11.4092 C   0  0  0  0  0  0  0  0  0  0  0  0
   21.3899   -7.3277  -12.3419 C   0  0  0  0  0  0  0  0  0  0  0  0
   21.9413   -8.1869  -13.4062 C   0  0  0  0  0  0  0  0  0  0  0  0
   21.0352   -8.2631  -14.6161 C   0  0  2  0  0  0  0  0  0  0  0  0
   21.6778   -9.1420  -15.5619 N   0  0  0  0  0  0  0  0  0  0  0  0
   20.6860   -6.9507  -15.1860 C   0  0  0  0  0  0  0  0  0  0  0  0
   21.5585   -6.3197  -15.8232 O   0  0  0  0  0  0  0  0  0  0  0  0
   21.7202   -5.9989  -12.2292 C   0  0  0  0  0  0  0  0  0  0  0  0
   21.1829   -5.2063  -11.2106 C   0  0  0  0  0  0  0  0  0  0  0  0
   19.4003   -6.3793  -15.0405 N   0  0  0  0  0  0  0  0  0  0  0  0
   19.1518   -5.0224  -15.5551 C   0  0  1  0  0  0  0  0  0  0  0  0
   18.1592   -5.1307  -16.6979 C   0  0  0  0  0  0  0  0  0  0  0  0
   17.7939   -3.8107  -17.2560 C   0  0  0  0  0  0  0  0  0  0  0  0
   16.6821   -3.2509  -17.0943 O   0  0  0  0  0  0  0  0  0  0  0  0
   18.5872   -4.1863  -14.4693 C   0  0  0  0  0  0  0  0  0  0  0  0
   18.3171   -2.9708  -14.6289 O   0  0  0  0  0  0  0  0  0  0  0  0
   18.7441   -3.1311  -18.0171 O   0  0  0  0  0  0  0  0  0  0  0  0
   18.3163   -4.6991  -13.1899 O   0  0  0  0  0  0  0  0  0  0  0  0
  2  1  1  6
  2  3  1  0
  4  2  1  0
  4  5  1  1
  6  4  1  0
  6  7  2  0
  8  9  1  0
  9 10  2  0
 10 11  1  0
 12 13  1  0
 12 11  2  0
 14 13  1  1
 14 15  1  0
 15  6  1  0
 16 14  1  0
 17 16  2  0
 18 12  1  0
 19 18  2  0
 19  9  1  0
 20 16  1  0
 21 20  1  0
 21 25  1  0
 21 22  1  6
 23 22  1  0
 24 23  2  0
 25 26  2  0
 25 28  1  0
 27 23  1  0
M  END
$$$$
