TYD.pdb
     RDKit          3D

 28 28  0  0  1  0  0  0  0  0999 V2000
   35.3836  -35.7933   -2.1526 C   0  0  0  0  0  0  0  0  0  0  0  0
   34.8041  -36.1482   -3.5180 C   0  0  1  0  0  0  0  0  0  0  0  0
   35.6325  -37.0076   -4.2313 O   0  0  0  0  0  0  0  0  0  0  0  0
   33.4770  -36.8870   -3.3154 C   0  0  2  0  0  0  0  0  0  0  0  0
   33.0472  -37.4361   -4.5969 N   0  0  0  0  0  0  0  0  0  0  0  0
   32.4065  -35.9975   -2.8265 C   0  0  0  0  0  0  0  0  0  0  0  0
   32.5137  -35.4076   -1.7014 O   0  0  0  0  0  0  0  0  0  0  0  0
   24.2175  -32.3485   -3.1485 O   0  0  0  0  0  0  0  0  0  0  0  0
   25.5231  -32.7787   -3.3750 C   0  0  0  0  0  0  0  0  0  0  0  0
   25.8338  -33.6180   -4.4291 C   0  0  0  0  0  0  0  0  0  0  0  0
   27.1257  -34.0452   -4.6552 C   0  0  0  0  0  0  0  0  0  0  0  0
   28.1700  -33.6499   -3.8328 C   0  0  0  0  0  0  0  0  0  0  0  0
   29.5428  -34.1203   -4.0956 C   0  0  0  0  0  0  0  0  0  0  0  0
   30.0775  -34.9962   -2.9831 C   0  0  2  0  0  0  0  0  0  0  0  0
   31.2011  -35.7187   -3.5265 N   0  0  0  0  0  0  0  0  0  0  0  0
   29.0638  -35.8719   -2.3710 C   0  0  0  0  0  0  0  0  0  0  0  0
   28.7366  -36.9221   -2.9671 O   0  0  0  0  0  0  0  0  0  0  0  0
   27.8704  -32.8159   -2.7829 C   0  0  0  0  0  0  0  0  0  0  0  0
   26.5602  -32.3844   -2.5561 C   0  0  0  0  0  0  0  0  0  0  0  0
   28.4488  -35.5694   -1.1337 N   0  0  0  0  0  0  0  0  0  0  0  0
   27.3812  -36.4469   -0.6255 C   0  0  1  0  0  0  0  0  0  0  0  0
   27.7605  -36.8789    0.7789 C   0  0  0  0  0  0  0  0  0  0  0  0
   26.7563  -37.7809    1.3831 C   0  0  0  0  0  0  0  0  0  0  0  0
   26.0364  -37.4884    2.3690 O   0  0  0  0  0  0  0  0  0  0  0  0
   26.1047  -35.6940   -0.5981 C   0  0  0  0  0  0  0  0  0  0  0  0
   24.9933  -36.2612   -0.4609 O   0  0  0  0  0  0  0  0  0  0  0  0
   26.5888  -39.0482    0.8263 O   0  0  0  0  0  0  0  0  0  0  0  0
   26.0546  -34.2958   -0.7231 O   0  0  0  0  0  0  0  0  0  0  0  0
  2  1  1  1
  2  3  1  0
  4  2  1  0
  4  5  1  6
  6  4  1  0
  6  7  2  0
  8  9  1  0
  9 10  2  0
 10 11  1  0
 12 13  1  0
 12 11  2  0
 14 13  1  6
 14 15  1  0
 15  6  1  0
 16 14  1  0
 17 16  2  0
 18 12  1  0
 19 18  2  0
 19  9  1  0
 20 16  1  0
 21 20  1  0
 21 25  1  0
 21 22  1  1
 23 22  1  0
 24 23  2  0
 25 26  2  0
 25 28  1  0
 27 23  1  0
M  END
$$$$
