TYD.pdb
     RDKit          3D

 28 28  0  0  1  0  0  0  0  0999 V2000
   32.0234  -38.3481   -7.3734 C   0  0  0  0  0  0  0  0  0  0  0  0
   33.3656  -38.2699   -6.6533 C   0  0  1  0  0  0  0  0  0  0  0  0
   34.4254  -38.6243   -7.4807 O   0  0  0  0  0  0  0  0  0  0  0  0
   33.6123  -36.8201   -6.2225 C   0  0  2  0  0  0  0  0  0  0  0  0
   34.8837  -36.7539   -5.5102 N   0  0  0  0  0  0  0  0  0  0  0  0
   32.5631  -36.3159   -5.3162 C   0  0  0  0  0  0  0  0  0  0  0  0
   32.5931  -36.5876   -4.0710 O   0  0  0  0  0  0  0  0  0  0  0  0
   24.8574  -32.4813   -2.9236 O   0  0  0  0  0  0  0  0  0  0  0  0
   26.0389  -32.8370   -3.5703 C   0  0  0  0  0  0  0  0  0  0  0  0
   27.1989  -33.0957   -2.8635 C   0  0  0  0  0  0  0  0  0  0  0  0
   28.3699  -33.4481   -3.5017 C   0  0  0  0  0  0  0  0  0  0  0  0
   28.4332  -33.5579   -4.8828 C   0  0  0  0  0  0  0  0  0  0  0  0
   29.6972  -33.9363   -5.5416 C   0  0  0  0  0  0  0  0  0  0  0  0
   30.3802  -35.1010   -4.8578 C   0  0  2  0  0  0  0  0  0  0  0  0
   31.4619  -35.5121   -5.7185 N   0  0  0  0  0  0  0  0  0  0  0  0
   29.4703  -36.2027   -4.5006 C   0  0  0  0  0  0  0  0  0  0  0  0
   29.0756  -36.9740   -5.4031 O   0  0  0  0  0  0  0  0  0  0  0  0
   27.2853  -33.3026   -5.5931 C   0  0  0  0  0  0  0  0  0  0  0  0
   26.0998  -32.9458   -4.9437 C   0  0  0  0  0  0  0  0  0  0  0  0
   29.0286  -36.4208   -3.1747 N   0  0  0  0  0  0  0  0  0  0  0  0
   28.0889  -37.5205   -2.8994 C   0  0  1  0  0  0  0  0  0  0  0  0
   28.8877  -38.6949   -2.3652 C   0  0  0  0  0  0  0  0  0  0  0  0
   28.0243  -39.8124   -1.9260 C   0  0  0  0  0  0  0  0  0  0  0  0
   28.2878  -40.5852   -0.9725 O   0  0  0  0  0  0  0  0  0  0  0  0
   27.1020  -37.0749   -1.8874 C   0  0  0  0  0  0  0  0  0  0  0  0
   27.3279  -36.1208   -1.1035 O   0  0  0  0  0  0  0  0  0  0  0  0
   26.8307  -40.0323   -2.6125 O   0  0  0  0  0  0  0  0  0  0  0  0
   25.8482  -37.6906   -1.7390 O   0  0  0  0  0  0  0  0  0  0  0  0
  2  1  1  6
  2  3  1  0
  4  2  1  0
  4  5  1  1
  6  4  1  0
  6  7  2  0
  8  9  1  0
  9 10  2  0
 10 11  1  0
 12 13  1  0
 12 11  2  0
 14 13  1  6
 14 15  1  0
 15  6  1  0
 16 14  1  0
 17 16  2  0
 18 12  1  0
 19 18  2  0
 19  9  1  0
 20 16  1  0
 21 20  1  0
 21 25  1  0
 21 22  1  1
 23 22  1  0
 24 23  2  0
 25 26  2  0
 25 28  1  0
 27 23  1  0
M  END
$$$$
