TYD.pdb
     RDKit          3D

 28 28  0  0  1  0  0  0  0  0999 V2000
   15.1770   -0.0249  -16.2839 C   0  0  0  0  0  0  0  0  0  0  0  0
   16.2110   -1.1356  -16.4376 C   0  0  1  0  0  0  0  0  0  0  0  0
   15.7263   -2.2026  -17.1860 O   0  0  0  0  0  0  0  0  0  0  0  0
   17.4220   -0.5827  -17.1965 C   0  0  2  0  0  0  0  0  0  0  0  0
   16.9900   -0.1654  -18.5260 N   0  0  0  0  0  0  0  0  0  0  0  0
   18.4874   -1.5890  -17.3658 C   0  0  0  0  0  0  0  0  0  0  0  0
   18.7127   -2.1127  -18.5061 O   0  0  0  0  0  0  0  0  0  0  0  0
   26.2193   -5.6848  -16.8859 O   0  0  0  0  0  0  0  0  0  0  0  0
   25.1113   -4.8574  -16.7163 C   0  0  0  0  0  0  0  0  0  0  0  0
   24.2892   -4.9699  -15.6101 C   0  0  0  0  0  0  0  0  0  0  0  0
   23.1917   -4.1519  -15.4402 C   0  0  0  0  0  0  0  0  0  0  0  0
   22.8657   -3.1797  -16.3739 C   0  0  0  0  0  0  0  0  0  0  0  0
   21.6870   -2.3173  -16.1693 C   0  0  0  0  0  0  0  0  0  0  0  0
   20.3886   -3.0265  -16.4881 C   0  0  2  0  0  0  0  0  0  0  0  0
   19.3340   -2.0566  -16.3241 N   0  0  0  0  0  0  0  0  0  0  0  0
   20.1725   -4.2581  -15.7098 C   0  0  0  0  0  0  0  0  0  0  0  0
   19.5831   -4.1788  -14.6090 O   0  0  0  0  0  0  0  0  0  0  0  0
   23.6772   -3.0609  -17.4762 C   0  0  0  0  0  0  0  0  0  0  0  0
   24.7889   -3.8913  -17.6459 C   0  0  0  0  0  0  0  0  0  0  0  0
   20.6052   -5.5263  -16.1626 N   0  0  0  0  0  0  0  0  0  0  0  0
   20.2850   -6.7236  -15.3678 C   0  0  1  0  0  0  0  0  0  0  0  0
   18.7764   -6.7963  -15.2195 C   0  0  0  0  0  0  0  0  0  0  0  0
   18.3372   -8.0129  -14.5026 C   0  0  0  0  0  0  0  0  0  0  0  0
   18.8805   -8.4648  -13.4651 O   0  0  0  0  0  0  0  0  0  0  0  0
   20.7843   -7.9257  -16.0765 C   0  0  0  0  0  0  0  0  0  0  0  0
   20.9187   -7.9624  -17.3241 O   0  0  0  0  0  0  0  0  0  0  0  0
   17.2429   -8.7156  -15.0058 O   0  0  0  0  0  0  0  0  0  0  0  0
   21.1408   -9.1033  -15.3988 O   0  0  0  0  0  0  0  0  0  0  0  0
  2  1  1  6
  2  3  1  0
  4  2  1  0
  4  5  1  6
  6  4  1  0
  6  7  2  0
  8  9  1  0
  9 10  2  0
 10 11  1  0
 12 13  1  0
 12 11  2  0
 14 13  1  1
 14 15  1  0
 15  6  1  0
 16 14  1  0
 17 16  2  0
 18 12  1  0
 19 18  2  0
 19  9  1  0
 20 16  1  0
 21 20  1  0
 21 25  1  0
 21 22  1  6
 23 22  1  0
 24 23  2  0
 25 26  2  0
 25 28  1  0
 27 23  1  0
M  END
$$$$
