TYD.pdb
     RDKit          3D

 28 28  0  0  1  0  0  0  0  0999 V2000
   21.3732   -8.8945  -22.5838 C   0  0  0  0  0  0  0  0  0  0  0  0
   22.5077   -9.6737  -21.9265 C   0  0  1  0  0  0  0  0  0  0  0  0
   23.4886  -10.0421  -22.8407 O   0  0  0  0  0  0  0  0  0  0  0  0
   23.1904   -8.7744  -20.8905 C   0  0  2  0  0  0  0  0  0  0  0  0
   24.4036   -9.4365  -20.4236 N   0  0  0  0  0  0  0  0  0  0  0  0
   22.3362   -8.5214  -19.7146 C   0  0  0  0  0  0  0  0  0  0  0  0
   21.2927   -7.7955  -19.8124 O   0  0  0  0  0  0  0  0  0  0  0  0
   19.4215   -8.9450  -11.2811 O   0  0  0  0  0  0  0  0  0  0  0  0
   20.0878   -9.1563  -12.4861 C   0  0  0  0  0  0  0  0  0  0  0  0
   19.4002   -9.4516  -13.6490 C   0  0  0  0  0  0  0  0  0  0  0  0
   20.0578   -9.6612  -14.8431 C   0  0  0  0  0  0  0  0  0  0  0  0
   21.4399   -9.5845  -14.9281 C   0  0  0  0  0  0  0  0  0  0  0  0
   22.1197   -9.8126  -16.2168 C   0  0  0  0  0  0  0  0  0  0  0  0
   21.7601   -8.7701  -17.2534 C   0  0  2  0  0  0  0  0  0  0  0  0
   22.5765   -9.0371  -18.4119 N   0  0  0  0  0  0  0  0  0  0  0  0
   21.8708   -7.3831  -16.7708 C   0  0  0  0  0  0  0  0  0  0  0  0
   22.9968   -6.8375  -16.7601 O   0  0  0  0  0  0  0  0  0  0  0  0
   22.1313   -9.2915  -13.7775 C   0  0  0  0  0  0  0  0  0  0  0  0
   21.4622   -9.0795  -12.5685 C   0  0  0  0  0  0  0  0  0  0  0  0
   20.7508   -6.6456  -16.3212 N   0  0  0  0  0  0  0  0  0  0  0  0
   20.9405   -5.2659  -15.8431 C   0  0  1  0  0  0  0  0  0  0  0  0
   21.5304   -4.4540  -16.9814 C   0  0  0  0  0  0  0  0  0  0  0  0
   21.6626   -3.0203  -16.6434 C   0  0  0  0  0  0  0  0  0  0  0  0
   21.4316   -2.5302  -15.5111 O   0  0  0  0  0  0  0  0  0  0  0  0
   19.6278   -4.7042  -15.4454 C   0  0  0  0  0  0  0  0  0  0  0  0
   19.4945   -3.5175  -15.0585 O   0  0  0  0  0  0  0  0  0  0  0  0
   22.0722   -2.1418  -17.6458 O   0  0  0  0  0  0  0  0  0  0  0  0
   18.4459   -5.4628  -15.4760 O   0  0  0  0  0  0  0  0  0  0  0  0
  2  1  1  6
  2  3  1  0
  4  2  1  0
  4  5  1  1
  6  4  1  0
  6  7  2  0
  8  9  1  0
  9 10  2  0
 10 11  1  0
 12 13  1  0
 12 11  2  0
 14 13  1  1
 14 15  1  0
 15  6  1  0
 16 14  1  0
 17 16  2  0
 18 12  1  0
 19 18  2  0
 19  9  1  0
 20 16  1  0
 21 20  1  0
 21 25  1  0
 21 22  1  6
 23 22  1  0
 24 23  2  0
 25 26  2  0
 25 28  1  0
 27 23  1  0
M  END
$$$$
