HLR.pdb
     RDKit          3D

 30 30  0  0  1  0  0  0  0  0999 V2000
   10.2111  -14.9619   20.4935 N   0  0  0  0  0  0  0  0  0  0  0  0
    8.8662  -14.8454   21.0614 C   0  0  1  0  0  0  0  0  0  0  0  0
    8.0963  -16.0417   20.5506 C   0  0  0  0  0  0  0  0  0  0  0  0
    7.7574  -15.8952   19.1114 C   0  0  0  0  0  0  0  0  0  0  0  0
    8.1952  -14.9402   18.2337 C   0  0  0  0  0  0  0  0  0  0  0  0
    7.6402  -15.1844   17.0318 N   0  0  0  0  0  0  0  0  0  0  0  0
    6.8658  -16.2790   17.1585 C   0  0  0  0  0  0  0  0  0  0  0  0
    6.9348  -16.7087   18.4106 N   0  0  0  0  0  0  0  0  0  0  0  0
    9.0021  -14.9426   22.5377 C   0  0  0  0  0  0  0  0  0  0  0  0
   10.1174  -15.2597   23.0769 O   0  0  0  0  0  0  0  0  0  0  0  0
    6.0691  -12.2228   27.1653 C   0  0  0  0  0  0  0  0  0  0  0  0
    7.2475  -12.1956   26.2414 C   0  0  1  0  0  0  0  0  0  0  0  0
    8.3870  -12.9168   26.9729 C   0  0  0  0  0  0  0  0  0  0  0  0
    7.0419  -12.9431   24.9490 C   0  0  0  0  0  0  0  0  0  0  0  0
    8.0491  -14.0110   24.6722 C   0  0  2  0  0  0  0  0  0  0  0  0
    7.9309  -14.6952   23.4359 N   0  0  0  0  0  0  0  0  0  0  0  0
    8.0670  -14.9245   25.8530 C   0  0  0  0  0  0  0  0  0  0  0  0
    8.2897  -14.3874   26.9672 O   0  0  0  0  0  0  0  0  0  0  0  0
    8.3357  -20.4242   22.4547 N   0  0  0  0  0  0  0  0  0  0  0  0
    9.6531  -20.9335   22.3702 C   0  0  0  0  0  0  0  0  0  0  0  0
   10.0967  -21.4207   21.2813 N   0  0  0  0  0  0  0  0  0  0  0  0
   10.5200  -20.9093   23.5242 N   0  0  0  0  0  0  0  0  0  0  0  0
   10.7793  -19.6834   24.2081 C   0  0  0  0  0  0  0  0  0  0  0  0
    9.4852  -18.9401   24.4932 C   0  0  0  0  0  0  0  0  0  0  0  0
    9.7415  -17.5756   25.0671 C   0  0  0  0  0  0  0  0  0  0  0  0
    8.8784  -17.2359   26.2341 C   0  0  2  0  0  0  0  0  0  0  0  0
    7.8557  -16.3087   25.7933 N   0  0  0  0  0  0  0  0  0  0  0  0
    9.5867  -16.6634   27.3747 C   0  0  0  0  0  0  0  0  0  0  0  0
    9.7815  -17.2568   28.4709 O   0  0  0  0  0  0  0  0  0  0  0  0
   10.0950  -15.3784   27.2842 O   0  0  0  0  0  0  0  0  0  0  0  0
  2  1  1  6
  2  9  1  0
  2  3  1  0
  3  4  1  0
  4  5  2  0
  4  8  1  0
  5  6  1  0
  6  7  1  0
  8  7  2  0
  9 10  2  0
 12 11  1  1
 12 14  1  0
 13 12  1  0
 15 14  1  1
 16 15  1  0
 16  9  1  0
 17 27  1  0
 17 15  1  0
 18 17  2  0
 19 20  1  0
 20 22  1  0
 21 20  2  0
 23 22  1  0
 23 24  1  0
 24 25  1  0
 26 25  1  6
 26 27  1  0
 26 28  1  0
 28 30  1  0
 29 28  2  0
M  END
$$$$
