HLR.pdb
     RDKit          3D

 30 30  0  0  1  0  0  0  0  0999 V2000
   10.1404  -19.3242   17.7790 N   0  0  0  0  0  0  0  0  0  0  0  0
    9.1783  -19.0243   18.8416 C   0  0  1  0  0  0  0  0  0  0  0  0
    9.4622  -20.0139   19.9483 C   0  0  0  0  0  0  0  0  0  0  0  0
    8.9122  -21.3570   19.6300 C   0  0  0  0  0  0  0  0  0  0  0  0
    7.6087  -21.7715   19.6891 C   0  0  0  0  0  0  0  0  0  0  0  0
    7.5587  -23.0638   19.3155 N   0  0  0  0  0  0  0  0  0  0  0  0
    8.8161  -23.4504   19.0265 C   0  0  0  0  0  0  0  0  0  0  0  0
    9.6330  -22.4237   19.2155 N   0  0  0  0  0  0  0  0  0  0  0  0
    9.4708  -17.6500   19.3248 C   0  0  0  0  0  0  0  0  0  0  0  0
   10.6748  -17.2526   19.4908 O   0  0  0  0  0  0  0  0  0  0  0  0
    8.5681  -12.2551   19.7947 C   0  0  0  0  0  0  0  0  0  0  0  0
    7.8387  -13.1143   20.7810 C   0  0  1  0  0  0  0  0  0  0  0  0
    6.4875  -12.4323   21.0322 C   0  0  0  0  0  0  0  0  0  0  0  0
    7.5205  -14.5005   20.2826 C   0  0  0  0  0  0  0  0  0  0  0  0
    8.6904  -15.4264   20.2071 C   0  0  2  0  0  0  0  0  0  0  0  0
    8.4603  -16.7002   19.6286 N   0  0  0  0  0  0  0  0  0  0  0  0
    9.2918  -15.4978   21.5718 C   0  0  0  0  0  0  0  0  0  0  0  0
    9.7921  -14.4334   22.0146 O   0  0  0  0  0  0  0  0  0  0  0  0
    7.0457  -20.8004   25.6086 N   0  0  0  0  0  0  0  0  0  0  0  0
    7.3760  -19.9417   26.6837 C   0  0  0  0  0  0  0  0  0  0  0  0
    7.7816  -20.4119   27.7946 N   0  0  0  0  0  0  0  0  0  0  0  0
    7.2570  -18.5105   26.5373 N   0  0  0  0  0  0  0  0  0  0  0  0
    6.6157  -17.9519   25.3909 C   0  0  0  0  0  0  0  0  0  0  0  0
    7.5204  -16.9427   24.7042 C   0  0  0  0  0  0  0  0  0  0  0  0
    8.9278  -17.4523   24.5771 C   0  0  0  0  0  0  0  0  0  0  0  0
    9.8095  -16.5965   23.7330 C   0  0  2  0  0  0  0  0  0  0  0  0
    9.3300  -16.6516   22.3667 N   0  0  0  0  0  0  0  0  0  0  0  0
   11.2235  -16.9573   23.7610 C   0  0  0  0  0  0  0  0  0  0  0  0
   11.8702  -17.4058   22.7750 O   0  0  0  0  0  0  0  0  0  0  0  0
   11.9394  -16.8109   24.9374 O   0  0  0  0  0  0  0  0  0  0  0  0
  2  1  1  6
  2  9  1  0
  2  3  1  0
  3  4  1  0
  4  5  2  0
  4  8  1  0
  5  6  1  0
  6  7  1  0
  8  7  2  0
  9 10  2  0
 12 11  1  6
 12 14  1  0
 13 12  1  0
 15 14  1  1
 16 15  1  0
 16  9  1  0
 17 27  1  0
 17 15  1  0
 18 17  2  0
 19 20  1  0
 20 22  1  0
 21 20  2  0
 23 22  1  0
 23 24  1  0
 24 25  1  0
 26 25  1  1
 26 27  1  0
 26 28  1  0
 28 30  1  0
 29 28  2  0
M  END
$$$$
