HLR.pdb
     RDKit          3D

 30 30  0  0  1  0  0  0  0  0999 V2000
   10.1518  -14.7329   20.2712 N   0  0  0  0  0  0  0  0  0  0  0  0
    8.8991  -15.1214   20.9226 C   0  0  1  0  0  0  0  0  0  0  0  0
    8.8217  -16.6265   20.8064 C   0  0  0  0  0  0  0  0  0  0  0  0
    8.4069  -17.0452   19.4425 C   0  0  0  0  0  0  0  0  0  0  0  0
    8.6709  -16.4240   18.2515 C   0  0  0  0  0  0  0  0  0  0  0  0
    8.1066  -17.1447   17.2645 N   0  0  0  0  0  0  0  0  0  0  0  0
    7.4981  -18.2031   17.8333 C   0  0  0  0  0  0  0  0  0  0  0  0
    7.6776  -18.1449   19.1454 N   0  0  0  0  0  0  0  0  0  0  0  0
    9.0130  -14.7446   22.3552 C   0  0  0  0  0  0  0  0  0  0  0  0
   10.1440  -14.7576   22.9517 O   0  0  0  0  0  0  0  0  0  0  0  0
    7.9559  -12.0290   26.9030 C   0  0  0  0  0  0  0  0  0  0  0  0
    6.8781  -13.0162   26.5764 C   0  0  1  0  0  0  0  0  0  0  0  0
    5.5509  -12.3511   26.9636 C   0  0  0  0  0  0  0  0  0  0  0  0
    6.7652  -13.3520   25.1116 C   0  0  0  0  0  0  0  0  0  0  0  0
    7.9624  -14.0273   24.5263 C   0  0  2  0  0  0  0  0  0  0  0  0
    7.9025  -14.3508   23.1472 N   0  0  0  0  0  0  0  0  0  0  0  0
    8.2824  -15.1993   25.3941 C   0  0  0  0  0  0  0  0  0  0  0  0
    8.1189  -15.0366   26.6295 O   0  0  0  0  0  0  0  0  0  0  0  0
    6.7197  -20.3184   20.2100 N   0  0  0  0  0  0  0  0  0  0  0  0
    6.1773  -19.4212   21.1603 C   0  0  0  0  0  0  0  0  0  0  0  0
    5.3810  -18.4946   20.8038 N   0  0  0  0  0  0  0  0  0  0  0  0
    6.5207  -19.5425   22.5572 N   0  0  0  0  0  0  0  0  0  0  0  0
    7.7649  -19.0383   23.0422 C   0  0  0  0  0  0  0  0  0  0  0  0
    7.9174  -19.3154   24.5282 C   0  0  0  0  0  0  0  0  0  0  0  0
    9.2102  -18.7716   25.0665 C   0  0  0  0  0  0  0  0  0  0  0  0
    9.0604  -17.5095   25.8455 C   0  0  2  0  0  0  0  0  0  0  0  0
    8.7420  -16.4372   24.9243 N   0  0  0  0  0  0  0  0  0  0  0  0
   10.2291  -17.1337   26.6350 C   0  0  0  0  0  0  0  0  0  0  0  0
   10.5913  -17.7059   27.6994 O   0  0  0  0  0  0  0  0  0  0  0  0
   11.0211  -16.0774   26.2170 O   0  0  0  0  0  0  0  0  0  0  0  0
  2  1  1  6
  2  9  1  0
  2  3  1  0
  3  4  1  0
  4  5  2  0
  4  8  1  0
  5  6  1  0
  6  7  1  0
  8  7  2  0
  9 10  2  0
 12 11  1  6
 12 14  1  0
 13 12  1  0
 15 14  1  1
 16 15  1  0
 16  9  1  0
 17 27  1  0
 17 15  1  0
 18 17  2  0
 19 20  1  0
 20 22  1  0
 21 20  2  0
 23 22  1  0
 23 24  1  0
 24 25  1  0
 26 25  1  6
 26 27  1  0
 26 28  1  0
 28 30  1  0
 29 28  2  0
M  END
$$$$
