HLR.pdb
     RDKit          3D

 30 30  0  0  1  0  0  0  0  0999 V2000
    8.7900  -16.4295   20.0868 N   0  0  0  0  0  0  0  0  0  0  0  0
    7.9874  -16.7226   21.2762 C   0  0  1  0  0  0  0  0  0  0  0  0
    8.3259  -18.1438   21.6639 C   0  0  0  0  0  0  0  0  0  0  0  0
    7.8485  -19.1133   20.6442 C   0  0  0  0  0  0  0  0  0  0  0  0
    7.2912  -18.8478   19.4222 C   0  0  0  0  0  0  0  0  0  0  0  0
    7.0058  -20.0196   18.8242 N   0  0  0  0  0  0  0  0  0  0  0  0
    7.3810  -21.0040   19.6631 C   0  0  0  0  0  0  0  0  0  0  0  0
    7.8888  -20.4602   20.7602 N   0  0  0  0  0  0  0  0  0  0  0  0
    8.4386  -15.7999   22.3497 C   0  0  0  0  0  0  0  0  0  0  0  0
    9.6583  -15.4231   22.4247 O   0  0  0  0  0  0  0  0  0  0  0  0
    8.0918  -11.5702   25.7543 C   0  0  0  0  0  0  0  0  0  0  0  0
    7.3337  -12.7752   26.2192 C   0  0  1  0  0  0  0  0  0  0  0  0
    6.0616  -12.2505   26.8975 C   0  0  0  0  0  0  0  0  0  0  0  0
    6.8708  -13.6848   25.1103 C   0  0  0  0  0  0  0  0  0  0  0  0
    7.9631  -14.4053   24.3895 C   0  0  2  0  0  0  0  0  0  0  0  0
    7.5702  -15.2805   23.3455 N   0  0  0  0  0  0  0  0  0  0  0  0
    8.8197  -15.0632   25.4203 C   0  0  0  0  0  0  0  0  0  0  0  0
    8.2251  -15.7938   26.2523 O   0  0  0  0  0  0  0  0  0  0  0  0
   10.9714  -21.1614   29.6943 N   0  0  0  0  0  0  0  0  0  0  0  0
   11.2852  -19.9116   30.2790 C   0  0  0  0  0  0  0  0  0  0  0  0
   11.9754  -19.8445   31.3462 N   0  0  0  0  0  0  0  0  0  0  0  0
   10.8246  -18.6858   29.6715 N   0  0  0  0  0  0  0  0  0  0  0  0
    9.9367  -18.7217   28.5543 C   0  0  0  0  0  0  0  0  0  0  0  0
   10.5780  -18.0826   27.3342 C   0  0  0  0  0  0  0  0  0  0  0  0
   10.0721  -16.6866   27.1059 C   0  0  0  0  0  0  0  0  0  0  0  0
   11.0006  -15.8253   26.3195 C   0  0  2  0  0  0  0  0  0  0  0  0
   10.2106  -14.9178   25.5119 N   0  0  0  0  0  0  0  0  0  0  0  0
   11.9291  -16.5510   25.4584 C   0  0  0  0  0  0  0  0  0  0  0  0
   11.6414  -17.0139   24.3206 O   0  0  0  0  0  0  0  0  0  0  0  0
   13.2278  -16.7667   25.8880 O   0  0  0  0  0  0  0  0  0  0  0  0
  2  1  1  6
  2  9  1  0
  2  3  1  0
  3  4  1  0
  4  5  2  0
  4  8  1  0
  5  6  1  0
  6  7  1  0
  8  7  2  0
  9 10  2  0
 12 11  1  6
 12 14  1  0
 13 12  1  0
 15 14  1  1
 16 15  1  0
 16  9  1  0
 17 27  1  0
 17 15  1  0
 18 17  2  0
 19 20  1  0
 20 22  1  0
 21 20  2  0
 23 22  1  0
 23 24  1  0
 24 25  1  0
 26 25  1  6
 26 27  1  0
 26 28  1  0
 28 30  1  0
 29 28  2  0
M  END
$$$$
