HLR.pdb
     RDKit          3D

 30 30  0  0  1  0  0  0  0  0999 V2000
    8.8287  -16.5997   20.2152 N   0  0  0  0  0  0  0  0  0  0  0  0
    7.6949  -16.4468   21.1295 C   0  0  1  0  0  0  0  0  0  0  0  0
    7.2394  -17.8492   21.4620 C   0  0  0  0  0  0  0  0  0  0  0  0
    6.3999  -18.4191   20.3766 C   0  0  0  0  0  0  0  0  0  0  0  0
    6.7515  -18.6618   19.0760 C   0  0  0  0  0  0  0  0  0  0  0  0
    5.6855  -19.1827   18.4400 N   0  0  0  0  0  0  0  0  0  0  0  0
    4.6812  -19.2641   19.3336 C   0  0  0  0  0  0  0  0  0  0  0  0
    5.1093  -18.8044   20.5008 N   0  0  0  0  0  0  0  0  0  0  0  0
    8.2077  -15.7921   22.3606 C   0  0  0  0  0  0  0  0  0  0  0  0
    9.4251  -15.9358   22.7247 O   0  0  0  0  0  0  0  0  0  0  0  0
    6.8953  -11.2740   26.5250 C   0  0  0  0  0  0  0  0  0  0  0  0
    7.6729  -12.4682   26.0645 C   0  0  1  0  0  0  0  0  0  0  0  0
    7.6398  -13.4772   27.2197 C   0  0  0  0  0  0  0  0  0  0  0  0
    7.0785  -13.1764   24.8743 C   0  0  0  0  0  0  0  0  0  0  0  0
    7.8448  -14.3695   24.4042 C   0  0  2  0  0  0  0  0  0  0  0  0
    7.4044  -14.9779   23.2016 N   0  0  0  0  0  0  0  0  0  0  0  0
    7.9335  -15.3227   25.5499 C   0  0  0  0  0  0  0  0  0  0  0  0
    6.8464  -15.6352   26.0977 O   0  0  0  0  0  0  0  0  0  0  0  0
   13.3467  -21.2193   26.4063 N   0  0  0  0  0  0  0  0  0  0  0  0
   13.6995  -20.3602   25.3388 C   0  0  0  0  0  0  0  0  0  0  0  0
   14.8728  -20.3786   24.8458 N   0  0  0  0  0  0  0  0  0  0  0  0
   12.7294  -19.4436   24.7889 N   0  0  0  0  0  0  0  0  0  0  0  0
   11.3682  -19.4893   25.2163 C   0  0  0  0  0  0  0  0  0  0  0  0
   10.9992  -18.2284   25.9794 C   0  0  0  0  0  0  0  0  0  0  0  0
    9.5416  -18.2034   26.3423 C   0  0  0  0  0  0  0  0  0  0  0  0
    9.1044  -16.9459   27.0128 C   0  0  2  0  0  0  0  0  0  0  0  0
    9.1260  -15.8747   26.0371 N   0  0  0  0  0  0  0  0  0  0  0  0
    9.9043  -16.5580   28.1704 C   0  0  0  0  0  0  0  0  0  0  0  0
   10.5745  -15.4926   28.2561 O   0  0  0  0  0  0  0  0  0  0  0  0
    9.9559  -17.3948   29.2725 O   0  0  0  0  0  0  0  0  0  0  0  0
  2  1  1  6
  2  9  1  0
  2  3  1  0
  3  4  1  0
  4  5  2  0
  4  8  1  0
  5  6  1  0
  6  7  1  0
  8  7  2  0
  9 10  2  0
 12 11  1  1
 12 14  1  0
 13 12  1  0
 15 14  1  1
 16 15  1  0
 16  9  1  0
 17 27  1  0
 17 15  1  0
 18 17  2  0
 19 20  1  0
 20 22  1  0
 21 20  2  0
 23 22  1  0
 23 24  1  0
 24 25  1  0
 26 25  1  6
 26 27  1  0
 26 28  1  0
 28 30  1  0
 29 28  2  0
M  END
$$$$
