HLR.pdb
     RDKit          3D

 30 30  0  0  1  0  0  0  0  0999 V2000
    9.9603  -13.6480   20.2654 N   0  0  0  0  0  0  0  0  0  0  0  0
    8.6452  -13.6800   20.9089 C   0  0  1  0  0  0  0  0  0  0  0  0
    7.8395  -14.7116   20.1530 C   0  0  0  0  0  0  0  0  0  0  0  0
    7.5982  -14.2898   18.7489 C   0  0  0  0  0  0  0  0  0  0  0  0
    7.2318  -13.0532   18.2896 C   0  0  0  0  0  0  0  0  0  0  0  0
    7.1238  -13.1150   16.9492 N   0  0  0  0  0  0  0  0  0  0  0  0
    7.4196  -14.3750   16.5771 C   0  0  0  0  0  0  0  0  0  0  0  0
    7.7054  -15.0845   17.6597 N   0  0  0  0  0  0  0  0  0  0  0  0
    8.8500  -14.1438   22.3055 C   0  0  0  0  0  0  0  0  0  0  0  0
    9.9041  -14.7870   22.6379 O   0  0  0  0  0  0  0  0  0  0  0  0
    5.6304  -11.9294   26.5898 C   0  0  0  0  0  0  0  0  0  0  0  0
    6.7872  -12.3153   25.7205 C   0  0  1  0  0  0  0  0  0  0  0  0
    8.0311  -11.6697   26.3446 C   0  0  0  0  0  0  0  0  0  0  0  0
    7.0638  -13.7961   25.6744 C   0  0  0  0  0  0  0  0  0  0  0  0
    8.1345  -14.2071   24.7171 C   0  0  2  0  0  0  0  0  0  0  0  0
    7.9147  -13.9116   23.3479 N   0  0  0  0  0  0  0  0  0  0  0  0
    8.4298  -15.6486   24.9698 C   0  0  0  0  0  0  0  0  0  0  0  0
    7.4993  -16.4572   24.7252 O   0  0  0  0  0  0  0  0  0  0  0  0
   15.2361  -20.7370   23.2868 N   0  0  0  0  0  0  0  0  0  0  0  0
   14.3977  -21.5793   24.0547 C   0  0  0  0  0  0  0  0  0  0  0  0
   14.7225  -22.7876   24.2878 N   0  0  0  0  0  0  0  0  0  0  0  0
   13.1532  -21.0793   24.5886 N   0  0  0  0  0  0  0  0  0  0  0  0
   12.7094  -19.7597   24.2733 C   0  0  0  0  0  0  0  0  0  0  0  0
   11.4646  -19.4042   25.0685 C   0  0  0  0  0  0  0  0  0  0  0  0
   11.0720  -17.9670   24.8756 C   0  0  0  0  0  0  0  0  0  0  0  0
    9.8574  -17.5617   25.6390 C   0  0  2  0  0  0  0  0  0  0  0  0
    9.6511  -16.1398   25.4509 N   0  0  0  0  0  0  0  0  0  0  0  0
    9.9047  -17.8556   27.0679 C   0  0  0  0  0  0  0  0  0  0  0  0
   10.0598  -16.9919   27.9743 O   0  0  0  0  0  0  0  0  0  0  0  0
    9.7740  -19.1657   27.4973 O   0  0  0  0  0  0  0  0  0  0  0  0
  2  1  1  6
  2  9  1  0
  2  3  1  0
  3  4  1  0
  4  5  2  0
  4  8  1  0
  5  6  1  0
  6  7  1  0
  8  7  2  0
  9 10  2  0
 12 11  1  1
 12 14  1  0
 13 12  1  0
 15 14  1  1
 16 15  1  0
 16  9  1  0
 17 27  1  0
 17 15  1  0
 18 17  2  0
 19 20  1  0
 20 22  1  0
 21 20  2  0
 23 22  1  0
 23 24  1  0
 24 25  1  0
 26 25  1  6
 26 27  1  0
 26 28  1  0
 28 30  1  0
 29 28  2  0
M  END
$$$$
