HLR.pdb
     RDKit          3D

 30 30  0  0  1  0  0  0  0  0999 V2000
    9.7493  -17.4196   15.6014 N   0  0  0  0  0  0  0  0  0  0  0  0
    8.7211  -17.6348   16.6218 C   0  0  1  0  0  0  0  0  0  0  0  0
    8.5853  -19.1336   16.7628 C   0  0  0  0  0  0  0  0  0  0  0  0
    7.6120  -19.6851   15.7850 C   0  0  0  0  0  0  0  0  0  0  0  0
    7.8726  -20.3673   14.6270 C   0  0  0  0  0  0  0  0  0  0  0  0
    6.6986  -20.6821   14.0485 N   0  0  0  0  0  0  0  0  0  0  0  0
    5.7176  -20.2022   14.8365 C   0  0  0  0  0  0  0  0  0  0  0  0
    6.2656  -19.6010   15.8831 N   0  0  0  0  0  0  0  0  0  0  0  0
    9.2378  -17.0666   17.8936 C   0  0  0  0  0  0  0  0  0  0  0  0
   10.4667  -17.1973   18.2221 O   0  0  0  0  0  0  0  0  0  0  0  0
    8.4135  -12.9684   19.2340 C   0  0  0  0  0  0  0  0  0  0  0  0
    8.3166  -13.4581   20.6460 C   0  0  1  0  0  0  0  0  0  0  0  0
    7.1741  -12.6698   21.2994 C   0  0  0  0  0  0  0  0  0  0  0  0
    7.9474  -14.9135   20.7757 C   0  0  0  0  0  0  0  0  0  0  0  0
    8.8622  -15.8604   20.0699 C   0  0  2  0  0  0  0  0  0  0  0  0
    8.4257  -16.3534   18.8142 N   0  0  0  0  0  0  0  0  0  0  0  0
    9.2184  -16.9410   21.0367 C   0  0  0  0  0  0  0  0  0  0  0  0
    8.9829  -18.1183   20.6652 O   0  0  0  0  0  0  0  0  0  0  0  0
   16.1092  -17.2073   23.4213 N   0  0  0  0  0  0  0  0  0  0  0  0
   16.3861  -18.3812   22.6814 C   0  0  0  0  0  0  0  0  0  0  0  0
   17.4112  -19.0898   22.9399 N   0  0  0  0  0  0  0  0  0  0  0  0
   15.5059  -18.7961   21.6152 N   0  0  0  0  0  0  0  0  0  0  0  0
   14.3813  -17.9950   21.2530 C   0  0  0  0  0  0  0  0  0  0  0  0
   13.2469  -18.1759   22.2473 C   0  0  0  0  0  0  0  0  0  0  0  0
   12.0072  -17.4444   21.8171 C   0  0  0  0  0  0  0  0  0  0  0  0
   10.8728  -17.5549   22.7780 C   0  0  2  0  0  0  0  0  0  0  0  0
    9.7851  -16.7251   22.3003 N   0  0  0  0  0  0  0  0  0  0  0  0
   11.1943  -17.1818   24.1519 C   0  0  0  0  0  0  0  0  0  0  0  0
   11.2102  -15.9990   24.5903 O   0  0  0  0  0  0  0  0  0  0  0  0
   11.5105  -18.1705   25.0687 O   0  0  0  0  0  0  0  0  0  0  0  0
  2  1  1  6
  2  9  1  0
  2  3  1  0
  3  4  1  0
  4  5  2  0
  4  8  1  0
  5  6  1  0
  6  7  1  0
  8  7  2  0
  9 10  2  0
 12 11  1  6
 12 14  1  0
 13 12  1  0
 15 14  1  1
 16 15  1  0
 16  9  1  0
 17 27  1  0
 17 15  1  0
 18 17  2  0
 19 20  1  0
 20 22  1  0
 21 20  2  0
 23 22  1  0
 23 24  1  0
 24 25  1  0
 26 25  1  6
 26 27  1  0
 26 28  1  0
 28 30  1  0
 29 28  2  0
M  END
$$$$
