HLR.pdb
     RDKit          3D

 30 30  0  0  1  0  0  0  0  0999 V2000
    7.6013  -15.6317   20.6377 N   0  0  0  0  0  0  0  0  0  0  0  0
    9.0384  -15.6654   20.9175 C   0  0  1  0  0  0  0  0  0  0  0  0
    9.6767  -14.7284   19.9177 C   0  0  0  0  0  0  0  0  0  0  0  0
    8.6727  -14.1803   18.9694 C   0  0  0  0  0  0  0  0  0  0  0  0
    7.3370  -14.4703   18.8928 C   0  0  0  0  0  0  0  0  0  0  0  0
    6.8045  -13.7481   17.8892 N   0  0  0  0  0  0  0  0  0  0  0  0
    7.7964  -13.0162   17.3468 C   0  0  0  0  0  0  0  0  0  0  0  0
    8.9228  -13.2753   17.9959 N   0  0  0  0  0  0  0  0  0  0  0  0
    9.2324  -15.1269   22.2885 C   0  0  0  0  0  0  0  0  0  0  0  0
   10.3973  -15.0625   22.8120 O   0  0  0  0  0  0  0  0  0  0  0  0
    8.3451  -12.0292   26.6422 C   0  0  0  0  0  0  0  0  0  0  0  0
    7.3381  -13.1282   26.4969 C   0  0  1  0  0  0  0  0  0  0  0  0
    5.9965  -12.5498   26.9654 C   0  0  0  0  0  0  0  0  0  0  0  0
    7.1213  -13.5898   25.0787 C   0  0  0  0  0  0  0  0  0  0  0  0
    8.2747  -14.3191   24.4708 C   0  0  2  0  0  0  0  0  0  0  0  0
    8.1656  -14.6546   23.0975 N   0  0  0  0  0  0  0  0  0  0  0  0
    8.5702  -15.4937   25.3437 C   0  0  0  0  0  0  0  0  0  0  0  0
    7.6964  -16.3965   25.3745 O   0  0  0  0  0  0  0  0  0  0  0  0
   14.8743  -21.0468   24.5654 N   0  0  0  0  0  0  0  0  0  0  0  0
   13.8261  -21.6953   25.2603 C   0  0  0  0  0  0  0  0  0  0  0  0
   13.8103  -22.9618   25.3849 N   0  0  0  0  0  0  0  0  0  0  0  0
   12.7514  -20.9268   25.8419 N   0  0  0  0  0  0  0  0  0  0  0  0
   12.6646  -19.5199   25.6167 C   0  0  0  0  0  0  0  0  0  0  0  0
   11.5643  -18.9042   26.4646 C   0  0  0  0  0  0  0  0  0  0  0  0
   11.1089  -17.5834   25.9126 C   0  0  0  0  0  0  0  0  0  0  0  0
   10.0560  -16.9147   26.7290 C   0  0  2  0  0  0  0  0  0  0  0  0
    9.7338  -15.6446   26.1102 N   0  0  0  0  0  0  0  0  0  0  0  0
   10.4130  -16.6916   28.1265 C   0  0  0  0  0  0  0  0  0  0  0  0
   10.6513  -15.5622   28.6358 O   0  0  0  0  0  0  0  0  0  0  0  0
   10.5074  -17.7739   28.9853 O   0  0  0  0  0  0  0  0  0  0  0  0
  2  1  1  6
  2  9  1  0
  2  3  1  0
  3  4  1  0
  4  5  2  0
  4  8  1  0
  5  6  1  0
  6  7  1  0
  8  7  2  0
  9 10  2  0
 12 11  1  6
 12 14  1  0
 13 12  1  0
 15 14  1  1
 16 15  1  0
 16  9  1  0
 17 27  1  0
 17 15  1  0
 18 17  2  0
 19 20  1  0
 20 22  1  0
 21 20  2  0
 23 22  1  0
 23 24  1  0
 24 25  1  0
 26 25  1  6
 26 27  1  0
 26 28  1  0
 28 30  1  0
 29 28  2  0
M  END
$$$$
