HLR.pdb
     RDKit          3D

 30 30  0  0  1  0  0  0  0  0999 V2000
    6.5734  -14.6626   20.8347 N   0  0  0  0  0  0  0  0  0  0  0  0
    7.5145  -15.5945   21.4597 C   0  0  1  0  0  0  0  0  0  0  0  0
    8.6170  -15.8098   20.4484 C   0  0  0  0  0  0  0  0  0  0  0  0
    8.5039  -14.8601   19.3113 C   0  0  0  0  0  0  0  0  0  0  0  0
    7.5898  -13.8559   19.1374 C   0  0  0  0  0  0  0  0  0  0  0  0
    7.8532  -13.2422   17.9686 N   0  0  0  0  0  0  0  0  0  0  0  0
    8.9190  -13.8563   17.4203 C   0  0  0  0  0  0  0  0  0  0  0  0
    9.3125  -14.8314   18.2274 N   0  0  0  0  0  0  0  0  0  0  0  0
    8.0731  -14.9176   22.6586 C   0  0  0  0  0  0  0  0  0  0  0  0
    9.2448  -14.4058   22.6398 O   0  0  0  0  0  0  0  0  0  0  0  0
    8.8572  -11.7569   26.7069 C   0  0  0  0  0  0  0  0  0  0  0  0
    7.6724  -12.6214   27.0096 C   0  0  1  0  0  0  0  0  0  0  0  0
    6.6086  -11.6988   27.6186 C   0  0  0  0  0  0  0  0  0  0  0  0
    7.0352  -13.2502   25.7972 C   0  0  0  0  0  0  0  0  0  0  0  0
    7.8942  -14.2356   25.0741 C   0  0  2  0  0  0  0  0  0  0  0  0
    7.3642  -14.7909   23.8820 N   0  0  0  0  0  0  0  0  0  0  0  0
    8.3228  -15.2662   26.0657 C   0  0  0  0  0  0  0  0  0  0  0  0
    7.6565  -15.3240   27.1297 O   0  0  0  0  0  0  0  0  0  0  0  0
   11.1010  -19.7882   21.5635 N   0  0  0  0  0  0  0  0  0  0  0  0
   12.2090  -19.1777   22.1972 C   0  0  0  0  0  0  0  0  0  0  0  0
   13.2136  -18.7852   21.5215 N   0  0  0  0  0  0  0  0  0  0  0  0
   12.2184  -18.9896   23.6284 N   0  0  0  0  0  0  0  0  0  0  0  0
   11.2198  -19.6014   24.4446 C   0  0  0  0  0  0  0  0  0  0  0  0
   10.2678  -18.5587   25.0057 C   0  0  0  0  0  0  0  0  0  0  0  0
   10.6945  -18.0905   26.3679 C   0  0  0  0  0  0  0  0  0  0  0  0
    9.8162  -17.0362   26.9503 C   0  0  2  0  0  0  0  0  0  0  0  0
    9.3959  -16.1493   25.8842 N   0  0  0  0  0  0  0  0  0  0  0  0
   10.4270  -16.2496   28.0173 C   0  0  0  0  0  0  0  0  0  0  0  0
   10.8579  -15.0713   27.8847 O   0  0  0  0  0  0  0  0  0  0  0  0
   10.5608  -16.8037   29.2794 O   0  0  0  0  0  0  0  0  0  0  0  0
  2  1  1  6
  2  9  1  0
  2  3  1  0
  3  4  1  0
  4  5  2  0
  4  8  1  0
  5  6  1  0
  6  7  1  0
  8  7  2  0
  9 10  2  0
 12 11  1  6
 12 14  1  0
 13 12  1  0
 15 14  1  1
 16 15  1  0
 16  9  1  0
 17 27  1  0
 17 15  1  0
 18 17  2  0
 19 20  1  0
 20 22  1  0
 21 20  2  0
 23 22  1  0
 23 24  1  0
 24 25  1  0
 26 25  1  6
 26 27  1  0
 26 28  1  0
 28 30  1  0
 29 28  2  0
M  END
$$$$
