HLR.pdb
     RDKit          3D

 30 30  0  0  1  0  0  0  0  0999 V2000
    9.6848  -12.9650   20.0410 N   0  0  0  0  0  0  0  0  0  0  0  0
    8.5114  -13.6305   20.6110 C   0  0  1  0  0  0  0  0  0  0  0  0
    8.4016  -14.9587   19.8978 C   0  0  0  0  0  0  0  0  0  0  0  0
    8.1384  -14.7758   18.4470 C   0  0  0  0  0  0  0  0  0  0  0  0
    7.8900  -13.6097   17.7741 C   0  0  0  0  0  0  0  0  0  0  0  0
    7.7081  -13.9029   16.4729 N   0  0  0  0  0  0  0  0  0  0  0  0
    7.8419  -15.2360   16.3360 C   0  0  0  0  0  0  0  0  0  0  0  0
    8.1009  -15.7638   17.5240 N   0  0  0  0  0  0  0  0  0  0  0  0
    8.7958  -13.8677   22.0499 C   0  0  0  0  0  0  0  0  0  0  0  0
    9.9976  -13.9241   22.4830 O   0  0  0  0  0  0  0  0  0  0  0  0
    5.1405  -12.3180   26.2078 C   0  0  0  0  0  0  0  0  0  0  0  0
    6.3973  -12.5234   25.4196 C   0  0  1  0  0  0  0  0  0  0  0  0
    7.5089  -11.7874   26.1790 C   0  0  0  0  0  0  0  0  0  0  0  0
    6.8408  -13.9603   25.3193 C   0  0  0  0  0  0  0  0  0  0  0  0
    8.0071  -14.1977   24.4165 C   0  0  2  0  0  0  0  0  0  0  0  0
    7.7796  -14.0433   23.0256 N   0  0  0  0  0  0  0  0  0  0  0  0
    8.5866  -15.5258   24.7759 C   0  0  0  0  0  0  0  0  0  0  0  0
    7.7683  -16.4694   24.9152 O   0  0  0  0  0  0  0  0  0  0  0  0
   14.0552  -14.4890   20.1101 N   0  0  0  0  0  0  0  0  0  0  0  0
   14.0689  -15.4235   21.1726 C   0  0  0  0  0  0  0  0  0  0  0  0
   15.0051  -15.4187   22.0348 N   0  0  0  0  0  0  0  0  0  0  0  0
   13.0159  -16.4031   21.2961 N   0  0  0  0  0  0  0  0  0  0  0  0
   12.9974  -17.3094   22.3988 C   0  0  0  0  0  0  0  0  0  0  0  0
   11.6293  -17.3285   23.0592 C   0  0  0  0  0  0  0  0  0  0  0  0
   11.7338  -17.3099   24.5577 C   0  0  0  0  0  0  0  0  0  0  0  0
   10.4310  -17.1117   25.2547 C   0  0  2  0  0  0  0  0  0  0  0  0
    9.9532  -15.7753   24.9620 N   0  0  0  0  0  0  0  0  0  0  0  0
   10.4746  -17.3004   26.7014 C   0  0  0  0  0  0  0  0  0  0  0  0
   10.6300  -18.4125   27.2765 O   0  0  0  0  0  0  0  0  0  0  0  0
   10.3383  -16.2028   27.5347 O   0  0  0  0  0  0  0  0  0  0  0  0
  2  1  1  6
  2  9  1  0
  2  3  1  0
  3  4  1  0
  4  5  2  0
  4  8  1  0
  5  6  1  0
  6  7  1  0
  8  7  2  0
  9 10  2  0
 12 11  1  1
 12 14  1  0
 13 12  1  0
 15 14  1  1
 16 15  1  0
 16  9  1  0
 17 27  1  0
 17 15  1  0
 18 17  2  0
 19 20  1  0
 20 22  1  0
 21 20  2  0
 23 22  1  0
 23 24  1  0
 24 25  1  0
 26 25  1  1
 26 27  1  0
 26 28  1  0
 28 30  1  0
 29 28  2  0
M  END
$$$$
