DKG.pdb
     RDKit          3D

 22 21  0  0  1  0  0  0  0  0999 V2000
   14.2650  -16.7710   17.2872 N   0  0  0  0  0  0  0  0  0  0  0  0
   15.0049  -15.6463   17.8266 C   0  0  1  0  0  0  0  0  0  0  0  0
   15.6062  -14.8281   16.7216 C   0  0  0  0  0  0  0  0  0  0  0  0
   16.1210  -15.6599   15.6170 C   0  0  0  0  0  0  0  0  0  0  0  0
   16.6465  -16.7702   15.8834 O   0  0  0  0  0  0  0  0  0  0  0  0
   14.1507  -14.8187   18.7301 C   0  0  0  0  0  0  0  0  0  0  0  0
   14.6039  -13.7939   19.2874 O   0  0  0  0  0  0  0  0  0  0  0  0
   16.0619  -15.2900   14.2812 O   0  0  0  0  0  0  0  0  0  0  0  0
   12.8224  -15.1908   18.9600 N   0  0  0  0  0  0  0  0  0  0  0  0
   11.8713  -14.3778   19.7368 C   0  0  1  0  0  0  0  0  0  0  0  0
   10.6034  -14.3292   18.9103 C   0  0  0  0  0  0  0  0  0  0  0  0
    9.5106  -13.5046   19.4748 C   0  0  0  0  0  0  0  0  0  0  0  0
    8.2874  -13.5707   18.5568 C   0  0  0  0  0  0  0  0  0  0  0  0
    7.2091  -12.6327   19.0501 C   0  0  0  0  0  0  0  0  0  0  0  0
    6.1140  -12.5620   18.1042 N   0  0  0  0  0  0  0  0  0  0  0  0
   11.7001  -14.9059   21.0868 C   0  0  0  0  0  0  0  0  0  0  0  0
   10.8225  -14.3422   21.8288 O   0  0  0  0  0  0  0  0  0  0  0  0
   12.4030  -15.9880   21.6715 N   0  0  0  0  0  0  0  0  0  0  0  0
   12.1609  -16.4340   23.0322 C   0  0  0  0  0  0  0  0  0  0  0  0
   13.1240  -17.5167   23.4020 C   0  0  0  0  0  0  0  0  0  0  0  0
   13.1030  -18.1357   24.6277 O   0  0  0  0  0  0  0  0  0  0  0  0
   13.9806  -17.8701   22.5607 O   0  0  0  0  0  0  0  0  0  0  0  0
  2  6  1  0
  2  3  1  0
  2  1  1  6
  3  4  1  0
  4  8  1  0
  4  5  2  0
  6  7  2  0
  9 10  1  0
  9  6  1  0
 10 16  1  0
 11 12  1  0
 10 11  1  6
 12 13  1  0
 13 14  1  0
 14 15  1  0
 16 18  1  0
 16 17  2  0
 18 19  1  0
 20 21  1  0
 20 19  1  0
 22 20  2  0
M  END
$$$$
