DKG.pdb
     RDKit          3D

 22 21  0  0  1  0  0  0  0  0999 V2000
   11.3244  -18.7242   18.5476 N   0  0  0  0  0  0  0  0  0  0  0  0
   12.3649  -17.7233   18.4107 C   0  0  1  0  0  0  0  0  0  0  0  0
   12.3777  -17.1584   17.0205 C   0  0  0  0  0  0  0  0  0  0  0  0
   12.8949  -18.1167   16.0248 C   0  0  0  0  0  0  0  0  0  0  0  0
   12.9028  -19.3421   16.3045 O   0  0  0  0  0  0  0  0  0  0  0  0
   12.2278  -16.6539   19.4444 C   0  0  0  0  0  0  0  0  0  0  0  0
   13.0224  -15.6877   19.4833 O   0  0  0  0  0  0  0  0  0  0  0  0
   13.3812  -17.7470   14.7792 O   0  0  0  0  0  0  0  0  0  0  0  0
   11.1967  -16.7291   20.3860 N   0  0  0  0  0  0  0  0  0  0  0  0
   10.9751  -15.7184   21.4341 C   0  0  1  0  0  0  0  0  0  0  0  0
    9.5927  -15.1568   21.1760 C   0  0  0  0  0  0  0  0  0  0  0  0
    9.4845  -14.2517   20.0090 C   0  0  0  0  0  0  0  0  0  0  0  0
    8.0231  -13.8438   19.8061 C   0  0  0  0  0  0  0  0  0  0  0  0
    7.8828  -12.9922   18.5648 C   0  0  0  0  0  0  0  0  0  0  0  0
    6.4926  -12.6715   18.3132 N   0  0  0  0  0  0  0  0  0  0  0  0
   11.1652  -16.2841   22.7662 C   0  0  0  0  0  0  0  0  0  0  0  0
   11.2480  -15.4628   23.7446 O   0  0  0  0  0  0  0  0  0  0  0  0
   11.2653  -17.6573   23.1000 N   0  0  0  0  0  0  0  0  0  0  0  0
   12.5411  -18.3296   23.2713 C   0  0  0  0  0  0  0  0  0  0  0  0
   13.3083  -17.7075   24.3942 C   0  0  0  0  0  0  0  0  0  0  0  0
   14.1891  -16.6717   24.2011 O   0  0  0  0  0  0  0  0  0  0  0  0
   13.1394  -18.1496   25.5529 O   0  0  0  0  0  0  0  0  0  0  0  0
  2  6  1  0
  2  3  1  0
  2  1  1  6
  3  4  1  0
  4  8  1  0
  4  5  2  0
  6  7  2  0
  9 10  1  0
  9  6  1  0
 10 16  1  0
 11 12  1  0
 10 11  1  1
 12 13  1  0
 13 14  1  0
 14 15  1  0
 16 18  1  0
 16 17  2  0
 18 19  1  0
 20 21  1  0
 20 19  1  0
 22 20  2  0
M  END
$$$$
