DKG.pdb
     RDKit          3D

 22 21  0  0  1  0  0  0  0  0999 V2000
    8.8291  -17.6920   16.9572 N   0  0  0  0  0  0  0  0  0  0  0  0
    9.6442  -18.1664   18.0590 C   0  0  1  0  0  0  0  0  0  0  0  0
   11.1021  -18.0905   17.7111 C   0  0  0  0  0  0  0  0  0  0  0  0
   11.4671  -18.9918   16.6013 C   0  0  0  0  0  0  0  0  0  0  0  0
   10.5557  -19.4735   15.8820 O   0  0  0  0  0  0  0  0  0  0  0  0
    9.3341  -17.4285   19.3199 C   0  0  0  0  0  0  0  0  0  0  0  0
    9.6877  -16.2381   19.4752 O   0  0  0  0  0  0  0  0  0  0  0  0
   12.7724  -19.3482   16.2950 O   0  0  0  0  0  0  0  0  0  0  0  0
    8.6375  -18.0739   20.3465 N   0  0  0  0  0  0  0  0  0  0  0  0
    8.3351  -17.4479   21.6448 C   0  0  1  0  0  0  0  0  0  0  0  0
    7.1512  -18.2104   22.2016 C   0  0  0  0  0  0  0  0  0  0  0  0
    5.9053  -18.1137   21.4071 C   0  0  0  0  0  0  0  0  0  0  0  0
    4.8321  -19.0178   22.0186 C   0  0  0  0  0  0  0  0  0  0  0  0
    3.5259  -18.8609   21.2734 C   0  0  0  0  0  0  0  0  0  0  0  0
    2.5126  -19.7426   21.8163 N   0  0  0  0  0  0  0  0  0  0  0  0
    9.5099  -17.4273   22.5110 C   0  0  0  0  0  0  0  0  0  0  0  0
   10.2701  -18.4570   22.4907 O   0  0  0  0  0  0  0  0  0  0  0  0
    9.9082  -16.3802   23.3782 N   0  0  0  0  0  0  0  0  0  0  0  0
   11.1288  -16.4362   24.1631 C   0  0  0  0  0  0  0  0  0  0  0  0
   10.8981  -17.2023   25.4265 C   0  0  0  0  0  0  0  0  0  0  0  0
   11.8519  -17.3099   26.4086 O   0  0  0  0  0  0  0  0  0  0  0  0
    9.7929  -17.7657   25.5925 O   0  0  0  0  0  0  0  0  0  0  0  0
  2  6  1  0
  2  3  1  0
  2  1  1  6
  3  4  1  0
  4  8  1  0
  4  5  2  0
  6  7  2  0
  9 10  1  0
  9  6  1  0
 10 16  1  0
 11 12  1  0
 10 11  1  1
 12 13  1  0
 13 14  1  0
 14 15  1  0
 16 18  1  0
 16 17  2  0
 18 19  1  0
 20 21  1  0
 20 19  1  0
 22 20  2  0
M  END
$$$$
