DKG.pdb
     RDKit          3D

 22 21  0  0  1  0  0  0  0  0999 V2000
    8.1757  -19.7466   20.2590 N   0  0  0  0  0  0  0  0  0  0  0  0
    7.2743  -18.6132   20.3397 C   0  0  1  0  0  0  0  0  0  0  0  0
    6.2058  -18.7097   19.2904 C   0  0  0  0  0  0  0  0  0  0  0  0
    6.7594  -18.8426   17.9291 C   0  0  0  0  0  0  0  0  0  0  0  0
    7.9720  -19.1433   17.7906 O   0  0  0  0  0  0  0  0  0  0  0  0
    6.6972  -18.4760   21.7104 C   0  0  0  0  0  0  0  0  0  0  0  0
    5.8841  -17.5638   21.9804 O   0  0  0  0  0  0  0  0  0  0  0  0
    6.0163  -18.6540   16.7729 O   0  0  0  0  0  0  0  0  0  0  0  0
    7.0683  -19.3791   22.7116 N   0  0  0  0  0  0  0  0  0  0  0  0
    6.5352  -19.3384   24.0839 C   0  0  1  0  0  0  0  0  0  0  0  0
    6.0176  -20.7336   24.3639 C   0  0  0  0  0  0  0  0  0  0  0  0
    4.7284  -21.0721   23.7187 C   0  0  0  0  0  0  0  0  0  0  0  0
    4.3919  -22.5426   23.9786 C   0  0  0  0  0  0  0  0  0  0  0  0
    3.0840  -22.9078   23.3136 C   0  0  0  0  0  0  0  0  0  0  0  0
    2.8206  -24.3270   23.4370 N   0  0  0  0  0  0  0  0  0  0  0  0
    7.5384  -18.8584   25.0294 C   0  0  0  0  0  0  0  0  0  0  0  0
    8.7660  -19.0826   24.7443 O   0  0  0  0  0  0  0  0  0  0  0  0
    7.3009  -18.1605   26.2392 N   0  0  0  0  0  0  0  0  0  0  0  0
    8.3702  -17.5689   27.0238 C   0  0  0  0  0  0  0  0  0  0  0  0
    8.8717  -18.5472   28.0376 C   0  0  0  0  0  0  0  0  0  0  0  0
    9.7808  -18.2035   29.0078 O   0  0  0  0  0  0  0  0  0  0  0  0
    8.4450  -19.7232   27.9981 O   0  0  0  0  0  0  0  0  0  0  0  0
  2  6  1  0
  2  3  1  0
  2  1  1  1
  3  4  1  0
  4  8  1  0
  4  5  2  0
  6  7  2  0
  9 10  1  0
  9  6  1  0
 10 16  1  0
 11 12  1  0
 10 11  1  1
 12 13  1  0
 13 14  1  0
 14 15  1  0
 16 18  1  0
 16 17  2  0
 18 19  1  0
 20 21  1  0
 20 19  1  0
 22 20  2  0
M  END
$$$$
