DKG.pdb
     RDKit          3D

 22 21  0  0  1  0  0  0  0  0999 V2000
    8.1360  -17.4325   19.7399 N   0  0  0  0  0  0  0  0  0  0  0  0
    9.5389  -17.0659   19.7099 C   0  0  1  0  0  0  0  0  0  0  0  0
    9.8639  -16.3145   18.4522 C   0  0  0  0  0  0  0  0  0  0  0  0
    9.9146  -17.1908   17.2662 C   0  0  0  0  0  0  0  0  0  0  0  0
    9.1344  -18.1741   17.2008 O   0  0  0  0  0  0  0  0  0  0  0  0
    9.9249  -16.2987   20.9318 C   0  0  0  0  0  0  0  0  0  0  0  0
   11.1020  -15.9107   21.1057 O   0  0  0  0  0  0  0  0  0  0  0  0
   10.7817  -16.9968   16.2008 O   0  0  0  0  0  0  0  0  0  0  0  0
    8.9591  -16.0067   21.9001 N   0  0  0  0  0  0  0  0  0  0  0  0
    9.2594  -15.3262   23.1712 C   0  0  1  0  0  0  0  0  0  0  0  0
    8.0057  -14.5566   23.5302 C   0  0  0  0  0  0  0  0  0  0  0  0
    8.0438  -13.8567   24.8346 C   0  0  0  0  0  0  0  0  0  0  0  0
    6.7298  -13.1029   25.0543 C   0  0  0  0  0  0  0  0  0  0  0  0
    6.7341  -12.4219   26.4042 C   0  0  0  0  0  0  0  0  0  0  0  0
    5.4733  -11.7511   26.6480 N   0  0  0  0  0  0  0  0  0  0  0  0
    9.7064  -16.2733   24.1880 C   0  0  0  0  0  0  0  0  0  0  0  0
    9.0251  -17.3480   24.3267 O   0  0  0  0  0  0  0  0  0  0  0  0
   10.8259  -16.1345   25.0452 N   0  0  0  0  0  0  0  0  0  0  0  0
   11.2957  -17.2115   25.8987 C   0  0  0  0  0  0  0  0  0  0  0  0
   10.7298  -17.0664   27.2753 C   0  0  0  0  0  0  0  0  0  0  0  0
   11.0588  -17.9174   28.3017 O   0  0  0  0  0  0  0  0  0  0  0  0
    9.9260  -16.1331   27.4978 O   0  0  0  0  0  0  0  0  0  0  0  0
  2  6  1  0
  2  3  1  0
  2  1  1  1
  3  4  1  0
  4  8  1  0
  4  5  2  0
  6  7  2  0
  9 10  1  0
  9  6  1  0
 10 16  1  0
 11 12  1  0
 10 11  1  1
 12 13  1  0
 13 14  1  0
 14 15  1  0
 16 18  1  0
 16 17  2  0
 18 19  1  0
 20 21  1  0
 20 19  1  0
 22 20  2  0
M  END
$$$$
