DKG.pdb
     RDKit          3D

 22 21  0  0  1  0  0  0  0  0999 V2000
    8.2679  -19.1986   18.7901 N   0  0  0  0  0  0  0  0  0  0  0  0
    8.0509  -19.8659   20.0594 C   0  0  1  0  0  0  0  0  0  0  0  0
    9.3515  -20.3416   20.6376 C   0  0  0  0  0  0  0  0  0  0  0  0
   10.0880  -21.2307   19.7188 C   0  0  0  0  0  0  0  0  0  0  0  0
    9.6552  -21.3933   18.5499 O   0  0  0  0  0  0  0  0  0  0  0  0
    7.3060  -18.9895   21.0122 C   0  0  0  0  0  0  0  0  0  0  0  0
    7.7210  -17.8430   21.2945 O   0  0  0  0  0  0  0  0  0  0  0  0
   11.2463  -21.9102   20.0669 O   0  0  0  0  0  0  0  0  0  0  0  0
    6.1252  -19.4530   21.6009 N   0  0  0  0  0  0  0  0  0  0  0  0
    5.2713  -18.6285   22.4727 C   0  0  1  0  0  0  0  0  0  0  0  0
    3.8748  -19.1978   22.3355 C   0  0  0  0  0  0  0  0  0  0  0  0
    3.2169  -18.9541   21.0314 C   0  0  0  0  0  0  0  0  0  0  0  0
    1.8591  -19.6602   20.9988 C   0  0  0  0  0  0  0  0  0  0  0  0
    1.1578  -19.3898   19.6869 C   0  0  0  0  0  0  0  0  0  0  0  0
   -0.1650  -19.9807   19.6772 N   0  0  0  0  0  0  0  0  0  0  0  0
    5.7844  -18.5928   23.8388 C   0  0  0  0  0  0  0  0  0  0  0  0
    5.1733  -17.8395   24.6741 O   0  0  0  0  0  0  0  0  0  0  0  0
    6.8941  -19.3108   24.3488 N   0  0  0  0  0  0  0  0  0  0  0  0
    7.3231  -19.2083   25.7325 C   0  0  0  0  0  0  0  0  0  0  0  0
    8.7684  -18.8300   25.8005 C   0  0  0  0  0  0  0  0  0  0  0  0
    9.4357  -18.6770   26.9909 O   0  0  0  0  0  0  0  0  0  0  0  0
    9.3910  -18.6466   24.7303 O   0  0  0  0  0  0  0  0  0  0  0  0
  2  6  1  0
  2  3  1  0
  2  1  1  6
  3  4  1  0
  4  8  1  0
  4  5  2  0
  6  7  2  0
  9 10  1  0
  9  6  1  0
 10 16  1  0
 11 12  1  0
 10 11  1  1
 12 13  1  0
 13 14  1  0
 14 15  1  0
 16 18  1  0
 16 17  2  0
 18 19  1  0
 20 21  1  0
 20 19  1  0
 22 20  2  0
M  END
$$$$
