MPE.pdb
     RDKit          3D

 25 25  0  0  1  0  0  0  0  0999 V2000
   18.2284  -19.9366  -17.2349 C   0  0  0  0  0  0  0  0  0  0  0  0
   19.1651  -18.3776  -17.1461 S   0  0  0  0  0  0  0  0  0  0  0  0
   20.6938  -18.6480  -16.2352 C   0  0  0  0  0  0  0  0  0  0  0  0
   20.6132  -19.7571  -15.2294 C   0  0  0  0  0  0  0  0  0  0  0  0
   21.9279  -19.9798  -14.4825 C   0  0  2  0  0  0  0  0  0  0  0  0
   22.9386  -20.3769  -15.3869 N   0  0  0  0  0  0  0  0  0  0  0  0
   21.6717  -20.8656  -13.3351 C   0  0  0  0  0  0  0  0  0  0  0  0
   22.0861  -22.0469  -13.4571 O   0  0  0  0  0  0  0  0  0  0  0  0
   21.0185  -20.4789  -12.1657 N   0  0  0  0  0  0  0  0  0  0  0  0
   20.4997  -19.1147  -11.9406 C   0  0  0  0  0  0  0  0  0  0  0  0
   20.4571  -18.9203  -10.4591 C   0  0  0  0  0  0  0  0  0  0  0  0
   20.7362  -20.2471   -9.8322 C   0  0  0  0  0  0  0  0  0  0  0  0
   20.7316  -21.2474  -11.0054 C   0  0  1  0  0  0  0  0  0  0  0  0
   19.4281  -21.9604  -11.0600 C   0  0  0  0  0  0  0  0  0  0  0  0
   18.4786  -21.5689  -11.7893 O   0  0  0  0  0  0  0  0  0  0  0  0
   19.2184  -23.1194  -10.2779 N   0  0  0  0  0  0  0  0  0  0  0  0
   18.1783  -24.0794  -10.4901 C   0  0  1  0  0  0  0  0  0  0  0  0
   18.5228  -25.4362   -9.8905 C   0  0  0  0  0  0  0  0  0  0  0  0
   17.4098  -26.4213  -10.0628 C   0  0  0  0  0  0  0  0  0  0  0  0
   17.8715  -27.7845   -9.6642 C   0  0  0  0  0  0  0  0  0  0  0  0
   19.0502  -27.9406   -9.2374 O   0  0  0  0  0  0  0  0  0  0  0  0
   16.9515  -23.6126   -9.8135 C   0  0  0  0  0  0  0  0  0  0  0  0
   15.7292  -24.1011  -10.2189 O   0  0  0  0  0  0  0  0  0  0  0  0
   17.0470  -28.8961   -9.7460 O   0  0  0  0  0  0  0  0  0  0  0  0
   16.9804  -22.7824   -8.8774 O   0  0  0  0  0  0  0  0  0  0  0  0
  2  1  1  0
  3  2  1  0
  4  3  1  0
  5  4  1  0
  5  6  1  6
  7  8  2  0
  7  5  1  0
  9  7  1  0
 10  9  1  0
 11 10  1  0
 12 11  1  0
 12 13  1  0
 13  9  1  0
 13 14  1  6
 15 14  2  0
 16 14  1  0
 17 16  1  0
 17 18  1  1
 19 18  1  0
 20 19  1  0
 20 21  2  0
 22 17  1  0
 23 22  1  0
 24 20  1  0
 25 22  2  0
M  END
$$$$
