MPE.pdb
     RDKit          3D

 25 25  0  0  1  0  0  0  0  0999 V2000
   20.8616  -10.4916  -20.5592 C   0  0  0  0  0  0  0  0  0  0  0  0
   19.4044  -11.5658  -20.3636 S   0  0  0  0  0  0  0  0  0  0  0  0
   18.7283  -11.3630  -18.7079 C   0  0  0  0  0  0  0  0  0  0  0  0
   18.8461   -9.9682  -18.1705 C   0  0  0  0  0  0  0  0  0  0  0  0
   18.2503   -9.8172  -16.7713 C   0  0  2  0  0  0  0  0  0  0  0  0
   16.8770  -10.1508  -16.7899 N   0  0  0  0  0  0  0  0  0  0  0  0
   18.6084   -8.4883  -16.2494 C   0  0  0  0  0  0  0  0  0  0  0  0
   17.6874   -7.6317  -16.2649 O   0  0  0  0  0  0  0  0  0  0  0  0
   19.8665   -8.1424  -15.7582 N   0  0  0  0  0  0  0  0  0  0  0  0
   20.9903   -9.0961  -15.6653 C   0  0  0  0  0  0  0  0  0  0  0  0
   21.8865   -8.5856  -14.5834 C   0  0  0  0  0  0  0  0  0  0  0  0
   21.3969   -7.2242  -14.2112 C   0  0  0  0  0  0  0  0  0  0  0  0
   20.3201   -6.8902  -15.2628 C   0  0  1  0  0  0  0  0  0  0  0  0
   20.8892   -5.9976  -16.3068 C   0  0  0  0  0  0  0  0  0  0  0  0
   21.6097   -6.4339  -17.2434 O   0  0  0  0  0  0  0  0  0  0  0  0
   20.6300   -4.6082  -16.2725 N   0  0  0  0  0  0  0  0  0  0  0  0
   20.5655   -3.7536  -17.4189 C   0  0  1  0  0  0  0  0  0  0  0  0
   19.1758   -3.7374  -18.0413 C   0  0  0  0  0  0  0  0  0  0  0  0
   19.0731   -2.7395  -19.1515 C   0  0  0  0  0  0  0  0  0  0  0  0
   17.8194   -2.9716  -19.9291 C   0  0  0  0  0  0  0  0  0  0  0  0
   17.4911   -2.1555  -20.8357 O   0  0  0  0  0  0  0  0  0  0  0  0
   20.8622   -2.3689  -17.0003 C   0  0  0  0  0  0  0  0  0  0  0  0
   21.3949   -1.4867  -17.9140 O   0  0  0  0  0  0  0  0  0  0  0  0
   16.9941   -4.0599  -19.6909 O   0  0  0  0  0  0  0  0  0  0  0  0
   20.6460   -1.9628  -15.8363 O   0  0  0  0  0  0  0  0  0  0  0  0
  2  1  1  0
  3  2  1  0
  4  3  1  0
  5  4  1  0
  5  6  1  6
  7  8  2  0
  7  5  1  0
  9  7  1  0
 10  9  1  0
 11 10  1  0
 12 11  1  0
 12 13  1  0
 13  9  1  0
 13 14  1  6
 15 14  2  0
 16 14  1  0
 17 16  1  0
 17 18  1  1
 19 18  1  0
 20 19  1  0
 20 21  2  0
 22 17  1  0
 23 22  1  0
 24 20  1  0
 25 22  2  0
M  END
$$$$
