MPE.pdb
     RDKit          3D

 25 25  0  0  1  0  0  0  0  0999 V2000
   25.0275  -21.4570  -16.3935 C   0  0  0  0  0  0  0  0  0  0  0  0
   26.2598  -20.2031  -15.9194 S   0  0  0  0  0  0  0  0  0  0  0  0
   27.7892  -20.4942  -16.8227 C   0  0  0  0  0  0  0  0  0  0  0  0
   28.0604  -21.9412  -17.1073 C   0  0  0  0  0  0  0  0  0  0  0  0
   29.3827  -22.1660  -17.8398 C   0  0  2  0  0  0  0  0  0  0  0  0
   29.4333  -21.3689  -19.0057 N   0  0  0  0  0  0  0  0  0  0  0  0
   29.5844  -23.6141  -18.0107 C   0  0  0  0  0  0  0  0  0  0  0  0
   29.1040  -24.1096  -19.0623 O   0  0  0  0  0  0  0  0  0  0  0  0
   30.2537  -24.4335  -17.1028 N   0  0  0  0  0  0  0  0  0  0  0  0
   30.8565  -23.9329  -15.8511 C   0  0  0  0  0  0  0  0  0  0  0  0
   31.9496  -24.8897  -15.4989 C   0  0  0  0  0  0  0  0  0  0  0  0
   31.8270  -26.0581  -16.4215 C   0  0  0  0  0  0  0  0  0  0  0  0
   30.4995  -25.8314  -17.1722 C   0  0  1  0  0  0  0  0  0  0  0  0
   29.4260  -26.6643  -16.5687 C   0  0  0  0  0  0  0  0  0  0  0  0
   28.8355  -26.3324  -15.5067 O   0  0  0  0  0  0  0  0  0  0  0  0
   29.0340  -27.8747  -17.1853 N   0  0  0  0  0  0  0  0  0  0  0  0
   27.9071  -28.6685  -16.7997 C   0  0  1  0  0  0  0  0  0  0  0  0
   26.6745  -28.3545  -17.6369 C   0  0  0  0  0  0  0  0  0  0  0  0
   25.5033  -29.1990  -17.2444 C   0  0  0  0  0  0  0  0  0  0  0  0
   24.3246  -28.8609  -18.0969 C   0  0  0  0  0  0  0  0  0  0  0  0
   23.9812  -27.6526  -18.2304 O   0  0  0  0  0  0  0  0  0  0  0  0
   28.2256  -30.0926  -17.0259 C   0  0  0  0  0  0  0  0  0  0  0  0
   29.0879  -30.4384  -18.0427 O   0  0  0  0  0  0  0  0  0  0  0  0
   23.5858  -29.8330  -18.7537 O   0  0  0  0  0  0  0  0  0  0  0  0
   27.7374  -31.0055  -16.3226 O   0  0  0  0  0  0  0  0  0  0  0  0
  2  1  1  0
  3  2  1  0
  4  3  1  0
  5  4  1  0
  5  6  1  6
  7  8  2  0
  7  5  1  0
  9  7  1  0
 10  9  1  0
 11 10  1  0
 12 11  1  0
 12 13  1  0
 13  9  1  0
 13 14  1  1
 15 14  2  0
 16 14  1  0
 17 16  1  0
 17 18  1  6
 19 18  1  0
 20 19  1  0
 20 21  2  0
 22 17  1  0
 23 22  1  0
 24 20  1  0
 25 22  2  0
M  END
$$$$
