MPE.pdb
     RDKit          3D

 25 25  0  0  1  0  0  0  0  0999 V2000
   26.1875  -22.7648  -21.2275 C   0  0  0  0  0  0  0  0  0  0  0  0
   27.9527  -22.3194  -21.1866 S   0  0  0  0  0  0  0  0  0  0  0  0
   28.5966  -22.5741  -19.5252 C   0  0  0  0  0  0  0  0  0  0  0  0
   27.6388  -22.1906  -18.4372 C   0  0  0  0  0  0  0  0  0  0  0  0
   28.1947  -22.4478  -17.0370 C   0  0  2  0  0  0  0  0  0  0  0  0
   28.5890  -23.7992  -16.9121 N   0  0  0  0  0  0  0  0  0  0  0  0
   27.2304  -21.9385  -16.0483 C   0  0  0  0  0  0  0  0  0  0  0  0
   26.5698  -22.8139  -15.4322 O   0  0  0  0  0  0  0  0  0  0  0  0
   27.0187  -20.5889  -15.7701 N   0  0  0  0  0  0  0  0  0  0  0  0
   27.6674  -19.4954  -16.5213 C   0  0  0  0  0  0  0  0  0  0  0  0
   27.7080  -18.3189  -15.6000 C   0  0  0  0  0  0  0  0  0  0  0  0
   26.8832  -18.6668  -14.4041 C   0  0  0  0  0  0  0  0  0  0  0  0
   26.1997  -19.9996  -14.7695 C   0  0  1  0  0  0  0  0  0  0  0  0
   24.7999  -19.7503  -15.2041 C   0  0  0  0  0  0  0  0  0  0  0  0
   24.5205  -19.3208  -16.3549 O   0  0  0  0  0  0  0  0  0  0  0  0
   23.7261  -19.9941  -14.3174 N   0  0  0  0  0  0  0  0  0  0  0  0
   22.3925  -20.3323  -14.7119 C   0  0  1  0  0  0  0  0  0  0  0  0
   22.0942  -21.8115  -14.5062 C   0  0  0  0  0  0  0  0  0  0  0  0
   20.9646  -22.0251  -13.5485 C   0  0  0  0  0  0  0  0  0  0  0  0
   19.9728  -22.9745  -14.1363 C   0  0  0  0  0  0  0  0  0  0  0  0
   20.2482  -23.5708  -15.2153 O   0  0  0  0  0  0  0  0  0  0  0  0
   21.4398  -19.5833  -13.8681 C   0  0  0  0  0  0  0  0  0  0  0  0
   20.1516  -19.3876  -14.3144 O   0  0  0  0  0  0  0  0  0  0  0  0
   18.7490  -23.2284  -13.5362 O   0  0  0  0  0  0  0  0  0  0  0  0
   21.7612  -19.1153  -12.7527 O   0  0  0  0  0  0  0  0  0  0  0  0
  2  1  1  0
  3  2  1  0
  4  3  1  0
  5  4  1  0
  5  6  1  1
  7  8  2  0
  7  5  1  0
  9  7  1  0
 10  9  1  0
 11 10  1  0
 12 11  1  0
 12 13  1  0
 13  9  1  0
 13 14  1  6
 15 14  2  0
 16 14  1  0
 17 16  1  0
 17 18  1  1
 19 18  1  0
 20 19  1  0
 20 21  2  0
 22 17  1  0
 23 22  1  0
 24 20  1  0
 25 22  2  0
M  END
$$$$
