MPE.pdb
     RDKit          3D

 25 25  0  0  1  0  0  0  0  0999 V2000
   22.9962  -18.2032  -15.8230 C   0  0  0  0  0  0  0  0  0  0  0  0
   21.6365  -18.7084  -14.7222 S   0  0  0  0  0  0  0  0  0  0  0  0
   21.8419  -20.4387  -14.2711 C   0  0  0  0  0  0  0  0  0  0  0  0
   20.8253  -20.9345  -13.2868 C   0  0  0  0  0  0  0  0  0  0  0  0
   19.5583  -21.4658  -13.9563 C   0  0  2  0  0  0  0  0  0  0  0  0
   18.9350  -20.4383  -14.7001 N   0  0  0  0  0  0  0  0  0  0  0  0
   18.7398  -22.1458  -12.9393 C   0  0  0  0  0  0  0  0  0  0  0  0
   17.8528  -21.4399  -12.3943 O   0  0  0  0  0  0  0  0  0  0  0  0
   18.8907  -23.4797  -12.5627 N   0  0  0  0  0  0  0  0  0  0  0  0
   19.9075  -24.3767  -13.1479 C   0  0  0  0  0  0  0  0  0  0  0  0
   19.3826  -25.7673  -12.9889 C   0  0  0  0  0  0  0  0  0  0  0  0
   18.1748  -25.6852  -12.1138 C   0  0  0  0  0  0  0  0  0  0  0  0
   18.1511  -24.2289  -11.6083 C   0  0  1  0  0  0  0  0  0  0  0  0
   18.7015  -24.1609  -10.2288 C   0  0  0  0  0  0  0  0  0  0  0  0
   19.9305  -24.2971   -9.9887 O   0  0  0  0  0  0  0  0  0  0  0  0
   17.8402  -23.9372   -9.1302 N   0  0  0  0  0  0  0  0  0  0  0  0
   18.2665  -23.6892   -7.7865 C   0  0  1  0  0  0  0  0  0  0  0  0
   17.1480  -23.1098   -6.9307 C   0  0  0  0  0  0  0  0  0  0  0  0
   15.9291  -23.9775   -6.9432 C   0  0  0  0  0  0  0  0  0  0  0  0
   15.5553  -24.3489   -5.5457 C   0  0  0  0  0  0  0  0  0  0  0  0
   16.2710  -23.9492   -4.5846 O   0  0  0  0  0  0  0  0  0  0  0  0
   18.6596  -24.9700   -7.1655 C   0  0  0  0  0  0  0  0  0  0  0  0
   19.3923  -24.9583   -5.9993 O   0  0  0  0  0  0  0  0  0  0  0  0
   14.4413  -25.1236   -5.2610 O   0  0  0  0  0  0  0  0  0  0  0  0
   18.3494  -26.0758   -7.6630 O   0  0  0  0  0  0  0  0  0  0  0  0
  2  1  1  0
  3  2  1  0
  4  3  1  0
  5  4  1  0
  5  6  1  1
  7  8  2  0
  7  5  1  0
  9  7  1  0
 10  9  1  0
 11 10  1  0
 12 11  1  0
 12 13  1  0
 13  9  1  0
 13 14  1  1
 15 14  2  0
 16 14  1  0
 17 16  1  0
 17 18  1  1
 19 18  1  0
 20 19  1  0
 20 21  2  0
 22 17  1  0
 23 22  1  0
 24 20  1  0
 25 22  2  0
M  END
$$$$
