MPE.pdb
     RDKit          3D

 25 25  0  0  1  0  0  0  0  0999 V2000
   19.1691  -15.4712  -12.9038 C   0  0  0  0  0  0  0  0  0  0  0  0
   17.5926  -15.6652  -13.7942 S   0  0  0  0  0  0  0  0  0  0  0  0
   17.8541  -15.3613  -15.5489 C   0  0  0  0  0  0  0  0  0  0  0  0
   18.4461  -14.0173  -15.8509 C   0  0  0  0  0  0  0  0  0  0  0  0
   18.8670  -13.8671  -17.3124 C   0  0  2  0  0  0  0  0  0  0  0  0
   19.8018  -14.8706  -17.6538 N   0  0  0  0  0  0  0  0  0  0  0  0
   19.2709  -12.4706  -17.5434 C   0  0  0  0  0  0  0  0  0  0  0  0
   20.5107  -12.2649  -17.5966 O   0  0  0  0  0  0  0  0  0  0  0  0
   18.3856  -11.4051  -17.7000 N   0  0  0  0  0  0  0  0  0  0  0  0
   16.9232  -11.5767  -17.8127 C   0  0  0  0  0  0  0  0  0  0  0  0
   16.4164  -10.3848  -18.5591 C   0  0  0  0  0  0  0  0  0  0  0  0
   17.5527   -9.4224  -18.6766 C   0  0  0  0  0  0  0  0  0  0  0  0
   18.6659  -10.0149  -17.7896 C   0  0  1  0  0  0  0  0  0  0  0  0
   18.6940   -9.3183  -16.4764 C   0  0  0  0  0  0  0  0  0  0  0  0
   17.9837   -9.6888  -15.5044 O   0  0  0  0  0  0  0  0  0  0  0  0
   19.5363   -8.1994  -16.2832 N   0  0  0  0  0  0  0  0  0  0  0  0
   19.7231   -7.5137  -15.0408 C   0  0  1  0  0  0  0  0  0  0  0  0
   20.9615   -6.6276  -15.0585 C   0  0  0  0  0  0  0  0  0  0  0  0
   21.1747   -5.9402  -13.7467 C   0  0  0  0  0  0  0  0  0  0  0  0
   22.3159   -4.9827  -13.8542 C   0  0  0  0  0  0  0  0  0  0  0  0
   22.4043   -4.0275  -13.0323 O   0  0  0  0  0  0  0  0  0  0  0  0
   18.5664   -6.6263  -14.8058 C   0  0  0  0  0  0  0  0  0  0  0  0
   18.1525   -6.3840  -13.5147 O   0  0  0  0  0  0  0  0  0  0  0  0
   23.2914   -5.1042  -14.8319 O   0  0  0  0  0  0  0  0  0  0  0  0
   17.9422   -6.0810  -15.7436 O   0  0  0  0  0  0  0  0  0  0  0  0
  2  1  1  0
  3  2  1  0
  4  3  1  0
  5  4  1  0
  5  6  1  1
  7  8  2  0
  7  5  1  0
  9  7  1  0
 10  9  1  0
 11 10  1  0
 12 11  1  0
 12 13  1  0
 13  9  1  0
 13 14  1  1
 15 14  2  0
 16 14  1  0
 17 16  1  0
 17 18  1  6
 19 18  1  0
 20 19  1  0
 20 21  2  0
 22 17  1  0
 23 22  1  0
 24 20  1  0
 25 22  2  0
M  END
$$$$
