AIP.pdb
     RDKit          3D

 21 21  0  0  1  0  0  0  0  0999 V2000
   20.4987  -20.9957  -15.7399 C   0  0  0  0  0  0  0  0  0  0  0  0
   21.6741  -20.5933  -16.5880 C   0  0  2  0  0  0  0  0  0  0  0  0
   21.6488  -21.3800  -17.8043 N   0  0  0  0  0  0  0  0  0  0  0  0
   22.9519  -20.8362  -15.8139 C   0  0  0  0  0  0  0  0  0  0  0  0
   23.4120  -21.9692  -15.6785 O   0  0  0  0  0  0  0  0  0  0  0  0
   28.0472  -17.7673  -15.4937 C   0  0  0  0  0  0  0  0  0  0  0  0
   27.2651  -18.8314  -14.7400 C   0  0  0  0  0  0  0  0  0  0  0  0
   25.8377  -18.7702  -15.2521 C   0  0  2  0  0  0  0  0  0  0  0  0
   25.2711  -17.3569  -14.9688 C   0  0  0  0  0  0  0  0  0  0  0  0
   24.9006  -19.7191  -14.6183 C   0  0  2  0  0  0  0  0  0  0  0  0
   23.5930  -19.7188  -15.2557 N   0  0  0  0  0  0  0  0  0  0  0  0
   24.8365  -19.7848  -13.1557 C   0  0  0  0  0  0  0  0  0  0  0  0
   24.0205  -18.9300  -12.6297 O   0  0  0  0  0  0  0  0  0  0  0  0
   25.4864  -20.5944  -12.2276 N   0  0  0  0  0  0  0  0  0  0  0  0
   26.4798  -21.6214  -12.6275 C   0  0  0  0  0  0  0  0  0  0  0  0
   26.2242  -22.6923  -11.5932 C   0  0  0  0  0  0  0  0  0  0  0  0
   26.2704  -21.8232  -10.3330 C   0  0  0  0  0  0  0  0  0  0  0  0
   25.3982  -20.6489  -10.7963 C   0  0  1  0  0  0  0  0  0  0  0  0
   25.8827  -19.4055  -10.1617 C   0  0  0  0  0  0  0  0  0  0  0  0
   26.6212  -18.5528  -10.6662 O   0  0  0  0  0  0  0  0  0  0  0  0
   25.4516  -19.1759   -8.8404 O   0  0  0  0  0  0  0  0  0  0  0  0
  2  1  1  1
  2  4  1  0
  3  2  1  0
  4  5  2  0
  7  6  1  0
  8  7  1  0
  8  9  1  1
 10  8  1  0
 11  4  1  0
 10 11  1  1
 12 14  1  0
 12 10  1  0
 13 12  2  0
 14 18  1  0
 15 14  1  0
 15 16  1  0
 16 17  1  0
 17 18  1  0
 18 19  1  1
 19 21  1  0
 20 19  2  0
M  END
$$$$
