AIP.pdb
     RDKit          3D

 21 21  0  0  1  0  0  0  0  0999 V2000
   20.9060  -21.1433  -14.9370 C   0  0  0  0  0  0  0  0  0  0  0  0
   21.2107  -21.0049  -13.4705 C   0  0  2  0  0  0  0  0  0  0  0  0
   20.1779  -20.1887  -12.8656 N   0  0  0  0  0  0  0  0  0  0  0  0
   22.5722  -20.3647  -13.3039 C   0  0  0  0  0  0  0  0  0  0  0  0
   22.7147  -19.1437  -13.3521 O   0  0  0  0  0  0  0  0  0  0  0  0
   25.4184  -21.0006   -9.0400 C   0  0  0  0  0  0  0  0  0  0  0  0
   24.8678  -20.4061  -10.3266 C   0  0  0  0  0  0  0  0  0  0  0  0
   25.4856  -21.1897  -11.4701 C   0  0  2  0  0  0  0  0  0  0  0  0
   27.0180  -20.9656  -11.4520 C   0  0  0  0  0  0  0  0  0  0  0  0
   25.0326  -20.7966  -12.8194 C   0  0  2  0  0  0  0  0  0  0  0  0
   23.6671  -21.2176  -13.0922 N   0  0  0  0  0  0  0  0  0  0  0  0
   25.9387  -20.9836  -13.9559 C   0  0  0  0  0  0  0  0  0  0  0  0
   25.9810  -22.1993  -14.3957 O   0  0  0  0  0  0  0  0  0  0  0  0
   26.7598  -20.0995  -14.6513 N   0  0  0  0  0  0  0  0  0  0  0  0
   26.9848  -18.7037  -14.2014 C   0  0  0  0  0  0  0  0  0  0  0  0
   27.1161  -17.9885  -15.5255 C   0  0  0  0  0  0  0  0  0  0  0  0
   28.1445  -18.9069  -16.1922 C   0  0  0  0  0  0  0  0  0  0  0  0
   27.5347  -20.2720  -15.8467 C   0  0  1  0  0  0  0  0  0  0  0  0
   28.6217  -21.2568  -15.6673 C   0  0  0  0  0  0  0  0  0  0  0  0
   29.0936  -21.6559  -14.5973 O   0  0  0  0  0  0  0  0  0  0  0  0
   29.1729  -21.7926  -16.8478 O   0  0  0  0  0  0  0  0  0  0  0  0
  2  1  1  6
  2  4  1  0
  3  2  1  0
  4  5  2  0
  7  6  1  0
  8  7  1  0
  8  9  1  6
 10  8  1  0
 11  4  1  0
 10 11  1  6
 12 14  1  0
 12 10  1  0
 13 12  2  0
 14 18  1  0
 15 14  1  0
 15 16  1  0
 16 17  1  0
 17 18  1  0
 18 19  1  1
 19 21  1  0
 20 19  2  0
M  END
$$$$
