AIP.pdb
     RDKit          3D

 21 21  0  0  1  0  0  0  0  0999 V2000
   26.6563  -17.3987  -16.8407 C   0  0  0  0  0  0  0  0  0  0  0  0
   27.7055  -18.1736  -16.0914 C   0  0  2  0  0  0  0  0  0  0  0  0
   28.7616  -18.5250  -17.0189 N   0  0  0  0  0  0  0  0  0  0  0  0
   27.0758  -19.4139  -15.4945 C   0  0  0  0  0  0  0  0  0  0  0  0
   27.0065  -20.4649  -16.1301 O   0  0  0  0  0  0  0  0  0  0  0  0
   26.2227  -21.2132   -9.7153 C   0  0  0  0  0  0  0  0  0  0  0  0
   25.7993  -21.4945  -11.1483 C   0  0  0  0  0  0  0  0  0  0  0  0
   26.3787  -20.3816  -12.0021 C   0  0  2  0  0  0  0  0  0  0  0  0
   25.8869  -19.0231  -11.4442 C   0  0  0  0  0  0  0  0  0  0  0  0
   25.9797  -20.4064  -13.4236 C   0  0  2  0  0  0  0  0  0  0  0  0
   26.5734  -19.3195  -14.1868 N   0  0  0  0  0  0  0  0  0  0  0  0
   24.5769  -20.6596  -13.7637 C   0  0  0  0  0  0  0  0  0  0  0  0
   23.8715  -19.5846  -13.9050 O   0  0  0  0  0  0  0  0  0  0  0  0
   23.8625  -21.8379  -13.9648 N   0  0  0  0  0  0  0  0  0  0  0  0
   24.5017  -23.1753  -13.8988 C   0  0  0  0  0  0  0  0  0  0  0  0
   23.7119  -23.9275  -14.9440 C   0  0  0  0  0  0  0  0  0  0  0  0
   22.2976  -23.5706  -14.4774 C   0  0  0  0  0  0  0  0  0  0  0  0
   22.4737  -22.0639  -14.2466 C   0  0  1  0  0  0  0  0  0  0  0  0
   21.6038  -21.6398  -13.1299 C   0  0  0  0  0  0  0  0  0  0  0  0
   21.9379  -21.4634  -11.9534 O   0  0  0  0  0  0  0  0  0  0  0  0
   20.2506  -21.4149  -13.4500 O   0  0  0  0  0  0  0  0  0  0  0  0
  2  1  1  6
  2  4  1  0
  3  2  1  0
  4  5  2  0
  7  6  1  0
  8  7  1  0
  8  9  1  1
 10  8  1  0
 11  4  1  0
 10 11  1  1
 12 14  1  0
 12 10  1  0
 13 12  2  0
 14 18  1  0
 15 14  1  0
 15 16  1  0
 16 17  1  0
 17 18  1  0
 18 19  1  1
 19 21  1  0
 20 19  2  0
M  END
$$$$
