AIP.pdb
     RDKit          3D

 21 21  0  0  1  0  0  0  0  0999 V2000
   46.1055  -12.0883   -8.7885 C   0  0  0  0  0  0  0  0  0  0  0  0
   44.8767  -12.8829   -8.4401 C   0  0  2  0  0  0  0  0  0  0  0  0
   44.1550  -12.1745   -7.4027 N   0  0  0  0  0  0  0  0  0  0  0  0
   45.2924  -14.2590   -7.9659 C   0  0  0  0  0  0  0  0  0  0  0  0
   45.6060  -14.4637   -6.7941 O   0  0  0  0  0  0  0  0  0  0  0  0
   42.7480  -18.5024  -10.2978 C   0  0  0  0  0  0  0  0  0  0  0  0
   43.3648  -17.5475   -9.2881 C   0  0  0  0  0  0  0  0  0  0  0  0
   44.8690  -17.6247   -9.4751 C   0  0  2  0  0  0  0  0  0  0  0  0
   45.3452  -19.0421   -9.0713 C   0  0  0  0  0  0  0  0  0  0  0  0
   45.6544  -16.6819   -8.6537 C   0  0  2  0  0  0  0  0  0  0  0  0
   45.3065  -15.2937   -8.9147 N   0  0  0  0  0  0  0  0  0  0  0  0
   47.0948  -16.9032   -8.4995 C   0  0  0  0  0  0  0  0  0  0  0  0
   47.8040  -16.4207   -9.4677 O   0  0  0  0  0  0  0  0  0  0  0  0
   47.8423  -17.5325   -7.5072 N   0  0  0  0  0  0  0  0  0  0  0  0
   47.2318  -18.0362   -6.2522 C   0  0  0  0  0  0  0  0  0  0  0  0
   48.3499  -17.7924   -5.2661 C   0  0  0  0  0  0  0  0  0  0  0  0
   49.4994  -18.4407   -6.0433 C   0  0  0  0  0  0  0  0  0  0  0  0
   49.2411  -17.8439   -7.4331 C   0  0  1  0  0  0  0  0  0  0  0  0
   49.6483  -18.8216   -8.4635 C   0  0  0  0  0  0  0  0  0  0  0  0
   48.9130  -19.5975   -9.0835 O   0  0  0  0  0  0  0  0  0  0  0  0
   51.0236  -18.8671   -8.7649 O   0  0  0  0  0  0  0  0  0  0  0  0
  2  1  1  1
  2  4  1  0
  3  2  1  0
  4  5  2  0
  7  6  1  0
  8  7  1  0
  8  9  1  1
 10  8  1  0
 11  4  1  0
 10 11  1  6
 12 14  1  0
 12 10  1  0
 13 12  2  0
 14 18  1  0
 15 14  1  0
 15 16  1  0
 16 17  1  0
 17 18  1  0
 18 19  1  6
 19 21  1  0
 20 19  2  0
M  END
$$$$
