AIP.pdb
     RDKit          3D

 21 21  0  0  1  0  0  0  0  0999 V2000
   14.3798  -21.2589    3.0499 C   0  0  0  0  0  0  0  0  0  0  0  0
   15.1945  -20.5744    1.9867 C   0  0  2  0  0  0  0  0  0  0  0  0
   15.5388  -21.5533    0.9757 N   0  0  0  0  0  0  0  0  0  0  0  0
   16.4394  -19.9865    2.6158 C   0  0  0  0  0  0  0  0  0  0  0  0
   17.4784  -20.6389    2.7078 O   0  0  0  0  0  0  0  0  0  0  0  0
   18.4315  -14.2627    2.8887 C   0  0  0  0  0  0  0  0  0  0  0  0
   18.6838  -15.6591    3.4350 C   0  0  0  0  0  0  0  0  0  0  0  0
   17.4886  -16.5064    3.0387 C   0  0  2  0  0  0  0  0  0  0  0  0
   16.2024  -15.8256    3.5688 C   0  0  0  0  0  0  0  0  0  0  0  0
   17.4794  -17.8772    3.5875 C   0  0  2  0  0  0  0  0  0  0  0  0
   16.3635  -18.6675    3.0909 N   0  0  0  0  0  0  0  0  0  0  0  0
   17.7426  -18.0727    5.0158 C   0  0  0  0  0  0  0  0  0  0  0  0
   16.6760  -18.0780    5.7476 O   0  0  0  0  0  0  0  0  0  0  0  0
   18.9231  -18.2555    5.7316 N   0  0  0  0  0  0  0  0  0  0  0  0
   20.2477  -18.3455    5.0694 C   0  0  0  0  0  0  0  0  0  0  0  0
   20.9567  -19.3306    5.9686 C   0  0  0  0  0  0  0  0  0  0  0  0
   20.6578  -18.6774    7.3212 C   0  0  0  0  0  0  0  0  0  0  0  0
   19.1631  -18.3812    7.1409 C   0  0  1  0  0  0  0  0  0  0  0  0
   18.8220  -17.1452    7.8753 C   0  0  0  0  0  0  0  0  0  0  0  0
   18.6035  -16.0295    7.3911 O   0  0  0  0  0  0  0  0  0  0  0  0
   18.7392  -17.2605    9.2768 O   0  0  0  0  0  0  0  0  0  0  0  0
  2  1  1  1
  2  4  1  0
  3  2  1  0
  4  5  2  0
  7  6  1  0
  8  7  1  0
  8  9  1  1
 10  8  1  0
 11  4  1  0
 10 11  1  1
 12 14  1  0
 12 10  1  0
 13 12  2  0
 14 18  1  0
 15 14  1  0
 15 16  1  0
 16 17  1  0
 17 18  1  0
 18 19  1  1
 19 21  1  0
 20 19  2  0
M  END
$$$$
