AIP.pdb
     RDKit          3D

 21 21  0  0  1  0  0  0  0  0999 V2000
   27.4130  -15.9290  -15.5962 C   0  0  0  0  0  0  0  0  0  0  0  0
   26.2673  -16.5070  -16.3810 C   0  0  2  0  0  0  0  0  0  0  0  0
   25.5277  -15.4144  -16.9793 N   0  0  0  0  0  0  0  0  0  0  0  0
   25.3845  -17.3123  -15.4519 C   0  0  0  0  0  0  0  0  0  0  0  0
   24.8314  -16.7914  -14.4844 O   0  0  0  0  0  0  0  0  0  0  0  0
   22.3232  -18.5286  -17.5725 C   0  0  0  0  0  0  0  0  0  0  0  0
   22.1998  -18.8269  -16.0867 C   0  0  0  0  0  0  0  0  0  0  0  0
   23.1544  -19.9686  -15.7889 C   0  0  2  0  0  0  0  0  0  0  0  0
   22.4089  -21.0278  -14.9398 C   0  0  0  0  0  0  0  0  0  0  0  0
   24.3560  -19.5984  -15.0147 C   0  0  2  0  0  0  0  0  0  0  0  0
   25.2206  -18.6774  -15.7363 N   0  0  0  0  0  0  0  0  0  0  0  0
   25.0887  -20.6446  -14.2961 C   0  0  0  0  0  0  0  0  0  0  0  0
   25.9191  -21.3037  -15.0372 O   0  0  0  0  0  0  0  0  0  0  0  0
   25.0603  -21.0603  -12.9673 N   0  0  0  0  0  0  0  0  0  0  0  0
   24.2998  -20.3307  -11.9230 C   0  0  0  0  0  0  0  0  0  0  0  0
   25.1880  -20.5365  -10.7185 C   0  0  0  0  0  0  0  0  0  0  0  0
   25.3749  -22.0534  -10.8159 C   0  0  0  0  0  0  0  0  0  0  0  0
   25.6742  -22.1816  -12.3153 C   0  0  1  0  0  0  0  0  0  0  0  0
   25.1430  -23.4698  -12.8071 C   0  0  0  0  0  0  0  0  0  0  0  0
   24.1093  -23.6463  -13.4606 O   0  0  0  0  0  0  0  0  0  0  0  0
   25.9029  -24.6135  -12.4926 O   0  0  0  0  0  0  0  0  0  0  0  0
  2  1  1  1
  2  4  1  0
  3  2  1  0
  4  5  2  0
  7  6  1  0
  8  7  1  0
  8  9  1  1
 10  8  1  0
 11  4  1  0
 10 11  1  6
 12 14  1  0
 12 10  1  0
 13 12  2  0
 14 18  1  0
 15 14  1  0
 15 16  1  0
 16 17  1  0
 17 18  1  0
 18 19  1  6
 19 21  1  0
 20 19  2  0
M  END
$$$$
