AIP.pdb
     RDKit          3D

 21 21  0  0  1  0  0  0  0  0999 V2000
   18.2878  -11.0596  -18.1458 C   0  0  0  0  0  0  0  0  0  0  0  0
   19.3220  -12.0064  -17.6007 C   0  0  2  0  0  0  0  0  0  0  0  0
   18.6372  -13.1386  -17.0107 N   0  0  0  0  0  0  0  0  0  0  0  0
   20.1616  -11.2848  -16.5685 C   0  0  0  0  0  0  0  0  0  0  0  0
   19.8237  -11.2416  -15.3863 O   0  0  0  0  0  0  0  0  0  0  0  0
   25.9414  -10.5179  -15.4215 C   0  0  0  0  0  0  0  0  0  0  0  0
   24.6228   -9.7744  -15.2792 C   0  0  0  0  0  0  0  0  0  0  0  0
   23.6064  -10.5206  -16.1239 C   0  0  2  0  0  0  0  0  0  0  0  0
   24.1188  -10.5706  -17.5846 C   0  0  0  0  0  0  0  0  0  0  0  0
   22.2652   -9.9058  -16.1838 C   0  0  2  0  0  0  0  0  0  0  0  0
   21.3415  -10.6661  -17.0115 N   0  0  0  0  0  0  0  0  0  0  0  0
   22.1555   -8.4561  -16.3679 C   0  0  0  0  0  0  0  0  0  0  0  0
   22.2967   -8.0733  -17.5954 O   0  0  0  0  0  0  0  0  0  0  0  0
   21.9263   -7.4154  -15.4714 N   0  0  0  0  0  0  0  0  0  0  0  0
   21.6627   -7.6518  -14.0306 C   0  0  0  0  0  0  0  0  0  0  0  0
   20.6949   -6.5331  -13.7241 C   0  0  0  0  0  0  0  0  0  0  0  0
   21.4818   -5.3650  -14.3258 C   0  0  0  0  0  0  0  0  0  0  0  0
   21.8961   -5.9935  -15.6629 C   0  0  1  0  0  0  0  0  0  0  0  0
   23.2142   -5.4581  -16.0622 C   0  0  0  0  0  0  0  0  0  0  0  0
   24.3115   -6.0108  -15.9303 O   0  0  0  0  0  0  0  0  0  0  0  0
   23.2098   -4.1806  -16.6557 O   0  0  0  0  0  0  0  0  0  0  0  0
  2  1  1  1
  2  4  1  0
  3  2  1  0
  4  5  2  0
  7  6  1  0
  8  7  1  0
  8  9  1  6
 10  8  1  0
 11  4  1  0
 10 11  1  6
 12 14  1  0
 12 10  1  0
 13 12  2  0
 14 18  1  0
 15 14  1  0
 15 16  1  0
 16 17  1  0
 17 18  1  0
 18 19  1  1
 19 21  1  0
 20 19  2  0
M  END
$$$$
