AIP.pdb
     RDKit          3D

 21 21  0  0  1  0  0  0  0  0999 V2000
   24.1513  -21.4879  -18.9669 C   0  0  0  0  0  0  0  0  0  0  0  0
   25.2343  -20.4448  -18.9218 C   0  0  2  0  0  0  0  0  0  0  0  0
   26.2680  -20.8202  -19.8649 N   0  0  0  0  0  0  0  0  0  0  0  0
   25.7889  -20.3646  -17.5157 C   0  0  0  0  0  0  0  0  0  0  0  0
   26.6766  -21.1262  -17.1341 O   0  0  0  0  0  0  0  0  0  0  0  0
   26.2989  -15.6908  -16.4644 C   0  0  0  0  0  0  0  0  0  0  0  0
   26.9246  -16.9812  -15.9591 C   0  0  0  0  0  0  0  0  0  0  0  0
   25.8896  -17.6523  -15.0749 C   0  0  2  0  0  0  0  0  0  0  0  0
   26.3365  -17.5143  -13.5984 C   0  0  0  0  0  0  0  0  0  0  0  0
   25.7033  -19.0980  -15.3104 C   0  0  2  0  0  0  0  0  0  0  0  0
   25.2516  -19.3875  -16.6626 N   0  0  0  0  0  0  0  0  0  0  0  0
   25.0331  -19.9043  -14.2864 C   0  0  0  0  0  0  0  0  0  0  0  0
   23.7456  -19.9366  -14.4069 O   0  0  0  0  0  0  0  0  0  0  0  0
   25.5213  -20.6425  -13.2112 N   0  0  0  0  0  0  0  0  0  0  0  0
   26.9731  -20.7906  -12.9435 C   0  0  0  0  0  0  0  0  0  0  0  0
   27.0248  -22.1934  -12.3854 C   0  0  0  0  0  0  0  0  0  0  0  0
   25.9136  -22.0749  -11.3382 C   0  0  0  0  0  0  0  0  0  0  0  0
   24.8406  -21.3695  -12.1781 C   0  0  1  0  0  0  0  0  0  0  0  0
   24.0472  -20.4810  -11.3036 C   0  0  0  0  0  0  0  0  0  0  0  0
   24.1973  -19.2644  -11.1478 O   0  0  0  0  0  0  0  0  0  0  0  0
   23.0110  -21.0953  -10.5733 O   0  0  0  0  0  0  0  0  0  0  0  0
  2  1  1  1
  2  4  1  0
  3  2  1  0
  4  5  2  0
  7  6  1  0
  8  7  1  0
  8  9  1  1
 10  8  1  0
 11  4  1  0
 10 11  1  6
 12 14  1  0
 12 10  1  0
 13 12  2  0
 14 18  1  0
 15 14  1  0
 15 16  1  0
 16 17  1  0
 17 18  1  0
 18 19  1  1
 19 21  1  0
 20 19  2  0
M  END
$$$$
