AIP.pdb
     RDKit          3D

 21 21  0  0  1  0  0  0  0  0999 V2000
   20.3248   -9.1381  -20.9191 C   0  0  0  0  0  0  0  0  0  0  0  0
   20.9350  -10.2191  -20.0695 C   0  0  2  0  0  0  0  0  0  0  0  0
   20.3199  -11.4811  -20.4268 N   0  0  0  0  0  0  0  0  0  0  0  0
   20.6985   -9.8968  -18.6095 C   0  0  0  0  0  0  0  0  0  0  0  0
   19.6407  -10.1890  -18.0535 O   0  0  0  0  0  0  0  0  0  0  0  0
   21.9683  -10.8473  -13.5939 C   0  0  0  0  0  0  0  0  0  0  0  0
   22.6560   -9.6508  -14.2323 C   0  0  0  0  0  0  0  0  0  0  0  0
   22.6234   -9.8766  -15.7327 C   0  0  2  0  0  0  0  0  0  0  0  0
   24.0501   -9.6627  -16.2960 C   0  0  0  0  0  0  0  0  0  0  0  0
   21.7458   -8.9602  -16.4880 C   0  0  2  0  0  0  0  0  0  0  0  0
   21.7328   -9.2514  -17.9133 N   0  0  0  0  0  0  0  0  0  0  0  0
   21.7867   -7.5268  -16.1859 C   0  0  0  0  0  0  0  0  0  0  0  0
   22.8455   -6.9298  -16.6284 O   0  0  0  0  0  0  0  0  0  0  0  0
   20.9006   -6.6880  -15.5148 N   0  0  0  0  0  0  0  0  0  0  0  0
   19.6181   -7.1758  -14.9504 C   0  0  0  0  0  0  0  0  0  0  0  0
   18.7326   -5.9689  -15.1534 C   0  0  0  0  0  0  0  0  0  0  0  0
   19.6451   -4.8986  -14.5475 C   0  0  0  0  0  0  0  0  0  0  0  0
   20.9746   -5.2883  -15.2069 C   0  0  1  0  0  0  0  0  0  0  0  0
   22.0837   -4.9808  -14.2802 C   0  0  0  0  0  0  0  0  0  0  0  0
   22.6869   -5.7773  -13.5531 O   0  0  0  0  0  0  0  0  0  0  0  0
   22.4902   -3.6332  -14.2264 O   0  0  0  0  0  0  0  0  0  0  0  0
  2  1  1  6
  2  4  1  0
  3  2  1  0
  4  5  2  0
  7  6  1  0
  8  7  1  0
  8  9  1  6
 10  8  1  0
 11  4  1  0
 10 11  1  6
 12 14  1  0
 12 10  1  0
 13 12  2  0
 14 18  1  0
 15 14  1  0
 15 16  1  0
 16 17  1  0
 17 18  1  0
 18 19  1  1
 19 21  1  0
 20 19  2  0
M  END
$$$$
