AIP.pdb
     RDKit          3D

 21 21  0  0  1  0  0  0  0  0999 V2000
   27.5383  -22.4179  -18.8887 C   0  0  0  0  0  0  0  0  0  0  0  0
   28.3316  -22.6249  -17.6274 C   0  0  2  0  0  0  0  0  0  0  0  0
   29.0547  -23.8749  -17.7439 N   0  0  0  0  0  0  0  0  0  0  0  0
   27.3867  -22.6554  -16.4453 C   0  0  0  0  0  0  0  0  0  0  0  0
   26.8406  -23.6990  -16.0900 O   0  0  0  0  0  0  0  0  0  0  0  0
   26.7378  -21.3940  -11.2477 C   0  0  0  0  0  0  0  0  0  0  0  0
   26.2118  -20.3635  -12.2343 C   0  0  0  0  0  0  0  0  0  0  0  0
   27.0100  -20.5354  -13.5136 C   0  0  2  0  0  0  0  0  0  0  0  0
   27.3214  -19.1337  -14.0942 C   0  0  0  0  0  0  0  0  0  0  0  0
   26.3227  -21.2780  -14.5891 C   0  0  2  0  0  0  0  0  0  0  0  0
   27.1568  -21.4468  -15.7690 N   0  0  0  0  0  0  0  0  0  0  0  0
   24.9294  -20.9487  -14.9019 C   0  0  0  0  0  0  0  0  0  0  0  0
   24.7989  -19.9674  -15.7344 O   0  0  0  0  0  0  0  0  0  0  0  0
   23.7218  -21.4942  -14.4734 N   0  0  0  0  0  0  0  0  0  0  0  0
   23.6568  -22.6267  -13.5172 C   0  0  0  0  0  0  0  0  0  0  0  0
   22.4354  -23.3611  -14.0181 C   0  0  0  0  0  0  0  0  0  0  0  0
   21.4631  -22.1806  -14.0984 C   0  0  0  0  0  0  0  0  0  0  0  0
   22.3651  -21.1488  -14.7884 C   0  0  1  0  0  0  0  0  0  0  0  0
   22.0098  -19.7970  -14.3089 C   0  0  0  0  0  0  0  0  0  0  0  0
   22.6127  -19.1260  -13.4643 O   0  0  0  0  0  0  0  0  0  0  0  0
   20.8596  -19.2193  -14.8812 O   0  0  0  0  0  0  0  0  0  0  0  0
  2  1  1  6
  2  4  1  0
  3  2  1  0
  4  5  2  0
  7  6  1  0
  8  7  1  0
  8  9  1  6
 10  8  1  0
 11  4  1  0
 10 11  1  6
 12 14  1  0
 12 10  1  0
 13 12  2  0
 14 18  1  0
 15 14  1  0
 15 16  1  0
 16 17  1  0
 17 18  1  0
 18 19  1  1
 19 21  1  0
 20 19  2  0
M  END
$$$$
