AIP.pdb
     RDKit          3D

 21 21  0  0  1  0  0  0  0  0999 V2000
   24.6773  -11.4892  -19.8524 C   0  0  0  0  0  0  0  0  0  0  0  0
   24.4613  -11.9570  -18.4392 C   0  0  2  0  0  0  0  0  0  0  0  0
   24.4733  -13.4057  -18.4319 N   0  0  0  0  0  0  0  0  0  0  0  0
   23.1363  -11.4251  -17.9365 C   0  0  0  0  0  0  0  0  0  0  0  0
   22.0688  -11.8927  -18.3305 O   0  0  0  0  0  0  0  0  0  0  0  0
   22.5211   -9.9531  -12.6122 C   0  0  0  0  0  0  0  0  0  0  0  0
   23.0000   -9.7287  -14.0378 C   0  0  0  0  0  0  0  0  0  0  0  0
   21.8713  -10.1673  -14.9526 C   0  0  2  0  0  0  0  0  0  0  0  0
   21.8075  -11.7148  -14.9522 C   0  0  0  0  0  0  0  0  0  0  0  0
   22.0151   -9.7661  -16.3663 C   0  0  2  0  0  0  0  0  0  0  0  0
   23.1717  -10.3772  -17.0029 N   0  0  0  0  0  0  0  0  0  0  0  0
   21.8256   -8.3588  -16.7286 C   0  0  0  0  0  0  0  0  0  0  0  0
   22.9285   -7.6883  -16.8137 O   0  0  0  0  0  0  0  0  0  0  0  0
   20.6834   -7.6097  -16.9997 N   0  0  0  0  0  0  0  0  0  0  0  0
   19.3446   -8.2303  -17.1538 C   0  0  0  0  0  0  0  0  0  0  0  0
   18.7270   -7.3343  -18.2015 C   0  0  0  0  0  0  0  0  0  0  0  0
   19.0325   -5.9757  -17.5640 C   0  0  0  0  0  0  0  0  0  0  0  0
   20.4998   -6.1971  -17.1735 C   0  0  1  0  0  0  0  0  0  0  0  0
   20.7914   -5.4423  -15.9371 C   0  0  0  0  0  0  0  0  0  0  0  0
   20.9596   -5.9076  -14.8048 O   0  0  0  0  0  0  0  0  0  0  0  0
   20.8859   -4.0434  -16.0733 O   0  0  0  0  0  0  0  0  0  0  0  0
  2  1  1  6
  2  4  1  0
  3  2  1  0
  4  5  2  0
  7  6  1  0
  8  7  1  0
  8  9  1  6
 10  8  1  0
 11  4  1  0
 10 11  1  1
 12 14  1  0
 12 10  1  0
 13 12  2  0
 14 18  1  0
 15 14  1  0
 15 16  1  0
 16 17  1  0
 17 18  1  0
 18 19  1  1
 19 21  1  0
 20 19  2  0
M  END
$$$$
