AIP.pdb
     RDKit          3D

 21 21  0  0  1  0  0  0  0  0999 V2000
   14.2232  -21.6132    3.1153 C   0  0  0  0  0  0  0  0  0  0  0  0
   15.0191  -21.1087    1.9428 C   0  0  2  0  0  0  0  0  0  0  0  0
   15.2736  -22.2224    1.0519 N   0  0  0  0  0  0  0  0  0  0  0  0
   16.3160  -20.5097    2.4432 C   0  0  0  0  0  0  0  0  0  0  0  0
   17.3058  -21.2103    2.6507 O   0  0  0  0  0  0  0  0  0  0  0  0
   18.9597  -15.1027    1.8105 C   0  0  0  0  0  0  0  0  0  0  0  0
   18.9760  -16.3584    2.6677 C   0  0  0  0  0  0  0  0  0  0  0  0
   17.7410  -17.1582    2.2955 C   0  0  2  0  0  0  0  0  0  0  0  0
   16.4948  -16.2567    2.4773 C   0  0  0  0  0  0  0  0  0  0  0  0
   17.4979  -18.3598    3.1186 C   0  0  2  0  0  0  0  0  0  0  0  0
   16.3468  -19.1232    2.6617 N   0  0  0  0  0  0  0  0  0  0  0  0
   17.5840  -18.2513    4.5775 C   0  0  0  0  0  0  0  0  0  0  0  0
   16.4425  -18.0613    5.1555 O   0  0  0  0  0  0  0  0  0  0  0  0
   18.6618  -18.3161    5.4570 N   0  0  0  0  0  0  0  0  0  0  0  0
   20.0462  -18.5886    4.9980 C   0  0  0  0  0  0  0  0  0  0  0  0
   20.5885  -19.3823    6.1633 C   0  0  0  0  0  0  0  0  0  0  0  0
   20.1751  -18.4463    7.3028 C   0  0  0  0  0  0  0  0  0  0  0  0
   18.7308  -18.1463    6.8803 C   0  0  1  0  0  0  0  0  0  0  0  0
   18.3805  -16.7716    7.2938 C   0  0  0  0  0  0  0  0  0  0  0  0
   18.2931  -15.7765    6.5665 O   0  0  0  0  0  0  0  0  0  0  0  0
   18.1201  -16.5850    8.6655 O   0  0  0  0  0  0  0  0  0  0  0  0
  2  1  1  1
  2  4  1  0
  3  2  1  0
  4  5  2  0
  7  6  1  0
  8  7  1  0
  8  9  1  1
 10  8  1  0
 11  4  1  0
 10 11  1  1
 12 14  1  0
 12 10  1  0
 13 12  2  0
 14 18  1  0
 15 14  1  0
 15 16  1  0
 16 17  1  0
 17 18  1  0
 18 19  1  6
 19 21  1  0
 20 19  2  0
M  END
$$$$
