KPQ.pdb
     RDKit          3D

 26 26  0  0  1  0  0  0  0  0999 V2000
   26.2033  -20.4680  -18.3070 N   0  0  0  0  0  0  0  0  0  0  0  0
   26.5294  -19.7102  -17.0465 C   0  0  1  0  0  0  0  0  0  0  0  0
   26.1790  -18.3134  -17.3621 C   0  0  0  0  0  0  0  0  0  0  0  0
   27.0621  -17.4548  -18.1594 C   0  0  0  0  0  0  0  0  0  0  0  0
   28.5309  -17.6307  -18.0763 C   0  0  0  0  0  0  0  0  0  0  0  0
   29.2900  -16.6368  -18.9457 C   0  0  0  0  0  0  0  0  0  0  0  0
   30.6934  -16.8902  -18.9624 N   0  0  0  0  0  0  0  0  0  0  0  0
   25.8480  -20.4214  -15.9969 C   0  0  0  0  0  0  0  0  0  0  0  0
   24.8009  -21.0904  -16.2548 O   0  0  0  0  0  0  0  0  0  0  0  0
   26.2524  -20.4620  -14.6007 N   0  0  0  0  0  0  0  0  0  0  0  0
   27.4454  -19.8363  -14.0866 C   0  0  0  0  0  0  0  0  0  0  0  0
   27.6645  -20.4295  -12.7145 C   0  0  0  0  0  0  0  0  0  0  0  0
   26.6867  -21.5855  -12.6216 C   0  0  0  0  0  0  0  0  0  0  0  0
   25.5866  -21.1062  -13.5252 C   0  0  1  0  0  0  0  0  0  0  0  0
   24.5214  -20.3502  -12.8679 C   0  0  0  0  0  0  0  0  0  0  0  0
   24.7191  -19.1438  -12.5836 O   0  0  0  0  0  0  0  0  0  0  0  0
   21.1471  -17.9301  -15.9377 N   0  0  0  0  0  0  0  0  0  0  0  0
   20.9294  -19.3596  -15.9848 C   0  0  0  0  0  0  0  0  0  0  0  0
   20.4601  -19.7764  -17.0732 O   0  0  0  0  0  0  0  0  0  0  0  0
   21.2546  -20.1955  -14.8125 C   0  0  0  0  0  0  0  0  0  0  0  0
   21.7850  -19.4030  -13.6705 C   0  0  0  0  0  0  0  0  0  0  0  0
   22.0112  -20.2115  -12.4483 C   0  0  2  0  0  0  0  0  0  0  0  0
   23.2835  -20.9420  -12.5507 N   0  0  0  0  0  0  0  0  0  0  0  0
   20.9004  -21.1236  -12.1890 C   0  0  0  0  0  0  0  0  0  0  0  0
   20.9723  -22.5033  -12.4824 O   0  0  0  0  0  0  0  0  0  0  0  0
   19.7910  -20.7780  -11.6875 O   0  0  0  0  0  0  0  0  0  0  0  0
  2  1  1  6
  3  2  1  0
  4  3  1  0
  4  5  1  0
  6  5  1  0
  6  7  1  0
  8  2  1  0
  9  8  2  0
 10  8  1  0
 11 10  1  0
 11 12  1  0
 13 12  1  0
 14 10  1  0
 14 13  1  0
 14 15  1  1
 16 15  2  0
 17 18  1  0
 18 19  2  0
 20 18  1  0
 20 21  1  0
 22 21  1  6
 22 23  1  0
 23 15  1  0
 24 22  1  0
 24 25  1  0
 26 24  2  0
M  END
$$$$
