KPQ.pdb
     RDKit          3D

 26 26  0  0  1  0  0  0  0  0999 V2000
   27.4364  -21.4321  -16.1774 N   0  0  0  0  0  0  0  0  0  0  0  0
   27.2106  -20.5084  -15.0090 C   0  0  1  0  0  0  0  0  0  0  0  0
   27.0447  -19.1790  -15.6245 C   0  0  0  0  0  0  0  0  0  0  0  0
   28.1733  -18.4554  -16.2205 C   0  0  0  0  0  0  0  0  0  0  0  0
   28.6870  -18.8597  -17.5501 C   0  0  0  0  0  0  0  0  0  0  0  0
   29.8910  -18.0359  -17.9881 C   0  0  0  0  0  0  0  0  0  0  0  0
   30.4772  -18.5274  -19.1918 N   0  0  0  0  0  0  0  0  0  0  0  0
   26.1407  -21.1112  -14.2582 C   0  0  0  0  0  0  0  0  0  0  0  0
   25.3730  -21.9584  -14.8090 O   0  0  0  0  0  0  0  0  0  0  0  0
   25.8300  -20.8441  -12.8630 N   0  0  0  0  0  0  0  0  0  0  0  0
   26.6238  -19.9987  -12.0061 C   0  0  0  0  0  0  0  0  0  0  0  0
   26.1697  -20.2967  -10.5963 C   0  0  0  0  0  0  0  0  0  0  0  0
   25.2827  -21.5214  -10.7161 C   0  0  0  0  0  0  0  0  0  0  0  0
   24.7408  -21.3503  -12.1066 C   0  0  1  0  0  0  0  0  0  0  0  0
   23.4803  -20.6149  -12.2011 C   0  0  0  0  0  0  0  0  0  0  0  0
   23.5029  -19.3612  -12.1457 O   0  0  0  0  0  0  0  0  0  0  0  0
   20.4788  -20.5758  -16.8975 N   0  0  0  0  0  0  0  0  0  0  0  0
   20.4117  -21.8467  -16.2096 C   0  0  0  0  0  0  0  0  0  0  0  0
   20.2768  -22.8395  -16.9678 O   0  0  0  0  0  0  0  0  0  0  0  0
   20.5007  -21.8954  -14.7370 C   0  0  0  0  0  0  0  0  0  0  0  0
   20.7668  -20.5622  -14.1326 C   0  0  0  0  0  0  0  0  0  0  0  0
   20.9742  -20.6124  -12.6653 C   0  0  2  0  0  0  0  0  0  0  0  0
   22.2480  -21.2789  -12.3548 N   0  0  0  0  0  0  0  0  0  0  0  0
   19.8596  -21.2642  -11.9828 C   0  0  0  0  0  0  0  0  0  0  0  0
   18.6524  -20.5900  -11.6948 O   0  0  0  0  0  0  0  0  0  0  0  0
   19.8634  -22.4680  -11.5920 O   0  0  0  0  0  0  0  0  0  0  0  0
  2  1  1  6
  3  2  1  0
  4  3  1  0
  4  5  1  0
  6  5  1  0
  6  7  1  0
  8  2  1  0
  9  8  2  0
 10  8  1  0
 11 10  1  0
 11 12  1  0
 13 12  1  0
 14 10  1  0
 14 13  1  0
 14 15  1  1
 16 15  2  0
 17 18  1  0
 18 19  2  0
 20 18  1  0
 20 21  1  0
 22 21  1  6
 22 23  1  0
 23 15  1  0
 24 22  1  0
 24 25  1  0
 26 24  2  0
M  END
$$$$
