KPQ.pdb
     RDKit          3D

 26 26  0  0  1  0  0  0  0  0999 V2000
   25.7480  -20.3388  -14.1585 N   0  0  0  0  0  0  0  0  0  0  0  0
   26.3410  -19.2330  -14.9920 C   0  0  1  0  0  0  0  0  0  0  0  0
   26.7821  -19.9064  -16.2271 C   0  0  0  0  0  0  0  0  0  0  0  0
   27.7862  -20.9761  -16.2095 C   0  0  0  0  0  0  0  0  0  0  0  0
   28.1812  -21.6357  -17.4761 C   0  0  0  0  0  0  0  0  0  0  0  0
   29.2025  -22.7458  -17.2646 C   0  0  0  0  0  0  0  0  0  0  0  0
   29.4999  -23.4477  -18.4699 N   0  0  0  0  0  0  0  0  0  0  0  0
   25.3278  -18.2114  -15.0317 C   0  0  0  0  0  0  0  0  0  0  0  0
   24.1177  -18.5028  -14.7838 O   0  0  0  0  0  0  0  0  0  0  0  0
   25.5523  -16.8075  -15.3371 N   0  0  0  0  0  0  0  0  0  0  0  0
   26.8399  -16.2480  -15.6655 C   0  0  0  0  0  0  0  0  0  0  0  0
   26.6844  -14.7507  -15.5384 C   0  0  0  0  0  0  0  0  0  0  0  0
   25.3336  -14.5470  -14.8789 C   0  0  0  0  0  0  0  0  0  0  0  0
   24.5922  -15.7622  -15.3585 C   0  0  1  0  0  0  0  0  0  0  0  0
   23.8422  -15.5877  -16.6017 C   0  0  0  0  0  0  0  0  0  0  0  0
   24.4108  -15.8322  -17.6936 O   0  0  0  0  0  0  0  0  0  0  0  0
   20.2973  -19.6119  -17.0685 N   0  0  0  0  0  0  0  0  0  0  0  0
   19.7217  -18.6087  -16.1993 C   0  0  0  0  0  0  0  0  0  0  0  0
   18.8618  -19.0507  -15.3969 O   0  0  0  0  0  0  0  0  0  0  0  0
   20.1572  -17.2023  -16.3043 C   0  0  0  0  0  0  0  0  0  0  0  0
   21.1303  -16.9825  -17.4080 C   0  0  0  0  0  0  0  0  0  0  0  0
   21.4952  -15.5576  -17.5953 C   0  0  2  0  0  0  0  0  0  0  0  0
   22.5017  -15.1561  -16.6009 N   0  0  0  0  0  0  0  0  0  0  0  0
   20.3242  -14.6868  -17.5394 C   0  0  0  0  0  0  0  0  0  0  0  0
   20.1206  -13.7616  -16.4917 O   0  0  0  0  0  0  0  0  0  0  0  0
   19.3987  -14.6735  -18.4025 O   0  0  0  0  0  0  0  0  0  0  0  0
  2  1  1  1
  3  2  1  0
  4  3  1  0
  4  5  1  0
  6  5  1  0
  6  7  1  0
  8  2  1  0
  9  8  2  0
 10  8  1  0
 11 10  1  0
 11 12  1  0
 13 12  1  0
 14 10  1  0
 14 13  1  0
 14 15  1  6
 16 15  2  0
 17 18  1  0
 18 19  2  0
 20 18  1  0
 20 21  1  0
 22 21  1  1
 22 23  1  0
 23 15  1  0
 24 22  1  0
 24 25  1  0
 26 24  2  0
M  END
$$$$
