KPQ.pdb
     RDKit          3D

 26 26  0  0  1  0  0  0  0  0999 V2000
   22.5063  -14.0531  -18.0672 N   0  0  0  0  0  0  0  0  0  0  0  0
   23.6182  -13.0626  -18.2951 C   0  0  1  0  0  0  0  0  0  0  0  0
   23.5552  -12.7726  -19.7393 C   0  0  0  0  0  0  0  0  0  0  0  0
   24.0453  -13.7247  -20.7422 C   0  0  0  0  0  0  0  0  0  0  0  0
   24.0466  -13.3485  -22.1754 C   0  0  0  0  0  0  0  0  0  0  0  0
   24.5597  -14.4663  -23.0739 C   0  0  0  0  0  0  0  0  0  0  0  0
   24.6319  -14.0734  -24.4430 N   0  0  0  0  0  0  0  0  0  0  0  0
   23.3964  -12.0229  -17.3247 C   0  0  0  0  0  0  0  0  0  0  0  0
   22.2251  -11.7899  -16.8955 O   0  0  0  0  0  0  0  0  0  0  0  0
   24.4229  -11.1684  -16.7496 N   0  0  0  0  0  0  0  0  0  0  0  0
   25.8110  -11.1995  -17.1383 C   0  0  0  0  0  0  0  0  0  0  0  0
   26.5584  -10.4483  -16.0615 C   0  0  0  0  0  0  0  0  0  0  0  0
   25.5471  -10.2369  -14.9508 C   0  0  0  0  0  0  0  0  0  0  0  0
   24.2653  -10.1908  -15.7325 C   0  0  1  0  0  0  0  0  0  0  0  0
   23.8431   -8.8591  -16.1644 C   0  0  0  0  0  0  0  0  0  0  0  0
   24.5293   -8.2528  -17.0229 O   0  0  0  0  0  0  0  0  0  0  0  0
   18.0916   -7.5296  -17.2696 N   0  0  0  0  0  0  0  0  0  0  0  0
   18.5342   -8.1169  -16.0238 C   0  0  0  0  0  0  0  0  0  0  0  0
   17.6386   -8.7349  -15.3956 O   0  0  0  0  0  0  0  0  0  0  0  0
   19.9367   -7.9611  -15.5906 C   0  0  0  0  0  0  0  0  0  0  0  0
   20.7334   -7.1113  -16.5161 C   0  0  0  0  0  0  0  0  0  0  0  0
   22.1484   -6.9563  -16.1012 C   0  0  2  0  0  0  0  0  0  0  0  0
   22.6876   -8.2457  -15.6431 N   0  0  0  0  0  0  0  0  0  0  0  0
   22.3026   -5.9277  -15.0759 C   0  0  0  0  0  0  0  0  0  0  0  0
   22.0041   -4.5688  -15.3189 O   0  0  0  0  0  0  0  0  0  0  0  0
   22.7078   -6.1456  -13.8969 O   0  0  0  0  0  0  0  0  0  0  0  0
  2  1  1  1
  3  2  1  0
  4  3  1  0
  4  5  1  0
  6  5  1  0
  6  7  1  0
  8  2  1  0
  9  8  2  0
 10  8  1  0
 11 10  1  0
 11 12  1  0
 13 12  1  0
 14 10  1  0
 14 13  1  0
 14 15  1  6
 16 15  2  0
 17 18  1  0
 18 19  2  0
 20 18  1  0
 20 21  1  0
 22 21  1  1
 22 23  1  0
 23 15  1  0
 24 22  1  0
 24 25  1  0
 26 24  2  0
M  END
$$$$
