KPQ.pdb
     RDKit          3D

 26 26  0  0  1  0  0  0  0  0999 V2000
   25.5644  -21.8337  -15.6038 N   0  0  0  0  0  0  0  0  0  0  0  0
   25.0021  -20.8141  -14.6480 C   0  0  1  0  0  0  0  0  0  0  0  0
   24.2030  -19.9174  -15.5030 C   0  0  0  0  0  0  0  0  0  0  0  0
   24.8286  -18.9056  -16.3617 C   0  0  0  0  0  0  0  0  0  0  0  0
   24.8562  -19.1016  -17.8301 C   0  0  0  0  0  0  0  0  0  0  0  0
   25.6225  -18.0019  -18.5535 C   0  0  0  0  0  0  0  0  0  0  0  0
   25.5869  -18.1565  -19.9708 N   0  0  0  0  0  0  0  0  0  0  0  0
   24.3793  -21.5850  -13.6042 C   0  0  0  0  0  0  0  0  0  0  0  0
   23.9777  -22.7663  -13.8362 O   0  0  0  0  0  0  0  0  0  0  0  0
   24.1517  -21.1353  -12.2401 N   0  0  0  0  0  0  0  0  0  0  0  0
   24.5492  -19.8432  -11.7386 C   0  0  0  0  0  0  0  0  0  0  0  0
   24.4655  -19.9408  -10.2333 C   0  0  0  0  0  0  0  0  0  0  0  0
   24.2558  -21.4148   -9.9426 C   0  0  0  0  0  0  0  0  0  0  0  0
   23.5326  -21.8536  -11.1839 C   0  0  1  0  0  0  0  0  0  0  0  0
   22.0734  -21.7875  -11.1146 C   0  0  0  0  0  0  0  0  0  0  0  0
   21.4978  -20.7191  -11.4349 O   0  0  0  0  0  0  0  0  0  0  0  0
   18.6245  -24.7144   -6.9206 N   0  0  0  0  0  0  0  0  0  0  0  0
   17.5966  -24.2505   -7.8268 C   0  0  0  0  0  0  0  0  0  0  0  0
   16.4234  -24.4828   -7.4416 O   0  0  0  0  0  0  0  0  0  0  0  0
   17.9705  -23.5693   -9.0817 C   0  0  0  0  0  0  0  0  0  0  0  0
   19.4432  -23.4409   -9.2496 C   0  0  0  0  0  0  0  0  0  0  0  0
   19.8387  -22.8833  -10.5654 C   0  0  2  0  0  0  0  0  0  0  0  0
   21.3031  -22.8915  -10.7011 N   0  0  0  0  0  0  0  0  0  0  0  0
   19.2991  -21.5417  -10.7694 C   0  0  0  0  0  0  0  0  0  0  0  0
   18.3854  -21.2448  -11.8048 O   0  0  0  0  0  0  0  0  0  0  0  0
   19.5881  -20.5366  -10.0566 O   0  0  0  0  0  0  0  0  0  0  0  0
  2  1  1  6
  3  2  1  0
  4  3  1  0
  4  5  1  0
  6  5  1  0
  6  7  1  0
  8  2  1  0
  9  8  2  0
 10  8  1  0
 11 10  1  0
 11 12  1  0
 13 12  1  0
 14 10  1  0
 14 13  1  0
 14 15  1  1
 16 15  2  0
 17 18  1  0
 18 19  2  0
 20 18  1  0
 20 21  1  0
 22 21  1  1
 22 23  1  0
 23 15  1  0
 24 22  1  0
 24 25  1  0
 26 24  2  0
M  END
$$$$
