KPQ.pdb
     RDKit          3D

 26 26  0  0  1  0  0  0  0  0999 V2000
   19.5696  -14.6528  -16.3159 N   0  0  0  0  0  0  0  0  0  0  0  0
   19.2079  -13.4221  -17.1057 C   0  0  1  0  0  0  0  0  0  0  0  0
   17.8785  -13.7277  -17.6651 C   0  0  0  0  0  0  0  0  0  0  0  0
   17.6010  -14.9923  -18.3552 C   0  0  0  0  0  0  0  0  0  0  0  0
   17.0581  -14.9747  -19.7338 C   0  0  0  0  0  0  0  0  0  0  0  0
   16.7824  -16.3725  -20.2725 C   0  0  0  0  0  0  0  0  0  0  0  0
   17.9292  -16.9528  -20.8906 N   0  0  0  0  0  0  0  0  0  0  0  0
   19.3877  -12.3255  -16.1908 C   0  0  0  0  0  0  0  0  0  0  0  0
   19.1393  -12.4777  -14.9556 O   0  0  0  0  0  0  0  0  0  0  0  0
   19.8511  -10.9937  -16.5459 N   0  0  0  0  0  0  0  0  0  0  0  0
   20.2190  -10.5958  -17.8820 C   0  0  0  0  0  0  0  0  0  0  0  0
   20.9739   -9.2957  -17.7328 C   0  0  0  0  0  0  0  0  0  0  0  0
   21.2176   -9.1475  -16.2429 C   0  0  0  0  0  0  0  0  0  0  0  0
   20.0332   -9.8819  -15.6823 C   0  0  1  0  0  0  0  0  0  0  0  0
   18.8541   -9.0585  -15.4178 C   0  0  0  0  0  0  0  0  0  0  0  0
   17.9606   -8.9770  -16.2956 O   0  0  0  0  0  0  0  0  0  0  0  0
   16.4452   -8.7905   -9.7750 N   0  0  0  0  0  0  0  0  0  0  0  0
   15.5915   -7.8475  -10.4643 C   0  0  0  0  0  0  0  0  0  0  0  0
   14.6130   -7.4440   -9.7873 O   0  0  0  0  0  0  0  0  0  0  0  0
   15.9064   -7.4400  -11.8476 C   0  0  0  0  0  0  0  0  0  0  0  0
   17.1218   -8.1111  -12.3822 C   0  0  0  0  0  0  0  0  0  0  0  0
   17.4527   -7.7095  -13.7707 C   0  0  2  0  0  0  0  0  0  0  0  0
   18.6981   -8.3605  -14.2046 N   0  0  0  0  0  0  0  0  0  0  0  0
   17.5424   -6.2583  -13.9079 C   0  0  0  0  0  0  0  0  0  0  0  0
   16.3985   -5.4402  -14.0381 O   0  0  0  0  0  0  0  0  0  0  0  0
   18.6263   -5.6052  -13.9226 O   0  0  0  0  0  0  0  0  0  0  0  0
  2  1  1  1
  3  2  1  0
  4  3  1  0
  4  5  1  0
  6  5  1  0
  6  7  1  0
  8  2  1  0
  9  8  2  0
 10  8  1  0
 11 10  1  0
 11 12  1  0
 13 12  1  0
 14 10  1  0
 14 13  1  0
 14 15  1  6
 16 15  2  0
 17 18  1  0
 18 19  2  0
 20 18  1  0
 20 21  1  0
 22 21  1  1
 22 23  1  0
 23 15  1  0
 24 22  1  0
 24 25  1  0
 26 24  2  0
M  END
$$$$
