KPQ.pdb
     RDKit          3D

 26 26  0  0  1  0  0  0  0  0999 V2000
   28.3615  -23.3097  -18.5819 N   0  0  0  0  0  0  0  0  0  0  0  0
   27.8404  -21.9025  -18.4495 C   0  0  1  0  0  0  0  0  0  0  0  0
   26.6823  -21.8572  -19.3608 C   0  0  0  0  0  0  0  0  0  0  0  0
   26.8255  -22.0670  -20.8058 C   0  0  0  0  0  0  0  0  0  0  0  0
   26.8102  -23.4432  -21.3548 C   0  0  0  0  0  0  0  0  0  0  0  0
   26.8358  -23.4666  -22.8775 C   0  0  0  0  0  0  0  0  0  0  0  0
   26.7857  -24.7920  -23.4017 N   0  0  0  0  0  0  0  0  0  0  0  0
   27.6728  -21.6983  -17.0346 C   0  0  0  0  0  0  0  0  0  0  0  0
   27.6768  -22.6894  -16.2420 O   0  0  0  0  0  0  0  0  0  0  0  0
   27.4939  -20.4122  -16.3799 N   0  0  0  0  0  0  0  0  0  0  0  0
   27.3553  -19.1606  -17.0821 C   0  0  0  0  0  0  0  0  0  0  0  0
   27.5679  -18.0806  -16.0472 C   0  0  0  0  0  0  0  0  0  0  0  0
   28.0804  -18.8055  -14.8172 C   0  0  0  0  0  0  0  0  0  0  0  0
   27.4353  -20.1515  -14.9858 C   0  0  1  0  0  0  0  0  0  0  0  0
   26.1293  -20.3043  -14.3456 C   0  0  0  0  0  0  0  0  0  0  0  0
   25.0972  -19.9964  -14.9900 O   0  0  0  0  0  0  0  0  0  0  0  0
   25.1956  -20.2902   -8.1282 N   0  0  0  0  0  0  0  0  0  0  0  0
   23.9171  -20.7680   -8.6078 C   0  0  0  0  0  0  0  0  0  0  0  0
   23.0667  -20.9671   -7.7046 O   0  0  0  0  0  0  0  0  0  0  0  0
   23.7027  -20.9812  -10.0526 C   0  0  0  0  0  0  0  0  0  0  0  0
   24.9416  -20.7860  -10.8527 C   0  0  0  0  0  0  0  0  0  0  0  0
   24.7291  -20.9379  -12.3123 C   0  0  2  0  0  0  0  0  0  0  0  0
   26.0045  -20.7895  -13.0295 N   0  0  0  0  0  0  0  0  0  0  0  0
   23.7307  -19.9980  -12.8150 C   0  0  0  0  0  0  0  0  0  0  0  0
   22.3978  -20.3825  -13.0801 O   0  0  0  0  0  0  0  0  0  0  0  0
   23.9539  -18.7758  -13.0562 O   0  0  0  0  0  0  0  0  0  0  0  0
  2  1  1  1
  3  2  1  0
  4  3  1  0
  4  5  1  0
  6  5  1  0
  6  7  1  0
  8  2  1  0
  9  8  2  0
 10  8  1  0
 11 10  1  0
 11 12  1  0
 13 12  1  0
 14 10  1  0
 14 13  1  0
 14 15  1  6
 16 15  2  0
 17 18  1  0
 18 19  2  0
 20 18  1  0
 20 21  1  0
 22 21  1  1
 22 23  1  0
 23 15  1  0
 24 22  1  0
 24 25  1  0
 26 24  2  0
M  END
$$$$
