NCW.pdb
     RDKit          3D

 29 30  0  0  1  0  0  0  0  0999 V2000
   25.5683  -18.4976  -18.3717 N   0  0  0  0  0  0  0  0  0  0  0  0
   26.2931  -17.4569  -17.7286 C   0  0  0  0  0  0  0  0  0  0  0  0
   26.1317  -16.2891  -18.1653 O   0  0  0  0  0  0  0  0  0  0  0  0
   27.2075  -17.6566  -16.5999 C   0  0  0  0  0  0  0  0  0  0  0  0
   27.3125  -19.1055  -16.1804 C   0  0  2  0  0  0  0  0  0  0  0  0
   26.9120  -19.9488  -17.2976 N   0  0  0  0  0  0  0  0  0  0  0  0
   26.2955  -19.3031  -15.0984 C   0  0  0  0  0  0  0  0  0  0  0  0
   25.3706  -18.4634  -14.8843 O   0  0  0  0  0  0  0  0  0  0  0  0
   26.3143  -20.4462  -14.2528 N   0  0  0  0  0  0  0  0  0  0  0  0
   25.3327  -20.5884  -13.1560 C   0  0  1  0  0  0  0  0  0  0  0  0
   24.3885  -21.7290  -13.4913 C   0  0  0  0  0  0  0  0  0  0  0  0
   25.2601  -23.2270  -13.9325 S   0  0  0  0  0  0  0  0  0  0  0  0
   26.0519  -20.7518  -11.8932 C   0  0  0  0  0  0  0  0  0  0  0  0
   27.0220  -21.5900  -11.8459 O   0  0  0  0  0  0  0  0  0  0  0  0
   25.7904  -20.0732  -10.6992 N   0  0  0  0  0  0  0  0  0  0  0  0
   26.1643  -20.6248   -9.3810 C   0  0  1  0  0  0  0  0  0  0  0  0
   27.0772  -19.6522   -8.7199 C   0  0  0  0  0  0  0  0  0  0  0  0
   27.9922  -20.2086   -7.7154 C   0  0  0  0  0  0  0  0  0  0  0  0
   28.7938  -21.3339   -7.9344 C   0  0  0  0  0  0  0  0  0  0  0  0
   29.5251  -21.5563   -6.8368 N   0  0  0  0  0  0  0  0  0  0  0  0
   29.2514  -20.6408   -5.9034 C   0  0  0  0  0  0  0  0  0  0  0  0
   29.7438  -20.4753   -4.6368 C   0  0  0  0  0  0  0  0  0  0  0  0
   29.2640  -19.4302   -3.8820 C   0  0  0  0  0  0  0  0  0  0  0  0
   28.3163  -18.5900   -4.4086 C   0  0  0  0  0  0  0  0  0  0  0  0
   27.8146  -18.7464   -5.6798 C   0  0  0  0  0  0  0  0  0  0  0  0
   28.2968  -19.8003   -6.4472 C   0  0  0  0  0  0  0  0  0  0  0  0
   25.0096  -21.0935   -8.6252 C   0  0  0  0  0  0  0  0  0  0  0  0
   23.6859  -20.8592   -8.9429 O   0  0  0  0  0  0  0  0  0  0  0  0
   25.2225  -21.7789   -7.5724 O   0  0  0  0  0  0  0  0  0  0  0  0
  1  2  1  0
  2  4  1  0
  3  2  2  0
  4  5  1  0
  5  6  1  6
  7  8  2  0
  7  5  1  0
  9  7  1  0
 10 11  1  6
 10  9  1  0
 11 12  1  0
 13 10  1  0
 14 13  2  0
 15 13  1  0
 16 15  1  0
 16 17  1  1
 18 17  1  0
 19 18  2  0
 20 19  1  0
 21 20  1  0
 21 26  2  0
 22 23  2  0
 22 21  1  0
 23 24  1  0
 24 25  2  0
 26 25  1  0
 26 18  1  0
 27 16  1  0
 27 28  1  0
 29 27  2  0
M  END
$$$$
