NCW.pdb
     RDKit          3D

 29 30  0  0  1  0  0  0  0  0999 V2000
   21.3037  -18.6851  -15.6818 N   0  0  0  0  0  0  0  0  0  0  0  0
   21.3665  -19.3157  -14.4088 C   0  0  0  0  0  0  0  0  0  0  0  0
   22.4088  -19.1364  -13.7292 O   0  0  0  0  0  0  0  0  0  0  0  0
   20.3038  -20.1533  -13.8438 C   0  0  0  0  0  0  0  0  0  0  0  0
   19.1687  -20.3927  -14.8135 C   0  0  2  0  0  0  0  0  0  0  0  0
   18.0759  -19.4863  -14.4914 N   0  0  0  0  0  0  0  0  0  0  0  0
   18.6758  -21.7820  -14.5468 C   0  0  0  0  0  0  0  0  0  0  0  0
   18.2644  -22.1408  -13.4029 O   0  0  0  0  0  0  0  0  0  0  0  0
   18.6433  -22.7735  -15.5656 N   0  0  0  0  0  0  0  0  0  0  0  0
   18.0721  -24.1109  -15.2976 C   0  0  1  0  0  0  0  0  0  0  0  0
   16.7364  -24.2226  -16.0107 C   0  0  0  0  0  0  0  0  0  0  0  0
   15.4709  -23.2156  -15.2473 S   0  0  0  0  0  0  0  0  0  0  0  0
   19.0482  -25.1299  -15.6815 C   0  0  0  0  0  0  0  0  0  0  0  0
   19.7857  -24.9141  -16.7089 O   0  0  0  0  0  0  0  0  0  0  0  0
   19.2719  -26.3470  -15.0311 N   0  0  0  0  0  0  0  0  0  0  0  0
   20.2272  -27.3505  -15.5431 C   0  0  1  0  0  0  0  0  0  0  0  0
   20.5510  -28.2843  -14.4298 C   0  0  0  0  0  0  0  0  0  0  0  0
   21.4083  -29.4252  -14.7752 C   0  0  0  0  0  0  0  0  0  0  0  0
   22.7978  -29.4284  -14.6146 C   0  0  0  0  0  0  0  0  0  0  0  0
   23.2678  -30.6220  -14.9932 N   0  0  0  0  0  0  0  0  0  0  0  0
   22.2662  -31.4086  -15.3961 C   0  0  0  0  0  0  0  0  0  0  0  0
   22.2684  -32.6931  -15.8697 C   0  0  0  0  0  0  0  0  0  0  0  0
   21.0660  -33.2591  -16.2247 C   0  0  0  0  0  0  0  0  0  0  0  0
   19.9089  -32.5335  -16.0981 C   0  0  0  0  0  0  0  0  0  0  0  0
   19.8947  -31.2426  -15.6233 C   0  0  0  0  0  0  0  0  0  0  0  0
   21.1068  -30.6660  -15.2621 C   0  0  0  0  0  0  0  0  0  0  0  0
   19.8019  -27.9284  -16.8117 C   0  0  0  0  0  0  0  0  0  0  0  0
   18.5120  -28.2981  -17.1397 O   0  0  0  0  0  0  0  0  0  0  0  0
   20.6871  -28.1200  -17.7079 O   0  0  0  0  0  0  0  0  0  0  0  0
  1  2  1  0
  2  4  1  0
  3  2  2  0
  4  5  1  0
  5  6  1  1
  7  8  2  0
  7  5  1  0
  9  7  1  0
 10 11  1  6
 10  9  1  0
 11 12  1  0
 13 10  1  0
 14 13  2  0
 15 13  1  0
 16 15  1  0
 16 17  1  1
 18 17  1  0
 19 18  2  0
 20 19  1  0
 21 20  1  0
 21 26  2  0
 22 23  2  0
 22 21  1  0
 23 24  1  0
 24 25  2  0
 26 25  1  0
 26 18  1  0
 27 16  1  0
 27 28  1  0
 29 27  2  0
M  END
$$$$
