NCW.pdb
     RDKit          3D

 29 30  0  0  1  0  0  0  0  0999 V2000
   29.6987  -21.1972  -16.7388 N   0  0  0  0  0  0  0  0  0  0  0  0
   28.6681  -20.2629  -17.0336 C   0  0  0  0  0  0  0  0  0  0  0  0
   28.6267  -19.8025  -18.2027 O   0  0  0  0  0  0  0  0  0  0  0  0
   27.6607  -19.8066  -16.0708 C   0  0  0  0  0  0  0  0  0  0  0  0
   26.5207  -20.7862  -15.9072 C   0  0  2  0  0  0  0  0  0  0  0  0
   25.6368  -20.6758  -17.0588 N   0  0  0  0  0  0  0  0  0  0  0  0
   25.7411  -20.3263  -14.7135 C   0  0  0  0  0  0  0  0  0  0  0  0
   24.7645  -19.5250  -14.8170 O   0  0  0  0  0  0  0  0  0  0  0  0
   26.0565  -20.7658  -13.3984 N   0  0  0  0  0  0  0  0  0  0  0  0
   25.0981  -20.5722  -12.2890 C   0  0  1  0  0  0  0  0  0  0  0  0
   23.8872  -21.4555  -12.5308 C   0  0  0  0  0  0  0  0  0  0  0  0
   24.3314  -23.1734  -12.7535 S   0  0  0  0  0  0  0  0  0  0  0  0
   25.7829  -20.8207  -11.0210 C   0  0  0  0  0  0  0  0  0  0  0  0
   26.3693  -21.9495  -10.8536 O   0  0  0  0  0  0  0  0  0  0  0  0
   25.8714  -19.9361   -9.9421 N   0  0  0  0  0  0  0  0  0  0  0  0
   26.4425  -20.3359   -8.6398 C   0  0  1  0  0  0  0  0  0  0  0  0
   27.3648  -19.2560   -8.1934 C   0  0  0  0  0  0  0  0  0  0  0  0
   27.6682  -19.2214   -6.7572 C   0  0  0  0  0  0  0  0  0  0  0  0
   26.9491  -18.4595   -5.8303 C   0  0  0  0  0  0  0  0  0  0  0  0
   27.4604  -18.6750   -4.6133 N   0  0  0  0  0  0  0  0  0  0  0  0
   28.4786  -19.5368   -4.6837 C   0  0  0  0  0  0  0  0  0  0  0  0
   29.2966  -20.0414   -3.7088 C   0  0  0  0  0  0  0  0  0  0  0  0
   30.2869  -20.9213   -4.0794 C   0  0  0  0  0  0  0  0  0  0  0  0
   30.4299  -21.2677   -5.3988 C   0  0  0  0  0  0  0  0  0  0  0  0
   29.6138  -20.7674   -6.3866 C   0  0  0  0  0  0  0  0  0  0  0  0
   28.6109  -19.8786   -6.0176 C   0  0  0  0  0  0  0  0  0  0  0  0
   25.4246  -20.7903   -7.7009 C   0  0  0  0  0  0  0  0  0  0  0  0
   24.0841  -20.4589   -7.7387 O   0  0  0  0  0  0  0  0  0  0  0  0
   25.7873  -21.5593   -6.7519 O   0  0  0  0  0  0  0  0  0  0  0  0
  1  2  1  0
  2  4  1  0
  3  2  2  0
  4  5  1  0
  5  6  1  6
  7  8  2  0
  7  5  1  0
  9  7  1  0
 10 11  1  6
 10  9  1  0
 11 12  1  0
 13 10  1  0
 14 13  2  0
 15 13  1  0
 16 15  1  0
 16 17  1  1
 18 17  1  0
 19 18  2  0
 20 19  1  0
 21 20  1  0
 21 26  2  0
 22 23  2  0
 22 21  1  0
 23 24  1  0
 24 25  2  0
 26 25  1  0
 26 18  1  0
 27 16  1  0
 27 28  1  0
 29 27  2  0
M  END
$$$$
