NCW.pdb
     RDKit          3D

 29 30  0  0  1  0  0  0  0  0999 V2000
   23.2486  -18.2564  -18.0400 N   0  0  0  0  0  0  0  0  0  0  0  0
   22.8284  -18.6341  -16.7351 C   0  0  0  0  0  0  0  0  0  0  0  0
   21.7890  -18.0885  -16.2854 O   0  0  0  0  0  0  0  0  0  0  0  0
   23.5230  -19.6096  -15.8889 C   0  0  0  0  0  0  0  0  0  0  0  0
   23.8107  -19.0819  -14.5015 C   0  0  2  0  0  0  0  0  0  0  0  0
   24.6235  -17.8793  -14.6150 N   0  0  0  0  0  0  0  0  0  0  0  0
   24.6565  -20.1176  -13.8264 C   0  0  0  0  0  0  0  0  0  0  0  0
   24.3480  -21.3470  -13.8352 O   0  0  0  0  0  0  0  0  0  0  0  0
   25.8531  -19.7752  -13.1385 N   0  0  0  0  0  0  0  0  0  0  0  0
   26.6398  -20.8102  -12.4339 C   0  0  1  0  0  0  0  0  0  0  0  0
   28.0668  -20.7743  -12.9508 C   0  0  0  0  0  0  0  0  0  0  0  0
   28.5732  -19.1298  -13.4381 S   0  0  0  0  0  0  0  0  0  0  0  0
   26.5150  -20.6019  -10.9918 C   0  0  0  0  0  0  0  0  0  0  0  0
   26.7586  -19.4343  -10.5192 O   0  0  0  0  0  0  0  0  0  0  0  0
   26.1471  -21.5639  -10.0464 N   0  0  0  0  0  0  0  0  0  0  0  0
   26.0077  -21.2452   -8.6108 C   0  0  1  0  0  0  0  0  0  0  0  0
   26.2665  -19.7893   -8.4379 C   0  0  0  0  0  0  0  0  0  0  0  0
   27.3197  -19.4322   -7.4792 C   0  0  0  0  0  0  0  0  0  0  0  0
   28.2510  -18.4108   -7.6942 C   0  0  0  0  0  0  0  0  0  0  0  0
   29.0462  -18.3265   -6.6220 N   0  0  0  0  0  0  0  0  0  0  0  0
   28.6930  -19.2360   -5.7097 C   0  0  0  0  0  0  0  0  0  0  0  0
   29.2165  -19.5213   -4.4773 C   0  0  0  0  0  0  0  0  0  0  0  0
   28.6459  -20.5370   -3.7457 C   0  0  0  0  0  0  0  0  0  0  0  0
   27.5807  -21.2307   -4.2609 C   0  0  0  0  0  0  0  0  0  0  0  0
   27.0463  -20.9526   -5.4975 C   0  0  0  0  0  0  0  0  0  0  0  0
   27.6185  -19.9266   -6.2406 C   0  0  0  0  0  0  0  0  0  0  0  0
   24.7847  -21.7902   -8.0352 C   0  0  0  0  0  0  0  0  0  0  0  0
   24.7013  -22.5500   -6.8846 O   0  0  0  0  0  0  0  0  0  0  0  0
   23.6857  -21.5576   -8.6365 O   0  0  0  0  0  0  0  0  0  0  0  0
  1  2  1  0
  2  4  1  0
  3  2  2  0
  4  5  1  0
  5  6  1  6
  7  8  2  0
  7  5  1  0
  9  7  1  0
 10 11  1  6
 10  9  1  0
 11 12  1  0
 13 10  1  0
 14 13  2  0
 15 13  1  0
 16 15  1  0
 16 17  1  6
 18 17  1  0
 19 18  2  0
 20 19  1  0
 21 20  1  0
 21 26  2  0
 22 23  2  0
 22 21  1  0
 23 24  1  0
 24 25  2  0
 26 25  1  0
 26 18  1  0
 27 16  1  0
 27 28  1  0
 29 27  2  0
M  END
$$$$
