NCW.pdb
     RDKit          3D

 29 30  0  0  1  0  0  0  0  0999 V2000
   37.2565  -12.1191  -17.6236 N   0  0  0  0  0  0  0  0  0  0  0  0
   35.9672  -12.2516  -18.2087 C   0  0  0  0  0  0  0  0  0  0  0  0
   35.8596  -13.0253  -19.1937 O   0  0  0  0  0  0  0  0  0  0  0  0
   34.7672  -11.5504  -17.7413 C   0  0  0  0  0  0  0  0  0  0  0  0
   33.5651  -11.7931  -18.6257 C   0  0  2  0  0  0  0  0  0  0  0  0
   33.7168  -11.0177  -19.8486 N   0  0  0  0  0  0  0  0  0  0  0  0
   32.3861  -11.2279  -17.8946 C   0  0  0  0  0  0  0  0  0  0  0  0
   32.0308  -11.6599  -16.7572 O   0  0  0  0  0  0  0  0  0  0  0  0
   31.6019  -10.1742  -18.4394 N   0  0  0  0  0  0  0  0  0  0  0  0
   30.4015   -9.6832  -17.7289 C   0  0  1  0  0  0  0  0  0  0  0  0
   30.5438   -8.1881  -17.5066 C   0  0  0  0  0  0  0  0  0  0  0  0
   30.7339   -7.2870  -19.0396 S   0  0  0  0  0  0  0  0  0  0  0  0
   29.2108  -10.0703  -18.4845 C   0  0  0  0  0  0  0  0  0  0  0  0
   29.2751  -10.0775  -19.7658 O   0  0  0  0  0  0  0  0  0  0  0  0
   27.9761  -10.4453  -17.9465 N   0  0  0  0  0  0  0  0  0  0  0  0
   26.8128  -10.7721  -18.7960 C   0  0  1  0  0  0  0  0  0  0  0  0
   26.7127  -12.2548  -18.8846 C   0  0  0  0  0  0  0  0  0  0  0  0
   26.5302  -12.9648  -17.6123 C   0  0  0  0  0  0  0  0  0  0  0  0
   25.5307  -12.6515  -16.6851 C   0  0  0  0  0  0  0  0  0  0  0  0
   25.6222  -13.5015  -15.6565 N   0  0  0  0  0  0  0  0  0  0  0  0
   26.6272  -14.3594  -15.8513 C   0  0  0  0  0  0  0  0  0  0  0  0
   27.0941  -15.3863  -15.0755 C   0  0  0  0  0  0  0  0  0  0  0  0
   28.1711  -16.1104  -15.5314 C   0  0  0  0  0  0  0  0  0  0  0  0
   28.7446  -15.7911  -16.7357 C   0  0  0  0  0  0  0  0  0  0  0  0
   28.2839  -14.7620  -17.5236 C   0  0  0  0  0  0  0  0  0  0  0  0
   27.1951  -14.0276  -17.0682 C   0  0  0  0  0  0  0  0  0  0  0  0
   25.6170  -10.0329  -18.4117 C   0  0  0  0  0  0  0  0  0  0  0  0
   25.3532   -9.5173  -17.1576 O   0  0  0  0  0  0  0  0  0  0  0  0
   24.7230   -9.8394  -19.2988 O   0  0  0  0  0  0  0  0  0  0  0  0
  1  2  1  0
  2  4  1  0
  3  2  2  0
  4  5  1  0
  5  6  1  6
  7  8  2  0
  7  5  1  0
  9  7  1  0
 10 11  1  6
 10  9  1  0
 11 12  1  0
 13 10  1  0
 14 13  2  0
 15 13  1  0
 16 15  1  0
 16 17  1  1
 18 17  1  0
 19 18  2  0
 20 19  1  0
 21 20  1  0
 21 26  2  0
 22 23  2  0
 22 21  1  0
 23 24  1  0
 24 25  2  0
 26 25  1  0
 26 18  1  0
 27 16  1  0
 27 28  1  0
 29 27  2  0
M  END
$$$$
