DHR.pdb
     RDKit          3D

 30 30  0  0  1  0  0  0  0  0999 V2000
   11.4624  -15.3289   15.6506 N   0  0  0  0  0  0  0  0  0  0  0  0
   11.7772  -16.3750   16.5998 C   0  0  1  0  0  0  0  0  0  0  0  0
   13.2451  -16.7182   16.4193 C   0  0  0  0  0  0  0  0  0  0  0  0
   13.4934  -17.3357   15.0909 C   0  0  0  0  0  0  0  0  0  0  0  0
   14.6894  -17.4411   14.7272 O   0  0  0  0  0  0  0  0  0  0  0  0
   11.5941  -15.9002   17.9743 C   0  0  0  0  0  0  0  0  0  0  0  0
   12.3518  -14.9546   18.3818 O   0  0  0  0  0  0  0  0  0  0  0  0
   12.5026  -17.7868   14.2599 O   0  0  0  0  0  0  0  0  0  0  0  0
   10.6234  -16.4338   18.8715 N   0  0  0  0  0  0  0  0  0  0  0  0
   10.4620  -15.8556   20.1617 C   0  0  1  0  0  0  0  0  0  0  0  0
    9.0136  -15.7011   20.5707 C   0  0  0  0  0  0  0  0  0  0  0  0
    8.2743  -14.7928   19.6752 C   0  0  0  0  0  0  0  0  0  0  0  0
    7.4065  -15.0759   18.6427 C   0  0  0  0  0  0  0  0  0  0  0  0
    6.9634  -13.9057   18.0973 N   0  0  0  0  0  0  0  0  0  0  0  0
    7.5414  -12.9171   18.7739 C   0  0  0  0  0  0  0  0  0  0  0  0
    8.3392  -13.4503   19.7340 N   0  0  0  0  0  0  0  0  0  0  0  0
   11.1373  -16.6243   21.2378 C   0  0  0  0  0  0  0  0  0  0  0  0
   10.9967  -17.8775   21.2609 O   0  0  0  0  0  0  0  0  0  0  0  0
   16.9224  -15.8362   18.6696 N   0  0  0  0  0  0  0  0  0  0  0  0
   16.6611  -14.6266   19.3734 C   0  0  0  0  0  0  0  0  0  0  0  0
   17.1454  -13.5139   18.9529 N   0  0  0  0  0  0  0  0  0  0  0  0
   15.8657  -14.6197   20.5472 N   0  0  0  0  0  0  0  0  0  0  0  0
   15.4854  -15.8954   21.1471 C   0  0  0  0  0  0  0  0  0  0  0  0
   14.6186  -15.7247   22.3375 C   0  0  0  0  0  0  0  0  0  0  0  0
   14.0262  -16.8610   23.0388 C   0  0  0  0  0  0  0  0  0  0  0  0
   12.5812  -16.8892   23.3173 C   0  0  2  0  0  0  0  0  0  0  0  0
   11.9261  -16.0366   22.2351 N   0  0  0  0  0  0  0  0  0  0  0  0
   12.0984  -16.3227   24.5720 C   0  0  0  0  0  0  0  0  0  0  0  0
   11.3668  -15.3312   24.7251 O   0  0  0  0  0  0  0  0  0  0  0  0
   12.4865  -16.9488   25.7838 O   0  0  0  0  0  0  0  0  0  0  0  0
  2  1  1  6
  2  3  1  0
  4  3  1  0
  4  5  2  0
  6  2  1  0
  6  7  2  0
  8  4  1  0
  9  6  1  0
 10  9  1  0
 11 12  1  0
 10 11  1  1
 12 13  2  0
 12 16  1  0
 13 14  1  0
 14 15  1  0
 16 15  2  0
 17 10  1  0
 18 17  2  0
 19 20  1  0
 20 21  2  0
 22 20  1  0
 23 22  1  0
 24 23  1  0
 25 24  1  0
 26 25  1  1
 26 27  1  0
 27 17  1  0
 28 26  1  0
 29 28  2  0
 30 28  1  0
M  END
$$$$
