DHR.pdb
     RDKit          3D

 30 30  0  0  1  0  0  0  0  0999 V2000
   12.1799  -18.0113   14.5919 N   0  0  0  0  0  0  0  0  0  0  0  0
   11.3505  -17.1143   15.3678 C   0  0  1  0  0  0  0  0  0  0  0  0
   10.0256  -16.9836   14.6378 C   0  0  0  0  0  0  0  0  0  0  0  0
   10.1784  -16.2047   13.3818 C   0  0  0  0  0  0  0  0  0  0  0  0
   11.3491  -15.9546   13.0065 O   0  0  0  0  0  0  0  0  0  0  0  0
   11.0777  -17.6769   16.6935 C   0  0  0  0  0  0  0  0  0  0  0  0
   10.2801  -17.0345   17.4586 O   0  0  0  0  0  0  0  0  0  0  0  0
    9.1272  -15.7550   12.6280 O   0  0  0  0  0  0  0  0  0  0  0  0
   11.6510  -18.8923   17.1688 N   0  0  0  0  0  0  0  0  0  0  0  0
   11.4668  -19.2756   18.5267 C   0  0  1  0  0  0  0  0  0  0  0  0
   12.0155  -20.6503   18.8397 C   0  0  0  0  0  0  0  0  0  0  0  0
   11.2155  -21.7245   18.2236 C   0  0  0  0  0  0  0  0  0  0  0  0
    9.8550  -21.8149   18.0230 C   0  0  0  0  0  0  0  0  0  0  0  0
    9.5710  -23.0015   17.4112 N   0  0  0  0  0  0  0  0  0  0  0  0
   10.7269  -23.6354   17.2349 C   0  0  0  0  0  0  0  0  0  0  0  0
   11.7298  -22.8640   17.7267 N   0  0  0  0  0  0  0  0  0  0  0  0
   12.0849  -18.3315   19.4919 C   0  0  0  0  0  0  0  0  0  0  0  0
   13.1362  -17.7242   19.1501 O   0  0  0  0  0  0  0  0  0  0  0  0
    7.2221  -13.1422   18.3151 N   0  0  0  0  0  0  0  0  0  0  0  0
    7.4777  -13.2171   19.7137 C   0  0  0  0  0  0  0  0  0  0  0  0
    7.0904  -12.2745   20.4952 N   0  0  0  0  0  0  0  0  0  0  0  0
    8.1610  -14.3256   20.2746 N   0  0  0  0  0  0  0  0  0  0  0  0
    9.6109  -14.2527   20.4317 C   0  0  0  0  0  0  0  0  0  0  0  0
   10.1912  -15.5246   20.9247 C   0  0  0  0  0  0  0  0  0  0  0  0
   11.6289  -15.7042   21.1102 C   0  0  0  0  0  0  0  0  0  0  0  0
   12.1554  -16.9715   21.6424 C   0  0  2  0  0  0  0  0  0  0  0  0
   11.5665  -18.0737   20.7675 N   0  0  0  0  0  0  0  0  0  0  0  0
   11.8050  -17.3588   23.0046 C   0  0  0  0  0  0  0  0  0  0  0  0
   11.9018  -16.6750   24.0365 O   0  0  0  0  0  0  0  0  0  0  0  0
   11.2882  -18.6618   23.2194 O   0  0  0  0  0  0  0  0  0  0  0  0
  2  1  1  6
  2  3  1  0
  4  3  1  0
  4  5  2  0
  6  2  1  0
  6  7  2  0
  8  4  1  0
  9  6  1  0
 10  9  1  0
 11 12  1  0
 10 11  1  6
 12 13  2  0
 12 16  1  0
 13 14  1  0
 14 15  1  0
 16 15  2  0
 17 10  1  0
 18 17  2  0
 19 20  1  0
 20 21  2  0
 22 20  1  0
 23 22  1  0
 24 23  1  0
 25 24  1  0
 26 25  1  6
 26 27  1  0
 27 17  1  0
 28 26  1  0
 29 28  2  0
 30 28  1  0
M  END
$$$$
