DHR.pdb
     RDKit          3D

 30 30  0  0  1  0  0  0  0  0999 V2000
   10.8987  -16.8791   20.4398 N   0  0  0  0  0  0  0  0  0  0  0  0
    9.6778  -17.1239   21.1774 C   0  0  1  0  0  0  0  0  0  0  0  0
    9.7523  -18.5436   21.7104 C   0  0  0  0  0  0  0  0  0  0  0  0
    9.6051  -19.5373   20.6157 C   0  0  0  0  0  0  0  0  0  0  0  0
    9.5286  -19.0885   19.4466 O   0  0  0  0  0  0  0  0  0  0  0  0
    9.5757  -16.2191   22.3260 C   0  0  0  0  0  0  0  0  0  0  0  0
   10.6443  -15.9689   22.9817 O   0  0  0  0  0  0  0  0  0  0  0  0
    9.5497  -20.8912   20.8140 O   0  0  0  0  0  0  0  0  0  0  0  0
    8.3573  -15.6095   22.7453 N   0  0  0  0  0  0  0  0  0  0  0  0
    8.3433  -14.7859   23.9056 C   0  0  1  0  0  0  0  0  0  0  0  0
    7.1116  -13.9130   24.0044 C   0  0  0  0  0  0  0  0  0  0  0  0
    7.0809  -13.1298   25.2531 C   0  0  0  0  0  0  0  0  0  0  0  0
    6.0833  -12.9990   26.1950 C   0  0  0  0  0  0  0  0  0  0  0  0
    6.5110  -12.1639   27.1863 N   0  0  0  0  0  0  0  0  0  0  0  0
    7.7456  -11.7835   26.8697 C   0  0  0  0  0  0  0  0  0  0  0  0
    8.0972  -12.3674   25.6958 N   0  0  0  0  0  0  0  0  0  0  0  0
    8.4327  -15.5554   25.1724 C   0  0  0  0  0  0  0  0  0  0  0  0
    7.6334  -16.5145   25.3514 O   0  0  0  0  0  0  0  0  0  0  0  0
   12.6484  -21.2154   29.3444 N   0  0  0  0  0  0  0  0  0  0  0  0
   12.2364  -20.0168   29.9929 C   0  0  0  0  0  0  0  0  0  0  0  0
   12.3612  -19.8918   31.2650 N   0  0  0  0  0  0  0  0  0  0  0  0
   11.6823  -18.9393   29.2565 N   0  0  0  0  0  0  0  0  0  0  0  0
   11.5582  -19.0674   27.8073 C   0  0  0  0  0  0  0  0  0  0  0  0
   11.0724  -17.8209   27.1687 C   0  0  0  0  0  0  0  0  0  0  0  0
    9.6690  -17.4181   27.2151 C   0  0  0  0  0  0  0  0  0  0  0  0
    9.3072  -16.0236   27.5166 C   0  0  2  0  0  0  0  0  0  0  0  0
    9.3578  -15.2776   26.1870 N   0  0  0  0  0  0  0  0  0  0  0  0
   10.1716  -15.2516   28.4027 C   0  0  0  0  0  0  0  0  0  0  0  0
   10.9200  -14.3081   28.1001 O   0  0  0  0  0  0  0  0  0  0  0  0
   10.1883  -15.5851   29.7810 O   0  0  0  0  0  0  0  0  0  0  0  0
  2  1  1  1
  2  3  1  0
  4  3  1  0
  4  5  2  0
  6  2  1  0
  6  7  2  0
  8  4  1  0
  9  6  1  0
 10  9  1  0
 11 12  1  0
 10 11  1  1
 12 13  2  0
 12 16  1  0
 13 14  1  0
 14 15  1  0
 16 15  2  0
 17 10  1  0
 18 17  2  0
 19 20  1  0
 20 21  2  0
 22 20  1  0
 23 22  1  0
 24 23  1  0
 25 24  1  0
 26 25  1  6
 26 27  1  0
 27 17  1  0
 28 26  1  0
 29 28  2  0
 30 28  1  0
M  END
$$$$
