DHR.pdb
     RDKit          3D

 30 30  0  0  1  0  0  0  0  0999 V2000
   14.9123  -13.5419   18.0275 N   0  0  0  0  0  0  0  0  0  0  0  0
   14.3915  -14.8662   18.2909 C   0  0  1  0  0  0  0  0  0  0  0  0
   15.5480  -15.7115   18.7940 C   0  0  0  0  0  0  0  0  0  0  0  0
   16.5811  -15.8903   17.7413 C   0  0  0  0  0  0  0  0  0  0  0  0
   16.1846  -16.2746   16.6147 O   0  0  0  0  0  0  0  0  0  0  0  0
   13.3757  -14.8233   19.3466 C   0  0  0  0  0  0  0  0  0  0  0  0
   13.6426  -14.1508   20.4006 O   0  0  0  0  0  0  0  0  0  0  0  0
   17.9175  -15.6614   17.9343 O   0  0  0  0  0  0  0  0  0  0  0  0
   12.1172  -15.4869   19.2591 N   0  0  0  0  0  0  0  0  0  0  0  0
   11.1723  -15.3496   20.3142 C   0  0  1  0  0  0  0  0  0  0  0  0
    9.7504  -15.6372   19.8847 C   0  0  0  0  0  0  0  0  0  0  0  0
    9.0461  -14.4224   19.4357 C   0  0  0  0  0  0  0  0  0  0  0  0
    9.4905  -13.1210   19.3441 C   0  0  0  0  0  0  0  0  0  0  0  0
    8.4788  -12.3351   18.8730 N   0  0  0  0  0  0  0  0  0  0  0  0
    7.4292  -13.1278   18.6758 C   0  0  0  0  0  0  0  0  0  0  0  0
    7.7681  -14.3975   19.0160 N   0  0  0  0  0  0  0  0  0  0  0  0
   11.4601  -16.2266   21.4774 C   0  0  0  0  0  0  0  0  0  0  0  0
   12.2938  -17.1621   21.3337 O   0  0  0  0  0  0  0  0  0  0  0  0
    9.8477  -14.9476   30.0717 N   0  0  0  0  0  0  0  0  0  0  0  0
   10.4731  -14.2996   28.9690 C   0  0  0  0  0  0  0  0  0  0  0  0
   10.6743  -13.0313   28.9911 N   0  0  0  0  0  0  0  0  0  0  0  0
   10.8862  -15.0322   27.8276 N   0  0  0  0  0  0  0  0  0  0  0  0
   10.4140  -16.4040   27.6628 C   0  0  0  0  0  0  0  0  0  0  0  0
   10.8924  -17.0194   26.4019 C   0  0  0  0  0  0  0  0  0  0  0  0
   10.7572  -16.3520   25.1095 C   0  0  0  0  0  0  0  0  0  0  0  0
   11.1798  -17.0334   23.8752 C   0  0  2  0  0  0  0  0  0  0  0  0
   10.8570  -16.0756   22.7326 N   0  0  0  0  0  0  0  0  0  0  0  0
   10.5221  -18.2815   23.5036 C   0  0  0  0  0  0  0  0  0  0  0  0
    9.4991  -18.4242   22.8145 O   0  0  0  0  0  0  0  0  0  0  0  0
   11.0860  -19.4991   23.9624 O   0  0  0  0  0  0  0  0  0  0  0  0
  2  1  1  1
  2  3  1  0
  4  3  1  0
  4  5  2  0
  6  2  1  0
  6  7  2  0
  8  4  1  0
  9  6  1  0
 10  9  1  0
 11 12  1  0
 10 11  1  6
 12 13  2  0
 12 16  1  0
 13 14  1  0
 14 15  1  0
 16 15  2  0
 17 10  1  0
 18 17  2  0
 19 20  1  0
 20 21  2  0
 22 20  1  0
 23 22  1  0
 24 23  1  0
 25 24  1  0
 26 25  1  1
 26 27  1  0
 27 17  1  0
 28 26  1  0
 29 28  2  0
 30 28  1  0
M  END
$$$$
