DHR.pdb
     RDKit          3D

 30 30  0  0  1  0  0  0  0  0999 V2000
   10.7863  -18.5237   17.3241 N   0  0  0  0  0  0  0  0  0  0  0  0
   11.8228  -17.7149   17.9291 C   0  0  1  0  0  0  0  0  0  0  0  0
   12.2651  -16.7006   16.8894 C   0  0  0  0  0  0  0  0  0  0  0  0
   12.9458  -17.3635   15.7472 C   0  0  0  0  0  0  0  0  0  0  0  0
   12.2893  -18.2272   15.1172 O   0  0  0  0  0  0  0  0  0  0  0  0
   11.2978  -16.9759   19.0808 C   0  0  0  0  0  0  0  0  0  0  0  0
   12.0901  -16.1730   19.6824 O   0  0  0  0  0  0  0  0  0  0  0  0
   14.2281  -17.0851   15.3550 O   0  0  0  0  0  0  0  0  0  0  0  0
    9.9616  -17.1055   19.5598 N   0  0  0  0  0  0  0  0  0  0  0  0
    9.5784  -16.4553   20.7661 C   0  0  1  0  0  0  0  0  0  0  0  0
    8.1272  -16.0277   20.7801 C   0  0  0  0  0  0  0  0  0  0  0  0
    7.8765  -14.8740   19.8971 C   0  0  0  0  0  0  0  0  0  0  0  0
    8.7533  -14.1306   19.1369 C   0  0  0  0  0  0  0  0  0  0  0  0
    8.0599  -13.1558   18.4796 N   0  0  0  0  0  0  0  0  0  0  0  0
    6.7815  -13.2886   18.8222 C   0  0  0  0  0  0  0  0  0  0  0  0
    6.6641  -14.3312   19.6835 N   0  0  0  0  0  0  0  0  0  0  0  0
    9.7973  -17.2875   21.9763 C   0  0  0  0  0  0  0  0  0  0  0  0
    9.9498  -18.5311   21.8317 O   0  0  0  0  0  0  0  0  0  0  0  0
   17.4981  -16.7151   23.2506 N   0  0  0  0  0  0  0  0  0  0  0  0
   17.1528  -17.4259   24.4349 C   0  0  0  0  0  0  0  0  0  0  0  0
   18.0690  -17.9447   25.1703 N   0  0  0  0  0  0  0  0  0  0  0  0
   15.7994  -17.5777   24.8294 N   0  0  0  0  0  0  0  0  0  0  0  0
   14.7480  -17.1007   23.9355 C   0  0  0  0  0  0  0  0  0  0  0  0
   13.3925  -17.4691   24.4091 C   0  0  0  0  0  0  0  0  0  0  0  0
   12.1836  -17.0863   23.6839 C   0  0  0  0  0  0  0  0  0  0  0  0
   10.8583  -17.2933   24.2900 C   0  0  2  0  0  0  0  0  0  0  0  0
    9.8447  -16.7700   23.2772 N   0  0  0  0  0  0  0  0  0  0  0  0
   10.5362  -16.5903   25.5271 C   0  0  0  0  0  0  0  0  0  0  0  0
    9.9223  -15.5184   25.6530 O   0  0  0  0  0  0  0  0  0  0  0  0
   10.9549  -17.1656   26.7539 O   0  0  0  0  0  0  0  0  0  0  0  0
  2  1  1  6
  2  3  1  0
  4  3  1  0
  4  5  2  0
  6  2  1  0
  6  7  2  0
  8  4  1  0
  9  6  1  0
 10  9  1  0
 11 12  1  0
 10 11  1  6
 12 13  2  0
 12 16  1  0
 13 14  1  0
 14 15  1  0
 16 15  2  0
 17 10  1  0
 18 17  2  0
 19 20  1  0
 20 21  2  0
 22 20  1  0
 23 22  1  0
 24 23  1  0
 25 24  1  0
 26 25  1  6
 26 27  1  0
 27 17  1  0
 28 26  1  0
 29 28  2  0
 30 28  1  0
M  END
$$$$
