DHR.pdb
     RDKit          3D

 30 30  0  0  1  0  0  0  0  0999 V2000
   13.2434  -17.2168   16.6465 N   0  0  0  0  0  0  0  0  0  0  0  0
   11.8113  -17.0842   16.8075 C   0  0  1  0  0  0  0  0  0  0  0  0
   11.1592  -18.0672   15.8518 C   0  0  0  0  0  0  0  0  0  0  0  0
   11.4095  -17.6882   14.4371 C   0  0  0  0  0  0  0  0  0  0  0  0
   12.2054  -16.7398   14.2347 O   0  0  0  0  0  0  0  0  0  0  0  0
   11.4068  -17.4476   18.1686 C   0  0  0  0  0  0  0  0  0  0  0  0
   10.1614  -17.3943   18.4522 O   0  0  0  0  0  0  0  0  0  0  0  0
   10.8270  -18.3091   13.3644 O   0  0  0  0  0  0  0  0  0  0  0  0
   12.3226  -17.8535   19.1828 N   0  0  0  0  0  0  0  0  0  0  0  0
   11.8431  -18.1460   20.4902 C   0  0  1  0  0  0  0  0  0  0  0  0
   12.8443  -18.8973   21.3401 C   0  0  0  0  0  0  0  0  0  0  0  0
   12.9673  -20.3108   20.9397 C   0  0  0  0  0  0  0  0  0  0  0  0
   12.0071  -21.1955   20.4983 C   0  0  0  0  0  0  0  0  0  0  0  0
   12.5931  -22.4019   20.2451 N   0  0  0  0  0  0  0  0  0  0  0  0
   13.8875  -22.2721   20.5223 C   0  0  0  0  0  0  0  0  0  0  0  0
   14.1207  -21.0034   20.9448 N   0  0  0  0  0  0  0  0  0  0  0  0
   11.4468  -16.9360   21.2542 C   0  0  0  0  0  0  0  0  0  0  0  0
   12.2366  -15.9529   21.2761 O   0  0  0  0  0  0  0  0  0  0  0  0
    7.8773  -14.7218   17.9399 N   0  0  0  0  0  0  0  0  0  0  0  0
    7.8407  -13.3152   18.1569 C   0  0  0  0  0  0  0  0  0  0  0  0
    8.1187  -12.5040   17.2009 N   0  0  0  0  0  0  0  0  0  0  0  0
    7.4990  -12.7787   19.4241 N   0  0  0  0  0  0  0  0  0  0  0  0
    7.2994  -13.6930   20.5450 C   0  0  0  0  0  0  0  0  0  0  0  0
    8.5788  -14.1973   21.0984 C   0  0  0  0  0  0  0  0  0  0  0  0
    8.6303  -15.0747   22.2652 C   0  0  0  0  0  0  0  0  0  0  0  0
    9.9237  -15.5673   22.7662 C   0  0  2  0  0  0  0  0  0  0  0  0
   10.2402  -16.8208   21.9564 N   0  0  0  0  0  0  0  0  0  0  0  0
   10.0188  -15.9963   24.1573 C   0  0  0  0  0  0  0  0  0  0  0  0
    9.9514  -15.2891   25.1757 O   0  0  0  0  0  0  0  0  0  0  0  0
   10.2100  -17.3763   24.4219 O   0  0  0  0  0  0  0  0  0  0  0  0
  2  1  1  1
  2  3  1  0
  4  3  1  0
  4  5  2  0
  6  2  1  0
  6  7  2  0
  8  4  1  0
  9  6  1  0
 10  9  1  0
 11 12  1  0
 10 11  1  1
 12 13  2  0
 12 16  1  0
 13 14  1  0
 14 15  1  0
 16 15  2  0
 17 10  1  0
 18 17  2  0
 19 20  1  0
 20 21  2  0
 22 20  1  0
 23 22  1  0
 24 23  1  0
 25 24  1  0
 26 25  1  6
 26 27  1  0
 27 17  1  0
 28 26  1  0
 29 28  2  0
 30 28  1  0
M  END
$$$$
