DHR.pdb
     RDKit          3D

 30 30  0  0  1  0  0  0  0  0999 V2000
    9.6496  -17.8280   19.2905 N   0  0  0  0  0  0  0  0  0  0  0  0
    9.4368  -18.9789   20.1418 C   0  0  1  0  0  0  0  0  0  0  0  0
    8.9604  -20.1133   19.2523 C   0  0  0  0  0  0  0  0  0  0  0  0
    8.3020  -19.5944   18.0256 C   0  0  0  0  0  0  0  0  0  0  0  0
    8.2622  -18.3484   17.8850 O   0  0  0  0  0  0  0  0  0  0  0  0
   10.6930  -19.3990   20.7692 C   0  0  0  0  0  0  0  0  0  0  0  0
   10.7088  -20.5279   21.3689 O   0  0  0  0  0  0  0  0  0  0  0  0
    7.7474  -20.3914   17.0598 O   0  0  0  0  0  0  0  0  0  0  0  0
   11.8868  -18.6205   20.7451 N   0  0  0  0  0  0  0  0  0  0  0  0
   13.0236  -19.0490   21.4861 C   0  0  1  0  0  0  0  0  0  0  0  0
   14.3288  -18.5081   20.9449 C   0  0  0  0  0  0  0  0  0  0  0  0
   14.6483  -19.0510   19.6120 C   0  0  0  0  0  0  0  0  0  0  0  0
   14.6199  -20.3499   19.1521 C   0  0  0  0  0  0  0  0  0  0  0  0
   14.9986  -20.3684   17.8408 N   0  0  0  0  0  0  0  0  0  0  0  0
   15.2569  -19.1111   17.4921 C   0  0  0  0  0  0  0  0  0  0  0  0
   15.0457  -18.3061   18.5645 N   0  0  0  0  0  0  0  0  0  0  0  0
   12.9620  -18.6771   22.9224 C   0  0  0  0  0  0  0  0  0  0  0  0
   12.5870  -17.5119   23.2266 O   0  0  0  0  0  0  0  0  0  0  0  0
   10.7555  -24.0571   29.1931 N   0  0  0  0  0  0  0  0  0  0  0  0
   11.2168  -22.9605   29.9752 C   0  0  0  0  0  0  0  0  0  0  0  0
   11.1775  -23.0165   31.2577 N   0  0  0  0  0  0  0  0  0  0  0  0
   11.7274  -21.7880   29.3628 N   0  0  0  0  0  0  0  0  0  0  0  0
   11.1898  -21.3790   28.0682 C   0  0  0  0  0  0  0  0  0  0  0  0
   11.9890  -20.3006   27.4390 C   0  0  0  0  0  0  0  0  0  0  0  0
   12.2944  -20.2900   26.0106 C   0  0  0  0  0  0  0  0  0  0  0  0
   13.0374  -19.1654   25.4194 C   0  0  2  0  0  0  0  0  0  0  0  0
   13.2978  -19.5491   23.9661 N   0  0  0  0  0  0  0  0  0  0  0  0
   14.3551  -18.8384   25.9534 C   0  0  0  0  0  0  0  0  0  0  0  0
   15.4623  -19.1303   25.4731 O   0  0  0  0  0  0  0  0  0  0  0  0
   14.4244  -18.0999   27.1621 O   0  0  0  0  0  0  0  0  0  0  0  0
  2  1  1  6
  2  3  1  0
  4  3  1  0
  4  5  2  0
  6  2  1  0
  6  7  2  0
  8  4  1  0
  9  6  1  0
 10  9  1  0
 11 12  1  0
 10 11  1  6
 12 13  2  0
 12 16  1  0
 13 14  1  0
 14 15  1  0
 16 15  2  0
 17 10  1  0
 18 17  2  0
 19 20  1  0
 20 21  2  0
 22 20  1  0
 23 22  1  0
 24 23  1  0
 25 24  1  0
 26 25  1  1
 26 27  1  0
 27 17  1  0
 28 26  1  0
 29 28  2  0
 30 28  1  0
M  END
$$$$
