CEP.pdb
     RDKit          3D

 23 23  0  0  1  0  0  0  0  0999 V2000
    7.4521  -14.9098   19.0150 N   0  0  0  0  0  0  0  0  0  0  0  0
    8.4925  -14.9248   20.0287 C   0  0  1  0  0  0  0  0  0  0  0  0
    9.4362  -13.7496   19.9162 C   0  0  0  0  0  0  0  0  0  0  0  0
    8.5672  -12.1706   20.0098 S   0  0  0  0  0  0  0  0  0  0  0  0
    7.8508  -14.8776   21.3591 C   0  0  0  0  0  0  0  0  0  0  0  0
    6.6072  -14.6053   21.4860 O   0  0  0  0  0  0  0  0  0  0  0  0
    8.6239  -15.1370   22.5212 N   0  0  0  0  0  0  0  0  0  0  0  0
    8.0492  -15.1824   23.8636 C   0  0  1  0  0  0  0  0  0  0  0  0
    6.9633  -16.2026   23.9475 C   0  0  0  0  0  0  0  0  0  0  0  0
    7.4999  -17.5515   23.4776 C   0  0  0  0  0  0  0  0  0  0  0  0
    6.8288  -18.5831   24.2861 C   0  0  0  0  0  0  0  0  0  0  0  0
    5.9079  -18.2040   25.0761 O   0  0  0  0  0  0  0  0  0  0  0  0
    9.1016  -15.3756   24.8912 C   0  0  0  0  0  0  0  0  0  0  0  0
   10.1183  -16.0402   24.4975 O   0  0  0  0  0  0  0  0  0  0  0  0
    7.1537  -19.9408   24.2232 O   0  0  0  0  0  0  0  0  0  0  0  0
    9.0713  -14.8974   26.2066 N   0  0  0  0  0  0  0  0  0  0  0  0
    7.9652  -14.3503   26.9390 C   0  0  0  0  0  0  0  0  0  0  0  0
    8.5899  -13.4375   28.0081 C   0  0  0  0  0  0  0  0  0  0  0  0
   10.0287  -13.3948   27.5666 C   0  0  0  0  0  0  0  0  0  0  0  0
   10.2121  -14.8535   27.1112 C   0  0  1  0  0  0  0  0  0  0  0  0
   10.0453  -15.7331   28.2852 C   0  0  0  0  0  0  0  0  0  0  0  0
    8.9215  -16.5700   28.3081 O   0  0  0  0  0  0  0  0  0  0  0  0
   10.8312  -15.7914   29.2666 O   0  0  0  0  0  0  0  0  0  0  0  0
  2  5  1  0
  2  1  1  6
  2  3  1  0
  4  3  1  0
  5  6  2  0
  7  8  1  0
  7  5  1  0
  8 13  1  0
  8  9  1  6
 10  9  1  0
 10 11  1  0
 11 15  1  0
 11 12  2  0
 13 14  2  0
 13 16  1  0
 16 20  1  0
 16 17  1  0
 17 18  1  0
 19 18  1  0
 20 19  1  0
 21 22  1  0
 20 21  1  1
 23 21  2  0
M  END
$$$$
