CEP.pdb
     RDKit          3D

 23 23  0  0  1  0  0  0  0  0999 V2000
    6.2263  -15.8572   20.1112 N   0  0  0  0  0  0  0  0  0  0  0  0
    7.3072  -15.1522   20.7783 C   0  0  1  0  0  0  0  0  0  0  0  0
    7.3530  -13.6832   20.4259 C   0  0  0  0  0  0  0  0  0  0  0  0
    9.0365  -13.1130   20.1132 S   0  0  0  0  0  0  0  0  0  0  0  0
    7.1136  -15.2722   22.2385 C   0  0  0  0  0  0  0  0  0  0  0  0
    6.0778  -14.7875   22.8120 O   0  0  0  0  0  0  0  0  0  0  0  0
    8.0924  -15.9354   23.0243 N   0  0  0  0  0  0  0  0  0  0  0  0
    7.9187  -16.2023   24.4502 C   0  0  1  0  0  0  0  0  0  0  0  0
    7.6011  -17.6404   24.6914 C   0  0  0  0  0  0  0  0  0  0  0  0
    7.4474  -17.8793   26.1906 C   0  0  0  0  0  0  0  0  0  0  0  0
    7.1614  -19.3129   26.3674 C   0  0  0  0  0  0  0  0  0  0  0  0
    7.5127  -20.1018   25.4346 O   0  0  0  0  0  0  0  0  0  0  0  0
    9.0897  -15.7323   25.2302 C   0  0  0  0  0  0  0  0  0  0  0  0
   10.2178  -15.9023   24.6568 O   0  0  0  0  0  0  0  0  0  0  0  0
    6.5314  -19.8371   27.4992 O   0  0  0  0  0  0  0  0  0  0  0  0
    9.0548  -15.1328   26.4948 N   0  0  0  0  0  0  0  0  0  0  0  0
    7.9274  -14.9144   27.3554 C   0  0  0  0  0  0  0  0  0  0  0  0
    8.3101  -13.7151   28.2396 C   0  0  0  0  0  0  0  0  0  0  0  0
    9.5688  -13.2334   27.5684 C   0  0  0  0  0  0  0  0  0  0  0  0
   10.2071  -14.5837   27.1965 C   0  0  1  0  0  0  0  0  0  0  0  0
   10.5180  -15.3116   28.4428 C   0  0  0  0  0  0  0  0  0  0  0  0
    9.7773  -16.4699   28.7137 O   0  0  0  0  0  0  0  0  0  0  0  0
   11.3946  -14.9751   29.2811 O   0  0  0  0  0  0  0  0  0  0  0  0
  2  5  1  0
  2  1  1  6
  2  3  1  0
  4  3  1  0
  5  6  2  0
  7  8  1  0
  7  5  1  0
  8 13  1  0
  8  9  1  6
 10  9  1  0
 10 11  1  0
 11 15  1  0
 11 12  2  0
 13 14  2  0
 13 16  1  0
 16 20  1  0
 16 17  1  0
 17 18  1  0
 19 18  1  0
 20 19  1  0
 21 22  1  0
 20 21  1  1
 23 21  2  0
M  END
$$$$
