CEP.pdb
     RDKit          3D

 23 23  0  0  1  0  0  0  0  0999 V2000
    7.3195  -15.8605   18.8414 N   0  0  0  0  0  0  0  0  0  0  0  0
    7.9667  -14.9404   19.7605 C   0  0  1  0  0  0  0  0  0  0  0  0
    7.8325  -13.4965   19.3345 C   0  0  0  0  0  0  0  0  0  0  0  0
    8.4865  -12.3600   20.5746 S   0  0  0  0  0  0  0  0  0  0  0  0
    7.3415  -15.0905   21.0911 C   0  0  0  0  0  0  0  0  0  0  0  0
    6.0740  -15.2092   21.2185 O   0  0  0  0  0  0  0  0  0  0  0  0
    8.1573  -15.1027   22.2529 N   0  0  0  0  0  0  0  0  0  0  0  0
    7.6370  -15.3987   23.5856 C   0  0  1  0  0  0  0  0  0  0  0  0
    7.5506  -16.8712   23.8123 C   0  0  0  0  0  0  0  0  0  0  0  0
    6.9525  -17.1359   25.1909 C   0  0  0  0  0  0  0  0  0  0  0  0
    6.8985  -18.5977   25.3594 C   0  0  0  0  0  0  0  0  0  0  0  0
    6.1450  -19.2527   24.5725 O   0  0  0  0  0  0  0  0  0  0  0  0
    8.4195  -14.6994   24.6342 C   0  0  0  0  0  0  0  0  0  0  0  0
    9.6798  -14.6707   24.4316 O   0  0  0  0  0  0  0  0  0  0  0  0
    7.6292  -19.2869   26.3309 O   0  0  0  0  0  0  0  0  0  0  0  0
    7.9024  -14.0852   25.7810 N   0  0  0  0  0  0  0  0  0  0  0  0
    6.5360  -13.9820   26.2070 C   0  0  0  0  0  0  0  0  0  0  0  0
    6.4762  -12.7311   27.1005 C   0  0  0  0  0  0  0  0  0  0  0  0
    7.8309  -12.1206   26.8577 C   0  0  0  0  0  0  0  0  0  0  0  0
    8.6910  -13.3953   26.7928 C   0  0  1  0  0  0  0  0  0  0  0  0
    8.6392  -14.0604   28.1100 C   0  0  0  0  0  0  0  0  0  0  0  0
    9.4520  -13.5403   29.1262 O   0  0  0  0  0  0  0  0  0  0  0  0
    7.9238  -15.0566   28.3930 O   0  0  0  0  0  0  0  0  0  0  0  0
  2  5  1  0
  2  1  1  6
  2  3  1  0
  4  3  1  0
  5  6  2  0
  7  8  1  0
  7  5  1  0
  8 13  1  0
  8  9  1  1
 10  9  1  0
 10 11  1  0
 11 15  1  0
 11 12  2  0
 13 14  2  0
 13 16  1  0
 16 20  1  0
 16 17  1  0
 17 18  1  0
 19 18  1  0
 20 19  1  0
 21 22  1  0
 20 21  1  1
 23 21  2  0
M  END
$$$$
