CEP.pdb
     RDKit          3D

 23 23  0  0  1  0  0  0  0  0999 V2000
    7.3154  -14.9253   18.6665 N   0  0  0  0  0  0  0  0  0  0  0  0
    8.3167  -14.8585   19.7167 C   0  0  1  0  0  0  0  0  0  0  0  0
    9.1063  -13.5700   19.6915 C   0  0  0  0  0  0  0  0  0  0  0  0
    8.0356  -12.1176   19.7313 S   0  0  0  0  0  0  0  0  0  0  0  0
    7.6325  -14.9567   21.0230 C   0  0  0  0  0  0  0  0  0  0  0  0
    6.4424  -14.5153   21.1828 O   0  0  0  0  0  0  0  0  0  0  0  0
    8.3038  -15.5496   22.1244 N   0  0  0  0  0  0  0  0  0  0  0  0
    7.7070  -15.6580   23.4535 C   0  0  1  0  0  0  0  0  0  0  0  0
    7.4966  -17.0863   23.8317 C   0  0  0  0  0  0  0  0  0  0  0  0
    7.0132  -17.1603   25.2770 C   0  0  0  0  0  0  0  0  0  0  0  0
    6.8223  -18.5862   25.5909 C   0  0  0  0  0  0  0  0  0  0  0  0
    7.5107  -19.0764   26.5406 O   0  0  0  0  0  0  0  0  0  0  0  0
    8.4971  -14.9063   24.4591 C   0  0  0  0  0  0  0  0  0  0  0  0
    9.7608  -14.9377   24.2790 O   0  0  0  0  0  0  0  0  0  0  0  0
    5.9300  -19.4121   24.9021 O   0  0  0  0  0  0  0  0  0  0  0  0
    7.9842  -14.1862   25.5444 N   0  0  0  0  0  0  0  0  0  0  0  0
    6.6144  -13.9242   25.8828 C   0  0  0  0  0  0  0  0  0  0  0  0
    6.6357  -12.6303   26.7147 C   0  0  0  0  0  0  0  0  0  0  0  0
    8.0576  -12.1728   26.5268 C   0  0  0  0  0  0  0  0  0  0  0  0
    8.7831  -13.5295   26.5702 C   0  0  1  0  0  0  0  0  0  0  0  0
    8.5901  -14.1190   27.9100 C   0  0  0  0  0  0  0  0  0  0  0  0
    7.7208  -15.2133   28.0128 O   0  0  0  0  0  0  0  0  0  0  0  0
    9.1436  -13.7174   28.9668 O   0  0  0  0  0  0  0  0  0  0  0  0
  2  5  1  0
  2  1  1  6
  2  3  1  0
  4  3  1  0
  5  6  2  0
  7  8  1  0
  7  5  1  0
  8 13  1  0
  8  9  1  1
 10  9  1  0
 10 11  1  0
 11 15  1  0
 11 12  2  0
 13 14  2  0
 13 16  1  0
 16 20  1  0
 16 17  1  0
 17 18  1  0
 19 18  1  0
 20 19  1  0
 21 22  1  0
 20 21  1  1
 23 21  2  0
M  END
$$$$
