CEP.pdb
     RDKit          3D

 23 23  0  0  1  0  0  0  0  0999 V2000
    7.1993  -16.4879   19.4901 N   0  0  0  0  0  0  0  0  0  0  0  0
    7.9086  -15.4518   20.2207 C   0  0  1  0  0  0  0  0  0  0  0  0
    7.7792  -14.0898   19.5786 C   0  0  0  0  0  0  0  0  0  0  0  0
    8.5518  -12.7957   20.5714 S   0  0  0  0  0  0  0  0  0  0  0  0
    7.3488  -15.3750   21.5863 C   0  0  0  0  0  0  0  0  0  0  0  0
    6.0917  -15.2384   21.7807 O   0  0  0  0  0  0  0  0  0  0  0  0
    8.2174  -15.4522   22.7065 N   0  0  0  0  0  0  0  0  0  0  0  0
    7.7349  -15.4767   24.0854 C   0  0  1  0  0  0  0  0  0  0  0  0
    6.8415  -16.6489   24.3198 C   0  0  0  0  0  0  0  0  0  0  0  0
    7.6450  -17.9363   24.1607 C   0  0  0  0  0  0  0  0  0  0  0  0
    7.1315  -18.8866   25.1614 C   0  0  0  0  0  0  0  0  0  0  0  0
    7.1204  -18.5122   26.3762 O   0  0  0  0  0  0  0  0  0  0  0  0
    8.8609  -15.4088   25.0487 C   0  0  0  0  0  0  0  0  0  0  0  0
    9.9413  -15.9594   24.6488 O   0  0  0  0  0  0  0  0  0  0  0  0
    6.6612  -20.1625   24.8394 O   0  0  0  0  0  0  0  0  0  0  0  0
    8.8344  -14.8043   26.3111 N   0  0  0  0  0  0  0  0  0  0  0  0
    7.7126  -14.2687   27.0281 C   0  0  0  0  0  0  0  0  0  0  0  0
    8.2980  -13.2096   27.9779 C   0  0  0  0  0  0  0  0  0  0  0  0
    9.7150  -13.1063   27.4798 C   0  0  0  0  0  0  0  0  0  0  0  0
    9.9957  -14.5861   27.1629 C   0  0  1  0  0  0  0  0  0  0  0  0
    9.9329  -15.3529   28.4230 C   0  0  0  0  0  0  0  0  0  0  0  0
   10.9782  -15.1730   29.3389 O   0  0  0  0  0  0  0  0  0  0  0  0
    9.0162  -16.1549   28.7402 O   0  0  0  0  0  0  0  0  0  0  0  0
  2  5  1  0
  2  1  1  6
  2  3  1  0
  4  3  1  0
  5  6  2  0
  7  8  1  0
  7  5  1  0
  8 13  1  0
  8  9  1  1
 10  9  1  0
 10 11  1  0
 11 15  1  0
 11 12  2  0
 13 14  2  0
 13 16  1  0
 16 20  1  0
 16 17  1  0
 17 18  1  0
 19 18  1  0
 20 19  1  0
 21 22  1  0
 20 21  1  1
 23 21  2  0
M  END
$$$$
