CEP.pdb
     RDKit          3D

 23 23  0  0  1  0  0  0  0  0999 V2000
   10.3399  -15.6867   19.0236 N   0  0  0  0  0  0  0  0  0  0  0  0
   10.6503  -15.9051   20.4258 C   0  0  1  0  0  0  0  0  0  0  0  0
   12.0057  -15.3625   20.8166 C   0  0  0  0  0  0  0  0  0  0  0  0
   12.4421  -15.7871   22.5156 S   0  0  0  0  0  0  0  0  0  0  0  0
    9.6254  -15.2237   21.2439 C   0  0  0  0  0  0  0  0  0  0  0  0
    9.2692  -14.0208   20.9934 O   0  0  0  0  0  0  0  0  0  0  0  0
    9.0226  -15.9113   22.3298 N   0  0  0  0  0  0  0  0  0  0  0  0
    7.9931  -15.3124   23.1760 C   0  0  1  0  0  0  0  0  0  0  0  0
    6.8205  -16.2242   23.3201 C   0  0  0  0  0  0  0  0  0  0  0  0
    7.2942  -17.5779   23.8411 C   0  0  0  0  0  0  0  0  0  0  0  0
    6.0899  -18.3967   24.0589 C   0  0  0  0  0  0  0  0  0  0  0  0
    5.7508  -18.6354   25.2606 O   0  0  0  0  0  0  0  0  0  0  0  0
    8.5538  -14.8844   24.4810 C   0  0  0  0  0  0  0  0  0  0  0  0
    9.7999  -15.1190   24.6309 O   0  0  0  0  0  0  0  0  0  0  0  0
    5.3138  -18.9143   23.0185 O   0  0  0  0  0  0  0  0  0  0  0  0
    7.8513  -14.2600   25.5185 N   0  0  0  0  0  0  0  0  0  0  0  0
    6.4449  -13.9930   25.6186 C   0  0  0  0  0  0  0  0  0  0  0  0
    6.3206  -12.7885   26.5674 C   0  0  0  0  0  0  0  0  0  0  0  0
    7.7568  -12.3560   26.6975 C   0  0  0  0  0  0  0  0  0  0  0  0
    8.4476  -13.7308   26.7376 C   0  0  1  0  0  0  0  0  0  0  0  0
    7.9982  -14.4433   27.9501 C   0  0  0  0  0  0  0  0  0  0  0  0
    7.1333  -15.5318   27.7738 O   0  0  0  0  0  0  0  0  0  0  0  0
    8.3295  -14.1516   29.1288 O   0  0  0  0  0  0  0  0  0  0  0  0
  2  5  1  0
  2  1  1  6
  2  3  1  0
  4  3  1  0
  5  6  2  0
  7  8  1  0
  7  5  1  0
  8 13  1  0
  8  9  1  1
 10  9  1  0
 10 11  1  0
 11 15  1  0
 11 12  2  0
 13 14  2  0
 13 16  1  0
 16 20  1  0
 16 17  1  0
 17 18  1  0
 19 18  1  0
 20 19  1  0
 21 22  1  0
 20 21  1  1
 23 21  2  0
M  END
$$$$
