CEP.pdb
     RDKit          3D

 23 23  0  0  1  0  0  0  0  0999 V2000
    6.1017  -16.3723   19.7943 N   0  0  0  0  0  0  0  0  0  0  0  0
    7.2128  -15.7233   20.4684 C   0  0  1  0  0  0  0  0  0  0  0  0
    7.4794  -14.3295   19.9485 C   0  0  0  0  0  0  0  0  0  0  0  0
    8.8455  -13.5314   20.8169 S   0  0  0  0  0  0  0  0  0  0  0  0
    6.8952  -15.6274   21.9086 C   0  0  0  0  0  0  0  0  0  0  0  0
    5.8608  -14.9961   22.3187 O   0  0  0  0  0  0  0  0  0  0  0  0
    7.7508  -16.2441   22.8588 N   0  0  0  0  0  0  0  0  0  0  0  0
    7.5018  -16.2005   24.2978 C   0  0  1  0  0  0  0  0  0  0  0  0
    7.6960  -17.5448   24.9162 C   0  0  0  0  0  0  0  0  0  0  0  0
    7.4172  -17.4570   26.4138 C   0  0  0  0  0  0  0  0  0  0  0  0
    7.6474  -18.8007   26.9704 C   0  0  0  0  0  0  0  0  0  0  0  0
    6.6284  -19.4710   27.3287 O   0  0  0  0  0  0  0  0  0  0  0  0
    8.3126  -15.1436   24.9506 C   0  0  0  0  0  0  0  0  0  0  0  0
    9.4393  -14.9140   24.3954 O   0  0  0  0  0  0  0  0  0  0  0  0
    8.9176  -19.3639   27.1188 O   0  0  0  0  0  0  0  0  0  0  0  0
    7.9492  -14.4013   26.0804 N   0  0  0  0  0  0  0  0  0  0  0  0
    6.7075  -14.4087   26.7998 C   0  0  0  0  0  0  0  0  0  0  0  0
    6.6172  -13.0321   27.4804 C   0  0  0  0  0  0  0  0  0  0  0  0
    7.7598  -12.2977   26.8310 C   0  0  0  0  0  0  0  0  0  0  0  0
    8.7988  -13.4309   26.7573 C   0  0  1  0  0  0  0  0  0  0  0  0
    9.1452  -13.8361   28.1341 C   0  0  0  0  0  0  0  0  0  0  0  0
   10.0113  -13.0008   28.8525 O   0  0  0  0  0  0  0  0  0  0  0  0
    8.7251  -14.8713   28.7140 O   0  0  0  0  0  0  0  0  0  0  0  0
  2  5  1  0
  2  1  1  6
  2  3  1  0
  4  3  1  0
  5  6  2  0
  7  8  1  0
  7  5  1  0
  8 13  1  0
  8  9  1  1
 10  9  1  0
 10 11  1  0
 11 15  1  0
 11 12  2  0
 13 14  2  0
 13 16  1  0
 16 20  1  0
 16 17  1  0
 17 18  1  0
 19 18  1  0
 20 19  1  0
 21 22  1  0
 20 21  1  1
 23 21  2  0
M  END
$$$$
