CEP.pdb
     RDKit          3D

 23 23  0  0  1  0  0  0  0  0999 V2000
    7.6481  -15.6401   18.8811 N   0  0  0  0  0  0  0  0  0  0  0  0
    8.5423  -15.1750   19.9272 C   0  0  1  0  0  0  0  0  0  0  0  0
    9.1538  -13.8279   19.6182 C   0  0  0  0  0  0  0  0  0  0  0  0
    7.9011  -12.5859   19.2369 S   0  0  0  0  0  0  0  0  0  0  0  0
    7.7725  -15.0570   21.1831 C   0  0  0  0  0  0  0  0  0  0  0  0
    6.5956  -14.5553   21.1947 O   0  0  0  0  0  0  0  0  0  0  0  0
    8.3448  -15.5057   22.4023 N   0  0  0  0  0  0  0  0  0  0  0  0
    7.6378  -15.4497   23.6796 C   0  0  1  0  0  0  0  0  0  0  0  0
    7.3761  -16.8207   24.2078 C   0  0  0  0  0  0  0  0  0  0  0  0
    6.5792  -17.6155   23.1775 C   0  0  0  0  0  0  0  0  0  0  0  0
    6.3388  -18.9471   23.7584 C   0  0  0  0  0  0  0  0  0  0  0  0
    6.1670  -19.0176   25.0160 O   0  0  0  0  0  0  0  0  0  0  0  0
    8.3522  -14.5850   24.6505 C   0  0  0  0  0  0  0  0  0  0  0  0
    9.5844  -14.3844   24.3828 O   0  0  0  0  0  0  0  0  0  0  0  0
    6.2904  -20.1194   22.9993 O   0  0  0  0  0  0  0  0  0  0  0  0
    7.7995  -13.9883   25.7899 N   0  0  0  0  0  0  0  0  0  0  0  0
    6.4301  -13.9654   26.2182 C   0  0  0  0  0  0  0  0  0  0  0  0
    6.2931  -12.7080   27.0939 C   0  0  0  0  0  0  0  0  0  0  0  0
    7.6060  -12.0167   26.8386 C   0  0  0  0  0  0  0  0  0  0  0  0
    8.5448  -13.2353   26.7895 C   0  0  1  0  0  0  0  0  0  0  0  0
    8.5377  -13.8833   28.1162 C   0  0  0  0  0  0  0  0  0  0  0  0
    9.3634  -13.3331   29.1058 O   0  0  0  0  0  0  0  0  0  0  0  0
    7.8497  -14.8897   28.4292 O   0  0  0  0  0  0  0  0  0  0  0  0
  2  5  1  0
  2  1  1  6
  2  3  1  0
  4  3  1  0
  5  6  2  0
  7  8  1  0
  7  5  1  0
  8 13  1  0
  8  9  1  1
 10  9  1  0
 10 11  1  0
 11 15  1  0
 11 12  2  0
 13 14  2  0
 13 16  1  0
 16 20  1  0
 16 17  1  0
 17 18  1  0
 19 18  1  0
 20 19  1  0
 21 22  1  0
 20 21  1  1
 23 21  2  0
M  END
$$$$
