KKW.pdb
     RDKit          3D

 33 34  0  0  1  0  0  0  0  0999 V2000
    6.9748  -19.7035   20.9090 N   0  0  0  0  0  0  0  0  0  0  0  0
    8.1985  -19.3846   20.2155 C   0  0  1  0  0  0  0  0  0  0  0  0
    8.0747  -19.6766   18.7492 C   0  0  0  0  0  0  0  0  0  0  0  0
    6.6848  -20.0009   18.2987 C   0  0  0  0  0  0  0  0  0  0  0  0
    6.6234  -21.1314   17.3131 C   0  0  0  0  0  0  0  0  0  0  0  0
    5.1816  -21.2751   16.8494 C   0  0  0  0  0  0  0  0  0  0  0  0
    5.0132  -20.7187   15.5369 N   0  0  0  0  0  0  0  0  0  0  0  0
    8.5811  -17.9543   20.4087 C   0  0  0  0  0  0  0  0  0  0  0  0
    9.4344  -17.4734   19.6100 O   0  0  0  0  0  0  0  0  0  0  0  0
    8.0439  -17.1312   21.4226 N   0  0  0  0  0  0  0  0  0  0  0  0
    8.5189  -15.7878   21.6041 C   0  0  1  0  0  0  0  0  0  0  0  0
    7.5953  -14.7818   20.9832 C   0  0  0  0  0  0  0  0  0  0  0  0
    8.3211  -13.6987   20.2205 C   0  0  0  0  0  0  0  0  0  0  0  0
    7.6016  -13.5744   18.8810 C   0  0  0  0  0  0  0  0  0  0  0  0
    8.2785  -12.5015   18.0487 C   0  0  0  0  0  0  0  0  0  0  0  0
    7.8028  -12.5211   16.6804 N   0  0  0  0  0  0  0  0  0  0  0  0
    8.7892  -15.5158   23.0333 C   0  0  0  0  0  0  0  0  0  0  0  0
    7.9617  -14.8329   23.6785 O   0  0  0  0  0  0  0  0  0  0  0  0
    9.9394  -15.9906   23.7094 N   0  0  0  0  0  0  0  0  0  0  0  0
   10.2546  -15.5730   25.0597 C   0  0  1  0  0  0  0  0  0  0  0  0
    9.2431  -16.1049   26.0527 C   0  0  0  0  0  0  0  0  0  0  0  0
    7.9428  -15.4282   25.9507 C   0  0  0  0  0  0  0  0  0  0  0  0
    6.6963  -15.9251   25.6447 C   0  0  0  0  0  0  0  0  0  0  0  0
    5.8023  -14.9411   25.6666 N   0  0  0  0  0  0  0  0  0  0  0  0
    6.3999  -13.7701   25.9812 C   0  0  0  0  0  0  0  0  0  0  0  0
    5.9597  -12.4730   26.1378 C   0  0  0  0  0  0  0  0  0  0  0  0
    6.8412  -11.4690   26.4711 C   0  0  0  0  0  0  0  0  0  0  0  0
    8.1936  -11.7348   26.6582 C   0  0  0  0  0  0  0  0  0  0  0  0
    8.5998  -13.0433   26.4938 C   0  0  0  0  0  0  0  0  0  0  0  0
    7.7341  -14.0652   26.1599 C   0  0  0  0  0  0  0  0  0  0  0  0
   11.5709  -16.1621   25.4099 C   0  0  0  0  0  0  0  0  0  0  0  0
   12.2920  -16.9568   24.5268 O   0  0  0  0  0  0  0  0  0  0  0  0
   12.0928  -15.9631   26.5343 O   0  0  0  0  0  0  0  0  0  0  0  0
  2  1  1  1
  2  3  1  0
  3  4  1  0
  4  5  1  0
  5  6  1  0
  6  7  1  0
  8  2  1  0
  9  8  2  0
 10  8  1  0
 11 17  1  0
 11 10  1  0
 11 12  1  1
 13 12  1  0
 14 13  1  0
 15 14  1  0
 16 15  1  0
 17 19  1  0
 18 17  2  0
 19 20  1  0
 20 21  1  1
 20 31  1  0
 22 21  1  0
 23 22  2  0
 24 23  1  0
 25 24  1  0
 25 30  2  0
 26 25  1  0
 27 26  2  0
 27 28  1  0
 28 29  2  0
 29 30  1  0
 30 22  1  0
 31 33  2  0
 31 32  1  0
M  END
$$$$
