KKW.pdb
     RDKit          3D

 33 34  0  0  1  0  0  0  0  0999 V2000
    8.6936  -18.8238   19.9003 N   0  0  0  0  0  0  0  0  0  0  0  0
   10.0258  -18.2809   19.7990 C   0  0  1  0  0  0  0  0  0  0  0  0
   10.4583  -18.1869   18.3656 C   0  0  0  0  0  0  0  0  0  0  0  0
    9.8693  -19.2335   17.4724 C   0  0  0  0  0  0  0  0  0  0  0  0
   10.8478  -19.7958   16.4827 C   0  0  0  0  0  0  0  0  0  0  0  0
   10.1416  -20.8830   15.6867 C   0  0  0  0  0  0  0  0  0  0  0  0
   11.0148  -21.4266   14.6854 N   0  0  0  0  0  0  0  0  0  0  0  0
   10.1188  -16.9343   20.4373 C   0  0  0  0  0  0  0  0  0  0  0  0
   11.2711  -16.4268   20.5461 O   0  0  0  0  0  0  0  0  0  0  0  0
    9.0005  -16.2165   20.9152 N   0  0  0  0  0  0  0  0  0  0  0  0
    9.1718  -14.9728   21.6131 C   0  0  1  0  0  0  0  0  0  0  0  0
    8.3207  -13.8843   21.0286 C   0  0  0  0  0  0  0  0  0  0  0  0
    8.1897  -13.9730   19.5264 C   0  0  0  0  0  0  0  0  0  0  0  0
    7.3607  -12.7636   19.1053 C   0  0  0  0  0  0  0  0  0  0  0  0
    7.1642  -12.7928   17.6011 C   0  0  0  0  0  0  0  0  0  0  0  0
    8.4147  -13.0432   16.9137 N   0  0  0  0  0  0  0  0  0  0  0  0
    8.9581  -15.1530   23.0662 C   0  0  0  0  0  0  0  0  0  0  0  0
    8.1180  -14.4244   23.6413 O   0  0  0  0  0  0  0  0  0  0  0  0
    9.6572  -16.1107   23.8403 N   0  0  0  0  0  0  0  0  0  0  0  0
   10.0524  -15.8420   25.2073 C   0  0  1  0  0  0  0  0  0  0  0  0
    9.0002  -16.3122   26.1890 C   0  0  0  0  0  0  0  0  0  0  0  0
    7.7578  -15.5328   26.1006 C   0  0  0  0  0  0  0  0  0  0  0  0
    6.4989  -15.8989   25.6817 C   0  0  0  0  0  0  0  0  0  0  0  0
    5.6755  -14.8586   25.7700 N   0  0  0  0  0  0  0  0  0  0  0  0
    6.3343  -13.7765   26.2415 C   0  0  0  0  0  0  0  0  0  0  0  0
    5.9771  -12.4743   26.5202 C   0  0  0  0  0  0  0  0  0  0  0  0
    6.9060  -11.5811   27.0052 C   0  0  0  0  0  0  0  0  0  0  0  0
    8.2241  -11.9663   27.2263 C   0  0  0  0  0  0  0  0  0  0  0  0
    8.5472  -13.2762   26.9369 C   0  0  0  0  0  0  0  0  0  0  0  0
    7.6327  -14.1884   26.4501 C   0  0  0  0  0  0  0  0  0  0  0  0
   11.2864  -16.6222   25.4734 C   0  0  0  0  0  0  0  0  0  0  0  0
   12.0121  -16.4929   26.6516 O   0  0  0  0  0  0  0  0  0  0  0  0
   11.7304  -17.4419   24.6324 O   0  0  0  0  0  0  0  0  0  0  0  0
  2  1  1  6
  2  3  1  0
  3  4  1  0
  4  5  1  0
  5  6  1  0
  6  7  1  0
  8  2  1  0
  9  8  2  0
 10  8  1  0
 11 17  1  0
 11 10  1  0
 11 12  1  6
 13 12  1  0
 14 13  1  0
 15 14  1  0
 16 15  1  0
 17 19  1  0
 18 17  2  0
 19 20  1  0
 20 21  1  1
 20 31  1  0
 22 21  1  0
 23 22  2  0
 24 23  1  0
 25 24  1  0
 25 30  2  0
 26 25  1  0
 27 26  2  0
 27 28  1  0
 28 29  2  0
 29 30  1  0
 30 22  1  0
 31 33  2  0
 31 32  1  0
M  END
$$$$
