KKW.pdb
     RDKit          3D

 33 34  0  0  1  0  0  0  0  0999 V2000
    6.8445  -16.7338   19.8001 N   0  0  0  0  0  0  0  0  0  0  0  0
    8.1091  -16.1776   20.2140 C   0  0  1  0  0  0  0  0  0  0  0  0
    7.9949  -14.6992   20.4417 C   0  0  0  0  0  0  0  0  0  0  0  0
    7.7303  -13.9016   19.2032 C   0  0  0  0  0  0  0  0  0  0  0  0
    8.6810  -12.7554   19.0147 C   0  0  0  0  0  0  0  0  0  0  0  0
    8.3055  -12.0380   17.7267 C   0  0  0  0  0  0  0  0  0  0  0  0
    8.6208  -12.8483   16.5845 N   0  0  0  0  0  0  0  0  0  0  0  0
    8.6177  -16.8355   21.4541 C   0  0  0  0  0  0  0  0  0  0  0  0
    8.0275  -16.5582   22.5367 O   0  0  0  0  0  0  0  0  0  0  0  0
    9.7060  -17.7352   21.4720 N   0  0  0  0  0  0  0  0  0  0  0  0
   10.1114  -18.3704   22.6948 C   0  0  1  0  0  0  0  0  0  0  0  0
   10.7307  -19.7140   22.4459 C   0  0  0  0  0  0  0  0  0  0  0  0
   11.1861  -20.4030   23.7105 C   0  0  0  0  0  0  0  0  0  0  0  0
   11.8019  -21.7270   23.2687 C   0  0  0  0  0  0  0  0  0  0  0  0
   12.2829  -22.4860   24.4913 C   0  0  0  0  0  0  0  0  0  0  0  0
   11.1815  -23.1360   25.1719 N   0  0  0  0  0  0  0  0  0  0  0  0
   10.9812  -17.4738   23.4882 C   0  0  0  0  0  0  0  0  0  0  0  0
   11.5911  -16.5551   22.8955 O   0  0  0  0  0  0  0  0  0  0  0  0
   11.1582  -17.6030   24.8872 N   0  0  0  0  0  0  0  0  0  0  0  0
   10.8148  -16.5320   25.7995 C   0  0  1  0  0  0  0  0  0  0  0  0
    9.4282  -15.9920   25.5204 C   0  0  0  0  0  0  0  0  0  0  0  0
    8.9955  -15.0053   26.5194 C   0  0  0  0  0  0  0  0  0  0  0  0
    9.4011  -14.8110   27.8202 C   0  0  0  0  0  0  0  0  0  0  0  0
    8.7308  -13.7936   28.3529 N   0  0  0  0  0  0  0  0  0  0  0  0
    7.8675  -13.2758   27.4506 C   0  0  0  0  0  0  0  0  0  0  0  0
    6.9545  -12.2429   27.4705 C   0  0  0  0  0  0  0  0  0  0  0  0
    6.1995  -11.9533   26.3560 C   0  0  0  0  0  0  0  0  0  0  0  0
    6.3367  -12.6913   25.1851 C   0  0  0  0  0  0  0  0  0  0  0  0
    7.2592  -13.7174   25.1999 C   0  0  0  0  0  0  0  0  0  0  0  0
    8.0265  -14.0254   26.3053 C   0  0  0  0  0  0  0  0  0  0  0  0
   10.8001  -17.1038   27.1688 C   0  0  0  0  0  0  0  0  0  0  0  0
   11.5011  -16.5326   28.2242 O   0  0  0  0  0  0  0  0  0  0  0  0
   10.1442  -18.1416   27.4321 O   0  0  0  0  0  0  0  0  0  0  0  0
  2  1  1  1
  2  3  1  0
  3  4  1  0
  4  5  1  0
  5  6  1  0
  6  7  1  0
  8  2  1  0
  9  8  2  0
 10  8  1  0
 11 17  1  0
 11 10  1  0
 11 12  1  6
 13 12  1  0
 14 13  1  0
 15 14  1  0
 16 15  1  0
 17 19  1  0
 18 17  2  0
 19 20  1  0
 20 21  1  6
 20 31  1  0
 22 21  1  0
 23 22  2  0
 24 23  1  0
 25 24  1  0
 25 30  2  0
 26 25  1  0
 27 26  2  0
 27 28  1  0
 28 29  2  0
 29 30  1  0
 30 22  1  0
 31 33  2  0
 31 32  1  0
M  END
$$$$
