KKW.pdb
     RDKit          3D

 33 34  0  0  1  0  0  0  0  0999 V2000
    8.4581  -18.8289   20.3601 N   0  0  0  0  0  0  0  0  0  0  0  0
    9.7420  -18.1977   20.1779 C   0  0  1  0  0  0  0  0  0  0  0  0
   10.0603  -18.0427   18.7201 C   0  0  0  0  0  0  0  0  0  0  0  0
    9.8364  -19.2770   17.9039 C   0  0  0  0  0  0  0  0  0  0  0  0
   10.3050  -19.1487   16.4835 C   0  0  0  0  0  0  0  0  0  0  0  0
   10.0786  -20.4836   15.7897 C   0  0  0  0  0  0  0  0  0  0  0  0
   10.6211  -20.4628   14.4609 N   0  0  0  0  0  0  0  0  0  0  0  0
    9.7960  -16.8630   20.8449 C   0  0  0  0  0  0  0  0  0  0  0  0
   10.8941  -16.2392   20.7969 O   0  0  0  0  0  0  0  0  0  0  0  0
    8.6984  -16.2778   21.5134 N   0  0  0  0  0  0  0  0  0  0  0  0
    8.7662  -14.9234   21.9869 C   0  0  1  0  0  0  0  0  0  0  0  0
    7.5346  -14.1456   21.6280 C   0  0  0  0  0  0  0  0  0  0  0  0
    7.0620  -14.3974   20.2156 C   0  0  0  0  0  0  0  0  0  0  0  0
    8.0742  -13.7089   19.3053 C   0  0  0  0  0  0  0  0  0  0  0  0
    7.6412  -13.8769   17.8608 C   0  0  0  0  0  0  0  0  0  0  0  0
    8.6034  -13.2865   16.9529 N   0  0  0  0  0  0  0  0  0  0  0  0
    9.0672  -14.8887   23.4353 C   0  0  0  0  0  0  0  0  0  0  0  0
    8.7807  -13.8547   24.0804 O   0  0  0  0  0  0  0  0  0  0  0  0
    9.6639  -15.9689   24.1298 N   0  0  0  0  0  0  0  0  0  0  0  0
   10.0053  -15.8747   25.5340 C   0  0  1  0  0  0  0  0  0  0  0  0
    8.8446  -16.2886   26.4135 C   0  0  0  0  0  0  0  0  0  0  0  0
    7.6327  -15.4983   26.1572 C   0  0  0  0  0  0  0  0  0  0  0  0
    6.4100  -15.8732   25.6485 C   0  0  0  0  0  0  0  0  0  0  0  0
    5.6047  -14.8168   25.5892 N   0  0  0  0  0  0  0  0  0  0  0  0
    6.2408  -13.7149   26.0458 C   0  0  0  0  0  0  0  0  0  0  0  0
    5.8877  -12.3912   26.2013 C   0  0  0  0  0  0  0  0  0  0  0  0
    6.7873  -11.4808   26.7093 C   0  0  0  0  0  0  0  0  0  0  0  0
    8.0708  -11.8699   27.0778 C   0  0  0  0  0  0  0  0  0  0  0  0
    8.3906  -13.2016   26.9090 C   0  0  0  0  0  0  0  0  0  0  0  0
    7.5052  -14.1312   26.4018 C   0  0  0  0  0  0  0  0  0  0  0  0
   11.1137  -16.8288   25.7856 C   0  0  0  0  0  0  0  0  0  0  0  0
   11.5787  -17.7063   24.8133 O   0  0  0  0  0  0  0  0  0  0  0  0
   11.6837  -16.8820   26.9030 O   0  0  0  0  0  0  0  0  0  0  0  0
  2  1  1  6
  2  3  1  0
  3  4  1  0
  4  5  1  0
  5  6  1  0
  6  7  1  0
  8  2  1  0
  9  8  2  0
 10  8  1  0
 11 17  1  0
 11 10  1  0
 11 12  1  1
 13 12  1  0
 14 13  1  0
 15 14  1  0
 16 15  1  0
 17 19  1  0
 18 17  2  0
 19 20  1  0
 20 21  1  1
 20 31  1  0
 22 21  1  0
 23 22  2  0
 24 23  1  0
 25 24  1  0
 25 30  2  0
 26 25  1  0
 27 26  2  0
 27 28  1  0
 28 29  2  0
 29 30  1  0
 30 22  1  0
 31 33  2  0
 31 32  1  0
M  END
$$$$
