KKW.pdb
     RDKit          3D

 33 34  0  0  1  0  0  0  0  0999 V2000
    6.0185  -16.3067   18.3557 N   0  0  0  0  0  0  0  0  0  0  0  0
    7.3487  -16.5457   18.8590 C   0  0  1  0  0  0  0  0  0  0  0  0
    8.2598  -15.4005   18.5290 C   0  0  0  0  0  0  0  0  0  0  0  0
    8.8347  -15.4461   17.1479 C   0  0  0  0  0  0  0  0  0  0  0  0
    9.8668  -14.3862   16.8937 C   0  0  0  0  0  0  0  0  0  0  0  0
   10.3108  -14.4984   15.4429 C   0  0  0  0  0  0  0  0  0  0  0  0
    9.2765  -14.0401   14.5593 N   0  0  0  0  0  0  0  0  0  0  0  0
    7.3440  -16.7700   20.3351 C   0  0  0  0  0  0  0  0  0  0  0  0
    7.1068  -15.7689   21.0691 O   0  0  0  0  0  0  0  0  0  0  0  0
    7.5875  -18.0244   20.9363 N   0  0  0  0  0  0  0  0  0  0  0  0
    7.5585  -18.1703   22.3649 C   0  0  1  0  0  0  0  0  0  0  0  0
    7.3506  -19.5983   22.7750 C   0  0  0  0  0  0  0  0  0  0  0  0
    7.3780  -19.7977   24.2720 C   0  0  0  0  0  0  0  0  0  0  0  0
    7.2952  -21.3044   24.4963 C   0  0  0  0  0  0  0  0  0  0  0  0
    7.2781  -21.5866   25.9870 C   0  0  0  0  0  0  0  0  0  0  0  0
    7.2620  -23.0111   26.2509 N   0  0  0  0  0  0  0  0  0  0  0  0
    8.7612  -17.5646   22.9784 C   0  0  0  0  0  0  0  0  0  0  0  0
    9.8785  -17.8068   22.4682 O   0  0  0  0  0  0  0  0  0  0  0  0
    8.7115  -16.7224   24.1158 N   0  0  0  0  0  0  0  0  0  0  0  0
    9.9150  -16.1978   24.7270 C   0  0  1  0  0  0  0  0  0  0  0  0
    9.6763  -14.8307   25.3321 C   0  0  0  0  0  0  0  0  0  0  0  0
    8.2503  -14.5515   25.5500 C   0  0  0  0  0  0  0  0  0  0  0  0
    7.1830  -15.4074   25.7006 C   0  0  0  0  0  0  0  0  0  0  0  0
    6.0663  -14.7071   25.8748 N   0  0  0  0  0  0  0  0  0  0  0  0
    6.3335  -13.3822   25.8488 C   0  0  0  0  0  0  0  0  0  0  0  0
    5.5705  -12.2408   25.9743 C   0  0  0  0  0  0  0  0  0  0  0  0
    6.1540  -10.9958   25.8996 C   0  0  0  0  0  0  0  0  0  0  0  0
    7.5230  -10.8564   25.6966 C   0  0  0  0  0  0  0  0  0  0  0  0
    8.2563  -12.0190   25.5754 C   0  0  0  0  0  0  0  0  0  0  0  0
    7.6926  -13.2769   25.6469 C   0  0  0  0  0  0  0  0  0  0  0  0
   10.2852  -17.1137   25.8343 C   0  0  0  0  0  0  0  0  0  0  0  0
   11.5244  -17.0642   26.4617 O   0  0  0  0  0  0  0  0  0  0  0  0
    9.4820  -17.9824   26.2545 O   0  0  0  0  0  0  0  0  0  0  0  0
  2  1  1  1
  2  3  1  0
  3  4  1  0
  4  5  1  0
  5  6  1  0
  6  7  1  0
  8  2  1  0
  9  8  2  0
 10  8  1  0
 11 17  1  0
 11 10  1  0
 11 12  1  6
 13 12  1  0
 14 13  1  0
 15 14  1  0
 16 15  1  0
 17 19  1  0
 18 17  2  0
 19 20  1  0
 20 21  1  1
 20 31  1  0
 22 21  1  0
 23 22  2  0
 24 23  1  0
 25 24  1  0
 25 30  2  0
 26 25  1  0
 27 26  2  0
 27 28  1  0
 28 29  2  0
 29 30  1  0
 30 22  1  0
 31 33  2  0
 31 32  1  0
M  END
$$$$
