KKW.pdb
     RDKit          3D

 33 34  0  0  1  0  0  0  0  0999 V2000
    8.2400  -18.2353   19.3776 N   0  0  0  0  0  0  0  0  0  0  0  0
    7.4407  -18.1697   20.5762 C   0  0  1  0  0  0  0  0  0  0  0  0
    6.5683  -19.3833   20.7051 C   0  0  0  0  0  0  0  0  0  0  0  0
    6.3870  -20.1521   19.4339 C   0  0  0  0  0  0  0  0  0  0  0  0
    5.5177  -21.3663   19.5873 C   0  0  0  0  0  0  0  0  0  0  0  0
    5.3239  -21.9846   18.2108 C   0  0  0  0  0  0  0  0  0  0  0  0
    4.6233  -23.2335   18.3101 N   0  0  0  0  0  0  0  0  0  0  0  0
    8.2916  -18.0352   21.7957 C   0  0  0  0  0  0  0  0  0  0  0  0
    8.4167  -19.0587   22.5265 O   0  0  0  0  0  0  0  0  0  0  0  0
    8.9497  -16.8407   22.1622 N   0  0  0  0  0  0  0  0  0  0  0  0
   10.3817  -16.7455   22.1037 C   0  0  1  0  0  0  0  0  0  0  0  0
   10.8374  -15.9080   20.9454 C   0  0  0  0  0  0  0  0  0  0  0  0
   12.3366  -15.9125   20.7610 C   0  0  0  0  0  0  0  0  0  0  0  0
   12.6665  -14.6475   19.9748 C   0  0  0  0  0  0  0  0  0  0  0  0
   14.1491  -14.3519   20.1046 C   0  0  0  0  0  0  0  0  0  0  0  0
   14.7940  -14.3249   18.8075 N   0  0  0  0  0  0  0  0  0  0  0  0
   10.9300  -16.2843   23.3984 C   0  0  0  0  0  0  0  0  0  0  0  0
   12.1732  -16.2307   23.5357 O   0  0  0  0  0  0  0  0  0  0  0  0
   10.1171  -15.8991   24.4921 N   0  0  0  0  0  0  0  0  0  0  0  0
   10.6514  -15.7825   25.8331 C   0  0  1  0  0  0  0  0  0  0  0  0
    9.8467  -14.8069   26.6653 C   0  0  0  0  0  0  0  0  0  0  0  0
    8.4191  -14.8125   26.3176 C   0  0  0  0  0  0  0  0  0  0  0  0
    7.5880  -15.8504   25.9621 C   0  0  0  0  0  0  0  0  0  0  0  0
    6.3634  -15.3869   25.7309 N   0  0  0  0  0  0  0  0  0  0  0  0
    6.3244  -14.0487   25.9181 C   0  0  0  0  0  0  0  0  0  0  0  0
    5.3404  -13.0881   25.8183 C   0  0  0  0  0  0  0  0  0  0  0  0
    5.6221  -11.7661   26.0809 C   0  0  0  0  0  0  0  0  0  0  0  0
    6.9012  -11.3654   26.4524 C   0  0  0  0  0  0  0  0  0  0  0  0
    7.8615  -12.3522   26.5426 C   0  0  0  0  0  0  0  0  0  0  0  0
    7.6017  -13.6830   26.2840 C   0  0  0  0  0  0  0  0  0  0  0  0
   10.5325  -17.1152   26.4749 C   0  0  0  0  0  0  0  0  0  0  0  0
   11.1852  -17.4344   27.6597 O   0  0  0  0  0  0  0  0  0  0  0  0
    9.8274  -18.0207   25.9656 O   0  0  0  0  0  0  0  0  0  0  0  0
  2  1  1  6
  2  3  1  0
  3  4  1  0
  4  5  1  0
  5  6  1  0
  6  7  1  0
  8  2  1  0
  9  8  2  0
 10  8  1  0
 11 17  1  0
 11 10  1  0
 11 12  1  6
 13 12  1  0
 14 13  1  0
 15 14  1  0
 16 15  1  0
 17 19  1  0
 18 17  2  0
 19 20  1  0
 20 21  1  1
 20 31  1  0
 22 21  1  0
 23 22  2  0
 24 23  1  0
 25 24  1  0
 25 30  2  0
 26 25  1  0
 27 26  2  0
 27 28  1  0
 28 29  2  0
 29 30  1  0
 30 22  1  0
 31 33  2  0
 31 32  1  0
M  END
$$$$
