KKW.pdb
     RDKit          3D

 33 34  0  0  1  0  0  0  0  0999 V2000
    6.5939  -17.4360   19.4393 N   0  0  0  0  0  0  0  0  0  0  0  0
    7.8097  -16.9059   20.0057 C   0  0  1  0  0  0  0  0  0  0  0  0
    7.8548  -15.4122   19.8742 C   0  0  0  0  0  0  0  0  0  0  0  0
    7.8939  -14.9169   18.4624 C   0  0  0  0  0  0  0  0  0  0  0  0
    8.0090  -13.4241   18.3546 C   0  0  0  0  0  0  0  0  0  0  0  0
    7.9160  -13.0488   16.8832 C   0  0  0  0  0  0  0  0  0  0  0  0
    7.4272  -11.7076   16.7319 N   0  0  0  0  0  0  0  0  0  0  0  0
    7.9556  -17.2847   21.4426 C   0  0  0  0  0  0  0  0  0  0  0  0
    7.1904  -16.7124   22.2697 O   0  0  0  0  0  0  0  0  0  0  0  0
    8.8907  -18.2342   21.9099 N   0  0  0  0  0  0  0  0  0  0  0  0
    8.8973  -18.6391   23.2880 C   0  0  1  0  0  0  0  0  0  0  0  0
    9.5110  -19.9963   23.4668 C   0  0  0  0  0  0  0  0  0  0  0  0
    8.6783  -21.1088   22.8746 C   0  0  0  0  0  0  0  0  0  0  0  0
    7.3892  -21.1476   23.6894 C   0  0  0  0  0  0  0  0  0  0  0  0
    6.4977  -22.2555   23.1601 C   0  0  0  0  0  0  0  0  0  0  0  0
    6.4229  -23.3599   24.0948 N   0  0  0  0  0  0  0  0  0  0  0  0
    9.5309  -17.6047   24.1355 C   0  0  0  0  0  0  0  0  0  0  0  0
   10.6245  -17.1188   23.7679 O   0  0  0  0  0  0  0  0  0  0  0  0
    8.9606  -17.1355   25.3438 N   0  0  0  0  0  0  0  0  0  0  0  0
    9.7459  -16.4204   26.3282 C   0  0  1  0  0  0  0  0  0  0  0  0
    8.8673  -15.5837   27.2337 C   0  0  0  0  0  0  0  0  0  0  0  0
    7.7549  -14.9504   26.5123 C   0  0  0  0  0  0  0  0  0  0  0  0
    6.6420  -15.5026   25.9199 C   0  0  0  0  0  0  0  0  0  0  0  0
    5.8989  -14.5429   25.3770 N   0  0  0  0  0  0  0  0  0  0  0  0
    6.4707  -13.3348   25.5789 C   0  0  0  0  0  0  0  0  0  0  0  0
    6.1383  -12.0405   25.2395 C   0  0  0  0  0  0  0  0  0  0  0  0
    6.9523  -10.9902   25.6004 C   0  0  0  0  0  0  0  0  0  0  0  0
    8.1266  -11.2052   26.3141 C   0  0  0  0  0  0  0  0  0  0  0  0
    8.4287  -12.5123   26.6372 C   0  0  0  0  0  0  0  0  0  0  0  0
    7.6279  -13.5802   26.2858 C   0  0  0  0  0  0  0  0  0  0  0  0
   10.4201  -17.4332   27.1779 C   0  0  0  0  0  0  0  0  0  0  0  0
   11.3899  -17.0958   28.1146 O   0  0  0  0  0  0  0  0  0  0  0  0
   10.1373  -18.6527   27.0829 O   0  0  0  0  0  0  0  0  0  0  0  0
  2  1  1  1
  2  3  1  0
  3  4  1  0
  4  5  1  0
  5  6  1  0
  6  7  1  0
  8  2  1  0
  9  8  2  0
 10  8  1  0
 11 17  1  0
 11 10  1  0
 11 12  1  6
 13 12  1  0
 14 13  1  0
 15 14  1  0
 16 15  1  0
 17 19  1  0
 18 17  2  0
 19 20  1  0
 20 21  1  1
 20 31  1  0
 22 21  1  0
 23 22  2  0
 24 23  1  0
 25 24  1  0
 25 30  2  0
 26 25  1  0
 27 26  2  0
 27 28  1  0
 28 29  2  0
 29 30  1  0
 30 22  1  0
 31 33  2  0
 31 32  1  0
M  END
$$$$
