KKW.pdb
     RDKit          3D

 33 34  0  0  1  0  0  0  0  0999 V2000
    8.8458  -19.6727   20.8370 N   0  0  0  0  0  0  0  0  0  0  0  0
   10.1593  -19.1046   20.6581 C   0  0  1  0  0  0  0  0  0  0  0  0
   10.6581  -19.3380   19.2627 C   0  0  0  0  0  0  0  0  0  0  0  0
    9.7435  -20.1589   18.4085 C   0  0  0  0  0  0  0  0  0  0  0  0
    9.2371  -19.4279   17.1992 C   0  0  0  0  0  0  0  0  0  0  0  0
   10.4051  -18.6755   16.5793 C   0  0  0  0  0  0  0  0  0  0  0  0
   10.0120  -18.0568   15.3451 N   0  0  0  0  0  0  0  0  0  0  0  0
   10.1681  -17.6409   20.9528 C   0  0  0  0  0  0  0  0  0  0  0  0
   11.2291  -17.0067   20.6892 O   0  0  0  0  0  0  0  0  0  0  0  0
    9.0674  -16.9469   21.5013 N   0  0  0  0  0  0  0  0  0  0  0  0
    9.1980  -15.5788   21.9188 C   0  0  1  0  0  0  0  0  0  0  0  0
    8.1954  -14.6917   21.2417 C   0  0  0  0  0  0  0  0  0  0  0  0
    8.7399  -14.0116   20.0077 C   0  0  0  0  0  0  0  0  0  0  0  0
    7.5385  -13.7623   19.1012 C   0  0  0  0  0  0  0  0  0  0  0  0
    8.0166  -13.1577   17.7943 C   0  0  0  0  0  0  0  0  0  0  0  0
    6.9010  -12.8130   16.9367 N   0  0  0  0  0  0  0  0  0  0  0  0
    9.1551  -15.4744   23.3942 C   0  0  0  0  0  0  0  0  0  0  0  0
    8.2521  -14.7835   23.9183 O   0  0  0  0  0  0  0  0  0  0  0  0
   10.0860  -16.1187   24.2449 N   0  0  0  0  0  0  0  0  0  0  0  0
   10.1253  -15.8546   25.6683 C   0  0  1  0  0  0  0  0  0  0  0  0
    8.8671  -16.3415   26.3552 C   0  0  0  0  0  0  0  0  0  0  0  0
    7.7081  -15.4791   26.0869 C   0  0  0  0  0  0  0  0  0  0  0  0
    6.5181  -15.7505   25.4507 C   0  0  0  0  0  0  0  0  0  0  0  0
    5.7575  -14.6600   25.4358 N   0  0  0  0  0  0  0  0  0  0  0  0
    6.3925  -13.6356   26.0480 C   0  0  0  0  0  0  0  0  0  0  0  0
    6.0743  -12.3195   26.3077 C   0  0  0  0  0  0  0  0  0  0  0  0
    6.9610  -11.5019   26.9719 C   0  0  0  0  0  0  0  0  0  0  0  0
    8.1963  -11.9792   27.3972 C   0  0  0  0  0  0  0  0  0  0  0  0
    8.4822  -13.3006   27.1210 C   0  0  0  0  0  0  0  0  0  0  0  0
    7.6089  -14.1380   26.4567 C   0  0  0  0  0  0  0  0  0  0  0  0
   11.2628  -16.6239   26.2306 C   0  0  0  0  0  0  0  0  0  0  0  0
   11.6167  -16.5598   27.5731 O   0  0  0  0  0  0  0  0  0  0  0  0
   11.9610  -17.3742   25.5053 O   0  0  0  0  0  0  0  0  0  0  0  0
  2  1  1  6
  2  3  1  0
  3  4  1  0
  4  5  1  0
  5  6  1  0
  6  7  1  0
  8  2  1  0
  9  8  2  0
 10  8  1  0
 11 17  1  0
 11 10  1  0
 11 12  1  6
 13 12  1  0
 14 13  1  0
 15 14  1  0
 16 15  1  0
 17 19  1  0
 18 17  2  0
 19 20  1  0
 20 21  1  1
 20 31  1  0
 22 21  1  0
 23 22  2  0
 24 23  1  0
 25 24  1  0
 25 30  2  0
 26 25  1  0
 27 26  2  0
 27 28  1  0
 28 29  2  0
 29 30  1  0
 30 22  1  0
 31 33  2  0
 31 32  1  0
M  END
$$$$
