KKW.pdb
     RDKit          3D

 33 34  0  0  1  0  0  0  0  0999 V2000
    6.6291  -20.9471   22.6657 N   0  0  0  0  0  0  0  0  0  0  0  0
    6.8065  -19.6862   23.3429 C   0  0  1  0  0  0  0  0  0  0  0  0
    7.4698  -19.8821   24.6741 C   0  0  0  0  0  0  0  0  0  0  0  0
    6.7537  -20.8261   25.5885 C   0  0  0  0  0  0  0  0  0  0  0  0
    7.3371  -20.8791   26.9706 C   0  0  0  0  0  0  0  0  0  0  0  0
    6.6090  -21.9651   27.7486 C   0  0  0  0  0  0  0  0  0  0  0  0
    7.2076  -22.1515   29.0399 N   0  0  0  0  0  0  0  0  0  0  0  0
    7.6085  -18.7313   22.5218 C   0  0  0  0  0  0  0  0  0  0  0  0
    8.6264  -19.1928   21.9317 O   0  0  0  0  0  0  0  0  0  0  0  0
    7.2879  -17.3636   22.3773 N   0  0  0  0  0  0  0  0  0  0  0  0
    8.1935  -16.4644   21.7181 C   0  0  1  0  0  0  0  0  0  0  0  0
    7.4654  -15.3596   21.0111 C   0  0  0  0  0  0  0  0  0  0  0  0
    8.3746  -14.4807   20.1850 C   0  0  0  0  0  0  0  0  0  0  0  0
    7.4580  -13.5377   19.4119 C   0  0  0  0  0  0  0  0  0  0  0  0
    8.2489  -12.8730   18.3006 C   0  0  0  0  0  0  0  0  0  0  0  0
    7.4239  -11.9475   17.5510 N   0  0  0  0  0  0  0  0  0  0  0  0
    9.2182  -15.9664   22.6624 C   0  0  0  0  0  0  0  0  0  0  0  0
   10.1024  -15.1924   22.2309 O   0  0  0  0  0  0  0  0  0  0  0  0
    9.2483  -16.3219   24.0329 N   0  0  0  0  0  0  0  0  0  0  0  0
   10.3533  -15.9486   24.8914 C   0  0  1  0  0  0  0  0  0  0  0  0
    9.9443  -14.8827   25.8858 C   0  0  0  0  0  0  0  0  0  0  0  0
    8.4857  -14.7506   26.0031 C   0  0  0  0  0  0  0  0  0  0  0  0
    7.4871  -15.6865   25.8571 C   0  0  0  0  0  0  0  0  0  0  0  0
    6.3028  -15.1146   26.0527 N   0  0  0  0  0  0  0  0  0  0  0  0
    6.4558  -13.8008   26.3318 C   0  0  0  0  0  0  0  0  0  0  0  0
    5.5888  -12.7654   26.6097 C   0  0  0  0  0  0  0  0  0  0  0  0
    6.0669  -11.4984   26.8586 C   0  0  0  0  0  0  0  0  0  0  0  0
    7.4314  -11.2295   26.8368 C   0  0  0  0  0  0  0  0  0  0  0  0
    8.2705  -12.2883   26.5555 C   0  0  0  0  0  0  0  0  0  0  0  0
    7.8134  -13.5660   26.3029 C   0  0  0  0  0  0  0  0  0  0  0  0
   10.7384  -17.1536   25.6671 C   0  0  0  0  0  0  0  0  0  0  0  0
   11.9021  -17.2135   26.4247 O   0  0  0  0  0  0  0  0  0  0  0  0
   10.0180  -18.1818   25.6699 O   0  0  0  0  0  0  0  0  0  0  0  0
  2  1  1  6
  2  3  1  0
  3  4  1  0
  4  5  1  0
  5  6  1  0
  6  7  1  0
  8  2  1  0
  9  8  2  0
 10  8  1  0
 11 17  1  0
 11 10  1  0
 11 12  1  1
 13 12  1  0
 14 13  1  0
 15 14  1  0
 16 15  1  0
 17 19  1  0
 18 17  2  0
 19 20  1  0
 20 21  1  1
 20 31  1  0
 22 21  1  0
 23 22  2  0
 24 23  1  0
 25 24  1  0
 25 30  2  0
 26 25  1  0
 27 26  2  0
 27 28  1  0
 28 29  2  0
 29 30  1  0
 30 22  1  0
 31 33  2  0
 31 32  1  0
M  END
$$$$
