PCV.pdb
     RDKit          3D

 21 21  0  0  1  0  0  0  0  0999 V2000
    6.8598  -17.2309   19.9782 N   0  0  0  0  0  0  0  0  0  0  0  0
    7.2803  -16.3022   18.9700 C   0  0  0  0  0  0  0  0  0  0  0  0
    8.7479  -16.5575   18.6998 C   0  0  0  0  0  0  0  0  0  0  0  0
    8.8719  -18.0003   19.1872 C   0  0  0  0  0  0  0  0  0  0  0  0
    8.0289  -17.9106   20.4668 C   0  0  1  0  0  0  0  0  0  0  0  0
    8.7221  -17.0667   21.4569 C   0  0  0  0  0  0  0  0  0  0  0  0
    9.5493  -16.1767   21.0688 O   0  0  0  0  0  0  0  0  0  0  0  0
    8.5388  -17.1662   22.8537 N   0  0  0  0  0  0  0  0  0  0  0  0
    9.3405  -16.4664   23.8208 C   0  0  1  0  0  0  0  0  0  0  0  0
    8.7139  -16.4212   25.1892 C   0  0  0  0  0  0  0  0  0  0  0  0
    6.9319  -16.2045   25.1244 S   0  0  0  0  0  0  0  0  0  0  0  0
   10.6613  -17.1359   23.9424 C   0  0  0  0  0  0  0  0  0  0  0  0
   10.7688  -18.4035   23.9540 O   0  0  0  0  0  0  0  0  0  0  0  0
   15.5241  -16.6527   23.5458 C   0  0  0  0  0  0  0  0  0  0  0  0
   14.1678  -16.0185   23.5250 C   0  0  1  0  0  0  0  0  0  0  0  0
   13.7699  -15.5039   22.1790 C   0  0  0  0  0  0  0  0  0  0  0  0
   13.1561  -17.0326   24.0643 C   0  0  2  0  0  0  0  0  0  0  0  0
   11.8677  -16.3673   24.0515 N   0  0  0  0  0  0  0  0  0  0  0  0
   13.5702  -17.3280   25.4565 C   0  0  0  0  0  0  0  0  0  0  0  0
   14.4073  -18.4075   25.6802 O   0  0  0  0  0  0  0  0  0  0  0  0
   13.2059  -16.6551   26.4507 O   0  0  0  0  0  0  0  0  0  0  0  0
  1  2  1  0
  3  2  1  0
  4  5  1  0
  4  3  1  0
  5  1  1  0
  5  6  1  1
  6  8  1  0
  7  6  2  0
  9 10  1  1
  9  8  1  0
  9 12  1  0
 11 10  1  0
 12 18  1  0
 13 12  2  0
 15 14  1  6
 15 16  1  0
 17 15  1  0
 17 18  1  1
 19 17  1  0
 19 20  1  0
 21 19  2  0
M  END
$$$$
