PCV.pdb
     RDKit          3D

 21 21  0  0  1  0  0  0  0  0999 V2000
    8.2941  -14.9291   18.1431 N   0  0  0  0  0  0  0  0  0  0  0  0
    7.4096  -13.8584   17.7864 C   0  0  0  0  0  0  0  0  0  0  0  0
    7.6313  -12.7357   18.7776 C   0  0  0  0  0  0  0  0  0  0  0  0
    9.0399  -13.0715   19.2652 C   0  0  0  0  0  0  0  0  0  0  0  0
    8.9067  -14.5947   19.4001 C   0  0  1  0  0  0  0  0  0  0  0  0
    7.9867  -14.9141   20.5067 C   0  0  0  0  0  0  0  0  0  0  0  0
    6.8288  -15.3872   20.2572 O   0  0  0  0  0  0  0  0  0  0  0  0
    8.2935  -14.7324   21.8733 N   0  0  0  0  0  0  0  0  0  0  0  0
    7.6979  -15.4933   22.9382 C   0  0  1  0  0  0  0  0  0  0  0  0
    7.9629  -16.9716   22.8307 C   0  0  0  0  0  0  0  0  0  0  0  0
    7.4924  -17.8661   24.3157 S   0  0  0  0  0  0  0  0  0  0  0  0
    8.2372  -15.0235   24.2404 C   0  0  0  0  0  0  0  0  0  0  0  0
    9.4805  -15.0730   24.5052 O   0  0  0  0  0  0  0  0  0  0  0  0
    7.2393  -11.9624   27.9473 C   0  0  0  0  0  0  0  0  0  0  0  0
    6.7280  -12.8498   26.8549 C   0  0  1  0  0  0  0  0  0  0  0  0
    6.0263  -12.1084   25.7626 C   0  0  0  0  0  0  0  0  0  0  0  0
    7.9011  -13.6724   26.3168 C   0  0  2  0  0  0  0  0  0  0  0  0
    7.3651  -14.4946   25.2493 N   0  0  0  0  0  0  0  0  0  0  0  0
    8.3596  -14.5220   27.4415 C   0  0  0  0  0  0  0  0  0  0  0  0
    9.2974  -14.0048   28.3185 O   0  0  0  0  0  0  0  0  0  0  0  0
    7.9469  -15.6885   27.6484 O   0  0  0  0  0  0  0  0  0  0  0  0
  1  2  1  0
  3  2  1  0
  4  5  1  0
  4  3  1  0
  5  1  1  0
  5  6  1  1
  6  8  1  0
  7  6  2  0
  9 10  1  6
  9  8  1  0
  9 12  1  0
 11 10  1  0
 12 18  1  0
 13 12  2  0
 15 14  1  1
 15 16  1  0
 17 15  1  0
 17 18  1  6
 19 17  1  0
 19 20  1  0
 21 19  2  0
M  END
$$$$
