PCV.pdb
     RDKit          3D

 21 21  0  0  1  0  0  0  0  0999 V2000
    8.2118  -15.0542   18.4488 N   0  0  0  0  0  0  0  0  0  0  0  0
    7.1589  -14.1618   18.0603 C   0  0  0  0  0  0  0  0  0  0  0  0
    7.2554  -12.9337   18.9403 C   0  0  0  0  0  0  0  0  0  0  0  0
    8.7206  -13.0133   19.3665 C   0  0  0  0  0  0  0  0  0  0  0  0
    8.8267  -14.5210   19.6341 C   0  0  1  0  0  0  0  0  0  0  0  0
    8.0205  -14.8706   20.8177 C   0  0  0  0  0  0  0  0  0  0  0  0
    6.7984  -14.5116   20.8857 O   0  0  0  0  0  0  0  0  0  0  0  0
    8.5084  -15.5984   21.9253 N   0  0  0  0  0  0  0  0  0  0  0  0
    7.7425  -15.8622   23.1134 C   0  0  1  0  0  0  0  0  0  0  0  0
    7.8027  -17.3020   23.5501 C   0  0  0  0  0  0  0  0  0  0  0  0
    6.9886  -17.5786   25.1273 S   0  0  0  0  0  0  0  0  0  0  0  0
    8.2558  -15.0228   24.2266 C   0  0  0  0  0  0  0  0  0  0  0  0
    9.5009  -14.8205   24.3911 O   0  0  0  0  0  0  0  0  0  0  0  0
    7.1530  -12.0782   28.0278 C   0  0  0  0  0  0  0  0  0  0  0  0
    6.6857  -12.8381   26.8251 C   0  0  1  0  0  0  0  0  0  0  0  0
    6.0476  -11.9751   25.7844 C   0  0  0  0  0  0  0  0  0  0  0  0
    7.8742  -13.6198   26.2603 C   0  0  2  0  0  0  0  0  0  0  0  0
    7.3555  -14.4084   25.1594 N   0  0  0  0  0  0  0  0  0  0  0  0
    8.3426  -14.5050   27.3530 C   0  0  0  0  0  0  0  0  0  0  0  0
    9.3006  -14.0220   28.2276 O   0  0  0  0  0  0  0  0  0  0  0  0
    7.9210  -15.6726   27.5346 O   0  0  0  0  0  0  0  0  0  0  0  0
  1  2  1  0
  3  2  1  0
  4  5  1  0
  4  3  1  0
  5  1  1  0
  5  6  1  1
  6  8  1  0
  7  6  2  0
  9 10  1  1
  9  8  1  0
  9 12  1  0
 11 10  1  0
 12 18  1  0
 13 12  2  0
 15 14  1  1
 15 16  1  0
 17 15  1  0
 17 18  1  6
 19 17  1  0
 19 20  1  0
 21 19  2  0
M  END
$$$$
