PCV.pdb
     RDKit          3D

 21 21  0  0  1  0  0  0  0  0999 V2000
    8.1305  -15.0481   19.9351 N   0  0  0  0  0  0  0  0  0  0  0  0
    9.3410  -15.8109   19.8433 C   0  0  0  0  0  0  0  0  0  0  0  0
    9.2691  -16.9060   20.8862 C   0  0  0  0  0  0  0  0  0  0  0  0
    7.7572  -16.9970   21.0876 C   0  0  0  0  0  0  0  0  0  0  0  0
    7.4102  -15.5018   21.0939 C   0  0  1  0  0  0  0  0  0  0  0  0
    7.9631  -14.8714   22.3063 C   0  0  0  0  0  0  0  0  0  0  0  0
    9.1204  -14.3362   22.2758 O   0  0  0  0  0  0  0  0  0  0  0  0
    7.2909  -14.8088   23.5468 N   0  0  0  0  0  0  0  0  0  0  0  0
    7.7838  -14.0923   24.6920 C   0  0  1  0  0  0  0  0  0  0  0  0
    6.6868  -13.5355   25.5602 C   0  0  0  0  0  0  0  0  0  0  0  0
    5.4752  -14.7786   26.0221 S   0  0  0  0  0  0  0  0  0  0  0  0
    8.6106  -15.0036   25.5246 C   0  0  0  0  0  0  0  0  0  0  0  0
    8.7351  -16.2377   25.2419 O   0  0  0  0  0  0  0  0  0  0  0  0
   11.5471  -15.4924   29.4593 C   0  0  0  0  0  0  0  0  0  0  0  0
   10.5235  -14.6827   28.7253 C   0  0  1  0  0  0  0  0  0  0  0  0
   10.9191  -13.2542   28.5314 C   0  0  0  0  0  0  0  0  0  0  0  0
   10.2312  -15.3745   27.3917 C   0  0  2  0  0  0  0  0  0  0  0  0
    9.3009  -14.5163   26.6841 N   0  0  0  0  0  0  0  0  0  0  0  0
    9.5870  -16.6660   27.7293 C   0  0  0  0  0  0  0  0  0  0  0  0
   10.3957  -17.7644   27.9646 O   0  0  0  0  0  0  0  0  0  0  0  0
    8.3455  -16.8252   27.8152 O   0  0  0  0  0  0  0  0  0  0  0  0
  1  2  1  0
  3  2  1  0
  4  5  1  0
  4  3  1  0
  5  1  1  0
  5  6  1  1
  6  8  1  0
  7  6  2  0
  9 10  1  1
  9  8  1  0
  9 12  1  0
 11 10  1  0
 12 18  1  0
 13 12  2  0
 15 14  1  6
 15 16  1  0
 17 15  1  0
 17 18  1  6
 19 17  1  0
 19 20  1  0
 21 19  2  0
M  END
$$$$
