PCV.pdb
     RDKit          3D

 21 21  0  0  1  0  0  0  0  0999 V2000
    7.9956  -14.9320   18.5158 N   0  0  0  0  0  0  0  0  0  0  0  0
    7.1026  -13.8401   18.2580 C   0  0  0  0  0  0  0  0  0  0  0  0
    7.5069  -12.6977   19.1655 C   0  0  0  0  0  0  0  0  0  0  0  0
    8.9611  -13.0711   19.4490 C   0  0  0  0  0  0  0  0  0  0  0  0
    8.8006  -14.5836   19.6550 C   0  0  1  0  0  0  0  0  0  0  0  0
    8.0474  -14.8359   20.8969 C   0  0  0  0  0  0  0  0  0  0  0  0
    6.8295  -14.4686   20.9900 O   0  0  0  0  0  0  0  0  0  0  0  0
    8.5839  -15.4754   22.0361 N   0  0  0  0  0  0  0  0  0  0  0  0
    7.8367  -15.7377   23.2363 C   0  0  1  0  0  0  0  0  0  0  0  0
    7.8160  -17.1949   23.6153 C   0  0  0  0  0  0  0  0  0  0  0  0
    6.9937  -17.4872   25.1854 S   0  0  0  0  0  0  0  0  0  0  0  0
    8.4347  -14.9782   24.3645 C   0  0  0  0  0  0  0  0  0  0  0  0
    9.6887  -14.9769   24.5783 O   0  0  0  0  0  0  0  0  0  0  0  0
    7.1896  -11.4111   25.7481 C   0  0  0  0  0  0  0  0  0  0  0  0
    7.2093  -12.4580   26.8186 C   0  0  1  0  0  0  0  0  0  0  0  0
    5.8597  -13.0225   27.1266 C   0  0  0  0  0  0  0  0  0  0  0  0
    8.1976  -13.5502   26.4028 C   0  0  2  0  0  0  0  0  0  0  0  0
    7.6094  -14.2155   25.2564 N   0  0  0  0  0  0  0  0  0  0  0  0
    8.2877  -14.4837   27.5506 C   0  0  0  0  0  0  0  0  0  0  0  0
    9.1084  -14.1453   28.6126 O   0  0  0  0  0  0  0  0  0  0  0  0
    7.6614  -15.5687   27.6187 O   0  0  0  0  0  0  0  0  0  0  0  0
  1  2  1  0
  3  2  1  0
  4  5  1  0
  4  3  1  0
  5  1  1  0
  5  6  1  1
  6  8  1  0
  7  6  2  0
  9 10  1  1
  9  8  1  0
  9 12  1  0
 11 10  1  0
 12 18  1  0
 13 12  2  0
 15 14  1  6
 15 16  1  0
 17 15  1  0
 17 18  1  6
 19 17  1  0
 19 20  1  0
 21 19  2  0
M  END
$$$$
