PCV.pdb
     RDKit          3D

 21 21  0  0  1  0  0  0  0  0999 V2000
    8.1274  -15.5191   19.9916 N   0  0  0  0  0  0  0  0  0  0  0  0
    6.9263  -14.8095   19.6601 C   0  0  0  0  0  0  0  0  0  0  0  0
    7.1508  -13.3514   19.9998 C   0  0  0  0  0  0  0  0  0  0  0  0
    8.6772  -13.2913   19.9654 C   0  0  0  0  0  0  0  0  0  0  0  0
    9.0005  -14.6094   20.6825 C   0  0  1  0  0  0  0  0  0  0  0  0
    8.6033  -14.5117   22.0987 C   0  0  0  0  0  0  0  0  0  0  0  0
    8.9097  -13.4759   22.7771 O   0  0  0  0  0  0  0  0  0  0  0  0
    7.8835  -15.5088   22.7932 N   0  0  0  0  0  0  0  0  0  0  0  0
    7.5170  -15.4155   24.1806 C   0  0  1  0  0  0  0  0  0  0  0  0
    6.4803  -16.4281   24.5893 C   0  0  0  0  0  0  0  0  0  0  0  0
    7.0774  -18.1173   24.4582 S   0  0  0  0  0  0  0  0  0  0  0  0
    8.7222  -15.6261   25.0235 C   0  0  0  0  0  0  0  0  0  0  0  0
    9.7742  -16.1710   24.5601 O   0  0  0  0  0  0  0  0  0  0  0  0
   10.9745  -14.7733   29.3153 C   0  0  0  0  0  0  0  0  0  0  0  0
    9.7901  -14.5406   28.4292 C   0  0  1  0  0  0  0  0  0  0  0  0
    9.6268  -13.1140   28.0132 C   0  0  0  0  0  0  0  0  0  0  0  0
    9.9052  -15.4724   27.2205 C   0  0  2  0  0  0  0  0  0  0  0  0
    8.7377  -15.2180   26.3987 N   0  0  0  0  0  0  0  0  0  0  0  0
    9.8662  -16.8529   27.7586 C   0  0  0  0  0  0  0  0  0  0  0  0
   11.0654  -17.4892   28.0286 O   0  0  0  0  0  0  0  0  0  0  0  0
    8.8058  -17.4839   27.9856 O   0  0  0  0  0  0  0  0  0  0  0  0
  1  2  1  0
  3  2  1  0
  4  5  1  0
  4  3  1  0
  5  1  1  0
  5  6  1  1
  6  8  1  0
  7  6  2  0
  9 10  1  1
  9  8  1  0
  9 12  1  0
 11 10  1  0
 12 18  1  0
 13 12  2  0
 15 14  1  1
 15 16  1  0
 17 15  1  0
 17 18  1  6
 19 17  1  0
 19 20  1  0
 21 19  2  0
M  END
$$$$
