PCV.pdb
     RDKit          3D

 21 21  0  0  1  0  0  0  0  0999 V2000
    8.0016  -14.9614   18.5091 N   0  0  0  0  0  0  0  0  0  0  0  0
    7.1390  -13.8537   18.2178 C   0  0  0  0  0  0  0  0  0  0  0  0
    7.5308  -12.7175   19.1384 C   0  0  0  0  0  0  0  0  0  0  0  0
    8.9665  -13.1172   19.4754 C   0  0  0  0  0  0  0  0  0  0  0  0
    8.7706  -14.6262   19.6768 C   0  0  1  0  0  0  0  0  0  0  0  0
    7.9679  -14.8624   20.8904 C   0  0  0  0  0  0  0  0  0  0  0  0
    6.7380  -14.5258   20.9172 O   0  0  0  0  0  0  0  0  0  0  0  0
    8.4679  -15.4536   22.0716 N   0  0  0  0  0  0  0  0  0  0  0  0
    7.6742  -15.6976   23.2456 C   0  0  1  0  0  0  0  0  0  0  0  0
    7.5766  -17.1572   23.6025 C   0  0  0  0  0  0  0  0  0  0  0  0
    6.7312  -17.4301   25.1638 S   0  0  0  0  0  0  0  0  0  0  0  0
    8.2720  -14.9811   24.4018 C   0  0  0  0  0  0  0  0  0  0  0  0
    9.5191  -15.0334   24.6475 O   0  0  0  0  0  0  0  0  0  0  0  0
    6.7821  -11.4915   25.7730 C   0  0  0  0  0  0  0  0  0  0  0  0
    7.0141  -12.4781   26.8753 C   0  0  1  0  0  0  0  0  0  0  0  0
    5.7650  -13.1496   27.3483 C   0  0  0  0  0  0  0  0  0  0  0  0
    8.0560  -13.4930   26.3990 C   0  0  2  0  0  0  0  0  0  0  0  0
    7.4544  -14.2007   25.2854 N   0  0  0  0  0  0  0  0  0  0  0  0
    8.2819  -14.4170   27.5357 C   0  0  0  0  0  0  0  0  0  0  0  0
    9.1125  -14.0062   28.5640 O   0  0  0  0  0  0  0  0  0  0  0  0
    7.7627  -15.5558   27.6233 O   0  0  0  0  0  0  0  0  0  0  0  0
  1  2  1  0
  3  2  1  0
  4  5  1  0
  4  3  1  0
  5  1  1  0
  5  6  1  1
  6  8  1  0
  7  6  2  0
  9 10  1  1
  9  8  1  0
  9 12  1  0
 11 10  1  0
 12 18  1  0
 13 12  2  0
 15 14  1  6
 15 16  1  0
 17 15  1  0
 17 18  1  6
 19 17  1  0
 19 20  1  0
 21 19  2  0
M  END
$$$$
