PCV.pdb
     RDKit          3D

 21 21  0  0  1  0  0  0  0  0999 V2000
    9.1537  -15.5733   20.1668 N   0  0  0  0  0  0  0  0  0  0  0  0
   10.4331  -16.1853   20.3778 C   0  0  0  0  0  0  0  0  0  0  0  0
   10.2584  -17.2509   21.4389 C   0  0  0  0  0  0  0  0  0  0  0  0
    8.7593  -17.5197   21.3166 C   0  0  0  0  0  0  0  0  0  0  0  0
    8.2530  -16.0784   21.1674 C   0  0  1  0  0  0  0  0  0  0  0  0
    8.4523  -15.3512   22.4341 C   0  0  0  0  0  0  0  0  0  0  0  0
    9.5079  -14.6577   22.6122 O   0  0  0  0  0  0  0  0  0  0  0  0
    7.5353  -15.3593   23.5082 N   0  0  0  0  0  0  0  0  0  0  0  0
    7.6947  -14.5798   24.7060 C   0  0  1  0  0  0  0  0  0  0  0  0
    6.3946  -14.3136   25.4175 C   0  0  0  0  0  0  0  0  0  0  0  0
    6.5658  -13.1085   26.7385 S   0  0  0  0  0  0  0  0  0  0  0  0
    8.5934  -15.2989   25.6455 C   0  0  0  0  0  0  0  0  0  0  0  0
    8.7383  -16.5618   25.5962 O   0  0  0  0  0  0  0  0  0  0  0  0
   11.4701  -15.0577   29.6324 C   0  0  0  0  0  0  0  0  0  0  0  0
   10.4881  -14.3851   28.7238 C   0  0  1  0  0  0  0  0  0  0  0  0
   10.9031  -13.0101   28.3091 C   0  0  0  0  0  0  0  0  0  0  0  0
   10.2536  -15.2937   27.5146 C   0  0  2  0  0  0  0  0  0  0  0  0
    9.3328  -14.5854   26.6467 N   0  0  0  0  0  0  0  0  0  0  0  0
    9.6212  -16.5264   28.0413 C   0  0  0  0  0  0  0  0  0  0  0  0
   10.4279  -17.6195   28.3064 O   0  0  0  0  0  0  0  0  0  0  0  0
    8.3916  -16.6402   28.2628 O   0  0  0  0  0  0  0  0  0  0  0  0
  1  2  1  0
  3  2  1  0
  4  5  1  0
  4  3  1  0
  5  1  1  0
  5  6  1  1
  6  8  1  0
  7  6  2  0
  9 10  1  1
  9  8  1  0
  9 12  1  0
 11 10  1  0
 12 18  1  0
 13 12  2  0
 15 14  1  1
 15 16  1  0
 17 15  1  0
 17 18  1  6
 19 17  1  0
 19 20  1  0
 21 19  2  0
M  END
$$$$
