PCV.pdb
     RDKit          3D

 21 21  0  0  1  0  0  0  0  0999 V2000
    8.1233  -15.1854   18.5549 N   0  0  0  0  0  0  0  0  0  0  0  0
    7.1922  -14.1532   18.2036 C   0  0  0  0  0  0  0  0  0  0  0  0
    7.4772  -12.9614   19.0926 C   0  0  0  0  0  0  0  0  0  0  0  0
    8.9282  -13.2449   19.4784 C   0  0  0  0  0  0  0  0  0  0  0  0
    8.8349  -14.7565   19.7284 C   0  0  1  0  0  0  0  0  0  0  0  0
    8.0188  -15.0091   20.9297 C   0  0  0  0  0  0  0  0  0  0  0  0
    6.8476  -14.5125   21.0212 O   0  0  0  0  0  0  0  0  0  0  0  0
    8.4434  -15.7857   22.0303 N   0  0  0  0  0  0  0  0  0  0  0  0
    7.6697  -15.9717   23.2281 C   0  0  1  0  0  0  0  0  0  0  0  0
    7.6755  -17.3938   23.7228 C   0  0  0  0  0  0  0  0  0  0  0  0
    6.8728  -17.5713   25.3200 S   0  0  0  0  0  0  0  0  0  0  0  0
    8.2162  -15.1080   24.3064 C   0  0  0  0  0  0  0  0  0  0  0  0
    9.4687  -14.9565   24.4703 O   0  0  0  0  0  0  0  0  0  0  0  0
    7.2282  -12.0273   28.0347 C   0  0  0  0  0  0  0  0  0  0  0  0
    6.7156  -12.8388   26.8854 C   0  0  1  0  0  0  0  0  0  0  0  0
    6.0025  -12.0270   25.8523 C   0  0  0  0  0  0  0  0  0  0  0  0
    7.8905  -13.6136   26.2838 C   0  0  2  0  0  0  0  0  0  0  0  0
    7.3411  -14.4114   25.2048 N   0  0  0  0  0  0  0  0  0  0  0  0
    8.4032  -14.4898   27.3638 C   0  0  0  0  0  0  0  0  0  0  0  0
    9.4296  -14.0182   28.1637 O   0  0  0  0  0  0  0  0  0  0  0  0
    7.9607  -15.6401   27.5985 O   0  0  0  0  0  0  0  0  0  0  0  0
  1  2  1  0
  3  2  1  0
  4  5  1  0
  4  3  1  0
  5  1  1  0
  5  6  1  1
  6  8  1  0
  7  6  2  0
  9 10  1  1
  9  8  1  0
  9 12  1  0
 11 10  1  0
 12 18  1  0
 13 12  2  0
 15 14  1  1
 15 16  1  0
 17 15  1  0
 17 18  1  6
 19 17  1  0
 19 20  1  0
 21 19  2  0
M  END
$$$$
