PCV.pdb
     RDKit          3D

 21 21  0  0  1  0  0  0  0  0999 V2000
    8.0003  -14.8361   19.1992 N   0  0  0  0  0  0  0  0  0  0  0  0
    6.9023  -13.9341   19.0083 C   0  0  0  0  0  0  0  0  0  0  0  0
    7.0978  -12.7717   19.9584 C   0  0  0  0  0  0  0  0  0  0  0  0
    8.6044  -12.8597   20.1966 C   0  0  0  0  0  0  0  0  0  0  0  0
    8.7520  -14.3810   20.3372 C   0  0  1  0  0  0  0  0  0  0  0  0
    8.0986  -14.8279   21.5807 C   0  0  0  0  0  0  0  0  0  0  0  0
    7.0176  -14.2728   21.9683 O   0  0  0  0  0  0  0  0  0  0  0  0
    8.5898  -15.8598   22.4105 N   0  0  0  0  0  0  0  0  0  0  0  0
    8.0561  -16.1684   23.7096 C   0  0  1  0  0  0  0  0  0  0  0  0
    7.5508  -17.5823   23.8223 C   0  0  0  0  0  0  0  0  0  0  0  0
    6.8098  -17.9241   25.4226 S   0  0  0  0  0  0  0  0  0  0  0  0
    9.1138  -15.9755   24.7350 C   0  0  0  0  0  0  0  0  0  0  0  0
   10.2954  -16.4155   24.5664 O   0  0  0  0  0  0  0  0  0  0  0  0
   10.4296  -13.8705   28.9867 C   0  0  0  0  0  0  0  0  0  0  0  0
    9.3883  -14.0520   27.9261 C   0  0  1  0  0  0  0  0  0  0  0  0
    9.0604  -12.7931   27.1896 C   0  0  0  0  0  0  0  0  0  0  0  0
    9.8586  -15.1564   26.9765 C   0  0  2  0  0  0  0  0  0  0  0  0
    8.8334  -15.2808   25.9585 N   0  0  0  0  0  0  0  0  0  0  0  0
    9.9325  -16.3945   27.7880 C   0  0  0  0  0  0  0  0  0  0  0  0
   11.1472  -16.7392   28.3553 O   0  0  0  0  0  0  0  0  0  0  0  0
    8.9552  -17.1539   27.9934 O   0  0  0  0  0  0  0  0  0  0  0  0
  1  2  1  0
  3  2  1  0
  4  5  1  0
  4  3  1  0
  5  1  1  0
  5  6  1  1
  6  8  1  0
  7  6  2  0
  9 10  1  6
  9  8  1  0
  9 12  1  0
 11 10  1  0
 12 18  1  0
 13 12  2  0
 15 14  1  1
 15 16  1  0
 17 15  1  0
 17 18  1  6
 19 17  1  0
 19 20  1  0
 21 19  2  0
M  END
$$$$
