NHT.pdb
     RDKit          3D

 26 26  0  0  1  0  0  0  0  0999 V2000
    7.7905  -15.0233   16.5671 N   0  0  0  0  0  0  0  0  0  0  0  0
    8.1777  -14.3708   17.7593 C   0  0  0  0  0  0  0  0  0  0  0  0
    9.1982  -14.8395   18.3644 O   0  0  0  0  0  0  0  0  0  0  0  0
    7.4607  -13.1942   18.3165 C   0  0  0  0  0  0  0  0  0  0  0  0
    8.1355  -12.8186   19.6014 C   0  0  2  0  0  0  0  0  0  0  0  0
    9.5654  -12.8209   19.4106 N   0  0  0  0  0  0  0  0  0  0  0  0
    7.7379  -13.7259   20.7231 C   0  0  0  0  0  0  0  0  0  0  0  0
    6.5273  -13.8039   20.9581 O   0  0  0  0  0  0  0  0  0  0  0  0
    8.6809  -14.4426   21.4608 N   0  0  0  0  0  0  0  0  0  0  0  0
    8.4957  -15.2817   22.5751 C   0  0  1  0  0  0  0  0  0  0  0  0
    9.1947  -16.6285   22.5444 C   0  0  0  0  0  0  0  0  0  0  0  0
    8.5987  -17.6139   21.6497 C   0  0  0  0  0  0  0  0  0  0  0  0
    7.4313  -17.3667   20.9387 C   0  0  0  0  0  0  0  0  0  0  0  0
    7.1534  -18.4655   20.2160 N   0  0  0  0  0  0  0  0  0  0  0  0
    8.0874  -19.3904   20.4372 C   0  0  0  0  0  0  0  0  0  0  0  0
    8.9558  -18.8572   21.3089 N   0  0  0  0  0  0  0  0  0  0  0  0
    8.7069  -14.6587   23.8779 C   0  0  0  0  0  0  0  0  0  0  0  0
    9.7794  -13.9794   24.0309 O   0  0  0  0  0  0  0  0  0  0  0  0
    6.8490  -11.9024   25.6198 C   0  0  0  0  0  0  0  0  0  0  0  0
    6.9325  -13.1092   26.5295 C   0  0  1  0  0  0  0  0  0  0  0  0
    5.7294  -13.7819   26.5118 O   0  0  0  0  0  0  0  0  0  0  0  0
    8.1133  -13.9895   26.1832 C   0  0  2  0  0  0  0  0  0  0  0  0
    7.8363  -14.7440   24.9636 N   0  0  0  0  0  0  0  0  0  0  0  0
    8.3067  -14.9214   27.3204 C   0  0  0  0  0  0  0  0  0  0  0  0
    8.1589  -16.1469   27.2026 O   0  0  0  0  0  0  0  0  0  0  0  0
    8.6626  -14.4037   28.5475 O   0  0  0  0  0  0  0  0  0  0  0  0
  2  3  2  0
  2  1  1  0
  4  2  1  0
  5  4  1  0
  5  6  1  6
  7  5  1  0
  7  9  1  0
  8  7  2  0
 10  9  1  0
 11 12  1  0
 10 11  1  6
 12 13  2  0
 13 14  1  0
 15 14  1  0
 16 12  1  0
 16 15  2  0
 17 18  2  0
 17 10  1  0
 20 19  1  6
 20 21  1  0
 22 23  1  6
 22 20  1  0
 23 17  1  0
 24 22  1  0
 25 24  2  0
 26 24  1  0
M  END
$$$$
