NHT.pdb
     RDKit          3D

 26 26  0  0  1  0  0  0  0  0999 V2000
   16.2183  -15.3789   18.6131 N   0  0  0  0  0  0  0  0  0  0  0  0
   15.4498  -16.1908   19.4776 C   0  0  0  0  0  0  0  0  0  0  0  0
   16.0577  -16.7014   20.4760 O   0  0  0  0  0  0  0  0  0  0  0  0
   14.0033  -16.4627   19.2717 C   0  0  0  0  0  0  0  0  0  0  0  0
   13.3522  -15.1735   18.8698 C   0  0  2  0  0  0  0  0  0  0  0  0
   14.3529  -14.1384   18.7802 N   0  0  0  0  0  0  0  0  0  0  0  0
   12.2570  -14.7870   19.8135 C   0  0  0  0  0  0  0  0  0  0  0  0
   12.5531  -13.9603   20.6828 O   0  0  0  0  0  0  0  0  0  0  0  0
   10.9751  -15.3296   19.7167 N   0  0  0  0  0  0  0  0  0  0  0  0
    9.8168  -15.0266   20.4559 C   0  0  1  0  0  0  0  0  0  0  0  0
    8.4862  -15.4143   19.8375 C   0  0  0  0  0  0  0  0  0  0  0  0
    8.2021  -14.7989   18.5462 C   0  0  0  0  0  0  0  0  0  0  0  0
    9.0296  -13.8380   17.9793 C   0  0  0  0  0  0  0  0  0  0  0  0
    8.4906  -13.4792   16.8013 N   0  0  0  0  0  0  0  0  0  0  0  0
    7.3663  -14.1663   16.5997 C   0  0  0  0  0  0  0  0  0  0  0  0
    7.2067  -14.9616   17.6676 N   0  0  0  0  0  0  0  0  0  0  0  0
    9.8351  -15.4369   21.8564 C   0  0  0  0  0  0  0  0  0  0  0  0
   10.7461  -16.2620   22.2089 O   0  0  0  0  0  0  0  0  0  0  0  0
    8.6320  -13.3514   25.3411 C   0  0  0  0  0  0  0  0  0  0  0  0
    8.1230  -14.7593   25.1186 C   0  0  1  0  0  0  0  0  0  0  0  0
    6.8142  -14.7120   24.6884 O   0  0  0  0  0  0  0  0  0  0  0  0
    9.0278  -15.5408   24.1914 C   0  0  2  0  0  0  0  0  0  0  0  0
    8.9433  -15.0025   22.8362 N   0  0  0  0  0  0  0  0  0  0  0  0
    8.5539  -16.9459   24.2068 C   0  0  0  0  0  0  0  0  0  0  0  0
    8.0091  -17.4701   23.2239 O   0  0  0  0  0  0  0  0  0  0  0  0
    8.7268  -17.6904   25.3542 O   0  0  0  0  0  0  0  0  0  0  0  0
  2  3  2  0
  2  1  1  0
  4  2  1  0
  5  4  1  0
  5  6  1  1
  7  5  1  0
  7  9  1  0
  8  7  2  0
 10  9  1  0
 11 12  1  0
 10 11  1  6
 12 13  2  0
 13 14  1  0
 15 14  1  0
 16 12  1  0
 16 15  2  0
 17 18  2  0
 17 10  1  0
 20 19  1  6
 20 21  1  0
 22 23  1  6
 22 20  1  0
 23 17  1  0
 24 22  1  0
 25 24  2  0
 26 24  1  0
M  END
$$$$
