NHT.pdb
     RDKit          3D

 26 26  0  0  1  0  0  0  0  0999 V2000
   10.7482  -19.2571   14.0070 N   0  0  0  0  0  0  0  0  0  0  0  0
   11.6399  -19.2792   15.1032 C   0  0  0  0  0  0  0  0  0  0  0  0
   12.4515  -20.2615   15.1626 O   0  0  0  0  0  0  0  0  0  0  0  0
   11.6652  -18.2313   16.1568 C   0  0  0  0  0  0  0  0  0  0  0  0
   11.1598  -18.8510   17.4250 C   0  0  2  0  0  0  0  0  0  0  0  0
    9.8413  -19.3921   17.2019 N   0  0  0  0  0  0  0  0  0  0  0  0
   11.1590  -17.8738   18.5583 C   0  0  0  0  0  0  0  0  0  0  0  0
   12.2543  -17.3875   18.8595 O   0  0  0  0  0  0  0  0  0  0  0  0
    9.9879  -17.5318   19.2357 N   0  0  0  0  0  0  0  0  0  0  0  0
    9.8188  -16.7441   20.3893 C   0  0  1  0  0  0  0  0  0  0  0  0
    8.4659  -16.0826   20.5771 C   0  0  0  0  0  0  0  0  0  0  0  0
    8.3816  -15.1559   21.7001 C   0  0  0  0  0  0  0  0  0  0  0  0
    7.5709  -15.3917   22.8030 C   0  0  0  0  0  0  0  0  0  0  0  0
    7.7210  -14.3573   23.6482 N   0  0  0  0  0  0  0  0  0  0  0  0
    8.5853  -13.4837   23.1318 C   0  0  0  0  0  0  0  0  0  0  0  0
    8.9758  -13.9838   21.9504 N   0  0  0  0  0  0  0  0  0  0  0  0
   10.2303  -17.3646   21.6445 C   0  0  0  0  0  0  0  0  0  0  0  0
    9.7550  -18.5229   21.9041 O   0  0  0  0  0  0  0  0  0  0  0  0
   13.3713  -17.9149   25.3935 C   0  0  0  0  0  0  0  0  0  0  0  0
   12.9035  -17.1440   24.1779 C   0  0  1  0  0  0  0  0  0  0  0  0
   13.8424  -17.2545   23.1746 O   0  0  0  0  0  0  0  0  0  0  0  0
   11.5168  -17.5683   23.7466 C   0  0  2  0  0  0  0  0  0  0  0  0
   11.0969  -16.7982   22.5785 N   0  0  0  0  0  0  0  0  0  0  0  0
   10.6067  -17.2949   24.8851 C   0  0  0  0  0  0  0  0  0  0  0  0
    9.9157  -16.2671   24.9464 O   0  0  0  0  0  0  0  0  0  0  0  0
   10.5296  -18.2169   25.9071 O   0  0  0  0  0  0  0  0  0  0  0  0
  2  3  2  0
  2  1  1  0
  4  2  1  0
  5  4  1  0
  5  6  1  6
  7  5  1  0
  7  9  1  0
  8  7  2  0
 10  9  1  0
 11 12  1  0
 10 11  1  1
 12 13  2  0
 13 14  1  0
 15 14  1  0
 16 12  1  0
 16 15  2  0
 17 18  2  0
 17 10  1  0
 20 19  1  1
 20 21  1  0
 22 23  1  6
 22 20  1  0
 23 17  1  0
 24 22  1  0
 25 24  2  0
 26 24  1  0
M  END
$$$$
