NHT.pdb
     RDKit          3D

 26 26  0  0  1  0  0  0  0  0999 V2000
   10.5172  -17.3105    9.9742 N   0  0  0  0  0  0  0  0  0  0  0  0
   10.1970  -16.3558   10.9657 C   0  0  0  0  0  0  0  0  0  0  0  0
   10.3707  -15.1299   10.6588 O   0  0  0  0  0  0  0  0  0  0  0  0
    9.6811  -16.7174   12.3117 C   0  0  0  0  0  0  0  0  0  0  0  0
   10.5220  -16.0031   13.3267 C   0  0  2  0  0  0  0  0  0  0  0  0
   11.8601  -16.5416   13.3053 N   0  0  0  0  0  0  0  0  0  0  0  0
    9.9273  -16.0859   14.6974 C   0  0  0  0  0  0  0  0  0  0  0  0
    8.8061  -15.5854   14.8363 O   0  0  0  0  0  0  0  0  0  0  0  0
   10.6009  -16.6938   15.7575 N   0  0  0  0  0  0  0  0  0  0  0  0
   10.1732  -16.9170   17.0794 C   0  0  1  0  0  0  0  0  0  0  0  0
   10.7868  -18.0974   17.8098 C   0  0  0  0  0  0  0  0  0  0  0  0
   10.4300  -19.4072   17.2770 C   0  0  0  0  0  0  0  0  0  0  0  0
    9.1710  -19.6848   16.7599 C   0  0  0  0  0  0  0  0  0  0  0  0
    9.1691  -20.9673   16.3573 N   0  0  0  0  0  0  0  0  0  0  0  0
   10.3635  -21.5092   16.5954 C   0  0  0  0  0  0  0  0  0  0  0  0
   11.1155  -20.5492   17.1532 N   0  0  0  0  0  0  0  0  0  0  0  0
   10.1868  -15.7489   17.9542 C   0  0  0  0  0  0  0  0  0  0  0  0
   11.2629  -15.0590   17.9867 O   0  0  0  0  0  0  0  0  0  0  0  0
    7.5451  -12.7318   18.7027 C   0  0  0  0  0  0  0  0  0  0  0  0
    7.9885  -13.5137   19.9204 C   0  0  1  0  0  0  0  0  0  0  0  0
    6.9796  -14.3685   20.3099 O   0  0  0  0  0  0  0  0  0  0  0  0
    9.3075  -14.2161   19.6839 C   0  0  2  0  0  0  0  0  0  0  0  0
    9.1248  -15.3267   18.7530 N   0  0  0  0  0  0  0  0  0  0  0  0
    9.7665  -14.7289   20.9975 C   0  0  0  0  0  0  0  0  0  0  0  0
    9.7883  -15.9399   21.2629 O   0  0  0  0  0  0  0  0  0  0  0  0
   10.1820  -13.8254   21.9524 O   0  0  0  0  0  0  0  0  0  0  0  0
  2  3  2  0
  2  1  1  0
  4  2  1  0
  5  4  1  0
  5  6  1  1
  7  5  1  0
  7  9  1  0
  8  7  2  0
 10  9  1  0
 11 12  1  0
 10 11  1  1
 12 13  2  0
 13 14  1  0
 15 14  1  0
 16 12  1  0
 16 15  2  0
 17 18  2  0
 17 10  1  0
 20 19  1  6
 20 21  1  0
 22 23  1  6
 22 20  1  0
 23 17  1  0
 24 22  1  0
 25 24  2  0
 26 24  1  0
M  END
$$$$
