NHT.pdb
     RDKit          3D

 26 26  0  0  1  0  0  0  0  0999 V2000
    6.8479  -22.1195   18.8734 N   0  0  0  0  0  0  0  0  0  0  0  0
    6.5870  -20.7387   19.0234 C   0  0  0  0  0  0  0  0  0  0  0  0
    5.7128  -20.2323   18.2446 O   0  0  0  0  0  0  0  0  0  0  0  0
    7.2733  -19.8817   20.0250 C   0  0  0  0  0  0  0  0  0  0  0  0
    7.6237  -18.5889   19.3518 C   0  0  2  0  0  0  0  0  0  0  0  0
    8.2597  -18.8641   18.0866 N   0  0  0  0  0  0  0  0  0  0  0  0
    8.4904  -17.7294   20.2174 C   0  0  0  0  0  0  0  0  0  0  0  0
    9.7071  -17.8035   20.0149 O   0  0  0  0  0  0  0  0  0  0  0  0
    7.9546  -16.8925   21.1970 N   0  0  0  0  0  0  0  0  0  0  0  0
    8.6046  -15.9778   22.0460 C   0  0  1  0  0  0  0  0  0  0  0  0
    8.0613  -14.5610   22.0742 C   0  0  0  0  0  0  0  0  0  0  0  0
    8.1166  -13.8525   20.8007 C   0  0  0  0  0  0  0  0  0  0  0  0
    6.9749  -13.5027   20.0911 C   0  0  0  0  0  0  0  0  0  0  0  0
    7.3679  -12.8679   18.9733 N   0  0  0  0  0  0  0  0  0  0  0  0
    8.6989  -12.8012   18.9451 C   0  0  0  0  0  0  0  0  0  0  0  0
    9.1364  -13.4030   20.0607 N   0  0  0  0  0  0  0  0  0  0  0  0
    8.8301  -16.4348   23.4136 C   0  0  0  0  0  0  0  0  0  0  0  0
    7.7961  -16.7225   24.1087 O   0  0  0  0  0  0  0  0  0  0  0  0
   11.7692  -19.1301   26.2535 C   0  0  0  0  0  0  0  0  0  0  0  0
   11.5503  -18.2198   25.0642 C   0  0  1  0  0  0  0  0  0  0  0  0
   11.6832  -18.9453   23.8997 O   0  0  0  0  0  0  0  0  0  0  0  0
   10.2329  -17.4819   25.1602 C   0  0  2  0  0  0  0  0  0  0  0  0
   10.0771  -16.5827   24.0196 N   0  0  0  0  0  0  0  0  0  0  0  0
   10.2660  -16.6990   26.4192 C   0  0  0  0  0  0  0  0  0  0  0  0
   10.4407  -15.4714   26.4294 O   0  0  0  0  0  0  0  0  0  0  0  0
   10.0965  -17.3622   27.6159 O   0  0  0  0  0  0  0  0  0  0  0  0
  2  3  2  0
  2  1  1  0
  4  2  1  0
  5  4  1  0
  5  6  1  6
  7  5  1  0
  7  9  1  0
  8  7  2  0
 10  9  1  0
 11 12  1  0
 10 11  1  1
 12 13  2  0
 13 14  1  0
 15 14  1  0
 16 12  1  0
 16 15  2  0
 17 18  2  0
 17 10  1  0
 20 19  1  1
 20 21  1  0
 22 23  1  6
 22 20  1  0
 23 17  1  0
 24 22  1  0
 25 24  2  0
 26 24  1  0
M  END
$$$$
