NHT.pdb
     RDKit          3D

 26 26  0  0  1  0  0  0  0  0999 V2000
    9.5510  -13.2324   17.2416 N   0  0  0  0  0  0  0  0  0  0  0  0
    8.1589  -13.4063   17.4119 C   0  0  0  0  0  0  0  0  0  0  0  0
    7.4342  -13.2880   16.3688 O   0  0  0  0  0  0  0  0  0  0  0  0
    7.5283  -13.7128   18.7223 C   0  0  0  0  0  0  0  0  0  0  0  0
    8.6092  -13.6954   19.7610 C   0  0  2  0  0  0  0  0  0  0  0  0
    9.6942  -14.5468   19.3381 N   0  0  0  0  0  0  0  0  0  0  0  0
    8.0937  -14.1033   21.1053 C   0  0  0  0  0  0  0  0  0  0  0  0
    7.1086  -13.4846   21.5220 O   0  0  0  0  0  0  0  0  0  0  0  0
    8.6918  -15.1240   21.8453 N   0  0  0  0  0  0  0  0  0  0  0  0
    8.2649  -15.7310   23.0408 C   0  0  1  0  0  0  0  0  0  0  0  0
    8.2743  -17.2481   23.0824 C   0  0  0  0  0  0  0  0  0  0  0  0
    7.3629  -17.8977   22.1474 C   0  0  0  0  0  0  0  0  0  0  0  0
    7.7603  -18.3084   20.8814 C   0  0  0  0  0  0  0  0  0  0  0  0
    6.6945  -18.8640   20.2795 N   0  0  0  0  0  0  0  0  0  0  0  0
    5.6476  -18.8228   21.1037 C   0  0  0  0  0  0  0  0  0  0  0  0
    6.0709  -18.2337   22.2315 N   0  0  0  0  0  0  0  0  0  0  0  0
    8.8678  -15.2116   24.2642 C   0  0  0  0  0  0  0  0  0  0  0  0
   10.1361  -15.0486   24.2639 O   0  0  0  0  0  0  0  0  0  0  0  0
    7.8320  -11.9903   26.2834 C   0  0  0  0  0  0  0  0  0  0  0  0
    8.0010  -13.1965   27.1819 C   0  0  1  0  0  0  0  0  0  0  0  0
    6.7608  -13.6716   27.5513 O   0  0  0  0  0  0  0  0  0  0  0  0
    8.8777  -14.2510   26.5428 C   0  0  2  0  0  0  0  0  0  0  0  0
    8.1745  -14.8797   25.4275 N   0  0  0  0  0  0  0  0  0  0  0  0
    9.1717  -15.2612   27.5879 C   0  0  0  0  0  0  0  0  0  0  0  0
    8.8044  -16.4413   27.4879 O   0  0  0  0  0  0  0  0  0  0  0  0
    9.8771  -14.8708   28.7062 O   0  0  0  0  0  0  0  0  0  0  0  0
  2  3  2  0
  2  1  1  0
  4  2  1  0
  5  4  1  0
  5  6  1  6
  7  5  1  0
  7  9  1  0
  8  7  2  0
 10  9  1  0
 11 12  1  0
 10 11  1  6
 12 13  2  0
 13 14  1  0
 15 14  1  0
 16 12  1  0
 16 15  2  0
 17 18  2  0
 17 10  1  0
 20 19  1  6
 20 21  1  0
 22 23  1  6
 22 20  1  0
 23 17  1  0
 24 22  1  0
 25 24  2  0
 26 24  1  0
M  END
$$$$
