NHT.pdb
     RDKit          3D

 26 26  0  0  1  0  0  0  0  0999 V2000
    8.0732  -12.8851   16.6052 N   0  0  0  0  0  0  0  0  0  0  0  0
    7.8649  -13.9354   17.5275 C   0  0  0  0  0  0  0  0  0  0  0  0
    8.1579  -15.1123   17.1323 O   0  0  0  0  0  0  0  0  0  0  0  0
    7.3331  -13.7245   18.8992 C   0  0  0  0  0  0  0  0  0  0  0  0
    8.4632  -13.9364   19.8613 C   0  0  2  0  0  0  0  0  0  0  0  0
    9.3457  -14.9553   19.3476 N   0  0  0  0  0  0  0  0  0  0  0  0
    7.9689  -14.2883   21.2292 C   0  0  0  0  0  0  0  0  0  0  0  0
    7.2886  -13.4294   21.8006 O   0  0  0  0  0  0  0  0  0  0  0  0
    8.2600  -15.5162   21.8248 N   0  0  0  0  0  0  0  0  0  0  0  0
    7.9367  -15.9860   23.1111 C   0  0  1  0  0  0  0  0  0  0  0  0
    8.2437  -17.4424   23.4078 C   0  0  0  0  0  0  0  0  0  0  0  0
    7.7852  -17.9183   24.7078 C   0  0  0  0  0  0  0  0  0  0  0  0
    6.4392  -18.0761   25.0125 C   0  0  0  0  0  0  0  0  0  0  0  0
    6.3570  -18.5251   26.2768 N   0  0  0  0  0  0  0  0  0  0  0  0
    7.5836  -18.6571   26.7817 C   0  0  0  0  0  0  0  0  0  0  0  0
    8.4372  -18.2849   25.8168 N   0  0  0  0  0  0  0  0  0  0  0  0
    8.4008  -15.1598   24.2212 C   0  0  0  0  0  0  0  0  0  0  0  0
    9.6549  -14.9178   24.2815 O   0  0  0  0  0  0  0  0  0  0  0  0
    6.7790  -11.6909   25.6147 C   0  0  0  0  0  0  0  0  0  0  0  0
    7.1007  -12.7237   26.6733 C   0  0  1  0  0  0  0  0  0  0  0  0
    5.9374  -13.3396   27.0827 O   0  0  0  0  0  0  0  0  0  0  0  0
    8.1573  -13.6981   26.2008 C   0  0  2  0  0  0  0  0  0  0  0  0
    7.5896  -14.6153   25.2159 N   0  0  0  0  0  0  0  0  0  0  0  0
    8.6119  -14.4550   27.3922 C   0  0  0  0  0  0  0  0  0  0  0  0
    8.4333  -15.6768   27.5064 O   0  0  0  0  0  0  0  0  0  0  0  0
    9.2542  -13.7736   28.4040 O   0  0  0  0  0  0  0  0  0  0  0  0
  2  3  2  0
  2  1  1  0
  4  2  1  0
  5  4  1  0
  5  6  1  6
  7  5  1  0
  7  9  1  0
  8  7  2  0
 10  9  1  0
 11 12  1  0
 10 11  1  1
 12 13  2  0
 13 14  1  0
 15 14  1  0
 16 12  1  0
 16 15  2  0
 17 18  2  0
 17 10  1  0
 20 19  1  6
 20 21  1  0
 22 23  1  6
 22 20  1  0
 23 17  1  0
 24 22  1  0
 25 24  2  0
 26 24  1  0
M  END
$$$$
