KGR.pdb
     RDKit          3D

 25 24  0  0  1  0  0  0  0  0999 V2000
   25.5404  -24.2532  -14.9357 N   0  0  0  0  0  0  0  0  0  0  0  0
   24.9382  -23.2953  -15.8050 C   0  0  1  0  0  0  0  0  0  0  0  0
   23.4855  -23.1092  -15.5634 C   0  0  0  0  0  0  0  0  0  0  0  0
   22.7279  -24.2846  -15.0600 C   0  0  0  0  0  0  0  0  0  0  0  0
   21.2802  -24.0389  -14.7403 C   0  0  0  0  0  0  0  0  0  0  0  0
   20.7426  -25.3788  -14.2111 C   0  0  0  0  0  0  0  0  0  0  0  0
   19.3641  -25.2445  -13.8028 N   0  0  0  0  0  0  0  0  0  0  0  0
   25.7037  -22.0205  -15.6569 C   0  0  0  0  0  0  0  0  0  0  0  0
   25.9341  -21.2538  -16.6334 O   0  0  0  0  0  0  0  0  0  0  0  0
   26.2060  -21.6199  -14.3967 N   0  0  0  0  0  0  0  0  0  0  0  0
   26.9431  -20.4038  -14.2388 C   0  0  0  0  0  0  0  0  0  0  0  0
   26.0211  -19.2274  -14.1713 C   0  0  0  0  0  0  0  0  0  0  0  0
   24.9004  -19.3013  -13.5832 O   0  0  0  0  0  0  0  0  0  0  0  0
   28.5634  -12.8337  -19.0705 N   0  0  0  0  0  0  0  0  0  0  0  0
   27.8574  -13.9797  -19.6080 C   0  0  0  0  0  0  0  0  0  0  0  0
   27.8979  -14.1626  -20.8822 N   0  0  0  0  0  0  0  0  0  0  0  0
   27.1648  -14.8358  -18.7394 N   0  0  0  0  0  0  0  0  0  0  0  0
   27.1320  -14.5423  -17.2847 C   0  0  0  0  0  0  0  0  0  0  0  0
   26.3452  -15.6093  -16.6363 C   0  0  0  0  0  0  0  0  0  0  0  0
   26.1485  -15.7092  -15.2072 C   0  0  0  0  0  0  0  0  0  0  0  0
   25.3688  -16.8234  -14.5910 C   0  0  2  0  0  0  0  0  0  0  0  0
   26.3450  -17.9848  -14.7523 N   0  0  0  0  0  0  0  0  0  0  0  0
   24.2033  -17.1826  -15.4176 C   0  0  0  0  0  0  0  0  0  0  0  0
   22.9476  -16.6915  -15.3200 O   0  0  0  0  0  0  0  0  0  0  0  0
   24.3850  -18.0634  -16.3320 O   0  0  0  0  0  0  0  0  0  0  0  0
  2  1  1  1
  3  2  1  0
  4  3  1  0
  5  4  1  0
  5  6  1  0
  6  7  1  0
  8  9  2  0
  8  2  1  0
 10  8  1  0
 11 10  1  0
 12 11  1  0
 12 22  1  0
 13 12  2  0
 15 14  1  0
 16 15  2  0
 17 15  1  0
 18 17  1  0
 19 18  1  0
 21 20  1  6
 20 19  1  0
 21 22  1  0
 23 21  1  0
 24 23  1  0
 25 23  2  0
M  END
$$$$
