KGR.pdb
     RDKit          3D

 25 24  0  0  1  0  0  0  0  0999 V2000
   27.3928  -21.7213  -17.4582 N   0  0  0  0  0  0  0  0  0  0  0  0
   27.7171  -20.3364  -17.5734 C   0  0  1  0  0  0  0  0  0  0  0  0
   26.6429  -19.5285  -18.2033 C   0  0  0  0  0  0  0  0  0  0  0  0
   25.2445  -19.8336  -17.8029 C   0  0  0  0  0  0  0  0  0  0  0  0
   24.8169  -19.2959  -16.4663 C   0  0  0  0  0  0  0  0  0  0  0  0
   23.3509  -19.7284  -16.2986 C   0  0  0  0  0  0  0  0  0  0  0  0
   22.6629  -18.8413  -15.3905 N   0  0  0  0  0  0  0  0  0  0  0  0
   28.0630  -19.8476  -16.2044 C   0  0  0  0  0  0  0  0  0  0  0  0
   28.2452  -18.6242  -15.9501 O   0  0  0  0  0  0  0  0  0  0  0  0
   28.2008  -20.7525  -15.1259 N   0  0  0  0  0  0  0  0  0  0  0  0
   28.4641  -20.2949  -13.7960 C   0  0  0  0  0  0  0  0  0  0  0  0
   27.1926  -19.9302  -13.0971 C   0  0  0  0  0  0  0  0  0  0  0  0
   26.8441  -18.7200  -12.9515 O   0  0  0  0  0  0  0  0  0  0  0  0
   19.0643  -20.8568  -12.5114 N   0  0  0  0  0  0  0  0  0  0  0  0
   19.7886  -20.6604  -13.7514 C   0  0  0  0  0  0  0  0  0  0  0  0
   19.2179  -19.9653  -14.6731 N   0  0  0  0  0  0  0  0  0  0  0  0
   21.0636  -21.2243  -13.9050 N   0  0  0  0  0  0  0  0  0  0  0  0
   21.6237  -22.0852  -12.8334 C   0  0  0  0  0  0  0  0  0  0  0  0
   22.6615  -21.3023  -12.1347 C   0  0  0  0  0  0  0  0  0  0  0  0
   24.0026  -21.1108  -12.6408 C   0  0  0  0  0  0  0  0  0  0  0  0
   25.0652  -20.4407  -11.8341 C   0  0  2  0  0  0  0  0  0  0  0  0
   26.3210  -20.9029  -12.5673 N   0  0  0  0  0  0  0  0  0  0  0  0
   25.1670  -21.0297  -10.4876 C   0  0  0  0  0  0  0  0  0  0  0  0
   24.5626  -20.5990   -9.3576 O   0  0  0  0  0  0  0  0  0  0  0  0
   25.9144  -22.0637  -10.3573 O   0  0  0  0  0  0  0  0  0  0  0  0
  2  1  1  1
  3  2  1  0
  4  3  1  0
  5  4  1  0
  5  6  1  0
  6  7  1  0
  8  9  2  0
  8  2  1  0
 10  8  1  0
 11 10  1  0
 12 11  1  0
 12 22  1  0
 13 12  2  0
 15 14  1  0
 16 15  2  0
 17 15  1  0
 18 17  1  0
 19 18  1  0
 21 20  1  6
 20 19  1  0
 21 22  1  0
 23 21  1  0
 24 23  1  0
 25 23  2  0
M  END
$$$$
