KGR.pdb
     RDKit          3D

 25 24  0  0  1  0  0  0  0  0999 V2000
   21.4050  -23.7103  -17.1673 N   0  0  0  0  0  0  0  0  0  0  0  0
   21.6193  -22.3311  -16.8705 C   0  0  1  0  0  0  0  0  0  0  0  0
   21.0356  -21.4120  -17.8794 C   0  0  0  0  0  0  0  0  0  0  0  0
   21.9189  -20.3402  -18.4086 C   0  0  0  0  0  0  0  0  0  0  0  0
   21.9781  -19.0810  -17.5905 C   0  0  0  0  0  0  0  0  0  0  0  0
   22.9084  -18.1315  -18.3635 C   0  0  0  0  0  0  0  0  0  0  0  0
   24.2358  -18.1511  -17.7955 N   0  0  0  0  0  0  0  0  0  0  0  0
   21.0771  -22.0840  -15.5001 C   0  0  0  0  0  0  0  0  0  0  0  0
   21.2879  -21.0076  -14.8744 O   0  0  0  0  0  0  0  0  0  0  0  0
   20.2948  -23.0628  -14.8437 N   0  0  0  0  0  0  0  0  0  0  0  0
   19.7071  -22.8136  -13.5632 C   0  0  0  0  0  0  0  0  0  0  0  0
   18.7548  -23.9064  -13.1927 C   0  0  0  0  0  0  0  0  0  0  0  0
   18.5664  -24.9026  -13.9538 O   0  0  0  0  0  0  0  0  0  0  0  0
   16.7321  -25.6714   -5.7251 N   0  0  0  0  0  0  0  0  0  0  0  0
   18.0727  -25.6404   -6.2750 C   0  0  0  0  0  0  0  0  0  0  0  0
   18.9504  -24.9182   -5.6695 N   0  0  0  0  0  0  0  0  0  0  0  0
   18.3652  -26.3833   -7.4282 N   0  0  0  0  0  0  0  0  0  0  0  0
   17.4008  -26.4047   -8.5564 C   0  0  0  0  0  0  0  0  0  0  0  0
   17.4333  -25.0726   -9.1908 C   0  0  0  0  0  0  0  0  0  0  0  0
   16.6128  -24.6992  -10.3215 C   0  0  0  0  0  0  0  0  0  0  0  0
   17.0148  -25.0038  -11.7267 C   0  0  2  0  0  0  0  0  0  0  0  0
   18.0220  -23.8881  -11.9889 N   0  0  0  0  0  0  0  0  0  0  0  0
   15.9086  -24.7524  -12.6667 C   0  0  0  0  0  0  0  0  0  0  0  0
   15.1206  -25.6714  -13.2685 O   0  0  0  0  0  0  0  0  0  0  0  0
   15.6584  -23.5294  -12.9606 O   0  0  0  0  0  0  0  0  0  0  0  0
  2  1  1  6
  3  2  1  0
  4  3  1  0
  5  4  1  0
  5  6  1  0
  6  7  1  0
  8  9  2  0
  8  2  1  0
 10  8  1  0
 11 10  1  0
 12 11  1  0
 12 22  1  0
 13 12  2  0
 15 14  1  0
 16 15  2  0
 17 15  1  0
 18 17  1  0
 19 18  1  0
 21 20  1  1
 20 19  1  0
 21 22  1  0
 23 21  1  0
 24 23  1  0
 25 23  2  0
M  END
$$$$
