KGR.pdb
     RDKit          3D

 25 24  0  0  1  0  0  0  0  0999 V2000
   24.2642  -19.1881  -16.1985 N   0  0  0  0  0  0  0  0  0  0  0  0
   24.7734  -20.0073  -15.1470 C   0  0  1  0  0  0  0  0  0  0  0  0
   26.0842  -19.5487  -14.6227 C   0  0  0  0  0  0  0  0  0  0  0  0
   27.3023  -20.1099  -15.2631 C   0  0  0  0  0  0  0  0  0  0  0  0
   27.1047  -21.3839  -16.0354 C   0  0  0  0  0  0  0  0  0  0  0  0
   28.5071  -21.7985  -16.5109 C   0  0  0  0  0  0  0  0  0  0  0  0
   28.4397  -23.0182  -17.2806 N   0  0  0  0  0  0  0  0  0  0  0  0
   23.7265  -20.0619  -14.0821 C   0  0  0  0  0  0  0  0  0  0  0  0
   23.7061  -19.2528  -13.1130 O   0  0  0  0  0  0  0  0  0  0  0  0
   22.7034  -21.0379  -14.1222 N   0  0  0  0  0  0  0  0  0  0  0  0
   21.6369  -21.0414  -13.1683 C   0  0  0  0  0  0  0  0  0  0  0  0
   20.6605  -22.1354  -13.4655 C   0  0  0  0  0  0  0  0  0  0  0  0
   20.8895  -22.9961  -14.3677 O   0  0  0  0  0  0  0  0  0  0  0  0
   16.5316  -25.3824   -7.1955 N   0  0  0  0  0  0  0  0  0  0  0  0
   17.8414  -24.7643   -7.1415 C   0  0  0  0  0  0  0  0  0  0  0  0
   18.5994  -25.0567   -6.1422 N   0  0  0  0  0  0  0  0  0  0  0  0
   18.2334  -23.8829   -8.1597 N   0  0  0  0  0  0  0  0  0  0  0  0
   17.3375  -23.6510   -9.3203 C   0  0  0  0  0  0  0  0  0  0  0  0
   18.1797  -23.6341  -10.5321 C   0  0  0  0  0  0  0  0  0  0  0  0
   17.6601  -23.4678  -11.8713 C   0  0  0  0  0  0  0  0  0  0  0  0
   18.5489  -23.4645  -13.0709 C   0  0  2  0  0  0  0  0  0  0  0  0
   19.4444  -22.2675  -12.7654 N   0  0  0  0  0  0  0  0  0  0  0  0
   17.8063  -23.0892  -14.2867 C   0  0  0  0  0  0  0  0  0  0  0  0
   17.6183  -21.8446  -14.7800 O   0  0  0  0  0  0  0  0  0  0  0  0
   17.2674  -24.0394  -14.9586 O   0  0  0  0  0  0  0  0  0  0  0  0
  2  1  1  6
  3  2  1  0
  4  3  1  0
  5  4  1  0
  5  6  1  0
  6  7  1  0
  8  9  2  0
  8  2  1  0
 10  8  1  0
 11 10  1  0
 12 11  1  0
 12 22  1  0
 13 12  2  0
 15 14  1  0
 16 15  2  0
 17 15  1  0
 18 17  1  0
 19 18  1  0
 21 20  1  1
 20 19  1  0
 21 22  1  0
 23 21  1  0
 24 23  1  0
 25 23  2  0
M  END
$$$$
