KGR.pdb
     RDKit          3D

 25 24  0  0  1  0  0  0  0  0999 V2000
   20.9369  -19.2808  -13.3794 N   0  0  0  0  0  0  0  0  0  0  0  0
   20.6365  -20.2654  -14.3676 C   0  0  1  0  0  0  0  0  0  0  0  0
   21.8311  -21.0045  -14.8474 C   0  0  0  0  0  0  0  0  0  0  0  0
   22.8491  -20.2274  -15.6015 C   0  0  0  0  0  0  0  0  0  0  0  0
   23.3576  -20.8693  -16.8616 C   0  0  0  0  0  0  0  0  0  0  0  0
   24.3346  -19.8531  -17.4757 C   0  0  0  0  0  0  0  0  0  0  0  0
   24.8996  -20.3710  -18.6994 N   0  0  0  0  0  0  0  0  0  0  0  0
   19.6045  -21.1760  -13.7856 C   0  0  0  0  0  0  0  0  0  0  0  0
   19.0420  -22.0803  -14.4640 O   0  0  0  0  0  0  0  0  0  0  0  0
   19.2143  -21.0561  -12.4312 N   0  0  0  0  0  0  0  0  0  0  0  0
   18.2151  -21.9086  -11.8637 C   0  0  0  0  0  0  0  0  0  0  0  0
   18.7943  -22.7565  -10.7756 C   0  0  0  0  0  0  0  0  0  0  0  0
   20.0477  -22.8906  -10.6410 O   0  0  0  0  0  0  0  0  0  0  0  0
   15.9105  -25.5448   -3.8839 N   0  0  0  0  0  0  0  0  0  0  0  0
   17.1033  -26.3567   -3.7461 C   0  0  0  0  0  0  0  0  0  0  0  0
   17.0422  -27.3810   -2.9680 N   0  0  0  0  0  0  0  0  0  0  0  0
   18.2643  -26.0062   -4.4506 N   0  0  0  0  0  0  0  0  0  0  0  0
   18.2482  -24.8365   -5.3643 C   0  0  0  0  0  0  0  0  0  0  0  0
   17.6006  -25.2649   -6.6193 C   0  0  0  0  0  0  0  0  0  0  0  0
   17.4976  -24.4322   -7.7971 C   0  0  0  0  0  0  0  0  0  0  0  0
   18.6591  -24.1974   -8.7051 C   0  0  2  0  0  0  0  0  0  0  0  0
   17.9857  -23.4459   -9.8496 N   0  0  0  0  0  0  0  0  0  0  0  0
   19.1369  -25.4574   -9.3005 C   0  0  0  0  0  0  0  0  0  0  0  0
   20.2244  -26.1739   -8.9376 O   0  0  0  0  0  0  0  0  0  0  0  0
   18.4578  -25.9362  -10.2774 O   0  0  0  0  0  0  0  0  0  0  0  0
  2  1  1  1
  3  2  1  0
  4  3  1  0
  5  4  1  0
  5  6  1  0
  6  7  1  0
  8  9  2  0
  8  2  1  0
 10  8  1  0
 11 10  1  0
 12 11  1  0
 12 22  1  0
 13 12  2  0
 15 14  1  0
 16 15  2  0
 17 15  1  0
 18 17  1  0
 19 18  1  0
 21 20  1  1
 20 19  1  0
 21 22  1  0
 23 21  1  0
 24 23  1  0
 25 23  2  0
M  END
$$$$
