KGR.pdb
     RDKit          3D

 25 24  0  0  1  0  0  0  0  0999 V2000
   25.7998  -21.2439  -17.0014 N   0  0  0  0  0  0  0  0  0  0  0  0
   27.2072  -21.3007  -17.2298 C   0  0  1  0  0  0  0  0  0  0  0  0
   27.6444  -20.5273  -18.4189 C   0  0  0  0  0  0  0  0  0  0  0  0
   28.6111  -21.1860  -19.3358 C   0  0  0  0  0  0  0  0  0  0  0  0
   29.6121  -22.0970  -18.6827 C   0  0  0  0  0  0  0  0  0  0  0  0
   30.5528  -22.5510  -19.8112 C   0  0  0  0  0  0  0  0  0  0  0  0
   31.4818  -23.5442  -19.3259 N   0  0  0  0  0  0  0  0  0  0  0  0
   27.8778  -20.8384  -15.9770 C   0  0  0  0  0  0  0  0  0  0  0  0
   28.9616  -21.3400  -15.5665 O   0  0  0  0  0  0  0  0  0  0  0  0
   27.3138  -19.8050  -15.1929 N   0  0  0  0  0  0  0  0  0  0  0  0
   27.9824  -19.2970  -14.0343 C   0  0  0  0  0  0  0  0  0  0  0  0
   27.1407  -19.4800  -12.8110 C   0  0  0  0  0  0  0  0  0  0  0  0
   27.4918  -18.9998  -11.6915 O   0  0  0  0  0  0  0  0  0  0  0  0
   19.6747  -21.0262  -11.1654 N   0  0  0  0  0  0  0  0  0  0  0  0
   19.5783  -19.8710  -12.0353 C   0  0  0  0  0  0  0  0  0  0  0  0
   18.6540  -19.0099  -11.7849 N   0  0  0  0  0  0  0  0  0  0  0  0
   20.4773  -19.7314  -13.1027 N   0  0  0  0  0  0  0  0  0  0  0  0
   21.5621  -20.7273  -13.2889 C   0  0  0  0  0  0  0  0  0  0  0  0
   22.8046  -20.1312  -12.7606 C   0  0  0  0  0  0  0  0  0  0  0  0
   23.8334  -20.8857  -12.0798 C   0  0  0  0  0  0  0  0  0  0  0  0
   25.0788  -20.2421  -11.5664 C   0  0  2  0  0  0  0  0  0  0  0  0
   25.9231  -20.1895  -12.8362 N   0  0  0  0  0  0  0  0  0  0  0  0
   25.8095  -21.1403  -10.6554 C   0  0  0  0  0  0  0  0  0  0  0  0
   25.7495  -21.1626   -9.3050 O   0  0  0  0  0  0  0  0  0  0  0  0
   26.5992  -21.9979  -11.1898 O   0  0  0  0  0  0  0  0  0  0  0  0
  2  1  1  1
  3  2  1  0
  4  3  1  0
  5  4  1  0
  5  6  1  0
  6  7  1  0
  8  9  2  0
  8  2  1  0
 10  8  1  0
 11 10  1  0
 12 11  1  0
 12 22  1  0
 13 12  2  0
 15 14  1  0
 16 15  2  0
 17 15  1  0
 18 17  1  0
 19 18  1  0
 21 20  1  6
 20 19  1  0
 21 22  1  0
 23 21  1  0
 24 23  1  0
 25 23  2  0
M  END
$$$$
