KGR.pdb
     RDKit          3D

 25 24  0  0  1  0  0  0  0  0999 V2000
   23.5345  -20.1007  -18.0339 N   0  0  0  0  0  0  0  0  0  0  0  0
   24.3338  -19.1093  -17.3903 C   0  0  1  0  0  0  0  0  0  0  0  0
   24.4387  -17.8442  -18.1596 C   0  0  0  0  0  0  0  0  0  0  0  0
   24.8132  -17.9540  -19.5937 C   0  0  0  0  0  0  0  0  0  0  0  0
   26.2830  -18.0914  -19.8751 C   0  0  0  0  0  0  0  0  0  0  0  0
   26.4166  -18.0281  -21.4056 C   0  0  0  0  0  0  0  0  0  0  0  0
   27.7688  -18.3353  -21.8081 N   0  0  0  0  0  0  0  0  0  0  0  0
   23.7611  -18.8959  -16.0267 C   0  0  0  0  0  0  0  0  0  0  0  0
   24.2300  -18.0419  -15.2234 O   0  0  0  0  0  0  0  0  0  0  0  0
   22.6545  -19.6550  -15.5793 N   0  0  0  0  0  0  0  0  0  0  0  0
   21.9982  -19.3608  -14.3424 C   0  0  0  0  0  0  0  0  0  0  0  0
   20.8410  -20.2830  -14.1214 C   0  0  0  0  0  0  0  0  0  0  0  0
   20.0720  -20.6155  -15.0729 O   0  0  0  0  0  0  0  0  0  0  0  0
   18.8301  -24.8775   -7.7221 N   0  0  0  0  0  0  0  0  0  0  0  0
   17.8977  -25.4115   -8.6948 C   0  0  0  0  0  0  0  0  0  0  0  0
   17.7997  -26.6922   -8.7881 N   0  0  0  0  0  0  0  0  0  0  0  0
   17.1472  -24.5325   -9.4893 N   0  0  0  0  0  0  0  0  0  0  0  0
   17.6856  -23.1875   -9.8125 C   0  0  0  0  0  0  0  0  0  0  0  0
   18.7906  -23.3730  -10.7730 C   0  0  0  0  0  0  0  0  0  0  0  0
   19.5683  -22.2861  -11.3253 C   0  0  0  0  0  0  0  0  0  0  0  0
   19.4027  -21.8316  -12.7377 C   0  0  2  0  0  0  0  0  0  0  0  0
   20.5453  -20.8272  -12.8553 N   0  0  0  0  0  0  0  0  0  0  0  0
   18.1733  -21.0371  -12.9041 C   0  0  0  0  0  0  0  0  0  0  0  0
   17.9379  -19.7869  -12.4466 O   0  0  0  0  0  0  0  0  0  0  0  0
   17.2078  -21.5830  -13.5480 O   0  0  0  0  0  0  0  0  0  0  0  0
  2  1  1  6
  3  2  1  0
  4  3  1  0
  5  4  1  0
  5  6  1  0
  6  7  1  0
  8  9  2  0
  8  2  1  0
 10  8  1  0
 11 10  1  0
 12 11  1  0
 12 22  1  0
 13 12  2  0
 15 14  1  0
 16 15  2  0
 17 15  1  0
 18 17  1  0
 19 18  1  0
 21 20  1  1
 20 19  1  0
 21 22  1  0
 23 21  1  0
 24 23  1  0
 25 23  2  0
M  END
$$$$
