CCS.pdb
     RDKit          3D

 19 18  0  0  1  0  0  0  0  0999 V2000
   -7.3568  -23.3557   23.4748 N   0  0  0  0  0  0  0  0  0  0  0  0
   -7.2485  -22.3072   24.4641 C   0  0  1  0  0  0  0  0  0  0  0  0
   -8.5117  -21.4817   24.4528 C   0  0  0  0  0  0  0  0  0  0  0  0
   -8.5813  -20.5597   22.9137 S   0  0  0  0  0  0  0  0  0  0  0  0
   -7.0457  -22.8660   25.8284 C   0  0  0  0  0  0  0  0  0  0  0  0
   -7.5788  -23.9382   26.2189 O   0  0  0  0  0  0  0  0  0  0  0  0
   -6.2033  -22.1318   26.7135 N   0  0  0  0  0  0  0  0  0  0  0  0
   -5.8892  -22.5937   28.0503 C   0  0  1  0  0  0  0  0  0  0  0  0
   -4.5892  -21.9800   28.5407 C   0  0  0  0  0  0  0  0  0  0  0  0
   -4.2755  -22.6115   30.2095 S   0  0  0  0  0  0  0  0  0  0  0  0
   -7.0280  -22.1983   28.9311 C   0  0  0  0  0  0  0  0  0  0  0  0
   -7.6065  -21.0726   28.8210 O   0  0  0  0  0  0  0  0  0  0  0  0
  -11.0357  -22.4040   30.2403 O   0  0  0  0  0  0  0  0  0  0  0  0
   -9.8632  -22.7195   29.5949 C   0  0  0  0  0  0  0  0  0  0  0  0
   -8.7588  -22.7386   30.6621 C   0  0  2  0  0  0  0  0  0  0  0  0
   -7.5341  -23.0561   29.9456 N   0  0  0  0  0  0  0  0  0  0  0  0
   -9.0824  -23.7121   31.7007 C   0  0  0  0  0  0  0  0  0  0  0  0
   -8.5899  -24.8560   31.6622 O   0  0  0  0  0  0  0  0  0  0  0  0
   -9.9307  -23.3930   32.7367 O   0  0  0  0  0  0  0  0  0  0  0  0
  2  3  1  0
  2  1  1  6
  3  4  1  0
  5  6  2  0
  5  2  1  0
  7  5  1  0
  8  7  1  0
  9 10  1  0
  8  9  1  1
 11 12  2  0
 11  8  1  0
 13 14  1  0
 15 14  1  6
 15 16  1  0
 16 11  1  0
 17 15  1  0
 18 17  2  0
 19 17  1  0
M  END
$$$$
