CCS.pdb
     RDKit          3D

 19 18  0  0  1  0  0  0  0  0999 V2000
    8.8873  -14.9850   20.5011 N   0  0  0  0  0  0  0  0  0  0  0  0
    8.0219  -14.9512   21.6584 C   0  0  1  0  0  0  0  0  0  0  0  0
    7.1114  -16.1545   21.6326 C   0  0  0  0  0  0  0  0  0  0  0  0
    6.8229  -16.6198   19.9227 S   0  0  0  0  0  0  0  0  0  0  0  0
    8.8054  -14.9621   22.9236 C   0  0  0  0  0  0  0  0  0  0  0  0
    9.9754  -15.4211   23.0043 O   0  0  0  0  0  0  0  0  0  0  0  0
    8.1766  -14.4209   24.0828 N   0  0  0  0  0  0  0  0  0  0  0  0
    8.8429  -14.3494   25.3673 C   0  0  1  0  0  0  0  0  0  0  0  0
    8.0958  -13.4231   26.3110 C   0  0  0  0  0  0  0  0  0  0  0  0
    8.9765  -13.4203   27.8941 S   0  0  0  0  0  0  0  0  0  0  0  0
    8.8922  -15.7375   25.9150 C   0  0  0  0  0  0  0  0  0  0  0  0
    7.8588  -16.4736   25.9808 O   0  0  0  0  0  0  0  0  0  0  0  0
   12.0663  -17.9979   25.7933 O   0  0  0  0  0  0  0  0  0  0  0  0
   10.8286  -18.5524   26.0197 C   0  0  0  0  0  0  0  0  0  0  0  0
   10.1053  -17.6346   27.0165 C   0  0  2  0  0  0  0  0  0  0  0  0
   10.0967  -16.3198   26.3956 N   0  0  0  0  0  0  0  0  0  0  0  0
   10.7918  -17.6542   28.3047 C   0  0  0  0  0  0  0  0  0  0  0  0
   11.2660  -16.6034   28.7776 O   0  0  0  0  0  0  0  0  0  0  0  0
   10.9302  -18.8217   29.0204 O   0  0  0  0  0  0  0  0  0  0  0  0
  2  3  1  0
  2  1  1  6
  3  4  1  0
  5  6  2  0
  5  2  1  0
  7  5  1  0
  8  7  1  0
  9 10  1  0
  8  9  1  1
 11 12  2  0
 11  8  1  0
 13 14  1  0
 15 14  1  6
 15 16  1  0
 16 11  1  0
 17 15  1  0
 18 17  2  0
 19 17  1  0
M  END
$$$$
