CCS.pdb
     RDKit          3D

 19 18  0  0  1  0  0  0  0  0999 V2000
    7.0926  -15.8329   20.4872 N   0  0  0  0  0  0  0  0  0  0  0  0
    6.4497  -15.6892   21.7738 C   0  0  1  0  0  0  0  0  0  0  0  0
    5.8336  -17.0083   22.1710 C   0  0  0  0  0  0  0  0  0  0  0  0
    4.5181  -17.3994   21.0133 S   0  0  0  0  0  0  0  0  0  0  0  0
    7.4193  -15.2707   22.8223 C   0  0  0  0  0  0  0  0  0  0  0  0
    8.6564  -15.4937   22.7437 O   0  0  0  0  0  0  0  0  0  0  0  0
    6.8948  -14.5871   23.9580 N   0  0  0  0  0  0  0  0  0  0  0  0
    7.7230  -14.1924   25.0793 C   0  0  1  0  0  0  0  0  0  0  0  0
    7.0134  -13.1576   25.9351 C   0  0  0  0  0  0  0  0  0  0  0  0
    8.0557  -12.8274   27.3797 S   0  0  0  0  0  0  0  0  0  0  0  0
    8.0114  -15.4264   25.8687 C   0  0  0  0  0  0  0  0  0  0  0  0
    7.0858  -16.1762   26.3103 O   0  0  0  0  0  0  0  0  0  0  0  0
   11.4942  -17.2121   25.6624 O   0  0  0  0  0  0  0  0  0  0  0  0
   10.4380  -17.9467   26.1475 C   0  0  0  0  0  0  0  0  0  0  0  0
    9.5953  -16.9974   27.0121 C   0  0  2  0  0  0  0  0  0  0  0  0
    9.3376  -15.8373   26.1742 N   0  0  0  0  0  0  0  0  0  0  0  0
   10.3130  -16.6679   28.2399 C   0  0  0  0  0  0  0  0  0  0  0  0
   10.5831  -15.4815   28.5083 O   0  0  0  0  0  0  0  0  0  0  0  0
   10.7045  -17.6498   29.1214 O   0  0  0  0  0  0  0  0  0  0  0  0
  2  3  1  0
  2  1  1  6
  3  4  1  0
  5  6  2  0
  5  2  1  0
  7  5  1  0
  8  7  1  0
  9 10  1  0
  8  9  1  1
 11 12  2  0
 11  8  1  0
 13 14  1  0
 15 14  1  6
 15 16  1  0
 16 11  1  0
 17 15  1  0
 18 17  2  0
 19 17  1  0
M  END
$$$$
