CCS.pdb
     RDKit          3D

 19 18  0  0  1  0  0  0  0  0999 V2000
    8.1388  -14.9052   20.3182 N   0  0  0  0  0  0  0  0  0  0  0  0
    7.3058  -15.0284   21.4932 C   0  0  1  0  0  0  0  0  0  0  0  0
    6.9620  -16.4821   21.7076 C   0  0  0  0  0  0  0  0  0  0  0  0
    8.4859  -17.4069   21.9221 S   0  0  0  0  0  0  0  0  0  0  0  0
    7.9951  -14.5084   22.7052 C   0  0  0  0  0  0  0  0  0  0  0  0
    9.2482  -14.4278   22.8027 O   0  0  0  0  0  0  0  0  0  0  0  0
    7.1730  -14.0890   23.7917 N   0  0  0  0  0  0  0  0  0  0  0  0
    7.7229  -13.6006   25.0399 C   0  0  1  0  0  0  0  0  0  0  0  0
    6.6626  -12.8721   25.8472 C   0  0  0  0  0  0  0  0  0  0  0  0
    7.4156  -12.3612   27.4138 S   0  0  0  0  0  0  0  0  0  0  0  0
    8.2377  -14.7861   25.7874 C   0  0  0  0  0  0  0  0  0  0  0  0
    7.5555  -15.8499   25.9170 O   0  0  0  0  0  0  0  0  0  0  0  0
   11.7592  -17.4692   27.1874 O   0  0  0  0  0  0  0  0  0  0  0  0
   11.3152  -16.3554   26.5142 C   0  0  0  0  0  0  0  0  0  0  0  0
    9.9846  -15.9446   27.1621 C   0  0  2  0  0  0  0  0  0  0  0  0
    9.5209  -14.7970   26.3990 N   0  0  0  0  0  0  0  0  0  0  0  0
   10.1871  -15.6466   28.5768 C   0  0  0  0  0  0  0  0  0  0  0  0
   10.0172  -14.4883   29.0034 O   0  0  0  0  0  0  0  0  0  0  0  0
   10.5665  -16.6280   29.4642 O   0  0  0  0  0  0  0  0  0  0  0  0
  2  3  1  0
  2  1  1  6
  3  4  1  0
  5  6  2  0
  5  2  1  0
  7  5  1  0
  8  7  1  0
  9 10  1  0
  8  9  1  1
 11 12  2  0
 11  8  1  0
 13 14  1  0
 15 14  1  6
 15 16  1  0
 16 11  1  0
 17 15  1  0
 18 17  2  0
 19 17  1  0
M  END
$$$$
