CCS.pdb
     RDKit          3D

 19 18  0  0  1  0  0  0  0  0999 V2000
    5.0725  -19.4856   20.5518 N   0  0  0  0  0  0  0  0  0  0  0  0
    4.9773  -19.2664   21.9774 C   0  0  1  0  0  0  0  0  0  0  0  0
    4.6956  -20.5805   22.6639 C   0  0  0  0  0  0  0  0  0  0  0  0
    6.1522  -21.6218   22.5306 S   0  0  0  0  0  0  0  0  0  0  0  0
    6.2368  -18.6928   22.5245 C   0  0  0  0  0  0  0  0  0  0  0  0
    7.3364  -18.7383   21.9122 O   0  0  0  0  0  0  0  0  0  0  0  0
    6.1652  -18.0684   23.8041 N   0  0  0  0  0  0  0  0  0  0  0  0
    7.3216  -17.4784   24.4474 C   0  0  1  0  0  0  0  0  0  0  0  0
    6.9027  -16.3673   25.3943 C   0  0  0  0  0  0  0  0  0  0  0  0
    8.3939  -15.7555   26.2214 S   0  0  0  0  0  0  0  0  0  0  0  0
    8.0186  -18.5718   25.1875 C   0  0  0  0  0  0  0  0  0  0  0  0
    7.3915  -19.3897   25.9303 O   0  0  0  0  0  0  0  0  0  0  0  0
   11.9775  -21.1860   25.7307 O   0  0  0  0  0  0  0  0  0  0  0  0
   11.3535  -20.1571   25.0654 C   0  0  0  0  0  0  0  0  0  0  0  0
   10.0892  -19.8113   25.8660 C   0  0  2  0  0  0  0  0  0  0  0  0
    9.4248  -18.7643   25.1066 N   0  0  0  0  0  0  0  0  0  0  0  0
   10.4504  -19.3956   27.2180 C   0  0  0  0  0  0  0  0  0  0  0  0
   10.3531  -18.1992   27.5524 O   0  0  0  0  0  0  0  0  0  0  0  0
   10.9023  -20.3058   28.1463 O   0  0  0  0  0  0  0  0  0  0  0  0
  2  3  1  0
  2  1  1  6
  3  4  1  0
  5  6  2  0
  5  2  1  0
  7  5  1  0
  8  7  1  0
  9 10  1  0
  8  9  1  1
 11 12  2  0
 11  8  1  0
 13 14  1  0
 15 14  1  6
 15 16  1  0
 16 11  1  0
 17 15  1  0
 18 17  2  0
 19 17  1  0
M  END
$$$$
