CCS.pdb
     RDKit          3D

 19 18  0  0  1  0  0  0  0  0999 V2000
    8.9514  -14.8666   20.2085 N   0  0  0  0  0  0  0  0  0  0  0  0
    8.1011  -15.2296   21.3197 C   0  0  1  0  0  0  0  0  0  0  0  0
    7.6312  -16.6525   21.1411 C   0  0  0  0  0  0  0  0  0  0  0  0
    6.5934  -17.0942   22.5381 S   0  0  0  0  0  0  0  0  0  0  0  0
    8.8227  -15.1155   22.6163 C   0  0  0  0  0  0  0  0  0  0  0  0
   10.0498  -15.3680   22.7452 O   0  0  0  0  0  0  0  0  0  0  0  0
    8.0637  -14.6988   23.7487 N   0  0  0  0  0  0  0  0  0  0  0  0
    8.6559  -14.5196   25.0588 C   0  0  1  0  0  0  0  0  0  0  0  0
    7.7958  -13.6101   25.9189 C   0  0  0  0  0  0  0  0  0  0  0  0
    8.5757  -13.4930   27.5499 S   0  0  0  0  0  0  0  0  0  0  0  0
    8.7773  -15.8739   25.6754 C   0  0  0  0  0  0  0  0  0  0  0  0
    7.7966  -16.6796   25.7319 O   0  0  0  0  0  0  0  0  0  0  0  0
   12.1433  -17.9111   25.8642 O   0  0  0  0  0  0  0  0  0  0  0  0
   10.9195  -18.5239   25.9963 C   0  0  0  0  0  0  0  0  0  0  0  0
   10.0705  -17.6296   26.9120 C   0  0  2  0  0  0  0  0  0  0  0  0
    9.9960  -16.3442   26.2363 N   0  0  0  0  0  0  0  0  0  0  0  0
   10.6805  -17.5452   28.2356 C   0  0  0  0  0  0  0  0  0  0  0  0
   11.0736  -16.4476   28.6752 O   0  0  0  0  0  0  0  0  0  0  0  0
   10.8344  -18.6646   29.0216 O   0  0  0  0  0  0  0  0  0  0  0  0
  2  3  1  0
  2  1  1  6
  3  4  1  0
  5  6  2  0
  5  2  1  0
  7  5  1  0
  8  7  1  0
  9 10  1  0
  8  9  1  1
 11 12  2  0
 11  8  1  0
 13 14  1  0
 15 14  1  6
 15 16  1  0
 16 11  1  0
 17 15  1  0
 18 17  2  0
 19 17  1  0
M  END
$$$$
