CCS.pdb
     RDKit          3D

 19 18  0  0  1  0  0  0  0  0999 V2000
    9.2687  -15.7324   13.7209 N   0  0  0  0  0  0  0  0  0  0  0  0
    8.6689  -16.0208   15.0042 C   0  0  1  0  0  0  0  0  0  0  0  0
    8.9110  -17.4694   15.3509 C   0  0  0  0  0  0  0  0  0  0  0  0
    7.9606  -17.8750   16.8193 S   0  0  0  0  0  0  0  0  0  0  0  0
    9.2411  -15.1624   16.0768 C   0  0  0  0  0  0  0  0  0  0  0  0
   10.4752  -14.9409   16.1958 O   0  0  0  0  0  0  0  0  0  0  0  0
    8.3254  -14.5764   16.9989 N   0  0  0  0  0  0  0  0  0  0  0  0
    8.7621  -13.8021   18.1429 C   0  0  1  0  0  0  0  0  0  0  0  0
    7.6381  -12.9193   18.6566 C   0  0  0  0  0  0  0  0  0  0  0  0
    6.3013  -14.0020   19.2248 S   0  0  0  0  0  0  0  0  0  0  0  0
    9.1958  -14.7727   19.1912 C   0  0  0  0  0  0  0  0  0  0  0  0
    9.0538  -14.5345   20.4310 O   0  0  0  0  0  0  0  0  0  0  0  0
    8.7826  -18.3744   21.3593 O   0  0  0  0  0  0  0  0  0  0  0  0
    8.6094  -17.4344   20.3708 C   0  0  0  0  0  0  0  0  0  0  0  0
   10.0106  -17.0411   19.8801 C   0  0  2  0  0  0  0  0  0  0  0  0
    9.7933  -16.0212   18.8667 N   0  0  0  0  0  0  0  0  0  0  0  0
   10.7103  -18.2157   19.3683 C   0  0  0  0  0  0  0  0  0  0  0  0
   10.5885  -18.5458   18.1730 O   0  0  0  0  0  0  0  0  0  0  0  0
   11.5130  -18.9788   20.1855 O   0  0  0  0  0  0  0  0  0  0  0  0
  2  3  1  0
  2  1  1  6
  3  4  1  0
  5  6  2  0
  5  2  1  0
  7  5  1  0
  8  7  1  0
  9 10  1  0
  8  9  1  1
 11 12  2  0
 11  8  1  0
 13 14  1  0
 15 14  1  6
 15 16  1  0
 16 11  1  0
 17 15  1  0
 18 17  2  0
 19 17  1  0
M  END
$$$$
