CCS.pdb
     RDKit          3D

 19 18  0  0  1  0  0  0  0  0999 V2000
   -9.1472  -21.7345   23.7101 N   0  0  0  0  0  0  0  0  0  0  0  0
   -8.3798  -22.7392   24.4110 C   0  0  1  0  0  0  0  0  0  0  0  0
   -7.1459  -23.0710   23.6081 C   0  0  0  0  0  0  0  0  0  0  0  0
   -7.5659  -24.3372   22.4064 S   0  0  0  0  0  0  0  0  0  0  0  0
   -7.9684  -22.2656   25.7605 C   0  0  0  0  0  0  0  0  0  0  0  0
   -7.4191  -21.1500   25.9602 O   0  0  0  0  0  0  0  0  0  0  0  0
   -8.2205  -23.1367   26.8604 N   0  0  0  0  0  0  0  0  0  0  0  0
   -7.9038  -22.7753   28.2272 C   0  0  1  0  0  0  0  0  0  0  0  0
   -9.1389  -22.2663   28.9498 C   0  0  0  0  0  0  0  0  0  0  0  0
   -8.6631  -21.8866   30.6561 S   0  0  0  0  0  0  0  0  0  0  0  0
   -7.3665  -23.9992   28.8924 C   0  0  0  0  0  0  0  0  0  0  0  0
   -7.9962  -25.1026   28.8847 O   0  0  0  0  0  0  0  0  0  0  0  0
   -3.6253  -26.1348   30.9901 O   0  0  0  0  0  0  0  0  0  0  0  0
   -4.1293  -24.9784   30.4428 C   0  0  0  0  0  0  0  0  0  0  0  0
   -5.6395  -25.1926   30.2626 C   0  0  2  0  0  0  0  0  0  0  0  0
   -6.1192  -24.0049   29.5744 N   0  0  0  0  0  0  0  0  0  0  0  0
   -6.2750  -25.3970   31.5609 C   0  0  0  0  0  0  0  0  0  0  0  0
   -6.5717  -24.4191   32.2738 O   0  0  0  0  0  0  0  0  0  0  0  0
   -6.5588  -26.6618   32.0238 O   0  0  0  0  0  0  0  0  0  0  0  0
  2  3  1  0
  2  1  1  6
  3  4  1  0
  5  6  2  0
  5  2  1  0
  7  5  1  0
  8  7  1  0
  9 10  1  0
  8  9  1  1
 11 12  2  0
 11  8  1  0
 13 14  1  0
 15 14  1  1
 15 16  1  0
 16 11  1  0
 17 15  1  0
 18 17  2  0
 19 17  1  0
M  END
$$$$
