YIA.pdb
     RDKit          3D

 26 26  0  0  1  0  0  0  0  0999 V2000
   22.7832  -20.8328   -6.6027 O   0  0  0  0  0  0  0  0  0  0  0  0
   23.4568  -20.6345   -7.7891 C   0  0  0  0  0  0  0  0  0  0  0  0
   22.7755  -20.7986   -8.9829 C   0  0  0  0  0  0  0  0  0  0  0  0
   23.4790  -20.5922  -10.1741 C   0  0  0  0  0  0  0  0  0  0  0  0
   24.7953  -20.2399  -10.1818 C   0  0  0  0  0  0  0  0  0  0  0  0
   25.5131  -20.0283  -11.4612 C   0  0  0  0  0  0  0  0  0  0  0  0
   25.5797  -21.3834  -12.1689 C   0  0  2  0  0  0  0  0  0  0  0  0
   26.6142  -22.1878  -11.5966 N   0  0  0  0  0  0  0  0  0  0  0  0
   25.8484  -21.1628  -13.6089 C   0  0  0  0  0  0  0  0  0  0  0  0
   26.9567  -20.7158  -14.0310 O   0  0  0  0  0  0  0  0  0  0  0  0
   25.4506  -20.0826   -8.9882 C   0  0  0  0  0  0  0  0  0  0  0  0
   24.7857  -20.2790   -7.7730 C   0  0  0  0  0  0  0  0  0  0  0  0
   26.1355  -25.0764  -16.3977 C   0  0  0  0  0  0  0  0  0  0  0  0
   26.1937  -23.6451  -15.8423 C   0  0  0  0  0  0  0  0  0  0  0  0
   25.1423  -22.7956  -16.4677 C   0  0  2  0  0  0  0  0  0  0  0  0
   25.0982  -22.9486  -17.9656 C   0  0  0  0  0  0  0  0  0  0  0  0
   25.1257  -21.3534  -16.0227 C   0  0  2  0  0  0  0  0  0  0  0  0
   24.8641  -21.4482  -14.5649 N   0  0  0  0  0  0  0  0  0  0  0  0
   24.0521  -20.5476  -16.6249 C   0  0  0  0  0  0  0  0  0  0  0  0
   22.8424  -20.8886  -16.4338 O   0  0  0  0  0  0  0  0  0  0  0  0
   23.6481  -17.3862  -18.6352 C   0  0  0  0  0  0  0  0  0  0  0  0
   23.1933  -18.6991  -18.0097 C   0  0  2  0  0  0  0  0  0  0  0  0
   24.3027  -19.4012  -17.4095 N   0  0  0  0  0  0  0  0  0  0  0  0
   22.6032  -19.5649  -19.0555 C   0  0  0  0  0  0  0  0  0  0  0  0
   21.2489  -19.4580  -19.3606 O   0  0  0  0  0  0  0  0  0  0  0  0
   23.3123  -20.3854  -19.6606 O   0  0  0  0  0  0  0  0  0  0  0  0
  2  1  1  0
  2  3  2  0
  4  3  1  0
  5  4  2  0
  6  5  1  0
  7  9  1  0
  7  6  1  0
  7  8  1  1
  9 18  1  0
  9 10  2  0
 11 12  2  0
 11  5  1  0
 12  2  1  0
 14 15  1  0
 14 13  1  0
 15 16  1  6
 17 15  1  0
 17 18  1  1
 19 23  1  0
 19 17  1  0
 20 19  2  0
 22 21  1  6
 22 24  1  0
 22 23  1  0
 24 25  1  0
 26 24  2  0
M  END
$$$$
