YIA.pdb
     RDKit          3D

 26 26  0  0  1  0  0  0  0  0999 V2000
   13.4841  -13.9398  -16.1190 O   0  0  0  0  0  0  0  0  0  0  0  0
   14.5787  -13.1353  -15.8842 C   0  0  0  0  0  0  0  0  0  0  0  0
   15.4942  -13.5134  -14.9171 C   0  0  0  0  0  0  0  0  0  0  0  0
   16.5970  -12.6818  -14.6960 C   0  0  0  0  0  0  0  0  0  0  0  0
   16.7835  -11.5301  -15.3999 C   0  0  0  0  0  0  0  0  0  0  0  0
   17.9628  -10.6700  -15.1421 C   0  0  0  0  0  0  0  0  0  0  0  0
   18.9325  -10.8750  -16.3079 C   0  0  2  0  0  0  0  0  0  0  0  0
   19.4787  -12.1958  -16.2682 N   0  0  0  0  0  0  0  0  0  0  0  0
   20.0206   -9.8743  -16.2120 C   0  0  0  0  0  0  0  0  0  0  0  0
   21.1085  -10.1118  -15.6066 O   0  0  0  0  0  0  0  0  0  0  0  0
   15.8647  -11.1746  -16.3529 C   0  0  0  0  0  0  0  0  0  0  0  0
   14.7469  -11.9768  -16.6069 C   0  0  0  0  0  0  0  0  0  0  0  0
   20.0638   -7.4824  -20.4762 C   0  0  0  0  0  0  0  0  0  0  0  0
   21.0497   -7.8197  -19.3472 C   0  0  0  0  0  0  0  0  0  0  0  0
   20.8132   -6.9459  -18.1645 C   0  0  2  0  0  0  0  0  0  0  0  0
   21.5536   -5.6377  -18.2617 C   0  0  0  0  0  0  0  0  0  0  0  0
   20.9758   -7.6158  -16.8217 C   0  0  2  0  0  0  0  0  0  0  0  0
   19.8746   -8.6105  -16.8001 N   0  0  0  0  0  0  0  0  0  0  0  0
   20.7969   -6.7156  -15.6718 C   0  0  0  0  0  0  0  0  0  0  0  0
   19.7410   -6.0113  -15.5971 O   0  0  0  0  0  0  0  0  0  0  0  0
   22.1480   -6.1822  -12.2571 C   0  0  0  0  0  0  0  0  0  0  0  0
   21.4936   -5.6903  -13.5422 C   0  0  2  0  0  0  0  0  0  0  0  0
   21.7484   -6.5975  -14.6359 N   0  0  0  0  0  0  0  0  0  0  0  0
   22.0436   -4.3628  -13.8986 C   0  0  0  0  0  0  0  0  0  0  0  0
   22.7875   -4.2117  -15.0659 O   0  0  0  0  0  0  0  0  0  0  0  0
   21.8434   -3.3849  -13.1599 O   0  0  0  0  0  0  0  0  0  0  0  0
  2  1  1  0
  2  3  2  0
  4  3  1  0
  5  4  2  0
  6  5  1  0
  7  9  1  0
  7  6  1  0
  7  8  1  1
  9 18  1  0
  9 10  2  0
 11 12  2  0
 11  5  1  0
 12  2  1  0
 14 15  1  0
 14 13  1  0
 15 16  1  1
 17 15  1  0
 17 18  1  1
 19 23  1  0
 19 17  1  0
 20 19  2  0
 22 21  1  1
 22 24  1  0
 22 23  1  0
 24 25  1  0
 26 24  2  0
M  END
$$$$
