YIA.pdb
     RDKit          3D

 26 26  0  0  1  0  0  0  0  0999 V2000
   23.3443  -14.1604  -19.5709 O   0  0  0  0  0  0  0  0  0  0  0  0
   23.5778  -15.2691  -18.7855 C   0  0  0  0  0  0  0  0  0  0  0  0
   24.4113  -15.1495  -17.6868 C   0  0  0  0  0  0  0  0  0  0  0  0
   24.6338  -16.2874  -16.9044 C   0  0  0  0  0  0  0  0  0  0  0  0
   24.0575  -17.4870  -17.1971 C   0  0  0  0  0  0  0  0  0  0  0  0
   24.3131  -18.6749  -16.3483 C   0  0  0  0  0  0  0  0  0  0  0  0
   25.7431  -19.1357  -16.6385 C   0  0  2  0  0  0  0  0  0  0  0  0
   25.8215  -19.7037  -17.9484 N   0  0  0  0  0  0  0  0  0  0  0  0
   26.1405  -20.1416  -15.6262 C   0  0  0  0  0  0  0  0  0  0  0  0
   25.7904  -21.3572  -15.7046 O   0  0  0  0  0  0  0  0  0  0  0  0
   23.2355  -17.5831  -18.2898 C   0  0  0  0  0  0  0  0  0  0  0  0
   22.9852  -16.4702  -19.0999 C   0  0  0  0  0  0  0  0  0  0  0  0
   30.5329  -20.9254  -11.5383 C   0  0  0  0  0  0  0  0  0  0  0  0
   29.0575  -21.2404  -11.8290 C   0  0  0  0  0  0  0  0  0  0  0  0
   28.5659  -20.4363  -12.9823 C   0  0  2  0  0  0  0  0  0  0  0  0
   28.9281  -18.9792  -12.8605 C   0  0  0  0  0  0  0  0  0  0  0  0
   27.1192  -20.6540  -13.3536 C   0  0  2  0  0  0  0  0  0  0  0  0
   26.9313  -19.7696  -14.5305 N   0  0  0  0  0  0  0  0  0  0  0  0
   26.1605  -20.2401  -12.3172 C   0  0  0  0  0  0  0  0  0  0  0  0
   26.0165  -19.0017  -12.0681 O   0  0  0  0  0  0  0  0  0  0  0  0
   23.0594  -21.1804  -10.8120 C   0  0  0  0  0  0  0  0  0  0  0  0
   24.4749  -20.6697  -10.5719 C   0  0  2  0  0  0  0  0  0  0  0  0
   25.3829  -21.1601  -11.5813 N   0  0  0  0  0  0  0  0  0  0  0  0
   24.9497  -21.1366   -9.2498 C   0  0  0  0  0  0  0  0  0  0  0  0
   24.3055  -20.7094   -8.0917 O   0  0  0  0  0  0  0  0  0  0  0  0
   25.9201  -21.9075   -9.1712 O   0  0  0  0  0  0  0  0  0  0  0  0
  2  1  1  0
  2  3  2  0
  4  3  1  0
  5  4  2  0
  6  5  1  0
  7  9  1  0
  7  6  1  0
  7  8  1  6
  9 18  1  0
  9 10  2  0
 11 12  2  0
 11  5  1  0
 12  2  1  0
 14 15  1  0
 14 13  1  0
 15 16  1  1
 17 15  1  0
 17 18  1  6
 19 23  1  0
 19 17  1  0
 20 19  2  0
 22 21  1  6
 22 24  1  0
 22 23  1  0
 24 25  1  0
 26 24  2  0
M  END
$$$$
