YIA.pdb
     RDKit          3D

 26 26  0  0  1  0  0  0  0  0999 V2000
   29.2137  -22.9667  -22.0776 O   0  0  0  0  0  0  0  0  0  0  0  0
   28.7857  -23.7465  -21.0243 C   0  0  0  0  0  0  0  0  0  0  0  0
   29.6004  -23.8789  -19.9131 C   0  0  0  0  0  0  0  0  0  0  0  0
   29.1458  -24.6750  -18.8566 C   0  0  0  0  0  0  0  0  0  0  0  0
   27.9408  -25.3097  -18.8995 C   0  0  0  0  0  0  0  0  0  0  0  0
   27.4870  -26.1465  -17.7634 C   0  0  0  0  0  0  0  0  0  0  0  0
   26.3002  -25.4261  -17.1200 C   0  0  2  0  0  0  0  0  0  0  0  0
   26.7391  -24.2213  -16.4873 N   0  0  0  0  0  0  0  0  0  0  0  0
   25.6751  -26.3237  -16.1209 C   0  0  0  0  0  0  0  0  0  0  0  0
   26.0939  -26.4056  -14.9274 O   0  0  0  0  0  0  0  0  0  0  0  0
   27.1498  -25.1649  -20.0095 C   0  0  0  0  0  0  0  0  0  0  0  0
   27.5652  -24.3782  -21.0893 C   0  0  0  0  0  0  0  0  0  0  0  0
   20.2665  -27.1957  -14.3211 C   0  0  0  0  0  0  0  0  0  0  0  0
   21.5337  -28.0406  -14.5227 C   0  0  0  0  0  0  0  0  0  0  0  0
   22.5508  -27.2840  -15.3045 C   0  0  2  0  0  0  0  0  0  0  0  0
   21.9921  -26.7346  -16.5910 C   0  0  0  0  0  0  0  0  0  0  0  0
   23.8763  -27.9821  -15.4893 C   0  0  2  0  0  0  0  0  0  0  0  0
   24.5804  -27.1241  -16.4745 N   0  0  0  0  0  0  0  0  0  0  0  0
   23.7725  -29.3350  -16.0581 C   0  0  0  0  0  0  0  0  0  0  0  0
   23.5155  -29.4665  -17.2962 O   0  0  0  0  0  0  0  0  0  0  0  0
   25.1214  -32.6356  -15.5699 C   0  0  0  0  0  0  0  0  0  0  0  0
   23.9073  -31.7926  -15.9405 C   0  0  2  0  0  0  0  0  0  0  0  0
   23.9494  -30.5052  -15.2888 N   0  0  0  0  0  0  0  0  0  0  0  0
   22.6736  -32.4915  -15.5150 C   0  0  0  0  0  0  0  0  0  0  0  0
   22.1588  -33.5244  -16.2938 O   0  0  0  0  0  0  0  0  0  0  0  0
   22.0974  -32.1590  -14.4664 O   0  0  0  0  0  0  0  0  0  0  0  0
  2  1  1  0
  2  3  2  0
  4  3  1  0
  5  4  2  0
  6  5  1  0
  7  9  1  0
  7  6  1  0
  7  8  1  1
  9 18  1  0
  9 10  2  0
 11 12  2  0
 11  5  1  0
 12  2  1  0
 14 15  1  0
 14 13  1  0
 15 16  1  6
 17 15  1  0
 17 18  1  6
 19 23  1  0
 19 17  1  0
 20 19  2  0
 22 21  1  1
 22 24  1  0
 22 23  1  0
 24 25  1  0
 26 24  2  0
M  END
$$$$
