YIA.pdb
     RDKit          3D

 26 26  0  0  1  0  0  0  0  0999 V2000
   26.2991  -16.8603  -16.9285 O   0  0  0  0  0  0  0  0  0  0  0  0
   26.0557  -17.5631  -15.7678 C   0  0  0  0  0  0  0  0  0  0  0  0
   25.3094  -18.7271  -15.8323 C   0  0  0  0  0  0  0  0  0  0  0  0
   25.0750  -19.4238  -14.6422 C   0  0  0  0  0  0  0  0  0  0  0  0
   25.5576  -18.9873  -13.4449 C   0  0  0  0  0  0  0  0  0  0  0  0
   25.2919  -19.7482  -12.2009 C   0  0  0  0  0  0  0  0  0  0  0  0
   26.6434  -20.2373  -11.6757 C   0  0  2  0  0  0  0  0  0  0  0  0
   27.2224  -21.1667  -12.5953 N   0  0  0  0  0  0  0  0  0  0  0  0
   26.4430  -20.8863  -10.3592 C   0  0  0  0  0  0  0  0  0  0  0  0
   26.2932  -22.1389  -10.2367 O   0  0  0  0  0  0  0  0  0  0  0  0
   26.2942  -17.8322  -13.4038 C   0  0  0  0  0  0  0  0  0  0  0  0
   26.5528  -17.1038  -14.5700 C   0  0  0  0  0  0  0  0  0  0  0  0
   28.4168  -19.3089   -4.8815 C   0  0  0  0  0  0  0  0  0  0  0  0
   27.4611  -20.2705   -5.6042 C   0  0  0  0  0  0  0  0  0  0  0  0
   27.2218  -19.8203   -7.0036 C   0  0  2  0  0  0  0  0  0  0  0  0
   26.7941  -18.3778   -7.0760 C   0  0  0  0  0  0  0  0  0  0  0  0
   26.3568  -20.7331   -7.8385 C   0  0  2  0  0  0  0  0  0  0  0  0
   26.4127  -20.1176   -9.1877 N   0  0  0  0  0  0  0  0  0  0  0  0
   24.9474  -20.7802   -7.4191 C   0  0  0  0  0  0  0  0  0  0  0  0
   24.6735  -20.9953   -6.1964 O   0  0  0  0  0  0  0  0  0  0  0  0
   21.5181  -20.3330   -8.9264 C   0  0  0  0  0  0  0  0  0  0  0  0
   22.5205  -20.6250   -7.8166 C   0  0  2  0  0  0  0  0  0  0  0  0
   23.8743  -20.5932   -8.3168 N   0  0  0  0  0  0  0  0  0  0  0  0
   22.2600  -21.9715   -7.2590 C   0  0  0  0  0  0  0  0  0  0  0  0
   21.1954  -22.1644   -6.3827 O   0  0  0  0  0  0  0  0  0  0  0  0
   22.9880  -22.9281   -7.5705 O   0  0  0  0  0  0  0  0  0  0  0  0
  2  1  1  0
  2  3  2  0
  4  3  1  0
  5  4  2  0
  6  5  1  0
  7  9  1  0
  7  6  1  0
  7  8  1  6
  9 18  1  0
  9 10  2  0
 11 12  2  0
 11  5  1  0
 12  2  1  0
 14 15  1  0
 14 13  1  0
 15 16  1  1
 17 15  1  0
 17 18  1  6
 19 23  1  0
 19 17  1  0
 20 19  2  0
 22 21  1  6
 22 24  1  0
 22 23  1  0
 24 25  1  0
 26 24  2  0
M  END
$$$$
