YIA.pdb
     RDKit          3D

 26 26  0  0  1  0  0  0  0  0999 V2000
   18.1009  -16.6864  -17.8505 O   0  0  0  0  0  0  0  0  0  0  0  0
   18.9295  -17.4315  -17.0388 C   0  0  0  0  0  0  0  0  0  0  0  0
   20.2069  -16.9669  -16.7770 C   0  0  0  0  0  0  0  0  0  0  0  0
   21.0301  -17.7393  -15.9509 C   0  0  0  0  0  0  0  0  0  0  0  0
   20.6072  -18.9163  -15.4100 C   0  0  0  0  0  0  0  0  0  0  0  0
   21.5035  -19.7121  -14.5382 C   0  0  0  0  0  0  0  0  0  0  0  0
   22.5829  -20.3190  -15.4372 C   0  0  2  0  0  0  0  0  0  0  0  0
   22.0082  -21.3016  -16.3026 N   0  0  0  0  0  0  0  0  0  0  0  0
   23.6251  -20.9405  -14.5875 C   0  0  0  0  0  0  0  0  0  0  0  0
   23.4987  -22.1044  -14.1020 O   0  0  0  0  0  0  0  0  0  0  0  0
   19.3384  -19.3577  -15.6823 C   0  0  0  0  0  0  0  0  0  0  0  0
   18.4814  -18.6169  -16.5034 C   0  0  0  0  0  0  0  0  0  0  0  0
   28.6373  -20.4145  -16.0930 C   0  0  0  0  0  0  0  0  0  0  0  0
   27.3234  -20.9293  -15.4855 C   0  0  0  0  0  0  0  0  0  0  0  0
   27.1402  -20.4010  -14.1050 C   0  0  2  0  0  0  0  0  0  0  0  0
   28.3609  -20.6061  -13.2466 C   0  0  0  0  0  0  0  0  0  0  0  0
   25.8614  -20.8143  -13.4179 C   0  0  2  0  0  0  0  0  0  0  0  0
   24.8047  -20.2445  -14.2904 N   0  0  0  0  0  0  0  0  0  0  0  0
   25.6901  -20.2500  -12.0700 C   0  0  0  0  0  0  0  0  0  0  0  0
   25.6598  -18.9870  -11.9284 O   0  0  0  0  0  0  0  0  0  0  0  0
   24.4233  -21.2223   -8.7513 C   0  0  0  0  0  0  0  0  0  0  0  0
   25.3694  -20.4159   -9.6325 C   0  0  2  0  0  0  0  0  0  0  0  0
   25.5532  -21.0510  -10.9158 N   0  0  0  0  0  0  0  0  0  0  0  0
   26.6893  -20.3099   -8.9705 C   0  0  0  0  0  0  0  0  0  0  0  0
   26.8283  -19.5345   -7.8224 O   0  0  0  0  0  0  0  0  0  0  0  0
   27.6717  -20.9101   -9.4361 O   0  0  0  0  0  0  0  0  0  0  0  0
  2  1  1  0
  2  3  2  0
  4  3  1  0
  5  4  2  0
  6  5  1  0
  7  9  1  0
  7  6  1  0
  7  8  1  6
  9 18  1  0
  9 10  2  0
 11 12  2  0
 11  5  1  0
 12  2  1  0
 14 15  1  0
 14 13  1  0
 15 16  1  1
 17 15  1  0
 17 18  1  6
 19 23  1  0
 19 17  1  0
 20 19  2  0
 22 21  1  1
 22 24  1  0
 22 23  1  0
 24 25  1  0
 26 24  2  0
M  END
$$$$
