YIA.pdb
     RDKit          3D

 26 26  0  0  1  0  0  0  0  0999 V2000
   16.2560  -25.9965  -14.7627 O   0  0  0  0  0  0  0  0  0  0  0  0
   16.9844  -24.8400  -14.5822 C   0  0  0  0  0  0  0  0  0  0  0  0
   18.2921  -24.7934  -15.0339 C   0  0  0  0  0  0  0  0  0  0  0  0
   19.0120  -23.6098  -14.8401 C   0  0  0  0  0  0  0  0  0  0  0  0
   18.4618  -22.5240  -14.2277 C   0  0  0  0  0  0  0  0  0  0  0  0
   19.2509  -21.2839  -14.0371 C   0  0  0  0  0  0  0  0  0  0  0  0
   20.1999  -21.5307  -12.8624 C   0  0  2  0  0  0  0  0  0  0  0  0
   19.5239  -21.2949  -11.6247 N   0  0  0  0  0  0  0  0  0  0  0  0
   21.3643  -20.6230  -12.9840 C   0  0  0  0  0  0  0  0  0  0  0  0
   21.3671  -19.4545  -12.4931 O   0  0  0  0  0  0  0  0  0  0  0  0
   17.1653  -22.5918  -13.7882 C   0  0  0  0  0  0  0  0  0  0  0  0
   16.4085  -23.7557  -13.9613 C   0  0  0  0  0  0  0  0  0  0  0  0
   25.7975  -22.4097  -11.3561 C   0  0  0  0  0  0  0  0  0  0  0  0
   24.6551  -21.4777  -11.7882 C   0  0  0  0  0  0  0  0  0  0  0  0
   24.8239  -21.0632  -13.2088 C   0  0  2  0  0  0  0  0  0  0  0  0
   26.2038  -20.5279  -13.4891 C   0  0  0  0  0  0  0  0  0  0  0  0
   23.7283  -20.1842  -13.7614 C   0  0  2  0  0  0  0  0  0  0  0  0
   22.5196  -21.0394  -13.6594 N   0  0  0  0  0  0  0  0  0  0  0  0
   23.9049  -19.8149  -15.1745 C   0  0  0  0  0  0  0  0  0  0  0  0
   24.0814  -20.7334  -16.0357 O   0  0  0  0  0  0  0  0  0  0  0  0
   23.5627  -16.7736  -17.3527 C   0  0  0  0  0  0  0  0  0  0  0  0
   23.9749  -18.2068  -17.0403 C   0  0  2  0  0  0  0  0  0  0  0  0
   23.8844  -18.4774  -15.6252 N   0  0  0  0  0  0  0  0  0  0  0  0
   25.3759  -18.4212  -17.4683 C   0  0  0  0  0  0  0  0  0  0  0  0
   25.6439  -18.8976  -18.7488 O   0  0  0  0  0  0  0  0  0  0  0  0
   26.3113  -18.1773  -16.6888 O   0  0  0  0  0  0  0  0  0  0  0  0
  2  1  1  0
  2  3  2  0
  4  3  1  0
  5  4  2  0
  6  5  1  0
  7  9  1  0
  7  6  1  0
  7  8  1  1
  9 18  1  0
  9 10  2  0
 11 12  2  0
 11  5  1  0
 12  2  1  0
 14 15  1  0
 14 13  1  0
 15 16  1  1
 17 15  1  0
 17 18  1  6
 19 23  1  0
 19 17  1  0
 20 19  2  0
 22 21  1  1
 22 24  1  0
 22 23  1  0
 24 25  1  0
 26 24  2  0
M  END
$$$$
