WDR.pdb
     RDKit          3D

 34 35  0  0  1  0  0  0  0  0999 V2000
   20.7698  -23.6002  -14.7418 N   0  0  0  0  0  0  0  0  0  0  0  0
   20.7780  -23.0945  -13.3926 C   0  0  1  0  0  0  0  0  0  0  0  0
   20.8451  -21.5986  -13.4216 C   0  0  0  0  0  0  0  0  0  0  0  0
   22.2157  -21.1671  -13.0595 C   0  0  0  0  0  0  0  0  0  0  0  0
   23.2297  -20.7874  -13.9465 C   0  0  0  0  0  0  0  0  0  0  0  0
   24.3247  -20.4199  -13.2642 N   0  0  0  0  0  0  0  0  0  0  0  0
   24.0633  -20.5466  -11.9521 C   0  0  0  0  0  0  0  0  0  0  0  0
   24.8941  -20.2911  -10.8607 C   0  0  0  0  0  0  0  0  0  0  0  0
   24.4229  -20.5004   -9.5871 C   0  0  0  0  0  0  0  0  0  0  0  0
   23.1339  -20.9599   -9.4457 C   0  0  0  0  0  0  0  0  0  0  0  0
   22.2999  -21.2161  -10.5338 C   0  0  0  0  0  0  0  0  0  0  0  0
   22.7778  -21.0033  -11.8000 C   0  0  0  0  0  0  0  0  0  0  0  0
   19.5644  -23.5830  -12.6811 C   0  0  0  0  0  0  0  0  0  0  0  0
   18.4537  -23.4545  -13.2465 O   0  0  0  0  0  0  0  0  0  0  0  0
   19.5837  -24.1890  -11.3957 N   0  0  0  0  0  0  0  0  0  0  0  0
   18.3897  -24.5570  -10.6862 C   0  0  1  0  0  0  0  0  0  0  0  0
   18.7703  -24.9557   -9.2567 C   0  0  0  0  0  0  0  0  0  0  0  0
   17.6332  -25.5428   -8.5160 C   0  0  0  0  0  0  0  0  0  0  0  0
   16.4977  -25.7212   -9.0242 O   0  0  0  0  0  0  0  0  0  0  0  0
   17.3796  -23.4504  -10.6676 C   0  0  0  0  0  0  0  0  0  0  0  0
   17.7435  -22.3040  -10.3154 O   0  0  0  0  0  0  0  0  0  0  0  0
   17.8139  -25.9196   -7.1952 O   0  0  0  0  0  0  0  0  0  0  0  0
   15.3575  -17.7846  -14.5090 N   0  0  0  0  0  0  0  0  0  0  0  0
   13.9917  -18.1761  -14.6120 C   0  0  0  0  0  0  0  0  0  0  0  0
   13.1431  -17.4170  -15.2428 N   0  0  0  0  0  0  0  0  0  0  0  0
   13.4964  -19.3793  -14.0498 N   0  0  0  0  0  0  0  0  0  0  0  0
   14.2662  -20.0869  -13.0294 C   0  0  0  0  0  0  0  0  0  0  0  0
   15.1148  -21.1210  -13.7271 C   0  0  0  0  0  0  0  0  0  0  0  0
   15.9229  -21.8699  -12.7329 C   0  0  0  0  0  0  0  0  0  0  0  0
   15.2504  -22.9618  -11.9938 C   0  0  2  0  0  0  0  0  0  0  0  0
   16.0311  -23.6626  -11.0359 N   0  0  0  0  0  0  0  0  0  0  0  0
   14.5267  -23.7986  -12.9882 C   0  0  0  0  0  0  0  0  0  0  0  0
   13.2058  -23.4874  -13.2550 O   0  0  0  0  0  0  0  0  0  0  0  0
   15.0672  -24.7397  -13.5645 O   0  0  0  0  0  0  0  0  0  0  0  0
  2  1  1  6
  2  3  1  0
  3  4  1  0
  4  5  2  0
  5  6  1  0
  7  6  1  0
  8  7  2  0
  9  8  1  0
 10 11  1  0
 10  9  2  0
 11 12  2  0
 12  4  1  0
 12  7  1  0
 13  2  1  0
 13 14  2  0
 15 13  1  0
 16 15  1  0
 16 17  1  1
 18 17  1  0
 19 18  2  0
 20 21  2  0
 20 16  1  0
 22 18  1  0
 23 24  1  0
 24 25  2  0
 26 27  1  0
 26 24  1  0
 27 28  1  0
 29 28  1  0
 30 31  1  0
 30 29  1  6
 31 20  1  0
 32 30  1  0
 33 32  1  0
 34 32  2  0
M  END
$$$$
