WDR.pdb
     RDKit          3D

 34 35  0  0  1  0  0  0  0  0999 V2000
   25.9627  -21.2121  -13.9454 N   0  0  0  0  0  0  0  0  0  0  0  0
   25.2443  -21.1341  -12.6988 C   0  0  1  0  0  0  0  0  0  0  0  0
   25.7832  -19.9994  -11.8833 C   0  0  0  0  0  0  0  0  0  0  0  0
   27.0974  -20.3879  -11.3196 C   0  0  0  0  0  0  0  0  0  0  0  0
   28.3336  -20.3274  -11.9736 C   0  0  0  0  0  0  0  0  0  0  0  0
   29.3126  -20.7199  -11.1448 N   0  0  0  0  0  0  0  0  0  0  0  0
   28.7588  -21.0385   -9.9626 C   0  0  0  0  0  0  0  0  0  0  0  0
   29.3736  -21.5036   -8.7997 C   0  0  0  0  0  0  0  0  0  0  0  0
   28.6078  -21.7809   -7.6930 C   0  0  0  0  0  0  0  0  0  0  0  0
   27.2493  -21.5845   -7.7854 C   0  0  0  0  0  0  0  0  0  0  0  0
   26.6307  -21.1194   -8.9457 C   0  0  0  0  0  0  0  0  0  0  0  0
   27.4024  -20.8442  -10.0438 C   0  0  0  0  0  0  0  0  0  0  0  0
   23.7911  -20.9741  -12.9823 C   0  0  0  0  0  0  0  0  0  0  0  0
   23.4091  -19.9217  -13.5446 O   0  0  0  0  0  0  0  0  0  0  0  0
   22.8037  -21.9426  -12.6552 N   0  0  0  0  0  0  0  0  0  0  0  0
   21.4160  -21.7908  -12.9951 C   0  0  1  0  0  0  0  0  0  0  0  0
   21.2774  -21.8193  -14.5206 C   0  0  0  0  0  0  0  0  0  0  0  0
   21.4068  -20.4744  -15.1213 C   0  0  0  0  0  0  0  0  0  0  0  0
   20.7936  -19.4652  -14.6913 O   0  0  0  0  0  0  0  0  0  0  0  0
   20.5624  -22.8540  -12.3738 C   0  0  0  0  0  0  0  0  0  0  0  0
   20.6269  -24.0221  -12.8235 O   0  0  0  0  0  0  0  0  0  0  0  0
   22.2421  -20.3034  -16.2132 O   0  0  0  0  0  0  0  0  0  0  0  0
   16.4720  -25.0766   -5.4439 N   0  0  0  0  0  0  0  0  0  0  0  0
   17.2424  -26.0844   -6.0921 C   0  0  0  0  0  0  0  0  0  0  0  0
   17.1056  -27.3315   -5.7455 N   0  0  0  0  0  0  0  0  0  0  0  0
   18.1729  -25.7927   -7.1208 N   0  0  0  0  0  0  0  0  0  0  0  0
   18.5194  -24.4073   -7.4291 C   0  0  0  0  0  0  0  0  0  0  0  0
   17.5331  -23.9027   -8.4533 C   0  0  0  0  0  0  0  0  0  0  0  0
   18.1948  -22.9335   -9.3615 C   0  0  0  0  0  0  0  0  0  0  0  0
   18.8776  -23.4782  -10.5564 C   0  0  2  0  0  0  0  0  0  0  0  0
   19.6890  -22.5774  -11.2969 N   0  0  0  0  0  0  0  0  0  0  0  0
   17.8720  -24.2476  -11.3371 C   0  0  0  0  0  0  0  0  0  0  0  0
   17.8637  -25.6239  -11.2007 O   0  0  0  0  0  0  0  0  0  0  0  0
   17.0664  -23.6970  -12.0839 O   0  0  0  0  0  0  0  0  0  0  0  0
  2  1  1  6
  2  3  1  0
  3  4  1  0
  4  5  2  0
  5  6  1  0
  7  6  1  0
  8  7  2  0
  9  8  1  0
 10 11  1  0
 10  9  2  0
 11 12  2  0
 12  4  1  0
 12  7  1  0
 13  2  1  0
 13 14  2  0
 15 13  1  0
 16 15  1  0
 16 17  1  6
 18 17  1  0
 19 18  2  0
 20 21  2  0
 20 16  1  0
 22 18  1  0
 23 24  1  0
 24 25  2  0
 26 27  1  0
 26 24  1  0
 27 28  1  0
 29 28  1  0
 30 31  1  0
 30 29  1  1
 31 20  1  0
 32 30  1  0
 33 32  1  0
 34 32  2  0
M  END
$$$$
