WDR.pdb
     RDKit          3D

 34 35  0  0  1  0  0  0  0  0999 V2000
   25.6770  -19.1876   -9.5999 N   0  0  0  0  0  0  0  0  0  0  0  0
   26.6238  -20.1619  -10.0800 C   0  0  1  0  0  0  0  0  0  0  0  0
   26.5195  -21.4070   -9.2542 C   0  0  0  0  0  0  0  0  0  0  0  0
   26.7342  -21.0635   -7.8288 C   0  0  0  0  0  0  0  0  0  0  0  0
   25.7573  -21.0207   -6.8273 C   0  0  0  0  0  0  0  0  0  0  0  0
   26.3190  -20.7117   -5.6489 N   0  0  0  0  0  0  0  0  0  0  0  0
   27.6386  -20.5486   -5.8434 C   0  0  0  0  0  0  0  0  0  0  0  0
   28.6296  -20.2150   -4.9195 C   0  0  0  0  0  0  0  0  0  0  0  0
   29.9318  -20.0879   -5.3392 C   0  0  0  0  0  0  0  0  0  0  0  0
   30.2014  -20.2982   -6.6717 C   0  0  0  0  0  0  0  0  0  0  0  0
   29.2141  -20.6323   -7.5985 C   0  0  0  0  0  0  0  0  0  0  0  0
   27.9186  -20.7582   -7.1707 C   0  0  0  0  0  0  0  0  0  0  0  0
   26.3622  -20.4273  -11.5218 C   0  0  0  0  0  0  0  0  0  0  0  0
   25.3320  -19.9350  -12.0378 O   0  0  0  0  0  0  0  0  0  0  0  0
   27.2093  -21.2065  -12.3555 N   0  0  0  0  0  0  0  0  0  0  0  0
   27.2017  -21.1082  -13.7889 C   0  0  1  0  0  0  0  0  0  0  0  0
   28.5009  -21.7133  -14.3302 C   0  0  0  0  0  0  0  0  0  0  0  0
   28.6250  -21.5578  -15.7954 C   0  0  0  0  0  0  0  0  0  0  0  0
   29.6074  -21.9840  -16.4532 O   0  0  0  0  0  0  0  0  0  0  0  0
   26.0150  -21.7925  -14.3960 C   0  0  0  0  0  0  0  0  0  0  0  0
   26.0067  -23.0438  -14.4642 O   0  0  0  0  0  0  0  0  0  0  0  0
   27.6156  -20.9122  -16.4908 O   0  0  0  0  0  0  0  0  0  0  0  0
   20.0899  -21.0934  -10.3677 N   0  0  0  0  0  0  0  0  0  0  0  0
   20.0877  -19.9809  -11.2574 C   0  0  0  0  0  0  0  0  0  0  0  0
   19.8037  -18.7915  -10.8113 N   0  0  0  0  0  0  0  0  0  0  0  0
   20.3868  -20.1045  -12.6374 N   0  0  0  0  0  0  0  0  0  0  0  0
   20.8204  -21.3878  -13.1848 C   0  0  0  0  0  0  0  0  0  0  0  0
   22.2818  -21.2672  -13.5397 C   0  0  0  0  0  0  0  0  0  0  0  0
   22.4418  -21.1855  -15.0128 C   0  0  0  0  0  0  0  0  0  0  0  0
   23.7602  -21.5544  -15.5752 C   0  0  2  0  0  0  0  0  0  0  0  0
   24.9069  -21.0678  -14.8922 N   0  0  0  0  0  0  0  0  0  0  0  0
   23.7118  -21.2982  -17.0397 C   0  0  0  0  0  0  0  0  0  0  0  0
   23.8750  -22.3768  -17.8899 O   0  0  0  0  0  0  0  0  0  0  0  0
   23.5336  -20.1724  -17.4988 O   0  0  0  0  0  0  0  0  0  0  0  0
  2  1  1  1
  2  3  1  0
  3  4  1  0
  4  5  2  0
  5  6  1  0
  7  6  1  0
  8  7  2  0
  9  8  1  0
 10 11  1  0
 10  9  2  0
 11 12  2  0
 12  4  1  0
 12  7  1  0
 13  2  1  0
 13 14  2  0
 15 13  1  0
 16 15  1  0
 16 17  1  6
 18 17  1  0
 19 18  2  0
 20 21  2  0
 20 16  1  0
 22 18  1  0
 23 24  1  0
 24 25  2  0
 26 27  1  0
 26 24  1  0
 27 28  1  0
 29 28  1  0
 30 31  1  0
 30 29  1  1
 31 20  1  0
 32 30  1  0
 33 32  1  0
 34 32  2  0
M  END
$$$$
