WDR.pdb
     RDKit          3D

 34 35  0  0  1  0  0  0  0  0999 V2000
   23.3817  -20.7571  -10.8891 N   0  0  0  0  0  0  0  0  0  0  0  0
   24.6337  -20.4427  -11.5293 C   0  0  1  0  0  0  0  0  0  0  0  0
   25.6599  -21.4636  -11.1449 C   0  0  0  0  0  0  0  0  0  0  0  0
   26.3410  -21.0239   -9.9045 C   0  0  0  0  0  0  0  0  0  0  0  0
   25.7324  -20.4642   -8.7750 C   0  0  0  0  0  0  0  0  0  0  0  0
   26.6515  -20.2251   -7.8276 N   0  0  0  0  0  0  0  0  0  0  0  0
   27.8496  -20.6102   -8.2989 C   0  0  0  0  0  0  0  0  0  0  0  0
   29.0990  -20.5502   -7.6806 C   0  0  0  0  0  0  0  0  0  0  0  0
   30.2105  -20.9944   -8.3552 C   0  0  0  0  0  0  0  0  0  0  0  0
   30.0367  -21.4845   -9.6289 C   0  0  0  0  0  0  0  0  0  0  0  0
   28.7897  -21.5467  -10.2504 C   0  0  0  0  0  0  0  0  0  0  0  0
   27.6867  -21.1027   -9.5697 C   0  0  0  0  0  0  0  0  0  0  0  0
   24.4280  -20.3887  -13.0033 C   0  0  0  0  0  0  0  0  0  0  0  0
   23.7638  -21.3036  -13.5431 O   0  0  0  0  0  0  0  0  0  0  0  0
   24.9385  -19.3614  -13.8422 N   0  0  0  0  0  0  0  0  0  0  0  0
   24.7497  -19.3483  -15.2666 C   0  0  1  0  0  0  0  0  0  0  0  0
   24.5943  -17.8960  -15.7287 C   0  0  0  0  0  0  0  0  0  0  0  0
   24.2278  -17.7977  -17.1579 C   0  0  0  0  0  0  0  0  0  0  0  0
   24.9860  -17.3073  -18.0320 O   0  0  0  0  0  0  0  0  0  0  0  0
   25.8819  -20.0085  -15.9927 C   0  0  0  0  0  0  0  0  0  0  0  0
   26.8570  -19.3104  -16.3568 O   0  0  0  0  0  0  0  0  0  0  0  0
   22.9901  -18.2656  -17.5682 O   0  0  0  0  0  0  0  0  0  0  0  0
   26.6283  -26.1341  -15.5697 N   0  0  0  0  0  0  0  0  0  0  0  0
   27.2506  -26.8808  -16.6111 C   0  0  0  0  0  0  0  0  0  0  0  0
   26.9855  -28.1474  -16.7514 N   0  0  0  0  0  0  0  0  0  0  0  0
   28.1659  -26.3020  -17.5256 N   0  0  0  0  0  0  0  0  0  0  0  0
   28.4733  -24.8754  -17.4562 C   0  0  0  0  0  0  0  0  0  0  0  0
   27.4480  -24.1423  -18.2854 C   0  0  0  0  0  0  0  0  0  0  0  0
   26.4279  -23.5245  -17.4022 C   0  0  0  0  0  0  0  0  0  0  0  0
   26.2660  -22.0551  -17.4743 C   0  0  2  0  0  0  0  0  0  0  0  0
   25.8813  -21.3935  -16.2775 N   0  0  0  0  0  0  0  0  0  0  0  0
   25.4522  -21.7512  -18.6819 C   0  0  0  0  0  0  0  0  0  0  0  0
   25.1723  -20.4247  -18.9553 O   0  0  0  0  0  0  0  0  0  0  0  0
   25.0331  -22.6358  -19.4248 O   0  0  0  0  0  0  0  0  0  0  0  0
  2  1  1  1
  2  3  1  0
  3  4  1  0
  4  5  2  0
  5  6  1  0
  7  6  1  0
  8  7  2  0
  9  8  1  0
 10 11  1  0
 10  9  2  0
 11 12  2  0
 12  4  1  0
 12  7  1  0
 13  2  1  0
 13 14  2  0
 15 13  1  0
 16 15  1  0
 16 17  1  6
 18 17  1  0
 19 18  2  0
 20 21  2  0
 20 16  1  0
 22 18  1  0
 23 24  1  0
 24 25  2  0
 26 27  1  0
 26 24  1  0
 27 28  1  0
 29 28  1  0
 30 31  1  0
 30 29  1  1
 31 20  1  0
 32 30  1  0
 33 32  1  0
 34 32  2  0
M  END
$$$$
