WDR.pdb
     RDKit          3D

 34 35  0  0  1  0  0  0  0  0999 V2000
   16.1032  -19.4529    3.1413 N   0  0  0  0  0  0  0  0  0  0  0  0
   15.9161  -20.2103    4.3527 C   0  0  1  0  0  0  0  0  0  0  0  0
   16.6429  -21.5151    4.2418 C   0  0  0  0  0  0  0  0  0  0  0  0
   15.7701  -22.5005    3.5613 C   0  0  0  0  0  0  0  0  0  0  0  0
   14.5453  -22.2358    2.9375 C   0  0  0  0  0  0  0  0  0  0  0  0
   14.0539  -23.3587    2.3925 N   0  0  0  0  0  0  0  0  0  0  0  0
   14.9184  -24.3576    2.6389 C   0  0  0  0  0  0  0  0  0  0  0  0
   14.8344  -25.7029    2.2785 C   0  0  0  0  0  0  0  0  0  0  0  0
   15.8380  -26.5665    2.6461 C   0  0  0  0  0  0  0  0  0  0  0  0
   16.8947  -26.0561    3.3640 C   0  0  0  0  0  0  0  0  0  0  0  0
   16.9829  -24.7120    3.7259 C   0  0  0  0  0  0  0  0  0  0  0  0
   15.9782  -23.8580    3.3539 C   0  0  0  0  0  0  0  0  0  0  0  0
   16.3935  -19.4045    5.5106 C   0  0  0  0  0  0  0  0  0  0  0  0
   17.4870  -18.8026    5.4033 O   0  0  0  0  0  0  0  0  0  0  0  0
   15.6858  -19.2728    6.7360 N   0  0  0  0  0  0  0  0  0  0  0  0
   16.2203  -18.5841    7.8781 C   0  0  1  0  0  0  0  0  0  0  0  0
   15.1770  -17.5809    8.3801 C   0  0  0  0  0  0  0  0  0  0  0  0
   15.7836  -16.2938    8.7822 C   0  0  0  0  0  0  0  0  0  0  0  0
   15.1371  -15.2182    8.8500 O   0  0  0  0  0  0  0  0  0  0  0  0
   16.6080  -19.5270    8.9762 C   0  0  0  0  0  0  0  0  0  0  0  0
   15.9414  -20.5760    9.1372 O   0  0  0  0  0  0  0  0  0  0  0  0
   17.1307  -16.2566    9.1031 O   0  0  0  0  0  0  0  0  0  0  0  0
   23.8818  -23.3813   10.4150 N   0  0  0  0  0  0  0  0  0  0  0  0
   22.7220  -24.0704    9.9576 C   0  0  0  0  0  0  0  0  0  0  0  0
   22.8195  -25.2962    9.5306 N   0  0  0  0  0  0  0  0  0  0  0  0
   21.4351  -23.4763    9.9433 N   0  0  0  0  0  0  0  0  0  0  0  0
   21.2504  -22.1081   10.4211 C   0  0  0  0  0  0  0  0  0  0  0  0
   19.7736  -21.8018   10.3820 C   0  0  0  0  0  0  0  0  0  0  0  0
   19.5127  -20.4781   10.9999 C   0  0  0  0  0  0  0  0  0  0  0  0
   18.1174  -19.9846   10.9870 C   0  0  2  0  0  0  0  0  0  0  0  0
   17.7022  -19.2674    9.8331 N   0  0  0  0  0  0  0  0  0  0  0  0
   17.8615  -19.3254   12.2957 C   0  0  0  0  0  0  0  0  0  0  0  0
   18.0638  -20.0692   13.4441 O   0  0  0  0  0  0  0  0  0  0  0  0
   17.4825  -18.1593   12.3750 O   0  0  0  0  0  0  0  0  0  0  0  0
  2  1  1  6
  2  3  1  0
  3  4  1  0
  4  5  2  0
  5  6  1  0
  7  6  1  0
  8  7  2  0
  9  8  1  0
 10 11  1  0
 10  9  2  0
 11 12  2  0
 12  4  1  0
 12  7  1  0
 13  2  1  0
 13 14  2  0
 15 13  1  0
 16 15  1  0
 16 17  1  1
 18 17  1  0
 19 18  2  0
 20 21  2  0
 20 16  1  0
 22 18  1  0
 23 24  1  0
 24 25  2  0
 26 27  1  0
 26 24  1  0
 27 28  1  0
 29 28  1  0
 30 31  1  0
 30 29  1  6
 31 20  1  0
 32 30  1  0
 33 32  1  0
 34 32  2  0
M  END
$$$$
