QKH.pdb
     RDKit          3D

 29 29  0  0  1  0  0  0  0  0999 V2000
   20.0061  -17.0917  -20.4339 N   0  0  0  0  0  0  0  0  0  0  0  0
   21.2846  -16.8560  -20.9953 C   0  0  0  0  0  0  0  0  0  0  0  0
   21.4942  -15.8258  -21.6731 O   0  0  0  0  0  0  0  0  0  0  0  0
   22.3554  -17.8225  -20.7781 C   0  0  0  0  0  0  0  0  0  0  0  0
   21.9062  -19.0484  -20.0114 C   0  0  0  0  0  0  0  0  0  0  0  0
   21.9447  -18.6814  -18.5460 C   0  0  2  0  0  0  0  0  0  0  0  0
   23.3051  -18.4780  -18.1614 N   0  0  0  0  0  0  0  0  0  0  0  0
   21.2567  -19.6894  -17.7022 C   0  0  0  0  0  0  0  0  0  0  0  0
   20.0361  -19.9369  -17.8034 O   0  0  0  0  0  0  0  0  0  0  0  0
   21.9928  -20.4137  -16.7351 N   0  0  0  0  0  0  0  0  0  0  0  0
   21.3774  -21.4139  -15.8489 C   0  0  1  0  0  0  0  0  0  0  0  0
   22.4436  -22.2290  -15.1722 C   0  0  0  0  0  0  0  0  0  0  0  0
   23.0389  -23.2083  -16.1402 C   0  0  0  0  0  0  0  0  0  0  0  0
   24.1523  -24.0350  -15.4786 C   0  0  0  0  0  0  0  0  0  0  0  0
   24.8681  -24.8385  -16.5089 C   0  0  0  0  0  0  0  0  0  0  0  0
   25.9907  -25.5742  -15.9300 N   0  0  0  0  0  0  0  0  0  0  0  0
   20.4049  -20.7711  -14.9529 C   0  0  0  0  0  0  0  0  0  0  0  0
   20.5949  -19.6869  -14.3589 O   0  0  0  0  0  0  0  0  0  0  0  0
   19.1111  -21.3806  -14.6920 N   0  0  0  0  0  0  0  0  0  0  0  0
   18.1207  -20.7321  -13.8736 C   0  0  1  0  0  0  0  0  0  0  0  0
   17.8576  -19.3064  -14.1854 C   0  0  0  0  0  0  0  0  0  0  0  0
   18.5919  -18.2986  -13.4339 C   0  0  0  0  0  0  0  0  0  0  0  0
   19.4965  -18.4487  -12.4308 C   0  0  0  0  0  0  0  0  0  0  0  0
   19.9576  -17.2154  -12.0439 N   0  0  0  0  0  0  0  0  0  0  0  0
   19.3144  -16.3531  -12.8296 C   0  0  0  0  0  0  0  0  0  0  0  0
   18.4934  -16.9731  -13.6684 N   0  0  0  0  0  0  0  0  0  0  0  0
   16.8647  -21.5424  -13.7986 C   0  0  0  0  0  0  0  0  0  0  0  0
   16.6988  -22.7505  -14.4545 O   0  0  0  0  0  0  0  0  0  0  0  0
   15.9054  -21.1150  -13.1083 O   0  0  0  0  0  0  0  0  0  0  0  0
  2  1  1  0
  2  3  2  0
  4  2  1  0
  5  4  1  0
  5  6  1  0
  6  7  1  1
  8  6  1  0
  8  9  2  0
 10  8  1  0
 11 10  1  0
 11 12  1  1
 13 12  1  0
 13 14  1  0
 15 14  1  0
 16 15  1  0
 17 11  1  0
 18 17  2  0
 19 17  1  0
 20 19  1  0
 20 27  1  0
 20 21  1  6
 22 23  2  0
 22 21  1  0
 24 23  1  0
 25 26  2  0
 25 24  1  0
 26 22  1  0
 27 28  1  0
 29 27  2  0
M  END
$$$$
