QKH.pdb
     RDKit          3D

 29 29  0  0  1  0  0  0  0  0999 V2000
   19.0347  -14.7871  -17.4882 N   0  0  0  0  0  0  0  0  0  0  0  0
   18.3597  -15.1728  -16.3045 C   0  0  0  0  0  0  0  0  0  0  0  0
   18.1248  -16.3804  -16.0788 O   0  0  0  0  0  0  0  0  0  0  0  0
   17.9400  -14.1522  -15.3503 C   0  0  0  0  0  0  0  0  0  0  0  0
   18.3507  -12.7521  -15.7548 C   0  0  0  0  0  0  0  0  0  0  0  0
   17.1011  -11.9036  -15.7093 C   0  0  2  0  0  0  0  0  0  0  0  0
   16.1903  -12.3781  -16.7019 N   0  0  0  0  0  0  0  0  0  0  0  0
   17.4046  -10.4587  -15.8559 C   0  0  0  0  0  0  0  0  0  0  0  0
   17.6816   -9.9337  -16.9553 O   0  0  0  0  0  0  0  0  0  0  0  0
   17.3858   -9.6198  -14.7168 N   0  0  0  0  0  0  0  0  0  0  0  0
   17.6394   -8.1723  -14.7880 C   0  0  1  0  0  0  0  0  0  0  0  0
   16.4801   -7.4162  -14.2020 C   0  0  0  0  0  0  0  0  0  0  0  0
   15.2660   -7.5773  -15.0682 C   0  0  0  0  0  0  0  0  0  0  0  0
   14.1084   -6.6985  -14.5698 C   0  0  0  0  0  0  0  0  0  0  0  0
   12.9196   -6.8783  -15.4496 C   0  0  0  0  0  0  0  0  0  0  0  0
   11.8528   -5.9396  -15.1072 N   0  0  0  0  0  0  0  0  0  0  0  0
   18.9570   -7.8571  -14.2169 C   0  0  0  0  0  0  0  0  0  0  0  0
   19.3415   -8.2105  -13.0803 O   0  0  0  0  0  0  0  0  0  0  0  0
   19.9329   -7.0847  -14.9682 N   0  0  0  0  0  0  0  0  0  0  0  0
   21.2357   -6.7875  -14.4340 C   0  0  1  0  0  0  0  0  0  0  0  0
   22.3876   -7.2304  -15.2563 C   0  0  0  0  0  0  0  0  0  0  0  0
   22.4510   -8.6336  -15.6393 C   0  0  0  0  0  0  0  0  0  0  0  0
   21.6989   -9.6850  -15.2195 C   0  0  0  0  0  0  0  0  0  0  0  0
   22.0937  -10.8210  -15.8803 N   0  0  0  0  0  0  0  0  0  0  0  0
   23.0772  -10.4192  -16.6840 C   0  0  0  0  0  0  0  0  0  0  0  0
   23.3104   -9.1183  -16.5600 N   0  0  0  0  0  0  0  0  0  0  0  0
   21.3407   -5.3505  -14.0295 C   0  0  0  0  0  0  0  0  0  0  0  0
   22.3899   -4.8462  -13.2799 O   0  0  0  0  0  0  0  0  0  0  0  0
   20.4368   -4.5517  -14.3821 O   0  0  0  0  0  0  0  0  0  0  0  0
  2  1  1  0
  2  3  2  0
  4  2  1  0
  5  4  1  0
  5  6  1  0
  6  7  1  6
  8  6  1  0
  8  9  2  0
 10  8  1  0
 11 10  1  0
 11 12  1  1
 13 12  1  0
 13 14  1  0
 15 14  1  0
 16 15  1  0
 17 11  1  0
 18 17  2  0
 19 17  1  0
 20 19  1  0
 20 27  1  0
 20 21  1  6
 22 23  2  0
 22 21  1  0
 24 23  1  0
 25 26  2  0
 25 24  1  0
 26 22  1  0
 27 28  1  0
 29 27  2  0
M  END
$$$$
