QKH.pdb
     RDKit          3D

 29 29  0  0  1  0  0  0  0  0999 V2000
   28.7110  -17.4490  -18.4166 N   0  0  0  0  0  0  0  0  0  0  0  0
   27.4653  -18.1214  -18.4529 C   0  0  0  0  0  0  0  0  0  0  0  0
   26.5879  -17.7773  -19.2754 O   0  0  0  0  0  0  0  0  0  0  0  0
   27.2119  -19.2180  -17.5246 C   0  0  0  0  0  0  0  0  0  0  0  0
   28.3595  -19.4681  -16.5692 C   0  0  0  0  0  0  0  0  0  0  0  0
   28.2013  -20.8830  -16.0627 C   0  0  2  0  0  0  0  0  0  0  0  0
   28.2088  -21.7720  -17.1805 N   0  0  0  0  0  0  0  0  0  0  0  0
   26.9926  -21.0387  -15.2165 C   0  0  0  0  0  0  0  0  0  0  0  0
   25.9126  -21.4883  -15.6556 O   0  0  0  0  0  0  0  0  0  0  0  0
   27.0404  -20.6693  -13.8516 N   0  0  0  0  0  0  0  0  0  0  0  0
   25.8894  -20.8105  -12.9463 C   0  0  1  0  0  0  0  0  0  0  0  0
   26.3295  -20.6302  -11.5205 C   0  0  0  0  0  0  0  0  0  0  0  0
   25.1996  -20.9469  -10.5860 C   0  0  0  0  0  0  0  0  0  0  0  0
   25.6523  -20.8632   -9.1200 C   0  0  0  0  0  0  0  0  0  0  0  0
   24.5523  -21.3155   -8.2227 C   0  0  0  0  0  0  0  0  0  0  0  0
   24.8752  -21.0773   -6.8172 N   0  0  0  0  0  0  0  0  0  0  0  0
   24.7865  -19.9429  -13.3850 C   0  0  0  0  0  0  0  0  0  0  0  0
   24.9334  -18.8085  -13.8911 O   0  0  0  0  0  0  0  0  0  0  0  0
   23.4023  -20.3671  -13.2524 N   0  0  0  0  0  0  0  0  0  0  0  0
   22.3441  -19.7397  -13.9990 C   0  0  1  0  0  0  0  0  0  0  0  0
   22.5884  -19.5748  -15.4523 C   0  0  0  0  0  0  0  0  0  0  0  0
   21.5538  -18.9291  -16.2476 C   0  0  0  0  0  0  0  0  0  0  0  0
   20.6929  -17.9326  -15.9114 C   0  0  0  0  0  0  0  0  0  0  0  0
   19.9133  -17.6180  -16.9960 N   0  0  0  0  0  0  0  0  0  0  0  0
   20.3295  -18.4380  -17.9598 C   0  0  0  0  0  0  0  0  0  0  0  0
   21.3079  -19.2307  -17.5398 N   0  0  0  0  0  0  0  0  0  0  0  0
   21.0231  -20.3811  -13.7102 C   0  0  0  0  0  0  0  0  0  0  0  0
   20.8478  -21.3610  -12.7478 O   0  0  0  0  0  0  0  0  0  0  0  0
   20.0149  -20.0203  -14.3680 O   0  0  0  0  0  0  0  0  0  0  0  0
  2  1  1  0
  2  3  2  0
  4  2  1  0
  5  4  1  0
  5  6  1  0
  6  7  1  6
  8  6  1  0
  8  9  2  0
 10  8  1  0
 11 10  1  0
 11 12  1  1
 13 12  1  0
 13 14  1  0
 15 14  1  0
 16 15  1  0
 17 11  1  0
 18 17  2  0
 19 17  1  0
 20 19  1  0
 20 27  1  0
 20 21  1  6
 22 23  2  0
 22 21  1  0
 24 23  1  0
 25 26  2  0
 25 24  1  0
 26 22  1  0
 27 28  1  0
 29 27  2  0
M  END
$$$$
