QKH.pdb
     RDKit          3D

 29 29  0  0  1  0  0  0  0  0999 V2000
   19.0928  -14.6889  -14.7729 N   0  0  0  0  0  0  0  0  0  0  0  0
   18.6408  -14.3030  -16.0583 C   0  0  0  0  0  0  0  0  0  0  0  0
   17.6825  -14.9020  -16.5946 O   0  0  0  0  0  0  0  0  0  0  0  0
   19.3001  -13.2025  -16.7528 C   0  0  0  0  0  0  0  0  0  0  0  0
   20.3973  -12.5534  -15.9359 C   0  0  0  0  0  0  0  0  0  0  0  0
   20.9784  -11.4502  -16.7896 C   0  0  2  0  0  0  0  0  0  0  0  0
   21.3276  -11.9938  -18.0634 N   0  0  0  0  0  0  0  0  0  0  0  0
   22.1196  -10.7748  -16.1240 C   0  0  0  0  0  0  0  0  0  0  0  0
   22.1601  -10.5712  -14.8919 O   0  0  0  0  0  0  0  0  0  0  0  0
   23.2199  -10.3336  -16.8962 N   0  0  0  0  0  0  0  0  0  0  0  0
   24.3547   -9.5962  -16.3192 C   0  0  1  0  0  0  0  0  0  0  0  0
   25.6476  -10.1160  -16.8826 C   0  0  0  0  0  0  0  0  0  0  0  0
   26.1781  -11.2250  -16.0230 C   0  0  0  0  0  0  0  0  0  0  0  0
   27.4753  -11.8066  -16.6059 C   0  0  0  0  0  0  0  0  0  0  0  0
   27.9650  -12.9187  -15.7440 C   0  0  0  0  0  0  0  0  0  0  0  0
   29.1574  -13.5485  -16.3080 N   0  0  0  0  0  0  0  0  0  0  0  0
   24.1412   -8.1476  -16.4515 C   0  0  0  0  0  0  0  0  0  0  0  0
   24.5340   -7.4570  -17.4176 O   0  0  0  0  0  0  0  0  0  0  0  0
   23.4320   -7.3990  -15.4267 N   0  0  0  0  0  0  0  0  0  0  0  0
   23.1336   -5.9998  -15.5822 C   0  0  1  0  0  0  0  0  0  0  0  0
   22.5321   -5.6077  -16.8797 C   0  0  0  0  0  0  0  0  0  0  0  0
   22.2612   -4.1951  -17.1052 C   0  0  0  0  0  0  0  0  0  0  0  0
   23.1223   -3.1474  -17.1946 C   0  0  0  0  0  0  0  0  0  0  0  0
   22.4173   -1.9978  -17.4488 N   0  0  0  0  0  0  0  0  0  0  0  0
   21.1450   -2.3881  -17.5061 C   0  0  0  0  0  0  0  0  0  0  0  0
   21.0238   -3.6945  -17.3047 N   0  0  0  0  0  0  0  0  0  0  0  0
   22.3606   -5.4773  -14.4122 C   0  0  0  0  0  0  0  0  0  0  0  0
   21.9502   -6.2724  -13.3555 O   0  0  0  0  0  0  0  0  0  0  0  0
   22.0631   -4.2568  -14.3758 O   0  0  0  0  0  0  0  0  0  0  0  0
  2  1  1  0
  2  3  2  0
  4  2  1  0
  5  4  1  0
  5  6  1  0
  6  7  1  6
  8  6  1  0
  8  9  2  0
 10  8  1  0
 11 10  1  0
 11 12  1  6
 13 12  1  0
 13 14  1  0
 15 14  1  0
 16 15  1  0
 17 11  1  0
 18 17  2  0
 19 17  1  0
 20 19  1  0
 20 27  1  0
 20 21  1  6
 22 23  2  0
 22 21  1  0
 24 23  1  0
 25 26  2  0
 25 24  1  0
 26 22  1  0
 27 28  1  0
 29 27  2  0
M  END
$$$$
