QKH.pdb
     RDKit          3D

 29 29  0  0  1  0  0  0  0  0999 V2000
   17.5233  -16.2115  -16.3851 N   0  0  0  0  0  0  0  0  0  0  0  0
   16.3437  -15.5905  -16.8629 C   0  0  0  0  0  0  0  0  0  0  0  0
   16.0236  -15.6903  -18.0680 O   0  0  0  0  0  0  0  0  0  0  0  0
   15.5045  -14.8336  -15.9404 C   0  0  0  0  0  0  0  0  0  0  0  0
   15.4064  -13.3641  -16.2918 C   0  0  0  0  0  0  0  0  0  0  0  0
   15.7478  -12.5946  -15.0369 C   0  0  2  0  0  0  0  0  0  0  0  0
   14.7040  -12.7913  -14.0821 N   0  0  0  0  0  0  0  0  0  0  0  0
   16.0039  -11.1602  -15.3167 C   0  0  0  0  0  0  0  0  0  0  0  0
   16.8050  -10.7747  -16.1946 O   0  0  0  0  0  0  0  0  0  0  0  0
   15.3242  -10.1686  -14.5709 N   0  0  0  0  0  0  0  0  0  0  0  0
   15.5399   -8.7279  -14.7767 C   0  0  1  0  0  0  0  0  0  0  0  0
   14.5451   -7.9376  -13.9736 C   0  0  0  0  0  0  0  0  0  0  0  0
   13.1674   -8.1103  -14.5413 C   0  0  0  0  0  0  0  0  0  0  0  0
   12.1211   -7.3716  -13.6924 C   0  0  0  0  0  0  0  0  0  0  0  0
   10.7688   -7.5397  -14.2946 C   0  0  0  0  0  0  0  0  0  0  0  0
    9.7390   -6.8843  -13.4905 N   0  0  0  0  0  0  0  0  0  0  0  0
   16.9522   -8.3869  -14.5516 C   0  0  0  0  0  0  0  0  0  0  0  0
   17.6333   -8.7857  -13.5812 O   0  0  0  0  0  0  0  0  0  0  0  0
   17.6726   -7.5311  -15.4801 N   0  0  0  0  0  0  0  0  0  0  0  0
   19.0649   -7.2176  -15.2953 C   0  0  1  0  0  0  0  0  0  0  0  0
   20.0276   -8.1823  -15.8798 C   0  0  0  0  0  0  0  0  0  0  0  0
   21.4483   -7.9020  -15.7295 C   0  0  0  0  0  0  0  0  0  0  0  0
   22.0742   -6.9570  -14.9795 C   0  0  0  0  0  0  0  0  0  0  0  0
   23.4328   -7.0874  -15.1222 N   0  0  0  0  0  0  0  0  0  0  0  0
   23.5873   -8.1130  -15.9580 C   0  0  0  0  0  0  0  0  0  0  0  0
   22.4189   -8.6175  -16.3356 N   0  0  0  0  0  0  0  0  0  0  0  0
   19.3595   -5.8047  -15.6910 C   0  0  0  0  0  0  0  0  0  0  0  0
   20.4242   -5.0792  -15.1839 O   0  0  0  0  0  0  0  0  0  0  0  0
   18.6096   -5.2376  -16.5249 O   0  0  0  0  0  0  0  0  0  0  0  0
  2  1  1  0
  2  3  2  0
  4  2  1  0
  5  4  1  0
  5  6  1  0
  6  7  1  1
  8  6  1  0
  8  9  2  0
 10  8  1  0
 11 10  1  0
 11 12  1  1
 13 12  1  0
 13 14  1  0
 15 14  1  0
 16 15  1  0
 17 11  1  0
 18 17  2  0
 19 17  1  0
 20 19  1  0
 20 27  1  0
 20 21  1  6
 22 23  2  0
 22 21  1  0
 24 23  1  0
 25 26  2  0
 25 24  1  0
 26 22  1  0
 27 28  1  0
 29 27  2  0
M  END
$$$$
