QKH.pdb
     RDKit          3D

 29 29  0  0  1  0  0  0  0  0999 V2000
   17.5968  -14.9880  -14.4464 N   0  0  0  0  0  0  0  0  0  0  0  0
   17.3758  -13.7100  -15.0149 C   0  0  0  0  0  0  0  0  0  0  0  0
   18.3072  -13.1093  -15.5948 O   0  0  0  0  0  0  0  0  0  0  0  0
   16.0547  -13.0986  -14.9197 C   0  0  0  0  0  0  0  0  0  0  0  0
   16.0957  -11.6590  -14.4527 C   0  0  0  0  0  0  0  0  0  0  0  0
   14.6604  -11.2113  -14.3011 C   0  0  2  0  0  0  0  0  0  0  0  0
   14.0059  -11.3397  -15.5641 N   0  0  0  0  0  0  0  0  0  0  0  0
   14.5616   -9.8402  -13.7429 C   0  0  0  0  0  0  0  0  0  0  0  0
   14.5501   -8.8170  -14.4599 O   0  0  0  0  0  0  0  0  0  0  0  0
   14.4758   -9.6584  -12.3425 N   0  0  0  0  0  0  0  0  0  0  0  0
   14.4287   -8.3299  -11.7121 C   0  0  1  0  0  0  0  0  0  0  0  0
   13.0682   -8.0876  -11.1207 C   0  0  0  0  0  0  0  0  0  0  0  0
   12.8628   -8.9622   -9.9194 C   0  0  0  0  0  0  0  0  0  0  0  0
   11.4944   -8.7014   -9.2710 C   0  0  0  0  0  0  0  0  0  0  0  0
   11.3131   -9.5943   -8.0922 C   0  0  0  0  0  0  0  0  0  0  0  0
   10.0788   -9.2868   -7.3721 N   0  0  0  0  0  0  0  0  0  0  0  0
   15.5610   -8.1633  -10.7893 C   0  0  0  0  0  0  0  0  0  0  0  0
   16.2357   -9.1040  -10.3155 O   0  0  0  0  0  0  0  0  0  0  0  0
   15.9832   -6.8421  -10.3534 N   0  0  0  0  0  0  0  0  0  0  0  0
   17.3433   -6.5711   -9.9693 C   0  0  1  0  0  0  0  0  0  0  0  0
   18.3849   -7.0011  -10.9332 C   0  0  0  0  0  0  0  0  0  0  0  0
   19.7780   -6.7730  -10.5768 C   0  0  0  0  0  0  0  0  0  0  0  0
   20.5749   -7.4466   -9.7060 C   0  0  0  0  0  0  0  0  0  0  0  0
   21.8317   -6.8958   -9.7179 N   0  0  0  0  0  0  0  0  0  0  0  0
   21.7556   -5.9011  -10.6008 C   0  0  0  0  0  0  0  0  0  0  0  0
   20.5412   -5.8061  -11.1282 N   0  0  0  0  0  0  0  0  0  0  0  0
   17.5122   -5.1467   -9.5424 C   0  0  0  0  0  0  0  0  0  0  0  0
   18.3816   -4.7513   -8.5399 O   0  0  0  0  0  0  0  0  0  0  0  0
   16.8362   -4.2556  -10.1154 O   0  0  0  0  0  0  0  0  0  0  0  0
  2  1  1  0
  2  3  2  0
  4  2  1  0
  5  4  1  0
  5  6  1  0
  6  7  1  6
  8  6  1  0
  8  9  2  0
 10  8  1  0
 11 10  1  0
 11 12  1  1
 13 12  1  0
 13 14  1  0
 15 14  1  0
 16 15  1  0
 17 11  1  0
 18 17  2  0
 19 17  1  0
 20 19  1  0
 20 27  1  0
 20 21  1  6
 22 23  2  0
 22 21  1  0
 24 23  1  0
 25 26  2  0
 25 24  1  0
 26 22  1  0
 27 28  1  0
 29 27  2  0
M  END
$$$$
