QKH.pdb
     RDKit          3D

 29 29  0  0  1  0  0  0  0  0999 V2000
   16.8407  -13.9036  -14.2068 N   0  0  0  0  0  0  0  0  0  0  0  0
   16.6354  -13.8490  -15.6069 C   0  0  0  0  0  0  0  0  0  0  0  0
   15.9692  -14.7388  -16.1806 O   0  0  0  0  0  0  0  0  0  0  0  0
   17.2062  -12.7484  -16.3757 C   0  0  0  0  0  0  0  0  0  0  0  0
   17.9403  -11.7393  -15.5182 C   0  0  0  0  0  0  0  0  0  0  0  0
   18.3009  -10.5832  -16.4221 C   0  0  2  0  0  0  0  0  0  0  0  0
   18.3762  -11.0603  -17.7662 N   0  0  0  0  0  0  0  0  0  0  0  0
   19.5459   -9.9040  -15.9860 C   0  0  0  0  0  0  0  0  0  0  0  0
   19.7269   -9.5103  -14.8140 O   0  0  0  0  0  0  0  0  0  0  0  0
   20.5862   -9.6815  -16.9186 N   0  0  0  0  0  0  0  0  0  0  0  0
   21.7988   -8.9146  -16.5929 C   0  0  1  0  0  0  0  0  0  0  0  0
   22.9070   -9.2742  -17.5425 C   0  0  0  0  0  0  0  0  0  0  0  0
   24.1649   -8.5474  -17.1690 C   0  0  0  0  0  0  0  0  0  0  0  0
   25.2626   -8.7609  -18.2227 C   0  0  0  0  0  0  0  0  0  0  0  0
   26.4859   -8.0004  -17.8424 C   0  0  0  0  0  0  0  0  0  0  0  0
   27.4759   -8.0053  -18.9179 N   0  0  0  0  0  0  0  0  0  0  0  0
   21.4849   -7.4815  -16.4967 C   0  0  0  0  0  0  0  0  0  0  0  0
   21.1852   -6.7532  -17.4685 O   0  0  0  0  0  0  0  0  0  0  0  0
   21.5041   -6.7955  -15.2151 N   0  0  0  0  0  0  0  0  0  0  0  0
   21.3014   -5.3743  -15.1147 C   0  0  1  0  0  0  0  0  0  0  0  0
   19.9546   -4.9437  -14.6678 C   0  0  0  0  0  0  0  0  0  0  0  0
   18.8229   -5.2395  -15.5348 C   0  0  0  0  0  0  0  0  0  0  0  0
   18.7918   -5.8590  -16.7441 C   0  0  0  0  0  0  0  0  0  0  0  0
   17.4929   -5.9483  -17.1776 N   0  0  0  0  0  0  0  0  0  0  0  0
   16.7748   -5.3775  -16.2117 C   0  0  0  0  0  0  0  0  0  0  0  0
   17.5439   -4.9461  -15.2195 N   0  0  0  0  0  0  0  0  0  0  0  0
   22.3988   -4.7244  -14.3316 C   0  0  0  0  0  0  0  0  0  0  0  0
   22.5009   -3.3544  -14.1585 O   0  0  0  0  0  0  0  0  0  0  0  0
   23.2776   -5.4484  -13.7998 O   0  0  0  0  0  0  0  0  0  0  0  0
  2  1  1  0
  2  3  2  0
  4  2  1  0
  5  4  1  0
  5  6  1  0
  6  7  1  6
  8  6  1  0
  8  9  2  0
 10  8  1  0
 11 10  1  0
 11 12  1  6
 13 12  1  0
 13 14  1  0
 15 14  1  0
 16 15  1  0
 17 11  1  0
 18 17  2  0
 19 17  1  0
 20 19  1  0
 20 27  1  0
 20 21  1  1
 22 23  2  0
 22 21  1  0
 24 23  1  0
 25 26  2  0
 25 24  1  0
 26 22  1  0
 27 28  1  0
 29 27  2  0
M  END
$$$$
