QKH.pdb
     RDKit          3D

 29 29  0  0  1  0  0  0  0  0999 V2000
   23.7127  -24.3841  -16.0221 N   0  0  0  0  0  0  0  0  0  0  0  0
   24.8293  -24.8187  -15.2673 C   0  0  0  0  0  0  0  0  0  0  0  0
   25.6021  -25.6871  -15.7293 O   0  0  0  0  0  0  0  0  0  0  0  0
   25.0722  -24.2471  -13.9472 C   0  0  0  0  0  0  0  0  0  0  0  0
   24.0283  -23.2305  -13.5359 C   0  0  0  0  0  0  0  0  0  0  0  0
   24.1758  -22.0543  -14.4730 C   0  0  2  0  0  0  0  0  0  0  0  0
   25.4609  -21.4655  -14.2684 N   0  0  0  0  0  0  0  0  0  0  0  0
   23.0688  -21.0784  -14.3188 C   0  0  0  0  0  0  0  0  0  0  0  0
   22.6806  -20.6661  -13.2050 O   0  0  0  0  0  0  0  0  0  0  0  0
   22.4097  -20.5794  -15.4669 N   0  0  0  0  0  0  0  0  0  0  0  0
   21.2256  -19.7094  -15.3919 C   0  0  1  0  0  0  0  0  0  0  0  0
   21.2543  -18.7021  -16.5071 C   0  0  0  0  0  0  0  0  0  0  0  0
   22.3797  -17.7323  -16.2998 C   0  0  0  0  0  0  0  0  0  0  0  0
   22.3932  -16.6558  -17.3961 C   0  0  0  0  0  0  0  0  0  0  0  0
   23.4388  -15.6380  -17.0950 C   0  0  0  0  0  0  0  0  0  0  0  0
   23.4680  -14.5842  -18.1075 N   0  0  0  0  0  0  0  0  0  0  0  0
   20.0027  -20.5202  -15.2997 C   0  0  0  0  0  0  0  0  0  0  0  0
   19.9419  -21.7448  -15.5471 O   0  0  0  0  0  0  0  0  0  0  0  0
   18.7383  -19.9247  -14.8993 N   0  0  0  0  0  0  0  0  0  0  0  0
   17.8268  -20.6058  -14.0182 C   0  0  1  0  0  0  0  0  0  0  0  0
   18.4264  -21.1908  -12.7946 C   0  0  0  0  0  0  0  0  0  0  0  0
   18.3863  -22.6382  -12.6421 C   0  0  0  0  0  0  0  0  0  0  0  0
   17.7527  -23.5753  -13.3954 C   0  0  0  0  0  0  0  0  0  0  0  0
   18.0246  -24.8236  -12.8944 N   0  0  0  0  0  0  0  0  0  0  0  0
   18.8189  -24.6015  -11.8483 C   0  0  0  0  0  0  0  0  0  0  0  0
   19.0507  -23.3059  -11.6756 N   0  0  0  0  0  0  0  0  0  0  0  0
   16.6282  -19.7608  -13.7200 C   0  0  0  0  0  0  0  0  0  0  0  0
   15.3596  -20.2813  -13.5278 O   0  0  0  0  0  0  0  0  0  0  0  0
   16.7678  -18.5146  -13.6374 O   0  0  0  0  0  0  0  0  0  0  0  0
  2  1  1  0
  2  3  2  0
  4  2  1  0
  5  4  1  0
  5  6  1  0
  6  7  1  1
  8  6  1  0
  8  9  2  0
 10  8  1  0
 11 10  1  0
 11 12  1  6
 13 12  1  0
 13 14  1  0
 15 14  1  0
 16 15  1  0
 17 11  1  0
 18 17  2  0
 19 17  1  0
 20 19  1  0
 20 27  1  0
 20 21  1  1
 22 23  2  0
 22 21  1  0
 24 23  1  0
 25 26  2  0
 25 24  1  0
 26 22  1  0
 27 28  1  0
 29 27  2  0
M  END
$$$$
