QKH.pdb
     RDKit          3D

 29 29  0  0  1  0  0  0  0  0999 V2000
   16.5897  -10.8757  -18.1186 N   0  0  0  0  0  0  0  0  0  0  0  0
   15.9130  -11.6479  -17.1434 C   0  0  0  0  0  0  0  0  0  0  0  0
   15.1837  -11.0902  -16.2938 O   0  0  0  0  0  0  0  0  0  0  0  0
   16.0721  -13.0980  -17.1361 C   0  0  0  0  0  0  0  0  0  0  0  0
   16.4085  -13.6544  -15.7687 C   0  0  0  0  0  0  0  0  0  0  0  0
   17.7392  -14.3579  -15.9024 C   0  0  2  0  0  0  0  0  0  0  0  0
   17.6559  -15.6224  -15.2435 N   0  0  0  0  0  0  0  0  0  0  0  0
   18.8609  -13.5254  -15.4021 C   0  0  0  0  0  0  0  0  0  0  0  0
   18.8525  -12.9855  -14.2753 O   0  0  0  0  0  0  0  0  0  0  0  0
   19.9988  -13.3200  -16.2173 N   0  0  0  0  0  0  0  0  0  0  0  0
   21.1026  -12.4254  -15.8352 C   0  0  1  0  0  0  0  0  0  0  0  0
   22.4104  -12.9820  -16.3243 C   0  0  0  0  0  0  0  0  0  0  0  0
   22.6528  -14.3360  -15.7259 C   0  0  0  0  0  0  0  0  0  0  0  0
   23.9572  -14.9512  -16.2560 C   0  0  0  0  0  0  0  0  0  0  0  0
   24.0970  -16.3492  -15.7603 C   0  0  0  0  0  0  0  0  0  0  0  0
   25.2507  -17.0173  -16.3596 N   0  0  0  0  0  0  0  0  0  0  0  0
   20.8060  -11.0455  -16.2469 C   0  0  0  0  0  0  0  0  0  0  0  0
   20.2445  -10.7292  -17.3189 O   0  0  0  0  0  0  0  0  0  0  0  0
   21.1613   -9.9189  -15.3995 N   0  0  0  0  0  0  0  0  0  0  0  0
   20.7658   -8.5739  -15.7242 C   0  0  1  0  0  0  0  0  0  0  0  0
   19.3157   -8.3642  -15.9529 C   0  0  0  0  0  0  0  0  0  0  0  0
   18.8571   -7.0074  -16.2147 C   0  0  0  0  0  0  0  0  0  0  0  0
   19.3560   -6.0683  -17.0611 C   0  0  0  0  0  0  0  0  0  0  0  0
   18.5766   -4.9405  -17.0019 N   0  0  0  0  0  0  0  0  0  0  0  0
   17.6250   -5.2341  -16.1171 C   0  0  0  0  0  0  0  0  0  0  0  0
   17.7689   -6.4614  -15.6322 N   0  0  0  0  0  0  0  0  0  0  0  0
   21.3396   -7.5908  -14.7526 C   0  0  0  0  0  0  0  0  0  0  0  0
   21.2897   -6.2197  -14.9391 O   0  0  0  0  0  0  0  0  0  0  0  0
   21.8973   -8.0196  -13.7112 O   0  0  0  0  0  0  0  0  0  0  0  0
  2  1  1  0
  2  3  2  0
  4  2  1  0
  5  4  1  0
  5  6  1  0
  6  7  1  1
  8  6  1  0
  8  9  2  0
 10  8  1  0
 11 10  1  0
 11 12  1  6
 13 12  1  0
 13 14  1  0
 15 14  1  0
 16 15  1  0
 17 11  1  0
 18 17  2  0
 19 17  1  0
 20 19  1  0
 20 27  1  0
 20 21  1  1
 22 23  2  0
 22 21  1  0
 24 23  1  0
 25 26  2  0
 25 24  1  0
 26 22  1  0
 27 28  1  0
 29 27  2  0
M  END
$$$$
