LHM.pdb
     RDKit          3D

 27 27  0  0  1  0  0  0  0  0999 V2000
   27.1877  -15.2112  -16.6755 C   0  0  0  0  0  0  0  0  0  0  0  0
   27.4718  -16.6972  -16.4210 C   0  0  1  0  0  0  0  0  0  0  0  0
   28.9550  -16.9657  -16.6640 C   0  0  0  0  0  0  0  0  0  0  0  0
   27.1069  -17.0178  -15.0014 C   0  0  0  0  0  0  0  0  0  0  0  0
   27.5584  -18.3636  -14.5208 C   0  0  2  0  0  0  0  0  0  0  0  0
   27.4773  -19.3495  -15.6012 N   0  0  0  0  0  0  0  0  0  0  0  0
   26.7463  -18.8093  -13.3614 C   0  0  0  0  0  0  0  0  0  0  0  0
   26.5095  -18.1147  -12.3492 O   0  0  0  0  0  0  0  0  0  0  0  0
   26.1574  -20.1294  -13.3355 N   0  0  0  0  0  0  0  0  0  0  0  0
   25.3192  -20.5430  -12.2336 C   0  0  1  0  0  0  0  0  0  0  0  0
   24.4465  -21.7158  -12.5976 C   0  0  0  0  0  0  0  0  0  0  0  0
   23.0712  -21.3083  -12.9534 C   0  0  0  0  0  0  0  0  0  0  0  0
   22.5695  -20.0295  -12.9294 C   0  0  0  0  0  0  0  0  0  0  0  0
   21.2685  -20.0486  -13.3220 N   0  0  0  0  0  0  0  0  0  0  0  0
   20.9596  -21.3189  -13.5878 C   0  0  0  0  0  0  0  0  0  0  0  0
   22.0456  -22.0724  -13.3649 N   0  0  0  0  0  0  0  0  0  0  0  0
   26.1427  -20.7471  -11.0287 C   0  0  0  0  0  0  0  0  0  0  0  0
   27.1531  -21.4782  -11.0992 O   0  0  0  0  0  0  0  0  0  0  0  0
   29.0786  -19.2426   -4.1219 C   0  0  0  0  0  0  0  0  0  0  0  0
   28.0622  -18.7657   -5.4967 S   0  0  0  0  0  0  0  0  0  0  0  0
   27.3398  -20.1056   -6.3972 C   0  0  0  0  0  0  0  0  0  0  0  0
   26.9383  -19.7504   -7.7694 C   0  0  0  0  0  0  0  0  0  0  0  0
   26.2970  -20.8462   -8.5770 C   0  0  2  0  0  0  0  0  0  0  0  0
   25.8262  -20.1408   -9.8001 N   0  0  0  0  0  0  0  0  0  0  0  0
   25.0822  -21.2948   -7.8352 C   0  0  0  0  0  0  0  0  0  0  0  0
   25.1307  -22.0709   -6.7089 O   0  0  0  0  0  0  0  0  0  0  0  0
   23.9333  -20.9606   -8.2377 O   0  0  0  0  0  0  0  0  0  0  0  0
  2  4  1  0
  2  1  1  1
  3  2  1  0
  4  5  1  0
  5  6  1  6
  7  8  2  0
  7  5  1  0
  9  7  1  0
 10  9  1  0
 10 11  1  6
 12 16  1  0
 12 11  1  0
 13 12  2  0
 14 13  1  0
 14 15  1  0
 15 16  2  0
 17 10  1  0
 18 17  2  0
 20 19  1  0
 21 20  1  0
 22 21  1  0
 23 22  1  1
 23 24  1  0
 24 17  1  0
 25 23  1  0
 26 25  1  0
 27 25  2  0
M  END
$$$$
