LHM.pdb
     RDKit          3D

 27 27  0  0  1  0  0  0  0  0999 V2000
   27.8522  -15.5696  -17.7679 C   0  0  0  0  0  0  0  0  0  0  0  0
   28.0549  -17.0212  -17.3148 C   0  0  1  0  0  0  0  0  0  0  0  0
   29.5281  -17.3885  -17.4761 C   0  0  0  0  0  0  0  0  0  0  0  0
   27.6406  -17.1360  -15.8773 C   0  0  0  0  0  0  0  0  0  0  0  0
   27.9351  -18.4591  -15.2380 C   0  0  2  0  0  0  0  0  0  0  0  0
   27.8037  -19.5430  -16.2145 N   0  0  0  0  0  0  0  0  0  0  0  0
   27.0333  -18.6997  -14.0842 C   0  0  0  0  0  0  0  0  0  0  0  0
   26.9225  -17.9406  -13.0970 O   0  0  0  0  0  0  0  0  0  0  0  0
   26.1952  -19.8766  -14.0342 N   0  0  0  0  0  0  0  0  0  0  0  0
   25.1988  -20.0306  -12.9993 C   0  0  1  0  0  0  0  0  0  0  0  0
   23.9837  -20.7728  -13.4917 C   0  0  0  0  0  0  0  0  0  0  0  0
   22.9119  -20.8394  -12.4763 C   0  0  0  0  0  0  0  0  0  0  0  0
   22.8531  -21.7045  -11.4106 C   0  0  0  0  0  0  0  0  0  0  0  0
   21.7206  -21.4657  -10.6985 N   0  0  0  0  0  0  0  0  0  0  0  0
   21.0795  -20.4669  -11.3078 C   0  0  0  0  0  0  0  0  0  0  0  0
   21.7989  -20.0937  -12.3756 N   0  0  0  0  0  0  0  0  0  0  0  0
   25.8171  -20.6071  -11.7923 C   0  0  0  0  0  0  0  0  0  0  0  0
   26.5150  -21.6376  -11.8993 O   0  0  0  0  0  0  0  0  0  0  0  0
   28.7091  -19.3902   -4.6700 C   0  0  0  0  0  0  0  0  0  0  0  0
   28.0333  -18.8848   -6.2316 S   0  0  0  0  0  0  0  0  0  0  0  0
   27.3077  -20.1813   -7.1911 C   0  0  0  0  0  0  0  0  0  0  0  0
   26.8367  -19.7459   -8.5173 C   0  0  0  0  0  0  0  0  0  0  0  0
   26.1871  -20.8023   -9.3696 C   0  0  2  0  0  0  0  0  0  0  0  0
   25.6468  -20.0299  -10.5214 N   0  0  0  0  0  0  0  0  0  0  0  0
   25.0167  -21.3315   -8.6097 C   0  0  0  0  0  0  0  0  0  0  0  0
   23.7168  -21.0850   -8.9600 O   0  0  0  0  0  0  0  0  0  0  0  0
   25.1961  -22.0475   -7.5856 O   0  0  0  0  0  0  0  0  0  0  0  0
  2  4  1  0
  2  1  1  1
  3  2  1  0
  4  5  1  0
  5  6  1  6
  7  8  2  0
  7  5  1  0
  9  7  1  0
 10  9  1  0
 10 11  1  6
 12 16  1  0
 12 11  1  0
 13 12  2  0
 14 13  1  0
 14 15  1  0
 15 16  2  0
 17 10  1  0
 18 17  2  0
 20 19  1  0
 21 20  1  0
 22 21  1  0
 23 22  1  1
 23 24  1  0
 24 17  1  0
 25 23  1  0
 26 25  1  0
 27 25  2  0
M  END
$$$$
