LHM.pdb
     RDKit          3D

 27 27  0  0  1  0  0  0  0  0999 V2000
   27.0549  -15.2695  -17.7705 C   0  0  0  0  0  0  0  0  0  0  0  0
   27.4136  -16.6747  -17.2700 C   0  0  1  0  0  0  0  0  0  0  0  0
   28.9336  -16.8045  -17.2084 C   0  0  0  0  0  0  0  0  0  0  0  0
   26.8158  -16.8641  -15.9069 C   0  0  0  0  0  0  0  0  0  0  0  0
   27.2600  -18.1019  -15.1880 C   0  0  2  0  0  0  0  0  0  0  0  0
   27.3231  -19.2380  -16.1105 N   0  0  0  0  0  0  0  0  0  0  0  0
   26.3484  -18.4116  -14.0587 C   0  0  0  0  0  0  0  0  0  0  0  0
   26.0084  -17.5961  -13.1742 O   0  0  0  0  0  0  0  0  0  0  0  0
   25.7772  -19.7314  -13.9108 N   0  0  0  0  0  0  0  0  0  0  0  0
   24.7800  -19.9957  -12.8990 C   0  0  1  0  0  0  0  0  0  0  0  0
   23.5874  -20.7259  -13.4593 C   0  0  0  0  0  0  0  0  0  0  0  0
   22.7464  -19.8626  -14.3147 C   0  0  0  0  0  0  0  0  0  0  0  0
   21.9407  -18.8339  -13.8903 C   0  0  0  0  0  0  0  0  0  0  0  0
   21.3245  -18.2721  -14.9634 N   0  0  0  0  0  0  0  0  0  0  0  0
   21.7373  -18.9378  -16.0433 C   0  0  0  0  0  0  0  0  0  0  0  0
   22.5915  -19.8926  -15.6489 N   0  0  0  0  0  0  0  0  0  0  0  0
   25.4074  -20.6534  -11.7391 C   0  0  0  0  0  0  0  0  0  0  0  0
   26.2441  -21.5604  -11.9331 O   0  0  0  0  0  0  0  0  0  0  0  0
   27.5795  -18.0009   -6.6466 C   0  0  0  0  0  0  0  0  0  0  0  0
   28.3820  -19.5520   -6.9644 S   0  0  0  0  0  0  0  0  0  0  0  0
   27.6492  -20.5285   -8.2441 C   0  0  0  0  0  0  0  0  0  0  0  0
   26.1870  -20.3780   -8.3419 C   0  0  0  0  0  0  0  0  0  0  0  0
   25.4973  -21.2501   -9.3557 C   0  0  2  0  0  0  0  0  0  0  0  0
   25.0936  -20.2887  -10.4178 N   0  0  0  0  0  0  0  0  0  0  0  0
   24.2435  -21.7598   -8.7269 C   0  0  0  0  0  0  0  0  0  0  0  0
   24.2202  -22.7690   -7.8026 O   0  0  0  0  0  0  0  0  0  0  0  0
   23.1278  -21.2583   -9.0389 O   0  0  0  0  0  0  0  0  0  0  0  0
  2  4  1  0
  2  1  1  1
  3  2  1  0
  4  5  1  0
  5  6  1  6
  7  8  2  0
  7  5  1  0
  9  7  1  0
 10  9  1  0
 10 11  1  6
 12 16  1  0
 12 11  1  0
 13 12  2  0
 14 13  1  0
 14 15  1  0
 15 16  2  0
 17 10  1  0
 18 17  2  0
 20 19  1  0
 21 20  1  0
 22 21  1  0
 23 22  1  1
 23 24  1  0
 24 17  1  0
 25 23  1  0
 26 25  1  0
 27 25  2  0
M  END
$$$$
