LHM.pdb
     RDKit          3D

 27 27  0  0  1  0  0  0  0  0999 V2000
   14.1910  -12.4406  -18.2769 C   0  0  0  0  0  0  0  0  0  0  0  0
   14.6596  -13.7523  -17.6339 C   0  0  1  0  0  0  0  0  0  0  0  0
   15.1105  -14.7093  -18.7348 C   0  0  0  0  0  0  0  0  0  0  0  0
   15.7977  -13.4496  -16.7042 C   0  0  0  0  0  0  0  0  0  0  0  0
   17.1592  -13.5223  -17.3266 C   0  0  2  0  0  0  0  0  0  0  0  0
   17.7307  -14.8606  -17.1589 N   0  0  0  0  0  0  0  0  0  0  0  0
   18.0634  -12.5038  -16.7374 C   0  0  0  0  0  0  0  0  0  0  0  0
   18.4334  -12.4859  -15.5432 O   0  0  0  0  0  0  0  0  0  0  0  0
   18.5907  -11.4275  -17.5459 N   0  0  0  0  0  0  0  0  0  0  0  0
   19.4424  -10.4155  -16.9644 C   0  0  1  0  0  0  0  0  0  0  0  0
   20.2406   -9.6809  -18.0097 C   0  0  0  0  0  0  0  0  0  0  0  0
   21.1642   -8.6882  -17.4217 C   0  0  0  0  0  0  0  0  0  0  0  0
   22.4188   -8.9402  -16.9217 C   0  0  0  0  0  0  0  0  0  0  0  0
   22.9644   -7.7809  -16.4684 N   0  0  0  0  0  0  0  0  0  0  0  0
   22.0662   -6.8175  -16.6809 C   0  0  0  0  0  0  0  0  0  0  0  0
   20.9861   -7.3672  -17.2538 N   0  0  0  0  0  0  0  0  0  0  0  0
   18.6497   -9.5439  -16.0791 C   0  0  0  0  0  0  0  0  0  0  0  0
   17.4725   -9.2676  -16.3927 O   0  0  0  0  0  0  0  0  0  0  0  0
   16.5814  -10.8557  -10.6411 C   0  0  0  0  0  0  0  0  0  0  0  0
   16.9400   -9.1382  -10.3721 S   0  0  0  0  0  0  0  0  0  0  0  0
   17.1995   -8.1862  -11.8399 C   0  0  0  0  0  0  0  0  0  0  0  0
   17.9876   -8.8857  -12.8694 C   0  0  0  0  0  0  0  0  0  0  0  0
   18.2873   -8.1039  -14.1197 C   0  0  2  0  0  0  0  0  0  0  0  0
   19.1788   -9.0145  -14.8888 N   0  0  0  0  0  0  0  0  0  0  0  0
   19.1070   -6.9220  -13.7214 C   0  0  0  0  0  0  0  0  0  0  0  0
   20.4673   -6.8663  -13.8624 O   0  0  0  0  0  0  0  0  0  0  0  0
   18.5517   -5.9026  -13.2255 O   0  0  0  0  0  0  0  0  0  0  0  0
  2  4  1  0
  2  1  1  6
  3  2  1  0
  4  5  1  0
  5  6  1  1
  7  8  2  0
  7  5  1  0
  9  7  1  0
 10  9  1  0
 10 11  1  6
 12 16  1  0
 12 11  1  0
 13 12  2  0
 14 13  1  0
 14 15  1  0
 15 16  2  0
 17 10  1  0
 18 17  2  0
 20 19  1  0
 21 20  1  0
 22 21  1  0
 23 22  1  1
 23 24  1  0
 24 17  1  0
 25 23  1  0
 26 25  1  0
 27 25  2  0
M  END
$$$$
