LHM.pdb
     RDKit          3D

 27 27  0  0  1  0  0  0  0  0999 V2000
   18.7762  -22.3197  -14.6044 C   0  0  0  0  0  0  0  0  0  0  0  0
   18.2771  -21.8885  -13.2193 C   0  0  1  0  0  0  0  0  0  0  0  0
   16.9932  -22.6494  -12.8973 C   0  0  0  0  0  0  0  0  0  0  0  0
   19.3403  -22.2032  -12.2083 C   0  0  0  0  0  0  0  0  0  0  0  0
   20.2285  -21.0519  -11.8454 C   0  0  2  0  0  0  0  0  0  0  0  0
   19.8788  -19.8651  -12.6297 N   0  0  0  0  0  0  0  0  0  0  0  0
   21.6556  -21.4001  -12.0556 C   0  0  0  0  0  0  0  0  0  0  0  0
   22.1943  -22.4599  -11.6682 O   0  0  0  0  0  0  0  0  0  0  0  0
   22.5427  -20.4943  -12.7503 N   0  0  0  0  0  0  0  0  0  0  0  0
   23.9176  -20.8578  -13.0061 C   0  0  1  0  0  0  0  0  0  0  0  0
   24.3849  -20.3826  -14.3572 C   0  0  0  0  0  0  0  0  0  0  0  0
   25.8278  -20.6195  -14.5719 C   0  0  0  0  0  0  0  0  0  0  0  0
   26.7079  -21.1578  -13.6646 C   0  0  0  0  0  0  0  0  0  0  0  0
   27.9462  -21.2209  -14.2210 N   0  0  0  0  0  0  0  0  0  0  0  0
   27.8440  -20.7301  -15.4574 C   0  0  0  0  0  0  0  0  0  0  0  0
   26.5695  -20.3699  -15.6640 N   0  0  0  0  0  0  0  0  0  0  0  0
   24.7661  -20.4259  -11.8814 C   0  0  0  0  0  0  0  0  0  0  0  0
   24.4210  -19.4340  -11.2050 O   0  0  0  0  0  0  0  0  0  0  0  0
   27.1985  -20.0234   -5.1150 C   0  0  0  0  0  0  0  0  0  0  0  0
   26.4446  -20.7725   -6.5367 S   0  0  0  0  0  0  0  0  0  0  0  0
   27.0740  -20.2255   -8.0964 C   0  0  0  0  0  0  0  0  0  0  0  0
   26.3200  -20.7384   -9.2535 C   0  0  0  0  0  0  0  0  0  0  0  0
   26.8701  -20.3903  -10.6101 C   0  0  2  0  0  0  0  0  0  0  0  0
   25.9537  -21.0991  -11.5445 N   0  0  0  0  0  0  0  0  0  0  0  0
   28.2075  -21.0417  -10.7301 C   0  0  0  0  0  0  0  0  0  0  0  0
   29.3619  -20.4875  -10.2466 O   0  0  0  0  0  0  0  0  0  0  0  0
   28.3187  -22.1622  -11.3007 O   0  0  0  0  0  0  0  0  0  0  0  0
  2  4  1  0
  2  1  1  6
  3  2  1  0
  4  5  1  0
  5  6  1  6
  7  8  2  0
  7  5  1  0
  9  7  1  0
 10  9  1  0
 10 11  1  6
 12 16  1  0
 12 11  1  0
 13 12  2  0
 14 13  1  0
 14 15  1  0
 15 16  2  0
 17 10  1  0
 18 17  2  0
 20 19  1  0
 21 20  1  0
 22 21  1  0
 23 22  1  1
 23 24  1  0
 24 17  1  0
 25 23  1  0
 26 25  1  0
 27 25  2  0
M  END
$$$$
