LHM.pdb
     RDKit          3D

 27 27  0  0  1  0  0  0  0  0999 V2000
   27.4742  -19.6306  -19.0435 C   0  0  0  0  0  0  0  0  0  0  0  0
   27.6155  -20.6896  -17.9426 C   0  0  1  0  0  0  0  0  0  0  0  0
   29.0959  -21.0120  -17.7536 C   0  0  0  0  0  0  0  0  0  0  0  0
   27.0326  -20.1411  -16.6735 C   0  0  0  0  0  0  0  0  0  0  0  0
   27.3786  -20.9100  -15.4345 C   0  0  2  0  0  0  0  0  0  0  0  0
   27.0344  -22.3249  -15.5941 N   0  0  0  0  0  0  0  0  0  0  0  0
   26.6821  -20.3457  -14.2518 C   0  0  0  0  0  0  0  0  0  0  0  0
   26.7122  -19.1420  -13.9153 O   0  0  0  0  0  0  0  0  0  0  0  0
   25.8951  -21.1928  -13.3839 N   0  0  0  0  0  0  0  0  0  0  0  0
   25.1090  -20.6255  -12.3125 C   0  0  1  0  0  0  0  0  0  0  0  0
   23.6331  -20.8490  -12.5161 C   0  0  0  0  0  0  0  0  0  0  0  0
   23.0852  -20.0351  -13.6214 C   0  0  0  0  0  0  0  0  0  0  0  0
   22.7375  -20.4882  -14.8709 C   0  0  0  0  0  0  0  0  0  0  0  0
   22.2712  -19.4497  -15.6131 N   0  0  0  0  0  0  0  0  0  0  0  0
   22.3255  -18.3629  -14.8414 C   0  0  0  0  0  0  0  0  0  0  0  0
   22.8153  -18.7191  -13.6455 N   0  0  0  0  0  0  0  0  0  0  0  0
   25.6227  -21.0946  -11.0135 C   0  0  0  0  0  0  0  0  0  0  0  0
   25.8053  -22.3178  -10.8374 O   0  0  0  0  0  0  0  0  0  0  0  0
   28.5293  -18.9419   -3.9979 C   0  0  0  0  0  0  0  0  0  0  0  0
   28.0683  -18.6305   -5.6836 S   0  0  0  0  0  0  0  0  0  0  0  0
   27.1876  -19.9436   -6.4762 C   0  0  0  0  0  0  0  0  0  0  0  0
   26.9369  -19.7099   -7.9090 C   0  0  0  0  0  0  0  0  0  0  0  0
   26.2464  -20.8220   -8.6510 C   0  0  2  0  0  0  0  0  0  0  0  0
   25.9161  -20.2051   -9.9647 N   0  0  0  0  0  0  0  0  0  0  0  0
   24.9534  -21.0878   -7.9547 C   0  0  0  0  0  0  0  0  0  0  0  0
   24.8479  -21.8611   -6.8303 O   0  0  0  0  0  0  0  0  0  0  0  0
   23.8806  -20.5902   -8.3965 O   0  0  0  0  0  0  0  0  0  0  0  0
  2  4  1  0
  2  1  1  6
  3  2  1  0
  4  5  1  0
  5  6  1  6
  7  8  2  0
  7  5  1  0
  9  7  1  0
 10  9  1  0
 10 11  1  6
 12 16  1  0
 12 11  1  0
 13 12  2  0
 14 13  1  0
 14 15  1  0
 15 16  2  0
 17 10  1  0
 18 17  2  0
 20 19  1  0
 21 20  1  0
 22 21  1  0
 23 22  1  1
 23 24  1  0
 24 17  1  0
 25 23  1  0
 26 25  1  0
 27 25  2  0
M  END
$$$$
