LHM.pdb
     RDKit          3D

 27 27  0  0  1  0  0  0  0  0999 V2000
   28.9151  -28.1765  -15.8406 C   0  0  0  0  0  0  0  0  0  0  0  0
   28.1726  -27.3460  -16.8954 C   0  0  1  0  0  0  0  0  0  0  0  0
   26.7745  -27.9282  -17.0889 C   0  0  0  0  0  0  0  0  0  0  0  0
   28.0875  -25.9273  -16.4143 C   0  0  0  0  0  0  0  0  0  0  0  0
   27.4641  -24.9676  -17.3821 C   0  0  2  0  0  0  0  0  0  0  0  0
   28.3274  -24.7820  -18.5508 N   0  0  0  0  0  0  0  0  0  0  0  0
   27.1982  -23.6607  -16.7314 C   0  0  0  0  0  0  0  0  0  0  0  0
   28.0548  -22.7681  -16.5507 O   0  0  0  0  0  0  0  0  0  0  0  0
   25.8759  -23.3311  -16.2485 N   0  0  0  0  0  0  0  0  0  0  0  0
   25.5743  -22.0015  -15.7701 C   0  0  1  0  0  0  0  0  0  0  0  0
   24.9571  -21.1423  -16.8427 C   0  0  0  0  0  0  0  0  0  0  0  0
   24.5851  -19.8003  -16.3477 C   0  0  0  0  0  0  0  0  0  0  0  0
   23.3140  -19.3588  -16.0702 C   0  0  0  0  0  0  0  0  0  0  0  0
   23.3688  -18.0723  -15.6357 N   0  0  0  0  0  0  0  0  0  0  0  0
   24.6536  -17.7130  -15.6407 C   0  0  0  0  0  0  0  0  0  0  0  0
   25.3809  -18.7543  -16.0692 N   0  0  0  0  0  0  0  0  0  0  0  0
   24.7865  -22.0845  -14.5275 C   0  0  0  0  0  0  0  0  0  0  0  0
   23.7837  -22.8284  -14.4916 O   0  0  0  0  0  0  0  0  0  0  0  0
   25.9988  -20.4420   -7.7132 C   0  0  0  0  0  0  0  0  0  0  0  0
   26.9413  -20.8871   -9.1500 S   0  0  0  0  0  0  0  0  0  0  0  0
   26.0323  -21.7257  -10.4144 C   0  0  0  0  0  0  0  0  0  0  0  0
   25.0248  -20.8817  -11.0800 C   0  0  0  0  0  0  0  0  0  0  0  0
   24.2480  -21.5304  -12.1935 C   0  0  2  0  0  0  0  0  0  0  0  0
   25.1314  -21.3518  -13.3779 N   0  0  0  0  0  0  0  0  0  0  0  0
   23.0284  -20.7028  -12.4281 C   0  0  0  0  0  0  0  0  0  0  0  0
   21.8013  -21.0027  -11.9012 O   0  0  0  0  0  0  0  0  0  0  0  0
   23.0937  -19.6651  -13.1440 O   0  0  0  0  0  0  0  0  0  0  0  0
  2  4  1  0
  2  1  1  1
  3  2  1  0
  4  5  1  0
  5  6  1  6
  7  8  2  0
  7  5  1  0
  9  7  1  0
 10  9  1  0
 10 11  1  6
 12 16  1  0
 12 11  1  0
 13 12  2  0
 14 13  1  0
 14 15  1  0
 15 16  2  0
 17 10  1  0
 18 17  2  0
 20 19  1  0
 21 20  1  0
 22 21  1  0
 23 22  1  1
 23 24  1  0
 24 17  1  0
 25 23  1  0
 26 25  1  0
 27 25  2  0
M  END
$$$$
