LHM.pdb
     RDKit          3D

 27 27  0  0  1  0  0  0  0  0999 V2000
   26.6552  -24.1037  -17.0921 C   0  0  0  0  0  0  0  0  0  0  0  0
   26.4388  -25.6220  -17.0531 C   0  0  1  0  0  0  0  0  0  0  0  0
   25.2508  -25.9752  -17.9448 C   0  0  0  0  0  0  0  0  0  0  0  0
   27.6846  -26.2956  -17.5488 C   0  0  0  0  0  0  0  0  0  0  0  0
   27.6132  -27.7914  -17.6098 C   0  0  2  0  0  0  0  0  0  0  0  0
   27.4408  -28.3534  -16.2682 N   0  0  0  0  0  0  0  0  0  0  0  0
   28.8314  -28.3520  -18.2452 C   0  0  0  0  0  0  0  0  0  0  0  0
   29.2729  -28.0093  -19.3637 O   0  0  0  0  0  0  0  0  0  0  0  0
   29.6108  -29.3706  -17.5781 N   0  0  0  0  0  0  0  0  0  0  0  0
   30.8190  -29.8879  -18.1784 C   0  0  1  0  0  0  0  0  0  0  0  0
   31.9852  -29.8458  -17.2255 C   0  0  0  0  0  0  0  0  0  0  0  0
   32.9003  -28.7184  -17.5013 C   0  0  0  0  0  0  0  0  0  0  0  0
   32.8461  -27.8721  -18.5822 C   0  0  0  0  0  0  0  0  0  0  0  0
   33.8502  -26.9607  -18.4915 N   0  0  0  0  0  0  0  0  0  0  0  0
   34.5230  -27.2313  -17.3717 C   0  0  0  0  0  0  0  0  0  0  0  0
   33.9488  -28.2882  -16.7799 N   0  0  0  0  0  0  0  0  0  0  0  0
   30.5578  -31.2149  -18.7633 C   0  0  0  0  0  0  0  0  0  0  0  0
   29.6711  -31.9373  -18.2608 O   0  0  0  0  0  0  0  0  0  0  0  0
   26.4092  -34.7494  -23.1758 C   0  0  0  0  0  0  0  0  0  0  0  0
   27.1916  -33.4705  -22.2255 S   0  0  0  0  0  0  0  0  0  0  0  0
   28.8572  -33.8098  -21.7371 C   0  0  0  0  0  0  0  0  0  0  0  0
   29.4464  -32.7705  -20.8752 C   0  0  0  0  0  0  0  0  0  0  0  0
   30.8561  -33.0162  -20.4098 C   0  0  2  0  0  0  0  0  0  0  0  0
   31.2763  -31.6928  -19.8735 N   0  0  0  0  0  0  0  0  0  0  0  0
   31.6864  -33.2812  -21.6213 C   0  0  0  0  0  0  0  0  0  0  0  0
   31.8403  -34.5247  -22.1722 O   0  0  0  0  0  0  0  0  0  0  0  0
   32.2927  -32.3341  -22.1948 O   0  0  0  0  0  0  0  0  0  0  0  0
  2  4  1  0
  2  1  1  6
  3  2  1  0
  4  5  1  0
  5  6  1  1
  7  8  2  0
  7  5  1  0
  9  7  1  0
 10  9  1  0
 10 11  1  1
 12 16  1  0
 12 11  1  0
 13 12  2  0
 14 13  1  0
 14 15  1  0
 15 16  2  0
 17 10  1  0
 18 17  2  0
 20 19  1  0
 21 20  1  0
 22 21  1  0
 23 22  1  6
 23 24  1  0
 24 17  1  0
 25 23  1  0
 26 25  1  0
 27 25  2  0
M  END
$$$$
