FIQ.pdb
     RDKit          3D

 29 29  0  0  1  0  0  0  0  0999 V2000
    5.7718  -17.0274   25.5276 N   0  0  0  0  0  0  0  0  0  0  0  0
    6.5883  -15.9330   25.0671 C   0  0  1  0  0  0  0  0  0  0  0  0
    7.3862  -15.4394   26.2652 C   0  0  0  0  0  0  0  0  0  0  0  0
    7.0688  -14.0036   26.4429 C   0  0  0  0  0  0  0  0  0  0  0  0
    6.6070  -13.2610   25.3856 C   0  0  0  0  0  0  0  0  0  0  0  0
    6.3060  -11.9072   25.5465 C   0  0  0  0  0  0  0  0  0  0  0  0
    6.4796  -11.3146   26.7961 C   0  0  0  0  0  0  0  0  0  0  0  0
    6.9423  -12.0528   27.8612 C   0  0  0  0  0  0  0  0  0  0  0  0
    7.2299  -13.3869   27.6679 C   0  0  0  0  0  0  0  0  0  0  0  0
    7.4801  -16.3361   23.9552 C   0  0  0  0  0  0  0  0  0  0  0  0
    7.8372  -17.5484   23.8947 O   0  0  0  0  0  0  0  0  0  0  0  0
    6.8594  -13.2463   20.0496 C   0  0  0  0  0  0  0  0  0  0  0  0
    7.2711  -14.6153   20.5137 C   0  0  0  0  0  0  0  0  0  0  0  0
    8.7424  -14.6353   20.9424 C   0  0  2  0  0  0  0  0  0  0  0  0
    9.6321  -14.8505   19.7685 C   0  0  0  0  0  0  0  0  0  0  0  0
    8.8264  -15.7548   21.9645 C   0  0  2  0  0  0  0  0  0  0  0  0
    7.8832  -15.3614   23.0290 N   0  0  0  0  0  0  0  0  0  0  0  0
   10.1583  -15.9650   22.5370 C   0  0  0  0  0  0  0  0  0  0  0  0
   10.7808  -15.0047   23.1244 O   0  0  0  0  0  0  0  0  0  0  0  0
   11.6194  -21.0685   25.0984 N   0  0  0  0  0  0  0  0  0  0  0  0
   11.0379  -19.9156   25.6785 C   0  0  0  0  0  0  0  0  0  0  0  0
   10.3834  -19.9477   26.7426 O   0  0  0  0  0  0  0  0  0  0  0  0
   11.2170  -18.6067   24.9853 C   0  0  0  0  0  0  0  0  0  0  0  0
   12.0531  -18.7361   23.7619 C   0  0  0  0  0  0  0  0  0  0  0  0
   12.1494  -17.4141   23.0478 C   0  0  2  0  0  0  0  0  0  0  0  0
   10.8091  -17.1980   22.4799 N   0  0  0  0  0  0  0  0  0  0  0  0
   13.1779  -17.3858   22.0199 C   0  0  0  0  0  0  0  0  0  0  0  0
   12.8677  -17.5373   20.7878 O   0  0  0  0  0  0  0  0  0  0  0  0
   14.5262  -17.1996   22.2524 O   0  0  0  0  0  0  0  0  0  0  0  0
  2  1  1  1
  2  3  1  0
  3  4  1  0
  4  9  2  0
  5  6  2  0
  5  4  1  0
  6  7  1  0
  7  8  2  0
  9  8  1  0
 10 11  2  0
 10  2  1  0
 12 13  1  0
 13 14  1  0
 14 15  1  6
 14 16  1  0
 16 17  1  1
 17 10  1  0
 18 26  1  0
 18 16  1  0
 19 18  2  0
 20 21  1  0
 21 23  1  0
 21 22  2  0
 23 24  1  0
 25 24  1  6
 25 26  1  0
 25 27  1  0
 27 29  1  0
 28 27  2  0
M  END
$$$$
