FIQ.pdb
     RDKit          3D

 29 29  0  0  1  0  0  0  0  0999 V2000
    7.0554  -16.6682   21.8751 N   0  0  0  0  0  0  0  0  0  0  0  0
    8.4949  -16.6046   21.8842 C   0  0  1  0  0  0  0  0  0  0  0  0
    8.9256  -16.0969   20.5159 C   0  0  0  0  0  0  0  0  0  0  0  0
    8.3242  -14.7553   20.3360 C   0  0  0  0  0  0  0  0  0  0  0  0
    9.1251  -13.6463   20.2311 C   0  0  0  0  0  0  0  0  0  0  0  0
    8.5645  -12.3789   20.0614 C   0  0  0  0  0  0  0  0  0  0  0  0
    7.1780  -12.2502   19.9992 C   0  0  0  0  0  0  0  0  0  0  0  0
    6.3681  -13.3578   20.1036 C   0  0  0  0  0  0  0  0  0  0  0  0
    6.9542  -14.5941   20.2705 C   0  0  0  0  0  0  0  0  0  0  0  0
    9.0044  -15.7321   22.9674 C   0  0  0  0  0  0  0  0  0  0  0  0
   10.2404  -15.4614   22.9753 O   0  0  0  0  0  0  0  0  0  0  0  0
    6.2444  -12.0580   25.1747 C   0  0  0  0  0  0  0  0  0  0  0  0
    7.3329  -13.0187   24.7858 C   0  0  0  0  0  0  0  0  0  0  0  0
    7.5951  -14.0385   25.8995 C   0  0  2  0  0  0  0  0  0  0  0  0
    8.1086  -13.3642   27.1234 C   0  0  0  0  0  0  0  0  0  0  0  0
    8.5904  -15.0137   25.2968 C   0  0  2  0  0  0  0  0  0  0  0  0
    8.0987  -15.2509   23.9258 N   0  0  0  0  0  0  0  0  0  0  0  0
    8.7077  -16.2892   26.0074 C   0  0  0  0  0  0  0  0  0  0  0  0
    8.0249  -17.3143   25.6362 O   0  0  0  0  0  0  0  0  0  0  0  0
   12.2616  -18.2281   23.5654 N   0  0  0  0  0  0  0  0  0  0  0  0
   12.1159  -19.3671   24.3933 C   0  0  0  0  0  0  0  0  0  0  0  0
   12.5773  -20.4887   24.0920 O   0  0  0  0  0  0  0  0  0  0  0  0
   11.3782  -19.2169   25.6813 C   0  0  0  0  0  0  0  0  0  0  0  0
   11.1921  -17.7883   26.0514 C   0  0  0  0  0  0  0  0  0  0  0  0
   10.3619  -17.6723   27.3021 C   0  0  2  0  0  0  0  0  0  0  0  0
    9.5549  -16.4578   27.1033 N   0  0  0  0  0  0  0  0  0  0  0  0
   11.1561  -17.5949   28.5180 C   0  0  0  0  0  0  0  0  0  0  0  0
   11.8128  -18.6131   28.9296 O   0  0  0  0  0  0  0  0  0  0  0  0
   11.2811  -16.4731   29.3133 O   0  0  0  0  0  0  0  0  0  0  0  0
  2  1  1  6
  2  3  1  0
  3  4  1  0
  4  9  2  0
  5  6  2  0
  5  4  1  0
  6  7  1  0
  7  8  2  0
  9  8  1  0
 10 11  2  0
 10  2  1  0
 12 13  1  0
 13 14  1  0
 14 15  1  1
 14 16  1  0
 16 17  1  6
 17 10  1  0
 18 26  1  0
 18 16  1  0
 19 18  2  0
 20 21  1  0
 21 23  1  0
 21 22  2  0
 23 24  1  0
 25 24  1  6
 25 26  1  0
 25 27  1  0
 27 29  1  0
 28 27  2  0
M  END
$$$$
