FIQ.pdb
     RDKit          3D

 29 29  0  0  1  0  0  0  0  0999 V2000
    7.0704  -18.6814   27.5727 N   0  0  0  0  0  0  0  0  0  0  0  0
    7.8993  -17.5206   27.3684 C   0  0  1  0  0  0  0  0  0  0  0  0
    9.3453  -17.9897   27.4370 C   0  0  0  0  0  0  0  0  0  0  0  0
   10.1707  -16.8163   27.8052 C   0  0  0  0  0  0  0  0  0  0  0  0
   10.4525  -15.8489   26.8740 C   0  0  0  0  0  0  0  0  0  0  0  0
   11.2299  -14.7403   27.2145 C   0  0  0  0  0  0  0  0  0  0  0  0
   11.7192  -14.6250   28.5147 C   0  0  0  0  0  0  0  0  0  0  0  0
   11.4409  -15.5911   29.4542 C   0  0  0  0  0  0  0  0  0  0  0  0
   10.6704  -16.6726   29.0846 C   0  0  0  0  0  0  0  0  0  0  0  0
    7.6103  -16.8530   26.0781 C   0  0  0  0  0  0  0  0  0  0  0  0
    7.2172  -17.5740   25.1154 O   0  0  0  0  0  0  0  0  0  0  0  0
    5.7602  -11.9114   26.3870 C   0  0  0  0  0  0  0  0  0  0  0  0
    5.9658  -13.2581   25.7521 C   0  0  0  0  0  0  0  0  0  0  0  0
    7.3242  -13.3360   25.0468 C   0  0  2  0  0  0  0  0  0  0  0  0
    7.3513  -12.4479   23.8523 C   0  0  0  0  0  0  0  0  0  0  0  0
    7.4894  -14.8046   24.6987 C   0  0  2  0  0  0  0  0  0  0  0  0
    7.7849  -15.4633   25.9858 N   0  0  0  0  0  0  0  0  0  0  0  0
    8.5585  -15.0919   23.7395 C   0  0  0  0  0  0  0  0  0  0  0  0
    8.4128  -14.8193   22.4908 O   0  0  0  0  0  0  0  0  0  0  0  0
   14.4226  -15.5395   25.5724 N   0  0  0  0  0  0  0  0  0  0  0  0
   14.5967  -15.6713   24.1737 C   0  0  0  0  0  0  0  0  0  0  0  0
   15.7213  -15.7075   23.6301 O   0  0  0  0  0  0  0  0  0  0  0  0
   13.3809  -15.7710   23.3149 C   0  0  0  0  0  0  0  0  0  0  0  0
   12.1293  -15.6211   24.1046 C   0  0  0  0  0  0  0  0  0  0  0  0
   10.9242  -15.7644   23.2135 C   0  0  2  0  0  0  0  0  0  0  0  0
    9.7724  -15.6628   24.1238 N   0  0  0  0  0  0  0  0  0  0  0  0
   10.9054  -17.0097   22.4624 C   0  0  0  0  0  0  0  0  0  0  0  0
   10.1438  -17.9728   22.8225 O   0  0  0  0  0  0  0  0  0  0  0  0
   11.6652  -17.2696   21.3391 O   0  0  0  0  0  0  0  0  0  0  0  0
  2  1  1  6
  2  3  1  0
  3  4  1  0
  4  9  2  0
  5  6  2  0
  5  4  1  0
  6  7  1  0
  7  8  2  0
  9  8  1  0
 10 11  2  0
 10  2  1  0
 12 13  1  0
 13 14  1  0
 14 15  1  6
 14 16  1  0
 16 17  1  1
 17 10  1  0
 18 26  1  0
 18 16  1  0
 19 18  2  0
 20 21  1  0
 21 23  1  0
 21 22  2  0
 23 24  1  0
 25 24  1  1
 25 26  1  0
 25 27  1  0
 27 29  1  0
 28 27  2  0
M  END
$$$$
