FIQ.pdb
     RDKit          3D

 29 29  0  0  1  0  0  0  0  0999 V2000
    5.5570  -17.7627   24.8453 N   0  0  0  0  0  0  0  0  0  0  0  0
    6.2503  -16.4995   24.8584 C   0  0  1  0  0  0  0  0  0  0  0  0
    6.8008  -16.3097   26.2643 C   0  0  0  0  0  0  0  0  0  0  0  0
    7.1326  -14.8741   26.4158 C   0  0  0  0  0  0  0  0  0  0  0  0
    8.4421  -14.4658   26.4437 C   0  0  0  0  0  0  0  0  0  0  0  0
    8.7616  -13.1142   26.5862 C   0  0  0  0  0  0  0  0  0  0  0  0
    7.7337  -12.1797   26.7005 C   0  0  0  0  0  0  0  0  0  0  0  0
    6.4179  -12.5815   26.6734 C   0  0  0  0  0  0  0  0  0  0  0  0
    6.1375  -13.9235   26.5314 C   0  0  0  0  0  0  0  0  0  0  0  0
    7.3301  -16.4492   23.8457 C   0  0  0  0  0  0  0  0  0  0  0  0
    8.0661  -17.4703   23.7162 O   0  0  0  0  0  0  0  0  0  0  0  0
    6.5473  -12.9761   19.9018 C   0  0  0  0  0  0  0  0  0  0  0  0
    6.9937  -14.1817   20.6805 C   0  0  0  0  0  0  0  0  0  0  0  0
    8.3602  -13.9446   21.3326 C   0  0  2  0  0  0  0  0  0  0  0  0
    9.4024  -13.6936   20.2996 C   0  0  0  0  0  0  0  0  0  0  0  0
    8.6187  -15.2017   22.1438 C   0  0  2  0  0  0  0  0  0  0  0  0
    7.4841  -15.2802   23.0841 N   0  0  0  0  0  0  0  0  0  0  0  0
    9.8796  -15.2029   22.8894 C   0  0  0  0  0  0  0  0  0  0  0  0
    9.9780  -14.5906   24.0164 O   0  0  0  0  0  0  0  0  0  0  0  0
   10.2591  -19.1821   25.9058 N   0  0  0  0  0  0  0  0  0  0  0  0
   11.6282  -18.8948   26.1222 C   0  0  0  0  0  0  0  0  0  0  0  0
   12.2876  -19.3972   27.0572 O   0  0  0  0  0  0  0  0  0  0  0  0
   12.3097  -17.9499   25.1902 C   0  0  0  0  0  0  0  0  0  0  0  0
   11.3420  -17.2501   24.3033 C   0  0  0  0  0  0  0  0  0  0  0  0
   12.0685  -16.3606   23.3296 C   0  0  2  0  0  0  0  0  0  0  0  0
   11.0198  -15.8607   22.4263 N   0  0  0  0  0  0  0  0  0  0  0  0
   13.1241  -17.0441   22.5989 C   0  0  0  0  0  0  0  0  0  0  0  0
   12.8373  -17.8453   21.6433 O   0  0  0  0  0  0  0  0  0  0  0  0
   14.4759  -16.9059   22.8443 O   0  0  0  0  0  0  0  0  0  0  0  0
  2  1  1  1
  2  3  1  0
  3  4  1  0
  4  9  2  0
  5  6  2  0
  5  4  1  0
  6  7  1  0
  7  8  2  0
  9  8  1  0
 10 11  2  0
 10  2  1  0
 12 13  1  0
 13 14  1  0
 14 15  1  6
 14 16  1  0
 16 17  1  1
 17 10  1  0
 18 26  1  0
 18 16  1  0
 19 18  2  0
 20 21  1  0
 21 23  1  0
 21 22  2  0
 23 24  1  0
 25 24  1  1
 25 26  1  0
 25 27  1  0
 27 29  1  0
 28 27  2  0
M  END
$$$$
