FIQ.pdb
     RDKit          3D

 29 29  0  0  1  0  0  0  0  0999 V2000
    7.1654  -17.0359   26.3016 N   0  0  0  0  0  0  0  0  0  0  0  0
    7.9266  -16.1036   25.5094 C   0  0  1  0  0  0  0  0  0  0  0  0
    9.3454  -16.1082   26.0596 C   0  0  0  0  0  0  0  0  0  0  0  0
    9.4222  -15.0422   27.0852 C   0  0  0  0  0  0  0  0  0  0  0  0
    9.9736  -15.3028   28.3142 C   0  0  0  0  0  0  0  0  0  0  0  0
   10.0489  -14.3024   29.2852 C   0  0  0  0  0  0  0  0  0  0  0  0
    9.5568  -13.0314   28.9934 C   0  0  0  0  0  0  0  0  0  0  0  0
    9.0024  -12.7623   27.7630 C   0  0  0  0  0  0  0  0  0  0  0  0
    8.9436  -13.7727   26.8273 C   0  0  0  0  0  0  0  0  0  0  0  0
    7.9060  -16.4528   24.0701 C   0  0  0  0  0  0  0  0  0  0  0  0
    7.6076  -17.6414   23.7552 O   0  0  0  0  0  0  0  0  0  0  0  0
    7.7921  -12.3794   20.4324 C   0  0  0  0  0  0  0  0  0  0  0  0
    8.3820  -13.5020   21.2391 C   0  0  0  0  0  0  0  0  0  0  0  0
    7.7143  -14.8388   20.8985 C   0  0  2  0  0  0  0  0  0  0  0  0
    6.2571  -14.7936   21.1996 C   0  0  0  0  0  0  0  0  0  0  0  0
    8.4619  -15.8623   21.7343 C   0  0  2  0  0  0  0  0  0  0  0  0
    8.2160  -15.4560   23.1315 N   0  0  0  0  0  0  0  0  0  0  0  0
    9.9039  -15.9242   21.4841 C   0  0  0  0  0  0  0  0  0  0  0  0
   10.7423  -15.4861   22.3559 O   0  0  0  0  0  0  0  0  0  0  0  0
   10.4518  -20.7194   22.6672 N   0  0  0  0  0  0  0  0  0  0  0  0
   11.7062  -20.7843   22.0144 C   0  0  0  0  0  0  0  0  0  0  0  0
   12.5124  -21.7236   22.1852 O   0  0  0  0  0  0  0  0  0  0  0  0
   12.0775  -19.6803   21.0821 C   0  0  0  0  0  0  0  0  0  0  0  0
   11.0473  -18.6077   21.0533 C   0  0  0  0  0  0  0  0  0  0  0  0
   11.5598  -17.4056   20.3056 C   0  0  2  0  0  0  0  0  0  0  0  0
   10.4351  -16.4564   20.3087 N   0  0  0  0  0  0  0  0  0  0  0  0
   12.0001  -17.7103   18.9533 C   0  0  0  0  0  0  0  0  0  0  0  0
   11.1631  -17.7197   17.9855 O   0  0  0  0  0  0  0  0  0  0  0  0
   13.2995  -18.0036   18.5898 O   0  0  0  0  0  0  0  0  0  0  0  0
  2  1  1  1
  2  3  1  0
  3  4  1  0
  4  9  2  0
  5  6  2  0
  5  4  1  0
  6  7  1  0
  7  8  2  0
  9  8  1  0
 10 11  2  0
 10  2  1  0
 12 13  1  0
 13 14  1  0
 14 15  1  1
 14 16  1  0
 16 17  1  1
 17 10  1  0
 18 26  1  0
 18 16  1  0
 19 18  2  0
 20 21  1  0
 21 23  1  0
 21 22  2  0
 23 24  1  0
 25 24  1  6
 25 26  1  0
 25 27  1  0
 27 29  1  0
 28 27  2  0
M  END
$$$$
