FIQ.pdb
     RDKit          3D

 29 29  0  0  1  0  0  0  0  0999 V2000
    7.3731  -18.9874   27.4426 N   0  0  0  0  0  0  0  0  0  0  0  0
    7.9609  -17.6806   27.2905 C   0  0  1  0  0  0  0  0  0  0  0  0
    9.4303  -17.8083   27.6647 C   0  0  0  0  0  0  0  0  0  0  0  0
    9.8765  -16.4824   28.1514 C   0  0  0  0  0  0  0  0  0  0  0  0
   11.1652  -16.3027   28.5865 C   0  0  0  0  0  0  0  0  0  0  0  0
   11.5920  -15.0555   29.0464 C   0  0  0  0  0  0  0  0  0  0  0  0
   10.6931  -13.9903   29.0597 C   0  0  0  0  0  0  0  0  0  0  0  0
    9.3989  -14.1627   28.6250 C   0  0  0  0  0  0  0  0  0  0  0  0
    9.0104  -15.4071   28.1772 C   0  0  0  0  0  0  0  0  0  0  0  0
    7.7990  -17.1566   25.9146 C   0  0  0  0  0  0  0  0  0  0  0  0
    7.6591  -17.9941   24.9765 O   0  0  0  0  0  0  0  0  0  0  0  0
    6.0556  -12.0595   25.8121 C   0  0  0  0  0  0  0  0  0  0  0  0
    6.2561  -13.5214   25.5263 C   0  0  0  0  0  0  0  0  0  0  0  0
    7.4182  -13.7406   24.5515 C   0  0  2  0  0  0  0  0  0  0  0  0
    7.1803  -13.0150   23.2736 C   0  0  0  0  0  0  0  0  0  0  0  0
    7.4887  -15.2469   24.3750 C   0  0  2  0  0  0  0  0  0  0  0  0
    7.8084  -15.7666   25.7186 N   0  0  0  0  0  0  0  0  0  0  0  0
    8.4953  -15.7062   23.4149 C   0  0  0  0  0  0  0  0  0  0  0  0
    8.1451  -16.2893   22.3231 O   0  0  0  0  0  0  0  0  0  0  0  0
   11.8286  -13.6663   19.3399 N   0  0  0  0  0  0  0  0  0  0  0  0
   12.8500  -13.9148   20.2881 C   0  0  0  0  0  0  0  0  0  0  0  0
   14.0660  -13.8664   20.0043 O   0  0  0  0  0  0  0  0  0  0  0  0
   12.4522  -14.2488   21.6866 C   0  0  0  0  0  0  0  0  0  0  0  0
   11.0222  -14.6485   21.7768 C   0  0  0  0  0  0  0  0  0  0  0  0
   10.8741  -15.8878   22.6188 C   0  0  2  0  0  0  0  0  0  0  0  0
    9.8634  -15.5346   23.6286 N   0  0  0  0  0  0  0  0  0  0  0  0
   12.1186  -16.3204   23.2347 C   0  0  0  0  0  0  0  0  0  0  0  0
   12.3883  -16.0024   24.4444 O   0  0  0  0  0  0  0  0  0  0  0  0
   13.0881  -17.0820   22.6129 O   0  0  0  0  0  0  0  0  0  0  0  0
  2  1  1  6
  2  3  1  0
  3  4  1  0
  4  9  2  0
  5  6  2  0
  5  4  1  0
  6  7  1  0
  7  8  2  0
  9  8  1  0
 10 11  2  0
 10  2  1  0
 12 13  1  0
 13 14  1  0
 14 15  1  6
 14 16  1  0
 16 17  1  1
 17 10  1  0
 18 26  1  0
 18 16  1  0
 19 18  2  0
 20 21  1  0
 21 23  1  0
 21 22  2  0
 23 24  1  0
 25 24  1  6
 25 26  1  0
 25 27  1  0
 27 29  1  0
 28 27  2  0
M  END
$$$$
