ETA.pdb
     RDKit          3D

 22 21  0  0  1  0  0  0  0  0999 V2000
   10.2614  -16.4856   17.1953 N   0  0  0  0  0  0  0  0  0  0  0  0
   10.2375  -17.1614   18.4377 C   0  0  1  0  0  0  0  0  0  0  0  0
   11.4799  -18.0428   18.4985 C   0  0  0  0  0  0  0  0  0  0  0  0
   11.0594  -19.4296   18.0746 C   0  0  0  0  0  0  0  0  0  0  0  0
   12.1678  -20.3851   18.2005 C   0  0  0  0  0  0  0  0  0  0  0  0
   13.1010  -20.3427   19.0245 O   0  0  0  0  0  0  0  0  0  0  0  0
   10.2615  -16.1883   19.5793 C   0  0  0  0  0  0  0  0  0  0  0  0
   11.0251  -15.1999   19.6367 O   0  0  0  0  0  0  0  0  0  0  0  0
   12.1856  -21.4648   17.3005 O   0  0  0  0  0  0  0  0  0  0  0  0
    7.5594  -14.0867   20.8933 C   0  0  0  0  0  0  0  0  0  0  0  0
    7.9627  -15.0512   22.0111 C   0  0  1  0  0  0  0  0  0  0  0  0
    7.0574  -16.1110   21.9462 O   0  0  0  0  0  0  0  0  0  0  0  0
    9.3749  -15.5535   21.7946 C   0  0  2  0  0  0  0  0  0  0  0  0
    9.3695  -16.4032   20.6484 N   0  0  0  0  0  0  0  0  0  0  0  0
    9.6841  -16.4335   22.9924 C   0  0  0  0  0  0  0  0  0  0  0  0
   10.0484  -17.6112   22.8240 O   0  0  0  0  0  0  0  0  0  0  0  0
   11.2058  -17.3462   25.4606 C   0  0  0  0  0  0  0  0  0  0  0  0
    9.8933  -16.6334   25.4965 C   0  0  2  0  0  0  0  0  0  0  0  0
    9.5626  -15.9299   24.3045 N   0  0  0  0  0  0  0  0  0  0  0  0
    9.6424  -15.9727   26.7784 C   0  0  0  0  0  0  0  0  0  0  0  0
    9.1878  -14.7937   26.7406 O   0  0  0  0  0  0  0  0  0  0  0  0
    9.8763  -16.5567   27.9833 O   0  0  0  0  0  0  0  0  0  0  0  0
  2  1  1  6
  2  3  1  0
  3  4  1  0
  4  5  1  0
  5  6  2  0
  5  9  1  0
  7 14  1  0
  7  2  1  0
  8  7  2  0
 11 10  1  6
 11 13  1  0
 12 11  1  0
 13 14  1  6
 13 15  1  0
 15 19  1  0
 16 15  2  0
 18 20  1  0
 18 17  1  6
 19 18  1  0
 20 22  1  0
 21 20  2  0
M  END
$$$$
