ETA.pdb
     RDKit          3D

 22 21  0  0  1  0  0  0  0  0999 V2000
   12.0374  -17.5922   20.2610 N   0  0  0  0  0  0  0  0  0  0  0  0
   11.8714  -17.8397   21.6436 C   0  0  1  0  0  0  0  0  0  0  0  0
   13.2525  -18.1252   22.2223 C   0  0  0  0  0  0  0  0  0  0  0  0
   13.6829  -19.4730   21.6952 C   0  0  0  0  0  0  0  0  0  0  0  0
   14.9667  -19.8879   22.2758 C   0  0  0  0  0  0  0  0  0  0  0  0
   16.0394  -20.0648   21.6679 O   0  0  0  0  0  0  0  0  0  0  0  0
   11.2786  -16.6479   22.3357 C   0  0  0  0  0  0  0  0  0  0  0  0
   11.4609  -15.4667   21.9684 O   0  0  0  0  0  0  0  0  0  0  0  0
   14.9978  -20.1110   23.6634 O   0  0  0  0  0  0  0  0  0  0  0  0
    7.7242  -15.8022   22.8061 C   0  0  0  0  0  0  0  0  0  0  0  0
    8.3464  -16.0695   24.1786 C   0  0  1  0  0  0  0  0  0  0  0  0
    8.1085  -17.4174   24.4498 O   0  0  0  0  0  0  0  0  0  0  0  0
    9.8354  -15.7953   24.1486 C   0  0  2  0  0  0  0  0  0  0  0  0
   10.4689  -16.8761   23.4657 N   0  0  0  0  0  0  0  0  0  0  0  0
   10.2925  -15.8610   25.5948 C   0  0  0  0  0  0  0  0  0  0  0  0
   10.7871  -16.9099   26.0458 O   0  0  0  0  0  0  0  0  0  0  0  0
   10.0711  -13.4395   28.5251 C   0  0  0  0  0  0  0  0  0  0  0  0
   10.3953  -14.7297   27.8451 C   0  0  2  0  0  0  0  0  0  0  0  0
   10.1627  -14.7400   26.4411 N   0  0  0  0  0  0  0  0  0  0  0  0
    9.9790  -15.8990   28.6208 C   0  0  0  0  0  0  0  0  0  0  0  0
   10.4917  -16.0432   29.7673 O   0  0  0  0  0  0  0  0  0  0  0  0
    9.0874  -16.8209   28.1706 O   0  0  0  0  0  0  0  0  0  0  0  0
  2  1  1  6
  2  3  1  0
  3  4  1  0
  4  5  1  0
  5  6  2  0
  5  9  1  0
  7 14  1  0
  7  2  1  0
  8  7  2  0
 11 10  1  6
 11 13  1  0
 12 11  1  0
 13 14  1  6
 13 15  1  0
 15 19  1  0
 16 15  2  0
 18 20  1  0
 18 17  1  1
 19 18  1  0
 20 22  1  0
 21 20  2  0
M  END
$$$$
