ETA.pdb
     RDKit          3D

 22 21  0  0  1  0  0  0  0  0999 V2000
   11.2642  -17.6751   20.0421 N   0  0  0  0  0  0  0  0  0  0  0  0
   11.5190  -17.7463   21.4316 C   0  0  1  0  0  0  0  0  0  0  0  0
   13.0225  -17.9258   21.6083 C   0  0  0  0  0  0  0  0  0  0  0  0
   13.5434  -18.5649   20.3434 C   0  0  0  0  0  0  0  0  0  0  0  0
   15.0082  -18.6712   20.3633 C   0  0  0  0  0  0  0  0  0  0  0  0
   15.8233  -17.8519   19.8984 O   0  0  0  0  0  0  0  0  0  0  0  0
   11.0834  -16.4881   22.1231 C   0  0  0  0  0  0  0  0  0  0  0  0
   11.4492  -15.3425   21.7810 O   0  0  0  0  0  0  0  0  0  0  0  0
   15.5574  -19.8147   20.9691 O   0  0  0  0  0  0  0  0  0  0  0  0
    7.6121  -15.2215   22.6427 C   0  0  0  0  0  0  0  0  0  0  0  0
    8.2377  -15.5308   24.0049 C   0  0  1  0  0  0  0  0  0  0  0  0
    7.8351  -16.8281   24.3242 O   0  0  0  0  0  0  0  0  0  0  0  0
    9.7480  -15.4550   23.9246 C   0  0  2  0  0  0  0  0  0  0  0  0
   10.2105  -16.6077   23.2223 N   0  0  0  0  0  0  0  0  0  0  0  0
   10.2405  -15.5848   25.3547 C   0  0  0  0  0  0  0  0  0  0  0  0
   10.7469  -16.6519   25.7458 O   0  0  0  0  0  0  0  0  0  0  0  0
   10.3578  -13.2273   28.3424 C   0  0  0  0  0  0  0  0  0  0  0  0
   10.4392  -14.5446   27.6423 C   0  0  2  0  0  0  0  0  0  0  0  0
   10.1306  -14.5033   26.2536 N   0  0  0  0  0  0  0  0  0  0  0  0
    9.8897  -15.6436   28.4376 C   0  0  0  0  0  0  0  0  0  0  0  0
    8.8048  -16.1570   28.0405 O   0  0  0  0  0  0  0  0  0  0  0  0
   10.4793  -16.1240   29.5642 O   0  0  0  0  0  0  0  0  0  0  0  0
  2  1  1  6
  2  3  1  0
  3  4  1  0
  4  5  1  0
  5  6  2  0
  5  9  1  0
  7 14  1  0
  7  2  1  0
  8  7  2  0
 11 10  1  6
 11 13  1  0
 12 11  1  0
 13 14  1  6
 13 15  1  0
 15 19  1  0
 16 15  2  0
 18 20  1  0
 18 17  1  1
 19 18  1  0
 20 22  1  0
 21 20  2  0
M  END
$$$$
