ETA.pdb
     RDKit          3D

 22 21  0  0  1  0  0  0  0  0999 V2000
    6.5912  -17.8933   10.2027 N   0  0  0  0  0  0  0  0  0  0  0  0
    6.1729  -17.6080   11.5234 C   0  0  1  0  0  0  0  0  0  0  0  0
    4.7306  -17.1203   11.4469 C   0  0  0  0  0  0  0  0  0  0  0  0
    4.7707  -15.6987   10.9400 C   0  0  0  0  0  0  0  0  0  0  0  0
    3.4244  -15.1142   10.8833 C   0  0  0  0  0  0  0  0  0  0  0  0
    2.4948  -15.2991   11.6916 O   0  0  0  0  0  0  0  0  0  0  0  0
    6.2383  -18.8347   12.3847 C   0  0  0  0  0  0  0  0  0  0  0  0
    5.6302  -19.8974   12.1315 O   0  0  0  0  0  0  0  0  0  0  0  0
    3.1465  -14.2537    9.8069 O   0  0  0  0  0  0  0  0  0  0  0  0
    8.6245  -21.1709   12.9059 C   0  0  0  0  0  0  0  0  0  0  0  0
    8.4810  -20.5219   14.2846 C   0  0  1  0  0  0  0  0  0  0  0  0
    9.4704  -19.5402   14.3494 O   0  0  0  0  0  0  0  0  0  0  0  0
    7.1103  -19.8962   14.4363 C   0  0  2  0  0  0  0  0  0  0  0  0
    7.0330  -18.7833   13.5469 N   0  0  0  0  0  0  0  0  0  0  0  0
    7.0707  -19.3353   15.8465 C   0  0  0  0  0  0  0  0  0  0  0  0
    7.5238  -18.2001   16.0794 O   0  0  0  0  0  0  0  0  0  0  0  0
    5.1205  -20.0857   18.9237 C   0  0  0  0  0  0  0  0  0  0  0  0
    6.3809  -19.6493   18.2506 C   0  0  2  0  0  0  0  0  0  0  0  0
    6.5230  -20.0900   16.9049 N   0  0  0  0  0  0  0  0  0  0  0  0
    7.5491  -19.7298   19.1289 C   0  0  0  0  0  0  0  0  0  0  0  0
    8.5508  -20.3703   18.6994 O   0  0  0  0  0  0  0  0  0  0  0  0
    7.6021  -19.1621   20.3628 O   0  0  0  0  0  0  0  0  0  0  0  0
  2  1  1  6
  2  3  1  0
  3  4  1  0
  4  5  1  0
  5  6  2  0
  5  9  1  0
  7 14  1  0
  7  2  1  0
  8  7  2  0
 11 10  1  6
 11 13  1  0
 12 11  1  0
 13 14  1  6
 13 15  1  0
 15 19  1  0
 16 15  2  0
 18 20  1  0
 18 17  1  1
 19 18  1  0
 20 22  1  0
 21 20  2  0
M  END
$$$$
