ETA.pdb
     RDKit          3D

 22 21  0  0  1  0  0  0  0  0999 V2000
   10.6982  -18.2807   20.7933 N   0  0  0  0  0  0  0  0  0  0  0  0
   11.7264  -17.5787   21.4645 C   0  0  1  0  0  0  0  0  0  0  0  0
   12.7524  -17.1648   20.4157 C   0  0  0  0  0  0  0  0  0  0  0  0
   13.4688  -18.4198   19.9782 C   0  0  0  0  0  0  0  0  0  0  0  0
   14.4684  -18.1300   18.9419 C   0  0  0  0  0  0  0  0  0  0  0  0
   15.6914  -18.3599   18.9981 O   0  0  0  0  0  0  0  0  0  0  0  0
   11.1868  -16.3543   22.1431 C   0  0  0  0  0  0  0  0  0  0  0  0
   11.5673  -15.1910   21.8875 O   0  0  0  0  0  0  0  0  0  0  0  0
   14.0055  -17.5299   17.7579 O   0  0  0  0  0  0  0  0  0  0  0  0
    7.4868  -15.4761   22.4390 C   0  0  0  0  0  0  0  0  0  0  0  0
    8.1021  -15.6364   23.8312 C   0  0  1  0  0  0  0  0  0  0  0  0
    7.8263  -16.9472   24.2220 O   0  0  0  0  0  0  0  0  0  0  0  0
    9.5983  -15.4082   23.7795 C   0  0  2  0  0  0  0  0  0  0  0  0
   10.1927  -16.5286   23.1259 N   0  0  0  0  0  0  0  0  0  0  0  0
   10.0672  -15.4419   25.2230 C   0  0  0  0  0  0  0  0  0  0  0  0
   10.6608  -16.4430   25.6630 O   0  0  0  0  0  0  0  0  0  0  0  0
    9.6722  -13.0637   28.1707 C   0  0  0  0  0  0  0  0  0  0  0  0
   10.1147  -14.3093   27.4745 C   0  0  2  0  0  0  0  0  0  0  0  0
    9.8369  -14.3448   26.0792 N   0  0  0  0  0  0  0  0  0  0  0  0
    9.8581  -15.5182   28.2589 C   0  0  0  0  0  0  0  0  0  0  0  0
    8.8370  -16.1982   27.9537 O   0  0  0  0  0  0  0  0  0  0  0  0
   10.6501  -15.9314   29.2834 O   0  0  0  0  0  0  0  0  0  0  0  0
  2  1  1  6
  2  3  1  0
  3  4  1  0
  4  5  1  0
  5  6  2  0
  5  9  1  0
  7 14  1  0
  7  2  1  0
  8  7  2  0
 11 10  1  6
 11 13  1  0
 12 11  1  0
 13 14  1  6
 13 15  1  0
 15 19  1  0
 16 15  2  0
 18 20  1  0
 18 17  1  1
 19 18  1  0
 20 22  1  0
 21 20  2  0
M  END
$$$$
