ETA.pdb
     RDKit          3D

 22 21  0  0  1  0  0  0  0  0999 V2000
   13.4953  -17.6193   18.4462 N   0  0  0  0  0  0  0  0  0  0  0  0
   13.6093  -17.9016   19.8275 C   0  0  1  0  0  0  0  0  0  0  0  0
   15.0920  -17.8564   20.1789 C   0  0  0  0  0  0  0  0  0  0  0  0
   15.4231  -19.1583   20.8681 C   0  0  0  0  0  0  0  0  0  0  0  0
   16.8496  -19.2336   21.2096 C   0  0  0  0  0  0  0  0  0  0  0  0
   17.8015  -19.3684   20.4176 O   0  0  0  0  0  0  0  0  0  0  0  0
   12.8725  -16.8834   20.6468 C   0  0  0  0  0  0  0  0  0  0  0  0
   12.9525  -15.6495   20.4614 O   0  0  0  0  0  0  0  0  0  0  0  0
   17.1858  -19.1449   22.5717 O   0  0  0  0  0  0  0  0  0  0  0  0
    9.3917  -16.5032   20.6905 C   0  0  0  0  0  0  0  0  0  0  0  0
    9.7635  -16.8305   22.1386 C   0  0  1  0  0  0  0  0  0  0  0  0
    9.5904  -18.2083   22.2753 O   0  0  0  0  0  0  0  0  0  0  0  0
   11.2038  -16.4528   22.4149 C   0  0  2  0  0  0  0  0  0  0  0  0
   12.0419  -17.3480   21.6855 N   0  0  0  0  0  0  0  0  0  0  0  0
   11.4274  -16.7435   23.8881 C   0  0  0  0  0  0  0  0  0  0  0  0
   12.0698  -17.7511   24.2348 O   0  0  0  0  0  0  0  0  0  0  0  0
   10.5129  -14.9335   27.1106 C   0  0  0  0  0  0  0  0  0  0  0  0
   11.0340  -16.0632   26.2832 C   0  0  2  0  0  0  0  0  0  0  0  0
   10.9122  -15.8798   24.8773 N   0  0  0  0  0  0  0  0  0  0  0  0
   10.6966  -17.3747   26.8387 C   0  0  0  0  0  0  0  0  0  0  0  0
    9.9505  -18.1214   26.1430 O   0  0  0  0  0  0  0  0  0  0  0  0
   11.1369  -17.8149   28.0469 O   0  0  0  0  0  0  0  0  0  0  0  0
  2  1  1  6
  2  3  1  0
  3  4  1  0
  4  5  1  0
  5  6  2  0
  5  9  1  0
  7 14  1  0
  7  2  1  0
  8  7  2  0
 11 10  1  6
 11 13  1  0
 12 11  1  0
 13 14  1  6
 13 15  1  0
 15 19  1  0
 16 15  2  0
 18 20  1  0
 18 17  1  1
 19 18  1  0
 20 22  1  0
 21 20  2  0
M  END
$$$$
