ETA.pdb
     RDKit          3D

 22 21  0  0  1  0  0  0  0  0999 V2000
   12.5583  -17.4131   20.3765 N   0  0  0  0  0  0  0  0  0  0  0  0
   12.8702  -17.2977   21.7513 C   0  0  1  0  0  0  0  0  0  0  0  0
   14.3088  -16.8032   21.8501 C   0  0  0  0  0  0  0  0  0  0  0  0
   14.6651  -16.7694   23.3169 C   0  0  0  0  0  0  0  0  0  0  0  0
   16.0393  -16.2929   23.5214 C   0  0  0  0  0  0  0  0  0  0  0  0
   17.0153  -16.9672   23.9014 O   0  0  0  0  0  0  0  0  0  0  0  0
   11.9592  -16.3169   22.4286 C   0  0  0  0  0  0  0  0  0  0  0  0
   11.7924  -15.1393   22.0427 O   0  0  0  0  0  0  0  0  0  0  0  0
   16.2891  -14.9338   23.2631 O   0  0  0  0  0  0  0  0  0  0  0  0
    8.4082  -16.3889   22.7492 C   0  0  0  0  0  0  0  0  0  0  0  0
    8.9636  -16.4938   24.1715 C   0  0  1  0  0  0  0  0  0  0  0  0
    9.0218  -17.8580   24.4590 O   0  0  0  0  0  0  0  0  0  0  0  0
   10.3468  -15.8823   24.2474 C   0  0  2  0  0  0  0  0  0  0  0  0
   11.2508  -16.7510   23.5663 N   0  0  0  0  0  0  0  0  0  0  0  0
   10.7285  -15.9152   25.7164 C   0  0  0  0  0  0  0  0  0  0  0  0
   11.3865  -16.8693   26.1689 O   0  0  0  0  0  0  0  0  0  0  0  0
   10.1908  -13.5530   28.6522 C   0  0  0  0  0  0  0  0  0  0  0  0
   10.5389  -14.8472   27.9919 C   0  0  2  0  0  0  0  0  0  0  0  0
   10.3436  -14.8703   26.5824 N   0  0  0  0  0  0  0  0  0  0  0  0
   10.1078  -16.0121   28.7662 C   0  0  0  0  0  0  0  0  0  0  0  0
   10.5470  -16.1147   29.9472 O   0  0  0  0  0  0  0  0  0  0  0  0
    9.2769  -16.9718   28.2803 O   0  0  0  0  0  0  0  0  0  0  0  0
  2  1  1  6
  2  3  1  0
  3  4  1  0
  4  5  1  0
  5  6  2  0
  5  9  1  0
  7 14  1  0
  7  2  1  0
  8  7  2  0
 11 10  1  6
 11 13  1  0
 12 11  1  0
 13 14  1  6
 13 15  1  0
 15 19  1  0
 16 15  2  0
 18 20  1  0
 18 17  1  1
 19 18  1  0
 20 22  1  0
 21 20  2  0
M  END
$$$$
