WPT.pdb
     RDKit          3D

 29 31  0  0  1  0  0  0  0  0999 V2000
   23.8894  -20.2958  -11.2363 N   0  0  0  0  0  0  0  0  0  0  0  0
   25.2454  -20.2766  -11.6004 C   0  0  1  0  0  0  0  0  0  0  0  0
   26.0338  -21.1636  -10.6806 C   0  0  0  0  0  0  0  0  0  0  0  0
   26.0433  -20.7311   -9.2722 C   0  0  0  0  0  0  0  0  0  0  0  0
   24.9940  -20.4846   -8.4180 C   0  0  0  0  0  0  0  0  0  0  0  0
   25.4660  -20.1130   -7.2273 N   0  0  0  0  0  0  0  0  0  0  0  0
   26.8048  -20.1061   -7.2682 C   0  0  0  0  0  0  0  0  0  0  0  0
   27.7623  -19.7944   -6.2960 C   0  0  0  0  0  0  0  0  0  0  0  0
   29.0955  -19.8732   -6.6155 C   0  0  0  0  0  0  0  0  0  0  0  0
   29.5063  -20.2527   -7.8733 C   0  0  0  0  0  0  0  0  0  0  0  0
   28.5295  -20.5539   -8.8107 C   0  0  0  0  0  0  0  0  0  0  0  0
   27.1800  -20.4890   -8.5356 C   0  0  0  0  0  0  0  0  0  0  0  0
   25.5576  -20.4708  -13.0331 C   0  0  0  0  0  0  0  0  0  0  0  0
   24.5771  -20.8160  -13.7448 O   0  0  0  0  0  0  0  0  0  0  0  0
   26.8056  -20.3111  -13.6504 N   0  0  0  0  0  0  0  0  0  0  0  0
   28.1354  -20.2087  -13.0833 C   0  0  0  0  0  0  0  0  0  0  0  0
   28.9979  -19.4938  -14.1183 C   0  0  0  0  0  0  0  0  0  0  0  0
   27.9576  -19.0327  -15.1401 C   0  0  0  0  0  0  0  0  0  0  0  0
   27.0112  -20.2125  -15.0809 C   0  0  1  0  0  0  0  0  0  0  0  0
   27.7253  -21.4010  -15.6189 C   0  0  0  0  0  0  0  0  0  0  0  0
   28.7366  -21.9202  -15.0816 O   0  0  0  0  0  0  0  0  0  0  0  0
   26.2969  -24.8607  -16.1400 C   0  0  0  0  0  0  0  0  0  0  0  0
   26.7671  -24.3355  -17.4433 C   0  0  1  0  0  0  0  0  0  0  0  0
   25.6473  -23.9115  -18.1591 O   0  0  0  0  0  0  0  0  0  0  0  0
   27.7889  -23.2447  -17.3577 C   0  0  2  0  0  0  0  0  0  0  0  0
   27.2592  -22.0118  -16.8153 N   0  0  0  0  0  0  0  0  0  0  0  0
   28.5446  -23.0047  -18.5785 C   0  0  0  0  0  0  0  0  0  0  0  0
   28.4312  -21.8722  -19.1498 O   0  0  0  0  0  0  0  0  0  0  0  0
   29.3945  -23.8980  -19.2000 O   0  0  0  0  0  0  0  0  0  0  0  0
  2  1  1  6
  2 13  1  0
  3  2  1  0
  4  3  1  0
  4 12  1  0
  5  6  1  0
  5  4  2  0
  6  7  1  0
  7  8  2  0
  7 12  1  0
  8  9  1  0
  9 10  2  0
 11 10  1  0
 12 11  2  0
 13 15  1  0
 13 14  2  0
 15 16  1  0
 17 16  1  0
 18 17  1  0
 19 20  1  1
 19 18  1  0
 19 15  1  0
 20 21  2  0
 23 22  1  1
 23 25  1  0
 24 23  1  0
 25 26  1  6
 25 27  1  0
 26 20  1  0
 27 28  2  0
 27 29  1  0
M  END
$$$$
