WPT.pdb
     RDKit          3D

 29 31  0  0  1  0  0  0  0  0999 V2000
   52.9584  -19.5508   -9.8927 N   0  0  0  0  0  0  0  0  0  0  0  0
   53.1935  -20.7982  -10.4929 C   0  0  1  0  0  0  0  0  0  0  0  0
   52.9375  -20.7108  -11.9697 C   0  0  0  0  0  0  0  0  0  0  0  0
   51.5417  -20.4086  -12.3323 C   0  0  0  0  0  0  0  0  0  0  0  0
   50.5845  -19.7016  -11.6429 C   0  0  0  0  0  0  0  0  0  0  0  0
   49.4538  -19.6758  -12.3497 N   0  0  0  0  0  0  0  0  0  0  0  0
   49.6353  -20.3488  -13.4934 C   0  0  0  0  0  0  0  0  0  0  0  0
   48.7722  -20.6114  -14.5637 C   0  0  0  0  0  0  0  0  0  0  0  0
   49.2294  -21.3424  -15.6325 C   0  0  0  0  0  0  0  0  0  0  0  0
   50.5196  -21.8207  -15.6699 C   0  0  0  0  0  0  0  0  0  0  0  0
   51.3460  -21.5409  -14.5918 C   0  0  0  0  0  0  0  0  0  0  0  0
   50.9311  -20.8116  -13.4977 C   0  0  0  0  0  0  0  0  0  0  0  0
   54.4574  -21.4826  -10.1435 C   0  0  0  0  0  0  0  0  0  0  0  0
   55.3598  -20.7273   -9.6939 O   0  0  0  0  0  0  0  0  0  0  0  0
   54.7330  -22.8514  -10.2641 N   0  0  0  0  0  0  0  0  0  0  0  0
   53.9061  -23.9452  -10.7337 C   0  0  0  0  0  0  0  0  0  0  0  0
   54.4804  -25.2199  -10.1240 C   0  0  0  0  0  0  0  0  0  0  0  0
   55.5018  -24.6679   -9.1286 C   0  0  0  0  0  0  0  0  0  0  0  0
   55.9943  -23.4722   -9.9151 C   0  0  1  0  0  0  0  0  0  0  0  0
   56.7118  -23.9770  -11.1161 C   0  0  0  0  0  0  0  0  0  0  0  0
   56.1429  -24.4694  -12.1236 O   0  0  0  0  0  0  0  0  0  0  0  0
   60.1006  -21.8797  -11.9321 C   0  0  0  0  0  0  0  0  0  0  0  0
   60.2118  -23.3063  -12.3166 C   0  0  1  0  0  0  0  0  0  0  0  0
   61.1026  -23.9159  -11.4329 O   0  0  0  0  0  0  0  0  0  0  0  0
   58.9157  -24.0540  -12.3666 C   0  0  2  0  0  0  0  0  0  0  0  0
   58.1317  -23.9125  -11.1583 N   0  0  0  0  0  0  0  0  0  0  0  0
   59.0187  -25.4485  -12.7709 C   0  0  0  0  0  0  0  0  0  0  0  0
   59.1389  -26.3358  -11.8654 O   0  0  0  0  0  0  0  0  0  0  0  0
   58.9993  -25.9251  -14.0667 O   0  0  0  0  0  0  0  0  0  0  0  0
  2  1  1  6
  2 13  1  0
  3  2  1  0
  4  3  1  0
  4 12  1  0
  5  6  1  0
  5  4  2  0
  6  7  1  0
  7  8  2  0
  7 12  1  0
  8  9  1  0
  9 10  2  0
 11 10  1  0
 12 11  2  0
 13 15  1  0
 13 14  2  0
 15 16  1  0
 17 16  1  0
 18 17  1  0
 19 20  1  6
 19 18  1  0
 19 15  1  0
 20 21  2  0
 23 22  1  1
 23 25  1  0
 24 23  1  0
 25 26  1  1
 25 27  1  0
 26 20  1  0
 27 28  2  0
 27 29  1  0
M  END
$$$$
