WPT.pdb
     RDKit          3D

 29 31  0  0  1  0  0  0  0  0999 V2000
   23.7431  -20.6459  -11.4279 N   0  0  0  0  0  0  0  0  0  0  0  0
   25.0521  -20.3233  -11.8204 C   0  0  1  0  0  0  0  0  0  0  0  0
   26.0335  -21.1933  -11.0894 C   0  0  0  0  0  0  0  0  0  0  0  0
   26.2993  -20.7824   -9.6997 C   0  0  0  0  0  0  0  0  0  0  0  0
   25.4707  -20.1751   -8.7855 C   0  0  0  0  0  0  0  0  0  0  0  0
   26.1304  -19.9862   -7.6419 N   0  0  0  0  0  0  0  0  0  0  0  0
   27.3789  -20.4533   -7.7729 C   0  0  0  0  0  0  0  0  0  0  0  0
   28.4543  -20.4936   -6.8778 C   0  0  0  0  0  0  0  0  0  0  0  0
   29.6467  -21.0408   -7.2834 C   0  0  0  0  0  0  0  0  0  0  0  0
   29.8029  -21.5496   -8.5528 C   0  0  0  0  0  0  0  0  0  0  0  0
   28.7157  -21.4925   -9.4122 C   0  0  0  0  0  0  0  0  0  0  0  0
   27.4999  -20.9528   -9.0494 C   0  0  0  0  0  0  0  0  0  0  0  0
   25.3099  -20.2193  -13.2731 C   0  0  0  0  0  0  0  0  0  0  0  0
   24.2755  -20.1575  -13.9896 O   0  0  0  0  0  0  0  0  0  0  0  0
   26.5607  -20.1851  -13.9044 N   0  0  0  0  0  0  0  0  0  0  0  0
   27.8945  -20.3810  -13.3724 C   0  0  0  0  0  0  0  0  0  0  0  0
   28.8541  -19.6842  -14.3316 C   0  0  0  0  0  0  0  0  0  0  0  0
   27.8954  -18.9236  -15.2489 C   0  0  0  0  0  0  0  0  0  0  0  0
   26.7653  -19.9283  -15.3152 C   0  0  1  0  0  0  0  0  0  0  0  0
   27.2647  -21.1340  -16.0287 C   0  0  0  0  0  0  0  0  0  0  0  0
   28.4746  -21.4721  -16.0826 O   0  0  0  0  0  0  0  0  0  0  0  0
   26.3694  -24.6591  -15.1936 C   0  0  0  0  0  0  0  0  0  0  0  0
   25.9687  -24.4048  -16.5972 C   0  0  1  0  0  0  0  0  0  0  0  0
   24.5879  -24.2069  -16.6153 O   0  0  0  0  0  0  0  0  0  0  0  0
   26.6784  -23.2682  -17.2649 C   0  0  2  0  0  0  0  0  0  0  0  0
   26.3399  -21.9784  -16.7022 N   0  0  0  0  0  0  0  0  0  0  0  0
   26.5934  -23.2509  -18.7179 C   0  0  0  0  0  0  0  0  0  0  0  0
   27.1287  -24.2058  -19.3688 O   0  0  0  0  0  0  0  0  0  0  0  0
   25.9774  -22.2836  -19.4870 O   0  0  0  0  0  0  0  0  0  0  0  0
  2  1  1  6
  2 13  1  0
  3  2  1  0
  4  3  1  0
  4 12  1  0
  5  6  1  0
  5  4  2  0
  6  7  1  0
  7  8  2  0
  7 12  1  0
  8  9  1  0
  9 10  2  0
 11 10  1  0
 12 11  2  0
 13 15  1  0
 13 14  2  0
 15 16  1  0
 17 16  1  0
 18 17  1  0
 19 20  1  6
 19 18  1  0
 19 15  1  0
 20 21  2  0
 23 22  1  1
 23 25  1  0
 24 23  1  0
 25 26  1  1
 25 27  1  0
 26 20  1  0
 27 28  2  0
 27 29  1  0
M  END
$$$$
