WPT.pdb
     RDKit          3D

 29 31  0  0  1  0  0  0  0  0999 V2000
   23.9241  -20.4889  -10.2533 N   0  0  0  0  0  0  0  0  0  0  0  0
   25.2059  -20.1709  -10.7302 C   0  0  1  0  0  0  0  0  0  0  0  0
   26.2466  -20.8616   -9.8971 C   0  0  0  0  0  0  0  0  0  0  0  0
   26.2232  -20.5039   -8.4680 C   0  0  0  0  0  0  0  0  0  0  0  0
   25.1556  -20.2414   -7.6417 C   0  0  0  0  0  0  0  0  0  0  0  0
   25.5990  -19.9601   -6.4158 N   0  0  0  0  0  0  0  0  0  0  0  0
   26.9366  -20.0292   -6.4059 C   0  0  0  0  0  0  0  0  0  0  0  0
   27.8699  -19.8247   -5.3829 C   0  0  0  0  0  0  0  0  0  0  0  0
   29.2084  -19.9644   -5.6559 C   0  0  0  0  0  0  0  0  0  0  0  0
   29.6480  -20.3015   -6.9160 C   0  0  0  0  0  0  0  0  0  0  0  0
   28.6946  -20.4962   -7.9044 C   0  0  0  0  0  0  0  0  0  0  0  0
   27.3409  -20.3670   -7.6771 C   0  0  0  0  0  0  0  0  0  0  0  0
   25.4280  -20.2919  -12.1876 C   0  0  0  0  0  0  0  0  0  0  0  0
   24.3880  -20.5124  -12.8634 O   0  0  0  0  0  0  0  0  0  0  0  0
   26.6517  -20.1873  -12.8627 N   0  0  0  0  0  0  0  0  0  0  0  0
   28.0123  -20.2099  -12.3639 C   0  0  0  0  0  0  0  0  0  0  0  0
   28.8717  -19.5025  -13.4067 C   0  0  0  0  0  0  0  0  0  0  0  0
   27.8178  -18.9143  -14.3459 C   0  0  0  0  0  0  0  0  0  0  0  0
   26.7917  -20.0258  -14.2953 C   0  0  1  0  0  0  0  0  0  0  0  0
   27.3888  -21.2306  -14.9308 C   0  0  0  0  0  0  0  0  0  0  0  0
   28.4000  -21.8338  -14.4896 O   0  0  0  0  0  0  0  0  0  0  0  0
   25.7798  -24.5075  -15.1939 C   0  0  0  0  0  0  0  0  0  0  0  0
   26.0697  -24.0578  -16.5756 C   0  0  1  0  0  0  0  0  0  0  0  0
   24.8788  -23.5843  -17.1266 O   0  0  0  0  0  0  0  0  0  0  0  0
   27.1562  -23.0349  -16.6964 C   0  0  2  0  0  0  0  0  0  0  0  0
   26.8016  -21.7585  -16.1133 N   0  0  0  0  0  0  0  0  0  0  0  0
   27.7091  -22.8713  -18.0329 C   0  0  0  0  0  0  0  0  0  0  0  0
   27.6067  -21.7342  -18.5972 O   0  0  0  0  0  0  0  0  0  0  0  0
   28.3503  -23.8437  -18.7745 O   0  0  0  0  0  0  0  0  0  0  0  0
  2  1  1  6
  2 13  1  0
  3  2  1  0
  4  3  1  0
  4 12  1  0
  5  6  1  0
  5  4  2  0
  6  7  1  0
  7  8  2  0
  7 12  1  0
  8  9  1  0
  9 10  2  0
 11 10  1  0
 12 11  2  0
 13 15  1  0
 13 14  2  0
 15 16  1  0
 17 16  1  0
 18 17  1  0
 19 20  1  6
 19 18  1  0
 19 15  1  0
 20 21  2  0
 23 22  1  1
 23 25  1  0
 24 23  1  0
 25 26  1  6
 25 27  1  0
 26 20  1  0
 27 28  2  0
 27 29  1  0
M  END
$$$$
