WPT.pdb
     RDKit          3D

 29 31  0  0  1  0  0  0  0  0999 V2000
   23.8601  -19.9665  -11.9849 N   0  0  0  0  0  0  0  0  0  0  0  0
   25.1869  -20.3250  -12.2726 C   0  0  1  0  0  0  0  0  0  0  0  0
   25.6292  -21.4263  -11.3528 C   0  0  0  0  0  0  0  0  0  0  0  0
   25.7393  -21.0342   -9.9368 C   0  0  0  0  0  0  0  0  0  0  0  0
   24.7607  -20.6569   -9.0473 C   0  0  0  0  0  0  0  0  0  0  0  0
   25.3134  -20.3877   -7.8638 N   0  0  0  0  0  0  0  0  0  0  0  0
   26.6369  -20.5770   -7.9440 C   0  0  0  0  0  0  0  0  0  0  0  0
   27.6551  -20.4333   -6.9942 C   0  0  0  0  0  0  0  0  0  0  0  0
   28.9532  -20.6997   -7.3544 C   0  0  0  0  0  0  0  0  0  0  0  0
   29.2704  -21.1048   -8.6311 C   0  0  0  0  0  0  0  0  0  0  0  0
   28.2356  -21.2362   -9.5453 C   0  0  0  0  0  0  0  0  0  0  0  0
   26.9181  -20.9800   -9.2293 C   0  0  0  0  0  0  0  0  0  0  0  0
   25.5250  -20.5591  -13.6934 C   0  0  0  0  0  0  0  0  0  0  0  0
   24.5330  -20.7325  -14.4503 O   0  0  0  0  0  0  0  0  0  0  0  0
   26.8080  -20.6046  -14.2554 N   0  0  0  0  0  0  0  0  0  0  0  0
   28.1159  -20.5505  -13.6333 C   0  0  0  0  0  0  0  0  0  0  0  0
   29.0896  -20.0702  -14.7044 C   0  0  0  0  0  0  0  0  0  0  0  0
   28.1458  -19.6588  -15.8353 C   0  0  0  0  0  0  0  0  0  0  0  0
   27.0835  -20.7245  -15.6724 C   0  0  1  0  0  0  0  0  0  0  0  0
   27.6963  -22.0380  -16.0062 C   0  0  0  0  0  0  0  0  0  0  0  0
   28.6407  -22.5608  -15.3614 O   0  0  0  0  0  0  0  0  0  0  0  0
   25.9406  -24.9068  -15.2717 C   0  0  0  0  0  0  0  0  0  0  0  0
   26.1178  -24.9443  -16.7422 C   0  0  1  0  0  0  0  0  0  0  0  0
   24.9483  -24.4538  -17.3234 O   0  0  0  0  0  0  0  0  0  0  0  0
   27.3167  -24.2101  -17.2569 C   0  0  2  0  0  0  0  0  0  0  0  0
   27.2051  -22.7737  -17.1194 N   0  0  0  0  0  0  0  0  0  0  0  0
   27.7442  -24.5822  -18.5977 C   0  0  0  0  0  0  0  0  0  0  0  0
   28.1610  -25.7695  -18.7944 O   0  0  0  0  0  0  0  0  0  0  0  0
   27.7461  -23.7633  -19.7094 O   0  0  0  0  0  0  0  0  0  0  0  0
  2  1  1  6
  2 13  1  0
  3  2  1  0
  4  3  1  0
  4 12  1  0
  5  6  1  0
  5  4  2  0
  6  7  1  0
  7  8  2  0
  7 12  1  0
  8  9  1  0
  9 10  2  0
 11 10  1  0
 12 11  2  0
 13 15  1  0
 13 14  2  0
 15 16  1  0
 17 16  1  0
 18 17  1  0
 19 20  1  1
 19 18  1  0
 19 15  1  0
 20 21  2  0
 23 22  1  1
 23 25  1  0
 24 23  1  0
 25 26  1  6
 25 27  1  0
 26 20  1  0
 27 28  2  0
 27 29  1  0
M  END
$$$$
