WPT.pdb
     RDKit          3D

 29 31  0  0  1  0  0  0  0  0999 V2000
   27.6951  -19.5590  -12.7141 N   0  0  0  0  0  0  0  0  0  0  0  0
   26.9280  -20.7335  -12.6516 C   0  0  1  0  0  0  0  0  0  0  0  0
   26.2593  -20.8360  -11.3112 C   0  0  0  0  0  0  0  0  0  0  0  0
   27.1844  -20.8432  -10.1644 C   0  0  0  0  0  0  0  0  0  0  0  0
   26.9893  -20.4185   -8.8710 C   0  0  0  0  0  0  0  0  0  0  0  0
   28.1034  -20.6141   -8.1645 N   0  0  0  0  0  0  0  0  0  0  0  0
   29.0359  -21.1589   -8.9567 C   0  0  0  0  0  0  0  0  0  0  0  0
   30.3554  -21.5516   -8.7040 C   0  0  0  0  0  0  0  0  0  0  0  0
   31.1023  -22.0935   -9.7210 C   0  0  0  0  0  0  0  0  0  0  0  0
   30.5769  -22.2573  -10.9827 C   0  0  0  0  0  0  0  0  0  0  0  0
   29.2662  -21.8568  -11.1959 C   0  0  0  0  0  0  0  0  0  0  0  0
   28.4788  -21.3080  -10.2061 C   0  0  0  0  0  0  0  0  0  0  0  0
   26.0278  -21.0077  -13.7927 C   0  0  0  0  0  0  0  0  0  0  0  0
   26.1635  -20.2264  -14.7716 O   0  0  0  0  0  0  0  0  0  0  0  0
   25.0679  -22.0251  -13.8803 N   0  0  0  0  0  0  0  0  0  0  0  0
   24.6923  -23.0555  -12.9328 C   0  0  0  0  0  0  0  0  0  0  0  0
   24.0506  -24.1788  -13.7406 C   0  0  0  0  0  0  0  0  0  0  0  0
   24.3453  -23.7492  -15.1785 C   0  0  0  0  0  0  0  0  0  0  0  0
   24.2070  -22.2500  -15.0233 C   0  0  1  0  0  0  0  0  0  0  0  0
   22.7842  -21.9506  -14.7099 C   0  0  0  0  0  0  0  0  0  0  0  0
   22.2882  -22.0078  -13.5559 O   0  0  0  0  0  0  0  0  0  0  0  0
   21.4972  -18.5967  -16.4688 C   0  0  0  0  0  0  0  0  0  0  0  0
   20.5260  -19.7103  -16.5789 C   0  0  1  0  0  0  0  0  0  0  0  0
   20.6071  -20.2177  -17.8758 O   0  0  0  0  0  0  0  0  0  0  0  0
   20.6936  -20.8021  -15.5683 C   0  0  2  0  0  0  0  0  0  0  0  0
   21.9036  -21.5726  -15.7604 N   0  0  0  0  0  0  0  0  0  0  0  0
   19.5368  -21.6679  -15.3921 C   0  0  0  0  0  0  0  0  0  0  0  0
   19.6223  -22.8802  -15.7726 O   0  0  0  0  0  0  0  0  0  0  0  0
   18.3236  -21.3054  -14.8412 O   0  0  0  0  0  0  0  0  0  0  0  0
  2  1  1  6
  2 13  1  0
  3  2  1  0
  4  3  1  0
  4 12  1  0
  5  6  1  0
  5  4  2  0
  6  7  1  0
  7  8  2  0
  7 12  1  0
  8  9  1  0
  9 10  2  0
 11 10  1  0
 12 11  2  0
 13 15  1  0
 13 14  2  0
 15 16  1  0
 17 16  1  0
 18 17  1  0
 19 20  1  1
 19 18  1  0
 19 15  1  0
 20 21  2  0
 23 22  1  1
 23 25  1  0
 24 23  1  0
 25 26  1  6
 25 27  1  0
 26 20  1  0
 27 28  2  0
 27 29  1  0
M  END
$$$$
