WPT.pdb
     RDKit          3D

 29 31  0  0  1  0  0  0  0  0999 V2000
   24.1969  -20.0410  -10.0151 N   0  0  0  0  0  0  0  0  0  0  0  0
   25.5066  -20.0763  -10.5203 C   0  0  1  0  0  0  0  0  0  0  0  0
   26.3461  -21.0108   -9.6979 C   0  0  0  0  0  0  0  0  0  0  0  0
   26.3274  -20.7373   -8.2502 C   0  0  0  0  0  0  0  0  0  0  0  0
   25.2705  -20.7130   -7.3706 C   0  0  0  0  0  0  0  0  0  0  0  0
   25.7146  -20.4206   -6.1476 N   0  0  0  0  0  0  0  0  0  0  0  0
   27.0423  -20.2496   -6.1917 C   0  0  0  0  0  0  0  0  0  0  0  0
   27.9720  -19.9344   -5.1939 C   0  0  0  0  0  0  0  0  0  0  0  0
   29.2997  -19.8180   -5.5244 C   0  0  0  0  0  0  0  0  0  0  0  0
   29.7320  -20.0055   -6.8178 C   0  0  0  0  0  0  0  0  0  0  0  0
   28.7824  -20.3165   -7.7797 C   0  0  0  0  0  0  0  0  0  0  0  0
   27.4394  -20.4436   -7.4949 C   0  0  0  0  0  0  0  0  0  0  0  0
   25.6573  -20.2629  -11.9798 C   0  0  0  0  0  0  0  0  0  0  0  0
   24.5754  -20.4151  -12.6069 O   0  0  0  0  0  0  0  0  0  0  0  0
   26.8565  -20.2856  -12.7047 N   0  0  0  0  0  0  0  0  0  0  0  0
   28.2322  -20.3647  -12.2555 C   0  0  0  0  0  0  0  0  0  0  0  0
   29.0915  -19.7879  -13.3759 C   0  0  0  0  0  0  0  0  0  0  0  0
   28.0396  -19.1957  -14.3150 C   0  0  0  0  0  0  0  0  0  0  0  0
   26.9477  -20.2307  -14.1493 C   0  0  1  0  0  0  0  0  0  0  0  0
   27.4404  -21.5127  -14.7202 C   0  0  0  0  0  0  0  0  0  0  0  0
   28.1034  -22.3644  -14.0751 O   0  0  0  0  0  0  0  0  0  0  0  0
   25.5556  -23.5005  -14.2892 C   0  0  0  0  0  0  0  0  0  0  0  0
   25.4102  -23.5199  -15.7636 C   0  0  1  0  0  0  0  0  0  0  0  0
   24.3113  -22.7259  -16.0923 O   0  0  0  0  0  0  0  0  0  0  0  0
   26.6243  -23.0917  -16.5278 C   0  0  2  0  0  0  0  0  0  0  0  0
   27.1599  -21.8243  -16.0789 N   0  0  0  0  0  0  0  0  0  0  0  0
   26.4902  -23.1266  -17.9768 C   0  0  0  0  0  0  0  0  0  0  0  0
   26.4001  -22.0224  -18.6049 O   0  0  0  0  0  0  0  0  0  0  0  0
   26.4493  -24.2599  -18.7646 O   0  0  0  0  0  0  0  0  0  0  0  0
  2  1  1  1
  2 13  1  0
  3  2  1  0
  4  3  1  0
  4 12  1  0
  5  6  1  0
  5  4  2  0
  6  7  1  0
  7  8  2  0
  7 12  1  0
  8  9  1  0
  9 10  2  0
 11 10  1  0
 12 11  2  0
 13 15  1  0
 13 14  2  0
 15 16  1  0
 17 16  1  0
 18 17  1  0
 19 20  1  1
 19 18  1  0
 19 15  1  0
 20 21  2  0
 23 22  1  1
 23 25  1  0
 24 23  1  0
 25 26  1  1
 25 27  1  0
 26 20  1  0
 27 28  2  0
 27 29  1  0
M  END
$$$$
