WPT.pdb
     RDKit          3D

 29 31  0  0  1  0  0  0  0  0999 V2000
   27.7040  -19.5396  -16.1965 N   0  0  0  0  0  0  0  0  0  0  0  0
   26.9655  -20.0685  -15.1258 C   0  0  1  0  0  0  0  0  0  0  0  0
   27.0745  -19.1627  -13.9333 C   0  0  0  0  0  0  0  0  0  0  0  0
   27.3717  -19.8524  -12.6657 C   0  0  0  0  0  0  0  0  0  0  0  0
   28.5725  -20.2965  -12.1635 C   0  0  0  0  0  0  0  0  0  0  0  0
   28.3749  -20.8672  -10.9744 N   0  0  0  0  0  0  0  0  0  0  0  0
   27.0710  -20.8136  -10.6727 C   0  0  0  0  0  0  0  0  0  0  0  0
   26.3564  -21.2652   -9.5571 C   0  0  0  0  0  0  0  0  0  0  0  0
   24.9973  -21.0753   -9.5071 C   0  0  0  0  0  0  0  0  0  0  0  0
   24.3263  -20.4496  -10.5332 C   0  0  0  0  0  0  0  0  0  0  0  0
   25.0672  -20.0156  -11.6224 C   0  0  0  0  0  0  0  0  0  0  0  0
   26.4324  -20.1842  -11.7165 C   0  0  0  0  0  0  0  0  0  0  0  0
   25.5846  -20.5110  -15.4177 C   0  0  0  0  0  0  0  0  0  0  0  0
   24.9910  -19.8389  -16.3026 O   0  0  0  0  0  0  0  0  0  0  0  0
   24.8987  -21.5757  -14.8177 N   0  0  0  0  0  0  0  0  0  0  0  0
   25.2737  -22.4433  -13.7189 C   0  0  0  0  0  0  0  0  0  0  0  0
   24.4558  -23.7215  -13.8728 C   0  0  0  0  0  0  0  0  0  0  0  0
   23.8239  -23.5342  -15.2529 C   0  0  0  0  0  0  0  0  0  0  0  0
   23.5859  -22.0399  -15.2166 C   0  0  1  0  0  0  0  0  0  0  0  0
   22.5624  -21.7636  -14.1734 C   0  0  0  0  0  0  0  0  0  0  0  0
   22.8249  -21.3196  -13.0267 O   0  0  0  0  0  0  0  0  0  0  0  0
   21.7134  -19.1406  -14.2031 C   0  0  0  0  0  0  0  0  0  0  0  0
   20.3964  -19.6864  -14.6069 C   0  0  1  0  0  0  0  0  0  0  0  0
   20.3059  -19.5927  -15.9959 O   0  0  0  0  0  0  0  0  0  0  0  0
   20.1201  -21.0845  -14.1483 C   0  0  2  0  0  0  0  0  0  0  0  0
   21.1911  -22.0065  -14.4605 N   0  0  0  0  0  0  0  0  0  0  0  0
   18.8262  -21.6227  -14.5420 C   0  0  0  0  0  0  0  0  0  0  0  0
   18.7913  -22.5193  -15.4458 O   0  0  0  0  0  0  0  0  0  0  0  0
   17.5993  -21.2552  -14.0260 O   0  0  0  0  0  0  0  0  0  0  0  0
  2  1  1  6
  2 13  1  0
  3  2  1  0
  4  3  1  0
  4 12  1  0
  5  6  1  0
  5  4  2  0
  6  7  1  0
  7  8  2  0
  7 12  1  0
  8  9  1  0
  9 10  2  0
 11 10  1  0
 12 11  2  0
 13 15  1  0
 13 14  2  0
 15 16  1  0
 17 16  1  0
 18 17  1  0
 19 20  1  1
 19 18  1  0
 19 15  1  0
 20 21  2  0
 23 22  1  6
 23 25  1  0
 24 23  1  0
 25 26  1  6
 25 27  1  0
 26 20  1  0
 27 28  2  0
 27 29  1  0
M  END
$$$$
