WPT.pdb
     RDKit          3D

 29 31  0  0  1  0  0  0  0  0999 V2000
   22.8567  -18.5391  -15.6835 N   0  0  0  0  0  0  0  0  0  0  0  0
   23.9953  -19.2320  -15.2416 C   0  0  1  0  0  0  0  0  0  0  0  0
   25.2330  -18.4604  -15.5980 C   0  0  0  0  0  0  0  0  0  0  0  0
   25.4098  -18.2190  -17.0407 C   0  0  0  0  0  0  0  0  0  0  0  0
   25.1863  -17.0802  -17.7785 C   0  0  0  0  0  0  0  0  0  0  0  0
   25.4821  -17.3124  -19.0580 N   0  0  0  0  0  0  0  0  0  0  0  0
   25.8975  -18.5789  -19.1898 C   0  0  0  0  0  0  0  0  0  0  0  0
   26.3188  -19.3066  -20.3089 C   0  0  0  0  0  0  0  0  0  0  0  0
   26.6981  -20.6174  -20.1549 C   0  0  0  0  0  0  0  0  0  0  0  0
   26.6713  -21.2275  -18.9213 C   0  0  0  0  0  0  0  0  0  0  0  0
   26.2482  -20.4754  -17.8354 C   0  0  0  0  0  0  0  0  0  0  0  0
   25.8582  -19.1572  -17.9419 C   0  0  0  0  0  0  0  0  0  0  0  0
   23.9792  -19.7283  -13.8484 C   0  0  0  0  0  0  0  0  0  0  0  0
   23.1974  -19.1110  -13.0772 O   0  0  0  0  0  0  0  0  0  0  0  0
   24.7315  -20.7888  -13.3253 N   0  0  0  0  0  0  0  0  0  0  0  0
   25.7637  -21.6058  -13.9315 C   0  0  0  0  0  0  0  0  0  0  0  0
   25.8081  -22.9102  -13.1423 C   0  0  0  0  0  0  0  0  0  0  0  0
   24.5697  -22.7900  -12.2530 C   0  0  0  0  0  0  0  0  0  0  0  0
   24.6057  -21.3022  -11.9767 C   0  0  1  0  0  0  0  0  0  0  0  0
   25.8169  -21.0162  -11.1622 C   0  0  0  0  0  0  0  0  0  0  0  0
   26.9928  -21.0625  -11.6050 O   0  0  0  0  0  0  0  0  0  0  0  0
   26.1135  -17.8819   -8.7233 C   0  0  0  0  0  0  0  0  0  0  0  0
   27.1707  -18.8652   -9.0562 C   0  0  1  0  0  0  0  0  0  0  0  0
   28.2785  -18.5848   -8.2561 O   0  0  0  0  0  0  0  0  0  0  0  0
   26.7677  -20.3010   -8.9236 C   0  0  2  0  0  0  0  0  0  0  0  0
   25.6687  -20.6648   -9.7924 N   0  0  0  0  0  0  0  0  0  0  0  0
   26.5393  -20.7584   -7.5608 C   0  0  0  0  0  0  0  0  0  0  0  0
   25.4243  -21.3077   -7.2836 O   0  0  0  0  0  0  0  0  0  0  0  0
   27.4267  -20.6579   -6.5077 O   0  0  0  0  0  0  0  0  0  0  0  0
  2  1  1  1
  2 13  1  0
  3  2  1  0
  4  3  1  0
  4 12  1  0
  5  6  1  0
  5  4  2  0
  6  7  1  0
  7  8  2  0
  7 12  1  0
  8  9  1  0
  9 10  2  0
 11 10  1  0
 12 11  2  0
 13 15  1  0
 13 14  2  0
 15 16  1  0
 17 16  1  0
 18 17  1  0
 19 20  1  1
 19 18  1  0
 19 15  1  0
 20 21  2  0
 23 22  1  1
 23 25  1  0
 24 23  1  0
 25 26  1  6
 25 27  1  0
 26 20  1  0
 27 28  2  0
 27 29  1  0
M  END
$$$$
