LAT.pdb
     RDKit          3D

 21 20  0  0  1  0  0  0  0  0999 V2000
    9.0135  -13.5659   18.1068 C   0  0  0  0  0  0  0  0  0  0  0  0
    7.8552  -13.4468   19.0679 C   0  0  2  0  0  0  0  0  0  0  0  0
    6.9411  -12.3416   18.5823 C   0  0  0  0  0  0  0  0  0  0  0  0
    8.3496  -13.1780   20.4894 C   0  0  0  0  0  0  0  0  0  0  0  0
    8.5295  -14.5209   21.1473 C   0  0  2  0  0  0  0  0  0  0  0  0
    7.4709  -15.3973   20.7589 N   0  0  0  0  0  0  0  0  0  0  0  0
    8.6941  -14.4572   22.6025 C   0  0  0  0  0  0  0  0  0  0  0  0
    9.7473  -13.9314   23.0550 O   0  0  0  0  0  0  0  0  0  0  0  0
    6.6926  -14.6088   25.7150 C   0  0  0  0  0  0  0  0  0  0  0  0
    7.9647  -14.8556   24.9727 C   0  0  2  0  0  0  0  0  0  0  0  0
    7.7577  -14.9423   23.5416 N   0  0  0  0  0  0  0  0  0  0  0  0
    8.7360  -16.0123   25.4885 C   0  0  0  0  0  0  0  0  0  0  0  0
    8.9252  -16.0797   26.7304 O   0  0  0  0  0  0  0  0  0  0  0  0
    8.8039  -19.7986   23.7282 C   0  0  0  0  0  0  0  0  0  0  0  0
   10.1570  -19.2098   24.0317 C   0  0  1  0  0  0  0  0  0  0  0  0
   10.7257  -18.6124   22.8967 O   0  0  0  0  0  0  0  0  0  0  0  0
   10.0473  -18.1435   25.1301 C   0  0  2  0  0  0  0  0  0  0  0  0
    9.2620  -17.0275   24.6721 N   0  0  0  0  0  0  0  0  0  0  0  0
   11.3932  -17.7448   25.5844 C   0  0  0  0  0  0  0  0  0  0  0  0
   12.1912  -18.6747   26.2551 O   0  0  0  0  0  0  0  0  0  0  0  0
   11.8017  -16.5842   25.3646 O   0  0  0  0  0  0  0  0  0  0  0  0
  2  1  1  6
  3  2  1  0
  4  2  1  0
  4  5  1  0
  5  6  1  1
  7 11  1  0
  7  5  1  0
  8  7  2  0
 10  9  1  1
 10 11  1  0
 10 12  1  0
 12 18  1  0
 13 12  2  0
 15 14  1  6
 15 16  1  0
 17 15  1  0
 17 19  1  0
 17 18  1  6
 19 20  1  0
 21 19  2  0
M  END
$$$$
