LAT.pdb
     RDKit          3D

 21 20  0  0  1  0  0  0  0  0999 V2000
    9.2124  -13.3581   19.2459 C   0  0  0  0  0  0  0  0  0  0  0  0
    7.7425  -13.4195   19.5851 C   0  0  2  0  0  0  0  0  0  0  0  0
    7.1639  -12.0255   19.4641 C   0  0  0  0  0  0  0  0  0  0  0  0
    7.5281  -13.9931   20.9860 C   0  0  0  0  0  0  0  0  0  0  0  0
    8.1774  -15.3520   21.0023 C   0  0  2  0  0  0  0  0  0  0  0  0
    7.4233  -16.2599   20.1981 N   0  0  0  0  0  0  0  0  0  0  0  0
    8.4311  -15.8779   22.3469 C   0  0  0  0  0  0  0  0  0  0  0  0
    7.4474  -16.0085   23.1251 O   0  0  0  0  0  0  0  0  0  0  0  0
   10.9171  -17.8572   24.2225 C   0  0  0  0  0  0  0  0  0  0  0  0
    9.9024  -16.7622   24.1804 C   0  0  2  0  0  0  0  0  0  0  0  0
    9.7005  -16.2517   22.8399 N   0  0  0  0  0  0  0  0  0  0  0  0
   10.1672  -15.6725   25.1506 C   0  0  0  0  0  0  0  0  0  0  0  0
   10.9818  -14.7757   24.8120 O   0  0  0  0  0  0  0  0  0  0  0  0
    8.4582  -12.7643   26.3327 C   0  0  0  0  0  0  0  0  0  0  0  0
    8.6049  -13.6448   27.5463 C   0  0  1  0  0  0  0  0  0  0  0  0
    7.4688  -14.4442   27.7436 O   0  0  0  0  0  0  0  0  0  0  0  0
    9.8211  -14.5691   27.3985 C   0  0  2  0  0  0  0  0  0  0  0  0
    9.5625  -15.5888   26.4160 N   0  0  0  0  0  0  0  0  0  0  0  0
   10.1961  -15.1259   28.7123 C   0  0  0  0  0  0  0  0  0  0  0  0
   10.7207  -14.2768   29.6896 O   0  0  0  0  0  0  0  0  0  0  0  0
   10.0405  -16.3460   28.9343 O   0  0  0  0  0  0  0  0  0  0  0  0
  2  1  1  1
  3  2  1  0
  4  2  1  0
  4  5  1  0
  5  6  1  1
  7 11  1  0
  7  5  1  0
  8  7  2  0
 10  9  1  6
 10 11  1  0
 10 12  1  0
 12 18  1  0
 13 12  2  0
 15 14  1  6
 15 16  1  0
 17 15  1  0
 17 19  1  0
 17 18  1  6
 19 20  1  0
 21 19  2  0
M  END
$$$$
