LAT.pdb
     RDKit          3D

 21 20  0  0  1  0  0  0  0  0999 V2000
    9.3443  -13.4011   19.0779 C   0  0  0  0  0  0  0  0  0  0  0  0
    7.8665  -13.4814   19.3766 C   0  0  2  0  0  0  0  0  0  0  0  0
    7.2547  -12.1168   19.1395 C   0  0  0  0  0  0  0  0  0  0  0  0
    7.6232  -13.9611   20.8077 C   0  0  0  0  0  0  0  0  0  0  0  0
    8.1938  -15.3518   20.9019 C   0  0  2  0  0  0  0  0  0  0  0  0
    7.4338  -16.2444   20.0863 N   0  0  0  0  0  0  0  0  0  0  0  0
    8.3462  -15.8444   22.2741 C   0  0  0  0  0  0  0  0  0  0  0  0
    7.3135  -15.9143   22.9944 O   0  0  0  0  0  0  0  0  0  0  0  0
   10.7650  -17.6518   24.4572 C   0  0  0  0  0  0  0  0  0  0  0  0
    9.6857  -16.6421   24.2434 C   0  0  2  0  0  0  0  0  0  0  0  0
    9.5685  -16.2491   22.8541 N   0  0  0  0  0  0  0  0  0  0  0  0
    9.7887  -15.4666   25.1414 C   0  0  0  0  0  0  0  0  0  0  0  0
   10.7335  -14.6606   24.9405 O   0  0  0  0  0  0  0  0  0  0  0  0
    7.5648  -12.4654   25.9250 C   0  0  0  0  0  0  0  0  0  0  0  0
    7.6983  -13.3104   27.1651 C   0  0  1  0  0  0  0  0  0  0  0  0
    6.6294  -14.2102   27.2934 O   0  0  0  0  0  0  0  0  0  0  0  0
    9.0028  -14.1181   27.1299 C   0  0  2  0  0  0  0  0  0  0  0  0
    8.8959  -15.2071   26.1946 N   0  0  0  0  0  0  0  0  0  0  0  0
    9.3564  -14.5677   28.4899 C   0  0  0  0  0  0  0  0  0  0  0  0
    9.6691  -13.6167   29.4641 O   0  0  0  0  0  0  0  0  0  0  0  0
    9.3719  -15.7895   28.7530 O   0  0  0  0  0  0  0  0  0  0  0  0
  2  1  1  1
  3  2  1  0
  4  2  1  0
  4  5  1  0
  5  6  1  6
  7 11  1  0
  7  5  1  0
  8  7  2  0
 10  9  1  6
 10 11  1  0
 10 12  1  0
 12 18  1  0
 13 12  2  0
 15 14  1  6
 15 16  1  0
 17 15  1  0
 17 19  1  0
 17 18  1  6
 19 20  1  0
 21 19  2  0
M  END
$$$$
