LAT.pdb
     RDKit          3D

 21 20  0  0  1  0  0  0  0  0999 V2000
    9.0068  -13.6373   18.9999 C   0  0  0  0  0  0  0  0  0  0  0  0
    7.6891  -13.4332   19.7080 C   0  0  2  0  0  0  0  0  0  0  0  0
    7.3227  -11.9664   19.6253 C   0  0  0  0  0  0  0  0  0  0  0  0
    7.7690  -13.9075   21.1592 C   0  0  0  0  0  0  0  0  0  0  0  0
    7.9964  -15.3959   21.1172 C   0  0  2  0  0  0  0  0  0  0  0  0
    6.8604  -16.0444   20.5441 N   0  0  0  0  0  0  0  0  0  0  0  0
    8.3792  -15.9794   22.4063 C   0  0  0  0  0  0  0  0  0  0  0  0
    7.4920  -16.0763   23.2972 O   0  0  0  0  0  0  0  0  0  0  0  0
   11.1089  -17.9756   23.9783 C   0  0  0  0  0  0  0  0  0  0  0  0
   10.0200  -16.9553   24.0384 C   0  0  2  0  0  0  0  0  0  0  0  0
    9.6733  -16.4441   22.7282 N   0  0  0  0  0  0  0  0  0  0  0  0
   10.2867  -15.8614   25.0034 C   0  0  0  0  0  0  0  0  0  0  0  0
   11.0967  -14.9633   24.6573 O   0  0  0  0  0  0  0  0  0  0  0  0
    8.6015  -12.9401   26.2512 C   0  0  0  0  0  0  0  0  0  0  0  0
    8.7653  -13.8414   27.4472 C   0  0  1  0  0  0  0  0  0  0  0  0
    7.6284  -14.6378   27.6521 O   0  0  0  0  0  0  0  0  0  0  0  0
    9.9733  -14.7697   27.2618 C   0  0  2  0  0  0  0  0  0  0  0  0
    9.6887  -15.7752   26.2718 N   0  0  0  0  0  0  0  0  0  0  0  0
   10.3729  -15.3456   28.5601 C   0  0  0  0  0  0  0  0  0  0  0  0
   10.9078  -14.5092   29.5427 O   0  0  0  0  0  0  0  0  0  0  0  0
   10.2285  -16.5702   28.7644 O   0  0  0  0  0  0  0  0  0  0  0  0
  2  1  1  1
  3  2  1  0
  4  2  1  0
  4  5  1  0
  5  6  1  1
  7 11  1  0
  7  5  1  0
  8  7  2  0
 10  9  1  6
 10 11  1  0
 10 12  1  0
 12 18  1  0
 13 12  2  0
 15 14  1  6
 15 16  1  0
 17 15  1  0
 17 19  1  0
 17 18  1  6
 19 20  1  0
 21 19  2  0
M  END
$$$$
