LAT.pdb
     RDKit          3D

 21 20  0  0  1  0  0  0  0  0999 V2000
    8.9393  -14.0838   18.9785 C   0  0  0  0  0  0  0  0  0  0  0  0
    7.6751  -13.6264   19.6657 C   0  0  2  0  0  0  0  0  0  0  0  0
    7.4984  -12.1449   19.4078 C   0  0  0  0  0  0  0  0  0  0  0  0
    7.7262  -13.9301   21.1632 C   0  0  0  0  0  0  0  0  0  0  0  0
    7.8397  -15.4259   21.2988 C   0  0  2  0  0  0  0  0  0  0  0  0
    6.6425  -16.0479   20.8304 N   0  0  0  0  0  0  0  0  0  0  0  0
    8.2136  -15.8784   22.6420 C   0  0  0  0  0  0  0  0  0  0  0  0
    7.3841  -15.7042   23.5758 O   0  0  0  0  0  0  0  0  0  0  0  0
   10.6753  -18.1536   24.2756 C   0  0  0  0  0  0  0  0  0  0  0  0
    9.7349  -16.9937   24.3004 C   0  0  2  0  0  0  0  0  0  0  0  0
    9.4389  -16.4981   22.9718 N   0  0  0  0  0  0  0  0  0  0  0  0
   10.1622  -15.9049   25.2118 C   0  0  0  0  0  0  0  0  0  0  0  0
   11.0198  -15.0897   24.7843 O   0  0  0  0  0  0  0  0  0  0  0  0
    8.5687  -12.9357   26.5362 C   0  0  0  0  0  0  0  0  0  0  0  0
    8.9104  -13.7649   27.7467 C   0  0  1  0  0  0  0  0  0  0  0  0
    7.8176  -14.5378   28.1675 O   0  0  0  0  0  0  0  0  0  0  0  0
   10.0775  -14.7129   27.4394 C   0  0  2  0  0  0  0  0  0  0  0  0
    9.6652  -15.7364   26.5150 N   0  0  0  0  0  0  0  0  0  0  0  0
   10.6248  -15.2649   28.6935 C   0  0  0  0  0  0  0  0  0  0  0  0
   10.5060  -16.6334   28.9467 O   0  0  0  0  0  0  0  0  0  0  0  0
   11.1860  -14.5041   29.5112 O   0  0  0  0  0  0  0  0  0  0  0  0
  2  1  1  6
  3  2  1  0
  4  2  1  0
  4  5  1  0
  5  6  1  1
  7 11  1  0
  7  5  1  0
  8  7  2  0
 10  9  1  6
 10 11  1  0
 10 12  1  0
 12 18  1  0
 13 12  2  0
 15 14  1  6
 15 16  1  0
 17 15  1  0
 17 19  1  0
 17 18  1  6
 19 20  1  0
 21 19  2  0
M  END
$$$$
