LAT.pdb
     RDKit          3D

 21 20  0  0  1  0  0  0  0  0999 V2000
    9.4854  -13.6263   19.4159 C   0  0  0  0  0  0  0  0  0  0  0  0
    8.0012  -13.6329   19.1393 C   0  0  2  0  0  0  0  0  0  0  0  0
    7.5786  -12.2301   18.7568 C   0  0  0  0  0  0  0  0  0  0  0  0
    7.2211  -14.1394   20.3527 C   0  0  0  0  0  0  0  0  0  0  0  0
    7.8112  -15.4754   20.7209 C   0  0  2  0  0  0  0  0  0  0  0  0
    7.1497  -16.5141   19.9977 N   0  0  0  0  0  0  0  0  0  0  0  0
    7.8474  -15.7367   22.1628 C   0  0  0  0  0  0  0  0  0  0  0  0
    6.7968  -15.5253   22.8276 O   0  0  0  0  0  0  0  0  0  0  0  0
    9.8534  -17.6761   24.6142 C   0  0  0  0  0  0  0  0  0  0  0  0
    8.9356  -16.5476   24.2763 C   0  0  2  0  0  0  0  0  0  0  0  0
    8.9755  -16.2099   22.8682 N   0  0  0  0  0  0  0  0  0  0  0  0
    9.1251  -15.3534   25.1346 C   0  0  0  0  0  0  0  0  0  0  0  0
   10.1579  -14.6596   24.9484 O   0  0  0  0  0  0  0  0  0  0  0  0
    6.8079  -12.2847   25.9096 C   0  0  0  0  0  0  0  0  0  0  0  0
    7.0985  -13.0520   27.1731 C   0  0  1  0  0  0  0  0  0  0  0  0
    6.0667  -13.9524   27.4785 O   0  0  0  0  0  0  0  0  0  0  0  0
    8.4031  -13.8482   27.0329 C   0  0  2  0  0  0  0  0  0  0  0  0
    8.2214  -14.9588   26.1354 N   0  0  0  0  0  0  0  0  0  0  0  0
    8.8876  -14.2639   28.3630 C   0  0  0  0  0  0  0  0  0  0  0  0
    9.3084  -13.2901   29.2718 O   0  0  0  0  0  0  0  0  0  0  0  0
    8.9157  -15.4778   28.6595 O   0  0  0  0  0  0  0  0  0  0  0  0
  2  1  1  1
  3  2  1  0
  4  2  1  0
  4  5  1  0
  5  6  1  6
  7 11  1  0
  7  5  1  0
  8  7  2  0
 10  9  1  6
 10 11  1  0
 10 12  1  0
 12 18  1  0
 13 12  2  0
 15 14  1  6
 15 16  1  0
 17 15  1  0
 17 19  1  0
 17 18  1  6
 19 20  1  0
 21 19  2  0
M  END
$$$$
