LAT.pdb
     RDKit          3D

 21 20  0  0  1  0  0  0  0  0999 V2000
    9.8354  -13.5616   18.9418 C   0  0  0  0  0  0  0  0  0  0  0  0
    8.3304  -13.5019   18.8376 C   0  0  2  0  0  0  0  0  0  0  0  0
    7.9333  -12.0983   18.4317 C   0  0  0  0  0  0  0  0  0  0  0  0
    7.6743  -13.9080   20.1575 C   0  0  0  0  0  0  0  0  0  0  0  0
    8.0766  -15.3354   20.4207 C   0  0  2  0  0  0  0  0  0  0  0  0
    7.4048  -16.2051   19.5086 N   0  0  0  0  0  0  0  0  0  0  0  0
    7.9119  -15.7561   21.8152 C   0  0  0  0  0  0  0  0  0  0  0  0
    6.7384  -15.8698   22.2628 O   0  0  0  0  0  0  0  0  0  0  0  0
    9.5979  -17.5434   24.5269 C   0  0  0  0  0  0  0  0  0  0  0  0
    8.7632  -16.3835   24.0934 C   0  0  2  0  0  0  0  0  0  0  0  0
    8.9732  -16.0457   22.7005 N   0  0  0  0  0  0  0  0  0  0  0  0
    8.8954  -15.1975   24.9736 C   0  0  0  0  0  0  0  0  0  0  0  0
    9.9264  -14.4882   24.8452 O   0  0  0  0  0  0  0  0  0  0  0  0
    6.3348  -12.2420   25.7174 C   0  0  0  0  0  0  0  0  0  0  0  0
    6.6801  -13.0058   26.9691 C   0  0  1  0  0  0  0  0  0  0  0  0
    5.7195  -13.9875   27.2557 O   0  0  0  0  0  0  0  0  0  0  0  0
    8.0421  -13.6974   26.8208 C   0  0  2  0  0  0  0  0  0  0  0  0
    7.9396  -14.8270   25.9344 N   0  0  0  0  0  0  0  0  0  0  0  0
    8.5720  -14.0616   28.1488 C   0  0  0  0  0  0  0  0  0  0  0  0
    8.9168  -13.0496   29.0477 O   0  0  0  0  0  0  0  0  0  0  0  0
    8.7055  -15.2667   28.4523 O   0  0  0  0  0  0  0  0  0  0  0  0
  2  1  1  1
  3  2  1  0
  4  2  1  0
  4  5  1  0
  5  6  1  6
  7 11  1  0
  7  5  1  0
  8  7  2  0
 10  9  1  1
 10 11  1  0
 10 12  1  0
 12 18  1  0
 13 12  2  0
 15 14  1  6
 15 16  1  0
 17 15  1  0
 17 19  1  0
 17 18  1  6
 19 20  1  0
 21 19  2  0
M  END
$$$$
