LAT.pdb
     RDKit          3D

 21 20  0  0  1  0  0  0  0  0999 V2000
    7.7045  -12.8161   20.0303 C   0  0  0  0  0  0  0  0  0  0  0  0
    7.4459  -14.2989   19.9122 C   0  0  2  0  0  0  0  0  0  0  0  0
    5.9974  -14.5033   19.5216 C   0  0  0  0  0  0  0  0  0  0  0  0
    7.7781  -15.0178   21.2200 C   0  0  0  0  0  0  0  0  0  0  0  0
    9.1953  -14.6474   21.5706 C   0  0  2  0  0  0  0  0  0  0  0  0
   10.0835  -15.1067   20.5509 N   0  0  0  0  0  0  0  0  0  0  0  0
    9.6129  -15.0779   22.9082 C   0  0  0  0  0  0  0  0  0  0  0  0
   10.3738  -16.0798   22.9951 O   0  0  0  0  0  0  0  0  0  0  0  0
    9.0301  -14.1446   26.5294 C   0  0  0  0  0  0  0  0  0  0  0  0
    9.6031  -14.9597   25.4170 C   0  0  2  0  0  0  0  0  0  0  0  0
    9.2259  -14.4525   24.1137 N   0  0  0  0  0  0  0  0  0  0  0  0
    9.3273  -16.4111   25.5441 C   0  0  0  0  0  0  0  0  0  0  0  0
    8.1545  -16.8039   25.3142 O   0  0  0  0  0  0  0  0  0  0  0  0
   10.8228  -21.0753   25.5331 C   0  0  0  0  0  0  0  0  0  0  0  0
   11.0310  -19.6062   25.2725 C   0  0  1  0  0  0  0  0  0  0  0  0
   10.8371  -19.2899   23.9194 O   0  0  0  0  0  0  0  0  0  0  0  0
   10.0531  -18.7666   26.1056 C   0  0  2  0  0  0  0  0  0  0  0  0
   10.2966  -17.3622   25.9040 N   0  0  0  0  0  0  0  0  0  0  0  0
   10.1305  -19.1602   27.5254 C   0  0  0  0  0  0  0  0  0  0  0  0
   10.9755  -18.4542   28.3849 O   0  0  0  0  0  0  0  0  0  0  0  0
    9.4417  -20.1169   27.9405 O   0  0  0  0  0  0  0  0  0  0  0  0
  2  1  1  1
  3  2  1  0
  4  2  1  0
  4  5  1  0
  5  6  1  6
  7 11  1  0
  7  5  1  0
  8  7  2  0
 10  9  1  1
 10 11  1  0
 10 12  1  0
 12 18  1  0
 13 12  2  0
 15 14  1  6
 15 16  1  0
 17 15  1  0
 17 19  1  0
 17 18  1  1
 19 20  1  0
 21 19  2  0
M  END
$$$$
