LAT.pdb
     RDKit          3D

 21 20  0  0  1  0  0  0  0  0999 V2000
    8.7577  -12.1286   19.2235 C   0  0  0  0  0  0  0  0  0  0  0  0
    8.1079  -13.4334   19.6169 C   0  0  2  0  0  0  0  0  0  0  0  0
    6.8376  -13.1251   20.3810 C   0  0  0  0  0  0  0  0  0  0  0  0
    9.0634  -14.2920   20.4460 C   0  0  0  0  0  0  0  0  0  0  0  0
    8.4139  -15.6427   20.5957 C   0  0  2  0  0  0  0  0  0  0  0  0
    7.5464  -15.6410   21.7301 N   0  0  0  0  0  0  0  0  0  0  0  0
    9.3598  -16.7622   20.6196 C   0  0  0  0  0  0  0  0  0  0  0  0
    9.8283  -17.1155   21.7359 O   0  0  0  0  0  0  0  0  0  0  0  0
   10.5365  -19.5494   18.4203 C   0  0  0  0  0  0  0  0  0  0  0  0
   10.7068  -18.5974   19.5582 C   0  0  2  0  0  0  0  0  0  0  0  0
    9.7888  -17.4795   19.4813 N   0  0  0  0  0  0  0  0  0  0  0  0
   12.1070  -18.1480   19.7492 C   0  0  0  0  0  0  0  0  0  0  0  0
   12.9869  -19.0330   19.9073 O   0  0  0  0  0  0  0  0  0  0  0  0
   13.4606  -15.2856   17.5189 C   0  0  0  0  0  0  0  0  0  0  0  0
   13.9800  -15.0498   18.9132 C   0  0  1  0  0  0  0  0  0  0  0  0
   13.2709  -14.0273   19.5616 O   0  0  0  0  0  0  0  0  0  0  0  0
   13.8593  -16.3259   19.7571 C   0  0  2  0  0  0  0  0  0  0  0  0
   12.4998  -16.7991   19.7631 N   0  0  0  0  0  0  0  0  0  0  0  0
   14.3851  -16.0866   21.1147 C   0  0  0  0  0  0  0  0  0  0  0  0
   13.5067  -16.1049   22.2006 O   0  0  0  0  0  0  0  0  0  0  0  0
   15.6056  -15.8710   21.2762 O   0  0  0  0  0  0  0  0  0  0  0  0
  2  1  1  1
  3  2  1  0
  4  2  1  0
  4  5  1  0
  5  6  1  1
  7 11  1  0
  7  5  1  0
  8  7  2  0
 10  9  1  6
 10 11  1  0
 10 12  1  0
 12 18  1  0
 13 12  2  0
 15 14  1  6
 15 16  1  0
 17 15  1  0
 17 19  1  0
 17 18  1  1
 19 20  1  0
 21 19  2  0
M  END
$$$$
