GSY.pdb
     RDKit          3D

 23 23  0  0  1  0  0  0  0  0999 V2000
    7.3850  -12.3870   18.8041 N   0  0  0  0  0  0  0  0  0  0  0  0
    8.5564  -12.8899   19.4537 C   0  0  0  0  0  0  0  0  0  0  0  0
    8.2073  -14.0099   20.3543 C   0  0  0  0  0  0  0  0  0  0  0  0
    6.9668  -14.2597   20.5217 O   0  0  0  0  0  0  0  0  0  0  0  0
   10.5452  -17.2204   20.9800 O   0  0  0  0  0  0  0  0  0  0  0  0
    9.2176  -17.2264   21.3349 C   0  0  0  0  0  0  0  0  0  0  0  0
    8.7421  -15.8854   21.8499 C   0  0  2  0  0  0  0  0  0  0  0  0
    9.1845  -14.7954   21.0210 N   0  0  0  0  0  0  0  0  0  0  0  0
    9.3580  -15.7252   23.2158 C   0  0  0  0  0  0  0  0  0  0  0  0
   10.5120  -15.2226   23.3213 O   0  0  0  0  0  0  0  0  0  0  0  0
    5.8842  -10.5264   26.0902 O   0  0  0  0  0  0  0  0  0  0  0  0
    6.4369  -11.8032   26.2311 C   0  0  0  0  0  0  0  0  0  0  0  0
    7.6839  -11.9413   26.7892 C   0  0  0  0  0  0  0  0  0  0  0  0
    8.2469  -13.1850   26.9377 C   0  0  0  0  0  0  0  0  0  0  0  0
    7.6073  -14.3482   26.5434 C   0  0  0  0  0  0  0  0  0  0  0  0
    8.2163  -15.6684   26.6994 C   0  0  0  0  0  0  0  0  0  0  0  0
    9.3008  -15.9340   25.6722 C   0  0  2  0  0  0  0  0  0  0  0  0
    8.6696  -16.1268   24.3883 N   0  0  0  0  0  0  0  0  0  0  0  0
   10.1102  -17.1283   25.9727 C   0  0  0  0  0  0  0  0  0  0  0  0
   10.8525  -17.1907   26.9681 O   0  0  0  0  0  0  0  0  0  0  0  0
    6.3510  -14.1910   25.9825 C   0  0  0  0  0  0  0  0  0  0  0  0
    5.7739  -12.9348   25.8287 C   0  0  0  0  0  0  0  0  0  0  0  0
   10.0693  -18.2378   25.1422 O   0  0  0  0  0  0  0  0  0  0  0  0
  2  1  1  0
  3  2  1  0
  3  4  2  0
  5  6  1  0
  7  6  1  6
  7  9  1  0
  8  7  1  0
  8  3  1  0
  9 18  1  0
  9 10  2  0
 12 11  1  0
 12 22  2  0
 13 12  1  0
 14 13  2  0
 14 15  1  0
 15 21  2  0
 16 15  1  0
 17 16  1  1
 18 17  1  0
 19 17  1  0
 20 19  2  0
 21 22  1  0
 23 19  1  0
M  END
$$$$
