GSY.pdb
     RDKit          3D

 23 23  0  0  1  0  0  0  0  0999 V2000
    6.1448  -20.1305   23.3108 N   0  0  0  0  0  0  0  0  0  0  0  0
    6.4999  -18.8479   22.7855 C   0  0  0  0  0  0  0  0  0  0  0  0
    7.9060  -18.8487   22.3267 C   0  0  0  0  0  0  0  0  0  0  0  0
    8.7279  -19.5881   22.9646 O   0  0  0  0  0  0  0  0  0  0  0  0
    9.2443  -16.8042   18.9278 O   0  0  0  0  0  0  0  0  0  0  0  0
    9.9784  -17.8660   19.3993 C   0  0  0  0  0  0  0  0  0  0  0  0
    9.7513  -18.1280   20.8721 C   0  0  2  0  0  0  0  0  0  0  0  0
    8.3578  -18.0723   21.2270 N   0  0  0  0  0  0  0  0  0  0  0  0
   10.4733  -17.0264   21.6041 C   0  0  0  0  0  0  0  0  0  0  0  0
    9.9076  -15.9072   21.7558 O   0  0  0  0  0  0  0  0  0  0  0  0
   11.3423  -20.1555   27.6721 O   0  0  0  0  0  0  0  0  0  0  0  0
   11.4367  -19.0761   26.7880 C   0  0  0  0  0  0  0  0  0  0  0  0
   10.3412  -18.7158   26.0428 C   0  0  0  0  0  0  0  0  0  0  0  0
   10.4102  -17.6593   25.1683 C   0  0  0  0  0  0  0  0  0  0  0  0
   11.5611  -16.9103   24.9885 C   0  0  0  0  0  0  0  0  0  0  0  0
   11.6282  -15.7905   24.0506 C   0  0  0  0  0  0  0  0  0  0  0  0
   12.4282  -16.1221   22.8047 C   0  0  2  0  0  0  0  0  0  0  0  0
   11.7767  -17.2181   22.1278 N   0  0  0  0  0  0  0  0  0  0  0  0
   13.8186  -16.5175   23.0914 C   0  0  0  0  0  0  0  0  0  0  0  0
   14.2405  -17.6643   22.8623 O   0  0  0  0  0  0  0  0  0  0  0  0
   12.6564  -17.2871   25.7474 C   0  0  0  0  0  0  0  0  0  0  0  0
   12.5944  -18.3560   26.6354 C   0  0  0  0  0  0  0  0  0  0  0  0
   14.7147  -15.6092   23.6340 O   0  0  0  0  0  0  0  0  0  0  0  0
  2  1  1  0
  3  2  1  0
  3  4  2  0
  5  6  1  0
  7  6  1  6
  7  9  1  0
  8  7  1  0
  8  3  1  0
  9 18  1  0
  9 10  2  0
 12 11  1  0
 12 22  2  0
 13 12  1  0
 14 13  2  0
 14 15  1  0
 15 21  2  0
 16 15  1  0
 17 16  1  1
 18 17  1  0
 19 17  1  0
 20 19  2  0
 21 22  1  0
 23 19  1  0
M  END
$$$$
