GSY.pdb
     RDKit          3D

 23 23  0  0  1  0  0  0  0  0999 V2000
    9.0833  -16.7351   16.1155 N   0  0  0  0  0  0  0  0  0  0  0  0
   10.2742  -16.8112   16.9047 C   0  0  0  0  0  0  0  0  0  0  0  0
    9.9430  -17.1298   18.3105 C   0  0  0  0  0  0  0  0  0  0  0  0
    8.7292  -16.9753   18.6738 O   0  0  0  0  0  0  0  0  0  0  0  0
   12.7094  -18.7718   20.9264 O   0  0  0  0  0  0  0  0  0  0  0  0
   11.3814  -19.0188   21.1794 C   0  0  0  0  0  0  0  0  0  0  0  0
   10.4640  -17.9918   20.5523 C   0  0  2  0  0  0  0  0  0  0  0  0
   10.9089  -17.5903   19.2440 N   0  0  0  0  0  0  0  0  0  0  0  0
   10.5079  -16.7895   21.4598 C   0  0  0  0  0  0  0  0  0  0  0  0
   11.4753  -15.9818   21.3736 O   0  0  0  0  0  0  0  0  0  0  0  0
    7.4484  -12.6964   17.8101 O   0  0  0  0  0  0  0  0  0  0  0  0
    7.6306  -13.1800   19.1095 C   0  0  0  0  0  0  0  0  0  0  0  0
    8.5895  -12.6134   19.9126 C   0  0  0  0  0  0  0  0  0  0  0  0
    8.7864  -13.0715   21.1920 C   0  0  0  0  0  0  0  0  0  0  0  0
    8.0480  -14.1081   21.7379 C   0  0  0  0  0  0  0  0  0  0  0  0
    8.2681  -14.5943   23.0993 C   0  0  0  0  0  0  0  0  0  0  0  0
    9.5677  -15.3645   23.2391 C   0  0  2  0  0  0  0  0  0  0  0  0
    9.4855  -16.5438   22.4106 N   0  0  0  0  0  0  0  0  0  0  0  0
    9.8485  -15.7904   24.6217 C   0  0  0  0  0  0  0  0  0  0  0  0
   10.0067  -14.9740   25.5459 O   0  0  0  0  0  0  0  0  0  0  0  0
    7.0856  -14.6682   20.9147 C   0  0  0  0  0  0  0  0  0  0  0  0
    6.8800  -14.2097   19.6177 C   0  0  0  0  0  0  0  0  0  0  0  0
    9.9468  -17.1361   24.9412 O   0  0  0  0  0  0  0  0  0  0  0  0
  2  1  1  0
  3  2  1  0
  3  4  2  0
  5  6  1  0
  7  6  1  1
  7  9  1  0
  8  7  1  0
  8  3  1  0
  9 18  1  0
  9 10  2  0
 12 11  1  0
 12 22  2  0
 13 12  1  0
 14 13  2  0
 14 15  1  0
 15 21  2  0
 16 15  1  0
 17 16  1  1
 18 17  1  0
 19 17  1  0
 20 19  2  0
 21 22  1  0
 23 19  1  0
M  END
$$$$
