KPI.pdb
     RDKit          3D

 25 25  0  0  1  0  0  0  0  0999 V2000
   24.5585  -21.9990  -11.9822 N   0  0  0  0  0  0  0  0  0  0  0  0
   25.7858  -21.1974  -11.8829 C   0  0  1  0  0  0  0  0  0  0  0  0
   25.3970  -19.7124  -11.8308 C   0  0  0  0  0  0  0  0  0  0  0  0
   25.4672  -19.2436  -13.2770 C   0  0  0  0  0  0  0  0  0  0  0  0
   24.4203  -19.9232  -14.1326 C   0  0  0  0  0  0  0  0  0  0  0  0
   24.4700  -19.4305  -15.5618 C   0  0  0  0  0  0  0  0  0  0  0  0
   23.4955  -20.2335  -16.3084 N   0  0  0  0  0  0  0  0  0  0  0  0
   26.5115  -21.5110  -10.6454 C   0  0  0  0  0  0  0  0  0  0  0  0
   25.9072  -22.0667   -9.6810 O   0  0  0  0  0  0  0  0  0  0  0  0
   27.8671  -21.2144  -10.4965 N   0  0  0  0  0  0  0  0  0  0  0  0
   28.7137  -20.4751  -11.4113 C   0  0  0  0  0  0  0  0  0  0  0  0
   30.0648  -21.1737  -11.3103 C   0  0  0  0  0  0  0  0  0  0  0  0
   30.0658  -21.7872   -9.9656 C   0  0  0  0  0  0  0  0  0  0  0  0
   28.7130  -21.6097   -9.3825 C   0  0  1  0  0  0  0  0  0  0  0  0
   28.6512  -20.5785   -8.3263 C   0  0  0  0  0  0  0  0  0  0  0  0
   28.2963  -19.4055   -8.6789 O   0  0  0  0  0  0  0  0  0  0  0  0
   25.4950  -21.5332   -4.3803 C   0  0  0  0  0  0  0  0  0  0  0  0
   26.3750  -20.8488   -5.3825 C   0  0  0  0  0  0  0  0  0  0  0  0
   27.7349  -20.5006   -4.8976 C   0  0  2  0  0  0  0  0  0  0  0  0
   27.6270  -19.4696   -3.7928 C   0  0  0  0  0  0  0  0  0  0  0  0
   28.6715  -19.9518   -5.9403 C   0  0  2  0  0  0  0  0  0  0  0  0
   28.9729  -20.8811   -6.9787 N   0  0  0  0  0  0  0  0  0  0  0  0
   29.8912  -19.3236   -5.3731 C   0  0  0  0  0  0  0  0  0  0  0  0
   30.8896  -20.0423   -5.1191 O   0  0  0  0  0  0  0  0  0  0  0  0
   29.9971  -17.9674   -5.1016 O   0  0  0  0  0  0  0  0  0  0  0  0
  2  1  1  1
  2  3  1  0
  2  8  1  0
  4  3  1  0
  5  6  1  0
  5  4  1  0
  6  7  1  0
  8  9  2  0
  8 10  1  0
 10 11  1  0
 11 12  1  0
 13 12  1  0
 14 10  1  0
 14 13  1  0
 14 15  1  1
 16 15  2  0
 18 17  1  0
 19 18  1  0
 19 21  1  0
 19 20  1  1
 21 22  1  6
 22 15  1  0
 23 25  1  0
 23 21  1  0
 24 23  2  0
M  END
$$$$
