KPI.pdb
     RDKit          3D

 25 25  0  0  1  0  0  0  0  0999 V2000
   22.7637  -21.4053  -12.7895 N   0  0  0  0  0  0  0  0  0  0  0  0
   24.0835  -20.7683  -12.6840 C   0  0  1  0  0  0  0  0  0  0  0  0
   23.8915  -19.2444  -12.6748 C   0  0  0  0  0  0  0  0  0  0  0  0
   24.0260  -18.8292  -14.1329 C   0  0  0  0  0  0  0  0  0  0  0  0
   22.6802  -18.5074  -14.7452 C   0  0  0  0  0  0  0  0  0  0  0  0
   22.8188  -18.0749  -16.1879 C   0  0  0  0  0  0  0  0  0  0  0  0
   21.4670  -17.7412  -16.6496 N   0  0  0  0  0  0  0  0  0  0  0  0
   24.7405  -21.1416  -11.4250 C   0  0  0  0  0  0  0  0  0  0  0  0
   24.0448  -21.5124  -10.4338 O   0  0  0  0  0  0  0  0  0  0  0  0
   26.1285  -21.1030  -11.2842 N   0  0  0  0  0  0  0  0  0  0  0  0
   27.0937  -20.5451  -12.2100 C   0  0  0  0  0  0  0  0  0  0  0  0
   28.2903  -21.4837  -12.1059 C   0  0  0  0  0  0  0  0  0  0  0  0
   28.1836  -22.0725  -10.7545 C   0  0  0  0  0  0  0  0  0  0  0  0
   26.8913  -21.6384  -10.1686 C   0  0  1  0  0  0  0  0  0  0  0  0
   27.0298  -20.6031   -9.1239 C   0  0  0  0  0  0  0  0  0  0  0  0
   26.6628  -19.4197   -9.4257 O   0  0  0  0  0  0  0  0  0  0  0  0
   27.3912  -22.0053   -3.6050 C   0  0  0  0  0  0  0  0  0  0  0  0
   26.9730  -21.3199   -4.8709 C   0  0  0  0  0  0  0  0  0  0  0  0
   27.9979  -20.4338   -5.4795 C   0  0  2  0  0  0  0  0  0  0  0  0
   28.2402  -19.2460   -4.5707 C   0  0  0  0  0  0  0  0  0  0  0  0
   27.6603  -19.8987   -6.8452 C   0  0  2  0  0  0  0  0  0  0  0  0
   27.5488  -20.9129   -7.8410 N   0  0  0  0  0  0  0  0  0  0  0  0
   28.5315  -18.7768   -7.2768 C   0  0  0  0  0  0  0  0  0  0  0  0
   29.5597  -19.0246   -7.9546 O   0  0  0  0  0  0  0  0  0  0  0  0
   28.2748  -17.4482   -6.9717 O   0  0  0  0  0  0  0  0  0  0  0  0
  2  1  1  1
  2  3  1  0
  2  8  1  0
  4  3  1  0
  5  6  1  0
  5  4  1  0
  6  7  1  0
  8  9  2  0
  8 10  1  0
 10 11  1  0
 11 12  1  0
 13 12  1  0
 14 10  1  0
 14 13  1  0
 14 15  1  1
 16 15  2  0
 18 17  1  0
 19 18  1  0
 19 21  1  0
 19 20  1  1
 21 22  1  6
 22 15  1  0
 23 25  1  0
 23 21  1  0
 24 23  2  0
M  END
$$$$
