KPI.pdb
     RDKit          3D

 25 25  0  0  1  0  0  0  0  0999 V2000
   22.3136  -20.2937  -17.0331 N   0  0  0  0  0  0  0  0  0  0  0  0
   23.3966  -19.4126  -16.5752 C   0  0  1  0  0  0  0  0  0  0  0  0
   22.7760  -18.2234  -15.8270 C   0  0  0  0  0  0  0  0  0  0  0  0
   22.9274  -17.0460  -16.7796 C   0  0  0  0  0  0  0  0  0  0  0  0
   21.6141  -16.6985  -17.4461 C   0  0  0  0  0  0  0  0  0  0  0  0
   21.7820  -15.5760  -18.4459 C   0  0  0  0  0  0  0  0  0  0  0  0
   20.4675  -15.3765  -19.0658 N   0  0  0  0  0  0  0  0  0  0  0  0
   24.2775  -20.1185  -15.6360 C   0  0  0  0  0  0  0  0  0  0  0  0
   23.8224  -21.0701  -14.9350 O   0  0  0  0  0  0  0  0  0  0  0  0
   25.6213  -19.7709  -15.4908 N   0  0  0  0  0  0  0  0  0  0  0  0
   26.3351  -18.7069  -16.1677 C   0  0  0  0  0  0  0  0  0  0  0  0
   27.7284  -19.2826  -16.3938 C   0  0  0  0  0  0  0  0  0  0  0  0
   27.8893  -20.2941  -15.3282 C   0  0  0  0  0  0  0  0  0  0  0  0
   26.5881  -20.4302  -14.6284 C   0  0  1  0  0  0  0  0  0  0  0  0
   26.5637  -19.8036  -13.2908 C   0  0  0  0  0  0  0  0  0  0  0  0
   26.0748  -18.6287  -13.2079 O   0  0  0  0  0  0  0  0  0  0  0  0
   22.9173  -20.6945   -9.4146 C   0  0  0  0  0  0  0  0  0  0  0  0
   24.3676  -20.3224   -9.4887 C   0  0  0  0  0  0  0  0  0  0  0  0
   25.0115  -20.5442  -10.8086 C   0  0  2  0  0  0  0  0  0  0  0  0
   24.8183  -21.9875  -11.2269 C   0  0  0  0  0  0  0  0  0  0  0  0
   26.4863  -20.2488  -10.8655 C   0  0  2  0  0  0  0  0  0  0  0  0
   27.0628  -20.4801  -12.1487 N   0  0  0  0  0  0  0  0  0  0  0  0
   27.2637  -20.8873   -9.7737 C   0  0  0  0  0  0  0  0  0  0  0  0
   27.3689  -20.2971   -8.6698 O   0  0  0  0  0  0  0  0  0  0  0  0
   27.8921  -22.1174   -9.9007 O   0  0  0  0  0  0  0  0  0  0  0  0
  2  1  1  1
  2  3  1  0
  2  8  1  0
  4  3  1  0
  5  6  1  0
  5  4  1  0
  6  7  1  0
  8  9  2  0
  8 10  1  0
 10 11  1  0
 11 12  1  0
 13 12  1  0
 14 10  1  0
 14 13  1  0
 14 15  1  1
 16 15  2  0
 18 17  1  0
 19 18  1  0
 19 21  1  0
 19 20  1  1
 21 22  1  6
 22 15  1  0
 23 25  1  0
 23 21  1  0
 24 23  2  0
M  END
$$$$
