KPI.pdb
     RDKit          3D

 25 25  0  0  1  0  0  0  0  0999 V2000
   23.0622  -21.9362  -13.3133 N   0  0  0  0  0  0  0  0  0  0  0  0
   24.0602  -20.9009  -13.0118 C   0  0  1  0  0  0  0  0  0  0  0  0
   23.3259  -19.5829  -12.7241 C   0  0  0  0  0  0  0  0  0  0  0  0
   22.9487  -19.0432  -14.0963 C   0  0  0  0  0  0  0  0  0  0  0  0
   21.4482  -18.9294  -14.2550 C   0  0  0  0  0  0  0  0  0  0  0  0
   20.9969  -19.4251  -15.6109 C   0  0  0  0  0  0  0  0  0  0  0  0
   19.5408  -19.2507  -15.6495 N   0  0  0  0  0  0  0  0  0  0  0  0
   24.8275  -21.2542  -11.8107 C   0  0  0  0  0  0  0  0  0  0  0  0
   24.2629  -21.8661  -10.8563 O   0  0  0  0  0  0  0  0  0  0  0  0
   26.1804  -20.9348  -11.6861 N   0  0  0  0  0  0  0  0  0  0  0  0
   26.9806  -20.1220  -12.5799 C   0  0  0  0  0  0  0  0  0  0  0  0
   28.3492  -20.7930  -12.5634 C   0  0  0  0  0  0  0  0  0  0  0  0
   28.4071  -21.4860  -11.2593 C   0  0  0  0  0  0  0  0  0  0  0  0
   27.0703  -21.3761  -10.6248 C   0  0  1  0  0  0  0  0  0  0  0  0
   27.0201  -20.4120   -9.5065 C   0  0  0  0  0  0  0  0  0  0  0  0
   26.6028  -19.2363   -9.7706 O   0  0  0  0  0  0  0  0  0  0  0  0
   24.9346  -21.3341   -4.6193 C   0  0  0  0  0  0  0  0  0  0  0  0
   25.4493  -20.6964   -5.8745 C   0  0  0  0  0  0  0  0  0  0  0  0
   26.8849  -20.3167   -5.8490 C   0  0  2  0  0  0  0  0  0  0  0  0
   27.1020  -19.2376   -4.8080 C   0  0  0  0  0  0  0  0  0  0  0  0
   27.4419  -19.8088   -7.1518 C   0  0  2  0  0  0  0  0  0  0  0  0
   27.4192  -20.7792   -8.1961 N   0  0  0  0  0  0  0  0  0  0  0  0
   28.7678  -19.1547   -7.0175 C   0  0  0  0  0  0  0  0  0  0  0  0
   28.8222  -17.9254   -6.7647 O   0  0  0  0  0  0  0  0  0  0  0  0
   29.9713  -19.8300   -7.1568 O   0  0  0  0  0  0  0  0  0  0  0  0
  2  1  1  1
  2  3  1  0
  2  8  1  0
  4  3  1  0
  5  6  1  0
  5  4  1  0
  6  7  1  0
  8  9  2  0
  8 10  1  0
 10 11  1  0
 11 12  1  0
 13 12  1  0
 14 10  1  0
 14 13  1  0
 14 15  1  1
 16 15  2  0
 18 17  1  0
 19 18  1  0
 19 21  1  0
 19 20  1  1
 21 22  1  6
 22 15  1  0
 23 25  1  0
 23 21  1  0
 24 23  2  0
M  END
$$$$
