KPI.pdb
     RDKit          3D

 25 25  0  0  1  0  0  0  0  0999 V2000
   24.5509  -23.6476  -13.8683 N   0  0  0  0  0  0  0  0  0  0  0  0
   24.7901  -22.2705  -13.4157 C   0  0  1  0  0  0  0  0  0  0  0  0
   23.5016  -21.7366  -12.7723 C   0  0  0  0  0  0  0  0  0  0  0  0
   22.3965  -22.1172  -13.7470 C   0  0  0  0  0  0  0  0  0  0  0  0
   22.1989  -21.0540  -14.8054 C   0  0  0  0  0  0  0  0  0  0  0  0
   21.0690  -21.4127  -15.7447 C   0  0  0  0  0  0  0  0  0  0  0  0
   21.0089  -20.3413  -16.7448 N   0  0  0  0  0  0  0  0  0  0  0  0
   25.8448  -22.2359  -12.3946 C   0  0  0  0  0  0  0  0  0  0  0  0
   26.0088  -23.2247  -11.6204 O   0  0  0  0  0  0  0  0  0  0  0  0
   26.6870  -21.1325  -12.2492 N   0  0  0  0  0  0  0  0  0  0  0  0
   26.6892  -19.9151  -13.0353 C   0  0  0  0  0  0  0  0  0  0  0  0
   28.1639  -19.5420  -13.1340 C   0  0  0  0  0  0  0  0  0  0  0  0
   28.7822  -20.1538  -11.9390 C   0  0  0  0  0  0  0  0  0  0  0  0
   27.7556  -20.9934  -11.2737 C   0  0  1  0  0  0  0  0  0  0  0  0
   27.2161  -20.4013  -10.0324 C   0  0  0  0  0  0  0  0  0  0  0  0
   25.9800  -20.0875  -10.0273 O   0  0  0  0  0  0  0  0  0  0  0  0
   29.2216  -20.5606   -4.0845 C   0  0  0  0  0  0  0  0  0  0  0  0
   28.1895  -20.7589   -5.1534 C   0  0  0  0  0  0  0  0  0  0  0  0
   28.5869  -20.3025   -6.5098 C   0  0  2  0  0  0  0  0  0  0  0  0
   28.8743  -18.8153   -6.4765 C   0  0  0  0  0  0  0  0  0  0  0  0
   27.5730  -20.5445   -7.5955 C   0  0  2  0  0  0  0  0  0  0  0  0
   28.0381  -20.1911   -8.8960 N   0  0  0  0  0  0  0  0  0  0  0  0
   26.2356  -19.9722   -7.2992 C   0  0  0  0  0  0  0  0  0  0  0  0
   25.9208  -18.8612   -7.7938 O   0  0  0  0  0  0  0  0  0  0  0  0
   25.2961  -20.6004   -6.4949 O   0  0  0  0  0  0  0  0  0  0  0  0
  2  1  1  1
  2  3  1  0
  2  8  1  0
  4  3  1  0
  5  6  1  0
  5  4  1  0
  6  7  1  0
  8  9  2  0
  8 10  1  0
 10 11  1  0
 11 12  1  0
 13 12  1  0
 14 10  1  0
 14 13  1  0
 14 15  1  1
 16 15  2  0
 18 17  1  0
 19 18  1  0
 19 21  1  0
 19 20  1  1
 21 22  1  6
 22 15  1  0
 23 25  1  0
 23 21  1  0
 24 23  2  0
M  END
$$$$
