KPI.pdb
     RDKit          3D

 25 25  0  0  1  0  0  0  0  0999 V2000
   25.4961  -22.7776  -12.0976 N   0  0  0  0  0  0  0  0  0  0  0  0
   26.1730  -21.5220  -11.7451 C   0  0  1  0  0  0  0  0  0  0  0  0
   25.1143  -20.4178  -11.6077 C   0  0  0  0  0  0  0  0  0  0  0  0
   24.5525  -20.2441  -13.0115 C   0  0  0  0  0  0  0  0  0  0  0  0
   23.5395  -19.1215  -13.0694 C   0  0  0  0  0  0  0  0  0  0  0  0
   22.9903  -18.9447  -14.4676 C   0  0  0  0  0  0  0  0  0  0  0  0
   21.9424  -17.9225  -14.3722 N   0  0  0  0  0  0  0  0  0  0  0  0
   26.8564  -21.6467  -10.4514 C   0  0  0  0  0  0  0  0  0  0  0  0
   26.2739  -22.2134   -9.4800 O   0  0  0  0  0  0  0  0  0  0  0  0
   28.1481  -21.1557  -10.2556 N   0  0  0  0  0  0  0  0  0  0  0  0
   28.9289  -20.3407  -11.1645 C   0  0  0  0  0  0  0  0  0  0  0  0
   30.3573  -20.8367  -10.9707 C   0  0  0  0  0  0  0  0  0  0  0  0
   30.3752  -21.3904   -9.6005 C   0  0  0  0  0  0  0  0  0  0  0  0
   28.9829  -21.3832   -9.0876 C   0  0  1  0  0  0  0  0  0  0  0  0
   28.7242  -20.3303   -8.0840 C   0  0  0  0  0  0  0  0  0  0  0  0
   28.0686  -19.3071   -8.4705 O   0  0  0  0  0  0  0  0  0  0  0  0
   25.9762  -19.1517   -3.8935 C   0  0  0  0  0  0  0  0  0  0  0  0
   27.3206  -19.7092   -3.5348 C   0  0  0  0  0  0  0  0  0  0  0  0
   27.9911  -20.4858   -4.6086 C   0  0  2  0  0  0  0  0  0  0  0  0
   29.0903  -21.3355   -4.0042 C   0  0  0  0  0  0  0  0  0  0  0  0
   28.6058  -19.6660   -5.7111 C   0  0  2  0  0  0  0  0  0  0  0  0
   29.1857  -20.4531   -6.7487 N   0  0  0  0  0  0  0  0  0  0  0  0
   29.5259  -18.6077   -5.2236 C   0  0  0  0  0  0  0  0  0  0  0  0
   29.0869  -17.4426   -5.0571 O   0  0  0  0  0  0  0  0  0  0  0  0
   30.8643  -18.8311   -4.9361 O   0  0  0  0  0  0  0  0  0  0  0  0
  2  1  1  1
  2  3  1  0
  2  8  1  0
  4  3  1  0
  5  6  1  0
  5  4  1  0
  6  7  1  0
  8  9  2  0
  8 10  1  0
 10 11  1  0
 11 12  1  0
 13 12  1  0
 14 10  1  0
 14 13  1  0
 14 15  1  1
 16 15  2  0
 18 17  1  0
 19 18  1  0
 19 21  1  0
 19 20  1  1
 21 22  1  6
 22 15  1  0
 23 25  1  0
 23 21  1  0
 24 23  2  0
M  END
$$$$
