KPI.pdb
     RDKit          3D

 25 25  0  0  1  0  0  0  0  0999 V2000
   24.5653  -23.5262  -13.7385 N   0  0  0  0  0  0  0  0  0  0  0  0
   24.9801  -22.1675  -13.3635 C   0  0  1  0  0  0  0  0  0  0  0  0
   23.7648  -21.4275  -12.7851 C   0  0  0  0  0  0  0  0  0  0  0  0
   22.9758  -20.9692  -14.0032 C   0  0  0  0  0  0  0  0  0  0  0  0
   21.5137  -21.3426  -13.8906 C   0  0  0  0  0  0  0  0  0  0  0  0
   20.7458  -20.9493  -15.1330 C   0  0  0  0  0  0  0  0  0  0  0  0
   19.3631  -21.3900  -14.9193 N   0  0  0  0  0  0  0  0  0  0  0  0
   26.0130  -22.2098  -12.3207 C   0  0  0  0  0  0  0  0  0  0  0  0
   26.1143  -23.2256  -11.5710 O   0  0  0  0  0  0  0  0  0  0  0  0
   26.9022  -21.1515  -12.1277 N   0  0  0  0  0  0  0  0  0  0  0  0
   26.9788  -19.9157  -12.8807 C   0  0  0  0  0  0  0  0  0  0  0  0
   28.4712  -19.6100  -12.9376 C   0  0  0  0  0  0  0  0  0  0  0  0
   29.0331  -20.2808  -11.7465 C   0  0  0  0  0  0  0  0  0  0  0  0
   27.9537  -21.0881  -11.1261 C   0  0  1  0  0  0  0  0  0  0  0  0
   27.4142  -20.5033   -9.8812 C   0  0  0  0  0  0  0  0  0  0  0  0
   26.2126  -20.0775   -9.9119 O   0  0  0  0  0  0  0  0  0  0  0  0
   30.5809  -21.2466   -5.2266 C   0  0  0  0  0  0  0  0  0  0  0  0
   29.3549  -21.4241   -6.0708 C   0  0  0  0  0  0  0  0  0  0  0  0
   28.5524  -20.1935   -6.2884 C   0  0  2  0  0  0  0  0  0  0  0  0
   27.7660  -19.8765   -5.0327 C   0  0  0  0  0  0  0  0  0  0  0  0
   27.5760  -20.2530   -7.4323 C   0  0  2  0  0  0  0  0  0  0  0  0
   28.1997  -20.4196   -8.7034 N   0  0  0  0  0  0  0  0  0  0  0  0
   26.5874  -19.1455   -7.4291 C   0  0  0  0  0  0  0  0  0  0  0  0
   25.4692  -19.3233   -6.8850 O   0  0  0  0  0  0  0  0  0  0  0  0
   26.8273  -17.9046   -8.0006 O   0  0  0  0  0  0  0  0  0  0  0  0
  2  1  1  1
  2  3  1  0
  2  8  1  0
  4  3  1  0
  5  6  1  0
  5  4  1  0
  6  7  1  0
  8  9  2  0
  8 10  1  0
 10 11  1  0
 11 12  1  0
 13 12  1  0
 14 10  1  0
 14 13  1  0
 14 15  1  1
 16 15  2  0
 18 17  1  0
 19 18  1  0
 19 21  1  0
 19 20  1  1
 21 22  1  6
 22 15  1  0
 23 25  1  0
 23 21  1  0
 24 23  2  0
M  END
$$$$
