DRH.pdb
     RDKit          3D

 30 30  0  0  1  0  0  0  0  0999 V2000
   18.5912  -24.6661  -12.6735 N   0  0  0  0  0  0  0  0  0  0  0  0
   18.9389  -24.1039  -13.9555 C   0  0  1  0  0  0  0  0  0  0  0  0
   17.6881  -24.0606  -14.8097 C   0  0  0  0  0  0  0  0  0  0  0  0
   17.4851  -25.4267  -15.3558 C   0  0  0  0  0  0  0  0  0  0  0  0
   17.8106  -26.4268  -14.6819 O   0  0  0  0  0  0  0  0  0  0  0  0
   19.5303  -22.7535  -13.7596 C   0  0  0  0  0  0  0  0  0  0  0  0
   18.7832  -21.7759  -13.4276 O   0  0  0  0  0  0  0  0  0  0  0  0
   16.9389  -25.5841  -16.6027 O   0  0  0  0  0  0  0  0  0  0  0  0
   28.0423  -21.2544  -13.0464 N   0  0  0  0  0  0  0  0  0  0  0  0
   26.9765  -21.5070  -12.1242 C   0  0  0  0  0  0  0  0  0  0  0  0
   27.1923  -22.0136  -10.9805 N   0  0  0  0  0  0  0  0  0  0  0  0
   25.6437  -21.1806  -12.5028 N   0  0  0  0  0  0  0  0  0  0  0  0
   25.3966  -20.5898  -13.7924 C   0  0  0  0  0  0  0  0  0  0  0  0
   23.9259  -20.2648  -13.9712 C   0  0  0  0  0  0  0  0  0  0  0  0
   23.1488  -21.5098  -13.7116 C   0  0  0  0  0  0  0  0  0  0  0  0
   21.6497  -21.3692  -13.8976 C   0  0  2  0  0  0  0  0  0  0  0  0
   20.9143  -22.5798  -13.9460 N   0  0  0  0  0  0  0  0  0  0  0  0
   21.3937  -20.4539  -15.0132 C   0  0  0  0  0  0  0  0  0  0  0  0
   21.0348  -20.9059  -16.1662 O   0  0  0  0  0  0  0  0  0  0  0  0
   26.4647  -22.2132  -10.2884 N   0  0  0  0  0  0  0  0  0  0  0  0
   21.5214  -19.0588  -14.8923 C   0  0  2  0  0  0  0  0  0  0  0  0
   20.9356  -18.1857  -15.9307 C   0  0  0  0  0  0  0  0  0  0  0  0
   19.4535  -18.2998  -15.8273 C   0  0  0  0  0  0  0  0  0  0  0  0
   18.7093  -17.4267  -16.7270 C   0  0  0  0  0  0  0  0  0  0  0  0
   19.2766  -16.5410  -17.6426 N   0  0  0  0  0  0  0  0  0  0  0  0
   18.2895  -15.9127  -18.2905 C   0  0  0  0  0  0  0  0  0  0  0  0
   17.1198  -16.3566  -17.8304 N   0  0  0  0  0  0  0  0  0  0  0  0
   17.3952  -17.2724  -16.8848 C   0  0  0  0  0  0  0  0  0  0  0  0
   21.3551  -16.7994  -15.5987 O   0  0  0  0  0  0  0  0  0  0  0  0
   21.7016  -16.5394  -14.4129 O   0  0  0  0  0  0  0  0  0  0  0  0
  2  3  1  0
  2  1  1  1
  4  5  2  0
  4  3  1  0
  6  2  1  0
  7  6  2  0
  8  4  1  0
 10  9  1  0
 10 11  2  0
 12 10  1  0
 13 12  1  0
 13 14  1  0
 14 15  1  0
 16 15  1  6
 16 17  1  0
 17  6  1  0
 18 16  1  0
 18 19  2  0
 20 18  1  0
 21 20  1  0
 21 22  1  6
 23 22  1  0
 24 23  2  0
 25 24  1  0
 25 26  1  0
 26 27  2  0
 27 23  1  0
 28 21  1  0
 29 28  2  0
 30 28  1  0
M  END
$$$$
