DRH.pdb
     RDKit          3D

 30 30  0  0  1  0  0  0  0  0999 V2000
   41.3587  -10.4076   -5.7293 N   0  0  0  0  0  0  0  0  0  0  0  0
   42.1294   -9.1932   -5.8379 C   0  0  1  0  0  0  0  0  0  0  0  0
   42.0705   -8.4729   -4.5061 C   0  0  0  0  0  0  0  0  0  0  0  0
   41.8343   -7.0359   -4.7973 C   0  0  0  0  0  0  0  0  0  0  0  0
   41.5513   -6.6687   -5.9573 O   0  0  0  0  0  0  0  0  0  0  0  0
   43.5238   -9.5258   -6.2336 C   0  0  0  0  0  0  0  0  0  0  0  0
   44.3744   -8.5924   -6.4044 O   0  0  0  0  0  0  0  0  0  0  0  0
   41.9284   -6.1151   -3.7868 O   0  0  0  0  0  0  0  0  0  0  0  0
   47.7308  -14.4622   -9.7276 N   0  0  0  0  0  0  0  0  0  0  0  0
   48.4385  -15.2567   -8.7693 C   0  0  0  0  0  0  0  0  0  0  0  0
   49.5757  -15.7568   -9.0298 N   0  0  0  0  0  0  0  0  0  0  0  0
   47.8491  -15.4890   -7.4947 N   0  0  0  0  0  0  0  0  0  0  0  0
   46.5587  -14.9245   -7.1958 C   0  0  0  0  0  0  0  0  0  0  0  0
   46.6028  -13.4090   -7.2379 C   0  0  0  0  0  0  0  0  0  0  0  0
   45.2557  -12.9025   -6.8503 C   0  0  0  0  0  0  0  0  0  0  0  0
   45.1218  -11.3913   -6.8610 C   0  0  2  0  0  0  0  0  0  0  0  0
   43.8801  -10.8754   -6.4131 N   0  0  0  0  0  0  0  0  0  0  0  0
   45.5588  -10.8855   -8.1652 C   0  0  0  0  0  0  0  0  0  0  0  0
   44.7918  -10.9779   -9.1975 O   0  0  0  0  0  0  0  0  0  0  0  0
   50.1076  -16.3520   -8.3886 N   0  0  0  0  0  0  0  0  0  0  0  0
   46.8136  -10.2817   -8.3612 C   0  0  2  0  0  0  0  0  0  0  0  0
   47.1609   -9.7509   -9.6958 C   0  0  0  0  0  0  0  0  0  0  0  0
   47.7975   -8.4186   -9.4956 C   0  0  0  0  0  0  0  0  0  0  0  0
   48.1384   -7.7135  -10.7254 C   0  0  0  0  0  0  0  0  0  0  0  0
   47.5952   -7.9769  -11.9824 N   0  0  0  0  0  0  0  0  0  0  0  0
   48.1435   -7.1345  -12.8649 C   0  0  0  0  0  0  0  0  0  0  0  0
   49.0106   -6.3468  -12.2289 N   0  0  0  0  0  0  0  0  0  0  0  0
   48.9931   -6.7129  -10.9349 C   0  0  0  0  0  0  0  0  0  0  0  0
   48.1490  -10.6951  -10.2788 O   0  0  0  0  0  0  0  0  0  0  0  0
   49.1088  -11.0878   -9.5587 O   0  0  0  0  0  0  0  0  0  0  0  0
  2  3  1  0
  2  1  1  1
  4  5  2  0
  4  3  1  0
  6  2  1  0
  7  6  2  0
  8  4  1  0
 10  9  1  0
 10 11  2  0
 12 10  1  0
 13 12  1  0
 13 14  1  0
 14 15  1  0
 16 15  1  6
 16 17  1  0
 17  6  1  0
 18 16  1  0
 18 19  2  0
 20 18  1  0
 21 20  1  0
 21 22  1  1
 23 22  1  0
 24 23  2  0
 25 24  1  0
 25 26  1  0
 26 27  2  0
 27 23  1  0
 28 21  1  0
 29 28  2  0
 30 28  1  0
M  END
$$$$
