DRH.pdb
     RDKit          3D

 30 30  0  0  1  0  0  0  0  0999 V2000
   26.5943  -21.7521  -11.3481 N   0  0  0  0  0  0  0  0  0  0  0  0
   25.4878  -21.1502  -10.6455 C   0  0  1  0  0  0  0  0  0  0  0  0
   26.0465  -20.2099   -9.5967 C   0  0  0  0  0  0  0  0  0  0  0  0
   27.5095  -20.4551   -9.5258 C   0  0  0  0  0  0  0  0  0  0  0  0
   28.0485  -21.2672  -10.3072 O   0  0  0  0  0  0  0  0  0  0  0  0
   24.6086  -20.4468  -11.6170 C   0  0  0  0  0  0  0  0  0  0  0  0
   23.6743  -19.6901  -11.1945 O   0  0  0  0  0  0  0  0  0  0  0  0
   28.2649  -19.7858   -8.5989 O   0  0  0  0  0  0  0  0  0  0  0  0
   29.1160  -20.5110  -17.8543 N   0  0  0  0  0  0  0  0  0  0  0  0
   28.1177  -21.4816  -17.5202 C   0  0  0  0  0  0  0  0  0  0  0  0
   28.3715  -22.7253  -17.5240 N   0  0  0  0  0  0  0  0  0  0  0  0
   26.8101  -21.0371  -17.1758 N   0  0  0  0  0  0  0  0  0  0  0  0
   26.5766  -19.6367  -16.9360 C   0  0  0  0  0  0  0  0  0  0  0  0
   26.0198  -19.4066  -15.5440 C   0  0  0  0  0  0  0  0  0  0  0  0
   24.7368  -20.1572  -15.4361 C   0  0  0  0  0  0  0  0  0  0  0  0
   24.0790  -20.0911  -14.0706 C   0  0  2  0  0  0  0  0  0  0  0  0
   24.8269  -20.6316  -12.9949 N   0  0  0  0  0  0  0  0  0  0  0  0
   22.7090  -20.6003  -14.1787 C   0  0  0  0  0  0  0  0  0  0  0  0
   22.4596  -21.8559  -14.0254 O   0  0  0  0  0  0  0  0  0  0  0  0
   27.7000  -23.4546  -17.2681 N   0  0  0  0  0  0  0  0  0  0  0  0
   21.6103  -19.7654  -14.4493 C   0  0  1  0  0  0  0  0  0  0  0  0
   20.2437  -20.2555  -14.1741 C   0  0  0  0  0  0  0  0  0  0  0  0
   19.9594  -20.0030  -12.7334 C   0  0  0  0  0  0  0  0  0  0  0  0
   19.5224  -21.1738  -11.9826 C   0  0  0  0  0  0  0  0  0  0  0  0
   19.2525  -22.4277  -12.5301 N   0  0  0  0  0  0  0  0  0  0  0  0
   18.8794  -23.2489  -11.5425 C   0  0  0  0  0  0  0  0  0  0  0  0
   18.8989  -22.5769  -10.3914 N   0  0  0  0  0  0  0  0  0  0  0  0
   19.2906  -21.3228  -10.6788 C   0  0  0  0  0  0  0  0  0  0  0  0
   19.3286  -19.4409  -15.0150 O   0  0  0  0  0  0  0  0  0  0  0  0
   19.5928  -18.2185  -15.1879 O   0  0  0  0  0  0  0  0  0  0  0  0
  2  3  1  0
  2  1  1  6
  4  5  2  0
  4  3  1  0
  6  2  1  0
  7  6  2  0
  8  4  1  0
 10  9  1  0
 10 11  2  0
 12 10  1  0
 13 12  1  0
 13 14  1  0
 14 15  1  0
 16 15  1  6
 16 17  1  0
 17  6  1  0
 18 16  1  0
 18 19  2  0
 20 18  1  0
 21 20  1  0
 21 22  1  6
 23 22  1  0
 24 23  2  0
 25 24  1  0
 25 26  1  0
 26 27  2  0
 27 23  1  0
 28 21  1  0
 29 28  2  0
 30 28  1  0
M  END
$$$$
