VII.pdb
     RDKit          3D

 24 23  0  0  1  0  0  0  0  0999 V2000
    7.8398  -19.1268   20.2369 C   0  0  0  0  0  0  0  0  0  0  0  0
    8.4235  -18.2666   21.3353 C   0  0  1  0  0  0  0  0  0  0  0  0
    9.7371  -18.7863   21.7889 C   0  0  0  0  0  0  0  0  0  0  0  0
    8.3728  -16.8118   20.9858 C   0  0  2  0  0  0  0  0  0  0  0  0
    9.2582  -16.6242   19.8451 N   0  0  0  0  0  0  0  0  0  0  0  0
    8.7613  -15.8882   22.0628 C   0  0  0  0  0  0  0  0  0  0  0  0
    9.9665  -15.5011   22.1239 O   0  0  0  0  0  0  0  0  0  0  0  0
    6.4505  -11.8977   26.1680 C   0  0  0  0  0  0  0  0  0  0  0  0
    7.6542  -12.6528   25.6213 C   0  0  0  0  0  0  0  0  0  0  0  0
    7.1651  -13.7339   24.6863 C   0  0  2  0  0  0  0  0  0  0  0  0
    6.1323  -14.6144   25.3049 C   0  0  0  0  0  0  0  0  0  0  0  0
    8.3465  -14.5207   24.1401 C   0  0  2  0  0  0  0  0  0  0  0  0
    7.9012  -15.3719   23.0666 N   0  0  0  0  0  0  0  0  0  0  0  0
    8.9674  -15.2416   25.2713 C   0  0  0  0  0  0  0  0  0  0  0  0
    8.3542  -16.2383   25.7514 O   0  0  0  0  0  0  0  0  0  0  0  0
    9.4645  -13.2457   29.7363 C   0  0  0  0  0  0  0  0  0  0  0  0
   10.0568  -13.7256   28.4522 C   0  0  0  0  0  0  0  0  0  0  0  0
   10.1656  -15.2001   28.2964 C   0  0  2  0  0  0  0  0  0  0  0  0
   10.8845  -15.8295   29.4959 C   0  0  0  0  0  0  0  0  0  0  0  0
   10.7269  -15.6788   27.0082 C   0  0  2  0  0  0  0  0  0  0  0  0
   10.2011  -14.9148   25.8753 N   0  0  0  0  0  0  0  0  0  0  0  0
   10.5713  -17.1234   26.8457 C   0  0  0  0  0  0  0  0  0  0  0  0
    9.2856  -17.6752   26.9249 O   0  0  0  0  0  0  0  0  0  0  0  0
   11.5215  -17.9132   26.6359 O   0  0  0  0  0  0  0  0  0  0  0  0
  2  1  1  6
  2  4  1  0
  3  2  1  0
  4  6  1  0
  4  5  1  6
  6  7  2  0
  9  8  1  0
  9 10  1  0
 10 11  1  1
 12 10  1  0
 12 13  1  6
 13  6  1  0
 14 15  2  0
 14 12  1  0
 16 17  1  0
 17 18  1  0
 18 20  1  0
 18 19  1  1
 20 21  1  6
 21 14  1  0
 22 20  1  0
 22 23  1  0
 24 22  2  0
M  END
$$$$
