VII.pdb
     RDKit          3D

 24 23  0  0  1  0  0  0  0  0999 V2000
    9.2624  -18.8419   19.5476 C   0  0  0  0  0  0  0  0  0  0  0  0
    9.6095  -18.1220   20.8315 C   0  0  1  0  0  0  0  0  0  0  0  0
   10.9449  -18.5276   21.3351 C   0  0  0  0  0  0  0  0  0  0  0  0
    9.3621  -16.6493   20.7252 C   0  0  2  0  0  0  0  0  0  0  0  0
   10.3051  -16.1363   19.7413 N   0  0  0  0  0  0  0  0  0  0  0  0
    9.5031  -15.8917   21.9782 C   0  0  0  0  0  0  0  0  0  0  0  0
   10.6494  -15.4556   22.2971 O   0  0  0  0  0  0  0  0  0  0  0  0
    6.1947  -12.6094   26.0027 C   0  0  0  0  0  0  0  0  0  0  0  0
    7.5365  -13.2257   25.6317 C   0  0  0  0  0  0  0  0  0  0  0  0
    7.3136  -14.2622   24.5555 C   0  0  2  0  0  0  0  0  0  0  0  0
    6.3494  -15.3249   24.9623 C   0  0  0  0  0  0  0  0  0  0  0  0
    8.6481  -14.8328   24.1006 C   0  0  2  0  0  0  0  0  0  0  0  0
    8.4584  -15.5907   22.8903 N   0  0  0  0  0  0  0  0  0  0  0  0
    9.2102  -15.6108   25.2246 C   0  0  0  0  0  0  0  0  0  0  0  0
    9.0646  -16.8672   25.2114 O   0  0  0  0  0  0  0  0  0  0  0  0
   10.4486  -13.0297   29.8947 C   0  0  0  0  0  0  0  0  0  0  0  0
   10.8354  -13.8081   28.6804 C   0  0  0  0  0  0  0  0  0  0  0  0
   10.4802  -15.2517   28.6920 C   0  0  2  0  0  0  0  0  0  0  0  0
   11.3240  -16.0186   29.7175 C   0  0  0  0  0  0  0  0  0  0  0  0
   10.4717  -15.9304   27.3718 C   0  0  2  0  0  0  0  0  0  0  0  0
    9.9054  -15.0724   26.3294 N   0  0  0  0  0  0  0  0  0  0  0  0
    9.8381  -17.2465   27.4364 C   0  0  0  0  0  0  0  0  0  0  0  0
   10.6523  -18.3870   27.4278 O   0  0  0  0  0  0  0  0  0  0  0  0
    8.5996  -17.4274   27.5013 O   0  0  0  0  0  0  0  0  0  0  0  0
  2  1  1  6
  2  4  1  0
  3  2  1  0
  4  6  1  0
  4  5  1  6
  6  7  2  0
  9  8  1  0
  9 10  1  0
 10 11  1  1
 12 10  1  0
 12 13  1  6
 13  6  1  0
 14 15  2  0
 14 12  1  0
 16 17  1  0
 17 18  1  0
 18 20  1  0
 18 19  1  1
 20 21  1  6
 21 14  1  0
 22 20  1  0
 22 23  1  0
 24 22  2  0
M  END
$$$$
