VII.pdb
     RDKit          3D

 24 23  0  0  1  0  0  0  0  0999 V2000
    9.6429  -20.8407   21.4040 C   0  0  0  0  0  0  0  0  0  0  0  0
    9.7643  -19.4252   21.9226 C   0  0  1  0  0  0  0  0  0  0  0  0
   10.7200  -19.3440   23.0546 C   0  0  0  0  0  0  0  0  0  0  0  0
    9.9705  -18.4437   20.8112 C   0  0  2  0  0  0  0  0  0  0  0  0
   11.2636  -18.7508   20.2162 N   0  0  0  0  0  0  0  0  0  0  0  0
    9.9378  -17.0265   21.2040 C   0  0  0  0  0  0  0  0  0  0  0  0
   11.0258  -16.4610   21.5241 O   0  0  0  0  0  0  0  0  0  0  0  0
    7.1207  -13.1336   18.7894 C   0  0  0  0  0  0  0  0  0  0  0  0
    8.1441  -13.9822   19.5314 C   0  0  0  0  0  0  0  0  0  0  0  0
    7.7692  -14.0259   20.9942 C   0  0  2  0  0  0  0  0  0  0  0  0
    7.5757  -12.6705   21.5858 C   0  0  0  0  0  0  0  0  0  0  0  0
    8.7841  -14.8560   21.7651 C   0  0  2  0  0  0  0  0  0  0  0  0
    8.7815  -16.2058   21.2619 N   0  0  0  0  0  0  0  0  0  0  0  0
    8.4589  -14.7413   23.2024 C   0  0  0  0  0  0  0  0  0  0  0  0
    7.4823  -15.4105   23.6477 O   0  0  0  0  0  0  0  0  0  0  0  0
    6.2429  -11.6819   27.4576 C   0  0  0  0  0  0  0  0  0  0  0  0
    7.3210  -12.6866   27.2160 C   0  0  0  0  0  0  0  0  0  0  0  0
    7.6473  -12.9616   25.7918 C   0  0  2  0  0  0  0  0  0  0  0  0
    6.3915  -13.3558   25.0048 C   0  0  0  0  0  0  0  0  0  0  0  0
    8.7646  -13.9089   25.5514 C   0  0  2  0  0  0  0  0  0  0  0  0
    9.1486  -13.9406   24.1389 N   0  0  0  0  0  0  0  0  0  0  0  0
    8.4853  -15.2358   26.0982 C   0  0  0  0  0  0  0  0  0  0  0  0
    7.5915  -16.0712   25.4149 O   0  0  0  0  0  0  0  0  0  0  0  0
    8.9984  -15.6845   27.1500 O   0  0  0  0  0  0  0  0  0  0  0  0
  2  1  1  6
  2  4  1  0
  3  2  1  0
  4  6  1  0
  4  5  1  1
  6  7  2  0
  9  8  1  0
  9 10  1  0
 10 11  1  1
 12 10  1  0
 12 13  1  6
 13  6  1  0
 14 15  2  0
 14 12  1  0
 16 17  1  0
 17 18  1  0
 18 20  1  0
 18 19  1  6
 20 21  1  6
 21 14  1  0
 22 20  1  0
 22 23  1  0
 24 22  2  0
M  END
$$$$
