VII.pdb
     RDKit          3D

 24 23  0  0  1  0  0  0  0  0999 V2000
   11.6437  -16.1838   19.6083 C   0  0  0  0  0  0  0  0  0  0  0  0
   10.1975  -16.6254   19.5798 C   0  0  1  0  0  0  0  0  0  0  0  0
    9.9043  -17.4397   18.3748 C   0  0  0  0  0  0  0  0  0  0  0  0
    9.7699  -17.2070   20.8913 C   0  0  2  0  0  0  0  0  0  0  0  0
    8.4163  -17.7103   20.7045 N   0  0  0  0  0  0  0  0  0  0  0  0
    9.7929  -16.2794   22.0327 C   0  0  0  0  0  0  0  0  0  0  0  0
   10.8661  -15.6541   22.2840 O   0  0  0  0  0  0  0  0  0  0  0  0
    6.1443  -13.0957   25.8323 C   0  0  0  0  0  0  0  0  0  0  0  0
    7.5389  -13.6316   25.5394 C   0  0  0  0  0  0  0  0  0  0  0  0
    7.4278  -14.7436   24.5229 C   0  0  2  0  0  0  0  0  0  0  0  0
    6.5923  -15.8843   24.9976 C   0  0  0  0  0  0  0  0  0  0  0  0
    8.8153  -15.1845   24.0827 C   0  0  2  0  0  0  0  0  0  0  0  0
    8.7066  -16.0052   22.9038 N   0  0  0  0  0  0  0  0  0  0  0  0
    9.4598  -15.8529   25.2328 C   0  0  0  0  0  0  0  0  0  0  0  0
    9.5149  -17.1165   25.2334 O   0  0  0  0  0  0  0  0  0  0  0  0
   10.8105  -12.8342   29.6914 C   0  0  0  0  0  0  0  0  0  0  0  0
   11.1511  -13.7506   28.5627 C   0  0  0  0  0  0  0  0  0  0  0  0
   10.6784  -15.1537   28.6979 C   0  0  2  0  0  0  0  0  0  0  0  0
   11.4358  -15.8854   29.8128 C   0  0  0  0  0  0  0  0  0  0  0  0
   10.6405  -15.9512   27.4464 C   0  0  2  0  0  0  0  0  0  0  0  0
   10.0284  -15.2005   26.3486 N   0  0  0  0  0  0  0  0  0  0  0  0
   10.0308  -17.2641   27.6516 C   0  0  0  0  0  0  0  0  0  0  0  0
    8.6382  -17.3466   27.7842 O   0  0  0  0  0  0  0  0  0  0  0  0
   10.6767  -18.3362   27.7164 O   0  0  0  0  0  0  0  0  0  0  0  0
  2  1  1  1
  2  4  1  0
  3  2  1  0
  4  6  1  0
  4  5  1  6
  6  7  2  0
  9  8  1  0
  9 10  1  0
 10 11  1  1
 12 10  1  0
 12 13  1  6
 13  6  1  0
 14 15  2  0
 14 12  1  0
 16 17  1  0
 17 18  1  0
 18 20  1  0
 18 19  1  1
 20 21  1  6
 21 14  1  0
 22 20  1  0
 22 23  1  0
 24 22  2  0
M  END
$$$$
