VII.pdb
     RDKit          3D

 24 23  0  0  1  0  0  0  0  0999 V2000
    7.3330  -13.6194   18.5552 C   0  0  0  0  0  0  0  0  0  0  0  0
    8.1467  -13.4548   19.8193 C   0  0  1  0  0  0  0  0  0  0  0  0
    7.7996  -12.1974   20.5261 C   0  0  0  0  0  0  0  0  0  0  0  0
    8.1422  -14.7020   20.6475 C   0  0  2  0  0  0  0  0  0  0  0  0
    6.7649  -15.1730   20.6873 N   0  0  0  0  0  0  0  0  0  0  0  0
    8.6468  -14.5515   22.0210 C   0  0  0  0  0  0  0  0  0  0  0  0
    9.8994  -14.4913   22.2034 O   0  0  0  0  0  0  0  0  0  0  0  0
    7.1559  -11.9962   27.3289 C   0  0  0  0  0  0  0  0  0  0  0  0
    8.0804  -12.9744   26.6174 C   0  0  0  0  0  0  0  0  0  0  0  0
    7.4235  -13.4141   25.3300 C   0  0  2  0  0  0  0  0  0  0  0  0
    6.1204  -14.1061   25.5487 C   0  0  0  0  0  0  0  0  0  0  0  0
    8.3946  -14.2510   24.5117 C   0  0  2  0  0  0  0  0  0  0  0  0
    7.8527  -14.4636   23.1940 N   0  0  0  0  0  0  0  0  0  0  0  0
    8.6641  -15.4927   25.2669 C   0  0  0  0  0  0  0  0  0  0  0  0
    7.7151  -16.3147   25.4204 O   0  0  0  0  0  0  0  0  0  0  0  0
   12.6139  -18.2756   23.5440 C   0  0  0  0  0  0  0  0  0  0  0  0
   11.3610  -17.7891   24.1949 C   0  0  0  0  0  0  0  0  0  0  0  0
   11.3507  -17.8062   25.6815 C   0  0  2  0  0  0  0  0  0  0  0  0
   11.6419  -19.2129   26.2184 C   0  0  0  0  0  0  0  0  0  0  0  0
   10.1575  -17.2078   26.3310 C   0  0  2  0  0  0  0  0  0  0  0  0
    9.9026  -15.8514   25.8424 N   0  0  0  0  0  0  0  0  0  0  0  0
   10.2301  -17.2865   27.7891 C   0  0  0  0  0  0  0  0  0  0  0  0
   10.5938  -16.1400   28.5081 O   0  0  0  0  0  0  0  0  0  0  0  0
    9.9844  -18.3228   28.4497 O   0  0  0  0  0  0  0  0  0  0  0  0
  2  1  1  6
  2  4  1  0
  3  2  1  0
  4  6  1  0
  4  5  1  1
  6  7  2  0
  9  8  1  0
  9 10  1  0
 10 11  1  1
 12 10  1  0
 12 13  1  6
 13  6  1  0
 14 15  2  0
 14 12  1  0
 16 17  1  0
 17 18  1  0
 18 20  1  0
 18 19  1  6
 20 21  1  1
 21 14  1  0
 22 20  1  0
 22 23  1  0
 24 22  2  0
M  END
$$$$
