VII.pdb
     RDKit          3D

 24 23  0  0  1  0  0  0  0  0999 V2000
   13.1127  -19.7730   20.2550 C   0  0  0  0  0  0  0  0  0  0  0  0
   12.8124  -18.5782   21.1322 C   0  0  1  0  0  0  0  0  0  0  0  0
   14.0580  -17.9635   21.6538 C   0  0  0  0  0  0  0  0  0  0  0  0
   11.8361  -17.6465   20.4842 C   0  0  2  0  0  0  0  0  0  0  0  0
   12.5447  -16.9886   19.3954 N   0  0  0  0  0  0  0  0  0  0  0  0
   11.2486  -16.6292   21.3697 C   0  0  0  0  0  0  0  0  0  0  0  0
   11.9440  -15.6136   21.6712 O   0  0  0  0  0  0  0  0  0  0  0  0
    6.4480  -14.3299   21.1144 C   0  0  0  0  0  0  0  0  0  0  0  0
    7.9112  -14.6772   21.3518 C   0  0  0  0  0  0  0  0  0  0  0  0
    8.0311  -15.3945   22.6759 C   0  0  2  0  0  0  0  0  0  0  0  0
    7.4133  -14.6397   23.8043 C   0  0  0  0  0  0  0  0  0  0  0  0
    9.4855  -15.7503   22.9432 C   0  0  2  0  0  0  0  0  0  0  0  0
    9.9477  -16.6698   21.9352 N   0  0  0  0  0  0  0  0  0  0  0  0
    9.5746  -16.2666   24.3253 C   0  0  0  0  0  0  0  0  0  0  0  0
    9.4925  -17.5164   24.5011 O   0  0  0  0  0  0  0  0  0  0  0  0
   10.6537  -12.6502   28.3780 C   0  0  0  0  0  0  0  0  0  0  0  0
   10.9362  -13.8639   27.5552 C   0  0  0  0  0  0  0  0  0  0  0  0
   10.1121  -15.0633   27.8599 C   0  0  2  0  0  0  0  0  0  0  0  0
   10.5154  -15.6821   29.2039 C   0  0  0  0  0  0  0  0  0  0  0  0
   10.0312  -16.0868   26.7877 C   0  0  2  0  0  0  0  0  0  0  0  0
    9.7454  -15.4807   25.4860 N   0  0  0  0  0  0  0  0  0  0  0  0
    9.1082  -17.1677   27.1306 C   0  0  0  0  0  0  0  0  0  0  0  0
    7.7581  -17.0372   26.7788 O   0  0  0  0  0  0  0  0  0  0  0  0
    9.4464  -18.2183   27.7243 O   0  0  0  0  0  0  0  0  0  0  0  0
  2  1  1  6
  2  4  1  0
  3  2  1  0
  4  6  1  0
  4  5  1  6
  6  7  2  0
  9  8  1  0
  9 10  1  0
 10 11  1  1
 12 10  1  0
 12 13  1  6
 13  6  1  0
 14 15  2  0
 14 12  1  0
 16 17  1  0
 17 18  1  0
 18 20  1  0
 18 19  1  1
 20 21  1  6
 21 14  1  0
 22 20  1  0
 22 23  1  0
 24 22  2  0
M  END
$$$$
