VII.pdb
     RDKit          3D

 24 23  0  0  1  0  0  0  0  0999 V2000
    7.6151  -18.1673   19.6015 C   0  0  0  0  0  0  0  0  0  0  0  0
    8.2162  -17.5823   20.8600 C   0  0  1  0  0  0  0  0  0  0  0  0
    9.5542  -18.1594   21.1392 C   0  0  0  0  0  0  0  0  0  0  0  0
    8.1240  -16.0882   20.8752 C   0  0  2  0  0  0  0  0  0  0  0  0
    8.9006  -15.6093   19.7403 N   0  0  0  0  0  0  0  0  0  0  0  0
    8.6028  -15.4370   22.1043 C   0  0  0  0  0  0  0  0  0  0  0  0
    9.8177  -15.0824   22.1685 O   0  0  0  0  0  0  0  0  0  0  0  0
    5.4186  -12.2307   25.1585 C   0  0  0  0  0  0  0  0  0  0  0  0
    6.6031  -12.8108   24.3981 C   0  0  0  0  0  0  0  0  0  0  0  0
    7.2308  -13.9003   25.2355 C   0  0  2  0  0  0  0  0  0  0  0  0
    7.6737  -13.4208   26.5766 C   0  0  0  0  0  0  0  0  0  0  0  0
    8.3541  -14.5694   24.4585 C   0  0  2  0  0  0  0  0  0  0  0  0
    7.8220  -15.1571   23.2557 N   0  0  0  0  0  0  0  0  0  0  0  0
    9.0160  -15.5312   25.3650 C   0  0  0  0  0  0  0  0  0  0  0  0
    8.7801  -16.7631   25.2019 O   0  0  0  0  0  0  0  0  0  0  0  0
   11.3209  -14.3911   30.5207 C   0  0  0  0  0  0  0  0  0  0  0  0
   10.5485  -14.9900   29.3916 C   0  0  0  0  0  0  0  0  0  0  0  0
   11.3543  -15.6342   28.3211 C   0  0  2  0  0  0  0  0  0  0  0  0
   12.4586  -14.6946   27.8215 C   0  0  0  0  0  0  0  0  0  0  0  0
   10.5875  -16.2256   27.1960 C   0  0  2  0  0  0  0  0  0  0  0  0
    9.9011  -15.1963   26.4130 N   0  0  0  0  0  0  0  0  0  0  0  0
    9.6954  -17.2943   27.6428 C   0  0  0  0  0  0  0  0  0  0  0  0
   10.2563  -18.5073   28.0644 O   0  0  0  0  0  0  0  0  0  0  0  0
    8.4463  -17.1986   27.6767 O   0  0  0  0  0  0  0  0  0  0  0  0
  2  1  1  6
  2  4  1  0
  3  2  1  0
  4  6  1  0
  4  5  1  6
  6  7  2  0
  9  8  1  0
  9 10  1  0
 10 11  1  1
 12 10  1  0
 12 13  1  6
 13  6  1  0
 14 15  2  0
 14 12  1  0
 16 17  1  0
 17 18  1  0
 18 20  1  0
 18 19  1  6
 20 21  1  1
 21 14  1  0
 22 20  1  0
 22 23  1  0
 24 22  2  0
M  END
$$$$
