VII.pdb
     RDKit          3D

 24 23  0  0  1  0  0  0  0  0999 V2000
    6.8407  -17.5905   22.0930 C   0  0  0  0  0  0  0  0  0  0  0  0
    7.3237  -16.6934   20.9754 C   0  0  1  0  0  0  0  0  0  0  0  0
    6.6594  -17.0245   19.6907 C   0  0  0  0  0  0  0  0  0  0  0  0
    7.3068  -15.2511   21.3762 C   0  0  2  0  0  0  0  0  0  0  0  0
    7.9115  -14.5053   20.2814 N   0  0  0  0  0  0  0  0  0  0  0  0
    8.0089  -14.9342   22.6294 C   0  0  0  0  0  0  0  0  0  0  0  0
    9.2744  -14.9979   22.6481 O   0  0  0  0  0  0  0  0  0  0  0  0
    5.8379  -11.4689   26.2589 C   0  0  0  0  0  0  0  0  0  0  0  0
    6.7721  -12.2156   25.3168 C   0  0  0  0  0  0  0  0  0  0  0  0
    7.2602  -13.4669   26.0083 C   0  0  2  0  0  0  0  0  0  0  0  0
    7.9395  -13.1868   27.3063 C   0  0  0  0  0  0  0  0  0  0  0  0
    8.1312  -14.2770   25.0606 C   0  0  2  0  0  0  0  0  0  0  0  0
    7.3973  -14.5534   23.8521 N   0  0  0  0  0  0  0  0  0  0  0  0
    8.5846  -15.4820   25.7867 C   0  0  0  0  0  0  0  0  0  0  0  0
    7.7116  -16.3210   26.1526 O   0  0  0  0  0  0  0  0  0  0  0  0
   12.7846  -19.7970   25.5148 C   0  0  0  0  0  0  0  0  0  0  0  0
   11.8078  -19.0749   26.3834 C   0  0  0  0  0  0  0  0  0  0  0  0
   11.3618  -17.7436   25.8943 C   0  0  2  0  0  0  0  0  0  0  0  0
   12.5580  -16.8119   25.6643 C   0  0  0  0  0  0  0  0  0  0  0  0
   10.2966  -17.0819   26.6886 C   0  0  2  0  0  0  0  0  0  0  0  0
    9.9234  -15.7875   26.1153 N   0  0  0  0  0  0  0  0  0  0  0  0
   10.6409  -17.0014   28.1073 C   0  0  0  0  0  0  0  0  0  0  0  0
   10.6626  -18.1813   28.8629 O   0  0  0  0  0  0  0  0  0  0  0  0
   10.9233  -15.9351   28.7022 O   0  0  0  0  0  0  0  0  0  0  0  0
  2  1  1  1
  2  4  1  0
  3  2  1  0
  4  6  1  0
  4  5  1  6
  6  7  2  0
  9  8  1  0
  9 10  1  0
 10 11  1  1
 12 10  1  0
 12 13  1  6
 13  6  1  0
 14 15  2  0
 14 12  1  0
 16 17  1  0
 17 18  1  0
 18 20  1  0
 18 19  1  1
 20 21  1  6
 21 14  1  0
 22 20  1  0
 22 23  1  0
 24 22  2  0
M  END
$$$$
