VII.pdb
     RDKit          3D

 24 23  0  0  1  0  0  0  0  0999 V2000
    6.3974  -20.6461   26.5201 C   0  0  0  0  0  0  0  0  0  0  0  0
    7.1400  -19.4660   25.9344 C   0  0  1  0  0  0  0  0  0  0  0  0
    8.4748  -19.8658   25.4246 C   0  0  0  0  0  0  0  0  0  0  0  0
    6.2799  -18.6822   24.9926 C   0  0  2  0  0  0  0  0  0  0  0  0
    5.9791  -19.5605   23.8708 N   0  0  0  0  0  0  0  0  0  0  0  0
    6.8689  -17.4316   24.4894 C   0  0  0  0  0  0  0  0  0  0  0  0
    7.5225  -17.4631   23.4042 O   0  0  0  0  0  0  0  0  0  0  0  0
    5.0694  -12.7078   26.2490 C   0  0  0  0  0  0  0  0  0  0  0  0
    5.6671  -13.6499   25.2131 C   0  0  0  0  0  0  0  0  0  0  0  0
    7.1450  -13.7992   25.4885 C   0  0  2  0  0  0  0  0  0  0  0  0
    7.9325  -12.5910   25.1081 C   0  0  0  0  0  0  0  0  0  0  0  0
    7.6701  -15.0652   24.8292 C   0  0  2  0  0  0  0  0  0  0  0  0
    6.7766  -16.1594   25.1114 N   0  0  0  0  0  0  0  0  0  0  0  0
    9.0560  -15.2742   25.2986 C   0  0  0  0  0  0  0  0  0  0  0  0
    9.9778  -14.6013   24.7532 O   0  0  0  0  0  0  0  0  0  0  0  0
   10.0153  -13.6086   29.7731 C   0  0  0  0  0  0  0  0  0  0  0  0
   10.1849  -14.1439   28.3893 C   0  0  0  0  0  0  0  0  0  0  0  0
   10.7319  -15.5226   28.2871 C   0  0  2  0  0  0  0  0  0  0  0  0
   12.0850  -15.6329   29.0003 C   0  0  0  0  0  0  0  0  0  0  0  0
   10.7832  -16.1027   26.9216 C   0  0  2  0  0  0  0  0  0  0  0  0
    9.4523  -16.1702   26.3154 N   0  0  0  0  0  0  0  0  0  0  0  0
   11.4889  -17.3830   26.8964 C   0  0  0  0  0  0  0  0  0  0  0  0
   12.8713  -17.3944   27.1257 O   0  0  0  0  0  0  0  0  0  0  0  0
   10.9348  -18.4865   26.6825 O   0  0  0  0  0  0  0  0  0  0  0  0
  2  1  1  6
  2  4  1  0
  3  2  1  0
  4  6  1  0
  4  5  1  6
  6  7  2  0
  9  8  1  0
  9 10  1  0
 10 11  1  6
 12 10  1  0
 12 13  1  1
 13  6  1  0
 14 15  2  0
 14 12  1  0
 16 17  1  0
 17 18  1  0
 18 20  1  0
 18 19  1  6
 20 21  1  1
 21 14  1  0
 22 20  1  0
 22 23  1  0
 24 22  2  0
M  END
$$$$
