VII.pdb
     RDKit          3D

 24 23  0  0  1  0  0  0  0  0999 V2000
   11.2014  -19.1901   22.7157 C   0  0  0  0  0  0  0  0  0  0  0  0
   12.0552  -18.8292   21.5206 C   0  0  1  0  0  0  0  0  0  0  0  0
   12.6528  -20.0363   20.8985 C   0  0  0  0  0  0  0  0  0  0  0  0
   11.3447  -17.8911   20.5952 C   0  0  2  0  0  0  0  0  0  0  0  0
   12.2999  -17.5202   19.5606 N   0  0  0  0  0  0  0  0  0  0  0  0
   10.8044  -16.6739   21.2200 C   0  0  0  0  0  0  0  0  0  0  0  0
   11.6079  -15.8785   21.7925 O   0  0  0  0  0  0  0  0  0  0  0  0
    7.2044  -13.4252   19.0360 C   0  0  0  0  0  0  0  0  0  0  0  0
    8.3607  -13.9946   19.8462 C   0  0  0  0  0  0  0  0  0  0  0  0
    7.8287  -14.4858   21.1721 C   0  0  2  0  0  0  0  0  0  0  0  0
    7.1274  -13.4221   21.9475 C   0  0  0  0  0  0  0  0  0  0  0  0
    8.9459  -15.1429   21.9679 C   0  0  2  0  0  0  0  0  0  0  0  0
    9.4388  -16.2887   21.2471 N   0  0  0  0  0  0  0  0  0  0  0  0
    8.4174  -15.4511   23.3135 C   0  0  0  0  0  0  0  0  0  0  0  0
    8.0577  -16.6394   23.5547 O   0  0  0  0  0  0  0  0  0  0  0  0
    6.2694  -11.6957   27.1527 C   0  0  0  0  0  0  0  0  0  0  0  0
    6.5362  -12.8061   26.1905 C   0  0  0  0  0  0  0  0  0  0  0  0
    7.5952  -13.7712   26.5875 C   0  0  2  0  0  0  0  0  0  0  0  0
    8.9203  -13.0514   26.8666 C   0  0  0  0  0  0  0  0  0  0  0  0
    7.7837  -14.9369   25.6879 C   0  0  2  0  0  0  0  0  0  0  0  0
    8.2743  -14.5264   24.3710 N   0  0  0  0  0  0  0  0  0  0  0  0
    6.5869  -15.7737   25.6173 C   0  0  0  0  0  0  0  0  0  0  0  0
    6.3010  -16.6317   26.6878 O   0  0  0  0  0  0  0  0  0  0  0  0
    5.7869  -15.7755   24.6526 O   0  0  0  0  0  0  0  0  0  0  0  0
  2  1  1  1
  2  4  1  0
  3  2  1  0
  4  6  1  0
  4  5  1  6
  6  7  2  0
  9  8  1  0
  9 10  1  0
 10 11  1  1
 12 10  1  0
 12 13  1  6
 13  6  1  0
 14 15  2  0
 14 12  1  0
 16 17  1  0
 17 18  1  0
 18 20  1  0
 18 19  1  6
 20 21  1  6
 21 14  1  0
 22 20  1  0
 22 23  1  0
 24 22  2  0
M  END
$$$$
