PSA.pdb
     RDKit          3D

 19 19  0  0  1  0  0  0  0  0999 V2000
    9.0476  -17.6024   20.9877 N   0  0  0  0  0  0  0  0  0  0  0  0
    9.1498  -17.7329   19.5430 C   0  0  0  0  0  0  0  0  0  0  0  0
    8.4477  -16.4874   19.0669 C   0  0  0  0  0  0  0  0  0  0  0  0
    8.8571  -15.4348   20.0763 C   0  0  0  0  0  0  0  0  0  0  0  0
    9.4649  -16.2270   21.1787 C   0  0  1  0  0  0  0  0  0  0  0  0
    9.1472  -15.7416   22.5323 C   0  0  0  0  0  0  0  0  0  0  0  0
    9.5217  -14.5783   22.8328 O   0  0  0  0  0  0  0  0  0  0  0  0
    7.3491  -17.9811   25.6016 O   0  0  0  0  0  0  0  0  0  0  0  0
    6.9636  -16.6832   25.3612 C   0  0  0  0  0  0  0  0  0  0  0  0
    8.0666  -15.8508   24.7385 C   0  0  2  0  0  0  0  0  0  0  0  0
    8.4595  -16.4796   23.5078 N   0  0  0  0  0  0  0  0  0  0  0  0
    9.2223  -15.7047   25.6597 C   0  0  0  0  0  0  0  0  0  0  0  0
   10.2634  -16.4174   25.4799 O   0  0  0  0  0  0  0  0  0  0  0  0
   10.1732  -13.4302   28.5147 C   0  0  0  0  0  0  0  0  0  0  0  0
   10.3261  -14.6832   27.6804 C   0  0  2  0  0  0  0  0  0  0  0  0
    9.2408  -14.8077   26.7443 N   0  0  0  0  0  0  0  0  0  0  0  0
   10.3401  -15.8390   28.6455 C   0  0  0  0  0  0  0  0  0  0  0  0
    9.3278  -16.5797   28.6998 O   0  0  0  0  0  0  0  0  0  0  0  0
   11.4235  -16.0938   29.4551 O   0  0  0  0  0  0  0  0  0  0  0  0
  1  5  1  0
  2  1  1  0
  2  3  1  0
  3  4  1  0
  5  6  1  1
  5  4  1  0
  6  7  2  0
  8  9  1  0
 10  9  1  1
 11 10  1  0
 11  6  1  0
 12 16  1  0
 12 10  1  0
 13 12  2  0
 15 16  1  0
 15 14  1  1
 17 19  1  0
 17 15  1  0
 18 17  2  0
M  END
$$$$
