PSA.pdb
     RDKit          3D

 19 19  0  0  1  0  0  0  0  0999 V2000
    8.4933  -15.2378   20.1709 N   0  0  0  0  0  0  0  0  0  0  0  0
    8.5439  -14.7369   18.8066 C   0  0  0  0  0  0  0  0  0  0  0  0
    7.4832  -13.6667   18.8279 C   0  0  0  0  0  0  0  0  0  0  0  0
    7.6277  -13.0435   20.2010 C   0  0  0  0  0  0  0  0  0  0  0  0
    8.5033  -14.0012   20.9278 C   0  0  1  0  0  0  0  0  0  0  0  0
    8.1385  -14.2196   22.3377 C   0  0  0  0  0  0  0  0  0  0  0  0
    8.0953  -13.2098   23.0876 O   0  0  0  0  0  0  0  0  0  0  0  0
    7.9726  -17.9254   24.4202 O   0  0  0  0  0  0  0  0  0  0  0  0
    7.0027  -16.9625   24.5723 C   0  0  0  0  0  0  0  0  0  0  0  0
    7.5194  -15.5635   24.3018 C   0  0  2  0  0  0  0  0  0  0  0  0
    7.8368  -15.4676   22.9037 N   0  0  0  0  0  0  0  0  0  0  0  0
    8.7018  -15.2493   25.1436 C   0  0  0  0  0  0  0  0  0  0  0  0
    9.8727  -15.4565   24.6851 O   0  0  0  0  0  0  0  0  0  0  0  0
    9.4486  -13.3018   28.2271 C   0  0  0  0  0  0  0  0  0  0  0  0
    9.7352  -14.4648   27.3027 C   0  0  2  0  0  0  0  0  0  0  0  0
    8.6087  -14.7247   26.4465 N   0  0  0  0  0  0  0  0  0  0  0  0
   10.0253  -15.6496   28.1854 C   0  0  0  0  0  0  0  0  0  0  0  0
    9.2341  -16.6238   28.1511 O   0  0  0  0  0  0  0  0  0  0  0  0
   11.1231  -15.6837   29.0148 O   0  0  0  0  0  0  0  0  0  0  0  0
  1  5  1  0
  2  1  1  0
  2  3  1  0
  3  4  1  0
  5  6  1  1
  5  4  1  0
  6  7  2  0
  8  9  1  0
 10  9  1  6
 11 10  1  0
 11  6  1  0
 12 16  1  0
 12 10  1  0
 13 12  2  0
 15 16  1  0
 15 14  1  1
 17 19  1  0
 17 15  1  0
 18 17  2  0
M  END
$$$$
