PSA.pdb
     RDKit          3D

 19 19  0  0  1  0  0  0  0  0999 V2000
    7.8775  -15.3679   20.4866 N   0  0  0  0  0  0  0  0  0  0  0  0
    7.7481  -14.9197   19.1093 C   0  0  0  0  0  0  0  0  0  0  0  0
    7.0538  -13.5928   19.2772 C   0  0  0  0  0  0  0  0  0  0  0  0
    7.6740  -13.0180   20.5340 C   0  0  0  0  0  0  0  0  0  0  0  0
    8.3979  -14.1749   21.1256 C   0  0  1  0  0  0  0  0  0  0  0  0
    8.3212  -14.2626   22.5936 C   0  0  0  0  0  0  0  0  0  0  0  0
    8.7197  -13.2684   23.2545 O   0  0  0  0  0  0  0  0  0  0  0  0
    7.1645  -17.6277   24.8592 O   0  0  0  0  0  0  0  0  0  0  0  0
    6.6421  -16.3812   25.1128 C   0  0  0  0  0  0  0  0  0  0  0  0
    7.5825  -15.2607   24.7162 C   0  0  2  0  0  0  0  0  0  0  0  0
    7.8379  -15.3704   23.3065 N   0  0  0  0  0  0  0  0  0  0  0  0
    8.8453  -15.3102   25.4961 C   0  0  0  0  0  0  0  0  0  0  0  0
    9.8712  -15.8772   24.9959 O   0  0  0  0  0  0  0  0  0  0  0  0
   10.2003  -13.8053   28.6580 C   0  0  0  0  0  0  0  0  0  0  0  0
   10.1567  -14.8916   27.6057 C   0  0  2  0  0  0  0  0  0  0  0  0
    8.9841  -14.7573   26.7831 N   0  0  0  0  0  0  0  0  0  0  0  0
   10.1477  -16.2025   28.3463 C   0  0  0  0  0  0  0  0  0  0  0  0
    9.1066  -16.9028   28.3016 O   0  0  0  0  0  0  0  0  0  0  0  0
   11.2409  -16.6396   29.0590 O   0  0  0  0  0  0  0  0  0  0  0  0
  1  5  1  0
  2  1  1  0
  2  3  1  0
  3  4  1  0
  5  6  1  1
  5  4  1  0
  6  7  2  0
  8  9  1  0
 10  9  1  1
 11 10  1  0
 11  6  1  0
 12 16  1  0
 12 10  1  0
 13 12  2  0
 15 16  1  0
 15 14  1  1
 17 19  1  0
 17 15  1  0
 18 17  2  0
M  END
$$$$
