PSA.pdb
     RDKit          3D

 19 19  0  0  1  0  0  0  0  0999 V2000
    7.3331  -14.9718   19.6988 N   0  0  0  0  0  0  0  0  0  0  0  0
    7.6266  -14.1311   18.5491 C   0  0  0  0  0  0  0  0  0  0  0  0
    7.6098  -12.7529   19.1583 C   0  0  0  0  0  0  0  0  0  0  0  0
    8.2366  -12.9543   20.5225 C   0  0  0  0  0  0  0  0  0  0  0  0
    8.2483  -14.4326   20.6857 C   0  0  1  0  0  0  0  0  0  0  0  0
    7.9285  -14.9039   22.0437 C   0  0  0  0  0  0  0  0  0  0  0  0
    6.7374  -14.7848   22.4323 O   0  0  0  0  0  0  0  0  0  0  0  0
    9.5680  -17.9223   24.1580 O   0  0  0  0  0  0  0  0  0  0  0  0
    8.3657  -17.2992   24.3978 C   0  0  0  0  0  0  0  0  0  0  0  0
    8.4536  -15.7910   24.2763 C   0  0  2  0  0  0  0  0  0  0  0  0
    8.8523  -15.4741   22.9328 N   0  0  0  0  0  0  0  0  0  0  0  0
    9.4022  -15.2209   25.2665 C   0  0  0  0  0  0  0  0  0  0  0  0
   10.6100  -15.0001   24.9251 O   0  0  0  0  0  0  0  0  0  0  0  0
    9.3684  -13.5009   28.5475 C   0  0  0  0  0  0  0  0  0  0  0  0
    9.9757  -14.5309   27.6203 C   0  0  2  0  0  0  0  0  0  0  0  0
    9.0431  -14.9015   26.5896 N   0  0  0  0  0  0  0  0  0  0  0  0
   10.3322  -15.7174   28.4760 C   0  0  0  0  0  0  0  0  0  0  0  0
    9.7127  -16.7931   28.2877 O   0  0  0  0  0  0  0  0  0  0  0  0
   11.3079  -15.6457   29.4440 O   0  0  0  0  0  0  0  0  0  0  0  0
  1  5  1  0
  2  1  1  0
  2  3  1  0
  3  4  1  0
  5  6  1  1
  5  4  1  0
  6  7  2  0
  8  9  1  0
 10  9  1  6
 11 10  1  0
 11  6  1  0
 12 16  1  0
 12 10  1  0
 13 12  2  0
 15 16  1  0
 15 14  1  1
 17 19  1  0
 17 15  1  0
 18 17  2  0
M  END
$$$$
