PSA.pdb
     RDKit          3D

 19 19  0  0  1  0  0  0  0  0999 V2000
    9.5050  -17.9012   17.7129 N   0  0  0  0  0  0  0  0  0  0  0  0
    9.0477  -19.0617   16.9653 C   0  0  0  0  0  0  0  0  0  0  0  0
    9.1545  -20.1574   17.9943 C   0  0  0  0  0  0  0  0  0  0  0  0
    8.7333  -19.4832   19.2837 C   0  0  0  0  0  0  0  0  0  0  0  0
    8.7442  -18.0361   18.9398 C   0  0  1  0  0  0  0  0  0  0  0  0
    9.2583  -17.1555   20.0023 C   0  0  0  0  0  0  0  0  0  0  0  0
   10.4161  -16.6849   19.8543 O   0  0  0  0  0  0  0  0  0  0  0  0
    7.2140  -16.1380   23.5506 O   0  0  0  0  0  0  0  0  0  0  0  0
    8.1550  -15.3094   22.9859 C   0  0  0  0  0  0  0  0  0  0  0  0
    9.2112  -16.0679   22.2073 C   0  0  2  0  0  0  0  0  0  0  0  0
    8.5532  -16.8043   21.1635 N   0  0  0  0  0  0  0  0  0  0  0  0
    9.9930  -16.9704   23.0903 C   0  0  0  0  0  0  0  0  0  0  0  0
    9.6303  -18.1844   23.2278 O   0  0  0  0  0  0  0  0  0  0  0  0
   13.2740  -16.8005   24.9299 C   0  0  0  0  0  0  0  0  0  0  0  0
   11.9228  -17.4193   24.6458 C   0  0  2  0  0  0  0  0  0  0  0  0
   11.1363  -16.5601   23.8016 N   0  0  0  0  0  0  0  0  0  0  0  0
   11.2561  -17.6192   25.9810 C   0  0  0  0  0  0  0  0  0  0  0  0
   10.2752  -16.8909   26.2702 O   0  0  0  0  0  0  0  0  0  0  0  0
   11.6948  -18.5694   26.8749 O   0  0  0  0  0  0  0  0  0  0  0  0
  1  5  1  0
  2  1  1  0
  2  3  1  0
  3  4  1  0
  5  6  1  1
  5  4  1  0
  6  7  2  0
  8  9  1  0
 10  9  1  1
 11 10  1  0
 11  6  1  0
 12 16  1  0
 12 10  1  0
 13 12  2  0
 15 16  1  0
 15 14  1  1
 17 19  1  0
 17 15  1  0
 18 17  2  0
M  END
$$$$
