LQD.pdb
     RDKit          3D

 26 25  0  0  1  0  0  0  0  0999 V2000
    7.3688  -11.9692   19.7565 C   0  0  0  0  0  0  0  0  0  0  0  0
    7.7446  -13.4267   19.8381 C   0  0  1  0  0  0  0  0  0  0  0  0
    8.7009  -13.7349   18.7147 C   0  0  0  0  0  0  0  0  0  0  0  0
    8.3933  -13.7765   21.1480 C   0  0  0  0  0  0  0  0  0  0  0  0
    8.7885  -15.2184   21.1990 C   0  0  2  0  0  0  0  0  0  0  0  0
    7.7065  -16.1224   20.9233 N   0  0  0  0  0  0  0  0  0  0  0  0
    9.3212  -15.5387   22.5569 C   0  0  0  0  0  0  0  0  0  0  0  0
   10.2715  -14.8983   23.0433 O   0  0  0  0  0  0  0  0  0  0  0  0
    6.6320  -19.2636   26.9254 N   0  0  0  0  0  0  0  0  0  0  0  0
    7.8687  -18.8783   27.5191 C   0  0  0  0  0  0  0  0  0  0  0  0
    8.0867  -19.2697   28.6954 O   0  0  0  0  0  0  0  0  0  0  0  0
    8.8669  -18.0451   26.7801 C   0  0  0  0  0  0  0  0  0  0  0  0
    8.2719  -17.6800   25.4436 C   0  0  0  0  0  0  0  0  0  0  0  0
    9.2522  -16.9212   24.5831 C   0  0  2  0  0  0  0  0  0  0  0  0
    8.7273  -16.5892   23.2918 N   0  0  0  0  0  0  0  0  0  0  0  0
   10.4620  -17.7814   24.4280 C   0  0  0  0  0  0  0  0  0  0  0  0
   10.4301  -18.8667   23.7742 O   0  0  0  0  0  0  0  0  0  0  0  0
   11.7146  -17.4359   25.0013 N   0  0  0  0  0  0  0  0  0  0  0  0
   12.8740  -18.2738   24.9379 C   0  0  1  0  0  0  0  0  0  0  0  0
   14.0867  -17.3835   24.7209 C   0  0  0  0  0  0  0  0  0  0  0  0
   14.0483  -16.6693   23.4477 C   0  0  0  0  0  0  0  0  0  0  0  0
   13.4445  -17.1081   22.4398 O   0  0  0  0  0  0  0  0  0  0  0  0
   13.0411  -19.1616   26.0817 C   0  0  0  0  0  0  0  0  0  0  0  0
   12.2996  -19.0737   27.0841 O   0  0  0  0  0  0  0  0  0  0  0  0
   14.7003  -15.4531   23.3269 O   0  0  0  0  0  0  0  0  0  0  0  0
   14.0244  -20.1295   26.0959 O   0  0  0  0  0  0  0  0  0  0  0  0
  2  3  1  6
  2  1  1  0
  4  2  1  0
  5  4  1  0
  5  6  1  1
  7  5  1  0
  8  7  2  0
 10 12  1  0
 10  9  1  0
 11 10  2  0
 14 13  1  1
 13 12  1  0
 14 15  1  0
 15  7  1  0
 16 14  1  0
 17 16  2  0
 18 16  1  0
 19 23  1  0
 19 18  1  0
 19 20  1  1
 21 20  1  0
 21 25  1  0
 22 21  2  0
 23 26  1  0
 24 23  2  0
M  END
$$$$
