LQD.pdb
     RDKit          3D

 26 25  0  0  1  0  0  0  0  0999 V2000
    6.8163  -12.2882   18.9655 C   0  0  0  0  0  0  0  0  0  0  0  0
    8.0857  -13.0992   18.9082 C   0  0  1  0  0  0  0  0  0  0  0  0
    9.2574  -12.1551   18.9932 C   0  0  0  0  0  0  0  0  0  0  0  0
    8.1754  -14.0989   20.0269 C   0  0  0  0  0  0  0  0  0  0  0  0
    9.5379  -14.7106   20.1107 C   0  0  2  0  0  0  0  0  0  0  0  0
    9.9271  -15.4155   18.9209 N   0  0  0  0  0  0  0  0  0  0  0  0
    9.5794  -15.6742   21.2509 C   0  0  0  0  0  0  0  0  0  0  0  0
    9.2477  -15.3272   22.3996 O   0  0  0  0  0  0  0  0  0  0  0  0
    9.1642  -21.8352   20.8500 N   0  0  0  0  0  0  0  0  0  0  0  0
    8.3792  -20.7743   20.3129 C   0  0  0  0  0  0  0  0  0  0  0  0
    7.4895  -21.0848   19.4783 O   0  0  0  0  0  0  0  0  0  0  0  0
    8.5996  -19.3522   20.7205 C   0  0  0  0  0  0  0  0  0  0  0  0
    9.7120  -19.3255   21.7379 C   0  0  0  0  0  0  0  0  0  0  0  0
   10.0991  -17.9144   22.1070 C   0  0  2  0  0  0  0  0  0  0  0  0
   10.0044  -16.9996   21.0082 N   0  0  0  0  0  0  0  0  0  0  0  0
   11.5054  -17.9580   22.6051 C   0  0  0  0  0  0  0  0  0  0  0  0
   11.8935  -18.8357   23.4330 O   0  0  0  0  0  0  0  0  0  0  0  0
   12.4870  -17.0226   22.1828 N   0  0  0  0  0  0  0  0  0  0  0  0
   13.8383  -17.0226   22.6563 C   0  0  1  0  0  0  0  0  0  0  0  0
   14.6277  -16.0231   21.8267 C   0  0  0  0  0  0  0  0  0  0  0  0
   16.0419  -15.9743   22.1878 C   0  0  0  0  0  0  0  0  0  0  0  0
   16.7947  -16.9755   22.1250 O   0  0  0  0  0  0  0  0  0  0  0  0
   13.9773  -16.7812   24.0869 C   0  0  0  0  0  0  0  0  0  0  0  0
   15.0586  -16.9917   24.6776 O   0  0  0  0  0  0  0  0  0  0  0  0
   16.5954  -14.7806   22.6209 O   0  0  0  0  0  0  0  0  0  0  0  0
   12.9188  -16.3119   24.8375 O   0  0  0  0  0  0  0  0  0  0  0  0
  2  3  1  1
  2  1  1  0
  4  2  1  0
  5  4  1  0
  5  6  1  6
  7  5  1  0
  8  7  2  0
 10 12  1  0
 10  9  1  0
 11 10  2  0
 14 13  1  6
 13 12  1  0
 14 15  1  0
 15  7  1  0
 16 14  1  0
 17 16  2  0
 18 16  1  0
 19 23  1  0
 19 18  1  0
 19 20  1  6
 21 20  1  0
 21 25  1  0
 22 21  2  0
 23 26  1  0
 24 23  2  0
M  END
$$$$
