LQD.pdb
     RDKit          3D

 26 25  0  0  1  0  0  0  0  0999 V2000
    6.6182  -12.1848   19.3953 C   0  0  0  0  0  0  0  0  0  0  0  0
    7.4045  -13.4492   19.6300 C   0  0  1  0  0  0  0  0  0  0  0  0
    8.7684  -13.2830   19.0105 C   0  0  0  0  0  0  0  0  0  0  0  0
    7.5614  -13.7608   21.0919 C   0  0  0  0  0  0  0  0  0  0  0  0
    8.4170  -14.9687   21.3087 C   0  0  2  0  0  0  0  0  0  0  0  0
    7.9820  -16.1225   20.5715 N   0  0  0  0  0  0  0  0  0  0  0  0
    8.4166  -15.3224   22.7596 C   0  0  0  0  0  0  0  0  0  0  0  0
    8.7029  -14.4780   23.6284 O   0  0  0  0  0  0  0  0  0  0  0  0
    6.0531  -20.5631   25.4264 N   0  0  0  0  0  0  0  0  0  0  0  0
    6.6696  -19.8756   26.5116 C   0  0  0  0  0  0  0  0  0  0  0  0
    6.6038  -20.4179   27.6457 O   0  0  0  0  0  0  0  0  0  0  0  0
    7.3655  -18.5663   26.3159 C   0  0  0  0  0  0  0  0  0  0  0  0
    7.2922  -18.2132   24.8519 C   0  0  0  0  0  0  0  0  0  0  0  0
    8.1315  -17.0023   24.5255 C   0  0  2  0  0  0  0  0  0  0  0  0
    8.0838  -16.6420   23.1394 N   0  0  0  0  0  0  0  0  0  0  0  0
    9.5369  -17.3211   24.9140 C   0  0  0  0  0  0  0  0  0  0  0  0
    9.8356  -17.7024   26.0853 O   0  0  0  0  0  0  0  0  0  0  0  0
   10.6173  -17.2164   23.9983 N   0  0  0  0  0  0  0  0  0  0  0  0
   11.9860  -17.4342   24.3582 C   0  0  1  0  0  0  0  0  0  0  0  0
   12.8060  -17.4885   23.0796 C   0  0  0  0  0  0  0  0  0  0  0  0
   12.3967  -18.5688   22.1862 C   0  0  0  0  0  0  0  0  0  0  0  0
   11.7161  -19.5492   22.5718 O   0  0  0  0  0  0  0  0  0  0  0  0
   12.5201  -16.4715   25.3135 C   0  0  0  0  0  0  0  0  0  0  0  0
   13.6920  -16.5626   25.7388 O   0  0  0  0  0  0  0  0  0  0  0  0
   12.7657  -18.5282   20.8516 O   0  0  0  0  0  0  0  0  0  0  0  0
   11.7492  -15.4267   25.7803 O   0  0  0  0  0  0  0  0  0  0  0  0
  2  3  1  1
  2  1  1  0
  4  2  1  0
  5  4  1  0
  5  6  1  6
  7  5  1  0
  8  7  2  0
 10 12  1  0
 10  9  1  0
 11 10  2  0
 14 13  1  6
 13 12  1  0
 14 15  1  0
 15  7  1  0
 16 14  1  0
 17 16  2  0
 18 16  1  0
 19 23  1  0
 19 18  1  0
 19 20  1  6
 21 20  1  0
 21 25  1  0
 22 21  2  0
 23 26  1  0
 24 23  2  0
M  END
$$$$
