LQD.pdb
     RDKit          3D

 26 25  0  0  1  0  0  0  0  0999 V2000
    5.4855  -12.0047   27.4157 C   0  0  0  0  0  0  0  0  0  0  0  0
    6.1296  -12.1791   26.0641 C   0  0  1  0  0  0  0  0  0  0  0  0
    7.3250  -11.2646   25.9853 C   0  0  0  0  0  0  0  0  0  0  0  0
    6.5743  -13.5943   25.8220 C   0  0  0  0  0  0  0  0  0  0  0  0
    7.9171  -13.6447   25.1646 C   0  0  2  0  0  0  0  0  0  0  0  0
    7.9792  -12.9211   23.9250 N   0  0  0  0  0  0  0  0  0  0  0  0
    8.2797  -15.0664   24.8863 C   0  0  0  0  0  0  0  0  0  0  0  0
    7.9150  -15.9842   25.6442 O   0  0  0  0  0  0  0  0  0  0  0  0
    9.8151  -17.4545   19.2974 N   0  0  0  0  0  0  0  0  0  0  0  0
    8.5318  -17.0295   19.7478 C   0  0  0  0  0  0  0  0  0  0  0  0
    7.6372  -16.8826   18.8745 O   0  0  0  0  0  0  0  0  0  0  0  0
    8.2557  -16.7682   21.1942 C   0  0  0  0  0  0  0  0  0  0  0  0
    9.5372  -16.9809   21.9597 C   0  0  0  0  0  0  0  0  0  0  0  0
    9.3557  -16.7281   23.4363 C   0  0  2  0  0  0  0  0  0  0  0  0
    9.0505  -15.3613   23.7394 N   0  0  0  0  0  0  0  0  0  0  0  0
   10.6276  -17.1209   24.1114 C   0  0  0  0  0  0  0  0  0  0  0  0
   11.6513  -16.3739   24.0933 O   0  0  0  0  0  0  0  0  0  0  0  0
   10.7649  -18.3493   24.8107 N   0  0  0  0  0  0  0  0  0  0  0  0
   12.0008  -18.8116   25.3666 C   0  0  1  0  0  0  0  0  0  0  0  0
   11.6782  -19.8185   26.4586 C   0  0  0  0  0  0  0  0  0  0  0  0
   11.0368  -19.2114   27.6216 C   0  0  0  0  0  0  0  0  0  0  0  0
   11.3882  -18.1025   28.0904 O   0  0  0  0  0  0  0  0  0  0  0  0
   12.9418  -19.3434   24.3889 C   0  0  0  0  0  0  0  0  0  0  0  0
   14.1208  -19.6136   24.7045 O   0  0  0  0  0  0  0  0  0  0  0  0
    9.9934  -19.8723   28.2488 O   0  0  0  0  0  0  0  0  0  0  0  0
   12.5622  -19.5664   23.0811 O   0  0  0  0  0  0  0  0  0  0  0  0
  2  3  1  1
  2  1  1  0
  4  2  1  0
  5  4  1  0
  5  6  1  6
  7  5  1  0
  8  7  2  0
 10 12  1  0
 10  9  1  0
 11 10  2  0
 14 13  1  6
 13 12  1  0
 14 15  1  0
 15  7  1  0
 16 14  1  0
 17 16  2  0
 18 16  1  0
 19 23  1  0
 19 18  1  0
 19 20  1  1
 21 20  1  0
 21 25  1  0
 22 21  2  0
 23 26  1  0
 24 23  2  0
M  END
$$$$
