LQD.pdb
     RDKit          3D

 26 25  0  0  1  0  0  0  0  0999 V2000
    6.9968  -11.9284   19.1522 C   0  0  0  0  0  0  0  0  0  0  0  0
    7.6753  -13.2498   19.4083 C   0  0  1  0  0  0  0  0  0  0  0  0
    9.0905  -13.1648   18.8970 C   0  0  0  0  0  0  0  0  0  0  0  0
    7.6987  -13.6059   20.8683 C   0  0  0  0  0  0  0  0  0  0  0  0
    8.4248  -14.8914   21.1100 C   0  0  2  0  0  0  0  0  0  0  0  0
    7.8287  -16.0218   20.4536 N   0  0  0  0  0  0  0  0  0  0  0  0
    8.4570  -15.1745   22.5759 C   0  0  0  0  0  0  0  0  0  0  0  0
    8.8669  -14.3239   23.3872 O   0  0  0  0  0  0  0  0  0  0  0  0
    6.5763  -20.1538   25.6661 N   0  0  0  0  0  0  0  0  0  0  0  0
    6.7718  -19.2146   26.7197 C   0  0  0  0  0  0  0  0  0  0  0  0
    6.6930  -19.6500   27.8982 O   0  0  0  0  0  0  0  0  0  0  0  0
    7.0583  -17.7732   26.4418 C   0  0  0  0  0  0  0  0  0  0  0  0
    6.9651  -17.5578   24.9524 C   0  0  0  0  0  0  0  0  0  0  0  0
    8.1259  -16.7469   24.4305 C   0  0  2  0  0  0  0  0  0  0  0  0
    8.0116  -16.4337   23.0369 N   0  0  0  0  0  0  0  0  0  0  0  0
    9.3644  -17.5459   24.6662 C   0  0  0  0  0  0  0  0  0  0  0  0
    9.5821  -18.6355   24.0564 O   0  0  0  0  0  0  0  0  0  0  0  0
   10.3673  -17.1341   25.5836 N   0  0  0  0  0  0  0  0  0  0  0  0
   11.5439  -17.8987   25.8683 C   0  0  1  0  0  0  0  0  0  0  0  0
   12.7514  -16.9992   25.6604 C   0  0  0  0  0  0  0  0  0  0  0  0
   13.0989  -16.8289   24.2522 C   0  0  0  0  0  0  0  0  0  0  0  0
   12.4712  -17.3921   23.3240 O   0  0  0  0  0  0  0  0  0  0  0  0
   11.5498  -18.5325   27.1808 C   0  0  0  0  0  0  0  0  0  0  0  0
   12.4635  -19.3161   27.5179 O   0  0  0  0  0  0  0  0  0  0  0  0
   14.1644  -16.0145   23.9054 O   0  0  0  0  0  0  0  0  0  0  0  0
   10.5461  -18.2882   28.0956 O   0  0  0  0  0  0  0  0  0  0  0  0
  2  3  1  1
  2  1  1  0
  4  2  1  0
  5  4  1  0
  5  6  1  6
  7  5  1  0
  8  7  2  0
 10 12  1  0
 10  9  1  0
 11 10  2  0
 14 13  1  6
 13 12  1  0
 14 15  1  0
 15  7  1  0
 16 14  1  0
 17 16  2  0
 18 16  1  0
 19 23  1  0
 19 18  1  0
 19 20  1  1
 21 20  1  0
 21 25  1  0
 22 21  2  0
 23 26  1  0
 24 23  2  0
M  END
$$$$
