LQD.pdb
     RDKit          3D

 26 25  0  0  1  0  0  0  0  0999 V2000
    7.3269  -12.1719   18.7950 C   0  0  0  0  0  0  0  0  0  0  0  0
    7.5613  -13.5763   19.2900 C   0  0  1  0  0  0  0  0  0  0  0  0
    8.1080  -14.3972   18.1503 C   0  0  0  0  0  0  0  0  0  0  0  0
    8.5283  -13.6226   20.4396 C   0  0  0  0  0  0  0  0  0  0  0  0
    8.6298  -14.9981   21.0188 C   0  0  2  0  0  0  0  0  0  0  0  0
    7.3782  -15.7026   21.0527 N   0  0  0  0  0  0  0  0  0  0  0  0
    9.1467  -14.9103   22.4171 C   0  0  0  0  0  0  0  0  0  0  0  0
   10.2591  -14.4081   22.6621 O   0  0  0  0  0  0  0  0  0  0  0  0
    5.9215  -13.6699   27.4517 N   0  0  0  0  0  0  0  0  0  0  0  0
    6.5227  -12.7789   26.5163 C   0  0  0  0  0  0  0  0  0  0  0  0
    6.1824  -11.5685   26.5768 O   0  0  0  0  0  0  0  0  0  0  0  0
    7.5153  -13.2571   25.5049 C   0  0  0  0  0  0  0  0  0  0  0  0
    7.7676  -14.7224   25.7553 C   0  0  0  0  0  0  0  0  0  0  0  0
    8.8138  -15.2780   24.8203 C   0  0  2  0  0  0  0  0  0  0  0  0
    8.3492  -15.4096   23.4712 N   0  0  0  0  0  0  0  0  0  0  0  0
    9.2118  -16.6163   25.3478 C   0  0  0  0  0  0  0  0  0  0  0  0
    8.4673  -17.6337   25.2173 O   0  0  0  0  0  0  0  0  0  0  0  0
   10.4426  -16.8275   26.0241 N   0  0  0  0  0  0  0  0  0  0  0  0
   10.8241  -18.0797   26.6043 C   0  0  1  0  0  0  0  0  0  0  0  0
   12.2800  -18.3376   26.2517 C   0  0  0  0  0  0  0  0  0  0  0  0
   12.5424  -18.2516   24.8177 C   0  0  0  0  0  0  0  0  0  0  0  0
   11.9146  -18.9295   23.9696 O   0  0  0  0  0  0  0  0  0  0  0  0
   10.5791  -18.1813   28.0375 C   0  0  0  0  0  0  0  0  0  0  0  0
   10.1676  -17.2014   28.6956 O   0  0  0  0  0  0  0  0  0  0  0  0
   13.5230  -17.3904   24.3533 O   0  0  0  0  0  0  0  0  0  0  0  0
   10.7935  -19.3635   28.7160 O   0  0  0  0  0  0  0  0  0  0  0  0
  2  3  1  6
  2  1  1  0
  4  2  1  0
  5  4  1  0
  5  6  1  1
  7  5  1  0
  8  7  2  0
 10 12  1  0
 10  9  1  0
 11 10  2  0
 14 13  1  1
 13 12  1  0
 14 15  1  0
 15  7  1  0
 16 14  1  0
 17 16  2  0
 18 16  1  0
 19 23  1  0
 19 18  1  0
 19 20  1  1
 21 20  1  0
 21 25  1  0
 22 21  2  0
 23 26  1  0
 24 23  2  0
M  END
$$$$
