LQD.pdb
     RDKit          3D

 26 25  0  0  1  0  0  0  0  0999 V2000
    7.2022  -12.3590   17.4694 C   0  0  0  0  0  0  0  0  0  0  0  0
    7.7133  -13.6816   17.9808 C   0  0  1  0  0  0  0  0  0  0  0  0
    8.6652  -14.2505   16.9602 C   0  0  0  0  0  0  0  0  0  0  0  0
    8.4243  -13.5481   19.2982 C   0  0  0  0  0  0  0  0  0  0  0  0
    8.7901  -14.8837   19.8643 C   0  0  2  0  0  0  0  0  0  0  0  0
    7.7297  -15.8501   19.7918 N   0  0  0  0  0  0  0  0  0  0  0  0
    9.1719  -14.7260   21.2994 C   0  0  0  0  0  0  0  0  0  0  0  0
   10.1464  -14.0271   21.6335 O   0  0  0  0  0  0  0  0  0  0  0  0
    5.8340  -14.8534   27.4341 N   0  0  0  0  0  0  0  0  0  0  0  0
    6.6560  -14.0208   26.6208 C   0  0  0  0  0  0  0  0  0  0  0  0
    6.3133  -12.8152   26.5038 O   0  0  0  0  0  0  0  0  0  0  0  0
    7.8739  -14.5523   25.9344 C   0  0  0  0  0  0  0  0  0  0  0  0
    7.5009  -14.8815   24.5111 C   0  0  0  0  0  0  0  0  0  0  0  0
    8.7171  -15.1778   23.6681 C   0  0  2  0  0  0  0  0  0  0  0  0
    8.4054  -15.3871   22.2853 N   0  0  0  0  0  0  0  0  0  0  0  0
    9.3564  -16.4037   24.2304 C   0  0  0  0  0  0  0  0  0  0  0  0
    8.8976  -17.5622   23.9985 O   0  0  0  0  0  0  0  0  0  0  0  0
   10.5113  -16.3444   25.0548 N   0  0  0  0  0  0  0  0  0  0  0  0
   11.1470  -17.4993   25.6137 C   0  0  1  0  0  0  0  0  0  0  0  0
   12.6505  -17.3179   25.4841 C   0  0  0  0  0  0  0  0  0  0  0  0
   13.1510  -17.6463   24.1520 C   0  0  0  0  0  0  0  0  0  0  0  0
   12.4003  -18.0005   23.2118 O   0  0  0  0  0  0  0  0  0  0  0  0
   10.7461  -17.8077   26.9806 C   0  0  0  0  0  0  0  0  0  0  0  0
   10.0129  -17.0322   27.6315 O   0  0  0  0  0  0  0  0  0  0  0  0
   14.5100  -17.5697   23.8949 O   0  0  0  0  0  0  0  0  0  0  0  0
   11.1630  -18.9669   27.6023 O   0  0  0  0  0  0  0  0  0  0  0  0
  2  3  1  6
  2  1  1  0
  4  2  1  0
  5  4  1  0
  5  6  1  1
  7  5  1  0
  8  7  2  0
 10 12  1  0
 10  9  1  0
 11 10  2  0
 14 13  1  1
 13 12  1  0
 14 15  1  0
 15  7  1  0
 16 14  1  0
 17 16  2  0
 18 16  1  0
 19 23  1  0
 19 18  1  0
 19 20  1  1
 21 20  1  0
 21 25  1  0
 22 21  2  0
 23 26  1  0
 24 23  2  0
M  END
$$$$
