LQD.pdb
     RDKit          3D

 26 25  0  0  1  0  0  0  0  0999 V2000
    7.5496  -12.0789   20.0767 C   0  0  0  0  0  0  0  0  0  0  0  0
    7.8765  -13.5494   20.0232 C   0  0  1  0  0  0  0  0  0  0  0  0
    8.7329  -13.8023   18.8090 C   0  0  0  0  0  0  0  0  0  0  0  0
    8.6093  -14.0163   21.2496 C   0  0  0  0  0  0  0  0  0  0  0  0
    8.9217  -15.4776   21.1814 C   0  0  2  0  0  0  0  0  0  0  0  0
    7.7763  -16.2992   20.9040 N   0  0  0  0  0  0  0  0  0  0  0  0
    9.5022  -15.9217   22.4837 C   0  0  0  0  0  0  0  0  0  0  0  0
   10.4786  -15.3357   22.9868 O   0  0  0  0  0  0  0  0  0  0  0  0
    6.1686  -18.7636   23.9737 N   0  0  0  0  0  0  0  0  0  0  0  0
    6.1753  -17.6489   24.8613 C   0  0  0  0  0  0  0  0  0  0  0  0
    5.1275  -16.9536   24.9170 O   0  0  0  0  0  0  0  0  0  0  0  0
    7.3734  -17.3161   25.6924 C   0  0  0  0  0  0  0  0  0  0  0  0
    8.5065  -18.2103   25.2568 C   0  0  0  0  0  0  0  0  0  0  0  0
    9.4934  -17.4771   24.3817 C   0  0  2  0  0  0  0  0  0  0  0  0
    8.9237  -17.0276   23.1461 N   0  0  0  0  0  0  0  0  0  0  0  0
   10.6200  -18.4159   24.1037 C   0  0  0  0  0  0  0  0  0  0  0  0
   10.5835  -19.2349   23.1371 O   0  0  0  0  0  0  0  0  0  0  0  0
   11.7938  -18.4467   24.9024 N   0  0  0  0  0  0  0  0  0  0  0  0
   13.0973  -18.7368   24.3858 C   0  0  1  0  0  0  0  0  0  0  0  0
   13.3779  -17.7702   23.2467 C   0  0  0  0  0  0  0  0  0  0  0  0
   14.7188  -17.9218   22.6885 C   0  0  0  0  0  0  0  0  0  0  0  0
   15.1375  -17.2322   21.7282 O   0  0  0  0  0  0  0  0  0  0  0  0
   14.1583  -18.7317   25.3852 C   0  0  0  0  0  0  0  0  0  0  0  0
   15.2657  -19.2650   25.1573 O   0  0  0  0  0  0  0  0  0  0  0  0
   15.5810  -18.8621   23.2281 O   0  0  0  0  0  0  0  0  0  0  0  0
   13.9754  -18.1376   26.6170 O   0  0  0  0  0  0  0  0  0  0  0  0
  2  3  1  6
  2  1  1  0
  4  2  1  0
  5  4  1  0
  5  6  1  1
  7  5  1  0
  8  7  2  0
 10 12  1  0
 10  9  1  0
 11 10  2  0
 14 13  1  1
 13 12  1  0
 14 15  1  0
 15  7  1  0
 16 14  1  0
 17 16  2  0
 18 16  1  0
 19 23  1  0
 19 18  1  0
 19 20  1  6
 21 20  1  0
 21 25  1  0
 22 21  2  0
 23 26  1  0
 24 23  2  0
M  END
$$$$
