LQD.pdb
     RDKit          3D

 26 25  0  0  1  0  0  0  0  0999 V2000
    5.3737  -11.4850   26.5953 C   0  0  0  0  0  0  0  0  0  0  0  0
    6.7396  -12.0968   26.4157 C   0  0  1  0  0  0  0  0  0  0  0  0
    7.3643  -12.2731   27.7759 C   0  0  0  0  0  0  0  0  0  0  0  0
    6.6817  -13.4293   25.7229 C   0  0  0  0  0  0  0  0  0  0  0  0
    8.0023  -14.1306   25.7668 C   0  0  2  0  0  0  0  0  0  0  0  0
    9.1240  -13.2609   25.5446 N   0  0  0  0  0  0  0  0  0  0  0  0
    8.0324  -15.1968   24.7217 C   0  0  0  0  0  0  0  0  0  0  0  0
    7.2029  -16.1251   24.7247 O   0  0  0  0  0  0  0  0  0  0  0  0
    5.5777  -15.2022   21.1418 N   0  0  0  0  0  0  0  0  0  0  0  0
    6.8682  -15.4959   20.6138 C   0  0  0  0  0  0  0  0  0  0  0  0
    6.9467  -16.4367   19.7811 O   0  0  0  0  0  0  0  0  0  0  0  0
    8.0794  -14.7226   21.0284 C   0  0  0  0  0  0  0  0  0  0  0  0
    9.1796  -15.7071   21.3340 C   0  0  0  0  0  0  0  0  0  0  0  0
    9.1095  -16.2005   22.7585 C   0  0  2  0  0  0  0  0  0  0  0  0
    9.0248  -15.1393   23.7176 N   0  0  0  0  0  0  0  0  0  0  0  0
   10.3407  -17.0065   23.0080 C   0  0  0  0  0  0  0  0  0  0  0  0
   10.5802  -18.0746   22.3689 O   0  0  0  0  0  0  0  0  0  0  0  0
   11.3118  -16.6259   23.9717 N   0  0  0  0  0  0  0  0  0  0  0  0
   12.4259  -17.4458   24.3416 C   0  0  1  0  0  0  0  0  0  0  0  0
   13.6740  -16.5784   24.3267 C   0  0  0  0  0  0  0  0  0  0  0  0
   14.3076  -16.5148   23.0125 C   0  0  0  0  0  0  0  0  0  0  0  0
   13.8224  -17.0669   21.9962 O   0  0  0  0  0  0  0  0  0  0  0  0
   12.2626  -18.1527   25.6057 C   0  0  0  0  0  0  0  0  0  0  0  0
   11.2704  -17.9495   26.3384 O   0  0  0  0  0  0  0  0  0  0  0  0
   15.4962  -15.8198   22.8602 O   0  0  0  0  0  0  0  0  0  0  0  0
   13.1987  -19.0706   26.0361 O   0  0  0  0  0  0  0  0  0  0  0  0
  2  3  1  1
  2  1  1  0
  4  2  1  0
  5  4  1  0
  5  6  1  6
  7  5  1  0
  8  7  2  0
 10 12  1  0
 10  9  1  0
 11 10  2  0
 14 13  1  6
 13 12  1  0
 14 15  1  0
 15  7  1  0
 16 14  1  0
 17 16  2  0
 18 16  1  0
 19 23  1  0
 19 18  1  0
 19 20  1  1
 21 20  1  0
 21 25  1  0
 22 21  2  0
 23 26  1  0
 24 23  2  0
M  END
$$$$
