AIV.pdb
     RDKit          3D

 21 20  0  0  1  0  0  0  0  0999 V2000
   28.5463  -38.8092  -10.3280 C   0  0  0  0  0  0  0  0  0  0  0  0
   28.1457  -37.3927  -10.6783 C   0  0  2  0  0  0  0  0  0  0  0  0
   28.6321  -37.0448  -11.9775 N   0  0  0  0  0  0  0  0  0  0  0  0
   28.6220  -36.4112   -9.6888 C   0  0  0  0  0  0  0  0  0  0  0  0
   29.8037  -36.0076   -9.7624 O   0  0  0  0  0  0  0  0  0  0  0  0
   25.4238  -32.2410   -8.0434 C   0  0  0  0  0  0  0  0  0  0  0  0
   26.4943  -33.1940   -8.4243 C   0  0  0  0  0  0  0  0  0  0  0  0
   27.2677  -33.8302   -7.3350 C   0  0  2  0  0  0  0  0  0  0  0  0
   27.8433  -32.8062   -6.3774 C   0  0  0  0  0  0  0  0  0  0  0  0
   28.2722  -34.8634   -7.7372 C   0  0  2  0  0  0  0  0  0  0  0  0
   27.8183  -35.8747   -8.6293 N   0  0  0  0  0  0  0  0  0  0  0  0
   28.8969  -35.4154   -6.4880 C   0  0  0  0  0  0  0  0  0  0  0  0
   28.2947  -36.2476   -5.7659 O   0  0  0  0  0  0  0  0  0  0  0  0
   32.9536  -35.8568   -6.1508 C   0  0  0  0  0  0  0  0  0  0  0  0
   32.3092  -35.3541   -4.8777 C   0  0  1  0  0  0  0  0  0  0  0  0
   32.5598  -33.8434   -4.8428 C   0  0  0  0  0  0  0  0  0  0  0  0
   30.8214  -35.6343   -4.9273 C   0  0  2  0  0  0  0  0  0  0  0  0
   30.2092  -35.0144   -6.0667 N   0  0  0  0  0  0  0  0  0  0  0  0
   30.2182  -35.0853   -3.6939 C   0  0  0  0  0  0  0  0  0  0  0  0
   29.3988  -33.9648   -3.6669 O   0  0  0  0  0  0  0  0  0  0  0  0
   30.4522  -35.6553   -2.6022 O   0  0  0  0  0  0  0  0  0  0  0  0
  2  1  1  1
  2  4  1  0
  3  2  1  0
  4 11  1  0
  4  5  2  0
  7  6  1  0
  7  8  1  0
  8 10  1  0
  8  9  1  6
 10 12  1  0
 10 11  1  1
 12 13  2  0
 15 14  1  6
 15 17  1  0
 16 15  1  0
 17 19  1  0
 18 12  1  0
 17 18  1  6
 19 20  1  0
 21 19  2  0
M  END
$$$$
