AIV.pdb
     RDKit          3D

 21 20  0  0  1  0  0  0  0  0999 V2000
   27.9263  -18.8584  -15.2266 C   0  0  0  0  0  0  0  0  0  0  0  0
   28.2931  -20.0364  -14.3505 C   0  0  2  0  0  0  0  0  0  0  0  0
   29.0229  -21.0088  -15.1040 N   0  0  0  0  0  0  0  0  0  0  0  0
   27.1147  -20.6674  -13.7320 C   0  0  0  0  0  0  0  0  0  0  0  0
   26.5840  -21.6437  -14.3063 O   0  0  0  0  0  0  0  0  0  0  0  0
   26.3196  -20.5025   -8.2466 C   0  0  0  0  0  0  0  0  0  0  0  0
   26.2660  -21.0700   -9.6157 C   0  0  0  0  0  0  0  0  0  0  0  0
   25.1377  -20.6657  -10.4836 C   0  0  2  0  0  0  0  0  0  0  0  0
   23.8235  -21.2576  -10.0150 C   0  0  0  0  0  0  0  0  0  0  0  0
   25.3366  -20.8139  -11.9590 C   0  0  2  0  0  0  0  0  0  0  0  0
   26.5203  -20.2384  -12.4996 N   0  0  0  0  0  0  0  0  0  0  0  0
   24.0858  -20.3458  -12.6459 C   0  0  0  0  0  0  0  0  0  0  0  0
   23.7665  -19.1317  -12.6713 O   0  0  0  0  0  0  0  0  0  0  0  0
   23.1289  -20.8390  -16.1718 C   0  0  0  0  0  0  0  0  0  0  0  0
   21.9313  -21.3180  -15.3812 C   0  0  1  0  0  0  0  0  0  0  0  0
   22.0095  -22.8478  -15.3773 C   0  0  0  0  0  0  0  0  0  0  0  0
   22.0239  -20.7881  -13.9651 C   0  0  2  0  0  0  0  0  0  0  0  0
   23.2024  -21.2672  -13.3025 N   0  0  0  0  0  0  0  0  0  0  0  0
   20.8296  -21.2565  -13.2298 C   0  0  0  0  0  0  0  0  0  0  0  0
   19.5487  -20.7651  -13.4433 O   0  0  0  0  0  0  0  0  0  0  0  0
   20.9677  -22.1487  -12.3602 O   0  0  0  0  0  0  0  0  0  0  0  0
  2  1  1  6
  2  4  1  0
  3  2  1  0
  4 11  1  0
  4  5  2  0
  7  6  1  0
  7  8  1  0
  8 10  1  0
  8  9  1  1
 10 12  1  0
 10 11  1  6
 12 13  2  0
 15 14  1  6
 15 17  1  0
 16 15  1  0
 17 19  1  0
 18 12  1  0
 17 18  1  1
 19 20  1  0
 21 19  2  0
M  END
$$$$
