AIV.pdb
     RDKit          3D

 21 20  0  0  1  0  0  0  0  0999 V2000
   27.8666  -19.2339  -15.7498 C   0  0  0  0  0  0  0  0  0  0  0  0
   28.2676  -20.3136  -14.7683 C   0  0  2  0  0  0  0  0  0  0  0  0
   28.9017  -21.3977  -15.4526 N   0  0  0  0  0  0  0  0  0  0  0  0
   27.1252  -20.8177  -13.9872 C   0  0  0  0  0  0  0  0  0  0  0  0
   26.3844  -21.6870  -14.4971 O   0  0  0  0  0  0  0  0  0  0  0  0
   26.9887  -20.4861   -8.3365 C   0  0  0  0  0  0  0  0  0  0  0  0
   26.8607  -20.9583   -9.7364 C   0  0  0  0  0  0  0  0  0  0  0  0
   25.6354  -20.5863  -10.4780 C   0  0  2  0  0  0  0  0  0  0  0  0
   24.3855  -21.1251   -9.8115 C   0  0  0  0  0  0  0  0  0  0  0  0
   25.6433  -20.8262  -11.9547 C   0  0  2  0  0  0  0  0  0  0  0  0
   26.7933  -20.3786  -12.6630 N   0  0  0  0  0  0  0  0  0  0  0  0
   24.3579  -20.2930  -12.5191 C   0  0  0  0  0  0  0  0  0  0  0  0
   24.0958  -19.0651  -12.5075 O   0  0  0  0  0  0  0  0  0  0  0  0
   22.0576  -22.6719  -15.0969 C   0  0  0  0  0  0  0  0  0  0  0  0
   22.0492  -21.1596  -15.1410 C   0  0  1  0  0  0  0  0  0  0  0  0
   20.6821  -20.7590  -15.7039 C   0  0  0  0  0  0  0  0  0  0  0  0
   22.2127  -20.6187  -13.7356 C   0  0  2  0  0  0  0  0  0  0  0  0
   23.3743  -21.1652  -13.0957 N   0  0  0  0  0  0  0  0  0  0  0  0
   21.0100  -20.9985  -12.9638 C   0  0  0  0  0  0  0  0  0  0  0  0
   19.8594  -20.2243  -12.8955 O   0  0  0  0  0  0  0  0  0  0  0  0
   21.0162  -22.0798  -12.3298 O   0  0  0  0  0  0  0  0  0  0  0  0
  2  1  1  6
  2  4  1  0
  3  2  1  0
  4 11  1  0
  4  5  2  0
  7  6  1  0
  7  8  1  0
  8 10  1  0
  8  9  1  1
 10 12  1  0
 10 11  1  6
 12 13  2  0
 15 14  1  1
 15 17  1  0
 16 15  1  0
 17 19  1  0
 18 12  1  0
 17 18  1  1
 19 20  1  0
 21 19  2  0
M  END
$$$$
