AIV.pdb
     RDKit          3D

 21 20  0  0  1  0  0  0  0  0999 V2000
   18.1925  -11.1845  -20.4833 C   0  0  0  0  0  0  0  0  0  0  0  0
   19.2915  -11.7765  -19.6281 C   0  0  2  0  0  0  0  0  0  0  0  0
   19.0261  -13.1565  -19.3618 N   0  0  0  0  0  0  0  0  0  0  0  0
   19.4718  -11.0501  -18.3596 C   0  0  0  0  0  0  0  0  0  0  0  0
   18.5230  -11.0169  -17.5451 O   0  0  0  0  0  0  0  0  0  0  0  0
   23.1813  -10.2570  -13.6393 C   0  0  0  0  0  0  0  0  0  0  0  0
   22.1232   -9.7011  -14.5172 C   0  0  0  0  0  0  0  0  0  0  0  0
   21.9586  -10.3010  -15.8598 C   0  0  2  0  0  0  0  0  0  0  0  0
   23.2762  -10.3946  -16.6029 C   0  0  0  0  0  0  0  0  0  0  0  0
   20.8600   -9.7505  -16.7131 C   0  0  2  0  0  0  0  0  0  0  0  0
   20.6745  -10.3664  -17.9823 N   0  0  0  0  0  0  0  0  0  0  0  0
   21.0404   -8.2621  -16.8000 C   0  0  0  0  0  0  0  0  0  0  0  0
   22.0558   -7.7547  -17.3369 O   0  0  0  0  0  0  0  0  0  0  0  0
   18.7209   -5.9302  -18.4650 C   0  0  0  0  0  0  0  0  0  0  0  0
   18.9350   -5.3522  -17.0834 C   0  0  1  0  0  0  0  0  0  0  0  0
   17.7136   -5.7652  -16.2565 C   0  0  0  0  0  0  0  0  0  0  0  0
   20.1940   -5.9445  -16.4844 C   0  0  2  0  0  0  0  0  0  0  0  0
   20.0592   -7.3567  -16.2727 N   0  0  0  0  0  0  0  0  0  0  0  0
   20.4307   -5.2795  -15.1851 C   0  0  0  0  0  0  0  0  0  0  0  0
   21.0026   -4.0212  -15.0538 O   0  0  0  0  0  0  0  0  0  0  0  0
   20.1004   -5.8757  -14.1330 O   0  0  0  0  0  0  0  0  0  0  0  0
  2  1  1  1
  2  4  1  0
  3  2  1  0
  4 11  1  0
  4  5  2  0
  7  6  1  0
  7  8  1  0
  8 10  1  0
  8  9  1  6
 10 12  1  0
 10 11  1  6
 12 13  2  0
 15 14  1  6
 15 17  1  0
 16 15  1  0
 17 19  1  0
 18 12  1  0
 17 18  1  1
 19 20  1  0
 21 19  2  0
M  END
$$$$
