AIV.pdb
     RDKit          3D

 21 20  0  0  1  0  0  0  0  0999 V2000
   20.6114  -20.6357  -15.1575 C   0  0  0  0  0  0  0  0  0  0  0  0
   21.0786  -20.7795  -13.7254 C   0  0  2  0  0  0  0  0  0  0  0  0
   20.2111  -20.0604  -12.8445 N   0  0  0  0  0  0  0  0  0  0  0  0
   22.4671  -20.3258  -13.5373 C   0  0  0  0  0  0  0  0  0  0  0  0
   22.7524  -19.1366  -13.8002 O   0  0  0  0  0  0  0  0  0  0  0  0
   25.4090  -21.0246   -9.0936 C   0  0  0  0  0  0  0  0  0  0  0  0
   24.8185  -20.6303  -10.3955 C   0  0  0  0  0  0  0  0  0  0  0  0
   25.5485  -21.0112  -11.6249 C   0  0  2  0  0  0  0  0  0  0  0  0
   26.9895  -20.5424  -11.5952 C   0  0  0  0  0  0  0  0  0  0  0  0
   24.8770  -20.7097  -12.9274 C   0  0  2  0  0  0  0  0  0  0  0  0
   23.5345  -21.1600  -13.0671 N   0  0  0  0  0  0  0  0  0  0  0  0
   25.7760  -21.1814  -14.0340 C   0  0  0  0  0  0  0  0  0  0  0  0
   25.8838  -22.4000  -14.3172 O   0  0  0  0  0  0  0  0  0  0  0  0
   26.5651  -18.7855  -17.3100 C   0  0  0  0  0  0  0  0  0  0  0  0
   27.7625  -19.5644  -16.8116 C   0  0  1  0  0  0  0  0  0  0  0  0
   28.5826  -18.5864  -15.9648 C   0  0  0  0  0  0  0  0  0  0  0  0
   27.2852  -20.7202  -15.9568 C   0  0  2  0  0  0  0  0  0  0  0  0
   26.5502  -20.2587  -14.8148 N   0  0  0  0  0  0  0  0  0  0  0  0
   28.4780  -21.4638  -15.4978 C   0  0  0  0  0  0  0  0  0  0  0  0
   29.1867  -22.3545  -16.2930 O   0  0  0  0  0  0  0  0  0  0  0  0
   28.8837  -21.2892  -14.3247 O   0  0  0  0  0  0  0  0  0  0  0  0
  2  1  1  6
  2  4  1  0
  3  2  1  0
  4 11  1  0
  4  5  2  0
  7  6  1  0
  7  8  1  0
  8 10  1  0
  8  9  1  6
 10 12  1  0
 10 11  1  1
 12 13  2  0
 15 14  1  1
 15 17  1  0
 16 15  1  0
 17 19  1  0
 18 12  1  0
 17 18  1  1
 19 20  1  0
 21 19  2  0
M  END
$$$$
