AIV.pdb
     RDKit          3D

 21 20  0  0  1  0  0  0  0  0999 V2000
   17.6078  -16.2838  -16.8655 C   0  0  0  0  0  0  0  0  0  0  0  0
   18.9938  -16.6626  -16.3908 C   0  0  2  0  0  0  0  0  0  0  0  0
   18.9158  -17.6814  -15.3899 N   0  0  0  0  0  0  0  0  0  0  0  0
   19.7460  -15.5086  -15.8694 C   0  0  0  0  0  0  0  0  0  0  0  0
   19.4594  -15.0664  -14.7350 O   0  0  0  0  0  0  0  0  0  0  0  0
   24.5289  -15.1893  -14.4876 C   0  0  0  0  0  0  0  0  0  0  0  0
   23.6151  -15.1965  -15.6555 C   0  0  0  0  0  0  0  0  0  0  0  0
   23.0443  -13.9021  -16.0897 C   0  0  2  0  0  0  0  0  0  0  0  0
   23.7565  -12.7271  -15.4501 C   0  0  0  0  0  0  0  0  0  0  0  0
   21.5554  -13.7687  -16.0293 C   0  0  2  0  0  0  0  0  0  0  0  0
   20.8005  -14.8430  -16.5775 N   0  0  0  0  0  0  0  0  0  0  0  0
   21.1848  -12.4324  -16.6057 C   0  0  0  0  0  0  0  0  0  0  0  0
   21.6722  -12.0275  -17.6897 O   0  0  0  0  0  0  0  0  0  0  0  0
   17.7892  -11.2256  -17.4221 C   0  0  0  0  0  0  0  0  0  0  0  0
   18.3957  -10.1244  -16.5805 C   0  0  1  0  0  0  0  0  0  0  0  0
   17.8001  -10.2846  -15.1785 C   0  0  0  0  0  0  0  0  0  0  0  0
   19.8990  -10.3043  -16.5316 C   0  0  2  0  0  0  0  0  0  0  0  0
   20.2571  -11.5615  -15.9412 N   0  0  0  0  0  0  0  0  0  0  0  0
   20.4577   -9.2071  -15.7128 C   0  0  0  0  0  0  0  0  0  0  0  0
   20.5552   -7.8917  -16.1464 O   0  0  0  0  0  0  0  0  0  0  0  0
   20.8709   -9.4659  -14.5580 O   0  0  0  0  0  0  0  0  0  0  0  0
  2  1  1  1
  2  4  1  0
  3  2  1  0
  4 11  1  0
  4  5  2  0
  7  6  1  0
  7  8  1  0
  8 10  1  0
  8  9  1  1
 10 12  1  0
 10 11  1  6
 12 13  2  0
 15 14  1  6
 15 17  1  0
 16 15  1  0
 17 19  1  0
 18 12  1  0
 17 18  1  1
 19 20  1  0
 21 19  2  0
M  END
$$$$
