APM.pdb
     RDKit          3D

 21 21  0  0  1  0  0  0  0  0999 V2000
   17.5581  -13.1047  -14.4582 C   0  0  0  0  0  0  0  0  0  0  0  0
   17.1937  -11.7059  -14.9144 C   0  0  2  0  0  0  0  0  0  0  0  0
   17.5681  -11.5380  -16.2776 N   0  0  0  0  0  0  0  0  0  0  0  0
   17.6097  -10.6739  -13.9782 C   0  0  0  0  0  0  0  0  0  0  0  0
   17.5004  -10.9794  -12.7389 O   0  0  0  0  0  0  0  0  0  0  0  0
   18.1164   -9.3819  -14.2645 N   0  0  0  0  0  0  0  0  0  0  0  0
   18.4119   -8.9274  -15.6080 C   0  0  0  0  0  0  0  0  0  0  0  0
   19.4999   -7.8711  -15.3429 C   0  0  0  0  0  0  0  0  0  0  0  0
   18.9721   -7.2071  -14.1223 C   0  0  0  0  0  0  0  0  0  0  0  0
   18.4042   -8.3353  -13.3039 C   0  0  1  0  0  0  0  0  0  0  0  0
   17.2014   -7.8541  -12.6065 C   0  0  0  0  0  0  0  0  0  0  0  0
   16.0849   -7.9339  -13.1763 O   0  0  0  0  0  0  0  0  0  0  0  0
   12.9575   -6.5369   -6.1668 C   0  0  0  0  0  0  0  0  0  0  0  0
   14.5314   -7.1936   -6.8397 S   0  0  0  0  0  0  0  0  0  0  0  0
   14.6502   -6.6644   -8.5652 C   0  0  0  0  0  0  0  0  0  0  0  0
   15.8903   -7.2092   -9.2357 C   0  0  0  0  0  0  0  0  0  0  0  0
   15.9795   -6.7852  -10.6838 C   0  0  2  0  0  0  0  0  0  0  0  0
   17.2033   -7.2915  -11.3032 N   0  0  0  0  0  0  0  0  0  0  0  0
   15.9975   -5.3050  -10.7402 C   0  0  0  0  0  0  0  0  0  0  0  0
   14.8104   -4.5734  -10.7811 O   0  0  0  0  0  0  0  0  0  0  0  0
   17.0914   -4.6988  -10.7515 O   0  0  0  0  0  0  0  0  0  0  0  0
  2  1  1  1
  3  2  1  0
  4  5  2  0
  4  2  1  0
  6  4  1  0
  7  6  1  0
  8  7  1  0
  9  8  1  0
  9 10  1  0
 10 11  1  6
 10  6  1  0
 11 18  1  0
 12 11  2  0
 13 14  1  0
 15 14  1  0
 16 15  1  0
 17 16  1  1
 18 17  1  0
 19 20  1  0
 19 17  1  0
 21 19  2  0
M  END
$$$$
