APM.pdb
     RDKit          3D

 21 21  0  0  1  0  0  0  0  0999 V2000
   27.2394  -16.3941  -14.6395 C   0  0  0  0  0  0  0  0  0  0  0  0
   26.5126  -17.5019  -15.3757 C   0  0  2  0  0  0  0  0  0  0  0  0
   25.4590  -16.9438  -16.1537 N   0  0  0  0  0  0  0  0  0  0  0  0
   26.1831  -18.6330  -14.5235 C   0  0  0  0  0  0  0  0  0  0  0  0
   25.1234  -18.4982  -13.8163 O   0  0  0  0  0  0  0  0  0  0  0  0
   26.8837  -19.8562  -14.3786 N   0  0  0  0  0  0  0  0  0  0  0  0
   28.0555  -20.1946  -15.1606 C   0  0  0  0  0  0  0  0  0  0  0  0
   27.9952  -21.7328  -15.1548 C   0  0  0  0  0  0  0  0  0  0  0  0
   27.5760  -22.0042  -13.7548 C   0  0  0  0  0  0  0  0  0  0  0  0
   26.5671  -20.9282  -13.4559 C   0  0  1  0  0  0  0  0  0  0  0  0
   26.7065  -20.5283  -12.0468 C   0  0  0  0  0  0  0  0  0  0  0  0
   27.8366  -20.1997  -11.6080 O   0  0  0  0  0  0  0  0  0  0  0  0
   29.1061  -18.9322   -7.4987 C   0  0  0  0  0  0  0  0  0  0  0  0
   27.6907  -19.4476   -6.4535 S   0  0  0  0  0  0  0  0  0  0  0  0
   26.6286  -20.5117   -7.4591 C   0  0  0  0  0  0  0  0  0  0  0  0
   26.6190  -20.0865   -8.9094 C   0  0  0  0  0  0  0  0  0  0  0  0
   25.7720  -21.0054   -9.7596 C   0  0  2  0  0  0  0  0  0  0  0  0
   25.6340  -20.4826  -11.1181 N   0  0  0  0  0  0  0  0  0  0  0  0
   24.4251  -21.1014   -9.1501 C   0  0  0  0  0  0  0  0  0  0  0  0
   23.2913  -20.6774   -9.8434 O   0  0  0  0  0  0  0  0  0  0  0  0
   24.2989  -21.5690   -7.9970 O   0  0  0  0  0  0  0  0  0  0  0  0
  2  1  1  1
  3  2  1  0
  4  5  2  0
  4  2  1  0
  6  4  1  0
  7  6  1  0
  8  7  1  0
  9  8  1  0
  9 10  1  0
 10 11  1  1
 10  6  1  0
 11 18  1  0
 12 11  2  0
 13 14  1  0
 15 14  1  0
 16 15  1  0
 17 16  1  1
 18 17  1  0
 19 20  1  0
 19 17  1  0
 21 19  2  0
M  END
$$$$
