APM.pdb
     RDKit          3D

 21 21  0  0  1  0  0  0  0  0999 V2000
   26.1520  -16.9858  -14.2732 C   0  0  0  0  0  0  0  0  0  0  0  0
   25.9121  -18.4040  -14.7516 C   0  0  2  0  0  0  0  0  0  0  0  0
   24.7269  -18.4457  -15.5392 N   0  0  0  0  0  0  0  0  0  0  0  0
   26.0429  -19.3929  -13.6937 C   0  0  0  0  0  0  0  0  0  0  0  0
   24.9443  -19.7644  -13.1493 O   0  0  0  0  0  0  0  0  0  0  0  0
   27.2258  -19.9917  -13.1934 N   0  0  0  0  0  0  0  0  0  0  0  0
   28.5525  -19.6150  -13.6375 C   0  0  0  0  0  0  0  0  0  0  0  0
   29.3428  -20.9103  -13.3783 C   0  0  0  0  0  0  0  0  0  0  0  0
   28.7761  -21.3432  -12.0741 C   0  0  0  0  0  0  0  0  0  0  0  0
   27.3078  -21.0322  -12.1877 C   0  0  1  0  0  0  0  0  0  0  0  0
   26.8146  -20.5948  -10.8723 C   0  0  0  0  0  0  0  0  0  0  0  0
   26.7549  -19.3672  -10.6131 O   0  0  0  0  0  0  0  0  0  0  0  0
   28.1054  -19.8609   -4.2500 C   0  0  0  0  0  0  0  0  0  0  0  0
   28.4200  -19.2333   -5.9436 S   0  0  0  0  0  0  0  0  0  0  0  0
   26.8398  -19.2219   -6.8237 C   0  0  0  0  0  0  0  0  0  0  0  0
   26.9842  -19.7182   -8.2440 C   0  0  0  0  0  0  0  0  0  0  0  0
   26.2745  -21.0360   -8.4544 C   0  0  2  0  0  0  0  0  0  0  0  0
   26.3880  -21.4758   -9.8442 N   0  0  0  0  0  0  0  0  0  0  0  0
   24.8403  -20.8548   -8.1307 C   0  0  0  0  0  0  0  0  0  0  0  0
   23.8892  -20.7081   -9.1407 O   0  0  0  0  0  0  0  0  0  0  0  0
   24.4730  -20.8323   -6.9355 O   0  0  0  0  0  0  0  0  0  0  0  0
  2  1  1  1
  3  2  1  0
  4  5  2  0
  4  2  1  0
  6  4  1  0
  7  6  1  0
  8  7  1  0
  9  8  1  0
  9 10  1  0
 10 11  1  1
 10  6  1  0
 11 18  1  0
 12 11  2  0
 13 14  1  0
 15 14  1  0
 16 15  1  0
 17 16  1  6
 18 17  1  0
 19 20  1  0
 19 17  1  0
 21 19  2  0
M  END
$$$$
