APM.pdb
     RDKit          3D

 21 21  0  0  1  0  0  0  0  0999 V2000
   27.9470  -17.4654  -15.4355 C   0  0  0  0  0  0  0  0  0  0  0  0
   27.0747  -18.3018  -16.3504 C   0  0  2  0  0  0  0  0  0  0  0  0
   26.2466  -17.4459  -17.1305 N   0  0  0  0  0  0  0  0  0  0  0  0
   26.4283  -19.4102  -15.6663 C   0  0  0  0  0  0  0  0  0  0  0  0
   25.3245  -19.1267  -15.0812 O   0  0  0  0  0  0  0  0  0  0  0  0
   26.8650  -20.7546  -15.5667 N   0  0  0  0  0  0  0  0  0  0  0  0
   28.1000  -21.2314  -16.1553 C   0  0  0  0  0  0  0  0  0  0  0  0
   27.7797  -22.7207  -16.3776 C   0  0  0  0  0  0  0  0  0  0  0  0
   27.0362  -23.0493  -15.1332 C   0  0  0  0  0  0  0  0  0  0  0  0
   26.1845  -21.8345  -14.8798 C   0  0  1  0  0  0  0  0  0  0  0  0
   26.0909  -21.6179  -13.4275 C   0  0  0  0  0  0  0  0  0  0  0  0
   27.1420  -21.5793  -12.7408 O   0  0  0  0  0  0  0  0  0  0  0  0
   25.8660  -20.9728   -7.1521 C   0  0  0  0  0  0  0  0  0  0  0  0
   26.7106  -20.0627   -8.5011 S   0  0  0  0  0  0  0  0  0  0  0  0
   25.4320  -19.3862   -9.5870 C   0  0  0  0  0  0  0  0  0  0  0  0
   25.6086  -19.8449  -11.0163 C   0  0  0  0  0  0  0  0  0  0  0  0
   24.8501  -21.1221  -11.2951 C   0  0  2  0  0  0  0  0  0  0  0  0
   24.8719  -21.4434  -12.7214 N   0  0  0  0  0  0  0  0  0  0  0  0
   23.4423  -20.9348  -10.8735 C   0  0  0  0  0  0  0  0  0  0  0  0
   22.4330  -20.7250  -11.8134 O   0  0  0  0  0  0  0  0  0  0  0  0
   23.1506  -20.9645   -9.6577 O   0  0  0  0  0  0  0  0  0  0  0  0
  2  1  1  1
  3  2  1  0
  4  5  2  0
  4  2  1  0
  6  4  1  0
  7  6  1  0
  8  7  1  0
  9  8  1  0
  9 10  1  0
 10 11  1  1
 10  6  1  0
 11 18  1  0
 12 11  2  0
 13 14  1  0
 15 14  1  0
 16 15  1  0
 17 16  1  6
 18 17  1  0
 19 20  1  0
 19 17  1  0
 21 19  2  0
M  END
$$$$
