APM.pdb
     RDKit          3D

 21 21  0  0  1  0  0  0  0  0999 V2000
   32.2929  -23.8039  -20.5864 C   0  0  0  0  0  0  0  0  0  0  0  0
   33.1088  -24.8039  -19.7915 C   0  0  2  0  0  0  0  0  0  0  0  0
   34.0136  -25.4768  -20.6607 N   0  0  0  0  0  0  0  0  0  0  0  0
   32.2991  -25.6269  -18.9075 C   0  0  0  0  0  0  0  0  0  0  0  0
   31.8186  -26.6913  -19.4342 O   0  0  0  0  0  0  0  0  0  0  0  0
   31.9776  -25.3990  -17.5464 N   0  0  0  0  0  0  0  0  0  0  0  0
   32.4713  -24.2623  -16.7960 C   0  0  0  0  0  0  0  0  0  0  0  0
   32.4489  -24.8103  -15.3576 C   0  0  0  0  0  0  0  0  0  0  0  0
   31.1729  -25.5725  -15.3544 C   0  0  0  0  0  0  0  0  0  0  0  0
   31.1280  -26.2239  -16.7105 C   0  0  1  0  0  0  0  0  0  0  0  0
   29.7314  -26.2569  -17.1726 C   0  0  0  0  0  0  0  0  0  0  0  0
   29.3505  -25.4357  -18.0433 O   0  0  0  0  0  0  0  0  0  0  0  0
   26.5720  -26.6049  -21.8882 C   0  0  0  0  0  0  0  0  0  0  0  0
   26.8288  -28.3340  -21.3356 S   0  0  0  0  0  0  0  0  0  0  0  0
   26.5571  -28.3817  -19.5480 C   0  0  0  0  0  0  0  0  0  0  0  0
   27.8201  -28.0682  -18.7793 C   0  0  0  0  0  0  0  0  0  0  0  0
   27.5213  -27.4293  -17.4425 C   0  0  2  0  0  0  0  0  0  0  0  0
   28.7532  -27.1700  -16.6989 N   0  0  0  0  0  0  0  0  0  0  0  0
   26.6794  -28.3593  -16.6544 C   0  0  0  0  0  0  0  0  0  0  0  0
   25.2876  -28.2708  -16.6868 O   0  0  0  0  0  0  0  0  0  0  0  0
   27.2211  -29.2381  -15.9483 O   0  0  0  0  0  0  0  0  0  0  0  0
  2  1  1  6
  3  2  1  0
  4  5  2  0
  4  2  1  0
  6  4  1  0
  7  6  1  0
  8  7  1  0
  9  8  1  0
  9 10  1  0
 10 11  1  6
 10  6  1  0
 11 18  1  0
 12 11  2  0
 13 14  1  0
 15 14  1  0
 16 15  1  0
 17 16  1  6
 18 17  1  0
 19 20  1  0
 19 17  1  0
 21 19  2  0
M  END
$$$$
