APM.pdb
     RDKit          3D

 21 21  0  0  1  0  0  0  0  0999 V2000
   25.3476  -17.4654  -13.8337 C   0  0  0  0  0  0  0  0  0  0  0  0
   25.5975  -18.6718  -14.7167 C   0  0  2  0  0  0  0  0  0  0  0  0
   24.5047  -18.8387  -15.6137 N   0  0  0  0  0  0  0  0  0  0  0  0
   26.0326  -19.8430  -13.9729 C   0  0  0  0  0  0  0  0  0  0  0  0
   25.1168  -20.7000  -13.7117 O   0  0  0  0  0  0  0  0  0  0  0  0
   27.3338  -20.1515  -13.5041 N   0  0  0  0  0  0  0  0  0  0  0  0
   28.4526  -19.2378  -13.6157 C   0  0  0  0  0  0  0  0  0  0  0  0
   29.6442  -20.2122  -13.6388 C   0  0  0  0  0  0  0  0  0  0  0  0
   29.2258  -21.2107  -12.6203 C   0  0  0  0  0  0  0  0  0  0  0  0
   27.7480  -21.3778  -12.8517 C   0  0  1  0  0  0  0  0  0  0  0  0
   27.0872  -21.5851  -11.5536 C   0  0  0  0  0  0  0  0  0  0  0  0
   27.1186  -22.7219  -11.0203 O   0  0  0  0  0  0  0  0  0  0  0  0
   28.4813  -20.0091   -4.9567 C   0  0  0  0  0  0  0  0  0  0  0  0
   27.7068  -18.8217   -6.1193 S   0  0  0  0  0  0  0  0  0  0  0  0
   26.5278  -19.7429   -7.1355 C   0  0  0  0  0  0  0  0  0  0  0  0
   26.8938  -19.6975   -8.6012 C   0  0  0  0  0  0  0  0  0  0  0  0
   26.1085  -20.7053   -9.4087 C   0  0  2  0  0  0  0  0  0  0  0  0
   26.3980  -20.5728  -10.8358 N   0  0  0  0  0  0  0  0  0  0  0  0
   24.6638  -20.4573   -9.1937 C   0  0  0  0  0  0  0  0  0  0  0  0
   24.0478  -20.8001   -7.9899 O   0  0  0  0  0  0  0  0  0  0  0  0
   23.9832  -19.9331  -10.1026 O   0  0  0  0  0  0  0  0  0  0  0  0
  2  1  1  1
  3  2  1  0
  4  5  2  0
  4  2  1  0
  6  4  1  0
  7  6  1  0
  8  7  1  0
  9  8  1  0
  9 10  1  0
 10 11  1  1
 10  6  1  0
 11 18  1  0
 12 11  2  0
 13 14  1  0
 15 14  1  0
 16 15  1  0
 17 16  1  1
 18 17  1  0
 19 20  1  0
 19 17  1  0
 21 19  2  0
M  END
$$$$
