APM.pdb
     RDKit          3D

 21 21  0  0  1  0  0  0  0  0999 V2000
   23.3262  -11.1298  -13.7799 C   0  0  0  0  0  0  0  0  0  0  0  0
   22.9779  -11.1478  -15.2550 C   0  0  2  0  0  0  0  0  0  0  0  0
   24.1031  -11.5953  -16.0036 N   0  0  0  0  0  0  0  0  0  0  0  0
   22.3238   -9.9285  -15.7018 C   0  0  0  0  0  0  0  0  0  0  0  0
   23.1060   -9.0148  -16.1430 O   0  0  0  0  0  0  0  0  0  0  0  0
   20.9391   -9.6274  -15.7092 N   0  0  0  0  0  0  0  0  0  0  0  0
   19.9222  -10.5684  -15.2855 C   0  0  0  0  0  0  0  0  0  0  0  0
   18.7023  -10.0864  -16.0913 C   0  0  0  0  0  0  0  0  0  0  0  0
   18.8485   -8.6107  -15.9893 C   0  0  0  0  0  0  0  0  0  0  0  0
   20.3299   -8.3764  -16.1153 C   0  0  1  0  0  0  0  0  0  0  0  0
   20.7055   -7.2500  -15.2463 C   0  0  0  0  0  0  0  0  0  0  0  0
   20.8988   -7.4535  -14.0220 O   0  0  0  0  0  0  0  0  0  0  0  0
   23.9160   -2.6501  -19.0012 C   0  0  0  0  0  0  0  0  0  0  0  0
   24.0504   -2.9907  -17.2048 S   0  0  0  0  0  0  0  0  0  0  0  0
   22.5388   -3.8440  -16.6964 C   0  0  0  0  0  0  0  0  0  0  0  0
   22.5626   -4.2023  -15.2283 C   0  0  0  0  0  0  0  0  0  0  0  0
   21.2668   -4.8410  -14.7839 C   0  0  2  0  0  0  0  0  0  0  0  0
   20.8721   -5.9138  -15.6955 N   0  0  0  0  0  0  0  0  0  0  0  0
   20.2075   -3.8054  -14.7846 C   0  0  0  0  0  0  0  0  0  0  0  0
   19.1356   -3.8752  -15.6746 O   0  0  0  0  0  0  0  0  0  0  0  0
   20.2718   -2.8529  -13.9767 O   0  0  0  0  0  0  0  0  0  0  0  0
  2  1  1  1
  3  2  1  0
  4  5  2  0
  4  2  1  0
  6  4  1  0
  7  6  1  0
  8  7  1  0
  9  8  1  0
  9 10  1  0
 10 11  1  1
 10  6  1  0
 11 18  1  0
 12 11  2  0
 13 14  1  0
 15 14  1  0
 16 15  1  0
 17 16  1  6
 18 17  1  0
 19 20  1  0
 19 17  1  0
 21 19  2  0
M  END
$$$$
