AEI.pdb
     RDKit          3D

 23 22  0  0  1  0  0  0  0  0999 V2000
    8.0645  -12.5323   19.8081 C   0  0  0  0  0  0  0  0  0  0  0  0
    8.0516  -14.0201   19.5704 C   0  0  2  0  0  0  0  0  0  0  0  0
    6.9422  -14.3525   18.7381 N   0  0  0  0  0  0  0  0  0  0  0  0
    8.0179  -14.7137   20.8862 C   0  0  0  0  0  0  0  0  0  0  0  0
    6.9401  -14.7702   21.5321 O   0  0  0  0  0  0  0  0  0  0  0  0
    9.1574  -15.3305   21.4699 N   0  0  0  0  0  0  0  0  0  0  0  0
    9.0953  -16.0912   22.7070 C   0  0  1  0  0  0  0  0  0  0  0  0
    9.9659  -17.3026   22.6832 C   0  0  0  0  0  0  0  0  0  0  0  0
    9.6340  -18.2909   21.6151 C   0  0  0  0  0  0  0  0  0  0  0  0
   10.8080  -19.1630   21.3774 C   0  0  0  0  0  0  0  0  0  0  0  0
   11.8351  -19.0523   22.0939 O   0  0  0  0  0  0  0  0  0  0  0  0
    9.3533  -15.1888   23.8582 C   0  0  0  0  0  0  0  0  0  0  0  0
   10.3290  -14.4044   23.7543 O   0  0  0  0  0  0  0  0  0  0  0  0
   10.8383  -20.1257   20.3765 O   0  0  0  0  0  0  0  0  0  0  0  0
    5.6925  -12.0261   25.9707 C   0  0  0  0  0  0  0  0  0  0  0  0
    7.0311  -12.6028   25.5909 C   0  0  0  0  0  0  0  0  0  0  0  0
    7.6345  -13.5052   26.6056 C   0  0  2  0  0  0  0  0  0  0  0  0
    8.1679  -12.6180   27.7427 C   0  0  0  0  0  0  0  0  0  0  0  0
    8.7928  -14.3228   26.1585 C   0  0  2  0  0  0  0  0  0  0  0  0
    8.5536  -15.1908   25.0316 N   0  0  0  0  0  0  0  0  0  0  0  0
    9.2445  -15.1628   27.3112 C   0  0  0  0  0  0  0  0  0  0  0  0
   10.1262  -14.7059   28.2753 O   0  0  0  0  0  0  0  0  0  0  0  0
    8.8255  -16.3348   27.4382 O   0  0  0  0  0  0  0  0  0  0  0  0
  2  1  1  1
  2  3  1  0
  4  2  1  0
  4  5  2  0
  6  4  1  0
  7  6  1  0
  7 12  1  0
  7  8  1  6
  9  8  1  0
  9 10  1  0
 10 14  1  0
 11 10  2  0
 12 13  2  0
 12 20  1  0
 16 15  1  0
 17 18  1  1
 17 16  1  0
 19 17  1  0
 19 20  1  6
 21 22  1  0
 21 19  1  0
 23 21  2  0
M  END
$$$$
