AEI.pdb
     RDKit          3D

 23 22  0  0  1  0  0  0  0  0999 V2000
    7.1119  -13.1926   18.7456 C   0  0  0  0  0  0  0  0  0  0  0  0
    8.4610  -13.2215   19.4161 C   0  0  2  0  0  0  0  0  0  0  0  0
    9.4431  -13.6510   18.4753 N   0  0  0  0  0  0  0  0  0  0  0  0
    8.3807  -14.1014   20.6132 C   0  0  0  0  0  0  0  0  0  0  0  0
    7.4952  -13.8912   21.4813 O   0  0  0  0  0  0  0  0  0  0  0  0
    9.2656  -15.1902   20.8390 N   0  0  0  0  0  0  0  0  0  0  0  0
    9.1520  -16.0734   21.9879 C   0  0  1  0  0  0  0  0  0  0  0  0
    9.9915  -17.2998   21.8577 C   0  0  0  0  0  0  0  0  0  0  0  0
    9.9315  -18.2262   23.0263 C   0  0  0  0  0  0  0  0  0  0  0  0
   10.8424  -19.3702   22.7875 C   0  0  0  0  0  0  0  0  0  0  0  0
   10.3784  -20.5285   22.6344 O   0  0  0  0  0  0  0  0  0  0  0  0
    9.4030  -15.3032   23.2329 C   0  0  0  0  0  0  0  0  0  0  0  0
   10.4093  -14.5511   23.2394 O   0  0  0  0  0  0  0  0  0  0  0  0
   12.2228  -19.2302   22.7213 O   0  0  0  0  0  0  0  0  0  0  0  0
    6.7484  -11.4102   26.7883 C   0  0  0  0  0  0  0  0  0  0  0  0
    7.7446  -12.5400   26.7855 C   0  0  0  0  0  0  0  0  0  0  0  0
    7.6023  -13.4969   25.6576 C   0  0  2  0  0  0  0  0  0  0  0  0
    6.3075  -14.2912   25.8964 C   0  0  0  0  0  0  0  0  0  0  0  0
    8.6761  -14.5151   25.5146 C   0  0  2  0  0  0  0  0  0  0  0  0
    8.5644  -15.3927   24.3753 N   0  0  0  0  0  0  0  0  0  0  0  0
    8.6929  -15.3535   26.7537 C   0  0  0  0  0  0  0  0  0  0  0  0
    8.4179  -16.7100   26.7481 O   0  0  0  0  0  0  0  0  0  0  0  0
    8.9633  -14.8360   27.8601 O   0  0  0  0  0  0  0  0  0  0  0  0
  2  1  1  6
  2  3  1  0
  4  2  1  0
  4  5  2  0
  6  4  1  0
  7  6  1  0
  7 12  1  0
  7  8  1  6
  9  8  1  0
  9 10  1  0
 10 14  1  0
 11 10  2  0
 12 13  2  0
 12 20  1  0
 16 15  1  0
 17 18  1  1
 17 16  1  0
 19 17  1  0
 19 20  1  6
 21 22  1  0
 21 19  1  0
 23 21  2  0
M  END
$$$$
