AEI.pdb
     RDKit          3D

 23 22  0  0  1  0  0  0  0  0999 V2000
    8.0332  -12.3157   19.7155 C   0  0  0  0  0  0  0  0  0  0  0  0
    8.0887  -13.7689   19.3212 C   0  0  2  0  0  0  0  0  0  0  0  0
    6.9738  -14.0706   18.4845 N   0  0  0  0  0  0  0  0  0  0  0  0
    8.1281  -14.5978   20.5560 C   0  0  0  0  0  0  0  0  0  0  0  0
    7.0518  -14.9594   21.0970 O   0  0  0  0  0  0  0  0  0  0  0  0
    9.3376  -15.0146   21.1747 N   0  0  0  0  0  0  0  0  0  0  0  0
    9.3717  -15.9370   22.2977 C   0  0  1  0  0  0  0  0  0  0  0  0
   10.3530  -17.0442   22.1049 C   0  0  0  0  0  0  0  0  0  0  0  0
   10.3813  -18.0538   23.2037 C   0  0  0  0  0  0  0  0  0  0  0  0
   11.3625  -19.1117   22.8671 C   0  0  0  0  0  0  0  0  0  0  0  0
   11.2123  -19.8096   21.8322 O   0  0  0  0  0  0  0  0  0  0  0  0
    9.5643  -15.1767   23.5590 C   0  0  0  0  0  0  0  0  0  0  0  0
   10.5314  -14.3758   23.5945 O   0  0  0  0  0  0  0  0  0  0  0  0
   12.4734  -19.3842   23.6553 O   0  0  0  0  0  0  0  0  0  0  0  0
    5.7766  -12.2212   25.7719 C   0  0  0  0  0  0  0  0  0  0  0  0
    7.0659  -12.8712   25.3434 C   0  0  0  0  0  0  0  0  0  0  0  0
    7.6571  -13.8043   26.3374 C   0  0  2  0  0  0  0  0  0  0  0  0
    8.1148  -12.9589   27.5376 C   0  0  0  0  0  0  0  0  0  0  0  0
    8.8587  -14.5625   25.9000 C   0  0  2  0  0  0  0  0  0  0  0  0
    8.7134  -15.3274   24.6858 N   0  0  0  0  0  0  0  0  0  0  0  0
    9.2472  -15.4980   27.0011 C   0  0  0  0  0  0  0  0  0  0  0  0
   10.1827  -15.1743   27.9684 O   0  0  0  0  0  0  0  0  0  0  0  0
    8.7220  -16.6308   27.0792 O   0  0  0  0  0  0  0  0  0  0  0  0
  2  1  1  1
  2  3  1  0
  4  2  1  0
  4  5  2  0
  6  4  1  0
  7  6  1  0
  7 12  1  0
  7  8  1  6
  9  8  1  0
  9 10  1  0
 10 14  1  0
 11 10  2  0
 12 13  2  0
 12 20  1  0
 16 15  1  0
 17 18  1  1
 17 16  1  0
 19 17  1  0
 19 20  1  6
 21 22  1  0
 21 19  1  0
 23 21  2  0
M  END
$$$$
