AEI.pdb
     RDKit          3D

 23 22  0  0  1  0  0  0  0  0999 V2000
    8.1181  -12.2028   19.7259 C   0  0  0  0  0  0  0  0  0  0  0  0
    8.2574  -13.6264   19.2522 C   0  0  2  0  0  0  0  0  0  0  0  0
    7.2809  -13.8833   18.2451 N   0  0  0  0  0  0  0  0  0  0  0  0
    8.1341  -14.5342   20.4245 C   0  0  0  0  0  0  0  0  0  0  0  0
    6.9937  -14.8857   20.8217 O   0  0  0  0  0  0  0  0  0  0  0  0
    9.2543  -15.0392   21.1385 N   0  0  0  0  0  0  0  0  0  0  0  0
    9.1280  -15.9707   22.2472 C   0  0  1  0  0  0  0  0  0  0  0  0
    9.9525  -17.2005   22.0639 C   0  0  0  0  0  0  0  0  0  0  0  0
    9.6025  -18.0154   20.8635 C   0  0  0  0  0  0  0  0  0  0  0  0
   10.6886  -18.9889   20.6029 C   0  0  0  0  0  0  0  0  0  0  0  0
   10.5993  -20.1676   21.0310 O   0  0  0  0  0  0  0  0  0  0  0  0
    9.3865  -15.2593   23.5253 C   0  0  0  0  0  0  0  0  0  0  0  0
   10.4147  -14.5392   23.5736 O   0  0  0  0  0  0  0  0  0  0  0  0
   11.8352  -18.6623   19.8900 O   0  0  0  0  0  0  0  0  0  0  0  0
    5.9068  -12.0623   25.8704 C   0  0  0  0  0  0  0  0  0  0  0  0
    7.1730  -12.7601   25.4482 C   0  0  0  0  0  0  0  0  0  0  0  0
    7.6439  -13.8193   26.3780 C   0  0  2  0  0  0  0  0  0  0  0  0
    8.1746  -13.1148   27.6376 C   0  0  0  0  0  0  0  0  0  0  0  0
    8.7610  -14.6736   25.8961 C   0  0  2  0  0  0  0  0  0  0  0  0
    8.5315  -15.3693   24.6536 N   0  0  0  0  0  0  0  0  0  0  0  0
    9.0631  -15.6880   26.9537 C   0  0  0  0  0  0  0  0  0  0  0  0
    9.9380  -15.4476   27.9989 O   0  0  0  0  0  0  0  0  0  0  0  0
    8.5176  -16.8133   26.9206 O   0  0  0  0  0  0  0  0  0  0  0  0
  2  1  1  1
  2  3  1  0
  4  2  1  0
  4  5  2  0
  6  4  1  0
  7  6  1  0
  7 12  1  0
  7  8  1  6
  9  8  1  0
  9 10  1  0
 10 14  1  0
 11 10  2  0
 12 13  2  0
 12 20  1  0
 16 15  1  0
 17 18  1  1
 17 16  1  0
 19 17  1  0
 19 20  1  6
 21 22  1  0
 21 19  1  0
 23 21  2  0
M  END
$$$$
