AEI.pdb
     RDKit          3D

 23 22  0  0  1  0  0  0  0  0999 V2000
    8.1640  -12.3753   19.9580 C   0  0  0  0  0  0  0  0  0  0  0  0
    8.1715  -13.8285   19.5599 C   0  0  2  0  0  0  0  0  0  0  0  0
    7.0817  -14.0778   18.6744 N   0  0  0  0  0  0  0  0  0  0  0  0
    8.1203  -14.6615   20.7916 C   0  0  0  0  0  0  0  0  0  0  0  0
    7.0148  -14.8759   21.3519 O   0  0  0  0  0  0  0  0  0  0  0  0
    9.2728  -15.2427   21.3861 N   0  0  0  0  0  0  0  0  0  0  0  0
    9.2071  -16.1082   22.5521 C   0  0  1  0  0  0  0  0  0  0  0  0
   10.0699  -17.3183   22.4213 C   0  0  0  0  0  0  0  0  0  0  0  0
    9.7308  -18.2074   21.2714 C   0  0  0  0  0  0  0  0  0  0  0  0
   10.9449  -18.9466   20.8534 C   0  0  0  0  0  0  0  0  0  0  0  0
   11.7472  -19.3868   21.7156 O   0  0  0  0  0  0  0  0  0  0  0  0
    9.4719  -15.3115   23.7774 C   0  0  0  0  0  0  0  0  0  0  0  0
   10.4673  -14.5456   23.7497 O   0  0  0  0  0  0  0  0  0  0  0  0
   11.2562  -19.1879   19.5213 O   0  0  0  0  0  0  0  0  0  0  0  0
    5.8465  -12.1725   26.0043 C   0  0  0  0  0  0  0  0  0  0  0  0
    7.1156  -12.8548   25.5656 C   0  0  0  0  0  0  0  0  0  0  0  0
    7.7093  -13.7769   26.5683 C   0  0  2  0  0  0  0  0  0  0  0  0
    8.2333  -12.9118   27.7266 C   0  0  0  0  0  0  0  0  0  0  0  0
    8.8710  -14.5868   26.1160 C   0  0  2  0  0  0  0  0  0  0  0  0
    8.6576  -15.3912   24.9379 N   0  0  0  0  0  0  0  0  0  0  0  0
    9.2737  -15.4925   27.2367 C   0  0  0  0  0  0  0  0  0  0  0  0
   10.2595  -15.1651   28.1515 O   0  0  0  0  0  0  0  0  0  0  0  0
    8.7146  -16.6022   27.3811 O   0  0  0  0  0  0  0  0  0  0  0  0
  2  1  1  1
  2  3  1  0
  4  2  1  0
  4  5  2  0
  6  4  1  0
  7  6  1  0
  7 12  1  0
  7  8  1  6
  9  8  1  0
  9 10  1  0
 10 14  1  0
 11 10  2  0
 12 13  2  0
 12 20  1  0
 16 15  1  0
 17 18  1  1
 17 16  1  0
 19 17  1  0
 19 20  1  6
 21 22  1  0
 21 19  1  0
 23 21  2  0
M  END
$$$$
