AEI.pdb
     RDKit          3D

 23 22  0  0  1  0  0  0  0  0999 V2000
    5.8609  -20.0681   22.1847 C   0  0  0  0  0  0  0  0  0  0  0  0
    6.0030  -18.8076   22.9980 C   0  0  2  0  0  0  0  0  0  0  0  0
    5.2629  -17.7606   22.3733 N   0  0  0  0  0  0  0  0  0  0  0  0
    7.4498  -18.4907   23.1392 C   0  0  0  0  0  0  0  0  0  0  0  0
    8.2091  -19.3006   23.7301 O   0  0  0  0  0  0  0  0  0  0  0  0
    8.0380  -17.2997   22.6342 N   0  0  0  0  0  0  0  0  0  0  0  0
    9.4566  -17.0072   22.7576 C   0  0  1  0  0  0  0  0  0  0  0  0
   10.0451  -16.4645   21.4987 C   0  0  0  0  0  0  0  0  0  0  0  0
   10.0904  -17.4304   20.3618 C   0  0  0  0  0  0  0  0  0  0  0  0
   11.2095  -17.0689   19.4606 C   0  0  0  0  0  0  0  0  0  0  0  0
   11.0280  -16.2549   18.5198 O   0  0  0  0  0  0  0  0  0  0  0  0
    9.6845  -16.1469   23.9468 C   0  0  0  0  0  0  0  0  0  0  0  0
   10.8603  -15.7490   24.1399 O   0  0  0  0  0  0  0  0  0  0  0  0
   12.4873  -17.5952   19.6012 O   0  0  0  0  0  0  0  0  0  0  0  0
    5.8604  -12.4660   25.4201 C   0  0  0  0  0  0  0  0  0  0  0  0
    7.1677  -13.1609   25.1432 C   0  0  0  0  0  0  0  0  0  0  0  0
    7.6899  -13.9825   26.2659 C   0  0  2  0  0  0  0  0  0  0  0  0
    8.2081  -13.0096   27.3380 C   0  0  0  0  0  0  0  0  0  0  0  0
    8.8332  -14.8798   25.9531 C   0  0  2  0  0  0  0  0  0  0  0  0
    8.6439  -15.7763   24.8392 N   0  0  0  0  0  0  0  0  0  0  0  0
    9.1313  -15.6981   27.1696 C   0  0  0  0  0  0  0  0  0  0  0  0
   10.0085  -15.2856   28.1575 O   0  0  0  0  0  0  0  0  0  0  0  0
    8.5800  -16.8095   27.3311 O   0  0  0  0  0  0  0  0  0  0  0  0
  2  1  1  6
  2  3  1  0
  4  2  1  0
  4  5  2  0
  6  4  1  0
  7  6  1  0
  7 12  1  0
  7  8  1  6
  9  8  1  0
  9 10  1  0
 10 14  1  0
 11 10  2  0
 12 13  2  0
 12 20  1  0
 16 15  1  0
 17 18  1  1
 17 16  1  0
 19 17  1  0
 19 20  1  6
 21 22  1  0
 21 19  1  0
 23 21  2  0
M  END
$$$$
