AEI.pdb
     RDKit          3D

 23 22  0  0  1  0  0  0  0  0999 V2000
    7.0765  -13.5369   19.6029 C   0  0  0  0  0  0  0  0  0  0  0  0
    8.4192  -13.5733   20.2857 C   0  0  2  0  0  0  0  0  0  0  0  0
    9.4018  -14.0400   19.3633 N   0  0  0  0  0  0  0  0  0  0  0  0
    8.3140  -14.4248   21.5012 C   0  0  0  0  0  0  0  0  0  0  0  0
    7.4258  -14.1796   22.3573 O   0  0  0  0  0  0  0  0  0  0  0  0
    9.1774  -15.5239   21.7581 N   0  0  0  0  0  0  0  0  0  0  0  0
    9.0837  -16.3361   22.9599 C   0  0  1  0  0  0  0  0  0  0  0  0
    9.7722  -17.6524   22.8215 C   0  0  0  0  0  0  0  0  0  0  0  0
    9.5724  -18.3278   21.5056 C   0  0  0  0  0  0  0  0  0  0  0  0
   10.4248  -19.5383   21.4458 C   0  0  0  0  0  0  0  0  0  0  0  0
   11.6775  -19.4327   21.4607 O   0  0  0  0  0  0  0  0  0  0  0  0
    9.5347  -15.5427   24.1318 C   0  0  0  0  0  0  0  0  0  0  0  0
   10.6303  -14.9386   24.0178 O   0  0  0  0  0  0  0  0  0  0  0  0
    9.9012  -20.8228   21.3717 O   0  0  0  0  0  0  0  0  0  0  0  0
    6.2199  -12.0879   26.3527 C   0  0  0  0  0  0  0  0  0  0  0  0
    7.4671  -12.7996   25.8980 C   0  0  0  0  0  0  0  0  0  0  0  0
    8.0982  -13.6723   26.9218 C   0  0  2  0  0  0  0  0  0  0  0  0
    8.7914  -12.7508   27.9392 C   0  0  0  0  0  0  0  0  0  0  0  0
    9.1535  -14.6017   26.4393 C   0  0  2  0  0  0  0  0  0  0  0  0
    8.7857  -15.4534   25.3349 N   0  0  0  0  0  0  0  0  0  0  0  0
    9.5702  -15.4702   27.5840 C   0  0  0  0  0  0  0  0  0  0  0  0
    9.2903  -16.8244   27.6419 O   0  0  0  0  0  0  0  0  0  0  0  0
   10.2007  -14.9816   28.5478 O   0  0  0  0  0  0  0  0  0  0  0  0
  2  1  1  6
  2  3  1  0
  4  2  1  0
  4  5  2  0
  6  4  1  0
  7  6  1  0
  7 12  1  0
  7  8  1  6
  9  8  1  0
  9 10  1  0
 10 14  1  0
 11 10  2  0
 12 13  2  0
 12 20  1  0
 16 15  1  0
 17 18  1  1
 17 16  1  0
 19 17  1  0
 19 20  1  6
 21 22  1  0
 21 19  1  0
 23 21  2  0
M  END
$$$$
