AEI.pdb
     RDKit          3D

 23 22  0  0  1  0  0  0  0  0999 V2000
    7.3794  -12.7989   19.9164 C   0  0  0  0  0  0  0  0  0  0  0  0
    7.6240  -14.2491   19.5886 C   0  0  2  0  0  0  0  0  0  0  0  0
    6.5059  -14.7617   18.8668 N   0  0  0  0  0  0  0  0  0  0  0  0
    7.8857  -14.9872   20.8535 C   0  0  0  0  0  0  0  0  0  0  0  0
    6.9193  -15.3672   21.5632 O   0  0  0  0  0  0  0  0  0  0  0  0
    9.1928  -15.2955   21.3181 N   0  0  0  0  0  0  0  0  0  0  0  0
    9.4392  -16.1193   22.4901 C   0  0  1  0  0  0  0  0  0  0  0  0
   10.5354  -17.1091   22.2792 C   0  0  0  0  0  0  0  0  0  0  0  0
   10.8701  -17.9367   23.4752 C   0  0  0  0  0  0  0  0  0  0  0  0
   11.9276  -18.9093   23.1134 C   0  0  0  0  0  0  0  0  0  0  0  0
   12.2656  -19.8089   23.9240 O   0  0  0  0  0  0  0  0  0  0  0  0
    9.6369  -15.2480   23.6767 C   0  0  0  0  0  0  0  0  0  0  0  0
   10.4557  -14.3032   23.5544 O   0  0  0  0  0  0  0  0  0  0  0  0
   12.5870  -18.8820   21.8910 O   0  0  0  0  0  0  0  0  0  0  0  0
    5.9073  -12.3844   25.8287 C   0  0  0  0  0  0  0  0  0  0  0  0
    7.2338  -12.9774   25.4320 C   0  0  0  0  0  0  0  0  0  0  0  0
    7.8617  -13.8492   26.4586 C   0  0  2  0  0  0  0  0  0  0  0  0
    8.2930  -12.9418   27.6227 C   0  0  0  0  0  0  0  0  0  0  0  0
    9.0884  -14.5803   26.0450 C   0  0  2  0  0  0  0  0  0  0  0  0
    8.9486  -15.4494   24.9023 N   0  0  0  0  0  0  0  0  0  0  0  0
    9.5566  -15.4010   27.2050 C   0  0  0  0  0  0  0  0  0  0  0  0
   10.4933  -14.9480   28.1178 O   0  0  0  0  0  0  0  0  0  0  0  0
    9.1012  -16.5520   27.3863 O   0  0  0  0  0  0  0  0  0  0  0  0
  2  1  1  1
  2  3  1  0
  4  2  1  0
  4  5  2  0
  6  4  1  0
  7  6  1  0
  7 12  1  0
  7  8  1  6
  9  8  1  0
  9 10  1  0
 10 14  1  0
 11 10  2  0
 12 13  2  0
 12 20  1  0
 16 15  1  0
 17 18  1  1
 17 16  1  0
 19 17  1  0
 19 20  1  6
 21 22  1  0
 21 19  1  0
 23 21  2  0
M  END
$$$$
