AEI.pdb
     RDKit          3D

 23 22  0  0  1  0  0  0  0  0999 V2000
    8.1810  -12.2205   19.6693 C   0  0  0  0  0  0  0  0  0  0  0  0
    8.1904  -13.6699   19.2577 C   0  0  2  0  0  0  0  0  0  0  0  0
    7.1070  -13.9100   18.3617 N   0  0  0  0  0  0  0  0  0  0  0  0
    8.1292  -14.5144   20.4811 C   0  0  0  0  0  0  0  0  0  0  0  0
    7.0128  -14.7969   20.9866 O   0  0  0  0  0  0  0  0  0  0  0  0
    9.2841  -15.0325   21.1271 N   0  0  0  0  0  0  0  0  0  0  0  0
    9.2136  -15.9712   22.2347 C   0  0  1  0  0  0  0  0  0  0  0  0
   10.0998  -17.1561   22.0437 C   0  0  0  0  0  0  0  0  0  0  0  0
   10.1390  -18.1009   23.1984 C   0  0  0  0  0  0  0  0  0  0  0  0
   11.0350  -19.2342   22.8696 C   0  0  0  0  0  0  0  0  0  0  0  0
   12.2828  -19.0818   22.8887 O   0  0  0  0  0  0  0  0  0  0  0  0
    9.4429  -15.2495   23.5125 C   0  0  0  0  0  0  0  0  0  0  0  0
   10.4579  -14.5115   23.5708 O   0  0  0  0  0  0  0  0  0  0  0  0
   10.5590  -20.4944   22.5308 O   0  0  0  0  0  0  0  0  0  0  0  0
    5.4620  -12.4995   25.8221 C   0  0  0  0  0  0  0  0  0  0  0  0
    6.7821  -13.0463   25.3454 C   0  0  0  0  0  0  0  0  0  0  0  0
    7.4904  -13.9126   26.3232 C   0  0  2  0  0  0  0  0  0  0  0  0
    7.9462  -13.0107   27.4822 C   0  0  0  0  0  0  0  0  0  0  0  0
    8.7202  -14.5913   25.8362 C   0  0  2  0  0  0  0  0  0  0  0  0
    8.5750  -15.3687   24.6300 N   0  0  0  0  0  0  0  0  0  0  0  0
    9.2157  -15.4948   26.9209 C   0  0  0  0  0  0  0  0  0  0  0  0
   10.0611  -15.0662   27.9295 O   0  0  0  0  0  0  0  0  0  0  0  0
    8.8697  -16.6968   26.9459 O   0  0  0  0  0  0  0  0  0  0  0  0
  2  1  1  1
  2  3  1  0
  4  2  1  0
  4  5  2  0
  6  4  1  0
  7  6  1  0
  7 12  1  0
  7  8  1  6
  9  8  1  0
  9 10  1  0
 10 14  1  0
 11 10  2  0
 12 13  2  0
 12 20  1  0
 16 15  1  0
 17 18  1  1
 17 16  1  0
 19 17  1  0
 19 20  1  6
 21 22  1  0
 21 19  1  0
 23 21  2  0
M  END
$$$$
