GEW.pdb
     RDKit          3D

 28 29  0  0  1  0  0  0  0  0999 V2000
   24.5199  -25.8696  -15.0510 N   0  0  0  0  0  0  0  0  0  0  0  0
   23.9402  -24.5715  -14.6991 C   0  0  0  0  0  0  0  0  0  0  0  0
   24.9683  -23.6370  -14.2263 C   0  0  0  0  0  0  0  0  0  0  0  0
   26.1457  -24.0326  -14.0181 O   0  0  0  0  0  0  0  0  0  0  0  0
   24.6278  -22.2649  -14.0004 N   0  0  0  0  0  0  0  0  0  0  0  0
   25.6037  -21.3259  -13.5958 C   0  0  1  0  0  0  0  0  0  0  0  0
   25.4823  -19.9146  -14.0150 C   0  0  0  0  0  0  0  0  0  0  0  0
   26.6669  -19.0390  -13.9542 C   0  0  0  0  0  0  0  0  0  0  0  0
   27.6097  -19.2164  -15.0503 C   0  0  0  0  0  0  0  0  0  0  0  0
   27.3722  -19.3307  -16.2565 O   0  0  0  0  0  0  0  0  0  0  0  0
   25.6266  -21.3223  -12.0835 C   0  0  0  0  0  0  0  0  0  0  0  0
   24.5263  -21.4273  -11.4546 O   0  0  0  0  0  0  0  0  0  0  0  0
   28.9813  -19.2664  -14.6984 O   0  0  0  0  0  0  0  0  0  0  0  0
   26.8134  -21.2082  -11.3317 N   0  0  0  0  0  0  0  0  0  0  0  0
   26.7400  -21.1878   -9.8853 C   0  0  1  0  0  0  0  0  0  0  0  0
   28.0759  -20.7908   -9.2800 C   0  0  0  0  0  0  0  0  0  0  0  0
   27.8254  -20.1910   -7.9471 C   0  0  0  0  0  0  0  0  0  0  0  0
   26.8826  -19.2207   -7.6798 C   0  0  0  0  0  0  0  0  0  0  0  0
   26.9687  -18.9380   -6.3718 N   0  0  0  0  0  0  0  0  0  0  0  0
   27.9272  -19.6862   -5.7894 C   0  0  0  0  0  0  0  0  0  0  0  0
   28.3804  -19.7502   -4.4784 C   0  0  0  0  0  0  0  0  0  0  0  0
   29.3950  -20.6340   -4.1926 C   0  0  0  0  0  0  0  0  0  0  0  0
   29.9495  -21.4335   -5.1685 C   0  0  0  0  0  0  0  0  0  0  0  0
   29.4951  -21.3648   -6.4682 C   0  0  0  0  0  0  0  0  0  0  0  0
   28.4633  -20.4698   -6.7732 C   0  0  0  0  0  0  0  0  0  0  0  0
   25.6547  -20.2798   -9.4562 C   0  0  0  0  0  0  0  0  0  0  0  0
   25.4199  -19.2402  -10.1098 O   0  0  0  0  0  0  0  0  0  0  0  0
   24.8867  -20.5542   -8.3418 O   0  0  0  0  0  0  0  0  0  0  0  0
  1  2  1  0
  3  4  2  0
  3  2  1  0
  5  3  1  0
  6  5  1  0
  6  7  1  1
  8  7  1  0
  9 13  1  0
  9  8  1  0
 10  9  2  0
 11  6  1  0
 11 12  2  0
 14 11  1  0
 15 14  1  0
 15 16  1  1
 17 16  1  0
 17 25  1  0
 18 19  1  0
 18 17  2  0
 19 20  1  0
 20 25  2  0
 20 21  1  0
 21 22  2  0
 22 23  1  0
 24 23  2  0
 25 24  1  0
 26 15  1  0
 26 28  1  0
 27 26  2  0
M  END
$$$$
