GEW.pdb
     RDKit          3D

 28 29  0  0  1  0  0  0  0  0999 V2000
   28.9056  -18.5366  -15.7977 N   0  0  0  0  0  0  0  0  0  0  0  0
   28.0932  -19.6934  -15.4146 C   0  0  0  0  0  0  0  0  0  0  0  0
   27.1897  -19.3687  -14.3047 C   0  0  0  0  0  0  0  0  0  0  0  0
   27.2250  -18.2326  -13.7623 O   0  0  0  0  0  0  0  0  0  0  0  0
   26.2615  -20.3528  -13.8362 N   0  0  0  0  0  0  0  0  0  0  0  0
   25.2777  -20.0312  -12.8737 C   0  0  1  0  0  0  0  0  0  0  0  0
   23.8892  -20.5005  -13.0585 C   0  0  0  0  0  0  0  0  0  0  0  0
   22.8663  -20.1395  -12.0601 C   0  0  0  0  0  0  0  0  0  0  0  0
   21.5385  -20.6734  -12.3312 C   0  0  0  0  0  0  0  0  0  0  0  0
   20.5117  -20.5577  -11.6554 O   0  0  0  0  0  0  0  0  0  0  0  0
   25.7446  -20.5889  -11.5476 C   0  0  0  0  0  0  0  0  0  0  0  0
   26.0790  -21.8142  -11.4827 O   0  0  0  0  0  0  0  0  0  0  0  0
   21.3942  -21.4259  -13.5230 O   0  0  0  0  0  0  0  0  0  0  0  0
   25.8288  -19.8141  -10.3732 N   0  0  0  0  0  0  0  0  0  0  0  0
   26.2699  -20.4352   -9.1413 C   0  0  1  0  0  0  0  0  0  0  0  0
   26.9748  -19.4281   -8.2482 C   0  0  0  0  0  0  0  0  0  0  0  0
   27.4934  -20.1424   -7.0567 C   0  0  0  0  0  0  0  0  0  0  0  0
   27.4322  -21.5062   -6.8620 C   0  0  0  0  0  0  0  0  0  0  0  0
   27.9958  -21.7597   -5.6719 N   0  0  0  0  0  0  0  0  0  0  0  0
   28.4157  -20.6155   -5.0955 C   0  0  0  0  0  0  0  0  0  0  0  0
   29.0472  -20.3691   -3.8836 C   0  0  0  0  0  0  0  0  0  0  0  0
   29.3531  -19.0644   -3.5730 C   0  0  0  0  0  0  0  0  0  0  0  0
   29.0466  -18.0295   -4.4299 C   0  0  0  0  0  0  0  0  0  0  0  0
   28.4193  -18.2811   -5.6315 C   0  0  0  0  0  0  0  0  0  0  0  0
   28.1022  -19.6040   -5.9603 C   0  0  0  0  0  0  0  0  0  0  0  0
   25.1155  -21.0571   -8.4579 C   0  0  0  0  0  0  0  0  0  0  0  0
   23.9814  -20.5408   -8.5602 O   0  0  0  0  0  0  0  0  0  0  0  0
   25.2600  -22.2044   -7.7032 O   0  0  0  0  0  0  0  0  0  0  0  0
  1  2  1  0
  3  4  2  0
  3  2  1  0
  5  3  1  0
  6  5  1  0
  6  7  1  6
  8  7  1  0
  9 13  1  0
  9  8  1  0
 10  9  2  0
 11  6  1  0
 11 12  2  0
 14 11  1  0
 15 14  1  0
 15 16  1  1
 17 16  1  0
 17 25  1  0
 18 19  1  0
 18 17  2  0
 19 20  1  0
 20 25  2  0
 20 21  1  0
 21 22  2  0
 22 23  1  0
 24 23  2  0
 25 24  1  0
 26 15  1  0
 26 28  1  0
 27 26  2  0
M  END
$$$$
