GEW.pdb
     RDKit          3D

 28 29  0  0  1  0  0  0  0  0999 V2000
   27.9231  -16.6427  -15.0517 N   0  0  0  0  0  0  0  0  0  0  0  0
   28.2617  -17.8627  -14.3153 C   0  0  0  0  0  0  0  0  0  0  0  0
   27.0587  -18.5313  -13.8059 C   0  0  0  0  0  0  0  0  0  0  0  0
   25.9359  -17.9645  -13.8700 O   0  0  0  0  0  0  0  0  0  0  0  0
   27.1647  -19.8384  -13.2317 N   0  0  0  0  0  0  0  0  0  0  0  0
   26.0190  -20.5392  -12.7911 C   0  0  1  0  0  0  0  0  0  0  0  0
   25.4348  -21.5978  -13.6398 C   0  0  0  0  0  0  0  0  0  0  0  0
   26.1873  -22.0806  -14.8121 C   0  0  0  0  0  0  0  0  0  0  0  0
   25.3914  -22.2368  -16.0220 C   0  0  0  0  0  0  0  0  0  0  0  0
   24.1684  -22.1324  -16.1554 O   0  0  0  0  0  0  0  0  0  0  0  0
   26.3692  -21.1927  -11.4728 C   0  0  0  0  0  0  0  0  0  0  0  0
   27.5899  -21.4437  -11.2194 O   0  0  0  0  0  0  0  0  0  0  0  0
   26.1025  -22.5501  -17.2067 O   0  0  0  0  0  0  0  0  0  0  0  0
   25.4049  -21.5391  -10.5050 N   0  0  0  0  0  0  0  0  0  0  0  0
   25.6270  -21.1803   -9.1193 C   0  0  1  0  0  0  0  0  0  0  0  0
   26.4821  -19.9289   -9.0135 C   0  0  0  0  0  0  0  0  0  0  0  0
   27.7316  -20.2760   -8.2943 C   0  0  0  0  0  0  0  0  0  0  0  0
   28.7966  -20.9600   -8.8416 C   0  0  0  0  0  0  0  0  0  0  0  0
   29.7226  -21.0820   -7.8794 N   0  0  0  0  0  0  0  0  0  0  0  0
   29.2958  -20.5049   -6.7380 C   0  0  0  0  0  0  0  0  0  0  0  0
   29.8896  -20.3766   -5.4894 C   0  0  0  0  0  0  0  0  0  0  0  0
   29.1841  -19.7203   -4.5077 C   0  0  0  0  0  0  0  0  0  0  0  0
   27.9288  -19.2040   -4.7462 C   0  0  0  0  0  0  0  0  0  0  0  0
   27.3449  -19.3352   -5.9881 C   0  0  0  0  0  0  0  0  0  0  0  0
   28.0515  -20.0008   -6.9964 C   0  0  0  0  0  0  0  0  0  0  0  0
   24.3267  -21.0126   -8.4356 C   0  0  0  0  0  0  0  0  0  0  0  0
   23.3674  -20.4912   -9.0447 O   0  0  0  0  0  0  0  0  0  0  0  0
   24.1437  -21.4216   -7.1294 O   0  0  0  0  0  0  0  0  0  0  0  0
  1  2  1  0
  3  4  2  0
  3  2  1  0
  5  3  1  0
  6  5  1  0
  6  7  1  6
  8  7  1  0
  9 13  1  0
  9  8  1  0
 10  9  2  0
 11  6  1  0
 11 12  2  0
 14 11  1  0
 15 14  1  0
 15 16  1  6
 17 16  1  0
 17 25  1  0
 18 19  1  0
 18 17  2  0
 19 20  1  0
 20 25  2  0
 20 21  1  0
 21 22  2  0
 22 23  1  0
 24 23  2  0
 25 24  1  0
 26 15  1  0
 26 28  1  0
 27 26  2  0
M  END
$$$$
