GEW.pdb
     RDKit          3D

 28 29  0  0  1  0  0  0  0  0999 V2000
   20.2294  -28.6669  -16.9460 N   0  0  0  0  0  0  0  0  0  0  0  0
   21.2375  -28.3516  -15.9314 C   0  0  0  0  0  0  0  0  0  0  0  0
   21.8225  -27.0241  -16.1531 C   0  0  0  0  0  0  0  0  0  0  0  0
   21.7489  -26.4729  -17.2830 O   0  0  0  0  0  0  0  0  0  0  0  0
   22.4821  -26.3521  -15.0747 N   0  0  0  0  0  0  0  0  0  0  0  0
   23.0809  -25.0851  -15.2590 C   0  0  1  0  0  0  0  0  0  0  0  0
   22.9970  -24.0710  -14.1881 C   0  0  0  0  0  0  0  0  0  0  0  0
   22.1731  -22.8665  -14.3975 C   0  0  0  0  0  0  0  0  0  0  0  0
   20.9171  -22.8546  -13.6599 C   0  0  0  0  0  0  0  0  0  0  0  0
   20.0944  -21.9395  -13.5593 O   0  0  0  0  0  0  0  0  0  0  0  0
   24.5536  -25.3152  -15.5156 C   0  0  0  0  0  0  0  0  0  0  0  0
   25.2163  -26.0182  -14.6886 O   0  0  0  0  0  0  0  0  0  0  0  0
   20.5857  -24.0426  -12.9625 O   0  0  0  0  0  0  0  0  0  0  0  0
   25.2323  -24.7870  -16.6323 N   0  0  0  0  0  0  0  0  0  0  0  0
   26.6547  -25.0201  -16.7759 C   0  0  1  0  0  0  0  0  0  0  0  0
   26.9523  -25.7866  -18.0536 C   0  0  0  0  0  0  0  0  0  0  0  0
   26.4841  -27.1830  -17.8808 C   0  0  0  0  0  0  0  0  0  0  0  0
   25.2079  -27.6297  -18.1517 C   0  0  0  0  0  0  0  0  0  0  0  0
   25.1795  -28.9390  -17.8632 N   0  0  0  0  0  0  0  0  0  0  0  0
   26.3840  -29.3503  -17.4186 C   0  0  0  0  0  0  0  0  0  0  0  0
   26.8399  -30.5942  -17.0026 C   0  0  0  0  0  0  0  0  0  0  0  0
   28.1506  -30.6947  -16.5972 C   0  0  0  0  0  0  0  0  0  0  0  0
   28.9909  -29.6024  -16.6004 C   0  0  0  0  0  0  0  0  0  0  0  0
   28.5317  -28.3702  -17.0142 C   0  0  0  0  0  0  0  0  0  0  0  0
   27.2002  -28.2535  -17.4293 C   0  0  0  0  0  0  0  0  0  0  0  0
   27.3759  -23.7300  -16.7325 C   0  0  0  0  0  0  0  0  0  0  0  0
   26.7329  -22.6619  -16.6385 O   0  0  0  0  0  0  0  0  0  0  0  0
   28.7544  -23.6751  -16.7931 O   0  0  0  0  0  0  0  0  0  0  0  0
  1  2  1  0
  3  4  2  0
  3  2  1  0
  5  3  1  0
  6  5  1  0
  6  7  1  1
  8  7  1  0
  9 13  1  0
  9  8  1  0
 10  9  2  0
 11  6  1  0
 11 12  2  0
 14 11  1  0
 15 14  1  0
 15 16  1  6
 17 16  1  0
 17 25  1  0
 18 19  1  0
 18 17  2  0
 19 20  1  0
 20 25  2  0
 20 21  1  0
 21 22  2  0
 22 23  1  0
 24 23  2  0
 25 24  1  0
 26 15  1  0
 26 28  1  0
 27 26  2  0
M  END
$$$$
