DDM.pdb
     RDKit          3D

 25 24  0  0  1  0  0  0  0  0999 V2000
   19.2629  -22.9913  -14.1874 N   0  0  0  0  0  0  0  0  0  0  0  0
   17.9623  -22.5374  -13.7786 C   0  0  1  0  0  0  0  0  0  0  0  0
   17.0744  -22.2818  -14.9808 C   0  0  0  0  0  0  0  0  0  0  0  0
   17.6132  -21.1915  -15.8123 C   0  0  0  0  0  0  0  0  0  0  0  0
   17.6381  -21.3072  -17.0522 O   0  0  0  0  0  0  0  0  0  0  0  0
   17.3412  -23.4078  -12.7785 C   0  0  0  0  0  0  0  0  0  0  0  0
   16.1847  -23.1681  -12.3477 O   0  0  0  0  0  0  0  0  0  0  0  0
   18.0882  -20.0457  -15.2141 O   0  0  0  0  0  0  0  0  0  0  0  0
   17.9881  -24.5654  -12.2316 N   0  0  0  0  0  0  0  0  0  0  0  0
   17.4054  -25.4439  -11.2689 C   0  0  1  0  0  0  0  0  0  0  0  0
   17.0307  -26.7460  -11.9669 C   0  0  0  0  0  0  0  0  0  0  0  0
   16.5055  -27.7383  -11.0054 C   0  0  0  0  0  0  0  0  0  0  0  0
   15.6733  -27.4508  -10.1119 O   0  0  0  0  0  0  0  0  0  0  0  0
   18.3407  -25.6876  -10.1472 C   0  0  0  0  0  0  0  0  0  0  0  0
   19.4701  -26.2236  -10.2968 O   0  0  0  0  0  0  0  0  0  0  0  0
   16.9698  -29.0447  -11.1153 O   0  0  0  0  0  0  0  0  0  0  0  0
   21.9837  -20.0394   -7.7399 C   0  0  0  0  0  0  0  0  0  0  0  0
   20.8824  -21.0637   -8.7250 S   0  0  0  0  0  0  0  0  0  0  0  0
   20.3125  -22.5034   -7.7797 C   0  0  0  0  0  0  0  0  0  0  0  0
   19.3896  -23.3124   -8.6541 C   0  0  0  0  0  0  0  0  0  0  0  0
   18.8700  -24.5461   -7.9524 C   0  0  2  0  0  0  0  0  0  0  0  0
   18.0042  -25.3201   -8.8114 N   0  0  0  0  0  0  0  0  0  0  0  0
   18.3035  -24.2689   -6.6379 C   0  0  0  0  0  0  0  0  0  0  0  0
   19.0480  -24.0769   -5.6621 O   0  0  0  0  0  0  0  0  0  0  0  0
   16.9437  -24.2156   -6.4583 O   0  0  0  0  0  0  0  0  0  0  0  0
  2  3  1  0
  2  1  1  6
  3  4  1  0
  4  8  1  0
  5  4  2  0
  6  7  2  0
  6  2  1  0
  9  6  1  0
 10 14  1  0
 10  9  1  0
 10 11  1  6
 12 11  1  0
 12 16  1  0
 13 12  2  0
 14 22  1  0
 15 14  2  0
 18 19  1  0
 18 17  1  0
 21 20  1  6
 20 19  1  0
 22 21  1  0
 23 21  1  0
 23 25  1  0
 24 23  2  0
M  END
$$$$
