DDM.pdb
     RDKit          3D

 25 24  0  0  1  0  0  0  0  0999 V2000
   16.7674  -13.1034  -14.6534 N   0  0  0  0  0  0  0  0  0  0  0  0
   15.8579  -12.0757  -14.2276 C   0  0  1  0  0  0  0  0  0  0  0  0
   14.6298  -12.6759  -13.5716 C   0  0  0  0  0  0  0  0  0  0  0  0
   13.9226  -13.5757  -14.4993 C   0  0  0  0  0  0  0  0  0  0  0  0
   13.4842  -13.1376  -15.5798 O   0  0  0  0  0  0  0  0  0  0  0  0
   16.5015  -11.0450  -13.4110 C   0  0  0  0  0  0  0  0  0  0  0  0
   16.9951  -11.3287  -12.2902 O   0  0  0  0  0  0  0  0  0  0  0  0
   13.7487  -14.9009  -14.1678 O   0  0  0  0  0  0  0  0  0  0  0  0
   16.6129   -9.6740  -13.8178 N   0  0  0  0  0  0  0  0  0  0  0  0
   17.2726   -8.6541  -13.0675 C   0  0  1  0  0  0  0  0  0  0  0  0
   18.0419   -7.7628  -14.0354 C   0  0  0  0  0  0  0  0  0  0  0  0
   18.7039   -6.6472  -13.3267 C   0  0  0  0  0  0  0  0  0  0  0  0
   18.4336   -5.4419  -13.5452 O   0  0  0  0  0  0  0  0  0  0  0  0
   16.2964   -7.8694  -12.2777 C   0  0  0  0  0  0  0  0  0  0  0  0
   15.2330   -7.4033  -12.7646 O   0  0  0  0  0  0  0  0  0  0  0  0
   19.6677   -6.9727  -12.3784 O   0  0  0  0  0  0  0  0  0  0  0  0
   12.1763   -6.8789   -5.8574 C   0  0  0  0  0  0  0  0  0  0  0  0
   13.5083   -7.7114   -6.7321 S   0  0  0  0  0  0  0  0  0  0  0  0
   14.1130   -6.7008   -8.1119 C   0  0  0  0  0  0  0  0  0  0  0  0
   15.1110   -7.5134   -8.8959 C   0  0  0  0  0  0  0  0  0  0  0  0
   15.6417   -6.7657  -10.0974 C   0  0  2  0  0  0  0  0  0  0  0  0
   16.5144   -7.5951  -10.8956 N   0  0  0  0  0  0  0  0  0  0  0  0
   16.2059   -5.4629   -9.7655 C   0  0  0  0  0  0  0  0  0  0  0  0
   17.4314   -5.2731   -9.8395 O   0  0  0  0  0  0  0  0  0  0  0  0
   15.3951   -4.4293   -9.3678 O   0  0  0  0  0  0  0  0  0  0  0  0
  2  3  1  0
  2  1  1  1
  3  4  1  0
  4  8  1  0
  5  4  2  0
  6  7  2  0
  6  2  1  0
  9  6  1  0
 10 14  1  0
 10  9  1  0
 10 11  1  6
 12 11  1  0
 12 16  1  0
 13 12  2  0
 14 22  1  0
 15 14  2  0
 18 19  1  0
 18 17  1  0
 21 20  1  1
 20 19  1  0
 22 21  1  0
 23 21  1  0
 23 25  1  0
 24 23  2  0
M  END
$$$$
