DDM.pdb
     RDKit          3D

 25 24  0  0  1  0  0  0  0  0999 V2000
   16.5584  -13.3662  -17.7710 N   0  0  0  0  0  0  0  0  0  0  0  0
   16.6342  -12.6677  -16.5176 C   0  0  1  0  0  0  0  0  0  0  0  0
   17.2226  -13.5542  -15.4374 C   0  0  0  0  0  0  0  0  0  0  0  0
   16.3535  -14.7145  -15.1757 C   0  0  0  0  0  0  0  0  0  0  0  0
   15.2832  -14.8449  -15.7993 O   0  0  0  0  0  0  0  0  0  0  0  0
   17.3035  -11.3701  -16.6257 C   0  0  0  0  0  0  0  0  0  0  0  0
   18.2447  -11.1987  -17.4413 O   0  0  0  0  0  0  0  0  0  0  0  0
   16.7286  -15.6531  -14.2403 O   0  0  0  0  0  0  0  0  0  0  0  0
   16.9450  -10.2307  -15.8314 N   0  0  0  0  0  0  0  0  0  0  0  0
   17.5979   -8.9624  -15.8875 C   0  0  1  0  0  0  0  0  0  0  0  0
   16.6308   -7.8981  -15.3822 C   0  0  0  0  0  0  0  0  0  0  0  0
   17.2375   -6.5513  -15.4395 C   0  0  0  0  0  0  0  0  0  0  0  0
   17.9374   -6.1569  -16.4029 O   0  0  0  0  0  0  0  0  0  0  0  0
   18.8433   -8.9776  -15.0868 C   0  0  0  0  0  0  0  0  0  0  0  0
   18.8941   -9.3972  -13.9008 O   0  0  0  0  0  0  0  0  0  0  0  0
   17.0085   -5.6994  -14.3643 O   0  0  0  0  0  0  0  0  0  0  0  0
   26.5446  -10.0580  -14.8534 C   0  0  0  0  0  0  0  0  0  0  0  0
   24.9575  -10.1094  -15.6966 S   0  0  0  0  0  0  0  0  0  0  0  0
   23.7276   -9.0937  -14.8325 C   0  0  0  0  0  0  0  0  0  0  0  0
   22.4041   -9.2465  -15.5368 C   0  0  0  0  0  0  0  0  0  0  0  0
   21.3072   -8.4434  -14.8763 C   0  0  2  0  0  0  0  0  0  0  0  0
   20.0758   -8.5080  -15.6286 N   0  0  0  0  0  0  0  0  0  0  0  0
   21.7138   -7.0882  -14.5242 C   0  0  0  0  0  0  0  0  0  0  0  0
   22.1138   -6.8319  -13.3763 O   0  0  0  0  0  0  0  0  0  0  0  0
   21.6614   -6.0780  -15.4519 O   0  0  0  0  0  0  0  0  0  0  0  0
  2  3  1  0
  2  1  1  6
  3  4  1  0
  4  8  1  0
  5  4  2  0
  6  7  2  0
  6  2  1  0
  9  6  1  0
 10 14  1  0
 10  9  1  0
 10 11  1  1
 12 11  1  0
 12 16  1  0
 13 12  2  0
 14 22  1  0
 15 14  2  0
 18 19  1  0
 18 17  1  0
 21 20  1  6
 20 19  1  0
 22 21  1  0
 23 21  1  0
 23 25  1  0
 24 23  2  0
M  END
$$$$
