DDM.pdb
     RDKit          3D

 25 24  0  0  1  0  0  0  0  0999 V2000
   15.7746  -10.2413   -9.6130 N   0  0  0  0  0  0  0  0  0  0  0  0
   15.3561   -9.6293  -10.8438 C   0  0  1  0  0  0  0  0  0  0  0  0
   13.8703   -9.8287  -11.0711 C   0  0  0  0  0  0  0  0  0  0  0  0
   13.5482  -11.2573  -11.2313 C   0  0  0  0  0  0  0  0  0  0  0  0
   13.6260  -12.0271  -10.2552 O   0  0  0  0  0  0  0  0  0  0  0  0
   15.7736   -8.2306  -10.9578 C   0  0  0  0  0  0  0  0  0  0  0  0
   15.6859   -7.6214  -12.0540 O   0  0  0  0  0  0  0  0  0  0  0  0
   13.1611  -11.7374  -12.4626 O   0  0  0  0  0  0  0  0  0  0  0  0
   16.2990   -7.4738   -9.8585 N   0  0  0  0  0  0  0  0  0  0  0  0
   16.7505   -6.1221   -9.9438 C   0  0  1  0  0  0  0  0  0  0  0  0
   16.3492   -5.3967   -8.6647 C   0  0  0  0  0  0  0  0  0  0  0  0
   14.8998   -5.1068   -8.6445 C   0  0  0  0  0  0  0  0  0  0  0  0
   14.1408   -5.4792   -7.7179 O   0  0  0  0  0  0  0  0  0  0  0  0
   18.2156   -6.0704  -10.1515 C   0  0  0  0  0  0  0  0  0  0  0  0
   19.0370   -6.6776   -9.4153 O   0  0  0  0  0  0  0  0  0  0  0  0
   14.3756   -4.3868   -9.7128 O   0  0  0  0  0  0  0  0  0  0  0  0
   23.1706   -9.5923  -13.9247 C   0  0  0  0  0  0  0  0  0  0  0  0
   21.5989   -9.1398  -13.1779 S   0  0  0  0  0  0  0  0  0  0  0  0
   21.5384   -7.3637  -12.8132 C   0  0  0  0  0  0  0  0  0  0  0  0
   20.1883   -7.0441  -12.2250 C   0  0  0  0  0  0  0  0  0  0  0  0
   20.0762   -5.5981  -11.7994 C   0  0  2  0  0  0  0  0  0  0  0  0
   18.7845   -5.3146  -11.2183 N   0  0  0  0  0  0  0  0  0  0  0  0
   20.4761   -4.6563  -12.8380 C   0  0  0  0  0  0  0  0  0  0  0  0
   19.6386   -4.2210  -13.6458 O   0  0  0  0  0  0  0  0  0  0  0  0
   21.7792   -4.2372  -12.9393 O   0  0  0  0  0  0  0  0  0  0  0  0
  2  3  1  0
  2  1  1  1
  3  4  1  0
  4  8  1  0
  5  4  2  0
  6  7  2  0
  6  2  1  0
  9  6  1  0
 10 14  1  0
 10  9  1  0
 10 11  1  1
 12 11  1  0
 12 16  1  0
 13 12  2  0
 14 22  1  0
 15 14  2  0
 18 19  1  0
 18 17  1  0
 21 20  1  6
 20 19  1  0
 22 21  1  0
 23 21  1  0
 23 25  1  0
 24 23  2  0
M  END
$$$$
