DDM.pdb
     RDKit          3D

 25 24  0  0  1  0  0  0  0  0999 V2000
   16.0077  -11.1717  -14.8209 N   0  0  0  0  0  0  0  0  0  0  0  0
   17.2970  -11.3191  -15.4377 C   0  0  1  0  0  0  0  0  0  0  0  0
   17.2356  -12.2949  -16.5966 C   0  0  0  0  0  0  0  0  0  0  0  0
   16.7696  -13.6184  -16.1477 C   0  0  0  0  0  0  0  0  0  0  0  0
   15.5604  -13.8080  -15.9166 O   0  0  0  0  0  0  0  0  0  0  0  0
   17.9097  -10.0383  -15.7950 C   0  0  0  0  0  0  0  0  0  0  0  0
   18.8752   -9.9900  -16.5987 O   0  0  0  0  0  0  0  0  0  0  0  0
   17.6747  -14.6435  -15.9853 O   0  0  0  0  0  0  0  0  0  0  0  0
   17.4663   -8.7796  -15.2692 N   0  0  0  0  0  0  0  0  0  0  0  0
   18.0287   -7.5124  -15.6098 C   0  0  1  0  0  0  0  0  0  0  0  0
   16.9728   -6.4374  -15.3806 C   0  0  0  0  0  0  0  0  0  0  0  0
   17.4979   -5.0929  -15.6997 C   0  0  0  0  0  0  0  0  0  0  0  0
   17.2134   -4.0710  -15.0302 O   0  0  0  0  0  0  0  0  0  0  0  0
   19.2459   -7.2465  -14.8096 C   0  0  0  0  0  0  0  0  0  0  0  0
   19.2664   -7.2930  -13.5516 O   0  0  0  0  0  0  0  0  0  0  0  0
   18.3444   -4.9798  -16.7974 O   0  0  0  0  0  0  0  0  0  0  0  0
   25.8830  -10.1964  -14.1442 C   0  0  0  0  0  0  0  0  0  0  0  0
   24.9509   -9.1319  -15.2535 S   0  0  0  0  0  0  0  0  0  0  0  0
   23.6450   -8.2443  -14.3602 C   0  0  0  0  0  0  0  0  0  0  0  0
   22.8778   -7.4047  -15.3489 C   0  0  0  0  0  0  0  0  0  0  0  0
   21.7113   -6.6879  -14.7087 C   0  0  2  0  0  0  0  0  0  0  0  0
   20.4841   -6.9172  -15.4352 N   0  0  0  0  0  0  0  0  0  0  0  0
   21.9784   -5.2820  -14.4295 C   0  0  0  0  0  0  0  0  0  0  0  0
   21.4793   -4.3954  -15.1424 O   0  0  0  0  0  0  0  0  0  0  0  0
   22.7823   -4.9172  -13.3785 O   0  0  0  0  0  0  0  0  0  0  0  0
  2  3  1  0
  2  1  1  6
  3  4  1  0
  4  8  1  0
  5  4  2  0
  6  7  2  0
  6  2  1  0
  9  6  1  0
 10 14  1  0
 10  9  1  0
 10 11  1  1
 12 11  1  0
 12 16  1  0
 13 12  2  0
 14 22  1  0
 15 14  2  0
 18 19  1  0
 18 17  1  0
 21 20  1  6
 20 19  1  0
 22 21  1  0
 23 21  1  0
 23 25  1  0
 24 23  2  0
M  END
$$$$
