DDM.pdb
     RDKit          3D

 25 24  0  0  1  0  0  0  0  0999 V2000
   17.5631   -4.9932  -15.0100 N   0  0  0  0  0  0  0  0  0  0  0  0
   18.4833   -5.3253  -16.0625 C   0  0  1  0  0  0  0  0  0  0  0  0
   19.2825   -4.1092  -16.4881 C   0  0  0  0  0  0  0  0  0  0  0  0
   18.3923   -3.0176  -16.9200 C   0  0  0  0  0  0  0  0  0  0  0  0
   17.1665   -3.2153  -17.0192 O   0  0  0  0  0  0  0  0  0  0  0  0
   19.3215   -6.4830  -15.7450 C   0  0  0  0  0  0  0  0  0  0  0  0
   19.8966   -6.5735  -14.6308 O   0  0  0  0  0  0  0  0  0  0  0  0
   18.9200   -1.7798  -17.2128 O   0  0  0  0  0  0  0  0  0  0  0  0
   19.5423   -7.5686  -16.6561 N   0  0  0  0  0  0  0  0  0  0  0  0
   20.2767   -8.7533  -16.3470 C   0  0  1  0  0  0  0  0  0  0  0  0
   19.5379   -9.9482  -16.9381 C   0  0  0  0  0  0  0  0  0  0  0  0
   18.3412  -10.2877  -16.1394 C   0  0  0  0  0  0  0  0  0  0  0  0
   17.1826  -10.3111  -16.6196 O   0  0  0  0  0  0  0  0  0  0  0  0
   21.6587   -8.6655  -16.8711 C   0  0  0  0  0  0  0  0  0  0  0  0
   21.9649   -8.0040  -17.8977 O   0  0  0  0  0  0  0  0  0  0  0  0
   18.5329  -10.5916  -14.7959 O   0  0  0  0  0  0  0  0  0  0  0  0
   29.2169  -10.8350  -15.4781 C   0  0  0  0  0  0  0  0  0  0  0  0
   27.4630  -11.0410  -15.1402 S   0  0  0  0  0  0  0  0  0  0  0  0
   26.4605  -10.0201  -16.2555 C   0  0  0  0  0  0  0  0  0  0  0  0
   25.0289  -10.0685  -15.7876 C   0  0  0  0  0  0  0  0  0  0  0  0
   24.0981   -9.3172  -16.7115 C   0  0  2  0  0  0  0  0  0  0  0  0
   22.7374   -9.3396  -16.2269 N   0  0  0  0  0  0  0  0  0  0  0  0
   24.2333   -9.7053  -18.1103 C   0  0  0  0  0  0  0  0  0  0  0  0
   23.6604  -10.7217  -18.5372 O   0  0  0  0  0  0  0  0  0  0  0  0
   24.9926   -8.9566  -18.9746 O   0  0  0  0  0  0  0  0  0  0  0  0
  2  3  1  0
  2  1  1  1
  3  4  1  0
  4  8  1  0
  5  4  2  0
  6  7  2  0
  6  2  1  0
  9  6  1  0
 10 14  1  0
 10  9  1  0
 10 11  1  6
 12 11  1  0
 12 16  1  0
 13 12  2  0
 14 22  1  0
 15 14  2  0
 18 19  1  0
 18 17  1  0
 21 20  1  1
 20 19  1  0
 22 21  1  0
 23 21  1  0
 23 25  1  0
 24 23  2  0
M  END
$$$$
