DDM.pdb
     RDKit          3D

 25 24  0  0  1  0  0  0  0  0999 V2000
   17.2643  -13.8778  -15.6653 N   0  0  0  0  0  0  0  0  0  0  0  0
   18.4633  -13.7495  -16.4467 C   0  0  1  0  0  0  0  0  0  0  0  0
   18.3743  -14.5739  -17.7161 C   0  0  0  0  0  0  0  0  0  0  0  0
   18.1648  -15.9988  -17.4062 C   0  0  0  0  0  0  0  0  0  0  0  0
   18.1666  -16.3860  -16.2223 O   0  0  0  0  0  0  0  0  0  0  0  0
   18.8408  -12.3561  -16.6901 C   0  0  0  0  0  0  0  0  0  0  0  0
   19.7836  -12.0732  -17.4722 O   0  0  0  0  0  0  0  0  0  0  0  0
   17.9671  -16.8995  -18.4290 O   0  0  0  0  0  0  0  0  0  0  0  0
   18.1818  -11.2423  -16.0716 N   0  0  0  0  0  0  0  0  0  0  0  0
   18.5640   -9.8768  -16.2373 C   0  0  1  0  0  0  0  0  0  0  0  0
   17.4568   -8.9931  -15.6747 C   0  0  0  0  0  0  0  0  0  0  0  0
   17.7666   -7.5600  -15.8626 C   0  0  0  0  0  0  0  0  0  0  0  0
   17.9633   -7.0449  -16.9893 O   0  0  0  0  0  0  0  0  0  0  0  0
   19.8562   -9.6085  -15.5662 C   0  0  0  0  0  0  0  0  0  0  0  0
   20.3386  -10.3579  -14.6768 O   0  0  0  0  0  0  0  0  0  0  0  0
   17.8383   -6.7654  -14.7234 O   0  0  0  0  0  0  0  0  0  0  0  0
   26.8289  -10.7553  -14.7997 C   0  0  0  0  0  0  0  0  0  0  0  0
   25.1951  -10.8115  -15.5483 S   0  0  0  0  0  0  0  0  0  0  0  0
   24.2574   -9.3029  -15.1795 C   0  0  0  0  0  0  0  0  0  0  0  0
   22.8595   -9.4674  -15.7178 C   0  0  0  0  0  0  0  0  0  0  0  0
   21.9932   -8.2600  -15.4421 C   0  0  2  0  0  0  0  0  0  0  0  0
   20.6381   -8.4637  -15.8992 N   0  0  0  0  0  0  0  0  0  0  0  0
   22.5865   -7.0068  -15.8930 C   0  0  0  0  0  0  0  0  0  0  0  0
   22.3474   -6.5743  -17.0329 O   0  0  0  0  0  0  0  0  0  0  0  0
   23.4153   -6.2877  -15.0685 O   0  0  0  0  0  0  0  0  0  0  0  0
  2  3  1  0
  2  1  1  6
  3  4  1  0
  4  8  1  0
  5  4  2  0
  6  7  2  0
  6  2  1  0
  9  6  1  0
 10 14  1  0
 10  9  1  0
 10 11  1  1
 12 11  1  0
 12 16  1  0
 13 12  2  0
 14 22  1  0
 15 14  2  0
 18 19  1  0
 18 17  1  0
 21 20  1  6
 20 19  1  0
 22 21  1  0
 23 21  1  0
 23 25  1  0
 24 23  2  0
M  END
$$$$
