DDM.pdb
     RDKit          3D

 25 24  0  0  1  0  0  0  0  0999 V2000
   14.3440   -8.8695   -8.6670 N   0  0  0  0  0  0  0  0  0  0  0  0
   14.9418   -8.9651   -9.9701 C   0  0  1  0  0  0  0  0  0  0  0  0
   13.9160   -9.3747  -11.0088 C   0  0  0  0  0  0  0  0  0  0  0  0
   13.3596  -10.7045  -10.7050 C   0  0  0  0  0  0  0  0  0  0  0  0
   12.6698  -10.8726   -9.6816 O   0  0  0  0  0  0  0  0  0  0  0  0
   15.6928   -7.7652  -10.3441 C   0  0  0  0  0  0  0  0  0  0  0  0
   15.9730   -7.5318  -11.5472 O   0  0  0  0  0  0  0  0  0  0  0  0
   13.6046  -11.7592  -11.5558 O   0  0  0  0  0  0  0  0  0  0  0  0
   16.1515   -6.7950   -9.3923 N   0  0  0  0  0  0  0  0  0  0  0  0
   16.7693   -5.5532   -9.7304 C   0  0  1  0  0  0  0  0  0  0  0  0
   16.4555   -4.5426   -8.6333 C   0  0  0  0  0  0  0  0  0  0  0  0
   15.0295   -4.1537   -8.6541 C   0  0  0  0  0  0  0  0  0  0  0  0
   14.4096   -3.8839   -9.7107 O   0  0  0  0  0  0  0  0  0  0  0  0
   18.2304   -5.7231   -9.8998 C   0  0  0  0  0  0  0  0  0  0  0  0
   18.9567   -6.3152   -9.0589 O   0  0  0  0  0  0  0  0  0  0  0  0
   14.3650   -4.0904   -7.4340 O   0  0  0  0  0  0  0  0  0  0  0  0
   19.7628  -10.1622  -12.8081 C   0  0  0  0  0  0  0  0  0  0  0  0
   21.3197   -9.2807  -12.6301 S   0  0  0  0  0  0  0  0  0  0  0  0
   21.0663   -7.4866  -12.7189 C   0  0  0  0  0  0  0  0  0  0  0  0
   20.5195   -7.0168  -11.3956 C   0  0  0  0  0  0  0  0  0  0  0  0
   20.2782   -5.5249  -11.3721 C   0  0  2  0  0  0  0  0  0  0  0  0
   18.9052   -5.2144  -11.0482 N   0  0  0  0  0  0  0  0  0  0  0  0
   20.7745   -4.8395  -12.5594 C   0  0  0  0  0  0  0  0  0  0  0  0
   19.9856   -4.4668  -13.4439 O   0  0  0  0  0  0  0  0  0  0  0  0
   22.1159   -4.5961  -12.7182 O   0  0  0  0  0  0  0  0  0  0  0  0
  2  3  1  0
  2  1  1  1
  3  4  1  0
  4  8  1  0
  5  4  2  0
  6  7  2  0
  6  2  1  0
  9  6  1  0
 10 14  1  0
 10  9  1  0
 10 11  1  1
 12 11  1  0
 12 16  1  0
 13 12  2  0
 14 22  1  0
 15 14  2  0
 18 19  1  0
 18 17  1  0
 21 20  1  6
 20 19  1  0
 22 21  1  0
 23 21  1  0
 23 25  1  0
 24 23  2  0
M  END
$$$$
