DDM.pdb
     RDKit          3D

 25 24  0  0  1  0  0  0  0  0999 V2000
   18.1887  -11.7405  -15.3433 N   0  0  0  0  0  0  0  0  0  0  0  0
   18.3845  -10.6628  -16.2733 C   0  0  1  0  0  0  0  0  0  0  0  0
   17.0819   -9.9350  -16.5423 C   0  0  0  0  0  0  0  0  0  0  0  0
   16.0570  -10.8603  -17.0560 C   0  0  0  0  0  0  0  0  0  0  0  0
   15.1320  -11.2404  -16.3134 O   0  0  0  0  0  0  0  0  0  0  0  0
   19.4762   -9.7664  -15.8881 C   0  0  0  0  0  0  0  0  0  0  0  0
   19.4499   -9.1576  -14.7886 O   0  0  0  0  0  0  0  0  0  0  0  0
   16.1255  -11.3024  -18.3584 O   0  0  0  0  0  0  0  0  0  0  0  0
   20.6237   -9.5233  -16.7137 N   0  0  0  0  0  0  0  0  0  0  0  0
   21.7218   -8.6852  -16.3535 C   0  0  1  0  0  0  0  0  0  0  0  0
   22.9674   -9.1824  -17.0777 C   0  0  0  0  0  0  0  0  0  0  0  0
   24.1616   -8.4030  -16.6881 C   0  0  0  0  0  0  0  0  0  0  0  0
   24.1347   -7.4996  -15.8183 O   0  0  0  0  0  0  0  0  0  0  0  0
   21.4355   -7.2719  -16.6896 C   0  0  0  0  0  0  0  0  0  0  0  0
   20.9875   -6.9076  -17.8085 O   0  0  0  0  0  0  0  0  0  0  0  0
   25.3590   -8.7025  -17.3289 O   0  0  0  0  0  0  0  0  0  0  0  0
   17.2008   -1.5485  -17.5087 C   0  0  0  0  0  0  0  0  0  0  0  0
   17.7456   -3.2362  -17.2128 S   0  0  0  0  0  0  0  0  0  0  0  0
   19.4709   -3.2752  -16.6536 C   0  0  0  0  0  0  0  0  0  0  0  0
   19.8763   -4.7136  -16.4598 C   0  0  0  0  0  0  0  0  0  0  0  0
   21.3031   -4.8474  -15.9792 C   0  0  2  0  0  0  0  0  0  0  0  0
   21.6565   -6.2281  -15.7439 N   0  0  0  0  0  0  0  0  0  0  0  0
   21.6261   -3.9577  -14.8702 C   0  0  0  0  0  0  0  0  0  0  0  0
   21.4745   -2.7302  -14.9865 O   0  0  0  0  0  0  0  0  0  0  0  0
   22.1007   -4.4604  -13.6845 O   0  0  0  0  0  0  0  0  0  0  0  0
  2  3  1  0
  2  1  1  1
  3  4  1  0
  4  8  1  0
  5  4  2  0
  6  7  2  0
  6  2  1  0
  9  6  1  0
 10 14  1  0
 10  9  1  0
 10 11  1  6
 12 11  1  0
 12 16  1  0
 13 12  2  0
 14 22  1  0
 15 14  2  0
 18 19  1  0
 18 17  1  0
 21 20  1  1
 20 19  1  0
 22 21  1  0
 23 21  1  0
 23 25  1  0
 24 23  2  0
M  END
$$$$
