DDM.pdb
     RDKit          3D

 25 24  0  0  1  0  0  0  0  0999 V2000
   16.6337  -10.6707  -16.1962 N   0  0  0  0  0  0  0  0  0  0  0  0
   17.5305  -11.1789  -15.1951 C   0  0  1  0  0  0  0  0  0  0  0  0
   17.9493  -12.6009  -15.5135 C   0  0  0  0  0  0  0  0  0  0  0  0
   16.8018  -13.5208  -15.4269 C   0  0  0  0  0  0  0  0  0  0  0  0
   16.7542  -14.3745  -14.5212 O   0  0  0  0  0  0  0  0  0  0  0  0
   18.6639  -10.2886  -14.9377 C   0  0  0  0  0  0  0  0  0  0  0  0
   19.6025  -10.6457  -14.1814 O   0  0  0  0  0  0  0  0  0  0  0  0
   15.7834  -13.4329  -16.3497 O   0  0  0  0  0  0  0  0  0  0  0  0
   18.7837   -8.9801  -15.5131 N   0  0  0  0  0  0  0  0  0  0  0  0
   19.9183   -8.1267  -15.3633 C   0  0  1  0  0  0  0  0  0  0  0  0
   19.9609   -7.1669  -16.5466 C   0  0  0  0  0  0  0  0  0  0  0  0
   20.3076   -7.8732  -17.7981 C   0  0  0  0  0  0  0  0  0  0  0  0
   21.2987   -8.6350  -17.9013 O   0  0  0  0  0  0  0  0  0  0  0  0
   19.8560   -7.3914  -14.0796 C   0  0  0  0  0  0  0  0  0  0  0  0
   18.8156   -6.8154  -13.6661 O   0  0  0  0  0  0  0  0  0  0  0  0
   19.4826   -7.6683  -18.8989 O   0  0  0  0  0  0  0  0  0  0  0  0
   22.7281   -6.7221   -6.7831 C   0  0  0  0  0  0  0  0  0  0  0  0
   22.6672   -7.5563   -8.3747 S   0  0  0  0  0  0  0  0  0  0  0  0
   21.8214   -6.5355   -9.6131 C   0  0  0  0  0  0  0  0  0  0  0  0
   21.7338   -7.3196  -10.8971 C   0  0  0  0  0  0  0  0  0  0  0  0
   21.0025   -6.5629  -11.9821 C   0  0  2  0  0  0  0  0  0  0  0  0
   20.9947   -7.2956  -13.2270 N   0  0  0  0  0  0  0  0  0  0  0  0
   21.4366   -5.1774  -12.1148 C   0  0  0  0  0  0  0  0  0  0  0  0
   22.2990   -4.8683  -12.9539 O   0  0  0  0  0  0  0  0  0  0  0  0
   20.9012   -4.1964  -11.3180 O   0  0  0  0  0  0  0  0  0  0  0  0
  2  3  1  0
  2  1  1  6
  3  4  1  0
  4  8  1  0
  5  4  2  0
  6  7  2  0
  6  2  1  0
  9  6  1  0
 10 14  1  0
 10  9  1  0
 10 11  1  6
 12 11  1  0
 12 16  1  0
 13 12  2  0
 14 22  1  0
 15 14  2  0
 18 19  1  0
 18 17  1  0
 21 20  1  1
 20 19  1  0
 22 21  1  0
 23 21  1  0
 23 25  1  0
 24 23  2  0
M  END
$$$$
