RTE.pdb
     RDKit          3D

 28 27  0  0  1  0  0  0  0  0999 V2000
    6.1642  -13.3590   16.5521 N   0  0  0  0  0  0  0  0  0  0  0  0
    7.4246  -12.7299   16.8005 C   0  0  0  0  0  0  0  0  0  0  0  0
    7.4182  -11.5962   17.3814 N   0  0  0  0  0  0  0  0  0  0  0  0
    8.6579  -13.3280   16.4220 N   0  0  0  0  0  0  0  0  0  0  0  0
    8.6592  -14.7131   15.9773 C   0  0  0  0  0  0  0  0  0  0  0  0
    8.8292  -15.6026   17.1564 C   0  0  0  0  0  0  0  0  0  0  0  0
    9.9821  -16.5602   17.0623 C   0  0  0  0  0  0  0  0  0  0  0  0
   10.1049  -17.5020   18.2312 C   0  0  2  0  0  0  0  0  0  0  0  0
    8.9916  -18.3853   18.2780 N   0  0  0  0  0  0  0  0  0  0  0  0
   10.3082  -16.7227   19.4891 C   0  0  0  0  0  0  0  0  0  0  0  0
   11.2462  -15.8956   19.5074 O   0  0  0  0  0  0  0  0  0  0  0  0
    8.2407  -11.0485   17.6695 C   0  0  0  0  0  0  0  0  0  0  0  0
    7.9238  -14.5777   21.2211 C   0  0  2  0  0  0  0  0  0  0  0  0
    8.3974  -15.5846   22.2808 O   0  0  0  0  0  0  0  0  0  0  0  0
    7.3052  -16.3401   22.5863 C   0  0  2  0  0  0  0  0  0  0  0  0
    9.6264  -16.2237   21.8821 N   0  0  0  0  0  0  0  0  0  0  0  0
    9.4805  -16.9065   20.6142 C   0  0  0  0  0  0  0  0  0  0  0  0
   10.4024  -17.0449   22.7866 O   0  0  0  0  0  0  0  0  0  0  0  0
   11.0941  -17.9839   22.3254 N   0  0  0  0  0  0  0  0  0  0  0  0
   10.4712  -16.9015   24.1908 C   0  0  1  0  0  0  0  0  0  0  0  0
   11.6404  -16.9611   25.0167 C   0  0  0  0  0  0  0  0  0  0  0  0
   12.8686  -16.3959   24.4545 C   0  0  0  0  0  0  0  0  0  0  0  0
   13.9134  -17.2853   23.9122 C   0  0  0  0  0  0  0  0  0  0  0  0
   15.3017  -16.9036   23.9648 O   0  0  0  0  0  0  0  0  0  0  0  0
   15.6828  -16.1979   24.9720 C   0  0  0  0  0  0  0  0  0  0  0  0
   11.3414  -16.6812   26.4320 O   0  0  0  0  0  0  0  0  0  0  0  0
   10.6633  -15.6721   26.7500 O   0  0  0  0  0  0  0  0  0  0  0  0
   16.3229  -17.1782   23.0858 O   0  0  0  0  0  0  0  0  0  0  0  0
  2  1  1  0
  2  3  2  0
  4  2  1  0
  5  4  1  0
  6  5  1  0
  7  6  1  0
  8 10  1  0
  8  7  1  0
  8  9  1  1
 10 11  2  0
 13 12  1  1
 13 15  1  0
 14 13  1  0
 15 16  1  1
 16 10  1  0
 17 15  1  0
 18 17  2  0
 19 17  1  0
 20 19  1  0
 20 25  1  0
 20 21  1  1
 22 21  1  0
 23 22  1  0
 24 23  2  0
 25 28  1  0
 26 25  2  0
 27 23  1  0
M  END
$$$$
