RTE.pdb
     RDKit          3D

 28 27  0  0  1  0  0  0  0  0999 V2000
    7.7361  -11.8358   21.6381 N   0  0  0  0  0  0  0  0  0  0  0  0
    8.1777  -12.3761   20.3894 C   0  0  0  0  0  0  0  0  0  0  0  0
    8.4417  -11.5587   19.4488 N   0  0  0  0  0  0  0  0  0  0  0  0
    8.3255  -13.7745   20.1787 N   0  0  0  0  0  0  0  0  0  0  0  0
    7.6314  -14.3932   19.0599 C   0  0  0  0  0  0  0  0  0  0  0  0
    8.5940  -14.6045   17.9466 C   0  0  0  0  0  0  0  0  0  0  0  0
    9.9304  -15.1477   18.3638 C   0  0  0  0  0  0  0  0  0  0  0  0
   10.8232  -15.5485   17.2189 C   0  0  2  0  0  0  0  0  0  0  0  0
   10.2020  -16.5573   16.4326 N   0  0  0  0  0  0  0  0  0  0  0  0
   12.1692  -15.9343   17.7387 C   0  0  0  0  0  0  0  0  0  0  0  0
   12.3881  -17.1524   17.9192 O   0  0  0  0  0  0  0  0  0  0  0  0
    8.6666  -11.7964   18.4729 C   0  0  0  0  0  0  0  0  0  0  0  0
   15.3375  -15.1450   16.3182 C   0  0  2  0  0  0  0  0  0  0  0  0
   15.5229  -14.7383   17.7884 O   0  0  0  0  0  0  0  0  0  0  0  0
   15.7969  -13.4036   17.7704 C   0  0  2  0  0  0  0  0  0  0  0  0
   14.4504  -15.2423   18.6093 N   0  0  0  0  0  0  0  0  0  0  0  0
   13.1581  -14.9701   18.0169 C   0  0  0  0  0  0  0  0  0  0  0  0
   14.3879  -15.0044   20.0355 O   0  0  0  0  0  0  0  0  0  0  0  0
   13.4545  -14.3096   20.5032 N   0  0  0  0  0  0  0  0  0  0  0  0
   15.2993  -15.4877   21.0014 C   0  0  1  0  0  0  0  0  0  0  0  0
   15.0543  -15.7127   22.3951 C   0  0  0  0  0  0  0  0  0  0  0  0
   13.7357  -16.2405   22.7511 C   0  0  0  0  0  0  0  0  0  0  0  0
   13.4074  -16.5257   24.1609 C   0  0  0  0  0  0  0  0  0  0  0  0
   12.1421  -17.1172   24.5145 O   0  0  0  0  0  0  0  0  0  0  0  0
   11.3823  -17.5072   23.5510 C   0  0  0  0  0  0  0  0  0  0  0  0
   16.2278  -16.2743   23.0865 O   0  0  0  0  0  0  0  0  0  0  0  0
   16.2597  -16.3275   24.3417 O   0  0  0  0  0  0  0  0  0  0  0  0
   11.5927  -17.3418   25.7549 O   0  0  0  0  0  0  0  0  0  0  0  0
  2  1  1  0
  2  3  2  0
  4  2  1  0
  5  4  1  0
  6  5  1  0
  7  6  1  0
  8 10  1  0
  8  7  1  0
  8  9  1  1
 10 11  2  0
 13 12  1  6
 13 15  1  0
 14 13  1  0
 15 16  1  1
 16 10  1  0
 17 15  1  0
 18 17  2  0
 19 17  1  0
 20 19  1  0
 20 25  1  0
 20 21  1  1
 22 21  1  0
 23 22  1  0
 24 23  2  0
 25 28  1  0
 26 25  2  0
 27 23  1  0
M  END
$$$$
