RTE.pdb
     RDKit          3D

 28 27  0  0  1  0  0  0  0  0999 V2000
    8.4141  -13.6730   12.0111 N   0  0  0  0  0  0  0  0  0  0  0  0
    7.5174  -14.6302   12.5820 C   0  0  0  0  0  0  0  0  0  0  0  0
    7.0725  -15.5527   11.8246 N   0  0  0  0  0  0  0  0  0  0  0  0
    7.1199  -14.5767   13.9462 N   0  0  0  0  0  0  0  0  0  0  0  0
    7.6106  -13.4891   14.7785 C   0  0  0  0  0  0  0  0  0  0  0  0
    8.9535  -13.8478   15.3062 C   0  0  0  0  0  0  0  0  0  0  0  0
    8.9441  -14.5166   16.6506 C   0  0  0  0  0  0  0  0  0  0  0  0
   10.0760  -14.1076   17.5562 C   0  0  2  0  0  0  0  0  0  0  0  0
   11.1685  -15.0084   17.4257 N   0  0  0  0  0  0  0  0  0  0  0  0
    9.5769  -13.9659   18.9567 C   0  0  0  0  0  0  0  0  0  0  0  0
    8.9095  -12.9435   19.2282 O   0  0  0  0  0  0  0  0  0  0  0  0
    6.4044  -16.2917   12.0833 C   0  0  0  0  0  0  0  0  0  0  0  0
    7.5484  -13.4424   20.5457 C   0  0  2  0  0  0  0  0  0  0  0  0
    7.9540  -14.6723   21.3727 O   0  0  0  0  0  0  0  0  0  0  0  0
    7.0889  -15.6614   21.0119 C   0  0  2  0  0  0  0  0  0  0  0  0
    9.3759  -14.9000   21.3078 N   0  0  0  0  0  0  0  0  0  0  0  0
    9.8431  -14.9406   19.9384 C   0  0  0  0  0  0  0  0  0  0  0  0
   10.0306  -15.9398   22.0726 O   0  0  0  0  0  0  0  0  0  0  0  0
   10.3937  -16.9923   21.4955 N   0  0  0  0  0  0  0  0  0  0  0  0
   10.3188  -15.9006   23.4555 C   0  0  1  0  0  0  0  0  0  0  0  0
   11.5165  -16.3382   24.1088 C   0  0  0  0  0  0  0  0  0  0  0  0
   12.7742  -16.1017   23.3973 C   0  0  0  0  0  0  0  0  0  0  0  0
   14.0459  -16.6020   23.9534 C   0  0  0  0  0  0  0  0  0  0  0  0
   15.2936  -16.3410   23.2817 O   0  0  0  0  0  0  0  0  0  0  0  0
   16.1435  -15.5861   23.8863 C   0  0  0  0  0  0  0  0  0  0  0  0
   11.4898  -16.0802   25.5591 O   0  0  0  0  0  0  0  0  0  0  0  0
   10.7725  -15.1605   26.0272 O   0  0  0  0  0  0  0  0  0  0  0  0
   15.7422  -16.7805   22.0584 O   0  0  0  0  0  0  0  0  0  0  0  0
  2  1  1  0
  2  3  2  0
  4  2  1  0
  5  4  1  0
  6  5  1  0
  7  6  1  0
  8 10  1  0
  8  7  1  0
  8  9  1  1
 10 11  2  0
 13 12  1  1
 13 15  1  0
 14 13  1  0
 15 16  1  1
 16 10  1  0
 17 15  1  0
 18 17  2  0
 19 17  1  0
 20 19  1  0
 20 25  1  0
 20 21  1  1
 22 21  1  0
 23 22  1  0
 24 23  2  0
 25 28  1  0
 26 25  2  0
 27 23  1  0
M  END
$$$$
