RTE.pdb
     RDKit          3D

 28 27  0  0  1  0  0  0  0  0999 V2000
    8.2862  -13.4753   14.5562 N   0  0  0  0  0  0  0  0  0  0  0  0
    9.0258  -14.3893   15.3709 C   0  0  0  0  0  0  0  0  0  0  0  0
   10.1292  -14.8327   14.9144 N   0  0  0  0  0  0  0  0  0  0  0  0
    8.5674  -14.8053   16.6510 N   0  0  0  0  0  0  0  0  0  0  0  0
    7.3815  -14.1755   17.2110 C   0  0  0  0  0  0  0  0  0  0  0  0
    7.7854  -13.2904   18.3353 C   0  0  0  0  0  0  0  0  0  0  0  0
    7.5870  -13.8784   19.7027 C   0  0  0  0  0  0  0  0  0  0  0  0
    8.7917  -13.7820   20.6015 C   0  0  2  0  0  0  0  0  0  0  0  0
    9.9570  -13.4858   19.8423 N   0  0  0  0  0  0  0  0  0  0  0  0
    8.9090  -15.0228   21.4245 C   0  0  0  0  0  0  0  0  0  0  0  0
    7.9280  -15.3365   22.1342 O   0  0  0  0  0  0  0  0  0  0  0  0
   10.7894  -15.4556   15.3999 C   0  0  0  0  0  0  0  0  0  0  0  0
    9.8308  -18.4134   20.2824 C   0  0  2  0  0  0  0  0  0  0  0  0
   10.7892  -18.0910   21.4394 O   0  0  0  0  0  0  0  0  0  0  0  0
   12.0329  -18.0393   20.8850 C   0  0  2  0  0  0  0  0  0  0  0  0
   10.3050  -16.9846   22.2264 N   0  0  0  0  0  0  0  0  0  0  0  0
   10.0748  -15.8136   21.4073 C   0  0  0  0  0  0  0  0  0  0  0  0
   10.9261  -16.5885   23.4721 O   0  0  0  0  0  0  0  0  0  0  0  0
   11.4106  -15.4367   23.5793 N   0  0  0  0  0  0  0  0  0  0  0  0
   11.0534  -17.3876   24.6307 C   0  0  1  0  0  0  0  0  0  0  0  0
   11.1811  -16.9427   25.9866 C   0  0  0  0  0  0  0  0  0  0  0  0
   10.4386  -15.7347   26.3519 C   0  0  0  0  0  0  0  0  0  0  0  0
   10.4812  -15.2290   27.7372 C   0  0  0  0  0  0  0  0  0  0  0  0
    9.7718  -14.0293   28.1025 O   0  0  0  0  0  0  0  0  0  0  0  0
    9.1793  -13.3829   27.1597 C   0  0  0  0  0  0  0  0  0  0  0  0
   11.1855  -18.0616   26.9451 O   0  0  0  0  0  0  0  0  0  0  0  0
   10.3205  -18.9697   26.8650 O   0  0  0  0  0  0  0  0  0  0  0  0
    9.6177  -13.4400   29.3353 O   0  0  0  0  0  0  0  0  0  0  0  0
  2  1  1  0
  2  3  2  0
  4  2  1  0
  5  4  1  0
  6  5  1  0
  7  6  1  0
  8 10  1  0
  8  7  1  0
  8  9  1  6
 10 11  2  0
 13 12  1  1
 13 15  1  0
 14 13  1  0
 15 16  1  1
 16 10  1  0
 17 15  1  0
 18 17  2  0
 19 17  1  0
 20 19  1  0
 20 25  1  0
 20 21  1  1
 22 21  1  0
 23 22  1  0
 24 23  2  0
 25 28  1  0
 26 25  2  0
 27 23  1  0
M  END
$$$$
