RTE.pdb
     RDKit          3D

 28 27  0  0  1  0  0  0  0  0999 V2000
   13.5545  -13.9567   18.3860 N   0  0  0  0  0  0  0  0  0  0  0  0
   14.2065  -14.2220   17.1408 C   0  0  0  0  0  0  0  0  0  0  0  0
   15.1921  -13.4827   16.8171 N   0  0  0  0  0  0  0  0  0  0  0  0
   13.7886  -15.2694   16.2746 N   0  0  0  0  0  0  0  0  0  0  0  0
   12.5949  -16.0280   16.6151 C   0  0  0  0  0  0  0  0  0  0  0  0
   11.5730  -15.1031   17.1725 C   0  0  0  0  0  0  0  0  0  0  0  0
   10.2713  -15.7527   17.5448 C   0  0  0  0  0  0  0  0  0  0  0  0
    9.1914  -14.7881   17.9594 C   0  0  2  0  0  0  0  0  0  0  0  0
    9.1956  -13.6434   17.1159 N   0  0  0  0  0  0  0  0  0  0  0  0
    9.3311  -14.4664   19.4112 C   0  0  0  0  0  0  0  0  0  0  0  0
   10.1862  -13.6114   19.7307 O   0  0  0  0  0  0  0  0  0  0  0  0
   15.7584  -13.5537   15.9606 C   0  0  0  0  0  0  0  0  0  0  0  0
    6.4974  -13.5950   21.6815 C   0  0  2  0  0  0  0  0  0  0  0  0
    7.2931  -14.7036   22.3881 O   0  0  0  0  0  0  0  0  0  0  0  0
    6.4539  -15.7751   22.4549 C   0  0  2  0  0  0  0  0  0  0  0  0
    8.6064  -14.8521   21.8126 N   0  0  0  0  0  0  0  0  0  0  0  0
    8.5349  -15.0967   20.3877 C   0  0  0  0  0  0  0  0  0  0  0  0
    9.6182  -15.7048   22.3990 O   0  0  0  0  0  0  0  0  0  0  0  0
   10.4486  -16.2768   21.6533 N   0  0  0  0  0  0  0  0  0  0  0  0
    9.7825  -15.9768   23.7760 C   0  0  1  0  0  0  0  0  0  0  0  0
   10.8217  -16.7450   24.3946 C   0  0  0  0  0  0  0  0  0  0  0  0
   12.1792  -16.5396   23.8855 C   0  0  0  0  0  0  0  0  0  0  0  0
   12.6310  -17.2478   22.6727 C   0  0  0  0  0  0  0  0  0  0  0  0
   13.9962  -17.1387   22.2250 O   0  0  0  0  0  0  0  0  0  0  0  0
   14.3200  -17.7775   21.1550 C   0  0  0  0  0  0  0  0  0  0  0  0
   10.6451  -16.8540   25.8532 O   0  0  0  0  0  0  0  0  0  0  0  0
    9.7076  -16.2443   26.4265 O   0  0  0  0  0  0  0  0  0  0  0  0
   15.0473  -16.4404   22.7711 O   0  0  0  0  0  0  0  0  0  0  0  0
  2  1  1  0
  2  3  2  0
  4  2  1  0
  5  4  1  0
  6  5  1  0
  7  6  1  0
  8 10  1  0
  8  7  1  0
  8  9  1  6
 10 11  2  0
 13 12  1  1
 13 15  1  0
 14 13  1  0
 15 16  1  1
 16 10  1  0
 17 15  1  0
 18 17  2  0
 19 17  1  0
 20 19  1  0
 20 25  1  0
 20 21  1  1
 22 21  1  0
 23 22  1  0
 24 23  2  0
 25 28  1  0
 26 25  2  0
 27 23  1  0
M  END
$$$$
