RTE.pdb
     RDKit          3D

 28 27  0  0  1  0  0  0  0  0999 V2000
   16.1011  -15.4049   18.8428 N   0  0  0  0  0  0  0  0  0  0  0  0
   15.7546  -14.4597   17.8266 C   0  0  0  0  0  0  0  0  0  0  0  0
   16.5325  -14.3544   16.8233 N   0  0  0  0  0  0  0  0  0  0  0  0
   14.5869  -13.6524   17.9089 N   0  0  0  0  0  0  0  0  0  0  0  0
   13.4282  -14.0097   17.1051 C   0  0  0  0  0  0  0  0  0  0  0  0
   12.7751  -15.2067   17.6979 C   0  0  0  0  0  0  0  0  0  0  0  0
   11.9798  -14.9387   18.9432 C   0  0  0  0  0  0  0  0  0  0  0  0
   10.5885  -14.4192   18.6923 C   0  0  2  0  0  0  0  0  0  0  0  0
   10.6264  -13.2924   17.8258 N   0  0  0  0  0  0  0  0  0  0  0  0
    9.9054  -14.1548   19.9939 C   0  0  0  0  0  0  0  0  0  0  0  0
    9.3807  -13.0301   20.1495 O   0  0  0  0  0  0  0  0  0  0  0  0
   16.4128  -13.7273   16.0159 C   0  0  0  0  0  0  0  0  0  0  0  0
    7.6446  -13.4628   20.8960 C   0  0  2  0  0  0  0  0  0  0  0  0
    7.6456  -14.6931   21.8165 O   0  0  0  0  0  0  0  0  0  0  0  0
    6.8121  -15.5958   21.2271 C   0  0  2  0  0  0  0  0  0  0  0  0
    8.9883  -15.0783   22.1726 N   0  0  0  0  0  0  0  0  0  0  0  0
    9.8500  -15.1284   21.0106 C   0  0  0  0  0  0  0  0  0  0  0  0
    9.2688  -16.2091   23.0312 O   0  0  0  0  0  0  0  0  0  0  0  0
    9.5077  -17.3278   22.5172 N   0  0  0  0  0  0  0  0  0  0  0  0
    9.3052  -16.1936   24.4439 C   0  0  1  0  0  0  0  0  0  0  0  0
    9.9282  -17.1499   25.3101 C   0  0  0  0  0  0  0  0  0  0  0  0
   11.2729  -17.5929   24.9367 C   0  0  0  0  0  0  0  0  0  0  0  0
   12.3622  -16.6093   24.7859 C   0  0  0  0  0  0  0  0  0  0  0  0
   13.5942  -16.9730   24.1333 O   0  0  0  0  0  0  0  0  0  0  0  0
   13.6796  -18.1651   23.6544 C   0  0  0  0  0  0  0  0  0  0  0  0
    9.6686  -16.8693   26.7329 O   0  0  0  0  0  0  0  0  0  0  0  0
    9.0455  -15.8320   27.0721 O   0  0  0  0  0  0  0  0  0  0  0  0
   14.7340  -16.2310   23.9305 O   0  0  0  0  0  0  0  0  0  0  0  0
  2  1  1  0
  2  3  2  0
  4  2  1  0
  5  4  1  0
  6  5  1  0
  7  6  1  0
  8 10  1  0
  8  7  1  0
  8  9  1  6
 10 11  2  0
 13 12  1  1
 13 15  1  0
 14 13  1  0
 15 16  1  1
 16 10  1  0
 17 15  1  0
 18 17  2  0
 19 17  1  0
 20 19  1  0
 20 25  1  0
 20 21  1  1
 22 21  1  0
 23 22  1  0
 24 23  2  0
 25 28  1  0
 26 25  2  0
 27 23  1  0
M  END
$$$$
