NST.pdb
     RDKit          3D

 22 21  0  0  1  0  0  0  0  0999 V2000
   11.7385  -17.0591   14.9795 N   0  0  0  0  0  0  0  0  0  0  0  0
   12.2745  -15.7342   14.9858 C   0  0  0  0  0  0  0  0  0  0  0  0
   13.0646  -15.3914   14.0693 O   0  0  0  0  0  0  0  0  0  0  0  0
   11.8967  -14.7848   16.0643 C   0  0  0  0  0  0  0  0  0  0  0  0
   11.0234  -15.5165   17.0792 C   0  0  2  0  0  0  0  0  0  0  0  0
    9.7910  -15.8496   16.3803 N   0  0  0  0  0  0  0  0  0  0  0  0
   10.7324  -14.6357   18.2464 C   0  0  0  0  0  0  0  0  0  0  0  0
   11.6076  -14.2241   19.0245 O   0  0  0  0  0  0  0  0  0  0  0  0
    6.7426  -13.8951   19.2883 O   0  0  0  0  0  0  0  0  0  0  0  0
    7.6334  -12.8420   19.4377 C   0  0  0  0  0  0  0  0  0  0  0  0
    9.0214  -13.4143   19.6296 C   0  0  2  0  0  0  0  0  0  0  0  0
    9.3976  -14.2425   18.4898 N   0  0  0  0  0  0  0  0  0  0  0  0
    9.1846  -14.1827   20.8665 C   0  0  0  0  0  0  0  0  0  0  0  0
    8.8358  -13.6243   21.9595 O   0  0  0  0  0  0  0  0  0  0  0  0
    9.5556  -18.2413   23.5260 C   0  0  0  0  0  0  0  0  0  0  0  0
    9.4683  -17.6408   22.1438 C   0  0  1  0  0  0  0  0  0  0  0  0
    8.2099  -17.9005   21.6312 O   0  0  0  0  0  0  0  0  0  0  0  0
    9.7455  -16.1593   22.2522 C   0  0  2  0  0  0  0  0  0  0  0  0
    9.6995  -15.5022   20.9523 N   0  0  0  0  0  0  0  0  0  0  0  0
   11.0751  -15.9147   22.8491 C   0  0  0  0  0  0  0  0  0  0  0  0
   11.2592  -15.7298   24.2181 O   0  0  0  0  0  0  0  0  0  0  0  0
   12.1169  -15.8615   22.1370 O   0  0  0  0  0  0  0  0  0  0  0  0
  1  2  1  0
  2  3  2  0
  2  4  1  0
  4  5  1  0
  5  6  1  6
  5  7  1  0
  7  8  2  0
  9 10  1  0
 11 10  1  6
 11 13  1  0
 12  7  1  0
 12 11  1  0
 13 14  2  0
 16 15  1  1
 16 18  1  0
 17 16  1  0
 18 20  1  0
 19 13  1  0
 18 19  1  6
 20 22  2  0
 20 21  1  0
M  END
$$$$
