NST.pdb
     RDKit          3D

 22 21  0  0  1  0  0  0  0  0999 V2000
    7.6089  -18.5384   13.7067 N   0  0  0  0  0  0  0  0  0  0  0  0
    7.2810  -17.2655   14.2682 C   0  0  0  0  0  0  0  0  0  0  0  0
    6.1506  -16.7674   14.0317 O   0  0  0  0  0  0  0  0  0  0  0  0
    8.2689  -16.5508   15.1169 C   0  0  0  0  0  0  0  0  0  0  0  0
    7.9025  -15.0702   15.1566 C   0  0  2  0  0  0  0  0  0  0  0  0
    8.1360  -14.5640   13.8121 N   0  0  0  0  0  0  0  0  0  0  0  0
    8.7626  -14.3471   16.1364 C   0  0  0  0  0  0  0  0  0  0  0  0
    9.9014  -13.9326   15.8677 O   0  0  0  0  0  0  0  0  0  0  0  0
    7.4543  -13.9155   20.1354 O   0  0  0  0  0  0  0  0  0  0  0  0
    8.1839  -12.8898   19.5517 C   0  0  0  0  0  0  0  0  0  0  0  0
    9.0718  -13.4853   18.4804 C   0  0  2  0  0  0  0  0  0  0  0  0
    8.2684  -14.1157   17.4393 N   0  0  0  0  0  0  0  0  0  0  0  0
   10.0560  -14.4457   18.9862 C   0  0  0  0  0  0  0  0  0  0  0  0
    9.7645  -15.6856   18.9108 O   0  0  0  0  0  0  0  0  0  0  0  0
   14.3756  -15.8957   20.8126 C   0  0  0  0  0  0  0  0  0  0  0  0
   13.5966  -14.7591   20.1961 C   0  0  1  0  0  0  0  0  0  0  0  0
   14.1443  -14.4722   18.9585 O   0  0  0  0  0  0  0  0  0  0  0  0
   12.1478  -15.1767   20.0958 C   0  0  2  0  0  0  0  0  0  0  0  0
   11.3125  -14.1123   19.5549 N   0  0  0  0  0  0  0  0  0  0  0  0
   11.6162  -15.5557   21.4216 C   0  0  0  0  0  0  0  0  0  0  0  0
   11.9295  -16.7666   22.0363 O   0  0  0  0  0  0  0  0  0  0  0  0
   10.8446  -14.7902   22.0650 O   0  0  0  0  0  0  0  0  0  0  0  0
  1  2  1  0
  2  3  2  0
  2  4  1  0
  4  5  1  0
  5  6  1  6
  5  7  1  0
  7  8  2  0
  9 10  1  0
 11 10  1  1
 11 13  1  0
 12  7  1  0
 12 11  1  0
 13 14  2  0
 16 15  1  6
 16 18  1  0
 17 16  1  0
 18 20  1  0
 19 13  1  0
 18 19  1  1
 20 22  2  0
 20 21  1  0
M  END
$$$$
