NST.pdb
     RDKit          3D

 22 21  0  0  1  0  0  0  0  0999 V2000
    7.1520  -14.0487   14.3966 N   0  0  0  0  0  0  0  0  0  0  0  0
    8.4190  -14.1961   15.0415 C   0  0  0  0  0  0  0  0  0  0  0  0
    9.3868  -14.6601   14.3860 O   0  0  0  0  0  0  0  0  0  0  0  0
    8.5781  -13.8039   16.4656 C   0  0  0  0  0  0  0  0  0  0  0  0
    8.8249  -15.0597   17.2964 C   0  0  2  0  0  0  0  0  0  0  0  0
    7.5792  -15.8118   17.2647 N   0  0  0  0  0  0  0  0  0  0  0  0
    9.1718  -14.6956   18.6999 C   0  0  0  0  0  0  0  0  0  0  0  0
   10.3144  -14.3660   19.0559 O   0  0  0  0  0  0  0  0  0  0  0  0
    6.3840  -15.3436   21.8741 O   0  0  0  0  0  0  0  0  0  0  0  0
    7.1492  -14.1867   21.8436 C   0  0  0  0  0  0  0  0  0  0  0  0
    8.4314  -14.4818   21.0954 C   0  0  2  0  0  0  0  0  0  0  0  0
    8.1581  -14.7229   19.6834 N   0  0  0  0  0  0  0  0  0  0  0  0
    9.1974  -15.6044   21.6430 C   0  0  0  0  0  0  0  0  0  0  0  0
    9.0409  -16.7479   21.0989 O   0  0  0  0  0  0  0  0  0  0  0  0
   12.9625  -17.7714   23.6975 C   0  0  0  0  0  0  0  0  0  0  0  0
   12.3125  -16.5115   23.1790 C   0  0  1  0  0  0  0  0  0  0  0  0
   12.8298  -16.2344   21.9262 O   0  0  0  0  0  0  0  0  0  0  0  0
   10.8175  -16.7293   23.1434 C   0  0  2  0  0  0  0  0  0  0  0  0
   10.1038  -15.5273   22.7321 N   0  0  0  0  0  0  0  0  0  0  0  0
   10.3132  -17.1371   24.4712 C   0  0  0  0  0  0  0  0  0  0  0  0
   10.4047  -18.4473   24.9374 O   0  0  0  0  0  0  0  0  0  0  0  0
    9.7699  -16.3069   25.2527 O   0  0  0  0  0  0  0  0  0  0  0  0
  1  2  1  0
  2  3  2  0
  2  4  1  0
  4  5  1  0
  5  6  1  1
  5  7  1  0
  7  8  2  0
  9 10  1  0
 11 10  1  1
 11 13  1  0
 12  7  1  0
 12 11  1  0
 13 14  2  0
 16 15  1  6
 16 18  1  0
 17 16  1  0
 18 20  1  0
 19 13  1  0
 18 19  1  1
 20 22  2  0
 20 21  1  0
M  END
$$$$
