NST.pdb
     RDKit          3D

 22 21  0  0  1  0  0  0  0  0999 V2000
    8.5699  -13.0061   17.1661 N   0  0  0  0  0  0  0  0  0  0  0  0
    7.9025  -14.2659   17.2669 C   0  0  0  0  0  0  0  0  0  0  0  0
    7.5350  -14.8475   16.2141 O   0  0  0  0  0  0  0  0  0  0  0  0
    7.6520  -14.8697   18.6010 C   0  0  0  0  0  0  0  0  0  0  0  0
    8.0341  -13.8582   19.6776 C   0  0  2  0  0  0  0  0  0  0  0  0
    9.4891  -13.8420   19.7131 N   0  0  0  0  0  0  0  0  0  0  0  0
    7.4907  -14.2765   21.0013 C   0  0  0  0  0  0  0  0  0  0  0  0
    6.4165  -13.8565   21.4605 O   0  0  0  0  0  0  0  0  0  0  0  0
    9.5430  -17.2080   23.2278 O   0  0  0  0  0  0  0  0  0  0  0  0
    8.1564  -17.1595   23.2360 C   0  0  0  0  0  0  0  0  0  0  0  0
    7.7280  -15.7199   23.0489 C   0  0  2  0  0  0  0  0  0  0  0  0
    8.2253  -15.1966   21.7819 N   0  0  0  0  0  0  0  0  0  0  0  0
    8.1354  -14.8292   24.1387 C   0  0  0  0  0  0  0  0  0  0  0  0
    9.2501  -14.2200   24.0185 O   0  0  0  0  0  0  0  0  0  0  0  0
    6.6008  -11.6846   25.7744 C   0  0  0  0  0  0  0  0  0  0  0  0
    6.8746  -12.7195   26.8387 C   0  0  1  0  0  0  0  0  0  0  0  0
    5.6894  -13.3689   27.1345 O   0  0  0  0  0  0  0  0  0  0  0  0
    7.9299  -13.6674   26.3180 C   0  0  2  0  0  0  0  0  0  0  0  0
    7.3914  -14.5846   25.3219 N   0  0  0  0  0  0  0  0  0  0  0  0
    8.5100  -14.4653   27.4182 C   0  0  0  0  0  0  0  0  0  0  0  0
    9.1330  -13.8813   28.5196 O   0  0  0  0  0  0  0  0  0  0  0  0
    8.4668  -15.7276   27.4101 O   0  0  0  0  0  0  0  0  0  0  0  0
  1  2  1  0
  2  3  2  0
  2  4  1  0
  4  5  1  0
  5  6  1  1
  5  7  1  0
  7  8  2  0
  9 10  1  0
 11 10  1  1
 11 13  1  0
 12  7  1  0
 12 11  1  0
 13 14  2  0
 16 15  1  6
 16 18  1  0
 17 16  1  0
 18 20  1  0
 19 13  1  0
 18 19  1  6
 20 22  2  0
 20 21  1  0
M  END
$$$$
