NST.pdb
     RDKit          3D

 22 21  0  0  1  0  0  0  0  0999 V2000
    8.3978  -12.7821   16.7821 N   0  0  0  0  0  0  0  0  0  0  0  0
    7.9659  -13.9178   17.5349 C   0  0  0  0  0  0  0  0  0  0  0  0
    8.0545  -15.0613   17.0187 O   0  0  0  0  0  0  0  0  0  0  0  0
    7.4221  -13.7378   18.9056 C   0  0  0  0  0  0  0  0  0  0  0  0
    8.5043  -14.1071   19.9159 C   0  0  2  0  0  0  0  0  0  0  0  0
    9.1289  -15.3197   19.4080 N   0  0  0  0  0  0  0  0  0  0  0  0
    7.9012  -14.3601   21.2556 C   0  0  0  0  0  0  0  0  0  0  0  0
    7.2355  -13.5143   21.8741 O   0  0  0  0  0  0  0  0  0  0  0  0
    8.6775  -17.9491   23.6031 O   0  0  0  0  0  0  0  0  0  0  0  0
    7.4087  -17.4745   23.3036 C   0  0  0  0  0  0  0  0  0  0  0  0
    7.4865  -15.9714   23.1436 C   0  0  2  0  0  0  0  0  0  0  0  0
    8.0892  -15.6218   21.8625 N   0  0  0  0  0  0  0  0  0  0  0  0
    8.2073  -15.2925   24.2237 C   0  0  0  0  0  0  0  0  0  0  0  0
    9.4378  -15.0157   24.0302 O   0  0  0  0  0  0  0  0  0  0  0  0
    7.7328  -11.9162   25.7534 C   0  0  0  0  0  0  0  0  0  0  0  0
    7.7651  -12.9084   26.8906 C   0  0  1  0  0  0  0  0  0  0  0  0
    6.4646  -13.1619   27.2888 O   0  0  0  0  0  0  0  0  0  0  0  0
    8.4684  -14.1568   26.4108 C   0  0  2  0  0  0  0  0  0  0  0  0
    7.6500  -14.9140   25.4725 N   0  0  0  0  0  0  0  0  0  0  0  0
    8.8088  -15.0388   27.5466 C   0  0  0  0  0  0  0  0  0  0  0  0
    8.3867  -16.3651   27.6180 O   0  0  0  0  0  0  0  0  0  0  0  0
    9.5058  -14.6256   28.5154 O   0  0  0  0  0  0  0  0  0  0  0  0
  1  2  1  0
  2  3  2  0
  2  4  1  0
  4  5  1  0
  5  6  1  6
  5  7  1  0
  7  8  2  0
  9 10  1  0
 11 10  1  1
 11 13  1  0
 12  7  1  0
 12 11  1  0
 13 14  2  0
 16 15  1  6
 16 18  1  0
 17 16  1  0
 18 20  1  0
 19 13  1  0
 18 19  1  6
 20 22  2  0
 20 21  1  0
M  END
$$$$
