NST.pdb
     RDKit          3D

 22 21  0  0  1  0  0  0  0  0999 V2000
   11.4141  -19.7517   15.3338 N   0  0  0  0  0  0  0  0  0  0  0  0
   10.3456  -18.8034   15.2900 C   0  0  0  0  0  0  0  0  0  0  0  0
    9.4276  -18.9574   14.4443 O   0  0  0  0  0  0  0  0  0  0  0  0
   10.3305  -17.6567   16.2345 C   0  0  0  0  0  0  0  0  0  0  0  0
    9.5881  -18.0730   17.5008 C   0  0  2  0  0  0  0  0  0  0  0  0
    8.1731  -18.0513   17.1606 N   0  0  0  0  0  0  0  0  0  0  0  0
    9.8672  -17.1134   18.6071 C   0  0  0  0  0  0  0  0  0  0  0  0
   11.0126  -16.7607   18.9306 O   0  0  0  0  0  0  0  0  0  0  0  0
    6.6810  -15.7151   21.0191 O   0  0  0  0  0  0  0  0  0  0  0  0
    7.7235  -14.8535   20.7100 C   0  0  0  0  0  0  0  0  0  0  0  0
    8.9694  -15.6785   20.4693 C   0  0  2  0  0  0  0  0  0  0  0  0
    8.7823  -16.5711   19.3314 N   0  0  0  0  0  0  0  0  0  0  0  0
    9.4052  -16.4553   21.6327 C   0  0  0  0  0  0  0  0  0  0  0  0
    8.8601  -17.5935   21.8211 O   0  0  0  0  0  0  0  0  0  0  0  0
   12.5382  -17.9886   22.3601 C   0  0  0  0  0  0  0  0  0  0  0  0
   12.2159  -17.2843   23.6558 C   0  0  1  0  0  0  0  0  0  0  0  0
   13.0081  -16.1541   23.7497 O   0  0  0  0  0  0  0  0  0  0  0  0
   10.7422  -16.9499   23.6598 C   0  0  2  0  0  0  0  0  0  0  0  0
   10.3877  -16.0476   22.5718 N   0  0  0  0  0  0  0  0  0  0  0  0
   10.3497  -16.3156   24.9354 C   0  0  0  0  0  0  0  0  0  0  0  0
   10.4072  -16.9875   26.1551 O   0  0  0  0  0  0  0  0  0  0  0  0
    9.9396  -15.1218   24.9785 O   0  0  0  0  0  0  0  0  0  0  0  0
  1  2  1  0
  2  3  2  0
  2  4  1  0
  4  5  1  0
  5  6  1  6
  5  7  1  0
  7  8  2  0
  9 10  1  0
 11 10  1  1
 11 13  1  0
 12  7  1  0
 12 11  1  0
 13 14  2  0
 16 15  1  6
 16 18  1  0
 17 16  1  0
 18 20  1  0
 19 13  1  0
 18 19  1  6
 20 22  2  0
 20 21  1  0
M  END
$$$$
