NST.pdb
     RDKit          3D

 22 21  0  0  1  0  0  0  0  0999 V2000
   12.1923  -20.2327   15.2891 N   0  0  0  0  0  0  0  0  0  0  0  0
   11.2675  -19.2976   15.8487 C   0  0  0  0  0  0  0  0  0  0  0  0
   10.0462  -19.4050   15.5679 O   0  0  0  0  0  0  0  0  0  0  0  0
   11.7533  -18.2188   16.7472 C   0  0  0  0  0  0  0  0  0  0  0  0
   11.6710  -18.7073   18.1903 C   0  0  2  0  0  0  0  0  0  0  0  0
   10.2544  -18.8888   18.4713 N   0  0  0  0  0  0  0  0  0  0  0  0
   12.2547  -17.6953   19.1165 C   0  0  0  0  0  0  0  0  0  0  0  0
   13.3416  -17.1314   18.9123 O   0  0  0  0  0  0  0  0  0  0  0  0
    9.9936  -16.3245   22.4247 O   0  0  0  0  0  0  0  0  0  0  0  0
   10.8518  -15.4947   21.7177 C   0  0  0  0  0  0  0  0  0  0  0  0
   12.0120  -16.3257   21.2137 C   0  0  2  0  0  0  0  0  0  0  0  0
   11.5451  -17.3520   20.2887 N   0  0  0  0  0  0  0  0  0  0  0  0
   12.8052  -16.9501   22.2757 C   0  0  0  0  0  0  0  0  0  0  0  0
   12.4392  -18.1008   22.6878 O   0  0  0  0  0  0  0  0  0  0  0  0
   16.3588  -17.9173   22.3417 C   0  0  0  0  0  0  0  0  0  0  0  0
   16.1399  -17.2021   23.6530 C   0  0  1  0  0  0  0  0  0  0  0  0
   16.7094  -15.9442   23.5672 O   0  0  0  0  0  0  0  0  0  0  0  0
   14.6532  -17.1386   23.9160 C   0  0  2  0  0  0  0  0  0  0  0  0
   13.9522  -16.3811   22.8874 N   0  0  0  0  0  0  0  0  0  0  0  0
   14.3765  -16.5105   25.2247 C   0  0  0  0  0  0  0  0  0  0  0  0
   14.8104  -17.0638   26.4280 O   0  0  0  0  0  0  0  0  0  0  0  0
   13.7266  -15.4312   25.3129 O   0  0  0  0  0  0  0  0  0  0  0  0
  1  2  1  0
  2  3  2  0
  2  4  1  0
  4  5  1  0
  5  6  1  1
  5  7  1  0
  7  8  2  0
  9 10  1  0
 11 10  1  1
 11 13  1  0
 12  7  1  0
 12 11  1  0
 13 14  2  0
 16 15  1  6
 16 18  1  0
 17 16  1  0
 18 20  1  0
 19 13  1  0
 18 19  1  6
 20 22  2  0
 20 21  1  0
M  END
$$$$
