NST.pdb
     RDKit          3D

 22 21  0  0  1  0  0  0  0  0999 V2000
   -0.1276  -27.1820   29.2536 N   0  0  0  0  0  0  0  0  0  0  0  0
    0.2821  -25.9351   28.6879 C   0  0  0  0  0  0  0  0  0  0  0  0
    1.4910  -25.5972   28.7669 O   0  0  0  0  0  0  0  0  0  0  0  0
   -0.7143  -25.0592   28.0192 C   0  0  0  0  0  0  0  0  0  0  0  0
   -2.0601  -25.7776   27.9923 C   0  0  2  0  0  0  0  0  0  0  0  0
   -1.9946  -26.7086   26.8754 N   0  0  0  0  0  0  0  0  0  0  0  0
   -3.1674  -24.8010   27.7852 C   0  0  0  0  0  0  0  0  0  0  0  0
   -3.1616  -23.6536   28.2589 O   0  0  0  0  0  0  0  0  0  0  0  0
   -5.6447  -24.4459   24.4677 O   0  0  0  0  0  0  0  0  0  0  0  0
   -6.2765  -24.8055   25.6494 C   0  0  0  0  0  0  0  0  0  0  0  0
   -5.4354  -24.3160   26.8087 C   0  0  2  0  0  0  0  0  0  0  0  0
   -4.2849  -25.1885   27.0129 N   0  0  0  0  0  0  0  0  0  0  0  0
   -6.1741  -24.1796   28.0667 C   0  0  0  0  0  0  0  0  0  0  0  0
   -6.2563  -25.2076   28.8181 O   0  0  0  0  0  0  0  0  0  0  0  0
   -5.5624  -22.0571   31.0243 C   0  0  0  0  0  0  0  0  0  0  0  0
   -7.0207  -21.8547   30.6912 C   0  0  1  0  0  0  0  0  0  0  0  0
   -7.1607  -20.6330   30.0575 O   0  0  0  0  0  0  0  0  0  0  0  0
   -7.4721  -23.0042   29.8203 C   0  0  2  0  0  0  0  0  0  0  0  0
   -6.8083  -22.9951   28.5231 N   0  0  0  0  0  0  0  0  0  0  0  0
   -8.9317  -22.9526   29.5952 C   0  0  0  0  0  0  0  0  0  0  0  0
   -9.8544  -23.0700   30.6330 O   0  0  0  0  0  0  0  0  0  0  0  0
   -9.4145  -22.7981   28.4384 O   0  0  0  0  0  0  0  0  0  0  0  0
  1  2  1  0
  2  3  2  0
  2  4  1  0
  4  5  1  0
  5  6  1  6
  5  7  1  0
  7  8  2  0
  9 10  1  0
 11 10  1  6
 11 13  1  0
 12  7  1  0
 12 11  1  0
 13 14  2  0
 16 15  1  6
 16 18  1  0
 17 16  1  0
 18 20  1  0
 19 13  1  0
 18 19  1  6
 20 22  2  0
 20 21  1  0
M  END
$$$$
