NST.pdb
     RDKit          3D

 22 21  0  0  1  0  0  0  0  0999 V2000
   15.3061  -17.4910   15.9256 N   0  0  0  0  0  0  0  0  0  0  0  0
   14.3269  -16.4855   16.1959 C   0  0  0  0  0  0  0  0  0  0  0  0
   13.6354  -16.0364   15.2462 O   0  0  0  0  0  0  0  0  0  0  0  0
   14.1378  -15.9859   17.5822 C   0  0  0  0  0  0  0  0  0  0  0  0
   13.1195  -16.8747   18.2901 C   0  0  2  0  0  0  0  0  0  0  0  0
   11.8932  -16.7761   17.5124 N   0  0  0  0  0  0  0  0  0  0  0  0
   12.8874  -16.3938   19.6821 C   0  0  0  0  0  0  0  0  0  0  0  0
   13.8063  -16.1206   20.4708 O   0  0  0  0  0  0  0  0  0  0  0  0
    8.9309  -16.1351   21.2578 O   0  0  0  0  0  0  0  0  0  0  0  0
    9.8658  -15.1440   21.5199 C   0  0  0  0  0  0  0  0  0  0  0  0
   11.2449  -15.7666   21.4824 C   0  0  2  0  0  0  0  0  0  0  0  0
   11.5598  -16.2368   20.1384 N   0  0  0  0  0  0  0  0  0  0  0  0
   11.4323  -16.8607   22.4389 C   0  0  0  0  0  0  0  0  0  0  0  0
   11.0405  -18.0240   22.0902 O   0  0  0  0  0  0  0  0  0  0  0  0
   14.4041  -18.4375   23.8039 C   0  0  0  0  0  0  0  0  0  0  0  0
   13.5585  -18.1477   25.0203 C   0  0  1  0  0  0  0  0  0  0  0  0
   14.0826  -17.0420   25.6659 O   0  0  0  0  0  0  0  0  0  0  0  0
   12.1354  -17.9213   24.5654 C   0  0  2  0  0  0  0  0  0  0  0  0
   12.0162  -16.7361   23.7261 N   0  0  0  0  0  0  0  0  0  0  0  0
   11.2314  -17.7627   25.7236 C   0  0  0  0  0  0  0  0  0  0  0  0
   10.4897  -16.6031   25.9419 O   0  0  0  0  0  0  0  0  0  0  0  0
   11.0884  -18.6818   26.5780 O   0  0  0  0  0  0  0  0  0  0  0  0
  1  2  1  0
  2  3  2  0
  2  4  1  0
  4  5  1  0
  5  6  1  6
  5  7  1  0
  7  8  2  0
  9 10  1  0
 11 10  1  6
 11 13  1  0
 12  7  1  0
 12 11  1  0
 13 14  2  0
 16 15  1  6
 16 18  1  0
 17 16  1  0
 18 20  1  0
 19 13  1  0
 18 19  1  6
 20 22  2  0
 20 21  1  0
M  END
$$$$
