QDR.pdb
     RDKit          3D

 29 28  0  0  1  0  0  0  0  0999 V2000
    7.9795  -18.3589   14.3191 N   0  0  0  0  0  0  0  0  0  0  0  0
    8.6843  -17.1578   14.6055 C   0  0  0  0  0  0  0  0  0  0  0  0
    8.1483  -16.0476   14.3032 O   0  0  0  0  0  0  0  0  0  0  0  0
   10.0235  -17.1825   15.2460 C   0  0  0  0  0  0  0  0  0  0  0  0
   10.0582  -18.2495   16.2988 C   0  0  0  0  0  0  0  0  0  0  0  0
    9.2883  -17.8624   17.5390 C   0  0  2  0  0  0  0  0  0  0  0  0
    8.3395  -16.8393   17.1430 N   0  0  0  0  0  0  0  0  0  0  0  0
   10.2312  -17.2987   18.5387 C   0  0  0  0  0  0  0  0  0  0  0  0
   11.1363  -18.0028   19.0103 O   0  0  0  0  0  0  0  0  0  0  0  0
   10.1343  -15.9514   18.9866 N   0  0  0  0  0  0  0  0  0  0  0  0
   11.0047  -15.3737   19.9648 C   0  0  1  0  0  0  0  0  0  0  0  0
   10.9862  -13.8790   20.0217 C   0  0  0  0  0  0  0  0  0  0  0  0
   11.7377  -13.3134   18.9042 C   0  0  0  0  0  0  0  0  0  0  0  0
   11.2610  -12.3345   18.2501 O   0  0  0  0  0  0  0  0  0  0  0  0
   10.6404  -15.8961   21.3186 C   0  0  0  0  0  0  0  0  0  0  0  0
    9.4647  -15.6631   21.7706 O   0  0  0  0  0  0  0  0  0  0  0  0
   12.9716  -13.7725   18.4822 O   0  0  0  0  0  0  0  0  0  0  0  0
    9.1820  -21.5354   19.9890 N   0  0  0  0  0  0  0  0  0  0  0  0
    9.9517  -22.0488   21.0551 C   0  0  0  0  0  0  0  0  0  0  0  0
    9.4043  -22.8623   21.9117 N   0  0  0  0  0  0  0  0  0  0  0  0
   11.3170  -21.6939   21.2108 N   0  0  0  0  0  0  0  0  0  0  0  0
   11.7979  -20.8920   22.3136 C   0  0  0  0  0  0  0  0  0  0  0  0
   11.1594  -19.5084   22.2993 C   0  0  0  0  0  0  0  0  0  0  0  0
   11.6727  -18.6501   23.4056 C   0  0  0  0  0  0  0  0  0  0  0  0
   11.1339  -17.2444   23.3505 C   0  0  2  0  0  0  0  0  0  0  0  0
   11.5824  -16.6337   22.0797 N   0  0  0  0  0  0  0  0  0  0  0  0
   11.7094  -16.4625   24.4666 C   0  0  0  0  0  0  0  0  0  0  0  0
   11.2173  -16.4624   25.7495 O   0  0  0  0  0  0  0  0  0  0  0  0
   12.7356  -15.7314   24.2268 O   0  0  0  0  0  0  0  0  0  0  0  0
  2  1  1  0
  2  3  2  0
  4  2  1  0
  5  4  1  0
  5  6  1  0
  6  7  1  6
  8  9  2  0
  8  6  1  0
 10  8  1  0
 11 10  1  0
 12 13  1  0
 11 12  1  1
 13 17  1  0
 13 14  2  0
 15 16  2  0
 15 11  1  0
 19 20  2  0
 19 18  1  0
 21 19  1  0
 22 21  1  0
 23 22  1  0
 25 24  1  6
 24 23  1  0
 25 26  1  0
 26 15  1  0
 27 25  1  0
 28 27  1  0
 29 27  2  0
M  END
$$$$
