QDR.pdb
     RDKit          3D

 29 28  0  0  1  0  0  0  0  0999 V2000
    7.1142  -12.7592   19.6182 N   0  0  0  0  0  0  0  0  0  0  0  0
    6.8841  -13.7184   18.5943 C   0  0  0  0  0  0  0  0  0  0  0  0
    5.7400  -14.2619   18.5117 O   0  0  0  0  0  0  0  0  0  0  0  0
    7.9507  -14.0899   17.6305 C   0  0  0  0  0  0  0  0  0  0  0  0
    9.2947  -13.8468   18.2490 C   0  0  0  0  0  0  0  0  0  0  0  0
   10.4309  -14.1990   17.3184 C   0  0  2  0  0  0  0  0  0  0  0  0
    9.8716  -15.0251   16.2655 N   0  0  0  0  0  0  0  0  0  0  0  0
   11.4478  -14.9795   18.0687 C   0  0  0  0  0  0  0  0  0  0  0  0
   11.1528  -16.0775   18.5633 O   0  0  0  0  0  0  0  0  0  0  0  0
   12.7780  -14.5056   18.2461 N   0  0  0  0  0  0  0  0  0  0  0  0
   13.7565  -15.1662   19.0549 C   0  0  1  0  0  0  0  0  0  0  0  0
   15.1346  -14.5898   18.9748 C   0  0  0  0  0  0  0  0  0  0  0  0
   16.0960  -15.4633   19.6428 C   0  0  0  0  0  0  0  0  0  0  0  0
   15.7245  -16.5947   20.0846 O   0  0  0  0  0  0  0  0  0  0  0  0
   13.3190  -15.1308   20.4852 C   0  0  0  0  0  0  0  0  0  0  0  0
   13.3686  -14.0164   21.1150 O   0  0  0  0  0  0  0  0  0  0  0  0
   17.4275  -15.1493   19.8425 O   0  0  0  0  0  0  0  0  0  0  0  0
    8.1246  -13.7330   20.9844 N   0  0  0  0  0  0  0  0  0  0  0  0
    7.6391  -13.8238   22.3069 C   0  0  0  0  0  0  0  0  0  0  0  0
    7.2427  -12.7475   22.9230 N   0  0  0  0  0  0  0  0  0  0  0  0
    7.5740  -15.0717   22.9797 N   0  0  0  0  0  0  0  0  0  0  0  0
    8.5180  -16.1409   22.7421 C   0  0  0  0  0  0  0  0  0  0  0  0
    9.9491  -15.6176   22.7625 C   0  0  0  0  0  0  0  0  0  0  0  0
   10.9407  -16.7080   22.5350 C   0  0  0  0  0  0  0  0  0  0  0  0
   12.3616  -16.2082   22.5132 C   0  0  2  0  0  0  0  0  0  0  0  0
   12.8597  -16.3106   21.1238 N   0  0  0  0  0  0  0  0  0  0  0  0
   13.1944  -17.0827   23.3675 C   0  0  0  0  0  0  0  0  0  0  0  0
   13.1902  -17.0582   24.7414 O   0  0  0  0  0  0  0  0  0  0  0  0
   13.9772  -17.9210   22.7934 O   0  0  0  0  0  0  0  0  0  0  0  0
  2  1  1  0
  2  3  2  0
  4  2  1  0
  5  4  1  0
  5  6  1  0
  6  7  1  6
  8  9  2  0
  8  6  1  0
 10  8  1  0
 11 10  1  0
 12 13  1  0
 11 12  1  1
 13 17  1  0
 13 14  2  0
 15 16  2  0
 15 11  1  0
 19 20  2  0
 19 18  1  0
 21 19  1  0
 22 21  1  0
 23 22  1  0
 25 24  1  6
 24 23  1  0
 25 26  1  0
 26 15  1  0
 27 25  1  0
 28 27  1  0
 29 27  2  0
M  END
$$$$
