QDR.pdb
     RDKit          3D

 29 28  0  0  1  0  0  0  0  0999 V2000
    8.0141  -12.6443   17.8783 N   0  0  0  0  0  0  0  0  0  0  0  0
    7.3420  -13.2814   16.7995 C   0  0  0  0  0  0  0  0  0  0  0  0
    6.9245  -12.5707   15.8342 O   0  0  0  0  0  0  0  0  0  0  0  0
    7.1236  -14.7500   16.7853 C   0  0  0  0  0  0  0  0  0  0  0  0
    7.6180  -15.3447   18.0698 C   0  0  0  0  0  0  0  0  0  0  0  0
    9.1219  -15.2830   18.1937 C   0  0  2  0  0  0  0  0  0  0  0  0
    9.6660  -15.6539   16.9013 N   0  0  0  0  0  0  0  0  0  0  0  0
    9.5649  -16.2665   19.2148 C   0  0  0  0  0  0  0  0  0  0  0  0
    8.9986  -16.3213   20.3165 O   0  0  0  0  0  0  0  0  0  0  0  0
   10.6383  -17.1690   18.9727 N   0  0  0  0  0  0  0  0  0  0  0  0
   11.1463  -18.0816   19.9510 C   0  0  1  0  0  0  0  0  0  0  0  0
   12.1856  -19.0325   19.4475 C   0  0  0  0  0  0  0  0  0  0  0  0
   12.5694  -19.9753   20.4950 C   0  0  0  0  0  0  0  0  0  0  0  0
   11.6781  -20.6466   21.1016 O   0  0  0  0  0  0  0  0  0  0  0  0
   11.7348  -17.3077   21.0882 C   0  0  0  0  0  0  0  0  0  0  0  0
   12.6678  -16.4657   20.8402 O   0  0  0  0  0  0  0  0  0  0  0  0
   13.8718  -20.2063   20.8972 O   0  0  0  0  0  0  0  0  0  0  0  0
    8.8409  -14.9473   29.2575 N   0  0  0  0  0  0  0  0  0  0  0  0
   10.2287  -14.6969   29.1934 C   0  0  0  0  0  0  0  0  0  0  0  0
   10.8483  -14.2308   30.2393 N   0  0  0  0  0  0  0  0  0  0  0  0
   10.9643  -14.9457   28.0054 N   0  0  0  0  0  0  0  0  0  0  0  0
   10.3964  -15.6171   26.8576 C   0  0  0  0  0  0  0  0  0  0  0  0
   11.4330  -15.7752   25.7518 C   0  0  0  0  0  0  0  0  0  0  0  0
   10.8831  -16.5138   24.5788 C   0  0  0  0  0  0  0  0  0  0  0  0
   11.9142  -16.7572   23.5079 C   0  0  2  0  0  0  0  0  0  0  0  0
   11.2640  -17.5071   22.4108 N   0  0  0  0  0  0  0  0  0  0  0  0
   12.9975  -17.5979   24.0628 C   0  0  0  0  0  0  0  0  0  0  0  0
   12.8893  -18.9469   24.3007 O   0  0  0  0  0  0  0  0  0  0  0  0
   14.1151  -17.0354   24.3455 O   0  0  0  0  0  0  0  0  0  0  0  0
  2  1  1  0
  2  3  2  0
  4  2  1  0
  5  4  1  0
  5  6  1  0
  6  7  1  6
  8  9  2  0
  8  6  1  0
 10  8  1  0
 11 10  1  0
 12 13  1  0
 11 12  1  6
 13 17  1  0
 13 14  2  0
 15 16  2  0
 15 11  1  0
 19 20  2  0
 19 18  1  0
 21 19  1  0
 22 21  1  0
 23 22  1  0
 25 24  1  1
 24 23  1  0
 25 26  1  0
 26 15  1  0
 27 25  1  0
 28 27  1  0
 29 27  2  0
M  END
$$$$
