QDR.pdb
     RDKit          3D

 29 28  0  0  1  0  0  0  0  0999 V2000
   14.3684  -18.8585   15.0773 N   0  0  0  0  0  0  0  0  0  0  0  0
   14.6707  -17.4921   15.3281 C   0  0  0  0  0  0  0  0  0  0  0  0
   15.8663  -17.0930   15.1782 O   0  0  0  0  0  0  0  0  0  0  0  0
   13.6200  -16.5352   15.7581 C   0  0  0  0  0  0  0  0  0  0  0  0
   12.3006  -17.2421   15.8445 C   0  0  0  0  0  0  0  0  0  0  0  0
   11.2162  -16.3711   16.4329 C   0  0  2  0  0  0  0  0  0  0  0  0
   11.1252  -15.1897   15.5962 N   0  0  0  0  0  0  0  0  0  0  0  0
   11.6088  -15.9709   17.8084 C   0  0  0  0  0  0  0  0  0  0  0  0
   12.3457  -14.9900   17.9874 O   0  0  0  0  0  0  0  0  0  0  0  0
   11.1619  -16.6856   18.9551 N   0  0  0  0  0  0  0  0  0  0  0  0
   11.4367  -16.2826   20.3006 C   0  0  1  0  0  0  0  0  0  0  0  0
   10.6681  -17.0215   21.3500 C   0  0  0  0  0  0  0  0  0  0  0  0
   10.9792  -16.4984   22.6778 C   0  0  0  0  0  0  0  0  0  0  0  0
   10.9248  -15.2483   22.8956 O   0  0  0  0  0  0  0  0  0  0  0  0
   12.8958  -16.4600   20.5800 C   0  0  0  0  0  0  0  0  0  0  0  0
   13.4117  -17.6234   20.4346 O   0  0  0  0  0  0  0  0  0  0  0  0
   11.3424  -17.2803   23.7586 O   0  0  0  0  0  0  0  0  0  0  0  0
   17.5132  -14.3325   16.9301 N   0  0  0  0  0  0  0  0  0  0  0  0
   16.7761  -13.1571   16.6698 C   0  0  0  0  0  0  0  0  0  0  0  0
   16.5279  -12.8114   15.4393 N   0  0  0  0  0  0  0  0  0  0  0  0
   16.2976  -12.3424   17.7288 N   0  0  0  0  0  0  0  0  0  0  0  0
   16.4710  -12.6862   19.1225 C   0  0  0  0  0  0  0  0  0  0  0  0
   15.6733  -13.9350   19.4781 C   0  0  0  0  0  0  0  0  0  0  0  0
   15.8679  -14.3293   20.9032 C   0  0  0  0  0  0  0  0  0  0  0  0
   15.1216  -15.5862   21.2671 C   0  0  2  0  0  0  0  0  0  0  0  0
   13.6851  -15.3581   20.9964 N   0  0  0  0  0  0  0  0  0  0  0  0
   15.2834  -15.8418   22.7151 C   0  0  0  0  0  0  0  0  0  0  0  0
   14.2562  -15.8183   23.6275 O   0  0  0  0  0  0  0  0  0  0  0  0
   16.4598  -16.1011   23.1556 O   0  0  0  0  0  0  0  0  0  0  0  0
  2  1  1  0
  2  3  2  0
  4  2  1  0
  5  4  1  0
  5  6  1  0
  6  7  1  6
  8  9  2  0
  8  6  1  0
 10  8  1  0
 11 10  1  0
 12 13  1  0
 11 12  1  1
 13 17  1  0
 13 14  2  0
 15 16  2  0
 15 11  1  0
 19 20  2  0
 19 18  1  0
 21 19  1  0
 22 21  1  0
 23 22  1  0
 25 24  1  1
 24 23  1  0
 25 26  1  0
 26 15  1  0
 27 25  1  0
 28 27  1  0
 29 27  2  0
M  END
$$$$
