QDR.pdb
     RDKit          3D

 29 28  0  0  1  0  0  0  0  0999 V2000
    6.2571  -13.0755   19.2311 N   0  0  0  0  0  0  0  0  0  0  0  0
    7.1593  -13.4237   20.2734 C   0  0  0  0  0  0  0  0  0  0  0  0
    6.6956  -13.6493   21.4333 O   0  0  0  0  0  0  0  0  0  0  0  0
    8.6200  -13.5264   20.0279 C   0  0  0  0  0  0  0  0  0  0  0  0
    8.9216  -13.1299   18.6137 C   0  0  0  0  0  0  0  0  0  0  0  0
    9.5044  -14.2660   17.8071 C   0  0  2  0  0  0  0  0  0  0  0  0
    8.3861  -15.0257   17.2816 N   0  0  0  0  0  0  0  0  0  0  0  0
   10.3107  -15.1333   18.7036 C   0  0  0  0  0  0  0  0  0  0  0  0
    9.8026  -16.1373   19.2244 O   0  0  0  0  0  0  0  0  0  0  0  0
   11.6748  -14.8507   18.9949 N   0  0  0  0  0  0  0  0  0  0  0  0
   12.4917  -15.6631   19.8439 C   0  0  1  0  0  0  0  0  0  0  0  0
   13.9645  -15.4441   19.6999 C   0  0  0  0  0  0  0  0  0  0  0  0
   14.7083  -16.4130   20.5008 C   0  0  0  0  0  0  0  0  0  0  0  0
   15.3158  -16.0352   21.5502 O   0  0  0  0  0  0  0  0  0  0  0  0
   12.1207  -15.4125   21.2715 C   0  0  0  0  0  0  0  0  0  0  0  0
   12.4803  -14.3096   21.8148 O   0  0  0  0  0  0  0  0  0  0  0  0
   14.8106  -17.7586   20.2001 O   0  0  0  0  0  0  0  0  0  0  0  0
    7.3626  -20.0272   25.2161 N   0  0  0  0  0  0  0  0  0  0  0  0
    7.3277  -19.1011   26.2809 C   0  0  0  0  0  0  0  0  0  0  0  0
    7.4700  -19.5212   27.5050 N   0  0  0  0  0  0  0  0  0  0  0  0
    7.1406  -17.7149   26.0409 N   0  0  0  0  0  0  0  0  0  0  0  0
    7.5275  -17.0741   24.8038 C   0  0  0  0  0  0  0  0  0  0  0  0
    9.0421  -16.9302   24.7161 C   0  0  0  0  0  0  0  0  0  0  0  0
    9.4619  -16.2522   23.4559 C   0  0  0  0  0  0  0  0  0  0  0  0
   10.9514  -16.0429   23.3751 C   0  0  2  0  0  0  0  0  0  0  0  0
   11.3856  -16.3805   22.0017 N   0  0  0  0  0  0  0  0  0  0  0  0
   11.6211  -16.9713   24.3121 C   0  0  0  0  0  0  0  0  0  0  0  0
   11.6633  -16.8026   25.6751 O   0  0  0  0  0  0  0  0  0  0  0  0
   12.2057  -18.0041   23.8256 O   0  0  0  0  0  0  0  0  0  0  0  0
  2  1  1  0
  2  3  2  0
  4  2  1  0
  5  4  1  0
  5  6  1  0
  6  7  1  1
  8  9  2  0
  8  6  1  0
 10  8  1  0
 11 10  1  0
 12 13  1  0
 11 12  1  1
 13 17  1  0
 13 14  2  0
 15 16  2  0
 15 11  1  0
 19 20  2  0
 19 18  1  0
 21 19  1  0
 22 21  1  0
 23 22  1  0
 25 24  1  6
 24 23  1  0
 25 26  1  0
 26 15  1  0
 27 25  1  0
 28 27  1  0
 29 27  2  0
M  END
$$$$
