QDR.pdb
     RDKit          3D

 29 28  0  0  1  0  0  0  0  0999 V2000
    6.6971  -15.5747   15.3623 N   0  0  0  0  0  0  0  0  0  0  0  0
    7.9492  -14.9087   15.2621 C   0  0  0  0  0  0  0  0  0  0  0  0
    8.5674  -14.9325   14.1537 O   0  0  0  0  0  0  0  0  0  0  0  0
    8.5382  -14.1935   16.4223 C   0  0  0  0  0  0  0  0  0  0  0  0
    7.6593  -14.3735   17.6235 C   0  0  0  0  0  0  0  0  0  0  0  0
    8.2055  -13.6788   18.8482 C   0  0  2  0  0  0  0  0  0  0  0  0
    8.7410  -12.4055   18.4057 N   0  0  0  0  0  0  0  0  0  0  0  0
    9.3010  -14.5003   19.4234 C   0  0  0  0  0  0  0  0  0  0  0  0
    9.0654  -15.6344   19.8657 O   0  0  0  0  0  0  0  0  0  0  0  0
   10.6413  -14.0259   19.4883 N   0  0  0  0  0  0  0  0  0  0  0  0
   11.7093  -14.7427   20.1157 C   0  0  1  0  0  0  0  0  0  0  0  0
   13.0830  -14.2970   19.7257 C   0  0  0  0  0  0  0  0  0  0  0  0
   13.8316  -15.4014   19.1312 C   0  0  0  0  0  0  0  0  0  0  0  0
   13.3353  -16.0543   18.1614 O   0  0  0  0  0  0  0  0  0  0  0  0
   11.5824  -14.6158   21.6010 C   0  0  0  0  0  0  0  0  0  0  0  0
   11.5591  -13.4437   22.1173 O   0  0  0  0  0  0  0  0  0  0  0  0
   15.0829  -15.8115   19.5525 O   0  0  0  0  0  0  0  0  0  0  0  0
    5.7646  -13.1719   24.6587 N   0  0  0  0  0  0  0  0  0  0  0  0
    6.5770  -13.0178   25.8029 C   0  0  0  0  0  0  0  0  0  0  0  0
    6.4306  -11.9692   26.5606 N   0  0  0  0  0  0  0  0  0  0  0  0
    7.5537  -13.9892   26.1445 N   0  0  0  0  0  0  0  0  0  0  0  0
    8.6520  -14.3377   25.2711 C   0  0  0  0  0  0  0  0  0  0  0  0
    8.2107  -15.3476   24.2186 C   0  0  0  0  0  0  0  0  0  0  0  0
    9.1980  -15.4553   23.1061 C   0  0  0  0  0  0  0  0  0  0  0  0
   10.5961  -15.7342   23.5926 C   0  0  2  0  0  0  0  0  0  0  0  0
   11.4896  -15.7738   22.4141 N   0  0  0  0  0  0  0  0  0  0  0  0
   10.6260  -17.0642   24.2394 C   0  0  0  0  0  0  0  0  0  0  0  0
   10.8187  -17.2697   25.5842 O   0  0  0  0  0  0  0  0  0  0  0  0
   10.4641  -18.0999   23.5002 O   0  0  0  0  0  0  0  0  0  0  0  0
  2  1  1  0
  2  3  2  0
  4  2  1  0
  5  4  1  0
  5  6  1  0
  6  7  1  6
  8  9  2  0
  8  6  1  0
 10  8  1  0
 11 10  1  0
 12 13  1  0
 11 12  1  6
 13 17  1  0
 13 14  2  0
 15 16  2  0
 15 11  1  0
 19 20  2  0
 19 18  1  0
 21 19  1  0
 22 21  1  0
 23 22  1  0
 25 24  1  6
 24 23  1  0
 25 26  1  0
 26 15  1  0
 27 25  1  0
 28 27  1  0
 29 27  2  0
M  END
$$$$
