QDR.pdb
     RDKit          3D

 29 28  0  0  1  0  0  0  0  0999 V2000
    8.3642  -12.6463   17.1896 N   0  0  0  0  0  0  0  0  0  0  0  0
    7.8675  -13.8532   16.6256 C   0  0  0  0  0  0  0  0  0  0  0  0
    7.7856  -13.9494   15.3626 O   0  0  0  0  0  0  0  0  0  0  0  0
    7.4477  -14.9905   17.4828 C   0  0  0  0  0  0  0  0  0  0  0  0
    7.7472  -14.6764   18.9179 C   0  0  0  0  0  0  0  0  0  0  0  0
    9.1871  -14.9515   19.2810 C   0  0  2  0  0  0  0  0  0  0  0  0
    9.7667  -15.6881   18.1741 N   0  0  0  0  0  0  0  0  0  0  0  0
    9.2263  -15.7915   20.5054 C   0  0  0  0  0  0  0  0  0  0  0  0
    8.6030  -15.4463   21.5202 O   0  0  0  0  0  0  0  0  0  0  0  0
    9.9680  -17.0048   20.5606 N   0  0  0  0  0  0  0  0  0  0  0  0
    9.9915  -17.8717   21.6991 C   0  0  1  0  0  0  0  0  0  0  0  0
   10.8400  -19.0939   21.5441 C   0  0  0  0  0  0  0  0  0  0  0  0
   10.7103  -19.9604   22.7129 C   0  0  0  0  0  0  0  0  0  0  0  0
    9.6699  -19.8951   23.4384 O   0  0  0  0  0  0  0  0  0  0  0  0
   10.4846  -17.1098   22.8886 C   0  0  0  0  0  0  0  0  0  0  0  0
   11.5348  -16.3871   22.7626 O   0  0  0  0  0  0  0  0  0  0  0  0
   11.6623  -20.8805   23.1110 O   0  0  0  0  0  0  0  0  0  0  0  0
    4.7888  -11.9319   25.9052 N   0  0  0  0  0  0  0  0  0  0  0  0
    6.0243  -11.8870   26.5865 C   0  0  0  0  0  0  0  0  0  0  0  0
    6.4084  -10.7789   27.1519 N   0  0  0  0  0  0  0  0  0  0  0  0
    6.8586  -13.0323   26.6677 N   0  0  0  0  0  0  0  0  0  0  0  0
    7.8428  -13.3585   25.6599 C   0  0  0  0  0  0  0  0  0  0  0  0
    8.6169  -14.6144   26.0418 C   0  0  0  0  0  0  0  0  0  0  0  0
    9.6558  -14.9545   25.0273 C   0  0  0  0  0  0  0  0  0  0  0  0
   10.2490  -16.3232   25.2371 C   0  0  2  0  0  0  0  0  0  0  0  0
    9.7981  -17.1906   24.1266 N   0  0  0  0  0  0  0  0  0  0  0  0
    9.7293  -16.8859   26.5026 C   0  0  0  0  0  0  0  0  0  0  0  0
    8.8838  -17.9661   26.5828 O   0  0  0  0  0  0  0  0  0  0  0  0
   10.0863  -16.3314   27.6027 O   0  0  0  0  0  0  0  0  0  0  0  0
  2  1  1  0
  2  3  2  0
  4  2  1  0
  5  4  1  0
  5  6  1  0
  6  7  1  6
  8  9  2  0
  8  6  1  0
 10  8  1  0
 11 10  1  0
 12 13  1  0
 11 12  1  6
 13 17  1  0
 13 14  2  0
 15 16  2  0
 15 11  1  0
 19 20  2  0
 19 18  1  0
 21 19  1  0
 22 21  1  0
 23 22  1  0
 25 24  1  6
 24 23  1  0
 25 26  1  0
 26 15  1  0
 27 25  1  0
 28 27  1  0
 29 27  2  0
M  END
$$$$
