QDR.pdb
     RDKit          3D

 29 28  0  0  1  0  0  0  0  0999 V2000
    8.4067  -12.7410   17.2356 N   0  0  0  0  0  0  0  0  0  0  0  0
    7.7206  -13.9855   17.2775 C   0  0  0  0  0  0  0  0  0  0  0  0
    7.0064  -14.3236   16.2842 O   0  0  0  0  0  0  0  0  0  0  0  0
    7.8261  -14.8860   18.4533 C   0  0  0  0  0  0  0  0  0  0  0  0
    7.9502  -16.3065   17.9898 C   0  0  0  0  0  0  0  0  0  0  0  0
    8.0986  -17.2774   19.1370 C   0  0  2  0  0  0  0  0  0  0  0  0
    7.1348  -16.8852   20.1475 N   0  0  0  0  0  0  0  0  0  0  0  0
    9.4705  -17.1630   19.6946 C   0  0  0  0  0  0  0  0  0  0  0  0
   10.4563  -17.4101   18.9844 O   0  0  0  0  0  0  0  0  0  0  0  0
    9.7031  -16.7719   21.0431 N   0  0  0  0  0  0  0  0  0  0  0  0
   11.0011  -16.7194   21.6435 C   0  0  1  0  0  0  0  0  0  0  0  0
   12.0245  -15.9517   20.8681 C   0  0  0  0  0  0  0  0  0  0  0  0
   13.3097  -16.6456   20.8869 C   0  0  0  0  0  0  0  0  0  0  0  0
   13.3486  -17.9110   20.7858 O   0  0  0  0  0  0  0  0  0  0  0  0
   10.8906  -16.1062   23.0037 C   0  0  0  0  0  0  0  0  0  0  0  0
   10.8695  -14.8291   23.1015 O   0  0  0  0  0  0  0  0  0  0  0  0
   14.5341  -16.0158   21.0110 O   0  0  0  0  0  0  0  0  0  0  0  0
    5.4762  -12.1544   26.3551 N   0  0  0  0  0  0  0  0  0  0  0  0
    6.7597  -12.4897   25.8725 C   0  0  0  0  0  0  0  0  0  0  0  0
    7.4844  -11.5817   25.2844 N   0  0  0  0  0  0  0  0  0  0  0  0
    7.2775  -13.8031   26.0178 N   0  0  0  0  0  0  0  0  0  0  0  0
    6.6681  -14.9590   25.3989 C   0  0  0  0  0  0  0  0  0  0  0  0
    7.4563  -16.2244   25.7150 C   0  0  0  0  0  0  0  0  0  0  0  0
    8.4912  -16.5056   24.6788 C   0  0  0  0  0  0  0  0  0  0  0  0
    9.8883  -16.5276   25.2415 C   0  0  2  0  0  0  0  0  0  0  0  0
   10.8107  -16.9282   24.1563 N   0  0  0  0  0  0  0  0  0  0  0  0
    9.9625  -17.5477   26.3103 C   0  0  0  0  0  0  0  0  0  0  0  0
   10.7024  -18.7028   26.2314 O   0  0  0  0  0  0  0  0  0  0  0  0
    9.2912  -17.3476   27.3847 O   0  0  0  0  0  0  0  0  0  0  0  0
  2  1  1  0
  2  3  2  0
  4  2  1  0
  5  4  1  0
  5  6  1  0
  6  7  1  1
  8  9  2  0
  8  6  1  0
 10  8  1  0
 11 10  1  0
 12 13  1  0
 11 12  1  6
 13 17  1  0
 13 14  2  0
 15 16  2  0
 15 11  1  0
 19 20  2  0
 19 18  1  0
 21 19  1  0
 22 21  1  0
 23 22  1  0
 25 24  1  6
 24 23  1  0
 25 26  1  0
 26 15  1  0
 27 25  1  0
 28 27  1  0
 29 27  2  0
M  END
$$$$
