QDR.pdb
     RDKit          3D

 29 28  0  0  1  0  0  0  0  0999 V2000
    7.8104  -22.9407   19.7228 N   0  0  0  0  0  0  0  0  0  0  0  0
    6.8979  -22.1639   20.4881 C   0  0  0  0  0  0  0  0  0  0  0  0
    5.8170  -21.7796   19.9448 O   0  0  0  0  0  0  0  0  0  0  0  0
    7.1874  -21.7997   21.8980 C   0  0  0  0  0  0  0  0  0  0  0  0
    8.5063  -22.3833   22.3079 C   0  0  0  0  0  0  0  0  0  0  0  0
    9.6391  -21.3919   22.1867 C   0  0  2  0  0  0  0  0  0  0  0  0
   10.3565  -21.7196   20.9694 N   0  0  0  0  0  0  0  0  0  0  0  0
   10.5478  -21.5494   23.3511 C   0  0  0  0  0  0  0  0  0  0  0  0
   10.5386  -22.5975   24.0135 O   0  0  0  0  0  0  0  0  0  0  0  0
   11.4492  -20.5211   23.7451 N   0  0  0  0  0  0  0  0  0  0  0  0
   12.4314  -20.6756   24.7744 C   0  0  1  0  0  0  0  0  0  0  0  0
   13.6434  -19.8115   24.6250 C   0  0  0  0  0  0  0  0  0  0  0  0
   14.6783  -20.2099   25.5756 C   0  0  0  0  0  0  0  0  0  0  0  0
   14.4773  -21.1900   26.3580 O   0  0  0  0  0  0  0  0  0  0  0  0
   11.8068  -20.3768   26.1007 C   0  0  0  0  0  0  0  0  0  0  0  0
   11.0846  -19.3251   26.2162 O   0  0  0  0  0  0  0  0  0  0  0  0
   15.9052  -19.5850   25.7001 O   0  0  0  0  0  0  0  0  0  0  0  0
    8.5234  -26.3964   31.9363 N   0  0  0  0  0  0  0  0  0  0  0  0
    8.6356  -25.0497   32.3442 C   0  0  0  0  0  0  0  0  0  0  0  0
    8.5499  -24.7500   33.6083 N   0  0  0  0  0  0  0  0  0  0  0  0
    8.8420  -24.0121   31.3981 N   0  0  0  0  0  0  0  0  0  0  0  0
   10.1568  -23.6051   30.9550 C   0  0  0  0  0  0  0  0  0  0  0  0
   10.0593  -22.5699   29.8409 C   0  0  0  0  0  0  0  0  0  0  0  0
   11.4055  -22.1471   29.3584 C   0  0  0  0  0  0  0  0  0  0  0  0
   11.3529  -20.9203   28.4857 C   0  0  2  0  0  0  0  0  0  0  0  0
   12.0140  -21.2448   27.2026 N   0  0  0  0  0  0  0  0  0  0  0  0
   12.1158  -19.8323   29.1357 C   0  0  0  0  0  0  0  0  0  0  0  0
   11.5621  -18.8762   29.9526 O   0  0  0  0  0  0  0  0  0  0  0  0
   13.3794  -19.7700   28.9247 O   0  0  0  0  0  0  0  0  0  0  0  0
  2  1  1  0
  2  3  2  0
  4  2  1  0
  5  4  1  0
  5  6  1  0
  6  7  1  6
  8  9  2  0
  8  6  1  0
 10  8  1  0
 11 10  1  0
 12 13  1  0
 11 12  1  6
 13 17  1  0
 13 14  2  0
 15 16  2  0
 15 11  1  0
 19 20  2  0
 19 18  1  0
 21 19  1  0
 22 21  1  0
 23 22  1  0
 25 24  1  1
 24 23  1  0
 25 26  1  0
 26 15  1  0
 27 25  1  0
 28 27  1  0
 29 27  2  0
M  END
$$$$
