PFC.pdb
     RDKit          3D

 25 26  0  0  1  0  0  0  0  0999 V2000
   27.4974  -19.3237  -13.3240 N   0  0  0  0  0  0  0  0  0  0  0  0
   28.6361  -19.1705  -14.1918 C   0  0  0  0  0  0  0  0  0  0  0  0
   29.4045  -20.4680  -14.0591 C   0  0  0  0  0  0  0  0  0  0  0  0
   28.2816  -21.4715  -13.9279 C   0  0  0  0  0  0  0  0  0  0  0  0
   27.2531  -20.7288  -13.1540 C   0  0  1  0  0  0  0  0  0  0  0  0
   27.1427  -21.0915  -11.7435 C   0  0  0  0  0  0  0  0  0  0  0  0
   26.7258  -22.2394  -11.4404 O   0  0  0  0  0  0  0  0  0  0  0  0
   27.4841  -20.2087  -10.6938 N   0  0  0  0  0  0  0  0  0  0  0  0
   27.3009  -20.5421   -9.2822 C   0  0  1  0  0  0  0  0  0  0  0  0
   28.2770  -19.7251   -8.4940 C   0  0  0  0  0  0  0  0  0  0  0  0
   28.1512  -19.8050   -7.0496 C   0  0  0  0  0  0  0  0  0  0  0  0
   28.9551  -20.7562   -6.4076 C   0  0  0  0  0  0  0  0  0  0  0  0
   28.9153  -20.9165   -5.0387 C   0  0  0  0  0  0  0  0  0  0  0  0
   28.0551  -20.1075   -4.3159 C   0  0  0  0  0  0  0  0  0  0  0  0
   27.2646  -19.1699   -4.9628 C   0  0  0  0  0  0  0  0  0  0  0  0
   27.3019  -19.0070   -6.3313 C   0  0  0  0  0  0  0  0  0  0  0  0
   25.9252  -20.1242   -8.8653 C   0  0  0  0  0  0  0  0  0  0  0  0
   25.4623  -19.0207   -9.2542 O   0  0  0  0  0  0  0  0  0  0  0  0
   25.1032  -20.9171   -8.0432 N   0  0  0  0  0  0  0  0  0  0  0  0
   23.6915  -20.6736   -7.8179 C   0  0  1  0  0  0  0  0  0  0  0  0
   22.8815  -20.8427   -9.0815 C   0  0  0  0  0  0  0  0  0  0  0  0
   21.1331  -20.6388   -8.6675 S   0  0  0  0  0  0  0  0  0  0  0  0
   23.1527  -21.6305   -6.8171 C   0  0  0  0  0  0  0  0  0  0  0  0
   23.9519  -22.5983   -6.2304 O   0  0  0  0  0  0  0  0  0  0  0  0
   21.9447  -21.5833   -6.4758 O   0  0  0  0  0  0  0  0  0  0  0  0
  1  2  1  0
  3  2  1  0
  4  5  1  0
  4  3  1  0
  5  1  1  0
  5  6  1  1
  6  7  2  0
  8  6  1  0
  8  9  1  0
  9 17  1  0
  9 10  1  1
 10 11  1  0
 11 16  1  0
 12 11  2  0
 12 13  1  0
 13 14  2  0
 14 15  1  0
 16 15  2  0
 17 18  2  0
 19 20  1  0
 19 17  1  0
 20 23  1  0
 20 21  1  6
 22 21  1  0
 23 25  2  0
 23 24  1  0
M  END
$$$$
