PFC.pdb
     RDKit          3D

 25 26  0  0  1  0  0  0  0  0999 V2000
   27.1858  -19.2768  -13.3496 N   0  0  0  0  0  0  0  0  0  0  0  0
   28.3157  -19.0621  -14.2159 C   0  0  0  0  0  0  0  0  0  0  0  0
   29.1823  -20.2904  -14.0375 C   0  0  0  0  0  0  0  0  0  0  0  0
   28.1405  -21.3744  -13.8800 C   0  0  0  0  0  0  0  0  0  0  0  0
   27.0510  -20.6907  -13.1358 C   0  0  1  0  0  0  0  0  0  0  0  0
   26.9585  -21.0161  -11.7150 C   0  0  0  0  0  0  0  0  0  0  0  0
   26.6355  -22.1845  -11.3773 O   0  0  0  0  0  0  0  0  0  0  0  0
   27.2162  -20.0750  -10.6924 N   0  0  0  0  0  0  0  0  0  0  0  0
   27.1205  -20.3990   -9.2700 C   0  0  1  0  0  0  0  0  0  0  0  0
   28.0111  -19.4506   -8.5291 C   0  0  0  0  0  0  0  0  0  0  0  0
   28.0606  -19.6209   -7.0879 C   0  0  0  0  0  0  0  0  0  0  0  0
   29.1276  -20.3794   -6.5882 C   0  0  0  0  0  0  0  0  0  0  0  0
   29.2711  -20.6039   -5.2354 C   0  0  0  0  0  0  0  0  0  0  0  0
   28.3270  -20.0563   -4.3836 C   0  0  0  0  0  0  0  0  0  0  0  0
   27.2756  -19.3076   -4.8902 C   0  0  0  0  0  0  0  0  0  0  0  0
   27.1292  -19.0812   -6.2422 C   0  0  0  0  0  0  0  0  0  0  0  0
   25.7171  -20.1468   -8.8140 C   0  0  0  0  0  0  0  0  0  0  0  0
   25.1800  -19.0301   -9.0324 O   0  0  0  0  0  0  0  0  0  0  0  0
   24.9489  -21.1136   -8.1390 N   0  0  0  0  0  0  0  0  0  0  0  0
   23.5839  -20.9100   -7.6936 C   0  0  1  0  0  0  0  0  0  0  0  0
   22.5848  -21.5548   -8.6249 C   0  0  0  0  0  0  0  0  0  0  0  0
   21.0235  -20.6514   -8.4972 S   0  0  0  0  0  0  0  0  0  0  0  0
   23.3822  -21.5073   -6.3482 C   0  0  0  0  0  0  0  0  0  0  0  0
   24.3221  -22.3493   -5.7764 O   0  0  0  0  0  0  0  0  0  0  0  0
   22.3414  -21.2591   -5.6900 O   0  0  0  0  0  0  0  0  0  0  0  0
  1  2  1  0
  3  2  1  0
  4  5  1  0
  4  3  1  0
  5  1  1  0
  5  6  1  1
  6  7  2  0
  8  6  1  0
  8  9  1  0
  9 17  1  0
  9 10  1  1
 10 11  1  0
 11 16  1  0
 12 11  2  0
 12 13  1  0
 13 14  2  0
 14 15  1  0
 16 15  2  0
 17 18  2  0
 19 20  1  0
 19 17  1  0
 20 23  1  0
 20 21  1  6
 22 21  1  0
 23 25  2  0
 23 24  1  0
M  END
$$$$
