PFC.pdb
     RDKit          3D

 25 26  0  0  1  0  0  0  0  0999 V2000
   27.6072  -19.3543  -14.3317 N   0  0  0  0  0  0  0  0  0  0  0  0
   28.9640  -18.8727  -14.3156 C   0  0  0  0  0  0  0  0  0  0  0  0
   29.7460  -19.9358  -13.5739 C   0  0  0  0  0  0  0  0  0  0  0  0
   29.0600  -21.1981  -14.0441 C   0  0  0  0  0  0  0  0  0  0  0  0
   27.6396  -20.7818  -14.1763 C   0  0  1  0  0  0  0  0  0  0  0  0
   26.7502  -21.2296  -13.1079 C   0  0  0  0  0  0  0  0  0  0  0  0
   26.5903  -22.4643  -12.9255 O   0  0  0  0  0  0  0  0  0  0  0  0
   26.0545  -20.3363  -12.2618 N   0  0  0  0  0  0  0  0  0  0  0  0
   25.0436  -20.7745  -11.3007 C   0  0  1  0  0  0  0  0  0  0  0  0
   25.1299  -19.8711  -10.1099 C   0  0  0  0  0  0  0  0  0  0  0  0
   26.2986  -20.0438   -9.2656 C   0  0  0  0  0  0  0  0  0  0  0  0
   26.3809  -19.2121   -8.1408 C   0  0  0  0  0  0  0  0  0  0  0  0
   27.4481  -19.2919   -7.2714 C   0  0  0  0  0  0  0  0  0  0  0  0
   28.4382  -20.2204   -7.5437 C   0  0  0  0  0  0  0  0  0  0  0  0
   28.3454  -21.0378   -8.6600 C   0  0  0  0  0  0  0  0  0  0  0  0
   27.2798  -20.9607   -9.5313 C   0  0  0  0  0  0  0  0  0  0  0  0
   23.6893  -20.5867  -11.9101 C   0  0  0  0  0  0  0  0  0  0  0  0
   23.4941  -19.6456  -12.7222 O   0  0  0  0  0  0  0  0  0  0  0  0
   22.5977  -21.4251  -11.6167 N   0  0  0  0  0  0  0  0  0  0  0  0
   21.2862  -21.3046  -12.2235 C   0  0  1  0  0  0  0  0  0  0  0  0
   20.4344  -22.5264  -11.9726 C   0  0  0  0  0  0  0  0  0  0  0  0
   20.4855  -22.9018  -10.2044 S   0  0  0  0  0  0  0  0  0  0  0  0
   20.5593  -20.1370  -11.6613 C   0  0  0  0  0  0  0  0  0  0  0  0
   19.3549  -19.7042  -12.1918 O   0  0  0  0  0  0  0  0  0  0  0  0
   21.0264  -19.5076  -10.6797 O   0  0  0  0  0  0  0  0  0  0  0  0
  1  2  1  0
  3  2  1  0
  4  5  1  0
  4  3  1  0
  5  1  1  0
  5  6  1  1
  6  7  2  0
  8  6  1  0
  8  9  1  0
  9 17  1  0
  9 10  1  1
 10 11  1  0
 11 16  1  0
 12 11  2  0
 12 13  1  0
 13 14  2  0
 14 15  1  0
 16 15  2  0
 17 18  2  0
 19 20  1  0
 19 17  1  0
 20 23  1  0
 20 21  1  1
 22 21  1  0
 23 25  2  0
 23 24  1  0
M  END
$$$$
