PFC.pdb
     RDKit          3D

 25 26  0  0  1  0  0  0  0  0999 V2000
   21.4232  -10.2752  -15.5547 N   0  0  0  0  0  0  0  0  0  0  0  0
   22.4180  -10.6479  -16.5265 C   0  0  0  0  0  0  0  0  0  0  0  0
   23.7178  -10.0897  -15.9874 C   0  0  0  0  0  0  0  0  0  0  0  0
   23.5399  -10.2938  -14.5002 C   0  0  0  0  0  0  0  0  0  0  0  0
   22.0860  -10.0616  -14.2985 C   0  0  1  0  0  0  0  0  0  0  0  0
   21.7297   -8.7725  -13.7116 C   0  0  0  0  0  0  0  0  0  0  0  0
   22.3155   -8.3977  -12.6630 O   0  0  0  0  0  0  0  0  0  0  0  0
   20.7510   -7.9184  -14.2688 N   0  0  0  0  0  0  0  0  0  0  0  0
   20.4767   -6.5786  -13.7521 C   0  0  1  0  0  0  0  0  0  0  0  0
   20.6161   -5.6171  -14.8913 C   0  0  0  0  0  0  0  0  0  0  0  0
   21.9406   -5.5154  -15.4776 C   0  0  0  0  0  0  0  0  0  0  0  0
   22.7803   -4.5265  -14.9480 C   0  0  0  0  0  0  0  0  0  0  0  0
   24.0587   -4.3430  -15.4307 C   0  0  0  0  0  0  0  0  0  0  0  0
   24.4889   -5.1669  -16.4567 C   0  0  0  0  0  0  0  0  0  0  0  0
   23.6486   -6.1419  -16.9724 C   0  0  0  0  0  0  0  0  0  0  0  0
   22.3698   -6.3281  -16.4921 C   0  0  0  0  0  0  0  0  0  0  0  0
   19.0539   -6.5247  -13.2900 C   0  0  0  0  0  0  0  0  0  0  0  0
   18.1645   -7.1422  -13.9313 O   0  0  0  0  0  0  0  0  0  0  0  0
   18.6482   -5.8044  -12.1512 N   0  0  0  0  0  0  0  0  0  0  0  0
   17.2693   -5.6436  -11.7320 C   0  0  1  0  0  0  0  0  0  0  0  0
   16.9464   -6.4859  -10.5205 C   0  0  0  0  0  0  0  0  0  0  0  0
   18.2157   -6.1892   -9.2672 S   0  0  0  0  0  0  0  0  0  0  0  0
   16.9982   -4.2283  -11.3704 C   0  0  0  0  0  0  0  0  0  0  0  0
   18.0039   -3.2756  -11.3512 O   0  0  0  0  0  0  0  0  0  0  0  0
   15.8359   -3.8585  -11.0699 O   0  0  0  0  0  0  0  0  0  0  0  0
  1  2  1  0
  3  2  1  0
  4  5  1  0
  4  3  1  0
  5  1  1  0
  5  6  1  6
  6  7  2  0
  8  6  1  0
  8  9  1  0
  9 17  1  0
  9 10  1  6
 10 11  1  0
 11 16  1  0
 12 11  2  0
 12 13  1  0
 13 14  2  0
 14 15  1  0
 16 15  2  0
 17 18  2  0
 19 20  1  0
 19 17  1  0
 20 23  1  0
 20 21  1  1
 22 21  1  0
 23 25  2  0
 23 24  1  0
M  END
$$$$
