PFC.pdb
     RDKit          3D

 25 26  0  0  1  0  0  0  0  0999 V2000
   24.6848   -9.0108  -20.4389 N   0  0  0  0  0  0  0  0  0  0  0  0
   25.5862  -10.1279  -20.5515 C   0  0  0  0  0  0  0  0  0  0  0  0
   24.9537  -11.2241  -19.7208 C   0  0  0  0  0  0  0  0  0  0  0  0
   23.4839  -10.9986  -19.9926 C   0  0  0  0  0  0  0  0  0  0  0  0
   23.3839   -9.5202  -20.1057 C   0  0  1  0  0  0  0  0  0  0  0  0
   22.8165   -8.8370  -18.9463 C   0  0  0  0  0  0  0  0  0  0  0  0
   21.7394   -9.2631  -18.4547 O   0  0  0  0  0  0  0  0  0  0  0  0
   23.4233   -7.7111  -18.3445 N   0  0  0  0  0  0  0  0  0  0  0  0
   22.8369   -7.0038  -17.2072 C   0  0  1  0  0  0  0  0  0  0  0  0
   23.9055   -6.8511  -16.1697 C   0  0  0  0  0  0  0  0  0  0  0  0
   24.4119   -8.0841  -15.5938 C   0  0  0  0  0  0  0  0  0  0  0  0
   23.5879   -8.7141  -14.6516 C   0  0  0  0  0  0  0  0  0  0  0  0
   23.9709   -9.8902  -14.0424 C   0  0  0  0  0  0  0  0  0  0  0  0
   25.1968  -10.4313  -14.3903 C   0  0  0  0  0  0  0  0  0  0  0  0
   26.0032   -9.7984  -15.3241 C   0  0  0  0  0  0  0  0  0  0  0  0
   25.6234   -8.6224  -15.9351 C   0  0  0  0  0  0  0  0  0  0  0  0
   22.4404   -5.6298  -17.6497 C   0  0  0  0  0  0  0  0  0  0  0  0
   23.0059   -5.1058  -18.6442 O   0  0  0  0  0  0  0  0  0  0  0  0
   21.4468   -4.8755  -16.9984 N   0  0  0  0  0  0  0  0  0  0  0  0
   20.8818   -3.6445  -17.5163 C   0  0  1  0  0  0  0  0  0  0  0  0
   20.1927   -3.8550  -18.8438 C   0  0  0  0  0  0  0  0  0  0  0  0
   19.5266   -2.2673  -19.3966 S   0  0  0  0  0  0  0  0  0  0  0  0
   19.8690   -3.1014  -16.5746 C   0  0  0  0  0  0  0  0  0  0  0  0
   19.8625   -1.7673  -16.2014 O   0  0  0  0  0  0  0  0  0  0  0  0
   18.9841   -3.8493  -16.0892 O   0  0  0  0  0  0  0  0  0  0  0  0
  1  2  1  0
  3  2  1  0
  4  5  1  0
  4  3  1  0
  5  1  1  0
  5  6  1  1
  6  7  2  0
  8  6  1  0
  8  9  1  0
  9 17  1  0
  9 10  1  1
 10 11  1  0
 11 16  1  0
 12 11  2  0
 12 13  1  0
 13 14  2  0
 14 15  1  0
 16 15  2  0
 17 18  2  0
 19 20  1  0
 19 17  1  0
 20 23  1  0
 20 21  1  6
 22 21  1  0
 23 25  2  0
 23 24  1  0
M  END
$$$$
