PFC.pdb
     RDKit          3D

 25 26  0  0  1  0  0  0  0  0999 V2000
   27.8377  -18.8702  -13.7936 N   0  0  0  0  0  0  0  0  0  0  0  0
   29.2570  -18.7411  -13.5888 C   0  0  0  0  0  0  0  0  0  0  0  0
   29.8240  -20.1053  -13.9192 C   0  0  0  0  0  0  0  0  0  0  0  0
   28.9392  -20.5294  -15.0691 C   0  0  0  0  0  0  0  0  0  0  0  0
   27.6167  -19.9562  -14.7073 C   0  0  1  0  0  0  0  0  0  0  0  0
   26.6384  -20.9084  -14.1884 C   0  0  0  0  0  0  0  0  0  0  0  0
   26.2883  -21.8771  -14.9112 O   0  0  0  0  0  0  0  0  0  0  0  0
   26.0609  -20.7940  -12.9034 N   0  0  0  0  0  0  0  0  0  0  0  0
   24.9721  -21.6532  -12.4408 C   0  0  1  0  0  0  0  0  0  0  0  0
   25.3560  -22.1846  -11.0948 C   0  0  0  0  0  0  0  0  0  0  0  0
   26.0556  -21.2582  -10.2225 C   0  0  0  0  0  0  0  0  0  0  0  0
   25.2584  -20.3497   -9.5137 C   0  0  0  0  0  0  0  0  0  0  0  0
   25.8190  -19.4258   -8.6574 C   0  0  0  0  0  0  0  0  0  0  0  0
   27.1965  -19.4227   -8.5186 C   0  0  0  0  0  0  0  0  0  0  0  0
   27.9746  -20.3269   -9.2255 C   0  0  0  0  0  0  0  0  0  0  0  0
   27.4173  -21.2519  -10.0825 C   0  0  0  0  0  0  0  0  0  0  0  0
   23.7444  -20.8159  -12.2599 C   0  0  0  0  0  0  0  0  0  0  0  0
   23.8158  -19.7297  -11.6289 O   0  0  0  0  0  0  0  0  0  0  0  0
   22.4861  -21.1869  -12.7693 N   0  0  0  0  0  0  0  0  0  0  0  0
   21.2871  -20.3788  -12.6587 C   0  0  1  0  0  0  0  0  0  0  0  0
   20.8607  -19.8169  -13.9943 C   0  0  0  0  0  0  0  0  0  0  0  0
   20.9664  -18.0135  -13.9122 S   0  0  0  0  0  0  0  0  0  0  0  0
   20.1574  -21.1938  -12.1419 C   0  0  0  0  0  0  0  0  0  0  0  0
   19.0985  -20.6200  -11.4571 O   0  0  0  0  0  0  0  0  0  0  0  0
   20.1365  -22.4376  -12.3164 O   0  0  0  0  0  0  0  0  0  0  0  0
  1  2  1  0
  3  2  1  0
  4  5  1  0
  4  3  1  0
  5  1  1  0
  5  6  1  1
  6  7  2  0
  8  6  1  0
  8  9  1  0
  9 17  1  0
  9 10  1  1
 10 11  1  0
 11 16  1  0
 12 11  2  0
 12 13  1  0
 13 14  2  0
 14 15  1  0
 16 15  2  0
 17 18  2  0
 19 20  1  0
 19 17  1  0
 20 23  1  0
 20 21  1  6
 22 21  1  0
 23 25  2  0
 23 24  1  0
M  END
$$$$
