PFC.pdb
     RDKit          3D

 25 26  0  0  1  0  0  0  0  0999 V2000
   16.5048  -18.9235    2.9193 N   0  0  0  0  0  0  0  0  0  0  0  0
   15.8167  -20.1847    3.0144 C   0  0  0  0  0  0  0  0  0  0  0  0
   15.5730  -20.3851    4.4950 C   0  0  0  0  0  0  0  0  0  0  0  0
   15.2906  -18.9709    4.9483 C   0  0  0  0  0  0  0  0  0  0  0  0
   16.1899  -18.1552    4.0913 C   0  0  1  0  0  0  0  0  0  0  0  0
   17.3936  -17.6484    4.7450 C   0  0  0  0  0  0  0  0  0  0  0  0
   18.5192  -17.9783    4.2893 O   0  0  0  0  0  0  0  0  0  0  0  0
   17.3556  -16.7985    5.8737 N   0  0  0  0  0  0  0  0  0  0  0  0
   18.5549  -16.2089    6.4667 C   0  0  1  0  0  0  0  0  0  0  0  0
   18.1851  -14.8521    6.9805 C   0  0  0  0  0  0  0  0  0  0  0  0
   18.7963  -13.7263    6.2968 C   0  0  0  0  0  0  0  0  0  0  0  0
   19.9749  -13.2215    6.8620 C   0  0  0  0  0  0  0  0  0  0  0  0
   20.6380  -12.1541    6.2943 C   0  0  0  0  0  0  0  0  0  0  0  0
   20.1030  -11.5948    5.1465 C   0  0  0  0  0  0  0  0  0  0  0  0
   18.9360  -12.1032    4.5967 C   0  0  0  0  0  0  0  0  0  0  0  0
   18.2706  -13.1703    5.1617 C   0  0  0  0  0  0  0  0  0  0  0  0
   18.9655  -17.0384    7.6433 C   0  0  0  0  0  0  0  0  0  0  0  0
   18.0987  -17.6885    8.2829 O   0  0  0  0  0  0  0  0  0  0  0  0
   20.2993  -17.1323    8.0823 N   0  0  0  0  0  0  0  0  0  0  0  0
   20.7605  -18.0439    9.1115 C   0  0  1  0  0  0  0  0  0  0  0  0
   22.1560  -18.5498    8.8324 C   0  0  0  0  0  0  0  0  0  0  0  0
   22.0946  -19.6084    7.3677 S   0  0  0  0  0  0  0  0  0  0  0  0
   20.7938  -17.3628   10.4315 C   0  0  0  0  0  0  0  0  0  0  0  0
   21.0431  -18.0576   11.6039 O   0  0  0  0  0  0  0  0  0  0  0  0
   20.5942  -16.1254   10.5157 O   0  0  0  0  0  0  0  0  0  0  0  0
  1  2  1  0
  3  2  1  0
  4  5  1  0
  4  3  1  0
  5  1  1  0
  5  6  1  1
  6  7  2  0
  8  6  1  0
  8  9  1  0
  9 17  1  0
  9 10  1  1
 10 11  1  0
 11 16  1  0
 12 11  2  0
 12 13  1  0
 13 14  2  0
 14 15  1  0
 16 15  2  0
 17 18  2  0
 19 20  1  0
 19 17  1  0
 20 23  1  0
 20 21  1  6
 22 21  1  0
 23 25  2  0
 23 24  1  0
M  END
$$$$
