YVG.pdb
     RDKit          3D

 24 24  0  0  1  0  0  0  0  0999 V2000
   22.8281   -7.8920  -21.3984 O   0  0  0  0  0  0  0  0  0  0  0  0
   23.5871   -9.0423  -21.1412 C   0  0  0  0  0  0  0  0  0  0  0  0
   24.8984   -9.0414  -21.5125 C   0  0  0  0  0  0  0  0  0  0  0  0
   25.6618  -10.1858  -21.2590 C   0  0  0  0  0  0  0  0  0  0  0  0
   25.1013  -11.2814  -20.6510 C   0  0  0  0  0  0  0  0  0  0  0  0
   25.9241  -12.4698  -20.3963 C   0  0  0  0  0  0  0  0  0  0  0  0
   26.7883  -12.3181  -19.1523 C   0  0  2  0  0  0  0  0  0  0  0  0
   28.0075  -11.5776  -19.4629 N   0  0  0  0  0  0  0  0  0  0  0  0
   27.1219  -13.7026  -18.7057 C   0  0  0  0  0  0  0  0  0  0  0  0
   28.1437  -14.2391  -19.1890 O   0  0  0  0  0  0  0  0  0  0  0  0
   23.7772  -11.2441  -20.2918 C   0  0  0  0  0  0  0  0  0  0  0  0
   23.0026  -10.1266  -20.5311 C   0  0  0  0  0  0  0  0  0  0  0  0
   26.6300  -17.2272  -15.2898 C   0  0  0  0  0  0  0  0  0  0  0  0
   26.3669  -15.8306  -15.7876 C   0  0  2  0  0  0  0  0  0  0  0  0
   24.9843  -15.3490  -15.4564 C   0  0  0  0  0  0  0  0  0  0  0  0
   26.6347  -15.6893  -17.2652 C   0  0  2  0  0  0  0  0  0  0  0  0
   26.2976  -14.3774  -17.7622 N   0  0  0  0  0  0  0  0  0  0  0  0
   25.9474  -16.7495  -18.0456 C   0  0  0  0  0  0  0  0  0  0  0  0
   24.6941  -16.6820  -18.1333 O   0  0  0  0  0  0  0  0  0  0  0  0
   26.6377  -17.8082  -18.6791 N   0  0  0  0  0  0  0  0  0  0  0  0
   25.8793  -18.7781  -19.4411 C   0  0  0  0  0  0  0  0  0  0  0  0
   26.3320  -20.1340  -19.0976 C   0  0  0  0  0  0  0  0  0  0  0  0
   27.2333  -20.2914  -18.2540 O   0  0  0  0  0  0  0  0  0  0  0  0
   25.7628  -21.2252  -19.7052 O   0  0  0  0  0  0  0  0  0  0  0  0
  2  1  1  0
  3  2  2  0
  4  3  1  0
  5  4  2  0
  5 11  1  0
  6  5  1  0
  7  8  1  6
  7  6  1  0
  9  7  1  0
 10  9  2  0
 11 12  2  0
 12  2  1  0
 14 13  1  6
 14 15  1  0
 16 17  1  6
 16 14  1  0
 17  9  1  0
 18 16  1  0
 19 18  2  0
 20 18  1  0
 21 20  1  0
 22 24  1  0
 22 21  1  0
 23 22  2  0
M  END
$$$$
