YVG.pdb
     RDKit          3D

 24 24  0  0  1  0  0  0  0  0999 V2000
   19.7252  -22.9417   -6.8151 O   0  0  0  0  0  0  0  0  0  0  0  0
   20.6650  -22.2386   -7.5819 C   0  0  0  0  0  0  0  0  0  0  0  0
   20.5387  -22.2711   -8.9385 C   0  0  0  0  0  0  0  0  0  0  0  0
   21.4729  -21.5718   -9.7099 C   0  0  0  0  0  0  0  0  0  0  0  0
   22.4908  -20.8710   -9.1125 C   0  0  0  0  0  0  0  0  0  0  0  0
   23.4580  -20.1456   -9.9446 C   0  0  0  0  0  0  0  0  0  0  0  0
   24.5768  -21.0466  -10.4483 C   0  0  2  0  0  0  0  0  0  0  0  0
   25.7015  -21.0353   -9.5176 N   0  0  0  0  0  0  0  0  0  0  0  0
   24.9926  -20.4943  -11.7711 C   0  0  0  0  0  0  0  0  0  0  0  0
   25.7487  -19.4974  -11.7732 O   0  0  0  0  0  0  0  0  0  0  0  0
   22.5846  -20.8622   -7.7432 C   0  0  0  0  0  0  0  0  0  0  0  0
   21.6752  -21.5444   -6.9598 C   0  0  0  0  0  0  0  0  0  0  0  0
   26.1298  -21.0855  -16.4177 C   0  0  0  0  0  0  0  0  0  0  0  0
   25.6815  -21.6214  -15.0837 C   0  0  2  0  0  0  0  0  0  0  0  0
   24.8644  -22.8745  -15.2083 C   0  0  0  0  0  0  0  0  0  0  0  0
   24.9421  -20.5884  -14.2706 C   0  0  2  0  0  0  0  0  0  0  0  0
   24.5373  -21.0909  -12.9801 N   0  0  0  0  0  0  0  0  0  0  0  0
   23.7827  -20.0374  -15.0174 C   0  0  0  0  0  0  0  0  0  0  0  0
   22.6887  -20.6511  -14.9210 O   0  0  0  0  0  0  0  0  0  0  0  0
   23.8646  -18.8730  -15.8150 N   0  0  0  0  0  0  0  0  0  0  0  0
   22.6470  -18.3229  -16.3731 C   0  0  0  0  0  0  0  0  0  0  0  0
   22.4236  -18.8856  -17.7127 C   0  0  0  0  0  0  0  0  0  0  0  0
   23.2017  -19.7475  -18.1606 O   0  0  0  0  0  0  0  0  0  0  0  0
   21.3595  -18.4625  -18.4694 O   0  0  0  0  0  0  0  0  0  0  0  0
  2  1  1  0
  3  2  2  0
  4  3  1  0
  5  4  2  0
  5 11  1  0
  6  5  1  0
  7  8  1  1
  7  6  1  0
  9  7  1  0
 10  9  2  0
 11 12  2  0
 12  2  1  0
 14 13  1  6
 14 15  1  0
 16 17  1  1
 16 14  1  0
 17  9  1  0
 18 16  1  0
 19 18  2  0
 20 18  1  0
 21 20  1  0
 22 24  1  0
 22 21  1  0
 23 22  2  0
M  END
$$$$
