YVG.pdb
     RDKit          3D

 24 24  0  0  1  0  0  0  0  0999 V2000
   19.8520  -14.4183  -18.0200 O   0  0  0  0  0  0  0  0  0  0  0  0
   20.5160  -15.4426  -17.3304 C   0  0  0  0  0  0  0  0  0  0  0  0
   19.8402  -16.6036  -17.1008 C   0  0  0  0  0  0  0  0  0  0  0  0
   20.4965  -17.6299  -16.4133 C   0  0  0  0  0  0  0  0  0  0  0  0
   21.7896  -17.4688  -15.9818 C   0  0  0  0  0  0  0  0  0  0  0  0
   22.4556  -18.5612  -15.2626 C   0  0  0  0  0  0  0  0  0  0  0  0
   23.4854  -19.2773  -16.1253 C   0  0  2  0  0  0  0  0  0  0  0  0
   22.8304  -19.9955  -17.2145 N   0  0  0  0  0  0  0  0  0  0  0  0
   24.1910  -20.2344  -15.2233 C   0  0  0  0  0  0  0  0  0  0  0  0
   23.6711  -21.3589  -15.0476 O   0  0  0  0  0  0  0  0  0  0  0  0
   22.4369  -16.2848  -16.2322 C   0  0  0  0  0  0  0  0  0  0  0  0
   21.8110  -15.2568  -16.9086 C   0  0  0  0  0  0  0  0  0  0  0  0
   28.1466  -19.3764  -13.3490 C   0  0  0  0  0  0  0  0  0  0  0  0
   27.5750  -20.6988  -13.7873 C   0  0  2  0  0  0  0  0  0  0  0  0
   27.9924  -21.0772  -15.1787 C   0  0  0  0  0  0  0  0  0  0  0  0
   26.0731  -20.7453  -13.6562 C   0  0  2  0  0  0  0  0  0  0  0  0
   25.4120  -19.8676  -14.5913 N   0  0  0  0  0  0  0  0  0  0  0  0
   25.6405  -20.4659  -12.2633 C   0  0  0  0  0  0  0  0  0  0  0  0
   25.3041  -19.2851  -11.9885 O   0  0  0  0  0  0  0  0  0  0  0  0
   25.5949  -21.4589  -11.2581 N   0  0  0  0  0  0  0  0  0  0  0  0
   25.2192  -21.0740   -9.9138 C   0  0  0  0  0  0  0  0  0  0  0  0
   23.7550  -21.1067   -9.7855 C   0  0  0  0  0  0  0  0  0  0  0  0
   23.0543  -21.4303  -10.7619 O   0  0  0  0  0  0  0  0  0  0  0  0
   23.1603  -20.7813   -8.5921 O   0  0  0  0  0  0  0  0  0  0  0  0
  2  1  1  0
  3  2  2  0
  4  3  1  0
  5  4  2  0
  5 11  1  0
  6  5  1  0
  7  8  1  6
  7  6  1  0
  9  7  1  0
 10  9  2  0
 11 12  2  0
 12  2  1  0
 14 13  1  6
 14 15  1  0
 16 17  1  6
 16 14  1  0
 17  9  1  0
 18 16  1  0
 19 18  2  0
 20 18  1  0
 21 20  1  0
 22 24  1  0
 22 21  1  0
 23 22  2  0
M  END
$$$$
