YVG.pdb
     RDKit          3D

 24 24  0  0  1  0  0  0  0  0999 V2000
   23.2259  -15.1443  -19.9087 O   0  0  0  0  0  0  0  0  0  0  0  0
   23.4616  -16.2291  -19.0524 C   0  0  0  0  0  0  0  0  0  0  0  0
   23.9735  -15.9704  -17.8160 C   0  0  0  0  0  0  0  0  0  0  0  0
   24.2112  -17.0480  -16.9564 C   0  0  0  0  0  0  0  0  0  0  0  0
   23.9349  -18.3333  -17.3510 C   0  0  0  0  0  0  0  0  0  0  0  0
   24.1935  -19.4464  -16.4300 C   0  0  0  0  0  0  0  0  0  0  0  0
   25.6805  -19.6559  -16.1804 C   0  0  2  0  0  0  0  0  0  0  0  0
   26.3396  -20.1396  -17.3899 N   0  0  0  0  0  0  0  0  0  0  0  0
   25.7809  -20.6731  -15.0928 C   0  0  0  0  0  0  0  0  0  0  0  0
   25.6720  -21.8781  -15.4118 O   0  0  0  0  0  0  0  0  0  0  0  0
   23.4201  -18.5535  -18.6041 C   0  0  0  0  0  0  0  0  0  0  0  0
   23.1765  -17.5069  -19.4711 C   0  0  0  0  0  0  0  0  0  0  0  0
   27.0523  -20.9749  -10.3679 C   0  0  0  0  0  0  0  0  0  0  0  0
   27.3610  -20.9974  -11.8416 C   0  0  2  0  0  0  0  0  0  0  0  0
   28.0768  -19.7608  -12.3019 C   0  0  0  0  0  0  0  0  0  0  0  0
   26.1311  -21.2380  -12.6809 C   0  0  2  0  0  0  0  0  0  0  0  0
   25.9932  -20.2723  -13.7440 N   0  0  0  0  0  0  0  0  0  0  0  0
   24.9049  -21.2913  -11.8448 C   0  0  0  0  0  0  0  0  0  0  0  0
   25.0307  -21.6940  -10.6595 O   0  0  0  0  0  0  0  0  0  0  0  0
   23.6298  -20.9136  -12.3244 N   0  0  0  0  0  0  0  0  0  0  0  0
   22.4894  -21.0290  -11.4397 C   0  0  0  0  0  0  0  0  0  0  0  0
   21.3109  -20.4242  -12.0772 C   0  0  0  0  0  0  0  0  0  0  0  0
   21.3832  -20.0122  -13.2494 O   0  0  0  0  0  0  0  0  0  0  0  0
   20.1323  -20.3133  -11.3825 O   0  0  0  0  0  0  0  0  0  0  0  0
  2  1  1  0
  3  2  2  0
  4  3  1  0
  5  4  2  0
  5 11  1  0
  6  5  1  0
  7  8  1  6
  7  6  1  0
  9  7  1  0
 10  9  2  0
 11 12  2  0
 12  2  1  0
 14 13  1  1
 14 15  1  0
 16 17  1  6
 16 14  1  0
 17  9  1  0
 18 16  1  0
 19 18  2  0
 20 18  1  0
 21 20  1  0
 22 24  1  0
 22 21  1  0
 23 22  2  0
M  END
$$$$
