YVG.pdb
     RDKit          3D

 24 24  0  0  1  0  0  0  0  0999 V2000
   19.7131  -18.5596  -10.1751 O   0  0  0  0  0  0  0  0  0  0  0  0
   20.6476  -19.0977  -11.0710 C   0  0  0  0  0  0  0  0  0  0  0  0
   21.3381  -20.2082  -10.6869 C   0  0  0  0  0  0  0  0  0  0  0  0
   22.2722  -20.7505  -11.5757 C   0  0  0  0  0  0  0  0  0  0  0  0
   22.4861  -20.1762  -12.8039 C   0  0  0  0  0  0  0  0  0  0  0  0
   23.4720  -20.7649  -13.7181 C   0  0  0  0  0  0  0  0  0  0  0  0
   22.8535  -21.1784  -15.0461 C   0  0  2  0  0  0  0  0  0  0  0  0
   21.8593  -22.2280  -14.8432 N   0  0  0  0  0  0  0  0  0  0  0  0
   23.9767  -21.6839  -15.8891 C   0  0  0  0  0  0  0  0  0  0  0  0
   24.2389  -22.9062  -15.8363 O   0  0  0  0  0  0  0  0  0  0  0  0
   21.7712  -19.0584  -13.1546 C   0  0  0  0  0  0  0  0  0  0  0  0
   20.8436  -18.5041  -12.2952 C   0  0  0  0  0  0  0  0  0  0  0  0
   26.7949  -20.9516  -19.8825 C   0  0  0  0  0  0  0  0  0  0  0  0
   25.7803  -20.4314  -18.8988 C   0  0  2  0  0  0  0  0  0  0  0  0
   26.0064  -18.9911  -18.5414 C   0  0  0  0  0  0  0  0  0  0  0  0
   25.7039  -21.2781  -17.6530 C   0  0  2  0  0  0  0  0  0  0  0  0
   24.7154  -20.7952  -16.7195 N   0  0  0  0  0  0  0  0  0  0  0  0
   27.0329  -21.4100  -17.0035 C   0  0  0  0  0  0  0  0  0  0  0  0
   27.4722  -20.4107  -16.3780 O   0  0  0  0  0  0  0  0  0  0  0  0
   27.8041  -22.5934  -17.0629 N   0  0  0  0  0  0  0  0  0  0  0  0
   29.1137  -22.6042  -16.4455 C   0  0  0  0  0  0  0  0  0  0  0  0
   29.7200  -23.9340  -16.6048 C   0  0  0  0  0  0  0  0  0  0  0  0
   29.0721  -24.8502  -17.1430 O   0  0  0  0  0  0  0  0  0  0  0  0
   30.9981  -24.1664  -16.1616 O   0  0  0  0  0  0  0  0  0  0  0  0
  2  1  1  0
  3  2  2  0
  4  3  1  0
  5  4  2  0
  5 11  1  0
  6  5  1  0
  7  8  1  1
  7  6  1  0
  9  7  1  0
 10  9  2  0
 11 12  2  0
 12  2  1  0
 14 13  1  6
 14 15  1  0
 16 17  1  1
 16 14  1  0
 17  9  1  0
 18 16  1  0
 19 18  2  0
 20 18  1  0
 21 20  1  0
 22 24  1  0
 22 21  1  0
 23 22  2  0
M  END
$$$$
