YVG.pdb
     RDKit          3D

 24 24  0  0  1  0  0  0  0  0999 V2000
   29.7626  -31.4350  -17.5206 O   0  0  0  0  0  0  0  0  0  0  0  0
   28.8180  -31.7544  -16.5350 C   0  0  0  0  0  0  0  0  0  0  0  0
   29.1876  -32.6201  -15.5494 C   0  0  0  0  0  0  0  0  0  0  0  0
   28.2502  -32.9433  -14.5627 C   0  0  0  0  0  0  0  0  0  0  0  0
   26.9897  -32.4004  -14.5891 C   0  0  0  0  0  0  0  0  0  0  0  0
   26.0248  -32.7559  -13.5419 C   0  0  0  0  0  0  0  0  0  0  0  0
   25.4829  -34.1684  -13.7112 C   0  0  2  0  0  0  0  0  0  0  0  0
   24.7277  -34.2813  -14.9554 N   0  0  0  0  0  0  0  0  0  0  0  0
   24.5922  -34.4158  -12.5394 C   0  0  0  0  0  0  0  0  0  0  0  0
   23.4752  -33.8520  -12.5289 O   0  0  0  0  0  0  0  0  0  0  0  0
   26.6551  -31.5323  -15.5981 C   0  0  0  0  0  0  0  0  0  0  0  0
   27.5622  -31.1974  -16.5836 C   0  0  0  0  0  0  0  0  0  0  0  0
   23.4366  -37.7241   -9.2494 C   0  0  0  0  0  0  0  0  0  0  0  0
   23.5113  -36.9704  -10.5509 C   0  0  2  0  0  0  0  0  0  0  0  0
   24.2193  -37.7417  -11.6266 C   0  0  0  0  0  0  0  0  0  0  0  0
   24.1300  -35.6046  -10.3872 C   0  0  2  0  0  0  0  0  0  0  0  0
   25.0115  -35.2657  -11.4780 N   0  0  0  0  0  0  0  0  0  0  0  0
   24.8229  -35.4754   -9.0800 C   0  0  0  0  0  0  0  0  0  0  0  0
   24.1857  -35.8206   -8.0516 O   0  0  0  0  0  0  0  0  0  0  0  0
   26.1443  -34.9887   -8.9546 N   0  0  0  0  0  0  0  0  0  0  0  0
   26.7262  -34.8831   -7.6330 C   0  0  0  0  0  0  0  0  0  0  0  0
   26.5499  -33.5139   -7.1275 C   0  0  0  0  0  0  0  0  0  0  0  0
   25.9206  -32.6798   -7.8037 O   0  0  0  0  0  0  0  0  0  0  0  0
   27.0776  -33.1544   -5.9125 O   0  0  0  0  0  0  0  0  0  0  0  0
  2  1  1  0
  3  2  2  0
  4  3  1  0
  5  4  2  0
  5 11  1  0
  6  5  1  0
  7  8  1  6
  7  6  1  0
  9  7  1  0
 10  9  2  0
 11 12  2  0
 12  2  1  0
 14 13  1  1
 14 15  1  0
 16 17  1  6
 16 14  1  0
 17  9  1  0
 18 16  1  0
 19 18  2  0
 20 18  1  0
 21 20  1  0
 22 24  1  0
 22 21  1  0
 23 22  2  0
M  END
$$$$
