YVG.pdb
     RDKit          3D

 24 24  0  0  1  0  0  0  0  0999 V2000
   19.7537  -22.9099   -7.9008 O   0  0  0  0  0  0  0  0  0  0  0  0
   20.7127  -22.1927   -8.6298 C   0  0  0  0  0  0  0  0  0  0  0  0
   21.5196  -21.3288   -7.9515 C   0  0  0  0  0  0  0  0  0  0  0  0
   22.4787  -20.6099   -8.6725 C   0  0  0  0  0  0  0  0  0  0  0  0
   22.6019  -20.7724  -10.0299 C   0  0  0  0  0  0  0  0  0  0  0  0
   23.6164  -20.0059  -10.7631 C   0  0  0  0  0  0  0  0  0  0  0  0
   24.7989  -20.8674  -11.1836 C   0  0  2  0  0  0  0  0  0  0  0  0
   25.6307  -21.1939  -10.0292 N   0  0  0  0  0  0  0  0  0  0  0  0
   25.5741  -20.0578  -12.1691 C   0  0  0  0  0  0  0  0  0  0  0  0
   26.1906  -19.0563  -11.7420 O   0  0  0  0  0  0  0  0  0  0  0  0
   21.7708  -21.6518  -10.6776 C   0  0  0  0  0  0  0  0  0  0  0  0
   20.8162  -22.3731   -9.9886 C   0  0  0  0  0  0  0  0  0  0  0  0
   27.2249  -21.3825  -16.1333 C   0  0  0  0  0  0  0  0  0  0  0  0
   27.5720  -20.4469  -15.0055 C   0  0  2  0  0  0  0  0  0  0  0  0
   28.2571  -21.1433  -13.8658 C   0  0  0  0  0  0  0  0  0  0  0  0
   26.3728  -19.6782  -14.5094 C   0  0  2  0  0  0  0  0  0  0  0  0
   25.6024  -20.4238  -13.5439 N   0  0  0  0  0  0  0  0  0  0  0  0
   25.5192  -19.2181  -15.6342 C   0  0  0  0  0  0  0  0  0  0  0  0
   24.5918  -19.9827  -16.0061 O   0  0  0  0  0  0  0  0  0  0  0  0
   25.7087  -17.9783  -16.2866 N   0  0  0  0  0  0  0  0  0  0  0  0
   24.8053  -17.6075  -17.3557 C   0  0  0  0  0  0  0  0  0  0  0  0
   25.2060  -18.2893  -18.5950 C   0  0  0  0  0  0  0  0  0  0  0  0
   26.1012  -19.1535  -18.5654 O   0  0  0  0  0  0  0  0  0  0  0  0
   24.5952  -17.9748  -19.7831 O   0  0  0  0  0  0  0  0  0  0  0  0
  2  1  1  0
  3  2  2  0
  4  3  1  0
  5  4  2  0
  5 11  1  0
  6  5  1  0
  7  8  1  1
  7  6  1  0
  9  7  1  0
 10  9  2  0
 11 12  2  0
 12  2  1  0
 14 13  1  6
 14 15  1  0
 16 17  1  1
 16 14  1  0
 17  9  1  0
 18 16  1  0
 19 18  2  0
 20 18  1  0
 21 20  1  0
 22 24  1  0
 22 21  1  0
 23 22  2  0
M  END
$$$$
