YVG.pdb
     RDKit          3D

 24 24  0  0  1  0  0  0  0  0999 V2000
   15.3874  -14.3478  -16.2247 O   0  0  0  0  0  0  0  0  0  0  0  0
   16.4913  -13.5101  -16.0124 C   0  0  0  0  0  0  0  0  0  0  0  0
   17.5393  -14.0008  -15.2924 C   0  0  0  0  0  0  0  0  0  0  0  0
   18.6442  -13.1704  -15.0767 C   0  0  0  0  0  0  0  0  0  0  0  0
   18.6695  -11.8932  -15.5790 C   0  0  0  0  0  0  0  0  0  0  0  0
   19.8409  -11.0423  -15.3384 C   0  0  0  0  0  0  0  0  0  0  0  0
   20.7574  -10.9649  -16.5514 C   0  0  2  0  0  0  0  0  0  0  0  0
   21.5070  -12.2079  -16.7069 N   0  0  0  0  0  0  0  0  0  0  0  0
   21.6882   -9.8261  -16.2979 C   0  0  0  0  0  0  0  0  0  0  0  0
   22.6289  -10.0119  -15.4939 O   0  0  0  0  0  0  0  0  0  0  0  0
   17.5947  -11.4351  -16.2992 C   0  0  0  0  0  0  0  0  0  0  0  0
   16.4925  -12.2350  -16.5259 C   0  0  0  0  0  0  0  0  0  0  0  0
   23.3356   -5.3637  -17.7003 C   0  0  0  0  0  0  0  0  0  0  0  0
   22.6944   -6.6969  -17.9811 C   0  0  2  0  0  0  0  0  0  0  0  0
   21.4700   -6.5806  -18.8418 C   0  0  0  0  0  0  0  0  0  0  0  0
   22.3804   -7.4588  -16.7178 C   0  0  2  0  0  0  0  0  0  0  0  0
   21.5006   -8.5777  -16.9546 N   0  0  0  0  0  0  0  0  0  0  0  0
   21.8358   -6.5641  -15.6650 C   0  0  0  0  0  0  0  0  0  0  0  0
   20.6128   -6.2757  -15.7275 O   0  0  0  0  0  0  0  0  0  0  0  0
   22.6270   -6.0372  -14.6185 N   0  0  0  0  0  0  0  0  0  0  0  0
   22.0054   -5.1617  -13.6471 C   0  0  0  0  0  0  0  0  0  0  0  0
   21.9392   -3.7967  -14.1887 C   0  0  0  0  0  0  0  0  0  0  0  0
   22.3434   -3.5677  -15.3434 O   0  0  0  0  0  0  0  0  0  0  0  0
   21.4328   -2.7755  -13.4241 O   0  0  0  0  0  0  0  0  0  0  0  0
  2  1  1  0
  3  2  2  0
  4  3  1  0
  5  4  2  0
  5 11  1  0
  6  5  1  0
  7  8  1  1
  7  6  1  0
  9  7  1  0
 10  9  2  0
 11 12  2  0
 12  2  1  0
 14 13  1  1
 14 15  1  0
 16 17  1  6
 16 14  1  0
 17  9  1  0
 18 16  1  0
 19 18  2  0
 20 18  1  0
 21 20  1  0
 22 24  1  0
 22 21  1  0
 23 22  2  0
M  END
$$$$
