YVG.pdb
     RDKit          3D

 24 24  0  0  1  0  0  0  0  0999 V2000
   29.4898  -16.1350  -19.1479 O   0  0  0  0  0  0  0  0  0  0  0  0
   28.7084  -16.9197  -18.2881 C   0  0  0  0  0  0  0  0  0  0  0  0
   27.8266  -17.7971  -18.8449 C   0  0  0  0  0  0  0  0  0  0  0  0
   27.0437  -18.5832  -17.9930 C   0  0  0  0  0  0  0  0  0  0  0  0
   27.1628  -18.4716  -16.6301 C   0  0  0  0  0  0  0  0  0  0  0  0
   26.3295  -19.3081  -15.7583 C   0  0  0  0  0  0  0  0  0  0  0  0
   27.1441  -20.3563  -15.0131 C   0  0  2  0  0  0  0  0  0  0  0  0
   27.7021  -21.3301  -15.9467 N   0  0  0  0  0  0  0  0  0  0  0  0
   26.1998  -21.0241  -14.0698 C   0  0  0  0  0  0  0  0  0  0  0  0
   25.5814  -22.0309  -14.4816 O   0  0  0  0  0  0  0  0  0  0  0  0
   28.0622  -17.5765  -16.1072 C   0  0  0  0  0  0  0  0  0  0  0  0
   28.8464  -16.7893  -16.9267 C   0  0  0  0  0  0  0  0  0  0  0  0
   24.2774  -21.2295   -9.4740 C   0  0  0  0  0  0  0  0  0  0  0  0
   25.4188  -20.9167  -10.4051 C   0  0  2  0  0  0  0  0  0  0  0  0
   25.9991  -19.5522  -10.1715 C   0  0  0  0  0  0  0  0  0  0  0  0
   25.0384  -21.0868  -11.8547 C   0  0  2  0  0  0  0  0  0  0  0  0
   26.0187  -20.5226  -12.7505 N   0  0  0  0  0  0  0  0  0  0  0  0
   23.6856  -20.5390  -12.1292 C   0  0  0  0  0  0  0  0  0  0  0  0
   23.5162  -19.3043  -11.9567 O   0  0  0  0  0  0  0  0  0  0  0  0
   22.6060  -21.3394  -12.5678 N   0  0  0  0  0  0  0  0  0  0  0  0
   21.3272  -20.7086  -12.8197 C   0  0  0  0  0  0  0  0  0  0  0  0
   20.2998  -21.3257  -11.9685 C   0  0  0  0  0  0  0  0  0  0  0  0
   19.1518  -20.8460  -11.9358 O   0  0  0  0  0  0  0  0  0  0  0  0
   20.6041  -22.4288  -11.2105 O   0  0  0  0  0  0  0  0  0  0  0  0
  2  1  1  0
  3  2  2  0
  4  3  1  0
  5  4  2  0
  5 11  1  0
  6  5  1  0
  7  8  1  6
  7  6  1  0
  9  7  1  0
 10  9  2  0
 11 12  2  0
 12  2  1  0
 14 13  1  1
 14 15  1  0
 16 17  1  6
 16 14  1  0
 17  9  1  0
 18 16  1  0
 19 18  2  0
 20 18  1  0
 21 20  1  0
 22 24  1  0
 22 21  1  0
 23 22  2  0
M  END
$$$$
