YVG.pdb
     RDKit          3D

 24 24  0  0  1  0  0  0  0  0999 V2000
   27.4073  -29.9137  -17.2689 O   0  0  0  0  0  0  0  0  0  0  0  0
   27.1999  -28.5849  -16.8727 C   0  0  0  0  0  0  0  0  0  0  0  0
   25.9175  -28.1283  -16.8073 C   0  0  0  0  0  0  0  0  0  0  0  0
   25.7030  -26.8035  -16.4127 C   0  0  0  0  0  0  0  0  0  0  0  0
   26.7602  -25.9858  -16.0998 C   0  0  0  0  0  0  0  0  0  0  0  0
   26.5081  -24.5996  -15.6886 C   0  0  0  0  0  0  0  0  0  0  0  0
   25.9650  -23.7488  -16.8281 C   0  0  2  0  0  0  0  0  0  0  0  0
   27.0270  -23.4234  -17.7753 N   0  0  0  0  0  0  0  0  0  0  0  0
   25.4304  -22.5046  -16.2005 C   0  0  0  0  0  0  0  0  0  0  0  0
   26.2316  -21.5652  -15.9976 O   0  0  0  0  0  0  0  0  0  0  0  0
   28.0373  -26.4823  -16.1778 C   0  0  0  0  0  0  0  0  0  0  0  0
   28.2752  -27.7861  -16.5645 C   0  0  0  0  0  0  0  0  0  0  0  0
   21.4599  -21.1122  -16.7194 C   0  0  0  0  0  0  0  0  0  0  0  0
   22.7110  -20.3978  -16.2812 C   0  0  2  0  0  0  0  0  0  0  0  0
   23.5795  -19.9905  -17.4358 C   0  0  0  0  0  0  0  0  0  0  0  0
   23.5062  -21.1975  -15.2796 C   0  0  2  0  0  0  0  0  0  0  0  0
   24.0549  -22.4038  -15.8502 N   0  0  0  0  0  0  0  0  0  0  0  0
   22.7057  -21.4967  -14.0650 C   0  0  0  0  0  0  0  0  0  0  0  0
   22.1167  -22.6075  -14.0202 O   0  0  0  0  0  0  0  0  0  0  0  0
   22.5858  -20.5963  -12.9818 N   0  0  0  0  0  0  0  0  0  0  0  0
   21.6929  -20.9310  -11.8921 C   0  0  0  0  0  0  0  0  0  0  0  0
   20.3289  -20.4947  -12.2240 C   0  0  0  0  0  0  0  0  0  0  0  0
   20.0878  -20.0137  -13.3463 O   0  0  0  0  0  0  0  0  0  0  0  0
   19.3220  -20.6167  -11.2994 O   0  0  0  0  0  0  0  0  0  0  0  0
  2  1  1  0
  3  2  2  0
  4  3  1  0
  5  4  2  0
  5 11  1  0
  6  5  1  0
  7  8  1  6
  7  6  1  0
  9  7  1  0
 10  9  2  0
 11 12  2  0
 12  2  1  0
 14 13  1  6
 14 15  1  0
 16 17  1  6
 16 14  1  0
 17  9  1  0
 18 16  1  0
 19 18  2  0
 20 18  1  0
 21 20  1  0
 22 24  1  0
 22 21  1  0
 23 22  2  0
M  END
$$$$
