YVG.pdb
     RDKit          3D

 24 24  0  0  1  0  0  0  0  0999 V2000
   21.8888  -20.8062   -8.5002 O   0  0  0  0  0  0  0  0  0  0  0  0
   22.8733  -20.6950   -9.4921 C   0  0  0  0  0  0  0  0  0  0  0  0
   24.1739  -20.5984   -9.0966 C   0  0  0  0  0  0  0  0  0  0  0  0
   25.1615  -20.4872  -10.0809 C   0  0  0  0  0  0  0  0  0  0  0  0
   24.8260  -20.4760  -11.4119 C   0  0  0  0  0  0  0  0  0  0  0  0
   25.8814  -20.3583  -12.4250 C   0  0  0  0  0  0  0  0  0  0  0  0
   25.8661  -21.5169  -13.4123 C   0  0  2  0  0  0  0  0  0  0  0  0
   26.2487  -22.7599  -12.7491 N   0  0  0  0  0  0  0  0  0  0  0  0
   26.8545  -21.1708  -14.4757 C   0  0  0  0  0  0  0  0  0  0  0  0
   28.0410  -20.9801  -14.1270 O   0  0  0  0  0  0  0  0  0  0  0  0
   23.5050  -20.5753  -11.7708 C   0  0  0  0  0  0  0  0  0  0  0  0
   22.5117  -20.6861  -10.8183 C   0  0  0  0  0  0  0  0  0  0  0  0
   28.2721  -21.6444  -19.0677 C   0  0  0  0  0  0  0  0  0  0  0  0
   27.7134  -22.0017  -17.7157 C   0  0  2  0  0  0  0  0  0  0  0  0
   26.5174  -22.9046  -17.8039 C   0  0  0  0  0  0  0  0  0  0  0  0
   27.3936  -20.7822  -16.8877 C   0  0  2  0  0  0  0  0  0  0  0  0
   26.4479  -21.0646  -15.8352 N   0  0  0  0  0  0  0  0  0  0  0  0
   26.9282  -19.6560  -17.7366 C   0  0  0  0  0  0  0  0  0  0  0  0
   25.7073  -19.6263  -18.0388 O   0  0  0  0  0  0  0  0  0  0  0  0
   27.7908  -18.6391  -18.2061 N   0  0  0  0  0  0  0  0  0  0  0  0
   27.2329  -17.5597  -18.9935 C   0  0  0  0  0  0  0  0  0  0  0  0
   27.0968  -17.9922  -20.3919 C   0  0  0  0  0  0  0  0  0  0  0  0
   27.4842  -19.1254  -20.7307 O   0  0  0  0  0  0  0  0  0  0  0  0
   26.5438  -17.1494  -21.3233 O   0  0  0  0  0  0  0  0  0  0  0  0
  2  1  1  0
  3  2  2  0
  4  3  1  0
  5  4  2  0
  5 11  1  0
  6  5  1  0
  7  8  1  1
  7  6  1  0
  9  7  1  0
 10  9  2  0
 11 12  2  0
 12  2  1  0
 14 13  1  6
 14 15  1  0
 16 17  1  1
 16 14  1  0
 17  9  1  0
 18 16  1  0
 19 18  2  0
 20 18  1  0
 21 20  1  0
 22 24  1  0
 22 21  1  0
 23 22  2  0
M  END
$$$$
