YHV.pdb
     RDKit          3D

 30 31  0  0  1  0  0  0  0  0999 V2000
   11.8367  -11.7939  -17.9802 O   0  0  0  0  0  0  0  0  0  0  0  0
   13.1141  -11.5050  -17.4969 C   0  0  0  0  0  0  0  0  0  0  0  0
   13.7834  -10.4147  -17.9892 C   0  0  0  0  0  0  0  0  0  0  0  0
   15.0662  -10.0863  -17.5343 C   0  0  0  0  0  0  0  0  0  0  0  0
   15.6931  -10.8536  -16.5758 C   0  0  0  0  0  0  0  0  0  0  0  0
   17.0527  -10.5244  -16.0850 C   0  0  0  0  0  0  0  0  0  0  0  0
   18.1169  -10.6505  -17.1245 C   0  0  2  0  0  0  0  0  0  0  0  0
   18.4761  -12.0551  -17.2202 N   0  0  0  0  0  0  0  0  0  0  0  0
   19.2811   -9.7838  -16.9452 C   0  0  0  0  0  0  0  0  0  0  0  0
   20.2521  -10.1326  -16.2301 O   0  0  0  0  0  0  0  0  0  0  0  0
   15.0032  -11.9534  -16.0874 C   0  0  0  0  0  0  0  0  0  0  0  0
   13.7390  -12.2751  -16.5370 C   0  0  0  0  0  0  0  0  0  0  0  0
   19.3998   -8.4882  -17.5641 N   0  0  0  0  0  0  0  0  0  0  0  0
   20.6022   -7.7031  -17.4128 C   0  0  1  0  0  0  0  0  0  0  0  0
   20.7981   -6.7300  -18.5481 C   0  0  0  0  0  0  0  0  0  0  0  0
   21.3016   -7.3668  -19.7668 C   0  0  0  0  0  0  0  0  0  0  0  0
   22.4264   -8.1479  -19.8644 C   0  0  0  0  0  0  0  0  0  0  0  0
   22.5246   -8.5314  -21.1633 N   0  0  0  0  0  0  0  0  0  0  0  0
   21.5103   -8.0196  -21.8633 C   0  0  0  0  0  0  0  0  0  0  0  0
   20.7638   -7.3044  -20.9932 N   0  0  0  0  0  0  0  0  0  0  0  0
   20.5913   -7.0596  -16.0988 C   0  0  0  0  0  0  0  0  0  0  0  0
   19.5488   -6.5283  -15.6396 O   0  0  0  0  0  0  0  0  0  0  0  0
   21.3465   -8.8753  -13.2429 C   0  0  0  0  0  0  0  0  0  0  0  0
   22.1663   -7.6274  -13.0252 C   0  0  2  0  0  0  0  0  0  0  0  0
   22.1936   -7.1716  -11.6025 C   0  0  0  0  0  0  0  0  0  0  0  0
   21.6851   -6.5251  -13.9468 C   0  0  2  0  0  0  0  0  0  0  0  0
   21.7627   -7.0103  -15.2885 N   0  0  0  0  0  0  0  0  0  0  0  0
   22.4749   -5.2956  -13.8029 C   0  0  0  0  0  0  0  0  0  0  0  0
   23.4045   -5.0417  -14.5994 O   0  0  0  0  0  0  0  0  0  0  0  0
   22.1958   -4.4106  -12.7858 O   0  0  0  0  0  0  0  0  0  0  0  0
  2  1  1  0
  2  3  2  0
  4  3  1  0
  5  4  2  0
  6  5  1  0
  7  9  1  0
  7  6  1  0
  7  8  1  1
  9 10  2  0
 11 12  2  0
 11  5  1  0
 12  2  1  0
 13 14  1  0
 13  9  1  0
 14 15  1  6
 15 16  1  0
 16 17  2  0
 18 17  1  0
 19 18  1  0
 20 19  2  0
 20 16  1  0
 21 14  1  0
 22 21  2  0
 24 23  1  1
 24 25  1  0
 24 26  1  0
 26 27  1  6
 27 21  1  0
 28 26  1  0
 28 30  1  0
 29 28  2  0
M  END
$$$$
