YHV.pdb
     RDKit          3D

 30 31  0  0  1  0  0  0  0  0999 V2000
   33.2196  -22.6358  -10.1684 O   0  0  0  0  0  0  0  0  0  0  0  0
   31.9392  -22.1682  -10.4699 C   0  0  0  0  0  0  0  0  0  0  0  0
   31.3212  -22.6042  -11.6131 C   0  0  0  0  0  0  0  0  0  0  0  0
   30.0376  -22.1625  -11.9561 C   0  0  0  0  0  0  0  0  0  0  0  0
   29.3583  -21.2739  -11.1503 C   0  0  0  0  0  0  0  0  0  0  0  0
   28.0005  -20.7914  -11.4989 C   0  0  0  0  0  0  0  0  0  0  0  0
   27.8197  -20.4938  -12.9507 C   0  0  2  0  0  0  0  0  0  0  0  0
   28.8528  -19.5489  -13.3395 N   0  0  0  0  0  0  0  0  0  0  0  0
   26.4810  -20.0558  -13.3440 C   0  0  0  0  0  0  0  0  0  0  0  0
   26.0804  -18.8888  -13.1126 O   0  0  0  0  0  0  0  0  0  0  0  0
   29.9966  -20.8420   -9.9970 C   0  0  0  0  0  0  0  0  0  0  0  0
   31.2615  -21.2787   -9.6610 C   0  0  0  0  0  0  0  0  0  0  0  0
   25.5379  -20.9144  -14.0142 N   0  0  0  0  0  0  0  0  0  0  0  0
   24.2484  -20.4152  -14.4301 C   0  0  1  0  0  0  0  0  0  0  0  0
   24.0422  -20.5305  -15.9195 C   0  0  0  0  0  0  0  0  0  0  0  0
   24.9881  -19.7226  -16.6920 C   0  0  0  0  0  0  0  0  0  0  0  0
   25.1133  -18.3562  -16.6409 C   0  0  0  0  0  0  0  0  0  0  0  0
   26.1014  -18.0215  -17.5100 N   0  0  0  0  0  0  0  0  0  0  0  0
   26.5853  -19.1218  -18.0895 C   0  0  0  0  0  0  0  0  0  0  0  0
   25.8924  -20.1630  -17.5783 N   0  0  0  0  0  0  0  0  0  0  0  0
   23.2037  -21.0809  -13.6514 C   0  0  0  0  0  0  0  0  0  0  0  0
   23.1961  -22.3287  -13.4999 O   0  0  0  0  0  0  0  0  0  0  0  0
   20.4975  -18.8655  -11.2050 C   0  0  0  0  0  0  0  0  0  0  0  0
   21.0344  -20.2496  -10.9358 C   0  0  2  0  0  0  0  0  0  0  0  0
   22.3128  -20.2542  -10.1625 C   0  0  0  0  0  0  0  0  0  0  0  0
   21.1764  -21.0117  -12.2378 C   0  0  2  0  0  0  0  0  0  0  0  0
   22.1541  -20.3401  -13.0344 N   0  0  0  0  0  0  0  0  0  0  0  0
   19.9053  -21.1098  -12.9663 C   0  0  0  0  0  0  0  0  0  0  0  0
   19.7385  -20.4879  -14.0380 O   0  0  0  0  0  0  0  0  0  0  0  0
   18.8845  -21.8903  -12.4720 O   0  0  0  0  0  0  0  0  0  0  0  0
  2  1  1  0
  2  3  2  0
  4  3  1  0
  5  4  2  0
  6  5  1  0
  7  9  1  0
  7  6  1  0
  7  8  1  1
  9 10  2  0
 11 12  2  0
 11  5  1  0
 12  2  1  0
 13 14  1  0
 13  9  1  0
 14 15  1  6
 15 16  1  0
 16 17  2  0
 18 17  1  0
 19 18  1  0
 20 19  2  0
 20 16  1  0
 21 14  1  0
 22 21  2  0
 24 23  1  6
 24 25  1  0
 24 26  1  0
 26 27  1  6
 27 21  1  0
 28 26  1  0
 28 30  1  0
 29 28  2  0
M  END
$$$$
