YHV.pdb
     RDKit          3D

 30 31  0  0  1  0  0  0  0  0999 V2000
   30.1499  -19.3739  -18.6416 O   0  0  0  0  0  0  0  0  0  0  0  0
   29.5392  -19.2634  -17.3910 C   0  0  0  0  0  0  0  0  0  0  0  0
   28.9994  -18.0608  -17.0156 C   0  0  0  0  0  0  0  0  0  0  0  0
   28.3772  -17.9031  -15.7713 C   0  0  0  0  0  0  0  0  0  0  0  0
   28.2907  -18.9570  -14.8868 C   0  0  0  0  0  0  0  0  0  0  0  0
   27.6398  -18.8082  -13.5631 C   0  0  0  0  0  0  0  0  0  0  0  0
   26.6425  -19.8763  -13.2571 C   0  0  2  0  0  0  0  0  0  0  0  0
   25.6605  -19.8830  -14.3279 N   0  0  0  0  0  0  0  0  0  0  0  0
   26.0283  -19.8063  -11.9318 C   0  0  0  0  0  0  0  0  0  0  0  0
   25.2877  -18.8470  -11.6041 O   0  0  0  0  0  0  0  0  0  0  0  0
   28.8415  -20.1675  -15.2810 C   0  0  0  0  0  0  0  0  0  0  0  0
   29.4541  -20.3206  -16.5078 C   0  0  0  0  0  0  0  0  0  0  0  0
   26.2228  -20.8139  -10.9206 N   0  0  0  0  0  0  0  0  0  0  0  0
   25.6054  -20.6875   -9.6214 C   0  0  1  0  0  0  0  0  0  0  0  0
   24.3412  -21.5015   -9.5059 C   0  0  0  0  0  0  0  0  0  0  0  0
   23.2576  -20.9984  -10.3525 C   0  0  0  0  0  0  0  0  0  0  0  0
   22.2587  -20.1413   -9.9618 C   0  0  0  0  0  0  0  0  0  0  0  0
   21.4726  -19.9353  -11.0496 N   0  0  0  0  0  0  0  0  0  0  0  0
   21.9464  -20.6280  -12.0871 C   0  0  0  0  0  0  0  0  0  0  0  0
   23.0455  -21.2786  -11.6463 N   0  0  0  0  0  0  0  0  0  0  0  0
   26.5922  -21.0075   -8.5895 C   0  0  0  0  0  0  0  0  0  0  0  0
   27.2528  -22.0763   -8.6257 O   0  0  0  0  0  0  0  0  0  0  0  0
   27.8004  -18.1888   -5.6182 C   0  0  0  0  0  0  0  0  0  0  0  0
   28.6082  -19.3713   -6.0932 C   0  0  2  0  0  0  0  0  0  0  0  0
   29.5145  -19.0541   -7.2380 C   0  0  0  0  0  0  0  0  0  0  0  0
   27.6868  -20.5275   -6.4252 C   0  0  2  0  0  0  0  0  0  0  0  0
   26.8424  -20.1196   -7.5032 N   0  0  0  0  0  0  0  0  0  0  0  0
   26.8773  -20.9423   -5.2724 C   0  0  0  0  0  0  0  0  0  0  0  0
   25.6307  -20.8538   -5.3077 O   0  0  0  0  0  0  0  0  0  0  0  0
   27.4882  -21.4333   -4.1405 O   0  0  0  0  0  0  0  0  0  0  0  0
  2  1  1  0
  2  3  2  0
  4  3  1  0
  5  4  2  0
  6  5  1  0
  7  9  1  0
  7  6  1  0
  7  8  1  6
  9 10  2  0
 11 12  2  0
 11  5  1  0
 12  2  1  0
 13 14  1  0
 13  9  1  0
 14 15  1  6
 15 16  1  0
 16 17  2  0
 18 17  1  0
 19 18  1  0
 20 19  2  0
 20 16  1  0
 21 14  1  0
 22 21  2  0
 24 23  1  6
 24 25  1  0
 24 26  1  0
 26 27  1  6
 27 21  1  0
 28 26  1  0
 28 30  1  0
 29 28  2  0
M  END
$$$$
