YHV.pdb
     RDKit          3D

 30 31  0  0  1  0  0  0  0  0999 V2000
   26.7234  -32.7959   -8.8607 O   0  0  0  0  0  0  0  0  0  0  0  0
   26.4954  -32.7542   -7.4840 C   0  0  0  0  0  0  0  0  0  0  0  0
   25.3837  -32.1070   -7.0108 C   0  0  0  0  0  0  0  0  0  0  0  0
   25.1142  -32.0395   -5.6385 C   0  0  0  0  0  0  0  0  0  0  0  0
   25.9629  -32.6244   -4.7230 C   0  0  0  0  0  0  0  0  0  0  0  0
   25.6968  -32.5597   -3.2660 C   0  0  0  0  0  0  0  0  0  0  0  0
   25.1962  -33.8412   -2.6861 C   0  0  2  0  0  0  0  0  0  0  0  0
   23.9503  -34.1720   -3.3566 N   0  0  0  0  0  0  0  0  0  0  0  0
   25.0752  -33.8707   -1.2290 C   0  0  0  0  0  0  0  0  0  0  0  0
   24.1458  -33.2686   -0.6376 O   0  0  0  0  0  0  0  0  0  0  0  0
   27.0835  -33.2757   -5.2172 C   0  0  0  0  0  0  0  0  0  0  0  0
   27.3470  -33.3409   -6.5700 C   0  0  0  0  0  0  0  0  0  0  0  0
   25.9961  -34.5796   -0.3776 N   0  0  0  0  0  0  0  0  0  0  0  0
   25.7485  -34.7033    1.0396 C   0  0  1  0  0  0  0  0  0  0  0  0
   26.4332  -35.9062    1.6383 C   0  0  0  0  0  0  0  0  0  0  0  0
   25.7952  -37.1709    1.2673 C   0  0  0  0  0  0  0  0  0  0  0  0
   24.6141  -37.3090    0.5811 C   0  0  0  0  0  0  0  0  0  0  0  0
   24.3911  -38.6422    0.4511 N   0  0  0  0  0  0  0  0  0  0  0  0
   25.3829  -39.3243    1.0271 C   0  0  0  0  0  0  0  0  0  0  0  0
   26.2415  -38.4082    1.5262 N   0  0  0  0  0  0  0  0  0  0  0  0
   26.1090  -33.4482    1.6997 C   0  0  0  0  0  0  0  0  0  0  0  0
   27.0954  -32.7688    1.3184 O   0  0  0  0  0  0  0  0  0  0  0  0
   23.3845  -31.5968    4.2501 C   0  0  0  0  0  0  0  0  0  0  0  0
   24.4555  -30.8541    3.4898 C   0  0  2  0  0  0  0  0  0  0  0  0
   24.0171  -30.3930    2.1379 C   0  0  0  0  0  0  0  0  0  0  0  0
   25.7093  -31.7006    3.4024 C   0  0  2  0  0  0  0  0  0  0  0  0
   25.3554  -32.9474    2.8008 N   0  0  0  0  0  0  0  0  0  0  0  0
   26.3216  -31.9250    4.7180 C   0  0  0  0  0  0  0  0  0  0  0  0
   26.8238  -30.9735    5.3548 O   0  0  0  0  0  0  0  0  0  0  0  0
   26.3469  -33.1898    5.2612 O   0  0  0  0  0  0  0  0  0  0  0  0
  2  1  1  0
  2  3  2  0
  4  3  1  0
  5  4  2  0
  6  5  1  0
  7  9  1  0
  7  6  1  0
  7  8  1  6
  9 10  2  0
 11 12  2  0
 11  5  1  0
 12  2  1  0
 13 14  1  0
 13  9  1  0
 14 15  1  1
 15 16  1  0
 16 17  2  0
 18 17  1  0
 19 18  1  0
 20 19  2  0
 20 16  1  0
 21 14  1  0
 22 21  2  0
 24 23  1  6
 24 25  1  0
 24 26  1  0
 26 27  1  1
 27 21  1  0
 28 26  1  0
 28 30  1  0
 29 28  2  0
M  END
$$$$
