YHV.pdb
     RDKit          3D

 30 31  0  0  1  0  0  0  0  0999 V2000
   13.3465  -20.4593  -10.5015 O   0  0  0  0  0  0  0  0  0  0  0  0
   14.6682  -20.7467  -10.8472 C   0  0  0  0  0  0  0  0  0  0  0  0
   15.2508  -21.8901  -10.3655 C   0  0  0  0  0  0  0  0  0  0  0  0
   16.5735  -22.2192  -10.6855 C   0  0  0  0  0  0  0  0  0  0  0  0
   17.3284  -21.3990  -11.4966 C   0  0  0  0  0  0  0  0  0  0  0  0
   18.7318  -21.7284  -11.8429 C   0  0  0  0  0  0  0  0  0  0  0  0
   18.9728  -21.8785  -13.3087 C   0  0  2  0  0  0  0  0  0  0  0  0
   18.2010  -23.0206  -13.7681 N   0  0  0  0  0  0  0  0  0  0  0  0
   20.3760  -21.9488  -13.7143 C   0  0  0  0  0  0  0  0  0  0  0  0
   21.1006  -22.9234  -13.3966 O   0  0  0  0  0  0  0  0  0  0  0  0
   16.7250  -20.2459  -11.9763 C   0  0  0  0  0  0  0  0  0  0  0  0
   15.4213  -19.9235  -11.6597 C   0  0  0  0  0  0  0  0  0  0  0  0
   21.0214  -20.9240  -14.4947 N   0  0  0  0  0  0  0  0  0  0  0  0
   22.3838  -21.0847  -14.9454 C   0  0  1  0  0  0  0  0  0  0  0  0
   22.5900  -20.5624  -16.3450 C   0  0  0  0  0  0  0  0  0  0  0  0
   22.1242  -21.4915  -17.3765 C   0  0  0  0  0  0  0  0  0  0  0  0
   21.5811  -22.7336  -17.1592 C   0  0  0  0  0  0  0  0  0  0  0  0
   21.2892  -23.2516  -18.3800 N   0  0  0  0  0  0  0  0  0  0  0  0
   21.6296  -22.3819  -19.3330 C   0  0  0  0  0  0  0  0  0  0  0  0
   22.1426  -21.3019  -18.7036 N   0  0  0  0  0  0  0  0  0  0  0  0
   23.2863  -20.4784  -13.9662 C   0  0  0  0  0  0  0  0  0  0  0  0
   23.0414  -19.3545  -13.4594 O   0  0  0  0  0  0  0  0  0  0  0  0
   26.3890  -20.6666  -10.3980 C   0  0  0  0  0  0  0  0  0  0  0  0
   25.5183  -21.3564  -11.4191 C   0  0  2  0  0  0  0  0  0  0  0  0
   25.9865  -22.7307  -11.7720 C   0  0  0  0  0  0  0  0  0  0  0  0
   25.3813  -20.4881  -12.6533 C   0  0  2  0  0  0  0  0  0  0  0  0
   24.4783  -21.1389  -13.5491 N   0  0  0  0  0  0  0  0  0  0  0  0
   26.6717  -20.2516  -13.3129 C   0  0  0  0  0  0  0  0  0  0  0  0
   26.9521  -20.8309  -14.3847 O   0  0  0  0  0  0  0  0  0  0  0  0
   27.5851  -19.3868  -12.7532 O   0  0  0  0  0  0  0  0  0  0  0  0
  2  1  1  0
  2  3  2  0
  4  3  1  0
  5  4  2  0
  6  5  1  0
  7  9  1  0
  7  6  1  0
  7  8  1  1
  9 10  2  0
 11 12  2  0
 11  5  1  0
 12  2  1  0
 13 14  1  0
 13  9  1  0
 14 15  1  6
 15 16  1  0
 16 17  2  0
 18 17  1  0
 19 18  1  0
 20 19  2  0
 20 16  1  0
 21 14  1  0
 22 21  2  0
 24 23  1  1
 24 25  1  0
 24 26  1  0
 26 27  1  6
 27 21  1  0
 28 26  1  0
 28 30  1  0
 29 28  2  0
M  END
$$$$
