YHV.pdb
     RDKit          3D

 30 31  0  0  1  0  0  0  0  0999 V2000
   44.9912   -9.2565    0.8948 O   0  0  0  0  0  0  0  0  0  0  0  0
   44.5775   -9.1522   -0.4344 C   0  0  0  0  0  0  0  0  0  0  0  0
   43.6555  -10.0434   -0.9186 C   0  0  0  0  0  0  0  0  0  0  0  0
   43.2112   -9.9774   -2.2447 C   0  0  0  0  0  0  0  0  0  0  0  0
   43.6910   -9.0106   -3.1024 C   0  0  0  0  0  0  0  0  0  0  0  0
   43.2361   -8.9274   -4.5109 C   0  0  0  0  0  0  0  0  0  0  0  0
   43.5742  -10.1312   -5.3268 C   0  0  2  0  0  0  0  0  0  0  0  0
   45.0219  -10.2508   -5.3580 N   0  0  0  0  0  0  0  0  0  0  0  0
   42.9777  -10.1779   -6.6612 C   0  0  0  0  0  0  0  0  0  0  0  0
   43.5888   -9.7398   -7.6665 O   0  0  0  0  0  0  0  0  0  0  0  0
   44.6233   -8.1160   -2.5979 C   0  0  0  0  0  0  0  0  0  0  0  0
   45.0597   -8.1830   -1.2906 C   0  0  0  0  0  0  0  0  0  0  0  0
   41.6679  -10.7201   -6.9186 N   0  0  0  0  0  0  0  0  0  0  0  0
   41.1139  -10.7153   -8.2521 C   0  0  1  0  0  0  0  0  0  0  0  0
   40.6890  -12.0908   -8.7012 C   0  0  0  0  0  0  0  0  0  0  0  0
   41.8135  -12.9256   -9.1287 C   0  0  0  0  0  0  0  0  0  0  0  0
   43.1306  -12.5414   -9.1812 C   0  0  0  0  0  0  0  0  0  0  0  0
   43.8330  -13.6135   -9.6295 N   0  0  0  0  0  0  0  0  0  0  0  0
   43.0042  -14.6351   -9.8532 C   0  0  0  0  0  0  0  0  0  0  0  0
   41.7635  -14.2001   -9.5414 N   0  0  0  0  0  0  0  0  0  0  0  0
   40.0347   -9.7295   -8.3182 C   0  0  0  0  0  0  0  0  0  0  0  0
   39.0214   -9.8187   -7.5798 O   0  0  0  0  0  0  0  0  0  0  0  0
   38.2854   -5.4093   -8.8130 C   0  0  0  0  0  0  0  0  0  0  0  0
   39.4494   -6.3688   -8.8436 C   0  0  2  0  0  0  0  0  0  0  0  0
   40.6086   -5.8757   -9.6472 C   0  0  0  0  0  0  0  0  0  0  0  0
   38.9860   -7.7291   -9.3242 C   0  0  2  0  0  0  0  0  0  0  0  0
   40.0907   -8.6296   -9.2228 N   0  0  0  0  0  0  0  0  0  0  0  0
   38.4848   -7.6905  -10.7038 C   0  0  0  0  0  0  0  0  0  0  0  0
   39.1840   -8.1236  -11.6453 O   0  0  0  0  0  0  0  0  0  0  0  0
   37.2364   -7.1750  -10.9708 O   0  0  0  0  0  0  0  0  0  0  0  0
  2  1  1  0
  2  3  2  0
  4  3  1  0
  5  4  2  0
  6  5  1  0
  7  9  1  0
  7  6  1  0
  7  8  1  6
  9 10  2  0
 11 12  2  0
 11  5  1  0
 12  2  1  0
 13 14  1  0
 13  9  1  0
 14 15  1  1
 15 16  1  0
 16 17  2  0
 18 17  1  0
 19 18  1  0
 20 19  2  0
 20 16  1  0
 21 14  1  0
 22 21  2  0
 24 23  1  6
 24 25  1  0
 24 26  1  0
 26 27  1  6
 27 21  1  0
 28 26  1  0
 28 30  1  0
 29 28  2  0
M  END
$$$$
