YHV.pdb
     RDKit          3D

 30 31  0  0  1  0  0  0  0  0999 V2000
   13.4580  -16.8718  -10.1085 O   0  0  0  0  0  0  0  0  0  0  0  0
   13.9317  -15.6778  -10.6551 C   0  0  0  0  0  0  0  0  0  0  0  0
   15.2616  -15.3692  -10.5335 C   0  0  0  0  0  0  0  0  0  0  0  0
   15.7815  -14.1831  -11.0658 C   0  0  0  0  0  0  0  0  0  0  0  0
   14.9666  -13.2903  -11.7287 C   0  0  0  0  0  0  0  0  0  0  0  0
   15.4978  -12.0274  -12.2951 C   0  0  0  0  0  0  0  0  0  0  0  0
   15.5803  -10.9105  -11.3078 C   0  0  2  0  0  0  0  0  0  0  0  0
   14.2328  -10.6351  -10.8393 N   0  0  0  0  0  0  0  0  0  0  0  0
   16.2710   -9.7076  -11.7710 C   0  0  0  0  0  0  0  0  0  0  0  0
   15.6507   -8.7741  -12.3366 O   0  0  0  0  0  0  0  0  0  0  0  0
   13.6234  -13.6166  -11.8436 C   0  0  0  0  0  0  0  0  0  0  0  0
   13.1133  -14.7861  -11.3184 C   0  0  0  0  0  0  0  0  0  0  0  0
   17.6892   -9.5061  -11.6162 N   0  0  0  0  0  0  0  0  0  0  0  0
   18.3486   -8.3800  -12.2344 C   0  0  1  0  0  0  0  0  0  0  0  0
   19.6900   -8.0880  -11.6104 C   0  0  0  0  0  0  0  0  0  0  0  0
   20.4672   -7.1000  -12.3616 C   0  0  0  0  0  0  0  0  0  0  0  0
   21.6276   -7.3424  -13.0543 C   0  0  0  0  0  0  0  0  0  0  0  0
   22.0119   -6.1594  -13.5991 N   0  0  0  0  0  0  0  0  0  0  0  0
   21.1385   -5.2057  -13.2703 C   0  0  0  0  0  0  0  0  0  0  0  0
   20.1918   -5.7963  -12.5083 N   0  0  0  0  0  0  0  0  0  0  0  0
   18.4219   -8.6023  -13.6787 C   0  0  0  0  0  0  0  0  0  0  0  0
   18.7312   -9.7246  -14.1526 O   0  0  0  0  0  0  0  0  0  0  0  0
   15.9363   -8.5736  -16.1333 C   0  0  0  0  0  0  0  0  0  0  0  0
   16.9265   -7.5585  -16.6489 C   0  0  2  0  0  0  0  0  0  0  0  0
   17.0299   -7.5289  -18.1392 C   0  0  0  0  0  0  0  0  0  0  0  0
   18.2807   -7.7850  -16.0079 C   0  0  2  0  0  0  0  0  0  0  0  0
   18.1455   -7.5544  -14.6043 N   0  0  0  0  0  0  0  0  0  0  0  0
   19.3160   -6.9090  -16.5710 C   0  0  0  0  0  0  0  0  0  0  0  0
   19.3246   -5.6867  -16.3084 O   0  0  0  0  0  0  0  0  0  0  0  0
   20.2880   -7.4300  -17.3951 O   0  0  0  0  0  0  0  0  0  0  0  0
  2  1  1  0
  2  3  2  0
  4  3  1  0
  5  4  2  0
  6  5  1  0
  7  9  1  0
  7  6  1  0
  7  8  1  6
  9 10  2  0
 11 12  2  0
 11  5  1  0
 12  2  1  0
 13 14  1  0
 13  9  1  0
 14 15  1  1
 15 16  1  0
 16 17  2  0
 18 17  1  0
 19 18  1  0
 20 19  2  0
 20 16  1  0
 21 14  1  0
 22 21  2  0
 24 23  1  6
 24 25  1  0
 24 26  1  0
 26 27  1  1
 27 21  1  0
 28 26  1  0
 28 30  1  0
 29 28  2  0
M  END
$$$$
