QPE.pdb
     RDKit          3D

 26 26  0  0  1  0  0  0  0  0999 V2000
   24.4819  -13.1552  -21.7905 N   0  0  0  0  0  0  0  0  0  0  0  0
   23.3344  -12.7880  -21.0289 C   0  0  0  0  0  0  0  0  0  0  0  0
   22.3944  -12.2682  -21.6753 O   0  0  0  0  0  0  0  0  0  0  0  0
   23.2258  -12.9928  -19.5914 C   0  0  0  0  0  0  0  0  0  0  0  0
   24.3551  -13.6372  -18.8834 C   0  0  0  0  0  0  0  0  0  0  0  0
   24.2685  -13.7219  -17.3954 C   0  0  2  0  0  0  0  0  0  0  0  0
   23.3515  -14.7808  -17.0178 N   0  0  0  0  0  0  0  0  0  0  0  0
   23.9656  -12.4714  -16.7018 C   0  0  0  0  0  0  0  0  0  0  0  0
   22.8069  -12.4037  -16.1408 O   0  0  0  0  0  0  0  0  0  0  0  0
   24.8240  -11.3710  -16.6037 N   0  0  0  0  0  0  0  0  0  0  0  0
   26.1255  -11.2903  -17.2906 C   0  0  0  0  0  0  0  0  0  0  0  0
   26.9924  -10.7236  -16.1875 C   0  0  0  0  0  0  0  0  0  0  0  0
   26.0653   -9.7324  -15.5124 C   0  0  0  0  0  0  0  0  0  0  0  0
   24.6522  -10.1412  -15.8982 C   0  0  1  0  0  0  0  0  0  0  0  0
   24.0049   -9.0927  -16.7399 C   0  0  0  0  0  0  0  0  0  0  0  0
   24.2442   -9.0879  -17.9768 O   0  0  0  0  0  0  0  0  0  0  0  0
   23.1451   -8.1138  -16.2280 N   0  0  0  0  0  0  0  0  0  0  0  0
   22.3981   -7.1541  -17.1047 C   0  0  1  0  0  0  0  0  0  0  0  0
   21.0131   -7.1320  -16.5617 C   0  0  0  0  0  0  0  0  0  0  0  0
   20.0142   -6.1865  -17.0540 C   0  0  0  0  0  0  0  0  0  0  0  0
   18.7019   -6.2042  -16.4052 C   0  0  0  0  0  0  0  0  0  0  0  0
   17.9112   -7.1692  -16.6146 O   0  0  0  0  0  0  0  0  0  0  0  0
   23.1028   -5.8872  -16.9307 C   0  0  0  0  0  0  0  0  0  0  0  0
   23.9833   -5.7031  -15.8738 O   0  0  0  0  0  0  0  0  0  0  0  0
   18.2787   -5.1952  -15.5545 O   0  0  0  0  0  0  0  0  0  0  0  0
   22.9559   -4.9252  -17.7021 O   0  0  0  0  0  0  0  0  0  0  0  0
  2  1  1  0
  3  2  2  0
  4  2  1  0
  5  6  1  0
  5  4  1  0
  6  8  1  0
  6  7  1  6
  8 10  1  0
  9  8  2  0
 10 11  1  0
 10 14  1  0
 11 12  1  0
 12 13  1  0
 14 13  1  0
 14 15  1  6
 15 16  2  0
 17 15  1  0
 18 17  1  0
 18 19  1  1
 20 21  1  0
 20 19  1  0
 21 25  1  0
 22 21  2  0
 23 18  1  0
 24 23  1  0
 26 23  2  0
M  END
$$$$
