QPE.pdb
     RDKit          3D

 26 26  0  0  1  0  0  0  0  0999 V2000
   24.0102  -22.1939  -13.5596 N   0  0  0  0  0  0  0  0  0  0  0  0
   23.1140  -21.7016  -12.5664 C   0  0  0  0  0  0  0  0  0  0  0  0
   21.9980  -21.3122  -12.9839 O   0  0  0  0  0  0  0  0  0  0  0  0
   23.4402  -21.6444  -11.1486 C   0  0  0  0  0  0  0  0  0  0  0  0
   24.8088  -22.0167  -10.7239 C   0  0  0  0  0  0  0  0  0  0  0  0
   25.7740  -20.9041  -10.4801 C   0  0  2  0  0  0  0  0  0  0  0  0
   25.4042  -20.1911   -9.2719 N   0  0  0  0  0  0  0  0  0  0  0  0
   25.9924  -19.9918  -11.6011 C   0  0  0  0  0  0  0  0  0  0  0  0
   25.3972  -18.8508  -11.5240 O   0  0  0  0  0  0  0  0  0  0  0  0
   26.7841  -20.2613  -12.7225 N   0  0  0  0  0  0  0  0  0  0  0  0
   27.4811  -21.5420  -12.9380 C   0  0  0  0  0  0  0  0  0  0  0  0
   28.8292  -21.0523  -13.4200 C   0  0  0  0  0  0  0  0  0  0  0  0
   28.4606  -19.8651  -14.2875 C   0  0  0  0  0  0  0  0  0  0  0  0
   27.0642  -19.4423  -13.8585 C   0  0  1  0  0  0  0  0  0  0  0  0
   26.0814  -19.6514  -14.9618 C   0  0  0  0  0  0  0  0  0  0  0  0
   25.7579  -20.8325  -15.2576 O   0  0  0  0  0  0  0  0  0  0  0  0
   25.4991  -18.6043  -15.6858 N   0  0  0  0  0  0  0  0  0  0  0  0
   24.3734  -18.8168  -16.6527 C   0  0  1  0  0  0  0  0  0  0  0  0
   23.4852  -17.6361  -16.4778 C   0  0  0  0  0  0  0  0  0  0  0  0
   22.3493  -17.3962  -17.3645 C   0  0  0  0  0  0  0  0  0  0  0  0
   21.0240  -17.3245  -16.7467 C   0  0  0  0  0  0  0  0  0  0  0  0
   20.9145  -17.3811  -15.4877 O   0  0  0  0  0  0  0  0  0  0  0  0
   25.0254  -18.8557  -17.9586 C   0  0  0  0  0  0  0  0  0  0  0  0
   26.3425  -18.4441  -18.1078 O   0  0  0  0  0  0  0  0  0  0  0  0
   19.8622  -17.1927  -17.4909 O   0  0  0  0  0  0  0  0  0  0  0  0
   24.4496  -19.2504  -18.9857 O   0  0  0  0  0  0  0  0  0  0  0  0
  2  1  1  0
  3  2  2  0
  4  2  1  0
  5  6  1  0
  5  4  1  0
  6  8  1  0
  6  7  1  1
  8 10  1  0
  9  8  2  0
 10 11  1  0
 10 14  1  0
 11 12  1  0
 12 13  1  0
 14 13  1  0
 14 15  1  6
 15 16  2  0
 17 15  1  0
 18 17  1  0
 18 19  1  6
 20 21  1  0
 20 19  1  0
 21 25  1  0
 22 21  2  0
 23 18  1  0
 24 23  1  0
 26 23  2  0
M  END
$$$$
