QPE.pdb
     RDKit          3D

 26 26  0  0  1  0  0  0  0  0999 V2000
   26.2434  -17.1552  -15.1809 N   0  0  0  0  0  0  0  0  0  0  0  0
   26.3455  -18.1628  -16.1840 C   0  0  0  0  0  0  0  0  0  0  0  0
   25.4493  -18.1522  -17.0605 O   0  0  0  0  0  0  0  0  0  0  0  0
   27.4114  -19.1540  -16.2205 C   0  0  0  0  0  0  0  0  0  0  0  0
   28.0796  -19.5184  -14.9506 C   0  0  0  0  0  0  0  0  0  0  0  0
   28.0284  -20.9529  -14.5398 C   0  0  2  0  0  0  0  0  0  0  0  0
   28.5466  -21.7868  -15.6079 N   0  0  0  0  0  0  0  0  0  0  0  0
   26.7343  -21.4328  -14.0584 C   0  0  0  0  0  0  0  0  0  0  0  0
   26.1913  -22.3777  -14.7470 O   0  0  0  0  0  0  0  0  0  0  0  0
   26.0613  -20.9531  -12.9296 N   0  0  0  0  0  0  0  0  0  0  0  0
   26.4979  -19.7729  -12.1622 C   0  0  0  0  0  0  0  0  0  0  0  0
   26.3216  -20.2759  -10.7460 C   0  0  0  0  0  0  0  0  0  0  0  0
   25.0473  -21.0913  -10.8393 C   0  0  0  0  0  0  0  0  0  0  0  0
   24.8653  -21.4289  -12.3110 C   0  0  1  0  0  0  0  0  0  0  0  0
   23.6442  -20.7713  -12.8617 C   0  0  0  0  0  0  0  0  0  0  0  0
   23.7085  -19.5499  -13.1642 O   0  0  0  0  0  0  0  0  0  0  0  0
   22.4305  -21.4396  -13.0606 N   0  0  0  0  0  0  0  0  0  0  0  0
   21.2660  -20.8106  -13.7646 C   0  0  1  0  0  0  0  0  0  0  0  0
   20.4382  -21.9522  -14.2391 C   0  0  0  0  0  0  0  0  0  0  0  0
   19.1269  -21.7441  -14.8486 C   0  0  0  0  0  0  0  0  0  0  0  0
   18.7153  -22.6919  -15.8857 C   0  0  0  0  0  0  0  0  0  0  0  0
   18.6348  -23.9246  -15.6132 O   0  0  0  0  0  0  0  0  0  0  0  0
   20.6088  -20.0163  -12.7306 C   0  0  0  0  0  0  0  0  0  0  0  0
   19.8550  -18.8997  -13.0639 O   0  0  0  0  0  0  0  0  0  0  0  0
   18.4013  -22.2936  -17.1755 O   0  0  0  0  0  0  0  0  0  0  0  0
   20.6867  -20.2902  -11.5218 O   0  0  0  0  0  0  0  0  0  0  0  0
  2  1  1  0
  3  2  2  0
  4  2  1  0
  5  6  1  0
  5  4  1  0
  6  8  1  0
  6  7  1  6
  8 10  1  0
  9  8  2  0
 10 11  1  0
 10 14  1  0
 11 12  1  0
 12 13  1  0
 14 13  1  0
 14 15  1  6
 15 16  2  0
 17 15  1  0
 18 17  1  0
 18 19  1  1
 20 21  1  0
 20 19  1  0
 21 25  1  0
 22 21  2  0
 23 18  1  0
 24 23  1  0
 26 23  2  0
M  END
$$$$
