QPE.pdb
     RDKit          3D

 26 26  0  0  1  0  0  0  0  0999 V2000
   20.2841  -12.6373  -22.2750 N   0  0  0  0  0  0  0  0  0  0  0  0
   20.0031  -12.1269  -20.9742 C   0  0  0  0  0  0  0  0  0  0  0  0
   19.1643  -11.1967  -20.9229 O   0  0  0  0  0  0  0  0  0  0  0  0
   20.6292  -12.6330  -19.7609 C   0  0  0  0  0  0  0  0  0  0  0  0
   20.8212  -11.7026  -18.6254 C   0  0  0  0  0  0  0  0  0  0  0  0
   20.6060  -12.2480  -17.2523 C   0  0  2  0  0  0  0  0  0  0  0  0
   19.3846  -13.0304  -17.2222 N   0  0  0  0  0  0  0  0  0  0  0  0
   20.6506  -11.2729  -16.1643 C   0  0  0  0  0  0  0  0  0  0  0  0
   19.5130  -10.9426  -15.6558 O   0  0  0  0  0  0  0  0  0  0  0  0
   21.8119  -10.6894  -15.6467 N   0  0  0  0  0  0  0  0  0  0  0  0
   23.1637  -10.9706  -16.1625 C   0  0  0  0  0  0  0  0  0  0  0  0
   23.9338  -11.1218  -14.8688 C   0  0  0  0  0  0  0  0  0  0  0  0
   23.3157  -10.0546  -13.9875 C   0  0  0  0  0  0  0  0  0  0  0  0
   21.9610   -9.7311  -14.5983 C   0  0  1  0  0  0  0  0  0  0  0  0
   21.9263   -8.3283  -15.1059 C   0  0  0  0  0  0  0  0  0  0  0  0
   22.4999   -8.0742  -16.1985 O   0  0  0  0  0  0  0  0  0  0  0  0
   21.2896   -7.2791  -14.4326 N   0  0  0  0  0  0  0  0  0  0  0  0
   21.1700   -5.9010  -15.0106 C   0  0  1  0  0  0  0  0  0  0  0  0
   19.7287   -5.5534  -14.8865 C   0  0  0  0  0  0  0  0  0  0  0  0
   19.2415   -4.2038  -15.1614 C   0  0  0  0  0  0  0  0  0  0  0  0
   17.8200   -3.9463  -14.9241 C   0  0  0  0  0  0  0  0  0  0  0  0
   17.4617   -3.3053  -13.8940 O   0  0  0  0  0  0  0  0  0  0  0  0
   22.0326   -5.0815  -14.1642 C   0  0  0  0  0  0  0  0  0  0  0  0
   22.3021   -5.4521  -12.8542 O   0  0  0  0  0  0  0  0  0  0  0  0
   16.8304   -4.3781  -15.7930 O   0  0  0  0  0  0  0  0  0  0  0  0
   22.5610   -4.0303  -14.5615 O   0  0  0  0  0  0  0  0  0  0  0  0
  2  1  1  0
  3  2  2  0
  4  2  1  0
  5  6  1  0
  5  4  1  0
  6  8  1  0
  6  7  1  6
  8 10  1  0
  9  8  2  0
 10 11  1  0
 10 14  1  0
 11 12  1  0
 12 13  1  0
 14 13  1  0
 14 15  1  6
 15 16  2  0
 17 15  1  0
 18 17  1  0
 18 19  1  1
 20 21  1  0
 20 19  1  0
 21 25  1  0
 22 21  2  0
 23 18  1  0
 24 23  1  0
 26 23  2  0
M  END
$$$$
