QPE.pdb
     RDKit          3D

 26 26  0  0  1  0  0  0  0  0999 V2000
   25.6881  -15.7362  -14.7919 N   0  0  0  0  0  0  0  0  0  0  0  0
   26.6061  -16.4393  -15.6253 C   0  0  0  0  0  0  0  0  0  0  0  0
   27.3353  -15.7274  -16.3552 O   0  0  0  0  0  0  0  0  0  0  0  0
   26.7189  -17.8908  -15.6493 C   0  0  0  0  0  0  0  0  0  0  0  0
   27.8573  -18.5217  -14.9437 C   0  0  0  0  0  0  0  0  0  0  0  0
   27.9169  -20.0135  -14.9420 C   0  0  2  0  0  0  0  0  0  0  0  0
   28.3606  -20.4872  -16.2395 N   0  0  0  0  0  0  0  0  0  0  0  0
   26.7039  -20.7000  -14.5015 C   0  0  0  0  0  0  0  0  0  0  0  0
   26.1078  -21.4183  -15.3906 O   0  0  0  0  0  0  0  0  0  0  0  0
   26.1591  -20.6364  -13.2146 N   0  0  0  0  0  0  0  0  0  0  0  0
   26.6512  -19.7243  -12.1666 C   0  0  0  0  0  0  0  0  0  0  0  0
   26.6624  -20.6495  -10.9694 C   0  0  0  0  0  0  0  0  0  0  0  0
   25.4103  -21.4779  -11.1779 C   0  0  0  0  0  0  0  0  0  0  0  0
   25.0611  -21.3567  -12.6531 C   0  0  1  0  0  0  0  0  0  0  0  0
   23.7638  -20.6425  -12.8370 C   0  0  0  0  0  0  0  0  0  0  0  0
   23.7482  -19.3894  -12.7069 O   0  0  0  0  0  0  0  0  0  0  0  0
   22.5626  -21.2910  -13.1468 N   0  0  0  0  0  0  0  0  0  0  0  0
   21.3114  -20.5481  -13.5076 C   0  0  1  0  0  0  0  0  0  0  0  0
   21.0575  -20.8881  -14.9336 C   0  0  0  0  0  0  0  0  0  0  0  0
   19.8853  -20.3813  -15.6431 C   0  0  0  0  0  0  0  0  0  0  0  0
   19.7355  -20.7692  -17.0468 C   0  0  0  0  0  0  0  0  0  0  0  0
   20.6186  -21.4888  -17.5967 O   0  0  0  0  0  0  0  0  0  0  0  0
   20.3013  -21.0863  -12.6009 C   0  0  0  0  0  0  0  0  0  0  0  0
   19.1636  -20.3548  -12.2898 O   0  0  0  0  0  0  0  0  0  0  0  0
   18.6495  -20.3794  -17.8147 O   0  0  0  0  0  0  0  0  0  0  0  0
   20.4025  -22.2041  -12.0696 O   0  0  0  0  0  0  0  0  0  0  0  0
  2  1  1  0
  3  2  2  0
  4  2  1  0
  5  6  1  0
  5  4  1  0
  6  8  1  0
  6  7  1  6
  8 10  1  0
  9  8  2  0
 10 11  1  0
 10 14  1  0
 11 12  1  0
 12 13  1  0
 14 13  1  0
 14 15  1  1
 15 16  2  0
 17 15  1  0
 18 17  1  0
 18 19  1  6
 20 21  1  0
 20 19  1  0
 21 25  1  0
 22 21  2  0
 23 18  1  0
 24 23  1  0
 26 23  2  0
M  END
$$$$
