QPE.pdb
     RDKit          3D

 26 26  0  0  1  0  0  0  0  0999 V2000
   19.1497   -9.8622  -20.0086 N   0  0  0  0  0  0  0  0  0  0  0  0
   18.5147  -11.1373  -19.9583 C   0  0  0  0  0  0  0  0  0  0  0  0
   17.5616  -11.3035  -20.7556 O   0  0  0  0  0  0  0  0  0  0  0  0
   18.9237  -12.2026  -19.0540 C   0  0  0  0  0  0  0  0  0  0  0  0
   20.1202  -11.9896  -18.2085 C   0  0  0  0  0  0  0  0  0  0  0  0
   20.0242  -12.3967  -16.7752 C   0  0  2  0  0  0  0  0  0  0  0  0
   18.7149  -12.9645  -16.5142 N   0  0  0  0  0  0  0  0  0  0  0  0
   20.3733  -11.3695  -15.7956 C   0  0  0  0  0  0  0  0  0  0  0  0
   19.3849  -10.8265  -15.1710 O   0  0  0  0  0  0  0  0  0  0  0  0
   21.6721  -10.9465  -15.4933 N   0  0  0  0  0  0  0  0  0  0  0  0
   22.8742  -11.4580  -16.1757 C   0  0  0  0  0  0  0  0  0  0  0  0
   23.8025  -11.6609  -14.9981 C   0  0  0  0  0  0  0  0  0  0  0  0
   23.4871  -10.4685  -14.1170 C   0  0  0  0  0  0  0  0  0  0  0  0
   22.1164   -9.9713  -14.5492 C   0  0  1  0  0  0  0  0  0  0  0  0
   22.2081   -8.6071  -15.1469 C   0  0  0  0  0  0  0  0  0  0  0  0
   22.6640   -8.4968  -16.3162 O   0  0  0  0  0  0  0  0  0  0  0  0
   21.8141   -7.4427  -14.4772 N   0  0  0  0  0  0  0  0  0  0  0  0
   21.7079   -6.1126  -15.1606 C   0  0  1  0  0  0  0  0  0  0  0  0
   20.2490   -5.8908  -15.3504 C   0  0  0  0  0  0  0  0  0  0  0  0
   19.7292   -4.6290  -15.8719 C   0  0  0  0  0  0  0  0  0  0  0  0
   18.2768   -4.5135  -16.0141 C   0  0  0  0  0  0  0  0  0  0  0  0
   17.5368   -5.4947  -15.7144 O   0  0  0  0  0  0  0  0  0  0  0  0
   22.3126   -5.1761  -14.2176 C   0  0  0  0  0  0  0  0  0  0  0  0
   22.8433   -3.9706  -14.6549 O   0  0  0  0  0  0  0  0  0  0  0  0
   17.6632   -3.3567  -16.4681 O   0  0  0  0  0  0  0  0  0  0  0  0
   22.3839   -5.4020  -12.9986 O   0  0  0  0  0  0  0  0  0  0  0  0
  2  1  1  0
  3  2  2  0
  4  2  1  0
  5  6  1  0
  5  4  1  0
  6  8  1  0
  6  7  1  1
  8 10  1  0
  9  8  2  0
 10 11  1  0
 10 14  1  0
 11 12  1  0
 12 13  1  0
 14 13  1  0
 14 15  1  6
 15 16  2  0
 17 15  1  0
 18 17  1  0
 18 19  1  1
 20 21  1  0
 20 19  1  0
 21 25  1  0
 22 21  2  0
 23 18  1  0
 24 23  1  0
 26 23  2  0
M  END
$$$$
