QPE.pdb
     RDKit          3D

 26 26  0  0  1  0  0  0  0  0999 V2000
   12.6901  -16.5683    2.7110 N   0  0  0  0  0  0  0  0  0  0  0  0
   11.9878  -17.5084    1.9019 C   0  0  0  0  0  0  0  0  0  0  0  0
   11.1219  -17.0271    1.1337 O   0  0  0  0  0  0  0  0  0  0  0  0
   12.2376  -18.9424    1.9371 C   0  0  0  0  0  0  0  0  0  0  0  0
   13.3119  -19.4498    2.8206 C   0  0  0  0  0  0  0  0  0  0  0  0
   14.6272  -19.7605    2.1863 C   0  0  2  0  0  0  0  0  0  0  0  0
   14.4843  -20.8949    1.2933 N   0  0  0  0  0  0  0  0  0  0  0  0
   15.7527  -19.9324    3.1030 C   0  0  0  0  0  0  0  0  0  0  0  0
   16.2003  -21.1348    3.2276 O   0  0  0  0  0  0  0  0  0  0  0  0
   16.3653  -18.9091    3.8345 N   0  0  0  0  0  0  0  0  0  0  0  0
   15.8944  -17.5125    3.8317 C   0  0  0  0  0  0  0  0  0  0  0  0
   17.2084  -16.7717    3.7128 C   0  0  0  0  0  0  0  0  0  0  0  0
   18.1347  -17.5963    4.5844 C   0  0  0  0  0  0  0  0  0  0  0  0
   17.4862  -18.9654    4.7177 C   0  0  1  0  0  0  0  0  0  0  0  0
   17.0804  -19.2280    6.1295 C   0  0  0  0  0  0  0  0  0  0  0  0
   16.0052  -18.7205    6.5461 O   0  0  0  0  0  0  0  0  0  0  0  0
   17.8313  -20.0088    7.0161 N   0  0  0  0  0  0  0  0  0  0  0  0
   17.4053  -20.2630    8.4308 C   0  0  1  0  0  0  0  0  0  0  0  0
   17.6468  -21.7142    8.6526 C   0  0  0  0  0  0  0  0  0  0  0  0
   16.7175  -22.7278    8.1595 C   0  0  0  0  0  0  0  0  0  0  0  0
   17.0226  -24.1239    8.4774 C   0  0  0  0  0  0  0  0  0  0  0  0
   17.6983  -24.8194    7.6650 O   0  0  0  0  0  0  0  0  0  0  0  0
   18.2802  -19.4075    9.2275 C   0  0  0  0  0  0  0  0  0  0  0  0
   18.0316  -19.1969   10.5766 O   0  0  0  0  0  0  0  0  0  0  0  0
   16.5998  -24.7296    9.6502 O   0  0  0  0  0  0  0  0  0  0  0  0
   19.2734  -18.8335    8.7519 O   0  0  0  0  0  0  0  0  0  0  0  0
  2  1  1  0
  3  2  2  0
  4  2  1  0
  5  6  1  0
  5  4  1  0
  6  8  1  0
  6  7  1  1
  8 10  1  0
  9  8  2  0
 10 11  1  0
 10 14  1  0
 11 12  1  0
 12 13  1  0
 14 13  1  0
 14 15  1  1
 15 16  2  0
 17 15  1  0
 18 17  1  0
 18 19  1  1
 20 21  1  0
 20 19  1  0
 21 25  1  0
 22 21  2  0
 23 18  1  0
 24 23  1  0
 26 23  2  0
M  END
$$$$
