QPE.pdb
     RDKit          3D

 26 26  0  0  1  0  0  0  0  0999 V2000
   23.4809  -10.5115  -20.4630 N   0  0  0  0  0  0  0  0  0  0  0  0
   22.9201  -11.8144  -20.6030 C   0  0  0  0  0  0  0  0  0  0  0  0
   21.7807  -11.8645  -21.1232 O   0  0  0  0  0  0  0  0  0  0  0  0
   23.6013  -13.0308  -20.1830 C   0  0  0  0  0  0  0  0  0  0  0  0
   24.9584  -12.9150  -19.6028 C   0  0  0  0  0  0  0  0  0  0  0  0
   25.1287  -13.3261  -18.1777 C   0  0  2  0  0  0  0  0  0  0  0  0
   24.6369  -14.6789  -17.9964 N   0  0  0  0  0  0  0  0  0  0  0  0
   24.5770  -12.4118  -17.1797 C   0  0  0  0  0  0  0  0  0  0  0  0
   23.4702  -12.7782  -16.6296 O   0  0  0  0  0  0  0  0  0  0  0  0
   25.1521  -11.1985  -16.7868 N   0  0  0  0  0  0  0  0  0  0  0  0
   26.3872  -10.6539  -17.3788 C   0  0  0  0  0  0  0  0  0  0  0  0
   27.1120  -10.1832  -16.1367 C   0  0  0  0  0  0  0  0  0  0  0  0
   25.9870   -9.6276  -15.2861 C   0  0  0  0  0  0  0  0  0  0  0  0
   24.7050  -10.2494  -15.8179 C   0  0  1  0  0  0  0  0  0  0  0  0
   23.8156   -9.2099  -16.4139 C   0  0  0  0  0  0  0  0  0  0  0  0
   24.0692   -8.8037  -17.5792 O   0  0  0  0  0  0  0  0  0  0  0  0
   22.7137   -8.6619  -15.7468 N   0  0  0  0  0  0  0  0  0  0  0  0
   21.7109   -7.7805  -16.4288 C   0  0  1  0  0  0  0  0  0  0  0  0
   20.4023   -8.4612  -16.2343 C   0  0  0  0  0  0  0  0  0  0  0  0
   19.1507   -7.8522  -16.6780 C   0  0  0  0  0  0  0  0  0  0  0  0
   17.9166   -8.5929  -16.4104 C   0  0  0  0  0  0  0  0  0  0  0  0
   17.9689   -9.7008  -15.8020 O   0  0  0  0  0  0  0  0  0  0  0  0
   21.8079   -6.5097  -15.7164 C   0  0  0  0  0  0  0  0  0  0  0  0
   21.2876   -5.3459  -16.2652 O   0  0  0  0  0  0  0  0  0  0  0  0
   16.6701   -8.1268  -16.7977 O   0  0  0  0  0  0  0  0  0  0  0  0
   22.3500   -6.4025  -14.6043 O   0  0  0  0  0  0  0  0  0  0  0  0
  2  1  1  0
  3  2  2  0
  4  2  1  0
  5  6  1  0
  5  4  1  0
  6  8  1  0
  6  7  1  6
  8 10  1  0
  9  8  2  0
 10 11  1  0
 10 14  1  0
 11 12  1  0
 12 13  1  0
 14 13  1  0
 14 15  1  6
 15 16  2  0
 17 15  1  0
 18 17  1  0
 18 19  1  1
 20 21  1  0
 20 19  1  0
 21 25  1  0
 22 21  2  0
 23 18  1  0
 24 23  1  0
 26 23  2  0
M  END
$$$$
