TWH.pdb
     RDKit          3D

 32 34  0  0  1  0  0  0  0  0999 V2000
    6.4252  -15.3829   18.5848 C   0  0  0  0  0  0  0  0  0  0  0  0
    7.5668  -15.4025   19.5884 C   0  0  1  0  0  0  0  0  0  0  0  0
    8.7867  -15.2608   18.9468 O   0  0  0  0  0  0  0  0  0  0  0  0
    7.3184  -14.2888   20.5858 C   0  0  2  0  0  0  0  0  0  0  0  0
    7.4110  -12.9906   19.9312 N   0  0  0  0  0  0  0  0  0  0  0  0
    8.3233  -14.4159   21.6666 C   0  0  0  0  0  0  0  0  0  0  0  0
    9.3704  -13.7083   21.6925 O   0  0  0  0  0  0  0  0  0  0  0  0
    8.1235  -15.3390   22.6959 N   0  0  0  0  0  0  0  0  0  0  0  0
    9.0516  -15.4272   23.8597 C   0  0  1  0  0  0  0  0  0  0  0  0
    8.1978  -15.8288   24.9936 C   0  0  0  0  0  0  0  0  0  0  0  0
    7.0744  -14.9634   25.3627 C   0  0  0  0  0  0  0  0  0  0  0  0
    5.7105  -15.1433   25.3466 C   0  0  0  0  0  0  0  0  0  0  0  0
    5.0839  -14.0447   25.7830 N   0  0  0  0  0  0  0  0  0  0  0  0
    6.0160  -13.1296   26.0918 C   0  0  0  0  0  0  0  0  0  0  0  0
    5.9156  -11.8328   26.5981 C   0  0  0  0  0  0  0  0  0  0  0  0
    7.0276  -11.0746   26.8561 C   0  0  0  0  0  0  0  0  0  0  0  0
    8.2868  -11.6102   26.6070 C   0  0  0  0  0  0  0  0  0  0  0  0
    8.3639  -12.8991   26.1042 C   0  0  0  0  0  0  0  0  0  0  0  0
    7.2620  -13.6666   25.8424 C   0  0  0  0  0  0  0  0  0  0  0  0
   10.2044  -16.2044   23.4979 C   0  0  0  0  0  0  0  0  0  0  0  0
   10.0252  -17.3748   23.0032 O   0  0  0  0  0  0  0  0  0  0  0  0
   11.5671  -15.8634   23.5977 N   0  0  0  0  0  0  0  0  0  0  0  0
   12.6612  -16.7645   23.3624 C   0  0  1  0  0  0  0  0  0  0  0  0
   13.9320  -16.1232   22.9758 C   0  0  0  0  0  0  0  0  0  0  0  0
   13.8455  -15.3966   21.6969 C   0  0  0  0  0  0  0  0  0  0  0  0
   12.8710  -15.6098   20.6959 C   0  0  0  0  0  0  0  0  0  0  0  0
   13.0831  -14.7823   19.6663 N   0  0  0  0  0  0  0  0  0  0  0  0
   14.1495  -14.0451   19.9569 C   0  0  0  0  0  0  0  0  0  0  0  0
   14.5928  -14.4207   21.1671 N   0  0  0  0  0  0  0  0  0  0  0  0
   12.8613  -17.5081   24.6126 C   0  0  0  0  0  0  0  0  0  0  0  0
   12.0251  -17.2487   25.6970 O   0  0  0  0  0  0  0  0  0  0  0  0
   13.7326  -18.3765   24.8188 O   0  0  0  0  0  0  0  0  0  0  0  0
  2  1  1  6
  3  2  1  0
  4  5  1  6
  4  2  1  0
  6  4  1  0
  7  6  2  0
  8  6  1  0
  9  8  1  0
  9 10  1  1
 11 10  1  0
 11 12  2  0
 13 12  1  0
 14 13  1  0
 15 14  2  0
 16 15  1  0
 17 16  2  0
 17 18  1  0
 18 19  2  0
 19 14  1  0
 19 11  1  0
 20  9  1  0
 20 21  2  0
 22 20  1  0
 23 22  1  0
 23 24  1  1
 25 24  1  0
 25 26  2  0
 27 26  1  0
 28 27  1  0
 29 28  2  0
 29 25  1  0
 30 23  1  0
 31 30  1  0
 32 30  2  0
M  END
$$$$
