TWH.pdb
     RDKit          3D

 32 34  0  0  1  0  0  0  0  0999 V2000
   10.3627  -18.2241   17.6215 C   0  0  0  0  0  0  0  0  0  0  0  0
   10.2868  -17.8848   19.1015 C   0  0  1  0  0  0  0  0  0  0  0  0
   11.2834  -18.5400   19.8067 O   0  0  0  0  0  0  0  0  0  0  0  0
   10.3968  -16.3790   19.2319 C   0  0  2  0  0  0  0  0  0  0  0  0
   11.6613  -15.9121   18.6792 N   0  0  0  0  0  0  0  0  0  0  0  0
   10.2831  -16.0391   20.6692 C   0  0  0  0  0  0  0  0  0  0  0  0
   11.3013  -15.8475   21.3934 O   0  0  0  0  0  0  0  0  0  0  0  0
    9.0216  -15.9217   21.2576 N   0  0  0  0  0  0  0  0  0  0  0  0
    8.8597  -15.6371   22.7124 C   0  0  1  0  0  0  0  0  0  0  0  0
    7.4932  -15.0966   22.8412 C   0  0  0  0  0  0  0  0  0  0  0  0
    6.9920  -14.7774   24.1807 C   0  0  0  0  0  0  0  0  0  0  0  0
    6.3894  -15.5344   25.1588 C   0  0  0  0  0  0  0  0  0  0  0  0
    6.1054  -14.7837   26.2293 N   0  0  0  0  0  0  0  0  0  0  0  0
    6.5125  -13.5298   25.9773 C   0  0  0  0  0  0  0  0  0  0  0  0
    6.4727  -12.3659   26.7467 C   0  0  0  0  0  0  0  0  0  0  0  0
    6.9726  -11.1787   26.2792 C   0  0  0  0  0  0  0  0  0  0  0  0
    7.5329  -11.1324   25.0070 C   0  0  0  0  0  0  0  0  0  0  0  0
    7.5620  -12.2990   24.2599 C   0  0  0  0  0  0  0  0  0  0  0  0
    7.0667  -13.4905   24.7147 C   0  0  0  0  0  0  0  0  0  0  0  0
    9.2704  -16.7829   23.4754 C   0  0  0  0  0  0  0  0  0  0  0  0
    9.5591  -17.8657   22.8501 O   0  0  0  0  0  0  0  0  0  0  0  0
    9.4218  -16.9082   24.8699 N   0  0  0  0  0  0  0  0  0  0  0  0
   10.5656  -17.4784   25.5264 C   0  0  1  0  0  0  0  0  0  0  0  0
   11.8536  -16.8254   25.2257 C   0  0  0  0  0  0  0  0  0  0  0  0
   12.5901  -17.4803   24.1302 C   0  0  0  0  0  0  0  0  0  0  0  0
   12.1158  -18.5613   23.3534 C   0  0  0  0  0  0  0  0  0  0  0  0
   13.0349  -18.9121   22.4468 N   0  0  0  0  0  0  0  0  0  0  0  0
   14.0804  -18.1072   22.6030 C   0  0  0  0  0  0  0  0  0  0  0  0
   13.8024  -17.2607   23.6072 N   0  0  0  0  0  0  0  0  0  0  0  0
   10.3058  -17.3826   26.9684 C   0  0  0  0  0  0  0  0  0  0  0  0
    9.7071  -16.2302   27.4744 O   0  0  0  0  0  0  0  0  0  0  0  0
   10.5755  -18.2510   27.8222 O   0  0  0  0  0  0  0  0  0  0  0  0
  2  1  1  6
  3  2  1  0
  4  5  1  1
  4  2  1  0
  6  4  1  0
  7  6  2  0
  8  6  1  0
  9  8  1  0
  9 10  1  6
 11 10  1  0
 11 12  2  0
 13 12  1  0
 14 13  1  0
 15 14  2  0
 16 15  1  0
 17 16  2  0
 17 18  1  0
 18 19  2  0
 19 14  1  0
 19 11  1  0
 20  9  1  0
 20 21  2  0
 22 20  1  0
 23 22  1  0
 23 24  1  1
 25 24  1  0
 25 26  2  0
 27 26  1  0
 28 27  1  0
 29 28  2  0
 29 25  1  0
 30 23  1  0
 31 30  1  0
 32 30  2  0
M  END
$$$$
