TWH.pdb
     RDKit          3D

 32 34  0  0  1  0  0  0  0  0999 V2000
    6.1289  -19.2302   19.3399 C   0  0  0  0  0  0  0  0  0  0  0  0
    7.0847  -18.7850   20.4350 C   0  0  1  0  0  0  0  0  0  0  0  0
    8.0775  -19.7307   20.6341 O   0  0  0  0  0  0  0  0  0  0  0  0
    7.6553  -17.4418   20.0261 C   0  0  2  0  0  0  0  0  0  0  0  0
    8.4669  -17.5793   18.8241 N   0  0  0  0  0  0  0  0  0  0  0  0
    8.4594  -16.9273   21.1587 C   0  0  0  0  0  0  0  0  0  0  0  0
    9.7044  -17.1297   21.2411 O   0  0  0  0  0  0  0  0  0  0  0  0
    7.8402  -16.1941   22.1738 N   0  0  0  0  0  0  0  0  0  0  0  0
    8.5811  -15.7686   23.3959 C   0  0  1  0  0  0  0  0  0  0  0  0
    7.8814  -14.5550   23.8580 C   0  0  0  0  0  0  0  0  0  0  0  0
    8.1181  -14.0912   25.2277 C   0  0  0  0  0  0  0  0  0  0  0  0
    9.1215  -14.3341   26.1371 C   0  0  0  0  0  0  0  0  0  0  0  0
    8.8947  -13.6738   27.2784 N   0  0  0  0  0  0  0  0  0  0  0  0
    7.7478  -12.9900   27.1420 C   0  0  0  0  0  0  0  0  0  0  0  0
    7.0636  -12.1373   28.0097 C   0  0  0  0  0  0  0  0  0  0  0  0
    5.8941  -11.5254   27.6412 C   0  0  0  0  0  0  0  0  0  0  0  0
    5.3762  -11.7600   26.3719 C   0  0  0  0  0  0  0  0  0  0  0  0
    6.0710  -12.6099   25.5265 C   0  0  0  0  0  0  0  0  0  0  0  0
    7.2394  -13.2269   25.8817 C   0  0  0  0  0  0  0  0  0  0  0  0
    8.7523  -16.8948   24.2712 C   0  0  0  0  0  0  0  0  0  0  0  0
    7.7179  -17.5791   24.6010 O   0  0  0  0  0  0  0  0  0  0  0  0
    9.9366  -17.3960   24.8455 N   0  0  0  0  0  0  0  0  0  0  0  0
   10.0050  -18.5039   25.7577 C   0  0  1  0  0  0  0  0  0  0  0  0
   11.1285  -19.4334   25.5348 C   0  0  0  0  0  0  0  0  0  0  0  0
   11.0518  -20.1302   24.2387 C   0  0  0  0  0  0  0  0  0  0  0  0
    9.8790  -20.3085   23.4707 C   0  0  0  0  0  0  0  0  0  0  0  0
   10.1627  -20.9836   22.3511 N   0  0  0  0  0  0  0  0  0  0  0  0
   11.4645  -21.2492   22.3615 C   0  0  0  0  0  0  0  0  0  0  0  0
   11.9808  -20.7361   23.4895 N   0  0  0  0  0  0  0  0  0  0  0  0
   10.1215  -17.9263   27.1026 C   0  0  0  0  0  0  0  0  0  0  0  0
   10.1408  -18.7770   28.2065 O   0  0  0  0  0  0  0  0  0  0  0  0
   10.2047  -16.7120   27.3754 O   0  0  0  0  0  0  0  0  0  0  0  0
  2  1  1  6
  3  2  1  0
  4  5  1  6
  4  2  1  0
  6  4  1  0
  7  6  2  0
  8  6  1  0
  9  8  1  0
  9 10  1  1
 11 10  1  0
 11 12  2  0
 13 12  1  0
 14 13  1  0
 15 14  2  0
 16 15  1  0
 17 16  2  0
 17 18  1  0
 18 19  2  0
 19 14  1  0
 19 11  1  0
 20  9  1  0
 20 21  2  0
 22 20  1  0
 23 22  1  0
 23 24  1  6
 25 24  1  0
 25 26  2  0
 27 26  1  0
 28 27  1  0
 29 28  2  0
 29 25  1  0
 30 23  1  0
 31 30  1  0
 32 30  2  0
M  END
$$$$
