TWH.pdb
     RDKit          3D

 32 34  0  0  1  0  0  0  0  0999 V2000
    8.3422  -17.1094   19.5799 C   0  0  0  0  0  0  0  0  0  0  0  0
    8.1587  -15.6564   19.1723 C   0  0  1  0  0  0  0  0  0  0  0  0
    7.4586  -15.5659   17.9801 O   0  0  0  0  0  0  0  0  0  0  0  0
    7.4415  -14.9504   20.3055 C   0  0  2  0  0  0  0  0  0  0  0  0
    7.0285  -13.6159   19.8922 N   0  0  0  0  0  0  0  0  0  0  0  0
    8.3675  -14.8903   21.4602 C   0  0  0  0  0  0  0  0  0  0  0  0
    9.3433  -14.0876   21.4934 O   0  0  0  0  0  0  0  0  0  0  0  0
    8.1707  -15.7376   22.5532 N   0  0  0  0  0  0  0  0  0  0  0  0
    9.0308  -15.6600   23.7688 C   0  0  1  0  0  0  0  0  0  0  0  0
    8.1514  -16.0699   24.8800 C   0  0  0  0  0  0  0  0  0  0  0  0
    7.0794  -15.1606   25.2940 C   0  0  0  0  0  0  0  0  0  0  0  0
    5.7133  -15.3017   25.3769 C   0  0  0  0  0  0  0  0  0  0  0  0
    5.1476  -14.1716   25.8161 N   0  0  0  0  0  0  0  0  0  0  0  0
    6.1227  -13.2740   26.0287 C   0  0  0  0  0  0  0  0  0  0  0  0
    6.0917  -11.9589   26.4949 C   0  0  0  0  0  0  0  0  0  0  0  0
    7.2385  -11.2249   26.6501 C   0  0  0  0  0  0  0  0  0  0  0  0
    8.4629  -11.8045   26.3349 C   0  0  0  0  0  0  0  0  0  0  0  0
    8.4711  -13.1110   25.8735 C   0  0  0  0  0  0  0  0  0  0  0  0
    7.3338  -13.8547   25.7142 C   0  0  0  0  0  0  0  0  0  0  0  0
   10.2713  -16.3422   23.5250 C   0  0  0  0  0  0  0  0  0  0  0  0
   10.2334  -17.5382   23.0612 O   0  0  0  0  0  0  0  0  0  0  0  0
   11.5874  -15.8787   23.7159 N   0  0  0  0  0  0  0  0  0  0  0  0
   12.7761  -16.6330   23.4291 C   0  0  1  0  0  0  0  0  0  0  0  0
   14.0192  -15.8426   23.3529 C   0  0  0  0  0  0  0  0  0  0  0  0
   15.2024  -16.6589   23.0286 C   0  0  0  0  0  0  0  0  0  0  0  0
   15.1942  -18.0464   22.7609 C   0  0  0  0  0  0  0  0  0  0  0  0
   16.4366  -18.4710   22.5045 N   0  0  0  0  0  0  0  0  0  0  0  0
   17.2461  -17.4213   22.5945 C   0  0  0  0  0  0  0  0  0  0  0  0
   16.4991  -16.3504   22.9066 N   0  0  0  0  0  0  0  0  0  0  0  0
   12.9056  -17.6260   24.5030 C   0  0  0  0  0  0  0  0  0  0  0  0
   13.8278  -18.6614   24.3615 O   0  0  0  0  0  0  0  0  0  0  0  0
   12.2536  -17.6467   25.5661 O   0  0  0  0  0  0  0  0  0  0  0  0
  2  1  1  1
  3  2  1  0
  4  5  1  6
  4  2  1  0
  6  4  1  0
  7  6  2  0
  8  6  1  0
  9  8  1  0
  9 10  1  1
 11 10  1  0
 11 12  2  0
 13 12  1  0
 14 13  1  0
 15 14  2  0
 16 15  1  0
 17 16  2  0
 17 18  1  0
 18 19  2  0
 19 14  1  0
 19 11  1  0
 20  9  1  0
 20 21  2  0
 22 20  1  0
 23 22  1  0
 23 24  1  1
 25 24  1  0
 25 26  2  0
 27 26  1  0
 28 27  1  0
 29 28  2  0
 29 25  1  0
 30 23  1  0
 31 30  1  0
 32 30  2  0
M  END
$$$$
