TWH.pdb
     RDKit          3D

 32 34  0  0  1  0  0  0  0  0999 V2000
    6.6224  -18.2908   19.4601 C   0  0  0  0  0  0  0  0  0  0  0  0
    7.6846  -17.8643   20.4606 C   0  0  1  0  0  0  0  0  0  0  0  0
    8.9161  -17.7282   19.8406 O   0  0  0  0  0  0  0  0  0  0  0  0
    7.2224  -16.5672   21.0936 C   0  0  2  0  0  0  0  0  0  0  0  0
    7.1358  -15.5147   20.0899 N   0  0  0  0  0  0  0  0  0  0  0  0
    8.1892  -16.2128   22.1584 C   0  0  0  0  0  0  0  0  0  0  0  0
    9.1550  -15.4247   21.9492 O   0  0  0  0  0  0  0  0  0  0  0  0
    8.0437  -16.7556   23.4374 N   0  0  0  0  0  0  0  0  0  0  0  0
    8.9749  -16.4039   24.5477 C   0  0  1  0  0  0  0  0  0  0  0  0
    8.1168  -16.3083   25.7438 C   0  0  0  0  0  0  0  0  0  0  0  0
    7.1450  -15.2142   25.8204 C   0  0  0  0  0  0  0  0  0  0  0  0
    5.7755  -15.1693   25.6966 C   0  0  0  0  0  0  0  0  0  0  0  0
    5.3285  -13.9171   25.8461 N   0  0  0  0  0  0  0  0  0  0  0  0
    6.3866  -13.1220   26.0692 C   0  0  0  0  0  0  0  0  0  0  0  0
    6.4868  -11.7498   26.3039 C   0  0  0  0  0  0  0  0  0  0  0  0
    7.6966  -11.1458   26.5262 C   0  0  0  0  0  0  0  0  0  0  0  0
    8.8528  -11.9189   26.5176 C   0  0  0  0  0  0  0  0  0  0  0  0
    8.7309  -13.2790   26.2824 C   0  0  0  0  0  0  0  0  0  0  0  0
    7.5296  -13.8944   26.0592 C   0  0  0  0  0  0  0  0  0  0  0  0
   10.1063  -17.2889   24.5253 C   0  0  0  0  0  0  0  0  0  0  0  0
    9.9013  -18.5432   24.3479 O   0  0  0  0  0  0  0  0  0  0  0  0
   11.4731  -16.9798   24.6656 N   0  0  0  0  0  0  0  0  0  0  0  0
   12.5414  -17.9404   24.6434 C   0  0  1  0  0  0  0  0  0  0  0  0
   13.8676  -17.3979   24.2933 C   0  0  0  0  0  0  0  0  0  0  0  0
   13.9015  -16.7744   22.9586 C   0  0  0  0  0  0  0  0  0  0  0  0
   13.0061  -17.0503   21.9007 C   0  0  0  0  0  0  0  0  0  0  0  0
   13.3197  -16.3114   20.8304 N   0  0  0  0  0  0  0  0  0  0  0  0
   14.3763  -15.5716   21.1491 C   0  0  0  0  0  0  0  0  0  0  0  0
   14.7118  -15.8568   22.4173 N   0  0  0  0  0  0  0  0  0  0  0  0
   12.6028  -18.5225   25.9900 C   0  0  0  0  0  0  0  0  0  0  0  0
   11.7486  -18.0365   26.9783 O   0  0  0  0  0  0  0  0  0  0  0  0
   13.3668  -19.4361   26.3607 O   0  0  0  0  0  0  0  0  0  0  0  0
  2  1  1  6
  3  2  1  0
  4  5  1  6
  4  2  1  0
  6  4  1  0
  7  6  2  0
  8  6  1  0
  9  8  1  0
  9 10  1  1
 11 10  1  0
 11 12  2  0
 13 12  1  0
 14 13  1  0
 15 14  2  0
 16 15  1  0
 17 16  2  0
 17 18  1  0
 18 19  2  0
 19 14  1  0
 19 11  1  0
 20  9  1  0
 20 21  2  0
 22 20  1  0
 23 22  1  0
 23 24  1  1
 25 24  1  0
 25 26  2  0
 27 26  1  0
 28 27  1  0
 29 28  2  0
 29 25  1  0
 30 23  1  0
 31 30  1  0
 32 30  2  0
M  END
$$$$
