TWH.pdb
     RDKit          3D

 32 34  0  0  1  0  0  0  0  0999 V2000
    9.0209  -18.5827   17.4455 C   0  0  0  0  0  0  0  0  0  0  0  0
    9.2938  -17.9661   18.8080 C   0  0  1  0  0  0  0  0  0  0  0  0
   10.5994  -18.2084   19.2036 O   0  0  0  0  0  0  0  0  0  0  0  0
    8.9984  -16.4831   18.7065 C   0  0  2  0  0  0  0  0  0  0  0  0
    9.8701  -15.8578   17.7208 N   0  0  0  0  0  0  0  0  0  0  0  0
    9.1958  -15.8888   20.0489 C   0  0  0  0  0  0  0  0  0  0  0  0
   10.2905  -15.3566   20.3900 O   0  0  0  0  0  0  0  0  0  0  0  0
    8.1521  -15.9073   20.9771 N   0  0  0  0  0  0  0  0  0  0  0  0
    8.3466  -15.4509   22.3833 C   0  0  1  0  0  0  0  0  0  0  0  0
    6.9867  -15.1666   22.8793 C   0  0  0  0  0  0  0  0  0  0  0  0
    6.7902  -15.0004   24.3218 C   0  0  0  0  0  0  0  0  0  0  0  0
    6.3747  -15.8581   25.3142 C   0  0  0  0  0  0  0  0  0  0  0  0
    6.3519  -15.2351   26.4980 N   0  0  0  0  0  0  0  0  0  0  0  0
    6.7487  -13.9670   26.3080 C   0  0  0  0  0  0  0  0  0  0  0  0
    6.9186  -12.9021   27.1941 C   0  0  0  0  0  0  0  0  0  0  0  0
    7.3582  -11.6763   26.7677 C   0  0  0  0  0  0  0  0  0  0  0  0
    7.6416  -11.4886   25.4190 C   0  0  0  0  0  0  0  0  0  0  0  0
    7.4658  -12.5586   24.5565 C   0  0  0  0  0  0  0  0  0  0  0  0
    7.0279  -13.7873   24.9691 C   0  0  0  0  0  0  0  0  0  0  0  0
    9.2016  -16.3751   23.0752 C   0  0  0  0  0  0  0  0  0  0  0  0
    9.0144  -17.6327   22.9014 O   0  0  0  0  0  0  0  0  0  0  0  0
   10.2712  -16.1044   23.9503 N   0  0  0  0  0  0  0  0  0  0  0  0
   11.1316  -17.0974   24.5316 C   0  0  1  0  0  0  0  0  0  0  0  0
   12.5615  -16.7391   24.5817 C   0  0  0  0  0  0  0  0  0  0  0  0
   13.4031  -17.8042   25.1549 C   0  0  0  0  0  0  0  0  0  0  0  0
   13.0591  -19.1730   25.2266 C   0  0  0  0  0  0  0  0  0  0  0  0
   14.0477  -19.8642   25.8051 N   0  0  0  0  0  0  0  0  0  0  0  0
   15.0136  -19.0043   26.1100 C   0  0  0  0  0  0  0  0  0  0  0  0
   14.6172  -17.7832   25.7179 N   0  0  0  0  0  0  0  0  0  0  0  0
   10.6451  -17.3172   25.8995 C   0  0  0  0  0  0  0  0  0  0  0  0
    9.5597  -16.5744   26.3607 O   0  0  0  0  0  0  0  0  0  0  0  0
   11.1171  -18.1237   26.7258 O   0  0  0  0  0  0  0  0  0  0  0  0
  2  1  1  6
  3  2  1  0
  4  5  1  6
  4  2  1  0
  6  4  1  0
  7  6  2  0
  8  6  1  0
  9  8  1  0
  9 10  1  1
 11 10  1  0
 11 12  2  0
 13 12  1  0
 14 13  1  0
 15 14  2  0
 16 15  1  0
 17 16  2  0
 17 18  1  0
 18 19  2  0
 19 14  1  0
 19 11  1  0
 20  9  1  0
 20 21  2  0
 22 20  1  0
 23 22  1  0
 23 24  1  1
 25 24  1  0
 25 26  2  0
 27 26  1  0
 28 27  1  0
 29 28  2  0
 29 25  1  0
 30 23  1  0
 31 30  1  0
 32 30  2  0
M  END
$$$$
