AEF.pdb
     RDKit          3D

 26 26  0  0  1  0  0  0  0  0999 V2000
   29.4951  -19.7747  -13.5813 C   0  0  0  0  0  0  0  0  0  0  0  0
   28.3759  -20.0509  -14.5570 C   0  0  2  0  0  0  0  0  0  0  0  0
   28.3988  -19.1177  -15.6601 N   0  0  0  0  0  0  0  0  0  0  0  0
   27.0760  -19.8968  -13.8531 C   0  0  0  0  0  0  0  0  0  0  0  0
   26.5985  -18.7493  -13.6607 O   0  0  0  0  0  0  0  0  0  0  0  0
   26.3477  -21.0411  -13.3839 N   0  0  0  0  0  0  0  0  0  0  0  0
   25.0846  -20.8041  -12.7196 C   0  0  1  0  0  0  0  0  0  0  0  0
   23.9118  -21.3899  -13.4693 C   0  0  0  0  0  0  0  0  0  0  0  0
   23.1597  -20.3290  -14.2398 C   0  0  0  0  0  0  0  0  0  0  0  0
   23.9405  -19.9056  -15.4240 C   0  0  0  0  0  0  0  0  0  0  0  0
   24.6367  -20.6885  -16.1266 O   0  0  0  0  0  0  0  0  0  0  0  0
   25.1254  -21.3097  -11.3123 C   0  0  0  0  0  0  0  0  0  0  0  0
   25.6336  -22.4441  -11.1057 O   0  0  0  0  0  0  0  0  0  0  0  0
   23.9199  -18.5731  -15.8021 O   0  0  0  0  0  0  0  0  0  0  0  0
   24.6000  -20.5128  -10.2626 N   0  0  0  0  0  0  0  0  0  0  0  0
   24.5543  -21.0155   -8.8860 C   0  0  1  0  0  0  0  0  0  0  0  0
   24.9277  -19.8670   -8.0037 C   0  0  0  0  0  0  0  0  0  0  0  0
   26.3369  -19.7771   -7.6356 C   0  0  0  0  0  0  0  0  0  0  0  0
   27.0807  -18.6297   -7.8788 C   0  0  0  0  0  0  0  0  0  0  0  0
   28.4070  -18.6066   -7.5105 C   0  0  0  0  0  0  0  0  0  0  0  0
   29.0135  -19.6887   -6.9090 C   0  0  0  0  0  0  0  0  0  0  0  0
   28.2607  -20.8422   -6.6657 C   0  0  0  0  0  0  0  0  0  0  0  0
   26.9327  -20.8762   -7.0302 C   0  0  0  0  0  0  0  0  0  0  0  0
   23.2120  -21.5444   -8.6486 C   0  0  0  0  0  0  0  0  0  0  0  0
   23.0035  -22.4142   -7.5938 O   0  0  0  0  0  0  0  0  0  0  0  0
   22.2406  -21.2361   -9.3704 O   0  0  0  0  0  0  0  0  0  0  0  0
  2  4  1  0
  2  1  1  1
  3  2  1  0
  4  5  2  0
  6  7  1  0
  6  4  1  0
  7  8  1  6
  8  9  1  0
  9 10  1  0
 10 14  1  0
 11 10  2  0
 12 13  2  0
 12  7  1  0
 15 12  1  0
 16 24  1  0
 16 15  1  0
 16 17  1  1
 18 23  2  0
 18 17  1  0
 19 18  1  0
 20 21  1  0
 20 19  2  0
 21 22  2  0
 22 23  1  0
 24 25  1  0
 26 24  2  0
M  END
$$$$
