AEF.pdb
     RDKit          3D

 26 26  0  0  1  0  0  0  0  0999 V2000
   18.4857  -12.2424  -17.1807 C   0  0  0  0  0  0  0  0  0  0  0  0
   18.4029  -11.5509  -15.8406 C   0  0  2  0  0  0  0  0  0  0  0  0
   17.0483  -11.5408  -15.3378 N   0  0  0  0  0  0  0  0  0  0  0  0
   18.8432  -10.1403  -16.0000 C   0  0  0  0  0  0  0  0  0  0  0  0
   20.0197   -9.8874  -16.3657 O   0  0  0  0  0  0  0  0  0  0  0  0
   17.9451   -9.0507  -15.7427 N   0  0  0  0  0  0  0  0  0  0  0  0
   18.4478   -7.7084  -15.9397 C   0  0  1  0  0  0  0  0  0  0  0  0
   17.3736   -6.7409  -16.3760 C   0  0  0  0  0  0  0  0  0  0  0  0
   17.9301   -5.3514  -16.5859 C   0  0  0  0  0  0  0  0  0  0  0  0
   16.8428   -4.4125  -16.9428 C   0  0  0  0  0  0  0  0  0  0  0  0
   16.1622   -3.7678  -16.0986 O   0  0  0  0  0  0  0  0  0  0  0  0
   19.1399   -7.2180  -14.7074 C   0  0  0  0  0  0  0  0  0  0  0  0
   18.5169   -7.2814  -13.6139 O   0  0  0  0  0  0  0  0  0  0  0  0
   16.5368   -4.2140  -18.2792 O   0  0  0  0  0  0  0  0  0  0  0  0
   20.4586   -6.7026  -14.7988 N   0  0  0  0  0  0  0  0  0  0  0  0
   21.1667   -6.2298  -13.6051 C   0  0  1  0  0  0  0  0  0  0  0  0
   22.1398   -7.3045  -13.2372 C   0  0  0  0  0  0  0  0  0  0  0  0
   23.0048   -7.7775  -14.3131 C   0  0  0  0  0  0  0  0  0  0  0  0
   23.7185   -6.8953  -15.1140 C   0  0  0  0  0  0  0  0  0  0  0  0
   24.5163   -7.4026  -16.1148 C   0  0  0  0  0  0  0  0  0  0  0  0
   24.6245   -8.7581  -16.3416 C   0  0  0  0  0  0  0  0  0  0  0  0
   23.9041   -9.6430  -15.5326 C   0  0  0  0  0  0  0  0  0  0  0  0
   23.1027   -9.1463  -14.5282 C   0  0  0  0  0  0  0  0  0  0  0  0
   21.7845   -4.9456  -13.9323 C   0  0  0  0  0  0  0  0  0  0  0  0
   22.3586   -4.1936  -12.9234 O   0  0  0  0  0  0  0  0  0  0  0  0
   21.8117   -4.5011  -15.0989 O   0  0  0  0  0  0  0  0  0  0  0  0
  2  4  1  0
  2  1  1  6
  3  2  1  0
  4  5  2  0
  6  7  1  0
  6  4  1  0
  7  8  1  1
  8  9  1  0
  9 10  1  0
 10 14  1  0
 11 10  2  0
 12 13  2  0
 12  7  1  0
 15 12  1  0
 16 24  1  0
 16 15  1  0
 16 17  1  6
 18 23  2  0
 18 17  1  0
 19 18  1  0
 20 21  1  0
 20 19  2  0
 21 22  2  0
 22 23  1  0
 24 25  1  0
 26 24  2  0
M  END
$$$$
