AEF.pdb
     RDKit          3D

 26 26  0  0  1  0  0  0  0  0999 V2000
   20.3971  -20.4925  -12.7931 C   0  0  0  0  0  0  0  0  0  0  0  0
   20.4133  -19.3325  -13.7600 C   0  0  2  0  0  0  0  0  0  0  0  0
   19.2910  -19.3905  -14.6685 N   0  0  0  0  0  0  0  0  0  0  0  0
   21.6598  -19.3971  -14.5668 C   0  0  0  0  0  0  0  0  0  0  0  0
   21.8600  -20.3719  -15.3360 O   0  0  0  0  0  0  0  0  0  0  0  0
   22.6491  -18.3603  -14.4856 N   0  0  0  0  0  0  0  0  0  0  0  0
   23.8154  -18.4805  -15.3331 C   0  0  1  0  0  0  0  0  0  0  0  0
   24.3253  -17.1441  -15.8174 C   0  0  0  0  0  0  0  0  0  0  0  0
   23.4005  -16.5373  -16.8475 C   0  0  0  0  0  0  0  0  0  0  0  0
   24.1851  -15.8736  -17.9128 C   0  0  0  0  0  0  0  0  0  0  0  0
   24.1866  -16.2399  -19.1200 O   0  0  0  0  0  0  0  0  0  0  0  0
   24.8970  -19.2446  -14.6372 C   0  0  0  0  0  0  0  0  0  0  0  0
   25.5599  -18.6516  -13.7446 O   0  0  0  0  0  0  0  0  0  0  0  0
   24.9729  -14.7816  -17.5872 O   0  0  0  0  0  0  0  0  0  0  0  0
   25.1454  -20.5953  -14.9933 N   0  0  0  0  0  0  0  0  0  0  0  0
   26.2664  -21.3351  -14.4054 C   0  0  1  0  0  0  0  0  0  0  0  0
   25.6722  -22.2900  -13.4194 C   0  0  0  0  0  0  0  0  0  0  0  0
   25.2469  -21.7126  -12.1486 C   0  0  0  0  0  0  0  0  0  0  0  0
   23.9243  -21.3574  -11.9172 C   0  0  0  0  0  0  0  0  0  0  0  0
   23.5851  -20.8147  -10.6983 C   0  0  0  0  0  0  0  0  0  0  0  0
   24.5206  -20.6154   -9.7055 C   0  0  0  0  0  0  0  0  0  0  0  0
   25.8515  -20.9746   -9.9426 C   0  0  0  0  0  0  0  0  0  0  0  0
   26.2020  -21.5185  -11.1588 C   0  0  0  0  0  0  0  0  0  0  0  0
   26.9992  -21.9759  -15.4965 C   0  0  0  0  0  0  0  0  0  0  0  0
   28.3099  -22.3677  -15.2937 O   0  0  0  0  0  0  0  0  0  0  0  0
   26.4790  -22.1828  -16.6128 O   0  0  0  0  0  0  0  0  0  0  0  0
  2  4  1  0
  2  1  1  1
  3  2  1  0
  4  5  2  0
  6  7  1  0
  6  4  1  0
  7  8  1  1
  8  9  1  0
  9 10  1  0
 10 14  1  0
 11 10  2  0
 12 13  2  0
 12  7  1  0
 15 12  1  0
 16 24  1  0
 16 15  1  0
 16 17  1  1
 18 23  2  0
 18 17  1  0
 19 18  1  0
 20 21  1  0
 20 19  2  0
 21 22  2  0
 22 23  1  0
 24 25  1  0
 26 24  2  0
M  END
$$$$
