AEF.pdb
     RDKit          3D

 26 26  0  0  1  0  0  0  0  0999 V2000
   27.4658  -33.3435   -5.8707 C   0  0  0  0  0  0  0  0  0  0  0  0
   27.7823  -34.7965   -5.6068 C   0  0  2  0  0  0  0  0  0  0  0  0
   26.9090  -35.6689   -6.3580 N   0  0  0  0  0  0  0  0  0  0  0  0
   27.5783  -35.0777   -4.1617 C   0  0  0  0  0  0  0  0  0  0  0  0
   26.4138  -35.2162   -3.7073 O   0  0  0  0  0  0  0  0  0  0  0  0
   28.6933  -35.1953   -3.2656 N   0  0  0  0  0  0  0  0  0  0  0  0
   28.4116  -35.5351   -1.8878 C   0  0  1  0  0  0  0  0  0  0  0  0
   29.5479  -36.2771   -1.2254 C   0  0  0  0  0  0  0  0  0  0  0  0
   29.1477  -36.8078    0.1320 C   0  0  0  0  0  0  0  0  0  0  0  0
   30.3147  -37.4179    0.8081 C   0  0  0  0  0  0  0  0  0  0  0  0
   31.1375  -36.7729    1.5142 O   0  0  0  0  0  0  0  0  0  0  0  0
   28.0447  -34.3128   -1.1072 C   0  0  0  0  0  0  0  0  0  0  0  0
   28.7615  -33.2856   -1.2448 O   0  0  0  0  0  0  0  0  0  0  0  0
   30.5363  -38.7784    0.6710 O   0  0  0  0  0  0  0  0  0  0  0  0
   26.9176  -34.3398   -0.2459 N   0  0  0  0  0  0  0  0  0  0  0  0
   26.4773  -33.1302    0.4562 C   0  0  1  0  0  0  0  0  0  0  0  0
   25.0849  -32.8518   -0.0134 C   0  0  0  0  0  0  0  0  0  0  0  0
   24.9412  -31.7625   -0.9737 C   0  0  0  0  0  0  0  0  0  0  0  0
   25.0231  -30.4323   -0.5827 C   0  0  0  0  0  0  0  0  0  0  0  0
   24.8769  -29.4491   -1.5352 C   0  0  0  0  0  0  0  0  0  0  0  0
   24.6522  -29.7496   -2.8618 C   0  0  0  0  0  0  0  0  0  0  0  0
   24.5705  -31.0905   -3.2513 C   0  0  0  0  0  0  0  0  0  0  0  0
   24.7153  -32.0825   -2.3064 C   0  0  0  0  0  0  0  0  0  0  0  0
   26.5884  -33.3825    1.8921 C   0  0  0  0  0  0  0  0  0  0  0  0
   26.8151  -34.6721    2.3377 O   0  0  0  0  0  0  0  0  0  0  0  0
   26.4849  -32.4678    2.7360 O   0  0  0  0  0  0  0  0  0  0  0  0
  2  4  1  0
  2  1  1  1
  3  2  1  0
  4  5  2  0
  6  7  1  0
  6  4  1  0
  7  8  1  1
  8  9  1  0
  9 10  1  0
 10 14  1  0
 11 10  2  0
 12 13  2  0
 12  7  1  0
 15 12  1  0
 16 24  1  0
 16 15  1  0
 16 17  1  1
 18 23  2  0
 18 17  1  0
 19 18  1  0
 20 21  1  0
 20 19  2  0
 21 22  2  0
 22 23  1  0
 24 25  1  0
 26 24  2  0
M  END
$$$$
