AEF.pdb
     RDKit          3D

 26 26  0  0  1  0  0  0  0  0999 V2000
   29.3849  -19.0553  -14.8560 C   0  0  0  0  0  0  0  0  0  0  0  0
   27.9299  -19.1418  -15.2518 C   0  0  2  0  0  0  0  0  0  0  0  0
   27.5646  -18.0678  -16.1469 N   0  0  0  0  0  0  0  0  0  0  0  0
   27.0920  -19.0251  -14.0298 C   0  0  0  0  0  0  0  0  0  0  0  0
   26.8161  -17.8899  -13.5638 O   0  0  0  0  0  0  0  0  0  0  0  0
   26.5865  -20.1920  -13.3643 N   0  0  0  0  0  0  0  0  0  0  0  0
   25.6390  -19.9916  -12.2896 C   0  0  1  0  0  0  0  0  0  0  0  0
   24.2578  -20.5006  -12.6266 C   0  0  0  0  0  0  0  0  0  0  0  0
   23.2833  -20.2499  -11.4987 C   0  0  0  0  0  0  0  0  0  0  0  0
   21.9462  -20.7795  -11.8495 C   0  0  0  0  0  0  0  0  0  0  0  0
   21.3494  -20.5271  -12.9319 O   0  0  0  0  0  0  0  0  0  0  0  0
   26.1407  -20.6076  -11.0220 C   0  0  0  0  0  0  0  0  0  0  0  0
   26.3955  -21.8416  -11.0242 O   0  0  0  0  0  0  0  0  0  0  0  0
   21.2919  -21.6045  -10.9495 O   0  0  0  0  0  0  0  0  0  0  0  0
   26.3145  -19.8006   -9.8681 N   0  0  0  0  0  0  0  0  0  0  0  0
   26.8141  -20.3757   -8.6153 C   0  0  1  0  0  0  0  0  0  0  0  0
   27.4932  -19.2638   -7.8807 C   0  0  0  0  0  0  0  0  0  0  0  0
   28.0364  -19.6036   -6.5696 C   0  0  0  0  0  0  0  0  0  0  0  0
   28.9723  -20.6174   -6.4103 C   0  0  0  0  0  0  0  0  0  0  0  0
   29.4458  -20.8925   -5.1472 C   0  0  0  0  0  0  0  0  0  0  0  0
   29.0167  -20.1907   -4.0409 C   0  0  0  0  0  0  0  0  0  0  0  0
   28.0742  -19.1705   -4.2059 C   0  0  0  0  0  0  0  0  0  0  0  0
   27.5936  -18.8867   -5.4654 C   0  0  0  0  0  0  0  0  0  0  0  0
   25.6754  -20.9575   -7.9062 C   0  0  0  0  0  0  0  0  0  0  0  0
   25.8740  -22.0602   -7.0954 O   0  0  0  0  0  0  0  0  0  0  0  0
   24.5218  -20.4903   -8.0083 O   0  0  0  0  0  0  0  0  0  0  0  0
  2  4  1  0
  2  1  1  1
  3  2  1  0
  4  5  2  0
  6  7  1  0
  6  4  1  0
  7  8  1  6
  8  9  1  0
  9 10  1  0
 10 14  1  0
 11 10  2  0
 12 13  2  0
 12  7  1  0
 15 12  1  0
 16 24  1  0
 16 15  1  0
 16 17  1  1
 18 23  2  0
 18 17  1  0
 19 18  1  0
 20 21  1  0
 20 19  2  0
 21 22  2  0
 22 23  1  0
 24 25  1  0
 26 24  2  0
M  END
$$$$
