AEF.pdb
     RDKit          3D

 26 26  0  0  1  0  0  0  0  0999 V2000
   20.4209  -19.1722  -21.9096 C   0  0  0  0  0  0  0  0  0  0  0  0
   21.7468  -19.2283  -21.1887 C   0  0  2  0  0  0  0  0  0  0  0  0
   22.6308  -20.2002  -21.7903 N   0  0  0  0  0  0  0  0  0  0  0  0
   21.5101  -19.6349  -19.7788 C   0  0  0  0  0  0  0  0  0  0  0  0
   21.0722  -20.7857  -19.5224 O   0  0  0  0  0  0  0  0  0  0  0  0
   21.7731  -18.7329  -18.6938 N   0  0  0  0  0  0  0  0  0  0  0  0
   21.4341  -19.1752  -17.3587 C   0  0  1  0  0  0  0  0  0  0  0  0
   22.3050  -18.5471  -16.2969 C   0  0  0  0  0  0  0  0  0  0  0  0
   21.9500  -19.0525  -14.9174 C   0  0  0  0  0  0  0  0  0  0  0  0
   22.6207  -20.3463  -14.6574 C   0  0  0  0  0  0  0  0  0  0  0  0
   23.6246  -20.7617  -15.2986 O   0  0  0  0  0  0  0  0  0  0  0  0
   19.9857  -18.9324  -17.0742 C   0  0  0  0  0  0  0  0  0  0  0  0
   19.5155  -17.7917  -17.3304 O   0  0  0  0  0  0  0  0  0  0  0  0
   22.1333  -21.1671  -13.6536 O   0  0  0  0  0  0  0  0  0  0  0  0
   19.1905  -19.9749  -16.5322 N   0  0  0  0  0  0  0  0  0  0  0  0
   17.7843  -19.7466  -16.1851 C   0  0  1  0  0  0  0  0  0  0  0  0
   16.9723  -20.4492  -17.2263 C   0  0  0  0  0  0  0  0  0  0  0  0
   17.0129  -21.9074  -17.1904 C   0  0  0  0  0  0  0  0  0  0  0  0
   16.2997  -22.6321  -16.2442 C   0  0  0  0  0  0  0  0  0  0  0  0
   16.3803  -24.0064  -16.2602 C   0  0  0  0  0  0  0  0  0  0  0  0
   17.1474  -24.6791  -17.1873 C   0  0  0  0  0  0  0  0  0  0  0  0
   17.8640  -23.9454  -18.1385 C   0  0  0  0  0  0  0  0  0  0  0  0
   17.7906  -22.5697  -18.1317 C   0  0  0  0  0  0  0  0  0  0  0  0
   17.5748  -20.2403  -14.8248 C   0  0  0  0  0  0  0  0  0  0  0  0
   16.3530  -20.0347  -14.2104 O   0  0  0  0  0  0  0  0  0  0  0  0
   18.4671  -20.8451  -14.1942 O   0  0  0  0  0  0  0  0  0  0  0  0
  2  4  1  0
  2  1  1  6
  3  2  1  0
  4  5  2  0
  6  7  1  0
  6  4  1  0
  7  8  1  1
  8  9  1  0
  9 10  1  0
 10 14  1  0
 11 10  2  0
 12 13  2  0
 12  7  1  0
 15 12  1  0
 16 24  1  0
 16 15  1  0
 16 17  1  6
 18 23  2  0
 18 17  1  0
 19 18  1  0
 20 21  1  0
 20 19  2  0
 21 22  2  0
 22 23  1  0
 24 25  1  0
 26 24  2  0
M  END
$$$$
