AEF.pdb
     RDKit          3D

 26 26  0  0  1  0  0  0  0  0999 V2000
   29.0354  -18.8472  -14.3732 C   0  0  0  0  0  0  0  0  0  0  0  0
   27.7417  -19.5239  -14.7597 C   0  0  2  0  0  0  0  0  0  0  0  0
   27.0714  -18.8080  -15.8209 N   0  0  0  0  0  0  0  0  0  0  0  0
   26.8389  -19.5442  -13.5791 C   0  0  0  0  0  0  0  0  0  0  0  0
   26.4546  -18.4630  -13.0641 O   0  0  0  0  0  0  0  0  0  0  0  0
   26.3927  -20.7836  -13.0094 N   0  0  0  0  0  0  0  0  0  0  0  0
   25.5184  -20.7148  -11.8588 C   0  0  1  0  0  0  0  0  0  0  0  0
   24.2658  -21.5413  -12.0271 C   0  0  0  0  0  0  0  0  0  0  0  0
   23.4700  -21.1034  -13.2352 C   0  0  0  0  0  0  0  0  0  0  0  0
   22.6110  -19.9478  -12.8915 C   0  0  0  0  0  0  0  0  0  0  0  0
   21.7593  -19.9542  -11.9609 O   0  0  0  0  0  0  0  0  0  0  0  0
   26.2520  -21.1040  -10.6145 C   0  0  0  0  0  0  0  0  0  0  0  0
   26.9783  -22.1330  -10.6532 O   0  0  0  0  0  0  0  0  0  0  0  0
   22.7328  -18.7778  -13.6230 O   0  0  0  0  0  0  0  0  0  0  0  0
   26.1145  -20.3180   -9.4414 N   0  0  0  0  0  0  0  0  0  0  0  0
   26.7881  -20.6994   -8.1961 C   0  0  1  0  0  0  0  0  0  0  0  0
   27.5199  -19.4843   -7.7218 C   0  0  0  0  0  0  0  0  0  0  0  0
   28.1289  -19.5820   -6.3993 C   0  0  0  0  0  0  0  0  0  0  0  0
   27.5978  -18.9154   -5.3027 C   0  0  0  0  0  0  0  0  0  0  0  0
   28.2191  -19.0451   -4.0810 C   0  0  0  0  0  0  0  0  0  0  0  0
   29.3502  -19.8162   -3.9187 C   0  0  0  0  0  0  0  0  0  0  0  0
   29.8818  -20.4859   -5.0257 C   0  0  0  0  0  0  0  0  0  0  0  0
   29.2681  -20.3632   -6.2530 C   0  0  0  0  0  0  0  0  0  0  0  0
   25.7683  -21.1874   -7.2688 C   0  0  0  0  0  0  0  0  0  0  0  0
   26.1482  -21.9767   -6.1985 O   0  0  0  0  0  0  0  0  0  0  0  0
   24.5580  -20.9145   -7.4107 O   0  0  0  0  0  0  0  0  0  0  0  0
  2  4  1  0
  2  1  1  1
  3  2  1  0
  4  5  2  0
  6  7  1  0
  6  4  1  0
  7  8  1  6
  8  9  1  0
  9 10  1  0
 10 14  1  0
 11 10  2  0
 12 13  2  0
 12  7  1  0
 15 12  1  0
 16 24  1  0
 16 15  1  0
 16 17  1  1
 18 23  2  0
 18 17  1  0
 19 18  1  0
 20 21  1  0
 20 19  2  0
 21 22  2  0
 22 23  1  0
 24 25  1  0
 26 24  2  0
M  END
$$$$
