MHV.pdb
     RDKit          3D

 26 26  0  0  1  0  0  0  0  0999 V2000
   18.2123  -13.1937  -14.6273 C   0  0  0  0  0  0  0  0  0  0  0  0
   16.5639  -13.4583  -15.2536 S   0  0  0  0  0  0  0  0  0  0  0  0
   15.8315  -12.0935  -16.1388 C   0  0  0  0  0  0  0  0  0  0  0  0
   16.7572  -10.9248  -16.2339 C   0  0  0  0  0  0  0  0  0  0  0  0
   16.1577   -9.8123  -17.0370 C   0  0  2  0  0  0  0  0  0  0  0  0
   15.9425  -10.2114  -18.4182 N   0  0  0  0  0  0  0  0  0  0  0  0
   17.1629   -8.6908  -16.9943 C   0  0  0  0  0  0  0  0  0  0  0  0
   18.0572   -8.6196  -17.8492 O   0  0  0  0  0  0  0  0  0  0  0  0
   17.0844   -7.7218  -15.9796 N   0  0  0  0  0  0  0  0  0  0  0  0
   17.9813   -6.5855  -15.8886 C   0  0  1  0  0  0  0  0  0  0  0  0
   17.1977   -5.3639  -15.6106 C   0  0  0  0  0  0  0  0  0  0  0  0
   16.6348   -4.6486  -16.7526 C   0  0  0  0  0  0  0  0  0  0  0  0
   16.7155   -4.7936  -18.0960 C   0  0  0  0  0  0  0  0  0  0  0  0
   15.9918   -3.8304  -18.6815 N   0  0  0  0  0  0  0  0  0  0  0  0
   15.4563   -3.0799  -17.7082 C   0  0  0  0  0  0  0  0  0  0  0  0
   15.8348   -3.5605  -16.5335 N   0  0  0  0  0  0  0  0  0  0  0  0
   18.9018   -6.9206  -14.7324 C   0  0  0  0  0  0  0  0  0  0  0  0
   18.4738   -7.3238  -13.6225 O   0  0  0  0  0  0  0  0  0  0  0  0
   22.9964   -7.9784  -15.4689 C   0  0  0  0  0  0  0  0  0  0  0  0
   22.1780   -8.3065  -14.2682 C   0  0  1  0  0  0  0  0  0  0  0  0
   23.0611   -8.8039  -13.1422 C   0  0  0  0  0  0  0  0  0  0  0  0
   21.2292   -7.2386  -13.8313 C   0  0  2  0  0  0  0  0  0  0  0  0
   20.3160   -6.7919  -14.8511 N   0  0  0  0  0  0  0  0  0  0  0  0
   22.0401   -6.0650  -13.4160 C   0  0  0  0  0  0  0  0  0  0  0  0
   22.7173   -6.0257  -12.2078 O   0  0  0  0  0  0  0  0  0  0  0  0
   22.1129   -5.0880  -14.1769 O   0  0  0  0  0  0  0  0  0  0  0  0
  2  1  1  0
  3  4  1  0
  3  2  1  0
  4  5  1  0
  5  6  1  6
  5  7  1  0
  7  8  2  0
  9  7  1  0
  9 10  1  0
 10 11  1  1
 11 12  1  0
 12 16  1  0
 12 13  2  0
 13 14  1  0
 15 14  1  0
 16 15  2  0
 17 10  1  0
 17 18  2  0
 20 19  1  6
 20 22  1  0
 21 20  1  0
 22 23  1  6
 23 17  1  0
 24 22  1  0
 24 25  1  0
 26 24  2  0
M  END
$$$$
