MHV.pdb
     RDKit          3D

 26 26  0  0  1  0  0  0  0  0999 V2000
   18.6881  -18.8073  -13.0105 C   0  0  0  0  0  0  0  0  0  0  0  0
   18.2674  -19.6812  -14.5066 S   0  0  0  0  0  0  0  0  0  0  0  0
   19.6120  -19.9991  -15.6352 C   0  0  0  0  0  0  0  0  0  0  0  0
   20.8330  -19.2106  -15.2897 C   0  0  0  0  0  0  0  0  0  0  0  0
   21.9264  -19.4234  -16.2903 C   0  0  2  0  0  0  0  0  0  0  0  0
   21.5085  -20.3286  -17.3481 N   0  0  0  0  0  0  0  0  0  0  0  0
   23.0649  -20.0455  -15.5242 C   0  0  0  0  0  0  0  0  0  0  0  0
   23.2994  -21.2579  -15.6273 O   0  0  0  0  0  0  0  0  0  0  0  0
   23.8637  -19.2455  -14.6895 N   0  0  0  0  0  0  0  0  0  0  0  0
   25.1083  -19.7001  -14.0996 C   0  0  1  0  0  0  0  0  0  0  0  0
   26.2049  -18.8014  -14.5162 C   0  0  0  0  0  0  0  0  0  0  0  0
   26.8936  -19.1114  -15.7662 C   0  0  0  0  0  0  0  0  0  0  0  0
   26.7724  -20.0839  -16.6998 C   0  0  0  0  0  0  0  0  0  0  0  0
   27.6897  -19.8856  -17.6557 N   0  0  0  0  0  0  0  0  0  0  0  0
   28.3875  -18.7900  -17.3243 C   0  0  0  0  0  0  0  0  0  0  0  0
   27.9195  -18.3077  -16.1830 N   0  0  0  0  0  0  0  0  0  0  0  0
   24.8715  -19.6187  -12.6050 C   0  0  0  0  0  0  0  0  0  0  0  0
   24.1458  -18.7367  -12.0825 O   0  0  0  0  0  0  0  0  0  0  0  0
   27.2977  -21.9458   -9.8064 C   0  0  0  0  0  0  0  0  0  0  0  0
   25.8666  -21.6401   -9.5278 C   0  0  1  0  0  0  0  0  0  0  0  0
   25.6237  -21.5457   -8.0354 C   0  0  0  0  0  0  0  0  0  0  0  0
   25.3038  -20.4792  -10.2806 C   0  0  2  0  0  0  0  0  0  0  0  0
   25.4697  -20.5516  -11.7091 N   0  0  0  0  0  0  0  0  0  0  0  0
   26.0110  -19.2595   -9.8124 C   0  0  0  0  0  0  0  0  0  0  0  0
   25.7117  -18.6501   -8.6045 O   0  0  0  0  0  0  0  0  0  0  0  0
   26.8992  -18.7707  -10.5273 O   0  0  0  0  0  0  0  0  0  0  0  0
  2  1  1  0
  3  4  1  0
  3  2  1  0
  4  5  1  0
  5  6  1  6
  5  7  1  0
  7  8  2  0
  9  7  1  0
  9 10  1  0
 10 11  1  1
 11 12  1  0
 12 16  1  0
 12 13  2  0
 13 14  1  0
 15 14  1  0
 16 15  2  0
 17 10  1  0
 17 18  2  0
 20 19  1  1
 20 22  1  0
 21 20  1  0
 22 23  1  6
 23 17  1  0
 24 22  1  0
 24 25  1  0
 26 24  2  0
M  END
$$$$
