MHV.pdb
     RDKit          3D

 26 26  0  0  1  0  0  0  0  0999 V2000
   20.2845  -32.3668   -5.9540 C   0  0  0  0  0  0  0  0  0  0  0  0
   20.5040  -33.3133   -7.4490 S   0  0  0  0  0  0  0  0  0  0  0  0
   21.9288  -32.8985   -8.4392 C   0  0  0  0  0  0  0  0  0  0  0  0
   22.0493  -31.4259   -8.6601 C   0  0  0  0  0  0  0  0  0  0  0  0
   21.6480  -31.0439  -10.0511 C   0  0  2  0  0  0  0  0  0  0  0  0
   22.7362  -31.2500  -10.9927 N   0  0  0  0  0  0  0  0  0  0  0  0
   21.3139  -29.5760   -9.9907 C   0  0  0  0  0  0  0  0  0  0  0  0
   21.7231  -28.8797   -9.0508 O   0  0  0  0  0  0  0  0  0  0  0  0
   20.5348  -28.9954  -11.0058 N   0  0  0  0  0  0  0  0  0  0  0  0
   20.1666  -27.5927  -11.0272 C   0  0  1  0  0  0  0  0  0  0  0  0
   19.6348  -27.2460  -12.3616 C   0  0  0  0  0  0  0  0  0  0  0  0
   19.1977  -25.8693  -12.5772 C   0  0  0  0  0  0  0  0  0  0  0  0
   19.1320  -24.7625  -11.8008 C   0  0  0  0  0  0  0  0  0  0  0  0
   18.6294  -23.7533  -12.5241 N   0  0  0  0  0  0  0  0  0  0  0  0
   18.3787  -24.2240  -13.7541 C   0  0  0  0  0  0  0  0  0  0  0  0
   18.7166  -25.5037  -13.8047 N   0  0  0  0  0  0  0  0  0  0  0  0
   19.0971  -27.4650   -9.9612 C   0  0  0  0  0  0  0  0  0  0  0  0
   18.2580  -28.3715   -9.7335 O   0  0  0  0  0  0  0  0  0  0  0  0
   18.1777  -24.0896   -6.6717 C   0  0  0  0  0  0  0  0  0  0  0  0
   18.5198  -25.5277   -6.8557 C   0  0  1  0  0  0  0  0  0  0  0  0
   18.1581  -26.3231   -5.6181 C   0  0  0  0  0  0  0  0  0  0  0  0
   18.0079  -26.1495   -8.1138 C   0  0  2  0  0  0  0  0  0  0  0  0
   18.9907  -26.2940   -9.1561 N   0  0  0  0  0  0  0  0  0  0  0  0
   16.9301  -25.2717   -8.6380 C   0  0  0  0  0  0  0  0  0  0  0  0
   17.1906  -24.2119   -9.4918 O   0  0  0  0  0  0  0  0  0  0  0  0
   15.7578  -25.4955   -8.2995 O   0  0  0  0  0  0  0  0  0  0  0  0
  2  1  1  0
  3  4  1  0
  3  2  1  0
  4  5  1  0
  5  6  1  6
  5  7  1  0
  7  8  2  0
  9  7  1  0
  9 10  1  0
 10 11  1  6
 11 12  1  0
 12 16  1  0
 12 13  2  0
 13 14  1  0
 15 14  1  0
 16 15  2  0
 17 10  1  0
 17 18  2  0
 20 19  1  1
 20 22  1  0
 21 20  1  0
 22 23  1  6
 23 17  1  0
 24 22  1  0
 24 25  1  0
 26 24  2  0
M  END
$$$$
