MHV.pdb
     RDKit          3D

 26 26  0  0  1  0  0  0  0  0999 V2000
   33.3482  -22.5788  -19.1261 C   0  0  0  0  0  0  0  0  0  0  0  0
   33.0698  -24.3033  -18.7683 S   0  0  0  0  0  0  0  0  0  0  0  0
   31.5283  -24.6992  -17.9620 C   0  0  0  0  0  0  0  0  0  0  0  0
   31.0542  -23.5893  -17.0816 C   0  0  0  0  0  0  0  0  0  0  0  0
   29.7960  -23.9597  -16.3593 C   0  0  2  0  0  0  0  0  0  0  0  0
   28.8451  -24.6071  -17.2479 N   0  0  0  0  0  0  0  0  0  0  0  0
   29.2116  -22.6614  -15.8662 C   0  0  0  0  0  0  0  0  0  0  0  0
   29.8738  -21.9174  -15.1290 O   0  0  0  0  0  0  0  0  0  0  0  0
   27.9092  -22.2941  -16.2453 N   0  0  0  0  0  0  0  0  0  0  0  0
   27.2524  -21.0870  -15.7812 C   0  0  1  0  0  0  0  0  0  0  0  0
   26.5593  -20.4398  -16.9145 C   0  0  0  0  0  0  0  0  0  0  0  0
   25.7046  -19.2935  -16.6173 C   0  0  0  0  0  0  0  0  0  0  0  0
   25.3312  -18.6581  -15.4820 C   0  0  0  0  0  0  0  0  0  0  0  0
   24.5064  -17.6511  -15.7985 N   0  0  0  0  0  0  0  0  0  0  0  0
   24.3605  -17.6528  -17.1312 C   0  0  0  0  0  0  0  0  0  0  0  0
   25.0788  -18.6404  -17.6438 N   0  0  0  0  0  0  0  0  0  0  0  0
   26.2642  -21.5699  -14.7386 C   0  0  0  0  0  0  0  0  0  0  0  0
   25.6331  -22.6497  -14.8543 O   0  0  0  0  0  0  0  0  0  0  0  0
   27.0901  -21.6623  -10.8781 C   0  0  0  0  0  0  0  0  0  0  0  0
   25.7438  -21.0719  -11.1190 C   0  0  1  0  0  0  0  0  0  0  0  0
   25.7225  -19.6126  -10.7128 C   0  0  0  0  0  0  0  0  0  0  0  0
   25.1812  -21.3013  -12.4836 C   0  0  2  0  0  0  0  0  0  0  0  0
   26.0002  -20.8110  -13.5618 N   0  0  0  0  0  0  0  0  0  0  0  0
   23.8798  -20.5883  -12.5546 C   0  0  0  0  0  0  0  0  0  0  0  0
   22.7693  -21.0053  -11.8385 O   0  0  0  0  0  0  0  0  0  0  0  0
   23.7848  -19.5861  -13.2794 O   0  0  0  0  0  0  0  0  0  0  0  0
  2  1  1  0
  3  4  1  0
  3  2  1  0
  4  5  1  0
  5  6  1  6
  5  7  1  0
  7  8  2  0
  9  7  1  0
  9 10  1  0
 10 11  1  6
 11 12  1  0
 12 16  1  0
 12 13  2  0
 13 14  1  0
 15 14  1  0
 16 15  2  0
 17 10  1  0
 17 18  2  0
 20 19  1  6
 20 22  1  0
 21 20  1  0
 22 23  1  6
 23 17  1  0
 24 22  1  0
 24 25  1  0
 26 24  2  0
M  END
$$$$
