MHV.pdb
     RDKit          3D

 26 26  0  0  1  0  0  0  0  0999 V2000
   26.9410   -9.3972  -16.2382 C   0  0  0  0  0  0  0  0  0  0  0  0
   25.7671  -10.5986  -16.8364 S   0  0  0  0  0  0  0  0  0  0  0  0
   24.6451  -11.2719  -15.6237 C   0  0  0  0  0  0  0  0  0  0  0  0
   23.5993  -10.2853  -15.2180 C   0  0  0  0  0  0  0  0  0  0  0  0
   22.2321  -10.7299  -15.6362 C   0  0  2  0  0  0  0  0  0  0  0  0
   22.1647  -10.9604  -17.0699 N   0  0  0  0  0  0  0  0  0  0  0  0
   21.3057   -9.5994  -15.2702 C   0  0  0  0  0  0  0  0  0  0  0  0
   21.1746   -9.2565  -14.0866 O   0  0  0  0  0  0  0  0  0  0  0  0
   20.5879   -8.9318  -16.2770 N   0  0  0  0  0  0  0  0  0  0  0  0
   19.6650   -7.8444  -16.0133 C   0  0  1  0  0  0  0  0  0  0  0  0
   20.2582   -6.5742  -16.4806 C   0  0  0  0  0  0  0  0  0  0  0  0
   21.2636   -5.9450  -15.6286 C   0  0  0  0  0  0  0  0  0  0  0  0
   21.7685   -6.2123  -14.4014 C   0  0  0  0  0  0  0  0  0  0  0  0
   22.6812   -5.2810  -14.0946 N   0  0  0  0  0  0  0  0  0  0  0  0
   22.7507   -4.4285  -15.1269 C   0  0  0  0  0  0  0  0  0  0  0  0
   21.8993   -4.8148  -16.0651 N   0  0  0  0  0  0  0  0  0  0  0  0
   18.4259   -8.1965  -16.8116 C   0  0  0  0  0  0  0  0  0  0  0  0
   18.4799   -8.6091  -17.9967 O   0  0  0  0  0  0  0  0  0  0  0  0
   15.9681  -10.9135  -16.7428 C   0  0  0  0  0  0  0  0  0  0  0  0
   15.2310   -9.6413  -16.5034 C   0  0  1  0  0  0  0  0  0  0  0  0
   14.7822   -9.5502  -15.0593 C   0  0  0  0  0  0  0  0  0  0  0  0
   15.9238   -8.4043  -16.9736 C   0  0  2  0  0  0  0  0  0  0  0  0
   17.1229   -8.0740  -16.2479 N   0  0  0  0  0  0  0  0  0  0  0  0
   14.9767   -7.2721  -16.8054 C   0  0  0  0  0  0  0  0  0  0  0  0
   13.8697   -7.1077  -17.6224 O   0  0  0  0  0  0  0  0  0  0  0  0
   15.1844   -6.4466  -15.9030 O   0  0  0  0  0  0  0  0  0  0  0  0
  2  1  1  0
  3  4  1  0
  3  2  1  0
  4  5  1  0
  5  6  1  6
  5  7  1  0
  7  8  2  0
  9  7  1  0
  9 10  1  0
 10 11  1  6
 11 12  1  0
 12 16  1  0
 12 13  2  0
 13 14  1  0
 15 14  1  0
 16 15  2  0
 17 10  1  0
 17 18  2  0
 20 19  1  1
 20 22  1  0
 21 20  1  0
 22 23  1  1
 23 17  1  0
 24 22  1  0
 24 25  1  0
 26 24  2  0
M  END
$$$$
