MHV.pdb
     RDKit          3D

 26 26  0  0  1  0  0  0  0  0999 V2000
   16.4193  -21.2817  -24.8632 C   0  0  0  0  0  0  0  0  0  0  0  0
   16.3528  -19.6057  -25.4682 S   0  0  0  0  0  0  0  0  0  0  0  0
   17.6299  -18.5073  -24.8804 C   0  0  0  0  0  0  0  0  0  0  0  0
   17.8969  -18.6868  -23.4215 C   0  0  0  0  0  0  0  0  0  0  0  0
   18.9039  -17.6981  -22.9211 C   0  0  2  0  0  0  0  0  0  0  0  0
   20.2437  -18.0277  -23.3788 N   0  0  0  0  0  0  0  0  0  0  0  0
   18.8549  -17.7913  -21.4181 C   0  0  0  0  0  0  0  0  0  0  0  0
   19.4587  -18.6981  -20.8277 O   0  0  0  0  0  0  0  0  0  0  0  0
   18.1206  -16.8443  -20.6839 N   0  0  0  0  0  0  0  0  0  0  0  0
   18.0711  -16.8205  -19.2346 C   0  0  1  0  0  0  0  0  0  0  0  0
   18.5680  -15.5164  -18.7488 C   0  0  0  0  0  0  0  0  0  0  0  0
   20.0125  -15.3016  -18.7498 C   0  0  0  0  0  0  0  0  0  0  0  0
   21.0893  -16.0960  -18.9539 C   0  0  0  0  0  0  0  0  0  0  0  0
   22.2021  -15.3621  -18.8220 N   0  0  0  0  0  0  0  0  0  0  0  0
   21.8266  -14.1076  -18.5350 C   0  0  0  0  0  0  0  0  0  0  0  0
   20.5041  -14.0521  -18.4872 N   0  0  0  0  0  0  0  0  0  0  0  0
   16.6042  -17.0060  -18.9022 C   0  0  0  0  0  0  0  0  0  0  0  0
   15.6934  -16.3634  -19.4809 O   0  0  0  0  0  0  0  0  0  0  0  0
   14.1942  -19.7339  -19.4458 C   0  0  0  0  0  0  0  0  0  0  0  0
   14.2706  -19.4920  -17.9779 C   0  0  1  0  0  0  0  0  0  0  0  0
   14.9863  -20.6347  -17.2870 C   0  0  0  0  0  0  0  0  0  0  0  0
   14.7978  -18.1527  -17.5785 C   0  0  2  0  0  0  0  0  0  0  0  0
   16.1831  -17.9307  -17.9030 N   0  0  0  0  0  0  0  0  0  0  0  0
   14.6642  -18.0433  -16.1029 C   0  0  0  0  0  0  0  0  0  0  0  0
   13.4344  -17.8952  -15.4818 O   0  0  0  0  0  0  0  0  0  0  0  0
   15.6882  -18.0860  -15.4041 O   0  0  0  0  0  0  0  0  0  0  0  0
  2  1  1  0
  3  4  1  0
  3  2  1  0
  4  5  1  0
  5  6  1  6
  5  7  1  0
  7  8  2  0
  9  7  1  0
  9 10  1  0
 10 11  1  6
 11 12  1  0
 12 16  1  0
 12 13  2  0
 13 14  1  0
 15 14  1  0
 16 15  2  0
 17 10  1  0
 17 18  2  0
 20 19  1  6
 20 22  1  0
 21 20  1  0
 22 23  1  1
 23 17  1  0
 24 22  1  0
 24 25  1  0
 26 24  2  0
M  END
$$$$
