ALQ.pdb
     RDKit          3D

 23 22  0  0  1  0  0  0  0  0999 V2000
    7.0670  -16.9728   20.5449 C   0  0  0  0  0  0  0  0  0  0  0  0
    7.4676  -15.5372   20.4251 C   0  0  2  0  0  0  0  0  0  0  0  0
    8.4607  -15.2907   19.4165 N   0  0  0  0  0  0  0  0  0  0  0  0
    7.9874  -15.0568   21.7527 C   0  0  0  0  0  0  0  0  0  0  0  0
    9.2027  -15.1922   22.0328 O   0  0  0  0  0  0  0  0  0  0  0  0
    8.2623  -11.8708   25.9342 C   0  0  0  0  0  0  0  0  0  0  0  0
    7.2379  -12.9811   26.2025 C   0  0  1  0  0  0  0  0  0  0  0  0
    6.1542  -12.3478   27.0487 C   0  0  0  0  0  0  0  0  0  0  0  0
    6.6707  -13.3518   24.8521 C   0  0  0  0  0  0  0  0  0  0  0  0
    7.6702  -14.0888   23.9871 C   0  0  2  0  0  0  0  0  0  0  0  0
    7.1414  -14.4490   22.7100 N   0  0  0  0  0  0  0  0  0  0  0  0
    8.0316  -15.3285   24.7354 C   0  0  0  0  0  0  0  0  0  0  0  0
    7.5646  -16.4186   24.3056 O   0  0  0  0  0  0  0  0  0  0  0  0
   10.7923  -18.4658   23.0949 N   0  0  0  0  0  0  0  0  0  0  0  0
   11.7578  -18.5556   24.1288 C   0  0  0  0  0  0  0  0  0  0  0  0
   12.5946  -19.4821   24.1298 O   0  0  0  0  0  0  0  0  0  0  0  0
   11.7718  -17.5357   25.2211 C   0  0  0  0  0  0  0  0  0  0  0  0
   10.6898  -16.5442   24.9431 C   0  0  0  0  0  0  0  0  0  0  0  0
    9.7367  -16.4703   26.0926 C   0  0  2  0  0  0  0  0  0  0  0  0
    8.8552  -15.3138   25.8742 N   0  0  0  0  0  0  0  0  0  0  0  0
   10.3344  -16.3100   27.4160 C   0  0  0  0  0  0  0  0  0  0  0  0
   10.4547  -17.4340   28.2571 O   0  0  0  0  0  0  0  0  0  0  0  0
   10.7435  -15.1839   27.8170 O   0  0  0  0  0  0  0  0  0  0  0  0
  2  1  1  1
  2  3  1  0
  4  2  1  0
  4  5  2  0
  7  6  1  6
  7  9  1  0
  8  7  1  0
 10  9  1  1
 10 12  1  0
 10 11  1  0
 11  4  1  0
 12 13  2  0
 15 14  1  0
 16 15  2  0
 17 15  1  0
 18 17  1  0
 19 18  1  6
 20 19  1  0
 20 12  1  0
 21 19  1  0
 22 21  1  0
 23 21  2  0
M  END
$$$$
