ALQ.pdb
     RDKit          3D

 23 22  0  0  1  0  0  0  0  0999 V2000
    6.8492  -15.2265   20.3742 C   0  0  0  0  0  0  0  0  0  0  0  0
    7.3264  -16.0815   21.5041 C   0  0  2  0  0  0  0  0  0  0  0  0
    6.2746  -16.7713   22.1986 N   0  0  0  0  0  0  0  0  0  0  0  0
    8.0833  -15.2274   22.4846 C   0  0  0  0  0  0  0  0  0  0  0  0
    9.1869  -14.7294   22.1561 O   0  0  0  0  0  0  0  0  0  0  0  0
    5.7597  -12.1508   26.6037 C   0  0  0  0  0  0  0  0  0  0  0  0
    6.5688  -12.5432   25.3607 C   0  0  1  0  0  0  0  0  0  0  0  0
    7.3294  -11.2994   24.9532 C   0  0  0  0  0  0  0  0  0  0  0  0
    7.5436  -13.6014   25.8221 C   0  0  0  0  0  0  0  0  0  0  0  0
    8.3622  -14.1700   24.6833 C   0  0  2  0  0  0  0  0  0  0  0  0
    7.5868  -14.9624   23.7826 N   0  0  0  0  0  0  0  0  0  0  0  0
    9.4095  -15.0269   25.3129 C   0  0  0  0  0  0  0  0  0  0  0  0
   10.1074  -14.5075   26.2263 O   0  0  0  0  0  0  0  0  0  0  0  0
    9.4746  -21.0293   26.1768 N   0  0  0  0  0  0  0  0  0  0  0  0
   10.8116  -20.7327   26.5427 C   0  0  0  0  0  0  0  0  0  0  0  0
   11.5543  -21.6292   26.9938 O   0  0  0  0  0  0  0  0  0  0  0  0
   11.3317  -19.3405   26.3868 C   0  0  0  0  0  0  0  0  0  0  0  0
   10.2284  -18.4916   25.8452 C   0  0  0  0  0  0  0  0  0  0  0  0
   10.7080  -17.0959   25.6062 C   0  0  2  0  0  0  0  0  0  0  0  0
    9.6323  -16.3595   24.9259 N   0  0  0  0  0  0  0  0  0  0  0  0
   11.9079  -16.9587   24.7842 C   0  0  0  0  0  0  0  0  0  0  0  0
   11.7821  -16.5190   23.4515 O   0  0  0  0  0  0  0  0  0  0  0  0
   13.0524  -17.2271   25.2473 O   0  0  0  0  0  0  0  0  0  0  0  0
  2  1  1  6
  2  3  1  0
  4  2  1  0
  4  5  2  0
  7  6  1  1
  7  9  1  0
  8  7  1  0
 10  9  1  1
 10 12  1  0
 10 11  1  0
 11  4  1  0
 12 13  2  0
 15 14  1  0
 16 15  2  0
 17 15  1  0
 18 17  1  0
 19 18  1  6
 20 19  1  0
 20 12  1  0
 21 19  1  0
 22 21  1  0
 23 21  2  0
M  END
$$$$
