ALQ.pdb
     RDKit          3D

 23 22  0  0  1  0  0  0  0  0999 V2000
    8.5243  -18.0238   21.9803 C   0  0  0  0  0  0  0  0  0  0  0  0
    8.5825  -16.5953   21.5425 C   0  0  2  0  0  0  0  0  0  0  0  0
    9.5819  -16.3310   20.5447 N   0  0  0  0  0  0  0  0  0  0  0  0
    8.8420  -15.7218   22.7397 C   0  0  0  0  0  0  0  0  0  0  0  0
   10.0217  -15.4714   23.0852 O   0  0  0  0  0  0  0  0  0  0  0  0
    8.1010  -11.6123   25.8565 C   0  0  0  0  0  0  0  0  0  0  0  0
    7.2029  -12.7495   26.3608 C   0  0  1  0  0  0  0  0  0  0  0  0
    5.9392  -12.0855   26.8645 C   0  0  0  0  0  0  0  0  0  0  0  0
    6.8815  -13.5886   25.1462 C   0  0  0  0  0  0  0  0  0  0  0  0
    8.0916  -14.3270   24.6163 C   0  0  2  0  0  0  0  0  0  0  0  0
    7.7870  -15.1650   23.5003 N   0  0  0  0  0  0  0  0  0  0  0  0
    8.5878  -15.1716   25.7424 C   0  0  0  0  0  0  0  0  0  0  0  0
    7.9034  -16.1862   26.0476 O   0  0  0  0  0  0  0  0  0  0  0  0
   13.1374  -19.1005   25.6893 N   0  0  0  0  0  0  0  0  0  0  0  0
   12.8620  -17.7104   25.6578 C   0  0  0  0  0  0  0  0  0  0  0  0
   13.7684  -16.8952   25.3880 O   0  0  0  0  0  0  0  0  0  0  0  0
   11.4803  -17.2213   25.9489 C   0  0  0  0  0  0  0  0  0  0  0  0
   11.5487  -16.3206   27.1385 C   0  0  0  0  0  0  0  0  0  0  0  0
   10.1867  -15.8186   27.4967 C   0  0  2  0  0  0  0  0  0  0  0  0
    9.7643  -14.8745   26.4516 N   0  0  0  0  0  0  0  0  0  0  0  0
   10.0726  -15.1217   28.7756 C   0  0  0  0  0  0  0  0  0  0  0  0
    9.6861  -13.7668   28.7885 O   0  0  0  0  0  0  0  0  0  0  0  0
   10.3141  -15.7121   29.8663 O   0  0  0  0  0  0  0  0  0  0  0  0
  2  1  1  1
  2  3  1  0
  4  2  1  0
  4  5  2  0
  7  6  1  6
  7  9  1  0
  8  7  1  0
 10  9  1  1
 10 12  1  0
 10 11  1  0
 11  4  1  0
 12 13  2  0
 15 14  1  0
 16 15  2  0
 17 15  1  0
 18 17  1  0
 19 18  1  6
 20 19  1  0
 20 12  1  0
 21 19  1  0
 22 21  1  0
 23 21  2  0
M  END
$$$$
