ALQ.pdb
     RDKit          3D

 23 22  0  0  1  0  0  0  0  0999 V2000
    7.2894  -16.4948   20.0548 C   0  0  0  0  0  0  0  0  0  0  0  0
    7.8872  -17.2039   21.2275 C   0  0  2  0  0  0  0  0  0  0  0  0
    6.9425  -17.9764   21.9860 N   0  0  0  0  0  0  0  0  0  0  0  0
    8.5376  -16.1959   22.1356 C   0  0  0  0  0  0  0  0  0  0  0  0
    9.5989  -15.6294   21.7801 O   0  0  0  0  0  0  0  0  0  0  0  0
    5.8474  -13.0702   26.0769 C   0  0  0  0  0  0  0  0  0  0  0  0
    6.6954  -13.4120   24.8448 C   0  0  1  0  0  0  0  0  0  0  0  0
    7.3458  -12.1134   24.4178 C   0  0  0  0  0  0  0  0  0  0  0  0
    7.7568  -14.3715   25.3299 C   0  0  0  0  0  0  0  0  0  0  0  0
    8.6344  -14.8797   24.2064 C   0  0  2  0  0  0  0  0  0  0  0  0
    7.9862  -15.8599   23.3944 N   0  0  0  0  0  0  0  0  0  0  0  0
    9.8279  -15.4946   24.8583 C   0  0  0  0  0  0  0  0  0  0  0  0
   10.4025  -14.8245   25.7593 O   0  0  0  0  0  0  0  0  0  0  0  0
    8.7822  -19.6721   28.0594 N   0  0  0  0  0  0  0  0  0  0  0  0
   10.1805  -19.7409   28.2816 C   0  0  0  0  0  0  0  0  0  0  0  0
   10.6332  -20.3904   29.2471 O   0  0  0  0  0  0  0  0  0  0  0  0
   11.1145  -19.0321   27.3551 C   0  0  0  0  0  0  0  0  0  0  0  0
   10.3004  -18.1701   26.4466 C   0  0  0  0  0  0  0  0  0  0  0  0
   11.1804  -17.4561   25.4713 C   0  0  2  0  0  0  0  0  0  0  0  0
   10.3147  -16.7648   24.5046 N   0  0  0  0  0  0  0  0  0  0  0  0
   12.1006  -18.2908   24.7026 C   0  0  0  0  0  0  0  0  0  0  0  0
   13.2805  -18.7579   25.3149 O   0  0  0  0  0  0  0  0  0  0  0  0
   11.8563  -18.5994   23.5020 O   0  0  0  0  0  0  0  0  0  0  0  0
  2  1  1  6
  2  3  1  0
  4  2  1  0
  4  5  2  0
  7  6  1  1
  7  9  1  0
  8  7  1  0
 10  9  1  1
 10 12  1  0
 10 11  1  0
 11  4  1  0
 12 13  2  0
 15 14  1  0
 16 15  2  0
 17 15  1  0
 18 17  1  0
 19 18  1  1
 20 19  1  0
 20 12  1  0
 21 19  1  0
 22 21  1  0
 23 21  2  0
M  END
$$$$
