ALQ.pdb
     RDKit          3D

 23 22  0  0  1  0  0  0  0  0999 V2000
    8.7293  -16.7500   19.6333 C   0  0  0  0  0  0  0  0  0  0  0  0
    8.7189  -17.2085   21.0564 C   0  0  2  0  0  0  0  0  0  0  0  0
    7.4959  -17.8493   21.4541 N   0  0  0  0  0  0  0  0  0  0  0  0
    8.9702  -16.0299   21.9572 C   0  0  0  0  0  0  0  0  0  0  0  0
   10.0144  -15.3490   21.8168 O   0  0  0  0  0  0  0  0  0  0  0  0
    6.1557  -12.4962   26.1589 C   0  0  0  0  0  0  0  0  0  0  0  0
    7.4634  -12.8433   25.4355 C   0  0  1  0  0  0  0  0  0  0  0  0
    8.4715  -13.1417   26.5247 C   0  0  0  0  0  0  0  0  0  0  0  0
    7.1783  -14.1043   24.6537 C   0  0  0  0  0  0  0  0  0  0  0  0
    8.3580  -14.5434   23.8134 C   0  0  2  0  0  0  0  0  0  0  0  0
    8.0570  -15.6574   22.9715 N   0  0  0  0  0  0  0  0  0  0  0  0
    9.4307  -14.9319   24.7756 C   0  0  0  0  0  0  0  0  0  0  0  0
   10.1663  -14.0098   25.2226 O   0  0  0  0  0  0  0  0  0  0  0  0
   10.2621  -13.9025   29.4608 N   0  0  0  0  0  0  0  0  0  0  0  0
   10.9065  -15.1435   29.6933 C   0  0  0  0  0  0  0  0  0  0  0  0
   11.1811  -15.5017   30.8574 O   0  0  0  0  0  0  0  0  0  0  0  0
   11.2575  -16.0247   28.5385 C   0  0  0  0  0  0  0  0  0  0  0  0
   10.2958  -15.7423   27.4311 C   0  0  0  0  0  0  0  0  0  0  0  0
   10.6699  -16.5073   26.2022 C   0  0  2  0  0  0  0  0  0  0  0  0
    9.6371  -16.2604   25.1851 N   0  0  0  0  0  0  0  0  0  0  0  0
   10.7841  -17.9557   26.3546 C   0  0  0  0  0  0  0  0  0  0  0  0
   11.9480  -18.4965   26.9361 O   0  0  0  0  0  0  0  0  0  0  0  0
    9.8595  -18.7284   25.9747 O   0  0  0  0  0  0  0  0  0  0  0  0
  2  1  1  6
  2  3  1  0
  4  2  1  0
  4  5  2  0
  7  6  1  1
  7  9  1  0
  8  7  1  0
 10  9  1  1
 10 12  1  0
 10 11  1  0
 11  4  1  0
 12 13  2  0
 15 14  1  0
 16 15  2  0
 17 15  1  0
 18 17  1  0
 19 18  1  1
 20 19  1  0
 20 12  1  0
 21 19  1  0
 22 21  1  0
 23 21  2  0
M  END
$$$$
