ALQ.pdb
     RDKit          3D

 23 22  0  0  1  0  0  0  0  0999 V2000
    8.1388  -12.7644   19.9991 C   0  0  0  0  0  0  0  0  0  0  0  0
    7.9605  -14.1116   20.6226 C   0  0  2  0  0  0  0  0  0  0  0  0
    6.6073  -14.5937   20.5932 N   0  0  0  0  0  0  0  0  0  0  0  0
    8.4322  -14.0617   22.0504 C   0  0  0  0  0  0  0  0  0  0  0  0
    9.6494  -13.8876   22.2994 O   0  0  0  0  0  0  0  0  0  0  0  0
    5.6044  -12.0746   26.5138 C   0  0  0  0  0  0  0  0  0  0  0  0
    6.7682  -12.2884   25.5373 C   0  0  1  0  0  0  0  0  0  0  0  0
    7.9669  -11.6132   26.1689 C   0  0  0  0  0  0  0  0  0  0  0  0
    6.9970  -13.7811   25.4912 C   0  0  0  0  0  0  0  0  0  0  0  0
    8.0450  -14.1747   24.4726 C   0  0  2  0  0  0  0  0  0  0  0  0
    7.5384  -14.2064   23.1374 N   0  0  0  0  0  0  0  0  0  0  0  0
    8.5026  -15.5427   24.8558 C   0  0  0  0  0  0  0  0  0  0  0  0
    7.7386  -16.5062   24.5749 O   0  0  0  0  0  0  0  0  0  0  0  0
   12.7306  -19.7655   22.4722 N   0  0  0  0  0  0  0  0  0  0  0  0
   12.8814  -18.8365   23.5322 C   0  0  0  0  0  0  0  0  0  0  0  0
   13.8951  -18.1101   23.5931 O   0  0  0  0  0  0  0  0  0  0  0  0
   11.8212  -18.7281   24.5798 C   0  0  0  0  0  0  0  0  0  0  0  0
   11.2777  -17.3373   24.5468 C   0  0  0  0  0  0  0  0  0  0  0  0
   10.2043  -17.1679   25.5737 C   0  0  2  0  0  0  0  0  0  0  0  0
    9.7276  -15.7788   25.5031 N   0  0  0  0  0  0  0  0  0  0  0  0
   10.5931  -17.4180   26.9595 C   0  0  0  0  0  0  0  0  0  0  0  0
   10.9236  -18.7293   27.3553 O   0  0  0  0  0  0  0  0  0  0  0  0
   10.6374  -16.4809   27.8059 O   0  0  0  0  0  0  0  0  0  0  0  0
  2  1  1  1
  2  3  1  0
  4  2  1  0
  4  5  2  0
  7  6  1  1
  7  9  1  0
  8  7  1  0
 10  9  1  1
 10 12  1  0
 10 11  1  0
 11  4  1  0
 12 13  2  0
 15 14  1  0
 16 15  2  0
 17 15  1  0
 18 17  1  0
 19 18  1  6
 20 19  1  0
 20 12  1  0
 21 19  1  0
 22 21  1  0
 23 21  2  0
M  END
$$$$
