GLM.pdb
     RDKit          3D

 21 20  0  0  1  0  0  0  0  0999 V2000
    7.8900  -16.6733   19.4890 N   0  0  0  0  0  0  0  0  0  0  0  0
    7.2648  -16.6719   20.7875 C   0  0  0  0  0  0  0  0  0  0  0  0
    8.1183  -15.9894   21.7904 C   0  0  0  0  0  0  0  0  0  0  0  0
    9.2999  -15.6549   21.5524 O   0  0  0  0  0  0  0  0  0  0  0  0
    7.9434  -12.0766   24.6115 C   0  0  0  0  0  0  0  0  0  0  0  0
    6.8623  -13.0470   25.0075 C   0  0  2  0  0  0  0  0  0  0  0  0
    6.1061  -12.5637   26.2262 C   0  0  0  0  0  0  0  0  0  0  0  0
    7.2626  -14.4703   25.0916 C   0  0  0  0  0  0  0  0  0  0  0  0
    8.2495  -14.9729   24.1058 C   0  0  2  0  0  0  0  0  0  0  0  0
    7.5629  -15.7112   23.0624 N   0  0  0  0  0  0  0  0  0  0  0  0
    9.1308  -15.9446   24.8689 C   0  0  0  0  0  0  0  0  0  0  0  0
    8.7400  -17.1009   25.1181 O   0  0  0  0  0  0  0  0  0  0  0  0
   10.3527  -13.2856   28.6488 C   0  0  0  0  0  0  0  0  0  0  0  0
   10.4175  -14.8571   29.5043 S   0  0  0  0  0  0  0  0  0  0  0  0
   11.2573  -16.1475   28.5462 C   0  0  0  0  0  0  0  0  0  0  0  0
   11.8405  -15.6255   27.2692 C   0  0  0  0  0  0  0  0  0  0  0  0
   11.3038  -16.3530   26.0954 C   0  0  2  0  0  0  0  0  0  0  0  0
   10.3963  -15.5440   25.3000 N   0  0  0  0  0  0  0  0  0  0  0  0
   10.5823  -17.5625   26.5138 C   0  0  0  0  0  0  0  0  0  0  0  0
   11.1795  -18.8149   26.2478 O   0  0  0  0  0  0  0  0  0  0  0  0
    9.4849  -17.6118   27.0864 O   0  0  0  0  0  0  0  0  0  0  0  0
  1  2  1  0
  2  3  1  0
  3 10  1  0
  3  4  2  0
  6  5  1  1
  7  6  1  0
  9  8  1  1
  8  6  1  0
  9 11  1  0
 10  9  1  0
 11 12  2  0
 14 13  1  0
 15 16  1  0
 15 14  1  0
 17 16  1  1
 17 19  1  0
 18 11  1  0
 18 17  1  0
 19 20  1  0
 21 19  2  0
M  END
$$$$
