GLM.pdb
     RDKit          3D

 21 20  0  0  1  0  0  0  0  0999 V2000
    7.4662  -16.7834   19.5105 N   0  0  0  0  0  0  0  0  0  0  0  0
    6.9208  -16.7566   20.8443 C   0  0  0  0  0  0  0  0  0  0  0  0
    7.7689  -15.9459   21.7518 C   0  0  0  0  0  0  0  0  0  0  0  0
    8.9009  -15.5287   21.4211 O   0  0  0  0  0  0  0  0  0  0  0  0
    8.0288  -11.9832   24.7059 C   0  0  0  0  0  0  0  0  0  0  0  0
    6.8194  -12.8202   25.0289 C   0  0  2  0  0  0  0  0  0  0  0  0
    6.1273  -12.3294   26.2822 C   0  0  0  0  0  0  0  0  0  0  0  0
    7.0166  -14.2877   25.0037 C   0  0  0  0  0  0  0  0  0  0  0  0
    7.9785  -14.8418   24.0208 C   0  0  2  0  0  0  0  0  0  0  0  0
    7.2669  -15.6388   23.0392 N   0  0  0  0  0  0  0  0  0  0  0  0
    8.8842  -15.7672   24.8124 C   0  0  0  0  0  0  0  0  0  0  0  0
    8.4493  -16.8329   25.2887 O   0  0  0  0  0  0  0  0  0  0  0  0
    9.9612  -13.7427   29.8848 C   0  0  0  0  0  0  0  0  0  0  0  0
   10.9851  -15.1979   30.0837 S   0  0  0  0  0  0  0  0  0  0  0  0
   11.4453  -15.9577   28.5028 C   0  0  0  0  0  0  0  0  0  0  0  0
   10.9688  -15.1644   27.3251 C   0  0  0  0  0  0  0  0  0  0  0  0
   11.0692  -15.9483   26.0718 C   0  0  2  0  0  0  0  0  0  0  0  0
   10.2225  -15.4257   25.0132 N   0  0  0  0  0  0  0  0  0  0  0  0
   10.6944  -17.3504   26.2996 C   0  0  0  0  0  0  0  0  0  0  0  0
   11.6941  -18.3366   26.1445 O   0  0  0  0  0  0  0  0  0  0  0  0
    9.5765  -17.7778   26.6196 O   0  0  0  0  0  0  0  0  0  0  0  0
  1  2  1  0
  2  3  1  0
  3 10  1  0
  3  4  2  0
  6  5  1  1
  7  6  1  0
  9  8  1  1
  8  6  1  0
  9 11  1  0
 10  9  1  0
 11 12  2  0
 14 13  1  0
 15 16  1  0
 15 14  1  0
 17 16  1  1
 17 19  1  0
 18 11  1  0
 18 17  1  0
 19 20  1  0
 21 19  2  0
M  END
$$$$
