GLM.pdb
     RDKit          3D

 21 20  0  0  1  0  0  0  0  0999 V2000
    5.6956  -19.4862   22.0889 N   0  0  0  0  0  0  0  0  0  0  0  0
    5.7046  -18.0810   22.4091 C   0  0  0  0  0  0  0  0  0  0  0  0
    7.0115  -17.4651   22.0734 C   0  0  0  0  0  0  0  0  0  0  0  0
    8.0698  -18.1284   22.0032 O   0  0  0  0  0  0  0  0  0  0  0  0
    8.8907  -14.3471   18.7235 C   0  0  0  0  0  0  0  0  0  0  0  0
    7.7579  -13.8360   19.5737 C   0  0  2  0  0  0  0  0  0  0  0  0
    7.3377  -12.4438   19.1544 C   0  0  0  0  0  0  0  0  0  0  0  0
    7.9239  -13.9830   21.0379 C   0  0  0  0  0  0  0  0  0  0  0  0
    8.2666  -15.3253   21.5661 C   0  0  2  0  0  0  0  0  0  0  0  0
    7.0499  -16.0721   21.8250 N   0  0  0  0  0  0  0  0  0  0  0  0
    8.9591  -15.0775   22.8936 C   0  0  0  0  0  0  0  0  0  0  0  0
   10.1608  -14.7519   22.9361 O   0  0  0  0  0  0  0  0  0  0  0  0
    6.0879  -11.3033   27.0031 C   0  0  0  0  0  0  0  0  0  0  0  0
    7.0821  -12.2244   28.1732 S   0  0  0  0  0  0  0  0  0  0  0  0
    8.2297  -13.3762   27.3703 C   0  0  0  0  0  0  0  0  0  0  0  0
    7.6955  -13.9095   26.0767 C   0  0  0  0  0  0  0  0  0  0  0  0
    8.6984  -14.7550   25.3878 C   0  0  2  0  0  0  0  0  0  0  0  0
    8.2464  -15.2144   24.0857 N   0  0  0  0  0  0  0  0  0  0  0  0
    9.0292  -15.9375   26.1943 C   0  0  0  0  0  0  0  0  0  0  0  0
    9.7837  -15.7449   27.3732 O   0  0  0  0  0  0  0  0  0  0  0  0
    8.7155  -17.1117   25.9543 O   0  0  0  0  0  0  0  0  0  0  0  0
  1  2  1  0
  2  3  1  0
  3 10  1  0
  3  4  2  0
  6  5  1  6
  7  6  1  0
  9  8  1  1
  8  6  1  0
  9 11  1  0
 10  9  1  0
 11 12  2  0
 14 13  1  0
 15 16  1  0
 15 14  1  0
 17 16  1  1
 17 19  1  0
 18 11  1  0
 18 17  1  0
 19 20  1  0
 21 19  2  0
M  END
$$$$
