GLM.pdb
     RDKit          3D

 21 20  0  0  1  0  0  0  0  0999 V2000
    6.1416  -19.7706   22.9945 N   0  0  0  0  0  0  0  0  0  0  0  0
    6.1746  -18.9513   24.1797 C   0  0  0  0  0  0  0  0  0  0  0  0
    6.8771  -17.6703   23.9241 C   0  0  0  0  0  0  0  0  0  0  0  0
    7.6950  -17.5264   22.9885 O   0  0  0  0  0  0  0  0  0  0  0  0
    6.4797  -12.0415   26.6893 C   0  0  0  0  0  0  0  0  0  0  0  0
    7.0871  -12.9335   25.6392 C   0  0  2  0  0  0  0  0  0  0  0  0
    7.1549  -12.2384   24.2965 C   0  0  0  0  0  0  0  0  0  0  0  0
    6.5465  -14.3100   25.5609 C   0  0  0  0  0  0  0  0  0  0  0  0
    7.2111  -15.2652   24.6419 C   0  0  2  0  0  0  0  0  0  0  0  0
    6.6031  -16.5754   24.7784 N   0  0  0  0  0  0  0  0  0  0  0  0
    8.6481  -15.3601   25.1206 C   0  0  0  0  0  0  0  0  0  0  0  0
    9.4144  -14.3813   25.0393 O   0  0  0  0  0  0  0  0  0  0  0  0
   10.0320  -13.0288   28.8482 C   0  0  0  0  0  0  0  0  0  0  0  0
   11.0776  -14.4208   29.2665 S   0  0  0  0  0  0  0  0  0  0  0  0
   11.5734  -15.3910   27.8170 C   0  0  0  0  0  0  0  0  0  0  0  0
   10.6580  -16.5485   27.5613 C   0  0  0  0  0  0  0  0  0  0  0  0
   10.4857  -16.7880   26.1094 C   0  0  2  0  0  0  0  0  0  0  0  0
    9.1237  -16.5564   25.6598 N   0  0  0  0  0  0  0  0  0  0  0  0
   10.8485  -18.1679   25.7594 C   0  0  0  0  0  0  0  0  0  0  0  0
   12.2213  -18.4961   25.6973 O   0  0  0  0  0  0  0  0  0  0  0  0
   10.0712  -19.0989   25.5067 O   0  0  0  0  0  0  0  0  0  0  0  0
  1  2  1  0
  2  3  1  0
  3 10  1  0
  3  4  2  0
  6  5  1  1
  7  6  1  0
  9  8  1  1
  8  6  1  0
  9 11  1  0
 10  9  1  0
 11 12  2  0
 14 13  1  0
 15 16  1  0
 15 14  1  0
 17 16  1  1
 17 19  1  0
 18 11  1  0
 18 17  1  0
 19 20  1  0
 21 19  2  0
M  END
$$$$
