GLM.pdb
     RDKit          3D

 21 20  0  0  1  0  0  0  0  0999 V2000
    5.8297  -19.4294   22.9104 N   0  0  0  0  0  0  0  0  0  0  0  0
    5.9148  -18.5862   24.0762 C   0  0  0  0  0  0  0  0  0  0  0  0
    6.7564  -17.3937   23.8125 C   0  0  0  0  0  0  0  0  0  0  0  0
    7.4904  -17.2978   22.8041 O   0  0  0  0  0  0  0  0  0  0  0  0
    7.2094  -11.9787   24.5802 C   0  0  0  0  0  0  0  0  0  0  0  0
    6.4894  -12.9591   25.4678 C   0  0  2  0  0  0  0  0  0  0  0  0
    5.9288  -12.2804   26.6990 C   0  0  0  0  0  0  0  0  0  0  0  0
    7.2098  -14.2176   25.7681 C   0  0  0  0  0  0  0  0  0  0  0  0
    7.5213  -15.1255   24.6380 C   0  0  2  0  0  0  0  0  0  0  0  0
    6.7189  -16.3295   24.7451 N   0  0  0  0  0  0  0  0  0  0  0  0
    8.9781  -15.5126   24.8144 C   0  0  0  0  0  0  0  0  0  0  0  0
    9.8700  -14.9694   24.1353 O   0  0  0  0  0  0  0  0  0  0  0  0
   11.1901  -14.9015   30.9484 C   0  0  0  0  0  0  0  0  0  0  0  0
   10.7008  -14.1109   29.4183 S   0  0  0  0  0  0  0  0  0  0  0  0
   10.0947  -15.2878   28.1789 C   0  0  0  0  0  0  0  0  0  0  0  0
   11.1323  -15.6251   27.1529 C   0  0  0  0  0  0  0  0  0  0  0  0
   10.6713  -16.7128   26.2586 C   0  0  2  0  0  0  0  0  0  0  0  0
    9.3298  -16.4890   25.7476 N   0  0  0  0  0  0  0  0  0  0  0  0
   10.6788  -18.0046   26.9581 C   0  0  0  0  0  0  0  0  0  0  0  0
   11.9246  -18.5252   27.3740 O   0  0  0  0  0  0  0  0  0  0  0  0
    9.6954  -18.7066   27.2318 O   0  0  0  0  0  0  0  0  0  0  0  0
  1  2  1  0
  2  3  1  0
  3 10  1  0
  3  4  2  0
  6  5  1  1
  7  6  1  0
  9  8  1  1
  8  6  1  0
  9 11  1  0
 10  9  1  0
 11 12  2  0
 14 13  1  0
 15 16  1  0
 15 14  1  0
 17 16  1  1
 17 19  1  0
 18 11  1  0
 18 17  1  0
 19 20  1  0
 21 19  2  0
M  END
$$$$
