GLM.pdb
     RDKit          3D

 21 20  0  0  1  0  0  0  0  0999 V2000
    6.0841  -19.0837   21.0995 N   0  0  0  0  0  0  0  0  0  0  0  0
    5.9958  -17.7551   21.6509 C   0  0  0  0  0  0  0  0  0  0  0  0
    7.2868  -17.0363   21.5217 C   0  0  0  0  0  0  0  0  0  0  0  0
    8.3697  -17.6291   21.3204 O   0  0  0  0  0  0  0  0  0  0  0  0
    8.5840  -14.1660   18.5438 C   0  0  0  0  0  0  0  0  0  0  0  0
    7.6755  -13.5012   19.5439 C   0  0  2  0  0  0  0  0  0  0  0  0
    7.2212  -12.1417   19.0584 C   0  0  0  0  0  0  0  0  0  0  0  0
    8.1449  -13.4962   20.9485 C   0  0  0  0  0  0  0  0  0  0  0  0
    8.4718  -14.7993   21.5756 C   0  0  2  0  0  0  0  0  0  0  0  0
    7.2802  -15.6251   21.6321 N   0  0  0  0  0  0  0  0  0  0  0  0
    8.8886  -14.4750   22.9984 C   0  0  0  0  0  0  0  0  0  0  0  0
    9.2696  -13.3299   23.3069 O   0  0  0  0  0  0  0  0  0  0  0  0
    7.9531  -12.0667   28.1835 C   0  0  0  0  0  0  0  0  0  0  0  0
    6.6014  -12.6301   27.1533 S   0  0  0  0  0  0  0  0  0  0  0  0
    6.6474  -14.4163   26.8442 C   0  0  0  0  0  0  0  0  0  0  0  0
    7.0202  -14.7442   25.4311 C   0  0  0  0  0  0  0  0  0  0  0  0
    8.4017  -15.2730   25.3477 C   0  0  2  0  0  0  0  0  0  0  0  0
    8.8468  -15.4678   23.9784 N   0  0  0  0  0  0  0  0  0  0  0  0
    8.5128  -16.5606   26.0464 C   0  0  0  0  0  0  0  0  0  0  0  0
    8.8446  -17.7018   25.2825 O   0  0  0  0  0  0  0  0  0  0  0  0
    8.3452  -16.7658   27.2565 O   0  0  0  0  0  0  0  0  0  0  0  0
  1  2  1  0
  2  3  1  0
  3 10  1  0
  3  4  2  0
  6  5  1  6
  7  6  1  0
  9  8  1  6
  8  6  1  0
  9 11  1  0
 10  9  1  0
 11 12  2  0
 14 13  1  0
 15 16  1  0
 15 14  1  0
 17 16  1  6
 17 19  1  0
 18 11  1  0
 18 17  1  0
 19 20  1  0
 21 19  2  0
M  END
$$$$
