GLM.pdb
     RDKit          3D

 21 20  0  0  1  0  0  0  0  0999 V2000
    7.8644  -17.8346   19.7585 N   0  0  0  0  0  0  0  0  0  0  0  0
    7.1966  -17.5343   20.9998 C   0  0  0  0  0  0  0  0  0  0  0  0
    7.8899  -16.4446   21.7292 C   0  0  0  0  0  0  0  0  0  0  0  0
    9.0419  -16.0607   21.4290 O   0  0  0  0  0  0  0  0  0  0  0  0
    6.1164  -12.6057   26.3623 C   0  0  0  0  0  0  0  0  0  0  0  0
    7.1557  -13.0537   25.3691 C   0  0  2  0  0  0  0  0  0  0  0  0
    7.7993  -11.8737   24.6735 C   0  0  0  0  0  0  0  0  0  0  0  0
    6.7472  -14.1316   24.4394 C   0  0  0  0  0  0  0  0  0  0  0  0
    7.8104  -14.8344   23.6817 C   0  0  2  0  0  0  0  0  0  0  0  0
    7.2112  -15.8226   22.8046 N   0  0  0  0  0  0  0  0  0  0  0  0
    8.6373  -15.5671   24.7222 C   0  0  0  0  0  0  0  0  0  0  0  0
    8.1107  -16.3960   25.4885 O   0  0  0  0  0  0  0  0  0  0  0  0
    9.6357  -13.3594   29.5457 C   0  0  0  0  0  0  0  0  0  0  0  0
   10.5558  -14.8812   29.7545 S   0  0  0  0  0  0  0  0  0  0  0  0
   11.3161  -15.4624   28.2143 C   0  0  0  0  0  0  0  0  0  0  0  0
   10.3005  -15.8640   27.1894 C   0  0  0  0  0  0  0  0  0  0  0  0
   10.8880  -15.8863   25.8294 C   0  0  2  0  0  0  0  0  0  0  0  0
   10.0057  -15.3136   24.8271 N   0  0  0  0  0  0  0  0  0  0  0  0
   11.2064  -17.2605   25.4189 C   0  0  0  0  0  0  0  0  0  0  0  0
   12.3552  -17.8677   25.9735 O   0  0  0  0  0  0  0  0  0  0  0  0
   10.5687  -17.9648   24.6239 O   0  0  0  0  0  0  0  0  0  0  0  0
  1  2  1  0
  2  3  1  0
  3 10  1  0
  3  4  2  0
  6  5  1  6
  7  6  1  0
  9  8  1  1
  8  6  1  0
  9 11  1  0
 10  9  1  0
 11 12  2  0
 14 13  1  0
 15 16  1  0
 15 14  1  0
 17 16  1  1
 17 19  1  0
 18 11  1  0
 18 17  1  0
 19 20  1  0
 21 19  2  0
M  END
$$$$
