GLM.pdb
     RDKit          3D

 21 20  0  0  1  0  0  0  0  0999 V2000
    6.1868  -19.4126   22.9702 N   0  0  0  0  0  0  0  0  0  0  0  0
    6.0958  -18.5467   24.1187 C   0  0  0  0  0  0  0  0  0  0  0  0
    6.8838  -17.3065   23.9163 C   0  0  0  0  0  0  0  0  0  0  0  0
    7.6732  -17.1598   22.9571 O   0  0  0  0  0  0  0  0  0  0  0  0
    7.5403  -11.9721   24.4413 C   0  0  0  0  0  0  0  0  0  0  0  0
    6.4873  -12.6506   25.2770 C   0  0  2  0  0  0  0  0  0  0  0  0
    6.0009  -11.7488   26.3908 C   0  0  0  0  0  0  0  0  0  0  0  0
    6.8001  -14.0256   25.7295 C   0  0  0  0  0  0  0  0  0  0  0  0
    7.3829  -14.9654   24.7418 C   0  0  2  0  0  0  0  0  0  0  0  0
    6.7279  -16.2553   24.8514 N   0  0  0  0  0  0  0  0  0  0  0  0
    8.8347  -15.1377   25.1491 C   0  0  0  0  0  0  0  0  0  0  0  0
    9.6731  -14.2459   24.9179 O   0  0  0  0  0  0  0  0  0  0  0  0
   12.0036  -14.2490   29.4129 C   0  0  0  0  0  0  0  0  0  0  0  0
   10.3820  -14.3047   28.6558 S   0  0  0  0  0  0  0  0  0  0  0  0
    9.7585  -15.9948   28.4479 C   0  0  0  0  0  0  0  0  0  0  0  0
   10.7009  -16.8622   27.6716 C   0  0  0  0  0  0  0  0  0  0  0  0
   10.6007  -16.5986   26.2170 C   0  0  2  0  0  0  0  0  0  0  0  0
    9.2423  -16.3079   25.7913 N   0  0  0  0  0  0  0  0  0  0  0  0
   11.0804  -17.7506   25.4417 C   0  0  0  0  0  0  0  0  0  0  0  0
   12.4182  -18.1643   25.6297 O   0  0  0  0  0  0  0  0  0  0  0  0
   10.4320  -18.4168   24.6230 O   0  0  0  0  0  0  0  0  0  0  0  0
  1  2  1  0
  2  3  1  0
  3 10  1  0
  3  4  2  0
  6  5  1  1
  7  6  1  0
  9  8  1  1
  8  6  1  0
  9 11  1  0
 10  9  1  0
 11 12  2  0
 14 13  1  0
 15 16  1  0
 15 14  1  0
 17 16  1  1
 17 19  1  0
 18 11  1  0
 18 17  1  0
 19 20  1  0
 21 19  2  0
M  END
$$$$
