GLM.pdb
     RDKit          3D

 21 20  0  0  1  0  0  0  0  0999 V2000
   10.8762  -18.6634   18.8112 N   0  0  0  0  0  0  0  0  0  0  0  0
    9.8209  -18.3665   19.7468 C   0  0  0  0  0  0  0  0  0  0  0  0
   10.0170  -17.0339   20.3678 C   0  0  0  0  0  0  0  0  0  0  0  0
   11.1475  -16.5930   20.6719 O   0  0  0  0  0  0  0  0  0  0  0  0
    9.1233  -12.7203   19.4127 C   0  0  0  0  0  0  0  0  0  0  0  0
    7.8532  -13.4821   19.6847 C   0  0  2  0  0  0  0  0  0  0  0  0
    6.6310  -12.6564   19.3454 C   0  0  0  0  0  0  0  0  0  0  0  0
    7.7630  -14.1493   21.0037 C   0  0  0  0  0  0  0  0  0  0  0  0
    8.8855  -15.0259   21.4161 C   0  0  2  0  0  0  0  0  0  0  0  0
    8.8731  -16.2395   20.6211 N   0  0  0  0  0  0  0  0  0  0  0  0
    8.6003  -15.4039   22.8580 C   0  0  0  0  0  0  0  0  0  0  0  0
    7.7117  -16.2309   23.1376 O   0  0  0  0  0  0  0  0  0  0  0  0
    6.1592  -11.1723   26.2607 C   0  0  0  0  0  0  0  0  0  0  0  0
    6.0393  -12.6462   27.2703 S   0  0  0  0  0  0  0  0  0  0  0  0
    7.3665  -13.8369   26.9401 C   0  0  0  0  0  0  0  0  0  0  0  0
    7.8085  -13.8206   25.5091 C   0  0  0  0  0  0  0  0  0  0  0  0
    8.9298  -14.7620   25.2813 C   0  0  2  0  0  0  0  0  0  0  0  0
    9.3393  -14.8212   23.8886 N   0  0  0  0  0  0  0  0  0  0  0  0
    8.5664  -16.1214   25.7036 C   0  0  0  0  0  0  0  0  0  0  0  0
    8.9549  -16.5392   26.9961 O   0  0  0  0  0  0  0  0  0  0  0  0
    7.9439  -16.9633   25.0415 O   0  0  0  0  0  0  0  0  0  0  0  0
  1  2  1  0
  2  3  1  0
  3 10  1  0
  3  4  2  0
  6  5  1  1
  7  6  1  0
  9  8  1  6
  8  6  1  0
  9 11  1  0
 10  9  1  0
 11 12  2  0
 14 13  1  0
 15 16  1  0
 15 14  1  0
 17 16  1  6
 17 19  1  0
 18 11  1  0
 18 17  1  0
 19 20  1  0
 21 19  2  0
M  END
$$$$
