GLM.pdb
     RDKit          3D

 21 20  0  0  1  0  0  0  0  0999 V2000
    6.7373  -18.4992   20.5670 N   0  0  0  0  0  0  0  0  0  0  0  0
    6.5069  -18.2098   21.9600 C   0  0  0  0  0  0  0  0  0  0  0  0
    7.3174  -17.0504   22.4058 C   0  0  0  0  0  0  0  0  0  0  0  0
    8.3988  -16.7361   21.8611 O   0  0  0  0  0  0  0  0  0  0  0  0
    6.3621  -12.5198   26.6369 C   0  0  0  0  0  0  0  0  0  0  0  0
    7.2613  -13.2052   25.6423 C   0  0  2  0  0  0  0  0  0  0  0  0
    7.9215  -12.2072   24.7158 C   0  0  0  0  0  0  0  0  0  0  0  0
    6.6819  -14.3696   24.9339 C   0  0  0  0  0  0  0  0  0  0  0  0
    7.5951  -15.2181   24.1312 C   0  0  2  0  0  0  0  0  0  0  0  0
    6.8384  -16.2773   23.4905 N   0  0  0  0  0  0  0  0  0  0  0  0
    8.5446  -15.8546   25.1295 C   0  0  0  0  0  0  0  0  0  0  0  0
    8.1107  -16.4417   26.1388 O   0  0  0  0  0  0  0  0  0  0  0  0
   10.1670  -13.3528   29.5754 C   0  0  0  0  0  0  0  0  0  0  0  0
   11.4546  -14.5859   29.7412 S   0  0  0  0  0  0  0  0  0  0  0  0
   11.6839  -15.5725   28.2371 C   0  0  0  0  0  0  0  0  0  0  0  0
   10.7262  -15.1921   27.1502 C   0  0  0  0  0  0  0  0  0  0  0  0
   10.9357  -16.0147   25.9359 C   0  0  2  0  0  0  0  0  0  0  0  0
    9.9227  -15.7847   24.9201 N   0  0  0  0  0  0  0  0  0  0  0  0
   10.9283  -17.4464   26.2654 C   0  0  0  0  0  0  0  0  0  0  0  0
   12.1686  -18.0742   26.5173 O   0  0  0  0  0  0  0  0  0  0  0  0
    9.9365  -18.1839   26.3499 O   0  0  0  0  0  0  0  0  0  0  0  0
  1  2  1  0
  2  3  1  0
  3 10  1  0
  3  4  2  0
  6  5  1  6
  7  6  1  0
  9  8  1  1
  8  6  1  0
  9 11  1  0
 10  9  1  0
 11 12  2  0
 14 13  1  0
 15 16  1  0
 15 14  1  0
 17 16  1  1
 17 19  1  0
 18 11  1  0
 18 17  1  0
 19 20  1  0
 21 19  2  0
M  END
$$$$
