NDK.pdb
     RDKit          3D

 26 25  0  0  1  0  0  0  0  0999 V2000
    7.9268  -12.4097   17.7603 N   0  0  0  0  0  0  0  0  0  0  0  0
    8.0081  -12.6909   19.1415 C   0  0  0  0  0  0  0  0  0  0  0  0
    7.3426  -12.0484   19.9840 O   0  0  0  0  0  0  0  0  0  0  0  0
    8.8961  -13.7676   19.6200 C   0  0  0  0  0  0  0  0  0  0  0  0
    9.6580  -14.3773   18.4485 C   0  0  2  0  0  0  0  0  0  0  0  0
    8.6917  -14.8393   17.4760 N   0  0  0  0  0  0  0  0  0  0  0  0
   10.5175  -15.4532   18.9543 C   0  0  0  0  0  0  0  0  0  0  0  0
   10.5947  -16.5295   18.3088 O   0  0  0  0  0  0  0  0  0  0  0  0
   11.2469  -15.2671   20.1599 N   0  0  0  0  0  0  0  0  0  0  0  0
   12.3575  -16.1178   20.5416 C   0  0  1  0  0  0  0  0  0  0  0  0
   13.3762  -16.0807   19.4309 C   0  0  0  0  0  0  0  0  0  0  0  0
   14.2748  -17.2538   19.5356 C   0  0  0  0  0  0  0  0  0  0  0  0
   15.3258  -17.2849   20.2256 O   0  0  0  0  0  0  0  0  0  0  0  0
   12.9547  -15.6547   21.8309 C   0  0  0  0  0  0  0  0  0  0  0  0
   13.8104  -14.7546   21.9176 O   0  0  0  0  0  0  0  0  0  0  0  0
   13.9999  -18.4471   18.8465 O   0  0  0  0  0  0  0  0  0  0  0  0
   12.5237  -16.2739   23.0276 N   0  0  0  0  0  0  0  0  0  0  0  0
   12.9742  -15.7635   24.3478 C   0  0  1  0  0  0  0  0  0  0  0  0
   12.0963  -16.3037   25.4233 C   0  0  0  0  0  0  0  0  0  0  0  0
   12.0835  -15.3943   26.6135 C   0  0  0  0  0  0  0  0  0  0  0  0
   11.1512  -15.9096   27.7060 C   0  0  0  0  0  0  0  0  0  0  0  0
   11.0647  -14.9661   28.8665 C   0  0  0  0  0  0  0  0  0  0  0  0
   10.1223  -15.5071   29.8570 N   0  0  0  0  0  0  0  0  0  0  0  0
   14.3962  -16.0442   24.5350 C   0  0  0  0  0  0  0  0  0  0  0  0
   15.2296  -15.2882   25.0725 O   0  0  0  0  0  0  0  0  0  0  0  0
   14.8893  -17.2837   24.0693 O   0  0  0  0  0  0  0  0  0  0  0  0
  2  3  2  0
  2  1  1  0
  4  5  1  0
  4  2  1  0
  5  7  1  0
  5  6  1  6
  7  8  2  0
  9 10  1  0
  9  7  1  0
 10 14  1  0
 11 12  1  0
 10 11  1  6
 12 16  1  0
 13 12  2  0
 14 17  1  0
 14 15  2  0
 17 18  1  0
 18 24  1  0
 18 19  1  1
 20 21  1  0
 20 19  1  0
 22 21  1  0
 23 22  1  0
 24 26  1  0
 25 24  2  0
M  END
$$$$
