NDK.pdb
     RDKit          3D

 26 25  0  0  1  0  0  0  0  0999 V2000
   15.3215  -14.8000   16.1698 N   0  0  0  0  0  0  0  0  0  0  0  0
   14.7421  -14.4534   17.4097 C   0  0  0  0  0  0  0  0  0  0  0  0
   15.2937  -13.6469   18.1912 O   0  0  0  0  0  0  0  0  0  0  0  0
   13.4527  -15.0491   17.8092 C   0  0  0  0  0  0  0  0  0  0  0  0
   13.4166  -15.2548   19.3195 C   0  0  2  0  0  0  0  0  0  0  0  0
   14.6854  -15.8180   19.7265 N   0  0  0  0  0  0  0  0  0  0  0  0
   12.2771  -16.1175   19.6502 C   0  0  0  0  0  0  0  0  0  0  0  0
   11.3187  -16.2027   18.8407 O   0  0  0  0  0  0  0  0  0  0  0  0
   12.2703  -16.8410   20.8736 N   0  0  0  0  0  0  0  0  0  0  0  0
   11.2094  -17.7624   21.2317 C   0  0  1  0  0  0  0  0  0  0  0  0
   11.8446  -19.0603   21.6615 C   0  0  0  0  0  0  0  0  0  0  0  0
   10.7920  -20.0353   22.0306 C   0  0  0  0  0  0  0  0  0  0  0  0
    9.7324  -20.2184   21.3785 O   0  0  0  0  0  0  0  0  0  0  0  0
   10.3653  -17.1919   22.3251 C   0  0  0  0  0  0  0  0  0  0  0  0
    9.3889  -17.7781   22.8279 O   0  0  0  0  0  0  0  0  0  0  0  0
   10.9156  -20.8448   23.1724 O   0  0  0  0  0  0  0  0  0  0  0  0
   10.6929  -15.9085   22.8218 N   0  0  0  0  0  0  0  0  0  0  0  0
    9.6860  -15.1038   23.5600 C   0  0  1  0  0  0  0  0  0  0  0  0
    8.5766  -14.7202   22.6427 C   0  0  0  0  0  0  0  0  0  0  0  0
    9.0966  -13.9685   21.4560 C   0  0  0  0  0  0  0  0  0  0  0  0
    7.9734  -13.5804   20.4988 C   0  0  0  0  0  0  0  0  0  0  0  0
    8.4938  -12.9542   19.2413 C   0  0  0  0  0  0  0  0  0  0  0  0
    7.3611  -12.6239   18.3639 N   0  0  0  0  0  0  0  0  0  0  0  0
    9.2543  -15.8189   24.7593 C   0  0  0  0  0  0  0  0  0  0  0  0
    9.2197  -15.3573   25.9172 O   0  0  0  0  0  0  0  0  0  0  0  0
    8.8334  -17.1594   24.6105 O   0  0  0  0  0  0  0  0  0  0  0  0
  2  3  2  0
  2  1  1  0
  4  5  1  0
  4  2  1  0
  5  7  1  0
  5  6  1  6
  7  8  2  0
  9 10  1  0
  9  7  1  0
 10 14  1  0
 11 12  1  0
 10 11  1  1
 12 16  1  0
 13 12  2  0
 14 17  1  0
 14 15  2  0
 17 18  1  0
 18 24  1  0
 18 19  1  6
 20 21  1  0
 20 19  1  0
 22 21  1  0
 23 22  1  0
 24 26  1  0
 25 24  2  0
M  END
$$$$
