NDK.pdb
     RDKit          3D

 26 25  0  0  1  0  0  0  0  0999 V2000
    7.0237  -18.1946   16.6576 N   0  0  0  0  0  0  0  0  0  0  0  0
    7.5769  -16.9261   16.9369 C   0  0  0  0  0  0  0  0  0  0  0  0
    8.2927  -16.3231   16.1066 O   0  0  0  0  0  0  0  0  0  0  0  0
    7.3134  -16.2809   18.2374 C   0  0  0  0  0  0  0  0  0  0  0  0
    8.6208  -15.8012   18.8582 C   0  0  2  0  0  0  0  0  0  0  0  0
    9.7071  -16.2287   18.0038 N   0  0  0  0  0  0  0  0  0  0  0  0
    8.7206  -16.3381   20.2198 C   0  0  0  0  0  0  0  0  0  0  0  0
    7.6954  -16.3550   20.9477 O   0  0  0  0  0  0  0  0  0  0  0  0
    9.9665  -16.8286   20.6963 N   0  0  0  0  0  0  0  0  0  0  0  0
   10.1285  -17.3980   22.0201 C   0  0  1  0  0  0  0  0  0  0  0  0
   11.3695  -18.2539   22.0107 C   0  0  0  0  0  0  0  0  0  0  0  0
   11.5439  -18.8983   23.3332 C   0  0  0  0  0  0  0  0  0  0  0  0
   10.8381  -19.8478   23.7600 O   0  0  0  0  0  0  0  0  0  0  0  0
   10.2316  -16.3174   23.0474 C   0  0  0  0  0  0  0  0  0  0  0  0
   11.1522  -15.4802   23.0863 O   0  0  0  0  0  0  0  0  0  0  0  0
   12.5434  -18.4744   24.2251 O   0  0  0  0  0  0  0  0  0  0  0  0
    9.2238  -16.2376   24.0368 N   0  0  0  0  0  0  0  0  0  0  0  0
    9.2694  -15.1802   25.0790 C   0  0  1  0  0  0  0  0  0  0  0  0
    8.0000  -14.4007   25.0620 C   0  0  0  0  0  0  0  0  0  0  0  0
    7.9899  -13.3672   26.1463 C   0  0  0  0  0  0  0  0  0  0  0  0
    6.6686  -12.6049   26.1853 C   0  0  0  0  0  0  0  0  0  0  0  0
    6.6593  -11.5441   27.2431 C   0  0  0  0  0  0  0  0  0  0  0  0
    5.3928  -10.8010   27.1680 N   0  0  0  0  0  0  0  0  0  0  0  0
    9.5960  -15.7687   26.3763 C   0  0  0  0  0  0  0  0  0  0  0  0
   10.0574  -15.1617   27.3631 O   0  0  0  0  0  0  0  0  0  0  0  0
    9.3743  -17.1538   26.5452 O   0  0  0  0  0  0  0  0  0  0  0  0
  2  3  2  0
  2  1  1  0
  4  5  1  0
  4  2  1  0
  5  7  1  0
  5  6  1  6
  7  8  2  0
  9 10  1  0
  9  7  1  0
 10 14  1  0
 11 12  1  0
 10 11  1  6
 12 16  1  0
 13 12  2  0
 14 17  1  0
 14 15  2  0
 17 18  1  0
 18 24  1  0
 18 19  1  1
 20 21  1  0
 20 19  1  0
 22 21  1  0
 23 22  1  0
 24 26  1  0
 25 24  2  0
M  END
$$$$
