NDK.pdb
     RDKit          3D

 26 25  0  0  1  0  0  0  0  0999 V2000
    7.3617  -12.9133   16.9029 N   0  0  0  0  0  0  0  0  0  0  0  0
    7.5314  -14.2382   16.4458 C   0  0  0  0  0  0  0  0  0  0  0  0
    7.2515  -14.5704   15.2725 O   0  0  0  0  0  0  0  0  0  0  0  0
    8.0518  -15.2699   17.3633 C   0  0  0  0  0  0  0  0  0  0  0  0
    8.1690  -14.7044   18.7744 C   0  0  2  0  0  0  0  0  0  0  0  0
    8.9361  -13.4799   18.7053 N   0  0  0  0  0  0  0  0  0  0  0  0
    8.7870  -15.7169   19.6377 C   0  0  0  0  0  0  0  0  0  0  0  0
    8.2656  -16.8586   19.7120 O   0  0  0  0  0  0  0  0  0  0  0  0
    9.9593  -15.3966   20.3747 N   0  0  0  0  0  0  0  0  0  0  0  0
   11.0224  -16.3546   20.6087 C   0  0  1  0  0  0  0  0  0  0  0  0
   11.5863  -16.7614   19.2710 C   0  0  0  0  0  0  0  0  0  0  0  0
   12.6171  -17.8086   19.4591 C   0  0  0  0  0  0  0  0  0  0  0  0
   12.4237  -18.8969   20.0590 O   0  0  0  0  0  0  0  0  0  0  0  0
   12.0829  -15.7603   21.4780 C   0  0  0  0  0  0  0  0  0  0  0  0
   13.2153  -15.4389   21.0726 O   0  0  0  0  0  0  0  0  0  0  0  0
   13.9212  -17.6460   18.9620 O   0  0  0  0  0  0  0  0  0  0  0  0
   11.7856  -15.5480   22.8446 N   0  0  0  0  0  0  0  0  0  0  0  0
   12.7339  -15.9845   23.9014 C   0  0  1  0  0  0  0  0  0  0  0  0
   12.0865  -17.0090   24.7677 C   0  0  0  0  0  0  0  0  0  0  0  0
   11.8554  -16.4762   26.1484 C   0  0  0  0  0  0  0  0  0  0  0  0
   11.2590  -17.5371   27.0689 C   0  0  0  0  0  0  0  0  0  0  0  0
   11.0777  -17.0338   28.4682 C   0  0  0  0  0  0  0  0  0  0  0  0
   10.6423  -18.1454   29.3266 N   0  0  0  0  0  0  0  0  0  0  0  0
   13.9928  -16.4164   23.2977 C   0  0  0  0  0  0  0  0  0  0  0  0
   14.1277  -17.3149   22.4435 O   0  0  0  0  0  0  0  0  0  0  0  0
   15.1775  -15.7655   23.7089 O   0  0  0  0  0  0  0  0  0  0  0  0
  2  3  2  0
  2  1  1  0
  4  5  1  0
  4  2  1  0
  5  7  1  0
  5  6  1  6
  7  8  2  0
  9 10  1  0
  9  7  1  0
 10 14  1  0
 11 12  1  0
 10 11  1  6
 12 16  1  0
 13 12  2  0
 14 17  1  0
 14 15  2  0
 17 18  1  0
 18 24  1  0
 18 19  1  6
 20 21  1  0
 20 19  1  0
 22 21  1  0
 23 22  1  0
 24 26  1  0
 25 24  2  0
M  END
$$$$
