NDK.pdb
     RDKit          3D

 26 25  0  0  1  0  0  0  0  0999 V2000
   17.5617  -11.8655   16.3399 N   0  0  0  0  0  0  0  0  0  0  0  0
   16.7215  -12.8558   15.7863 C   0  0  0  0  0  0  0  0  0  0  0  0
   17.0119  -13.4449   14.7214 O   0  0  0  0  0  0  0  0  0  0  0  0
   15.4645  -13.2171   16.4693 C   0  0  0  0  0  0  0  0  0  0  0  0
   15.7621  -14.0765   17.6930 C   0  0  2  0  0  0  0  0  0  0  0  0
   16.3597  -15.3132   17.2388 N   0  0  0  0  0  0  0  0  0  0  0  0
   14.5148  -14.2850   18.4367 C   0  0  0  0  0  0  0  0  0  0  0  0
   13.8953  -13.2868   18.8849 O   0  0  0  0  0  0  0  0  0  0  0  0
   14.0257  -15.6039   18.6405 N   0  0  0  0  0  0  0  0  0  0  0  0
   12.9511  -15.9054   19.5662 C   0  0  1  0  0  0  0  0  0  0  0  0
   12.2205  -17.1200   19.0527 C   0  0  0  0  0  0  0  0  0  0  0  0
   11.5782  -16.8071   17.7549 C   0  0  0  0  0  0  0  0  0  0  0  0
   10.6167  -16.0092   17.6117 O   0  0  0  0  0  0  0  0  0  0  0  0
   13.4923  -16.1470   20.9382 C   0  0  0  0  0  0  0  0  0  0  0  0
   14.5455  -16.7685   21.1710 O   0  0  0  0  0  0  0  0  0  0  0  0
   12.0181  -17.4030   16.5609 O   0  0  0  0  0  0  0  0  0  0  0  0
   12.7668  -15.6398   22.0417 N   0  0  0  0  0  0  0  0  0  0  0  0
   13.1372  -16.0197   23.4291 C   0  0  1  0  0  0  0  0  0  0  0  0
   12.6476  -17.3957   23.7226 C   0  0  0  0  0  0  0  0  0  0  0  0
   11.1508  -17.4489   23.7020 C   0  0  0  0  0  0  0  0  0  0  0  0
   10.6314  -18.8355   24.0707 C   0  0  0  0  0  0  0  0  0  0  0  0
    9.1457  -18.9432   23.9113 C   0  0  0  0  0  0  0  0  0  0  0  0
    8.7155  -20.2910   24.3115 N   0  0  0  0  0  0  0  0  0  0  0  0
   14.5728  -15.8363   23.6327 C   0  0  0  0  0  0  0  0  0  0  0  0
   15.4041  -15.5202   22.7586 O   0  0  0  0  0  0  0  0  0  0  0  0
   15.0830  -16.0313   24.9357 O   0  0  0  0  0  0  0  0  0  0  0  0
  2  3  2  0
  2  1  1  0
  4  5  1  0
  4  2  1  0
  5  7  1  0
  5  6  1  6
  7  8  2  0
  9 10  1  0
  9  7  1  0
 10 14  1  0
 11 12  1  0
 10 11  1  6
 12 16  1  0
 13 12  2  0
 14 17  1  0
 14 15  2  0
 17 18  1  0
 18 24  1  0
 18 19  1  6
 20 21  1  0
 20 19  1  0
 22 21  1  0
 23 22  1  0
 24 26  1  0
 25 24  2  0
M  END
$$$$
