NDK.pdb
     RDKit          3D

 26 25  0  0  1  0  0  0  0  0999 V2000
    8.2404  -12.3210   17.4103 N   0  0  0  0  0  0  0  0  0  0  0  0
    7.9051  -13.6888   17.3101 C   0  0  0  0  0  0  0  0  0  0  0  0
    7.6842  -14.2329   16.2053 O   0  0  0  0  0  0  0  0  0  0  0  0
    7.8087  -14.5119   18.5309 C   0  0  0  0  0  0  0  0  0  0  0  0
    9.1645  -15.1301   18.8537 C   0  0  2  0  0  0  0  0  0  0  0  0
    9.5478  -15.9764   17.7448 N   0  0  0  0  0  0  0  0  0  0  0  0
    9.0586  -15.8626   20.1204 C   0  0  0  0  0  0  0  0  0  0  0  0
    7.9250  -16.0285   20.6384 O   0  0  0  0  0  0  0  0  0  0  0  0
   10.2308  -16.3717   20.7423 N   0  0  0  0  0  0  0  0  0  0  0  0
   10.2033  -17.0609   22.0178 C   0  0  1  0  0  0  0  0  0  0  0  0
   11.3943  -17.9834   22.0750 C   0  0  0  0  0  0  0  0  0  0  0  0
   11.4027  -18.7116   23.3651 C   0  0  0  0  0  0  0  0  0  0  0  0
   10.3695  -19.0814   23.9794 O   0  0  0  0  0  0  0  0  0  0  0  0
   10.2314  -16.0803   23.1453 C   0  0  0  0  0  0  0  0  0  0  0  0
   11.0978  -15.1960   23.2765 O   0  0  0  0  0  0  0  0  0  0  0  0
   12.6075  -19.0465   24.0059 O   0  0  0  0  0  0  0  0  0  0  0  0
    9.2134  -16.1582   24.1244 N   0  0  0  0  0  0  0  0  0  0  0  0
    9.2115  -15.2353   25.2883 C   0  0  1  0  0  0  0  0  0  0  0  0
    8.0304  -14.3305   25.2121 C   0  0  0  0  0  0  0  0  0  0  0  0
    8.0059  -13.3809   26.3702 C   0  0  0  0  0  0  0  0  0  0  0  0
    6.7447  -12.5219   26.3675 C   0  0  0  0  0  0  0  0  0  0  0  0
    6.7009  -11.5788   27.5306 C   0  0  0  0  0  0  0  0  0  0  0  0
    5.4139  -10.8677   27.5251 N   0  0  0  0  0  0  0  0  0  0  0  0
    9.3059  -15.9969   26.5320 C   0  0  0  0  0  0  0  0  0  0  0  0
    9.0288  -17.2041   26.6770 O   0  0  0  0  0  0  0  0  0  0  0  0
    9.7515  -15.3173   27.6878 O   0  0  0  0  0  0  0  0  0  0  0  0
  2  3  2  0
  2  1  1  0
  4  5  1  0
  4  2  1  0
  5  7  1  0
  5  6  1  6
  7  8  2  0
  9 10  1  0
  9  7  1  0
 10 14  1  0
 11 12  1  0
 10 11  1  1
 12 16  1  0
 13 12  2  0
 14 17  1  0
 14 15  2  0
 17 18  1  0
 18 24  1  0
 18 19  1  1
 20 21  1  0
 20 19  1  0
 22 21  1  0
 23 22  1  0
 24 26  1  0
 25 24  2  0
M  END
$$$$
