NDK.pdb
     RDKit          3D

 26 25  0  0  1  0  0  0  0  0999 V2000
    9.4006  -13.4921   18.5178 N   0  0  0  0  0  0  0  0  0  0  0  0
    8.5083  -12.9993   19.4946 C   0  0  0  0  0  0  0  0  0  0  0  0
    8.0425  -11.8396   19.4349 O   0  0  0  0  0  0  0  0  0  0  0  0
    8.1043  -13.8620   20.6213 C   0  0  0  0  0  0  0  0  0  0  0  0
    8.8572  -15.1865   20.5626 C   0  0  2  0  0  0  0  0  0  0  0  0
    8.5851  -15.8014   19.2817 N   0  0  0  0  0  0  0  0  0  0  0  0
    8.4364  -16.0181   21.6956 C   0  0  0  0  0  0  0  0  0  0  0  0
    7.4860  -16.8268   21.5415 O   0  0  0  0  0  0  0  0  0  0  0  0
    9.1035  -15.8998   22.9450 N   0  0  0  0  0  0  0  0  0  0  0  0
    9.7952  -17.0101   23.5707 C   0  0  1  0  0  0  0  0  0  0  0  0
   10.8159  -17.5342   22.5928 C   0  0  0  0  0  0  0  0  0  0  0  0
   11.5407  -18.6796   23.1905 C   0  0  0  0  0  0  0  0  0  0  0  0
   10.9838  -19.6807   23.7095 O   0  0  0  0  0  0  0  0  0  0  0  0
   10.4477  -16.5728   24.8422 C   0  0  0  0  0  0  0  0  0  0  0  0
   11.1387  -17.3178   25.5614 O   0  0  0  0  0  0  0  0  0  0  0  0
   12.9449  -18.7210   23.2164 O   0  0  0  0  0  0  0  0  0  0  0  0
   10.2721  -15.2317   25.2566 N   0  0  0  0  0  0  0  0  0  0  0  0
    9.8254  -14.9196   26.6384 C   0  0  1  0  0  0  0  0  0  0  0  0
    8.3961  -14.5000   26.6234 C   0  0  0  0  0  0  0  0  0  0  0  0
    8.2604  -13.0712   26.1946 C   0  0  0  0  0  0  0  0  0  0  0  0
    6.8368  -12.5575   26.3893 C   0  0  0  0  0  0  0  0  0  0  0  0
    6.6894  -11.1276   25.9676 C   0  0  0  0  0  0  0  0  0  0  0  0
    5.3021  -10.6986   26.1983 N   0  0  0  0  0  0  0  0  0  0  0  0
   10.1118  -16.0463   27.5242 C   0  0  0  0  0  0  0  0  0  0  0  0
    9.7389  -17.2246   27.3579 O   0  0  0  0  0  0  0  0  0  0  0  0
   10.8820  -15.7944   28.6816 O   0  0  0  0  0  0  0  0  0  0  0  0
  2  3  2  0
  2  1  1  0
  4  5  1  0
  4  2  1  0
  5  7  1  0
  5  6  1  6
  7  8  2  0
  9 10  1  0
  9  7  1  0
 10 14  1  0
 11 12  1  0
 10 11  1  6
 12 16  1  0
 13 12  2  0
 14 17  1  0
 14 15  2  0
 17 18  1  0
 18 24  1  0
 18 19  1  6
 20 21  1  0
 20 19  1  0
 22 21  1  0
 23 22  1  0
 24 26  1  0
 25 24  2  0
M  END
$$$$
