TVL.pdb
     RDKit          3D

 23 22  0  0  1  0  0  0  0  0999 V2000
   11.6019  -18.8021   23.6744 C   0  0  0  0  0  0  0  0  0  0  0  0
   12.4704  -18.4923   22.4718 C   0  0  1  0  0  0  0  0  0  0  0  0
   13.1369  -19.7146   22.1925 O   0  0  0  0  0  0  0  0  0  0  0  0
   11.6462  -18.1633   21.2424 C   0  0  2  0  0  0  0  0  0  0  0  0
   12.6524  -17.9126   20.1886 N   0  0  0  0  0  0  0  0  0  0  0  0
   10.8659  -16.9209   21.3568 C   0  0  0  0  0  0  0  0  0  0  0  0
   11.4328  -15.8032   21.6227 O   0  0  0  0  0  0  0  0  0  0  0  0
    7.6728  -15.3476   19.3033 C   0  0  0  0  0  0  0  0  0  0  0  0
    7.4202  -15.4999   20.7818 C   0  0  2  0  0  0  0  0  0  0  0  0
    6.6329  -14.3480   21.3117 C   0  0  0  0  0  0  0  0  0  0  0  0
    8.7122  -15.6451   21.5655 C   0  0  2  0  0  0  0  0  0  0  0  0
    9.4479  -16.8138   21.1907 N   0  0  0  0  0  0  0  0  0  0  0  0
    8.3546  -15.5402   22.9895 C   0  0  0  0  0  0  0  0  0  0  0  0
    8.7626  -16.5219   23.7059 O   0  0  0  0  0  0  0  0  0  0  0  0
    7.1100  -13.7643   27.5815 C   0  0  0  0  0  0  0  0  0  0  0  0
    7.4722  -12.4785   26.8135 C   0  0  2  0  0  0  0  0  0  0  0  0
    6.4134  -11.4758   27.2542 C   0  0  0  0  0  0  0  0  0  0  0  0
    7.4094  -12.8278   25.3690 C   0  0  0  0  0  0  0  0  0  0  0  0
    7.8135  -14.2313   25.0176 C   0  0  2  0  0  0  0  0  0  0  0  0
    7.6407  -14.5117   23.6084 N   0  0  0  0  0  0  0  0  0  0  0  0
    7.2219  -15.2788   25.8537 C   0  0  0  0  0  0  0  0  0  0  0  0
    7.7352  -15.6984   26.9206 O   0  0  0  0  0  0  0  0  0  0  0  0
    6.0047  -15.8835   25.4805 O   0  0  0  0  0  0  0  0  0  0  0  0
  2  1  1  1
  3  2  1  0
  4  2  1  0
  4  6  1  0
  4  5  1  6
  6  7  2  0
  9  8  1  6
 10  9  1  0
 11 13  1  0
 11  9  1  0
 12  6  1  0
 11 12  1  1
 13 14  2  0
 16 18  1  0
 16 15  1  1
 17 16  1  0
 19 18  1  1
 19 21  1  0
 20 19  1  0
 20 13  1  0
 21 22  2  0
 21 23  1  0
M  END
$$$$
