TVL.pdb
     RDKit          3D

 23 22  0  0  1  0  0  0  0  0999 V2000
   12.4076  -19.2360   22.6188 C   0  0  0  0  0  0  0  0  0  0  0  0
   13.1180  -18.4047   21.5698 C   0  0  1  0  0  0  0  0  0  0  0  0
   13.7692  -19.3586   20.7438 O   0  0  0  0  0  0  0  0  0  0  0  0
   12.1449  -17.6589   20.6776 C   0  0  2  0  0  0  0  0  0  0  0  0
   13.0118  -16.8735   19.7736 N   0  0  0  0  0  0  0  0  0  0  0  0
   11.3101  -16.6769   21.3875 C   0  0  0  0  0  0  0  0  0  0  0  0
   11.8322  -15.6740   21.9899 O   0  0  0  0  0  0  0  0  0  0  0  0
    7.6463  -15.0277   20.3986 C   0  0  0  0  0  0  0  0  0  0  0  0
    7.7057  -15.6315   21.7788 C   0  0  2  0  0  0  0  0  0  0  0  0
    6.9194  -14.8187   22.7528 C   0  0  0  0  0  0  0  0  0  0  0  0
    9.1341  -15.7843   22.2696 C   0  0  2  0  0  0  0  0  0  0  0  0
    9.8823  -16.7184   21.4852 N   0  0  0  0  0  0  0  0  0  0  0  0
    9.0551  -16.0735   23.7107 C   0  0  0  0  0  0  0  0  0  0  0  0
    9.3562  -17.2806   24.0203 O   0  0  0  0  0  0  0  0  0  0  0  0
   10.3308  -13.3379   27.7572 C   0  0  0  0  0  0  0  0  0  0  0  0
    9.0680  -13.2196   26.8821 C   0  0  2  0  0  0  0  0  0  0  0  0
    8.3417  -12.0051   27.4461 C   0  0  0  0  0  0  0  0  0  0  0  0
    8.3271  -14.4984   27.0498 C   0  0  0  0  0  0  0  0  0  0  0  0
    8.7195  -15.6086   26.1170 C   0  0  2  0  0  0  0  0  0  0  0  0
    8.6972  -15.1904   24.7318 N   0  0  0  0  0  0  0  0  0  0  0  0
    8.0017  -16.8707   26.3124 C   0  0  0  0  0  0  0  0  0  0  0  0
    6.9436  -17.1768   25.7087 O   0  0  0  0  0  0  0  0  0  0  0  0
    8.4874  -17.8313   27.2223 O   0  0  0  0  0  0  0  0  0  0  0  0
  2  1  1  1
  3  2  1  0
  4  2  1  0
  4  6  1  0
  4  5  1  6
  6  7  2  0
  9  8  1  6
 10  9  1  0
 11 13  1  0
 11  9  1  0
 12  6  1  0
 11 12  1  6
 13 14  2  0
 16 18  1  0
 16 15  1  1
 17 16  1  0
 19 18  1  1
 19 21  1  0
 20 19  1  0
 20 13  1  0
 21 22  2  0
 21 23  1  0
M  END
$$$$
