TVL.pdb
     RDKit          3D

 23 22  0  0  1  0  0  0  0  0999 V2000
    7.8400  -20.3960   19.6376 C   0  0  0  0  0  0  0  0  0  0  0  0
    8.1763  -19.1982   20.5026 C   0  0  1  0  0  0  0  0  0  0  0  0
    9.3460  -19.5878   21.2071 O   0  0  0  0  0  0  0  0  0  0  0  0
    8.5583  -17.9863   19.6753 C   0  0  2  0  0  0  0  0  0  0  0  0
    9.7921  -18.4010   18.9742 N   0  0  0  0  0  0  0  0  0  0  0  0
    8.9268  -16.8060   20.4730 C   0  0  0  0  0  0  0  0  0  0  0  0
   10.1270  -16.6323   20.8861 O   0  0  0  0  0  0  0  0  0  0  0  0
    6.2609  -13.4397   21.5261 C   0  0  0  0  0  0  0  0  0  0  0  0
    7.7539  -13.3677   21.3289 C   0  0  2  0  0  0  0  0  0  0  0  0
    8.0908  -13.0031   19.9214 C   0  0  0  0  0  0  0  0  0  0  0  0
    8.4383  -14.6703   21.7019 C   0  0  2  0  0  0  0  0  0  0  0  0
    8.0337  -15.7574   20.8641 N   0  0  0  0  0  0  0  0  0  0  0  0
    8.2257  -14.8587   23.1462 C   0  0  0  0  0  0  0  0  0  0  0  0
    7.2106  -15.5861   23.4360 O   0  0  0  0  0  0  0  0  0  0  0  0
    8.1664  -11.8302   26.6399 C   0  0  0  0  0  0  0  0  0  0  0  0
    7.1492  -12.4700   25.6754 C   0  0  2  0  0  0  0  0  0  0  0  0
    5.8107  -11.8895   26.1140 C   0  0  0  0  0  0  0  0  0  0  0  0
    7.2628  -13.9403   25.8698 C   0  0  0  0  0  0  0  0  0  0  0  0
    8.6080  -14.5375   25.5690 C   0  0  2  0  0  0  0  0  0  0  0  0
    8.9962  -14.3395   24.1890 N   0  0  0  0  0  0  0  0  0  0  0  0
    8.7783  -15.9322   25.9837 C   0  0  0  0  0  0  0  0  0  0  0  0
    8.5209  -16.3577   27.1372 O   0  0  0  0  0  0  0  0  0  0  0  0
    9.2575  -16.8922   25.0697 O   0  0  0  0  0  0  0  0  0  0  0  0
  2  1  1  6
  3  2  1  0
  4  2  1  0
  4  6  1  0
  4  5  1  1
  6  7  2  0
  9  8  1  6
 10  9  1  0
 11 13  1  0
 11  9  1  0
 12  6  1  0
 11 12  1  6
 13 14  2  0
 16 18  1  0
 16 15  1  1
 17 16  1  0
 19 18  1  6
 19 21  1  0
 20 19  1  0
 20 13  1  0
 21 22  2  0
 21 23  1  0
M  END
$$$$
