TVL.pdb
     RDKit          3D

 23 22  0  0  1  0  0  0  0  0999 V2000
   12.5902  -14.8543   21.2256 C   0  0  0  0  0  0  0  0  0  0  0  0
   11.9679  -14.2856   19.9663 C   0  0  1  0  0  0  0  0  0  0  0  0
   12.9831  -14.4122   18.9817 O   0  0  0  0  0  0  0  0  0  0  0  0
   10.7963  -15.1178   19.4829 C   0  0  2  0  0  0  0  0  0  0  0  0
   10.2924  -14.3826   18.3033 N   0  0  0  0  0  0  0  0  0  0  0  0
    9.6711  -15.1786   20.4293 C   0  0  0  0  0  0  0  0  0  0  0  0
    8.8914  -14.1763   20.5986 O   0  0  0  0  0  0  0  0  0  0  0  0
    6.8809  -17.9764   20.8147 C   0  0  0  0  0  0  0  0  0  0  0  0
    7.4851  -17.6417   22.1548 C   0  0  2  0  0  0  0  0  0  0  0  0
    6.4441  -17.6342   23.2244 C   0  0  0  0  0  0  0  0  0  0  0  0
    8.2106  -16.3084   22.1323 C   0  0  2  0  0  0  0  0  0  0  0  0
    9.3255  -16.3103   21.2354 N   0  0  0  0  0  0  0  0  0  0  0  0
    8.5130  -15.9703   23.5326 C   0  0  0  0  0  0  0  0  0  0  0  0
    9.6594  -16.3797   23.9347 O   0  0  0  0  0  0  0  0  0  0  0  0
    8.6050  -12.0441   26.1056 C   0  0  0  0  0  0  0  0  0  0  0  0
    7.2372  -12.7002   25.8357 C   0  0  2  0  0  0  0  0  0  0  0  0
    6.2365  -11.7338   26.4565 C   0  0  0  0  0  0  0  0  0  0  0  0
    7.2798  -14.0324   26.4960 C   0  0  0  0  0  0  0  0  0  0  0  0
    8.1059  -15.0790   25.8040 C   0  0  2  0  0  0  0  0  0  0  0  0
    7.6998  -15.2726   24.4285 N   0  0  0  0  0  0  0  0  0  0  0  0
    8.2239  -16.3531   26.5174 C   0  0  0  0  0  0  0  0  0  0  0  0
    7.4480  -17.3263   26.3485 O   0  0  0  0  0  0  0  0  0  0  0  0
    9.2532  -16.5471   27.4605 O   0  0  0  0  0  0  0  0  0  0  0  0
  2  1  1  1
  3  2  1  0
  4  2  1  0
  4  6  1  0
  4  5  1  6
  6  7  2  0
  9  8  1  6
 10  9  1  0
 11 13  1  0
 11  9  1  0
 12  6  1  0
 11 12  1  6
 13 14  2  0
 16 18  1  0
 16 15  1  1
 17 16  1  0
 19 18  1  1
 19 21  1  0
 20 19  1  0
 20 13  1  0
 21 22  2  0
 21 23  1  0
M  END
$$$$
