TVL.pdb
     RDKit          3D

 23 22  0  0  1  0  0  0  0  0999 V2000
    9.6396  -12.4079   20.4481 C   0  0  0  0  0  0  0  0  0  0  0  0
    8.8548  -12.8181   19.2184 C   0  0  1  0  0  0  0  0  0  0  0  0
    9.6375  -12.3543   18.1282 O   0  0  0  0  0  0  0  0  0  0  0  0
    8.7685  -14.3249   19.0732 C   0  0  2  0  0  0  0  0  0  0  0  0
    7.9773  -14.5249   17.8403 N   0  0  0  0  0  0  0  0  0  0  0  0
    8.0139  -14.9900   20.1472 C   0  0  0  0  0  0  0  0  0  0  0  0
    6.7560  -14.7959   20.2930 O   0  0  0  0  0  0  0  0  0  0  0  0
    7.2347  -18.5194   21.0137 C   0  0  0  0  0  0  0  0  0  0  0  0
    7.8063  -17.9143   22.2707 C   0  0  2  0  0  0  0  0  0  0  0  0
    7.0577  -18.3774   23.4760 C   0  0  0  0  0  0  0  0  0  0  0  0
    7.8106  -16.3971   22.2181 C   0  0  2  0  0  0  0  0  0  0  0  0
    8.5653  -15.8928   21.1120 N   0  0  0  0  0  0  0  0  0  0  0  0
    8.2320  -15.9311   23.5492 C   0  0  0  0  0  0  0  0  0  0  0  0
    9.4989  -15.9698   23.7411 O   0  0  0  0  0  0  0  0  0  0  0  0
    7.9165  -11.9208   25.6310 C   0  0  0  0  0  0  0  0  0  0  0  0
    6.6620  -12.8102   25.7289 C   0  0  2  0  0  0  0  0  0  0  0  0
    5.6380  -11.9264   26.4297 C   0  0  0  0  0  0  0  0  0  0  0  0
    7.0641  -14.0080   26.5137 C   0  0  0  0  0  0  0  0  0  0  0  0
    7.9825  -14.9696   25.8147 C   0  0  2  0  0  0  0  0  0  0  0  0
    7.4128  -15.4690   24.5817 N   0  0  0  0  0  0  0  0  0  0  0  0
    8.5011  -16.0559   26.6496 C   0  0  0  0  0  0  0  0  0  0  0  0
    8.0185  -17.2154   26.6719 O   0  0  0  0  0  0  0  0  0  0  0  0
    9.6061  -15.8362   27.4965 O   0  0  0  0  0  0  0  0  0  0  0  0
  2  1  1  1
  3  2  1  0
  4  2  1  0
  4  6  1  0
  4  5  1  6
  6  7  2  0
  9  8  1  6
 10  9  1  0
 11 13  1  0
 11  9  1  0
 12  6  1  0
 11 12  1  6
 13 14  2  0
 16 18  1  0
 16 15  1  1
 17 16  1  0
 19 18  1  1
 19 21  1  0
 20 19  1  0
 20 13  1  0
 21 22  2  0
 21 23  1  0
M  END
$$$$
