IQR.pdb
     RDKit          3D

 29 28  0  0  1  0  0  0  0  0999 V2000
   27.0278  -13.2920  -18.3462 C   0  0  0  0  0  0  0  0  0  0  0  0
   28.0906  -13.8562  -17.4434 C   0  0  0  0  0  0  0  0  0  0  0  0
   27.8040  -15.2988  -17.1700 C   0  0  2  0  0  0  0  0  0  0  0  0
   27.8492  -16.1047  -18.4575 C   0  0  0  0  0  0  0  0  0  0  0  0
   26.4811  -15.4985  -16.4574 C   0  0  2  0  0  0  0  0  0  0  0  0
   26.4761  -14.7927  -15.1824 N   0  0  0  0  0  0  0  0  0  0  0  0
   26.1434  -16.9113  -16.2153 C   0  0  0  0  0  0  0  0  0  0  0  0
   25.9776  -17.7924  -17.0813 O   0  0  0  0  0  0  0  0  0  0  0  0
   27.9466  -20.3361  -11.5029 N   0  0  0  0  0  0  0  0  0  0  0  0
   26.9176  -21.1649  -12.0361 C   0  0  0  0  0  0  0  0  0  0  0  0
   26.8333  -22.3231  -11.5468 O   0  0  0  0  0  0  0  0  0  0  0  0
   25.9986  -20.6861  -13.1064 C   0  0  0  0  0  0  0  0  0  0  0  0
   26.3697  -19.2445  -13.4040 C   0  0  0  0  0  0  0  0  0  0  0  0
   25.5924  -18.7026  -14.5663 C   0  0  2  0  0  0  0  0  0  0  0  0
   25.9827  -17.3418  -14.8560 N   0  0  0  0  0  0  0  0  0  0  0  0
   24.1414  -18.7373  -14.2145 C   0  0  0  0  0  0  0  0  0  0  0  0
   23.6101  -17.6867  -13.7737 O   0  0  0  0  0  0  0  0  0  0  0  0
   16.3080  -16.4462  -15.3831 N   0  0  0  0  0  0  0  0  0  0  0  0
   17.5144  -15.6686  -15.4447 C   0  0  0  0  0  0  0  0  0  0  0  0
   17.4368  -14.4040  -15.6132 N   0  0  0  0  0  0  0  0  0  0  0  0
   18.7955  -16.2109  -15.3521 N   0  0  0  0  0  0  0  0  0  0  0  0
   19.2618  -17.4282  -15.8126 C   0  0  0  0  0  0  0  0  0  0  0  0
   19.9134  -18.4692  -15.0418 C   0  0  0  0  0  0  0  0  0  0  0  0
   21.3722  -18.6771  -15.0803 C   0  0  0  0  0  0  0  0  0  0  0  0
   21.8769  -19.8434  -14.2506 C   0  0  2  0  0  0  0  0  0  0  0  0
   23.3484  -19.9038  -14.3598 N   0  0  0  0  0  0  0  0  0  0  0  0
   21.2933  -21.1453  -14.4693 C   0  0  0  0  0  0  0  0  0  0  0  0
   21.8274  -21.9038  -15.3632 O   0  0  0  0  0  0  0  0  0  0  0  0
   20.2083  -21.7169  -13.8335 O   0  0  0  0  0  0  0  0  0  0  0  0
  1  2  1  0
  2  3  1  0
  3  4  1  6
  3  5  1  0
  5  6  1  1
  5  7  1  0
  7 15  1  0
  8  7  2  0
  9 10  1  0
 10 12  1  0
 11 10  2  0
 12 13  1  0
 14 13  1  1
 15 14  1  0
 16 14  1  0
 16 17  2  0
 18 19  1  0
 19 20  2  0
 21 19  1  0
 22 21  1  0
 23 24  1  0
 23 22  1  0
 25 24  1  6
 25 26  1  0
 26 16  1  0
 27 25  1  0
 27 29  1  0
 28 27  2  0
M  END
$$$$
