IQR.pdb
     RDKit          3D

 29 28  0  0  1  0  0  0  0  0999 V2000
   20.3767  -19.3165  -19.5654 C   0  0  0  0  0  0  0  0  0  0  0  0
   21.0052  -18.5962  -18.4038 C   0  0  0  0  0  0  0  0  0  0  0  0
   21.7231  -19.5779  -17.5326 C   0  0  2  0  0  0  0  0  0  0  0  0
   20.7784  -20.6780  -17.0781 C   0  0  0  0  0  0  0  0  0  0  0  0
   22.3869  -18.9143  -16.3424 C   0  0  2  0  0  0  0  0  0  0  0  0
   23.1802  -17.7698  -16.7724 N   0  0  0  0  0  0  0  0  0  0  0  0
   23.2484  -19.8181  -15.5616 C   0  0  0  0  0  0  0  0  0  0  0  0
   22.9193  -20.9164  -15.0724 O   0  0  0  0  0  0  0  0  0  0  0  0
   29.5062  -19.6830  -15.5583 N   0  0  0  0  0  0  0  0  0  0  0  0
   29.2317  -20.5976  -14.5009 C   0  0  0  0  0  0  0  0  0  0  0  0
   30.2313  -21.1820  -14.0038 O   0  0  0  0  0  0  0  0  0  0  0  0
   27.8450  -20.8438  -14.0153 C   0  0  0  0  0  0  0  0  0  0  0  0
   26.9114  -20.0315  -14.8944 C   0  0  0  0  0  0  0  0  0  0  0  0
   25.4754  -20.2394  -14.5154 C   0  0  2  0  0  0  0  0  0  0  0  0
   24.6058  -19.4174  -15.3255 N   0  0  0  0  0  0  0  0  0  0  0  0
   25.3129  -19.8657  -13.0786 C   0  0  0  0  0  0  0  0  0  0  0  0
   25.1760  -18.6495  -12.7913 O   0  0  0  0  0  0  0  0  0  0  0  0
   18.1496  -20.1716  -10.3300 N   0  0  0  0  0  0  0  0  0  0  0  0
   18.6520  -20.5601   -9.0413 C   0  0  0  0  0  0  0  0  0  0  0  0
   17.9183  -20.3970   -8.0076 N   0  0  0  0  0  0  0  0  0  0  0  0
   19.9216  -21.0966   -8.8304 N   0  0  0  0  0  0  0  0  0  0  0  0
   20.9051  -21.3972   -9.7543 C   0  0  0  0  0  0  0  0  0  0  0  0
   22.2440  -20.8452   -9.8251 C   0  0  0  0  0  0  0  0  0  0  0  0
   23.1810  -21.1963  -10.9073 C   0  0  0  0  0  0  0  0  0  0  0  0
   24.5649  -20.5859  -10.7820 C   0  0  2  0  0  0  0  0  0  0  0  0
   25.3068  -20.8267  -12.0360 N   0  0  0  0  0  0  0  0  0  0  0  0
   25.3690  -20.9366   -9.6358 C   0  0  0  0  0  0  0  0  0  0  0  0
   25.8750  -22.1206   -9.5930 O   0  0  0  0  0  0  0  0  0  0  0  0
   25.6883  -20.1573   -8.5409 O   0  0  0  0  0  0  0  0  0  0  0  0
  1  2  1  0
  2  3  1  0
  3  4  1  1
  3  5  1  0
  5  6  1  6
  5  7  1  0
  7 15  1  0
  8  7  2  0
  9 10  1  0
 10 12  1  0
 11 10  2  0
 12 13  1  0
 14 13  1  6
 15 14  1  0
 16 14  1  0
 16 17  2  0
 18 19  1  0
 19 20  2  0
 21 19  1  0
 22 21  1  0
 23 24  1  0
 23 22  1  0
 25 24  1  6
 25 26  1  0
 26 16  1  0
 27 25  1  0
 27 29  1  0
 28 27  2  0
M  END
$$$$
