IQR.pdb
     RDKit          3D

 29 28  0  0  1  0  0  0  0  0999 V2000
   26.2320  -19.6293  -10.2149 C   0  0  0  0  0  0  0  0  0  0  0  0
   26.8729  -20.1314  -11.4799 C   0  0  0  0  0  0  0  0  0  0  0  0
   25.8532  -20.8427  -12.3119 C   0  0  2  0  0  0  0  0  0  0  0  0
   25.2494  -22.0032  -11.5385 C   0  0  0  0  0  0  0  0  0  0  0  0
   26.4186  -21.3161  -13.6363 C   0  0  2  0  0  0  0  0  0  0  0  0
   26.9966  -20.1995  -14.3732 N   0  0  0  0  0  0  0  0  0  0  0  0
   25.4317  -21.9889  -14.4978 C   0  0  0  0  0  0  0  0  0  0  0  0
   24.5562  -21.4369  -15.1924 O   0  0  0  0  0  0  0  0  0  0  0  0
   26.0185  -27.8055  -16.7094 N   0  0  0  0  0  0  0  0  0  0  0  0
   24.6602  -27.5145  -17.0261 C   0  0  0  0  0  0  0  0  0  0  0  0
   24.0335  -28.4149  -17.6460 O   0  0  0  0  0  0  0  0  0  0  0  0
   24.0238  -26.2228  -16.6442 C   0  0  0  0  0  0  0  0  0  0  0  0
   25.0448  -25.4414  -15.8372 C   0  0  0  0  0  0  0  0  0  0  0  0
   24.4883  -24.1327  -15.3612 C   0  0  2  0  0  0  0  0  0  0  0  0
   25.4589  -23.4221  -14.5606 N   0  0  0  0  0  0  0  0  0  0  0  0
   23.2758  -24.4134  -14.5357 C   0  0  0  0  0  0  0  0  0  0  0  0
   23.4233  -25.0348  -13.4529 O   0  0  0  0  0  0  0  0  0  0  0  0
   22.8587  -19.0034  -14.9920 N   0  0  0  0  0  0  0  0  0  0  0  0
   21.8155  -19.4268  -15.8844 C   0  0  0  0  0  0  0  0  0  0  0  0
   21.8997  -19.1408  -17.1272 N   0  0  0  0  0  0  0  0  0  0  0  0
   20.6802  -20.1268  -15.4779 N   0  0  0  0  0  0  0  0  0  0  0  0
   20.3209  -20.5434  -14.2096 C   0  0  0  0  0  0  0  0  0  0  0  0
   20.5917  -21.8291  -13.5964 C   0  0  0  0  0  0  0  0  0  0  0  0
   19.9156  -23.0642  -14.0325 C   0  0  0  0  0  0  0  0  0  0  0  0
   20.7993  -24.2971  -14.0819 C   0  0  2  0  0  0  0  0  0  0  0  0
   21.9751  -24.0063  -14.9269 N   0  0  0  0  0  0  0  0  0  0  0  0
   20.2005  -25.5568  -14.4534 C   0  0  0  0  0  0  0  0  0  0  0  0
   19.4074  -26.1204  -13.6090 O   0  0  0  0  0  0  0  0  0  0  0  0
   20.3581  -26.2688  -15.6265 O   0  0  0  0  0  0  0  0  0  0  0  0
  1  2  1  0
  2  3  1  0
  3  4  1  1
  3  5  1  0
  5  6  1  6
  5  7  1  0
  7 15  1  0
  8  7  2  0
  9 10  1  0
 10 12  1  0
 11 10  2  0
 12 13  1  0
 14 13  1  1
 15 14  1  0
 16 14  1  0
 16 17  2  0
 18 19  1  0
 19 20  2  0
 21 19  1  0
 22 21  1  0
 23 24  1  0
 23 22  1  0
 25 24  1  6
 25 26  1  0
 26 16  1  0
 27 25  1  0
 27 29  1  0
 28 27  2  0
M  END
$$$$
