IQR.pdb
     RDKit          3D

 29 28  0  0  1  0  0  0  0  0999 V2000
   16.4158  -12.7325  -11.8635 C   0  0  0  0  0  0  0  0  0  0  0  0
   15.7735  -12.1246  -10.6465 C   0  0  0  0  0  0  0  0  0  0  0  0
   15.7005  -10.6389  -10.8059 C   0  0  2  0  0  0  0  0  0  0  0  0
   17.0956  -10.0425  -10.8901 C   0  0  0  0  0  0  0  0  0  0  0  0
   14.9002   -9.9794   -9.7003 C   0  0  2  0  0  0  0  0  0  0  0  0
   13.5928  -10.6100   -9.5703 N   0  0  0  0  0  0  0  0  0  0  0  0
   14.7085   -8.5313   -9.8875 C   0  0  0  0  0  0  0  0  0  0  0  0
   14.0002   -7.9838  -10.7549 O   0  0  0  0  0  0  0  0  0  0  0  0
   13.7771   -4.3919   -5.5887 N   0  0  0  0  0  0  0  0  0  0  0  0
   12.8873   -5.2811   -6.2576 C   0  0  0  0  0  0  0  0  0  0  0  0
   11.7638   -5.4503   -5.7128 O   0  0  0  0  0  0  0  0  0  0  0  0
   13.2666   -5.9661   -7.5250 C   0  0  0  0  0  0  0  0  0  0  0  0
   14.7279   -5.6484   -7.7862 C   0  0  0  0  0  0  0  0  0  0  0  0
   15.1906   -6.2135   -9.0959 C   0  0  2  0  0  0  0  0  0  0  0  0
   15.3950   -7.6405   -8.9966 N   0  0  0  0  0  0  0  0  0  0  0  0
   16.4795   -5.5529   -9.4602 C   0  0  0  0  0  0  0  0  0  0  0  0
   17.4693   -5.7203   -8.7036 O   0  0  0  0  0  0  0  0  0  0  0  0
   22.0207   -8.9247  -13.5789 N   0  0  0  0  0  0  0  0  0  0  0  0
   20.8231   -8.2888  -14.0537 C   0  0  0  0  0  0  0  0  0  0  0  0
   20.4124   -8.5321  -15.2392 N   0  0  0  0  0  0  0  0  0  0  0  0
   20.0700   -7.3877  -13.3021 N   0  0  0  0  0  0  0  0  0  0  0  0
   20.2839   -6.9355  -12.0133 C   0  0  0  0  0  0  0  0  0  0  0  0
   19.4460   -6.0340  -11.2468 C   0  0  0  0  0  0  0  0  0  0  0  0
   18.7033   -4.9273  -11.8765 C   0  0  0  0  0  0  0  0  0  0  0  0
   17.8991   -4.0668  -10.9194 C   0  0  2  0  0  0  0  0  0  0  0  0
   16.6248   -4.7508  -10.6205 N   0  0  0  0  0  0  0  0  0  0  0  0
   17.6695   -2.6846  -11.2658 C   0  0  0  0  0  0  0  0  0  0  0  0
   16.5502   -2.3808  -11.8266 O   0  0  0  0  0  0  0  0  0  0  0  0
   18.5050   -1.6016  -11.0731 O   0  0  0  0  0  0  0  0  0  0  0  0
  1  2  1  0
  2  3  1  0
  3  4  1  1
  3  5  1  0
  5  6  1  6
  5  7  1  0
  7 15  1  0
  8  7  2  0
  9 10  1  0
 10 12  1  0
 11 10  2  0
 12 13  1  0
 14 13  1  1
 15 14  1  0
 16 14  1  0
 16 17  2  0
 18 19  1  0
 19 20  2  0
 21 19  1  0
 22 21  1  0
 23 24  1  0
 23 22  1  0
 25 24  1  6
 25 26  1  0
 26 16  1  0
 27 25  1  0
 27 29  1  0
 28 27  2  0
M  END
$$$$
