IQR.pdb
     RDKit          3D

 29 28  0  0  1  0  0  0  0  0999 V2000
   29.1906  -18.5080  -18.6296 C   0  0  0  0  0  0  0  0  0  0  0  0
   28.1930  -17.8627  -17.7070 C   0  0  0  0  0  0  0  0  0  0  0  0
   27.5331  -18.9108  -16.8679 C   0  0  2  0  0  0  0  0  0  0  0  0
   26.9749  -20.0208  -17.7429 C   0  0  0  0  0  0  0  0  0  0  0  0
   26.4521  -18.3369  -15.9736 C   0  0  2  0  0  0  0  0  0  0  0  0
   27.0001  -17.2953  -15.1140 N   0  0  0  0  0  0  0  0  0  0  0  0
   25.7834  -19.3412  -15.1293 C   0  0  0  0  0  0  0  0  0  0  0  0
   25.1557  -20.3427  -15.5255 O   0  0  0  0  0  0  0  0  0  0  0  0
   26.5087  -19.8701   -8.8883 N   0  0  0  0  0  0  0  0  0  0  0  0
   25.3497  -20.6647   -9.1235 C   0  0  0  0  0  0  0  0  0  0  0  0
   24.8681  -21.2493   -8.1165 O   0  0  0  0  0  0  0  0  0  0  0  0
   24.7467  -20.7924  -10.4799 C   0  0  0  0  0  0  0  0  0  0  0  0
   25.5938  -19.9618  -11.4269 C   0  0  0  0  0  0  0  0  0  0  0  0
   25.0920  -20.0486  -12.8374 C   0  0  2  0  0  0  0  0  0  0  0  0
   25.8449  -19.1728  -13.7058 N   0  0  0  0  0  0  0  0  0  0  0  0
   23.6554  -19.6408  -12.8478 C   0  0  0  0  0  0  0  0  0  0  0  0
   23.3835  -18.4209  -12.9833 O   0  0  0  0  0  0  0  0  0  0  0  0
   20.1858  -22.0749  -18.7669 N   0  0  0  0  0  0  0  0  0  0  0  0
   20.4567  -20.7532  -19.2606 C   0  0  0  0  0  0  0  0  0  0  0  0
   20.3607  -20.5205  -20.5137 N   0  0  0  0  0  0  0  0  0  0  0  0
   20.8462  -19.6854  -18.4530 N   0  0  0  0  0  0  0  0  0  0  0  0
   20.6745  -19.5144  -17.0920 C   0  0  0  0  0  0  0  0  0  0  0  0
   20.8252  -20.5151  -16.0536 C   0  0  0  0  0  0  0  0  0  0  0  0
   21.8920  -20.4387  -15.0393 C   0  0  0  0  0  0  0  0  0  0  0  0
   21.4172  -20.5223  -13.6002 C   0  0  2  0  0  0  0  0  0  0  0  0
   22.5961  -20.5736  -12.7123 N   0  0  0  0  0  0  0  0  0  0  0  0
   20.4665  -21.5502  -13.2493 C   0  0  0  0  0  0  0  0  0  0  0  0
   19.2143  -21.2489  -13.2763 O   0  0  0  0  0  0  0  0  0  0  0  0
   20.7143  -22.8577  -12.8788 O   0  0  0  0  0  0  0  0  0  0  0  0
  1  2  1  0
  2  3  1  0
  3  4  1  6
  3  5  1  0
  5  6  1  1
  5  7  1  0
  7 15  1  0
  8  7  2  0
  9 10  1  0
 10 12  1  0
 11 10  2  0
 12 13  1  0
 14 13  1  1
 15 14  1  0
 16 14  1  0
 16 17  2  0
 18 19  1  0
 19 20  2  0
 21 19  1  0
 22 21  1  0
 23 24  1  0
 23 22  1  0
 25 24  1  6
 25 26  1  0
 26 16  1  0
 27 25  1  0
 27 29  1  0
 28 27  2  0
M  END
$$$$
