CDR.pdb
     RDKit          3D

 26 25  0  0  1  0  0  0  0  0999 V2000
    9.3519  -17.0750   18.7560 N   0  0  0  0  0  0  0  0  0  0  0  0
    9.4565  -16.2220   19.9258 C   0  0  1  0  0  0  0  0  0  0  0  0
    8.1055  -16.2393   20.6086 C   0  0  0  0  0  0  0  0  0  0  0  0
    8.0791  -15.1580   22.0583 S   0  0  0  0  0  0  0  0  0  0  0  0
   10.4516  -16.7491   20.8975 C   0  0  0  0  0  0  0  0  0  0  0  0
   10.4982  -17.9775   21.1558 O   0  0  0  0  0  0  0  0  0  0  0  0
   11.3841  -15.9172   21.5744 N   0  0  0  0  0  0  0  0  0  0  0  0
   12.3813  -16.5125   22.4410 C   0  0  1  0  0  0  0  0  0  0  0  0
   13.4973  -15.4661   22.5729 C   0  0  0  0  0  0  0  0  0  0  0  0
   14.6852  -16.2124   23.0768 C   0  0  0  0  0  0  0  0  0  0  0  0
   15.4178  -16.8669   22.3191 O   0  0  0  0  0  0  0  0  0  0  0  0
   11.8602  -16.8923   23.7478 C   0  0  0  0  0  0  0  0  0  0  0  0
   11.2788  -16.0557   24.4674 O   0  0  0  0  0  0  0  0  0  0  0  0
   14.9980  -16.1862   24.4328 O   0  0  0  0  0  0  0  0  0  0  0  0
   12.1338  -22.7094   21.0909 N   0  0  0  0  0  0  0  0  0  0  0  0
   10.7500  -22.7164   21.3761 C   0  0  0  0  0  0  0  0  0  0  0  0
    9.9413  -23.3092   20.5654 N   0  0  0  0  0  0  0  0  0  0  0  0
   10.2947  -22.0665   22.5530 N   0  0  0  0  0  0  0  0  0  0  0  0
   10.9950  -20.9078   23.0567 C   0  0  0  0  0  0  0  0  0  0  0  0
   10.2204  -20.3976   24.2789 C   0  0  0  0  0  0  0  0  0  0  0  0
   11.2348  -20.1388   25.3396 C   0  0  0  0  0  0  0  0  0  0  0  0
   11.5081  -18.6648   25.5044 C   0  0  2  0  0  0  0  0  0  0  0  0
   12.0150  -18.2185   24.2028 N   0  0  0  0  0  0  0  0  0  0  0  0
   12.4256  -18.3158   26.5854 C   0  0  0  0  0  0  0  0  0  0  0  0
   13.7402  -17.9407   26.2687 O   0  0  0  0  0  0  0  0  0  0  0  0
   12.0850  -18.3379   27.7872 O   0  0  0  0  0  0  0  0  0  0  0  0
  2  1  1  6
  3  2  1  0
  4  3  1  0
  5  2  1  0
  5  6  2  0
  7  5  1  0
  8  7  1  0
  9 10  1  0
  8  9  1  1
 10 14  1  0
 10 11  2  0
 12  8  1  0
 13 12  2  0
 16 15  1  0
 17 16  2  0
 18 16  1  0
 19 18  1  0
 20 19  1  0
 21 20  1  0
 22 21  1  6
 22 23  1  0
 23 12  1  0
 24 22  1  0
 25 24  1  0
 26 24  2  0
M  END
$$$$
