CDR.pdb
     RDKit          3D

 26 25  0  0  1  0  0  0  0  0999 V2000
    8.6008  -18.1622   15.9950 N   0  0  0  0  0  0  0  0  0  0  0  0
    9.7797  -17.4298   16.4201 C   0  0  1  0  0  0  0  0  0  0  0  0
    9.3534  -15.9941   16.6407 C   0  0  0  0  0  0  0  0  0  0  0  0
    8.8175  -15.2152   15.0987 S   0  0  0  0  0  0  0  0  0  0  0  0
   10.3018  -17.9418   17.7152 C   0  0  0  0  0  0  0  0  0  0  0  0
    9.5241  -18.4649   18.5515 O   0  0  0  0  0  0  0  0  0  0  0  0
   11.6749  -17.8714   18.0752 N   0  0  0  0  0  0  0  0  0  0  0  0
   12.1103  -18.3963   19.3538 C   0  0  1  0  0  0  0  0  0  0  0  0
   13.5378  -18.9146   19.1274 C   0  0  0  0  0  0  0  0  0  0  0  0
   13.9130  -19.6124   20.3901 C   0  0  0  0  0  0  0  0  0  0  0  0
   14.8206  -19.1941   21.1253 O   0  0  0  0  0  0  0  0  0  0  0  0
   12.0731  -17.4113   20.4271 C   0  0  0  0  0  0  0  0  0  0  0  0
   12.6850  -16.3300   20.3183 O   0  0  0  0  0  0  0  0  0  0  0  0
   13.2373  -20.7678   20.7723 O   0  0  0  0  0  0  0  0  0  0  0  0
    6.6270  -13.4816   20.2910 N   0  0  0  0  0  0  0  0  0  0  0  0
    7.8891  -13.1825   19.7307 C   0  0  0  0  0  0  0  0  0  0  0  0
    8.1539  -11.9696   19.3825 N   0  0  0  0  0  0  0  0  0  0  0  0
    8.8284  -14.2344   19.5694 N   0  0  0  0  0  0  0  0  0  0  0  0
    8.7946  -15.3763   20.4536 C   0  0  0  0  0  0  0  0  0  0  0  0
    9.5690  -14.9980   21.7231 C   0  0  0  0  0  0  0  0  0  0  0  0
    9.7008  -16.2493   22.5219 C   0  0  0  0  0  0  0  0  0  0  0  0
   11.1400  -16.6812   22.6514 C   0  0  2  0  0  0  0  0  0  0  0  0
   11.3380  -17.6838   21.5998 N   0  0  0  0  0  0  0  0  0  0  0  0
   11.5227  -17.1968   23.9628 C   0  0  0  0  0  0  0  0  0  0  0  0
   11.6248  -16.3054   25.0418 O   0  0  0  0  0  0  0  0  0  0  0  0
   11.7640  -18.4060   24.1634 O   0  0  0  0  0  0  0  0  0  0  0  0
  2  1  1  1
  3  2  1  0
  4  3  1  0
  5  2  1  0
  5  6  2  0
  7  5  1  0
  8  7  1  0
  9 10  1  0
  8  9  1  6
 10 14  1  0
 10 11  2  0
 12  8  1  0
 13 12  2  0
 16 15  1  0
 17 16  2  0
 18 16  1  0
 19 18  1  0
 20 19  1  0
 21 20  1  0
 22 21  1  1
 22 23  1  0
 23 12  1  0
 24 22  1  0
 25 24  1  0
 26 24  2  0
M  END
$$$$
