CDR.pdb
     RDKit          3D

 26 25  0  0  1  0  0  0  0  0999 V2000
    7.2531  -15.5133   19.9334 N   0  0  0  0  0  0  0  0  0  0  0  0
    8.4315  -14.6674   19.9853 C   0  0  1  0  0  0  0  0  0  0  0  0
    7.9489  -13.2331   19.9461 C   0  0  0  0  0  0  0  0  0  0  0  0
    7.3454  -12.7792   18.3025 S   0  0  0  0  0  0  0  0  0  0  0  0
    9.1778  -14.8500   21.2588 C   0  0  0  0  0  0  0  0  0  0  0  0
    8.6826  -14.4633   22.3464 O   0  0  0  0  0  0  0  0  0  0  0  0
   10.4619  -15.4561   21.3201 N   0  0  0  0  0  0  0  0  0  0  0  0
   11.0301  -15.8072   22.6061 C   0  0  1  0  0  0  0  0  0  0  0  0
   10.0613  -16.8242   23.2263 C   0  0  0  0  0  0  0  0  0  0  0  0
   10.6358  -17.1588   24.5605 C   0  0  0  0  0  0  0  0  0  0  0  0
   11.6286  -16.5684   25.0134 O   0  0  0  0  0  0  0  0  0  0  0  0
   12.3777  -16.3541   22.5137 C   0  0  0  0  0  0  0  0  0  0  0  0
   12.5612  -17.5331   22.1506 O   0  0  0  0  0  0  0  0  0  0  0  0
   10.0559  -18.1592   25.3353 O   0  0  0  0  0  0  0  0  0  0  0  0
   18.2312  -14.2012   17.9040 N   0  0  0  0  0  0  0  0  0  0  0  0
   17.0382  -13.4588   17.7561 C   0  0  0  0  0  0  0  0  0  0  0  0
   16.8695  -12.7388   16.6998 N   0  0  0  0  0  0  0  0  0  0  0  0
   16.0599  -13.5319   18.7818 N   0  0  0  0  0  0  0  0  0  0  0  0
   15.6554  -14.8159   19.3059 C   0  0  0  0  0  0  0  0  0  0  0  0
   14.6615  -14.5551   20.4454 C   0  0  0  0  0  0  0  0  0  0  0  0
   15.4142  -14.7663   21.7142 C   0  0  0  0  0  0  0  0  0  0  0  0
   14.8609  -15.9242   22.5066 C   0  0  2  0  0  0  0  0  0  0  0  0
   13.4846  -15.5420   22.8382 N   0  0  0  0  0  0  0  0  0  0  0  0
   15.6200  -16.2843   23.7008 C   0  0  0  0  0  0  0  0  0  0  0  0
   16.8795  -16.8849   23.5520 O   0  0  0  0  0  0  0  0  0  0  0  0
   15.1906  -16.0779   24.8557 O   0  0  0  0  0  0  0  0  0  0  0  0
  2  1  1  1
  3  2  1  0
  4  3  1  0
  5  2  1  0
  5  6  2  0
  7  5  1  0
  8  7  1  0
  9 10  1  0
  8  9  1  6
 10 14  1  0
 10 11  2  0
 12  8  1  0
 13 12  2  0
 16 15  1  0
 17 16  2  0
 18 16  1  0
 19 18  1  0
 20 19  1  0
 21 20  1  0
 22 21  1  1
 22 23  1  0
 23 12  1  0
 24 22  1  0
 25 24  1  0
 26 24  2  0
M  END
$$$$
