CDR.pdb
     RDKit          3D

 26 25  0  0  1  0  0  0  0  0999 V2000
    7.9474  -12.9548   27.6365 N   0  0  0  0  0  0  0  0  0  0  0  0
    7.1519  -13.7652   26.7325 C   0  0  1  0  0  0  0  0  0  0  0  0
    7.1009  -13.0319   25.4091 C   0  0  0  0  0  0  0  0  0  0  0  0
    5.9796  -11.6142   25.4772 S   0  0  0  0  0  0  0  0  0  0  0  0
    7.7869  -15.0869   26.4834 C   0  0  0  0  0  0  0  0  0  0  0  0
    9.0325  -15.2205   26.5749 O   0  0  0  0  0  0  0  0  0  0  0  0
    7.0429  -16.2467   26.1355 N   0  0  0  0  0  0  0  0  0  0  0  0
    7.7349  -17.4930   25.8749 C   0  0  1  0  0  0  0  0  0  0  0  0
    6.6517  -18.5813   25.8851 C   0  0  0  0  0  0  0  0  0  0  0  0
    7.3861  -19.8748   25.7867 C   0  0  0  0  0  0  0  0  0  0  0  0
    8.4581  -20.0666   26.3810 O   0  0  0  0  0  0  0  0  0  0  0  0
    8.4699  -17.4950   24.6166 C   0  0  0  0  0  0  0  0  0  0  0  0
    8.0845  -18.1923   23.6570 O   0  0  0  0  0  0  0  0  0  0  0  0
    6.8704  -20.9090   25.0110 O   0  0  0  0  0  0  0  0  0  0  0  0
    8.2608  -12.0738   19.1250 N   0  0  0  0  0  0  0  0  0  0  0  0
    7.8970  -13.3705   18.6978 C   0  0  0  0  0  0  0  0  0  0  0  0
    7.2158  -13.5096   17.6119 N   0  0  0  0  0  0  0  0  0  0  0  0
    8.2969  -14.4828   19.4836 N   0  0  0  0  0  0  0  0  0  0  0  0
    9.0964  -14.2807   20.6697 C   0  0  0  0  0  0  0  0  0  0  0  0
    9.3355  -15.6575   21.3033 C   0  0  0  0  0  0  0  0  0  0  0  0
   10.1024  -15.4139   22.5578 C   0  0  0  0  0  0  0  0  0  0  0  0
   10.4431  -16.7021   23.2642 C   0  0  2  0  0  0  0  0  0  0  0  0
    9.6280  -16.7007   24.4832 N   0  0  0  0  0  0  0  0  0  0  0  0
   11.8587  -16.8945   23.5659 C   0  0  0  0  0  0  0  0  0  0  0  0
   12.7552  -17.1223   22.5106 O   0  0  0  0  0  0  0  0  0  0  0  0
   12.3058  -16.8643   24.7320 O   0  0  0  0  0  0  0  0  0  0  0  0
  2  1  1  1
  3  2  1  0
  4  3  1  0
  5  2  1  0
  5  6  2  0
  7  5  1  0
  8  7  1  0
  9 10  1  0
  8  9  1  6
 10 14  1  0
 10 11  2  0
 12  8  1  0
 13 12  2  0
 16 15  1  0
 17 16  2  0
 18 16  1  0
 19 18  1  0
 20 19  1  0
 21 20  1  0
 22 21  1  1
 22 23  1  0
 23 12  1  0
 24 22  1  0
 25 24  1  0
 26 24  2  0
M  END
$$$$
