CDR.pdb
     RDKit          3D

 26 25  0  0  1  0  0  0  0  0999 V2000
    7.1747  -14.7055   19.2037 N   0  0  0  0  0  0  0  0  0  0  0  0
    8.3491  -14.2827   19.9447 C   0  0  1  0  0  0  0  0  0  0  0  0
    7.9204  -13.1386   20.8386 C   0  0  0  0  0  0  0  0  0  0  0  0
    7.7210  -11.6030   19.9038 S   0  0  0  0  0  0  0  0  0  0  0  0
    8.8576  -15.3678   20.8255 C   0  0  0  0  0  0  0  0  0  0  0  0
    8.0661  -16.2098   21.3178 O   0  0  0  0  0  0  0  0  0  0  0  0
   10.2324  -15.5131   21.1550 N   0  0  0  0  0  0  0  0  0  0  0  0
   10.6550  -16.6040   22.0102 C   0  0  1  0  0  0  0  0  0  0  0  0
   12.1435  -16.8222   21.7028 C   0  0  0  0  0  0  0  0  0  0  0  0
   12.5359  -18.0353   22.4753 C   0  0  0  0  0  0  0  0  0  0  0  0
   11.7007  -18.8740   22.8471 O   0  0  0  0  0  0  0  0  0  0  0  0
   10.4442  -16.3430   23.4284 C   0  0  0  0  0  0  0  0  0  0  0  0
   10.9349  -15.3312   23.9678 O   0  0  0  0  0  0  0  0  0  0  0  0
   13.8725  -18.2507   22.7983 O   0  0  0  0  0  0  0  0  0  0  0  0
    6.9075  -12.1427   24.0838 N   0  0  0  0  0  0  0  0  0  0  0  0
    6.4966  -12.3638   25.4175 C   0  0  0  0  0  0  0  0  0  0  0  0
    6.0719  -11.3697   26.1203 N   0  0  0  0  0  0  0  0  0  0  0  0
    6.5659  -13.6813   25.9411 N   0  0  0  0  0  0  0  0  0  0  0  0
    7.8475  -14.2670   26.2592 C   0  0  0  0  0  0  0  0  0  0  0  0
    7.5892  -15.6937   26.7614 C   0  0  0  0  0  0  0  0  0  0  0  0
    7.9041  -16.6021   25.6227 C   0  0  0  0  0  0  0  0  0  0  0  0
    9.3599  -16.9960   25.6076 C   0  0  2  0  0  0  0  0  0  0  0  0
    9.6779  -17.2435   24.1977 N   0  0  0  0  0  0  0  0  0  0  0  0
    9.7066  -18.1412   26.4445 C   0  0  0  0  0  0  0  0  0  0  0  0
   11.0588  -18.4052   26.7114 O   0  0  0  0  0  0  0  0  0  0  0  0
    8.8431  -18.8991   26.9350 O   0  0  0  0  0  0  0  0  0  0  0  0
  2  1  1  1
  3  2  1  0
  4  3  1  0
  5  2  1  0
  5  6  2  0
  7  5  1  0
  8  7  1  0
  9 10  1  0
  8  9  1  1
 10 14  1  0
 10 11  2  0
 12  8  1  0
 13 12  2  0
 16 15  1  0
 17 16  2  0
 18 16  1  0
 19 18  1  0
 20 19  1  0
 21 20  1  0
 22 21  1  6
 22 23  1  0
 23 12  1  0
 24 22  1  0
 25 24  1  0
 26 24  2  0
M  END
$$$$
