CDR.pdb
     RDKit          3D

 26 25  0  0  1  0  0  0  0  0999 V2000
   -0.9583  -21.8028   21.2596 N   0  0  0  0  0  0  0  0  0  0  0  0
   -0.0289  -21.2422   22.2234 C   0  0  1  0  0  0  0  0  0  0  0  0
   -0.4159  -19.7918   22.4196 C   0  0  0  0  0  0  0  0  0  0  0  0
   -0.5802  -18.9278   20.8390 S   0  0  0  0  0  0  0  0  0  0  0  0
   -0.1428  -21.9147   23.5451 C   0  0  0  0  0  0  0  0  0  0  0  0
    0.6578  -21.6346   24.4715 O   0  0  0  0  0  0  0  0  0  0  0  0
   -1.1371  -22.8889   23.8316 N   0  0  0  0  0  0  0  0  0  0  0  0
   -1.1819  -23.5063   25.1419 C   0  0  1  0  0  0  0  0  0  0  0  0
   -2.6472  -23.9077   25.3638 C   0  0  0  0  0  0  0  0  0  0  0  0
   -2.7044  -24.4558   26.7489 C   0  0  0  0  0  0  0  0  0  0  0  0
   -2.9698  -25.6470   26.9719 O   0  0  0  0  0  0  0  0  0  0  0  0
   -0.2967  -24.6567   25.2703 C   0  0  0  0  0  0  0  0  0  0  0  0
   -0.2034  -25.4924   24.3491 O   0  0  0  0  0  0  0  0  0  0  0  0
   -2.4560  -23.6230   27.8362 O   0  0  0  0  0  0  0  0  0  0  0  0
    6.9746  -23.3724   24.1627 N   0  0  0  0  0  0  0  0  0  0  0  0
    6.6052  -22.7524   25.3774 C   0  0  0  0  0  0  0  0  0  0  0  0
    7.3580  -21.8280   25.8689 N   0  0  0  0  0  0  0  0  0  0  0  0
    5.4103  -23.1710   26.0190 N   0  0  0  0  0  0  0  0  0  0  0  0
    4.6274  -24.2480   25.4588 C   0  0  0  0  0  0  0  0  0  0  0  0
    3.4114  -24.4555   26.3712 C   0  0  0  0  0  0  0  0  0  0  0  0
    2.6036  -25.5439   25.7516 C   0  0  0  0  0  0  0  0  0  0  0  0
    1.4226  -25.9220   26.6100 C   0  0  2  0  0  0  0  0  0  0  0  0
    0.4614  -24.8265   26.4478 N   0  0  0  0  0  0  0  0  0  0  0  0
    1.7250  -26.1660   28.0175 C   0  0  0  0  0  0  0  0  0  0  0  0
    1.1631  -25.3254   28.9906 O   0  0  0  0  0  0  0  0  0  0  0  0
    2.4678  -27.0981   28.3917 O   0  0  0  0  0  0  0  0  0  0  0  0
  2  1  1  6
  3  2  1  0
  4  3  1  0
  5  2  1  0
  5  6  2  0
  7  5  1  0
  8  7  1  0
  9 10  1  0
  8  9  1  6
 10 14  1  0
 10 11  2  0
 12  8  1  0
 13 12  2  0
 16 15  1  0
 17 16  2  0
 18 16  1  0
 19 18  1  0
 20 19  1  0
 21 20  1  0
 22 21  1  6
 22 23  1  0
 23 12  1  0
 24 22  1  0
 25 24  1  0
 26 24  2  0
M  END
$$$$
