CDR.pdb
     RDKit          3D

 26 25  0  0  1  0  0  0  0  0999 V2000
    8.5510  -14.7665   17.2785 N   0  0  0  0  0  0  0  0  0  0  0  0
    9.4114  -13.9718   18.1359 C   0  0  1  0  0  0  0  0  0  0  0  0
    8.7141  -13.8524   19.4743 C   0  0  0  0  0  0  0  0  0  0  0  0
    7.2042  -12.8640   19.3515 S   0  0  0  0  0  0  0  0  0  0  0  0
   10.7160  -14.6454   18.3736 C   0  0  0  0  0  0  0  0  0  0  0  0
   10.8051  -15.8968   18.3135 O   0  0  0  0  0  0  0  0  0  0  0  0
   11.9080  -13.9329   18.6757 N   0  0  0  0  0  0  0  0  0  0  0  0
   13.1317  -14.6610   18.9449 C   0  0  1  0  0  0  0  0  0  0  0  0
   14.2596  -13.8250   18.3230 C   0  0  0  0  0  0  0  0  0  0  0  0
   15.5019  -14.6260   18.5165 C   0  0  0  0  0  0  0  0  0  0  0  0
   15.4659  -15.8372   18.7826 O   0  0  0  0  0  0  0  0  0  0  0  0
   13.3688  -14.8900   20.3644 C   0  0  0  0  0  0  0  0  0  0  0  0
   13.7315  -13.9556   21.1066 O   0  0  0  0  0  0  0  0  0  0  0  0
   16.7472  -14.0155   18.3992 O   0  0  0  0  0  0  0  0  0  0  0  0
    9.5588  -21.8485   22.2168 N   0  0  0  0  0  0  0  0  0  0  0  0
    8.9951  -20.7858   21.4757 C   0  0  0  0  0  0  0  0  0  0  0  0
    7.9106  -20.9874   20.8079 N   0  0  0  0  0  0  0  0  0  0  0  0
    9.6461  -19.5247   21.4920 N   0  0  0  0  0  0  0  0  0  0  0  0
   10.9470  -19.3899   22.1054 C   0  0  0  0  0  0  0  0  0  0  0  0
   11.4213  -17.9504   21.8661 C   0  0  0  0  0  0  0  0  0  0  0  0
   12.7446  -17.8278   22.5406 C   0  0  0  0  0  0  0  0  0  0  0  0
   13.3544  -16.4642   22.3323 C   0  0  2  0  0  0  0  0  0  0  0  0
   13.1865  -16.1807   20.9035 N   0  0  0  0  0  0  0  0  0  0  0  0
   14.7489  -16.3331   22.7448 C   0  0  0  0  0  0  0  0  0  0  0  0
   15.0359  -15.9406   24.0612 O   0  0  0  0  0  0  0  0  0  0  0  0
   15.7016  -16.5575   21.9684 O   0  0  0  0  0  0  0  0  0  0  0  0
  2  1  1  6
  3  2  1  0
  4  3  1  0
  5  2  1  0
  5  6  2  0
  7  5  1  0
  8  7  1  0
  9 10  1  0
  8  9  1  1
 10 14  1  0
 10 11  2  0
 12  8  1  0
 13 12  2  0
 16 15  1  0
 17 16  2  0
 18 16  1  0
 19 18  1  0
 20 19  1  0
 21 20  1  0
 22 21  1  6
 22 23  1  0
 23 12  1  0
 24 22  1  0
 25 24  1  0
 26 24  2  0
M  END
$$$$
