CDR.pdb
     RDKit          3D

 26 25  0  0  1  0  0  0  0  0999 V2000
   10.6024  -19.3964   17.4592 N   0  0  0  0  0  0  0  0  0  0  0  0
   11.1575  -18.1118   17.8449 C   0  0  1  0  0  0  0  0  0  0  0  0
    9.9954  -17.1519   17.9864 C   0  0  0  0  0  0  0  0  0  0  0  0
    9.3220  -16.6810   16.3750 S   0  0  0  0  0  0  0  0  0  0  0  0
   11.8356  -18.1858   19.1666 C   0  0  0  0  0  0  0  0  0  0  0  0
   11.4295  -18.9866   20.0449 O   0  0  0  0  0  0  0  0  0  0  0  0
   12.9531  -17.3762   19.5064 N   0  0  0  0  0  0  0  0  0  0  0  0
   13.5132  -17.4481   20.8410 C   0  0  1  0  0  0  0  0  0  0  0  0
   14.9828  -17.0263   20.6996 C   0  0  0  0  0  0  0  0  0  0  0  0
   15.6574  -18.1600   20.0055 C   0  0  0  0  0  0  0  0  0  0  0  0
   15.6874  -19.3013   20.4911 O   0  0  0  0  0  0  0  0  0  0  0  0
   12.8164  -16.6089   21.8073 C   0  0  0  0  0  0  0  0  0  0  0  0
   12.5118  -15.4330   21.5244 O   0  0  0  0  0  0  0  0  0  0  0  0
   16.2768  -17.9522   18.7765 O   0  0  0  0  0  0  0  0  0  0  0  0
    8.1124  -14.0133   19.0419 N   0  0  0  0  0  0  0  0  0  0  0  0
    7.9408  -13.2854   20.2407 C   0  0  0  0  0  0  0  0  0  0  0  0
    7.4663  -12.0875   20.1895 N   0  0  0  0  0  0  0  0  0  0  0  0
    8.2989  -13.9018   21.4680 N   0  0  0  0  0  0  0  0  0  0  0  0
    9.1150  -15.0938   21.4680 C   0  0  0  0  0  0  0  0  0  0  0  0
    9.3263  -15.5065   22.9306 C   0  0  0  0  0  0  0  0  0  0  0  0
   10.1583  -16.7426   22.9010 C   0  0  0  0  0  0  0  0  0  0  0  0
   11.3320  -16.6495   23.8436 C   0  0  2  0  0  0  0  0  0  0  0  0
   12.4836  -17.1319   23.0745 N   0  0  0  0  0  0  0  0  0  0  0  0
   11.1840  -17.3774   25.1007 C   0  0  0  0  0  0  0  0  0  0  0  0
   11.5418  -16.7439   26.3007 O   0  0  0  0  0  0  0  0  0  0  0  0
   10.7491  -18.5474   25.1508 O   0  0  0  0  0  0  0  0  0  0  0  0
  2  1  1  1
  3  2  1  0
  4  3  1  0
  5  2  1  0
  5  6  2  0
  7  5  1  0
  8  7  1  0
  9 10  1  0
  8  9  1  6
 10 14  1  0
 10 11  2  0
 12  8  1  0
 13 12  2  0
 16 15  1  0
 17 16  2  0
 18 16  1  0
 19 18  1  0
 20 19  1  0
 21 20  1  0
 22 21  1  6
 22 23  1  0
 23 12  1  0
 24 22  1  0
 25 24  1  0
 26 24  2  0
M  END
$$$$
