CDR.pdb
     RDKit          3D

 26 25  0  0  1  0  0  0  0  0999 V2000
    7.7550  -15.5446   18.0545 N   0  0  0  0  0  0  0  0  0  0  0  0
    8.9872  -14.9141   18.4915 C   0  0  1  0  0  0  0  0  0  0  0  0
    8.5996  -13.7703   19.4045 C   0  0  0  0  0  0  0  0  0  0  0  0
    7.7085  -12.4766   18.5079 S   0  0  0  0  0  0  0  0  0  0  0  0
    9.8269  -15.8506   19.2852 C   0  0  0  0  0  0  0  0  0  0  0  0
    9.2932  -16.7623   19.9646 O   0  0  0  0  0  0  0  0  0  0  0  0
   11.2455  -15.7720   19.3223 N   0  0  0  0  0  0  0  0  0  0  0  0
   11.9967  -16.7161   20.1251 C   0  0  1  0  0  0  0  0  0  0  0  0
   13.4263  -16.6944   19.5653 C   0  0  0  0  0  0  0  0  0  0  0  0
   14.1718  -17.7291   20.3372 C   0  0  0  0  0  0  0  0  0  0  0  0
   14.5973  -17.5124   21.4823 O   0  0  0  0  0  0  0  0  0  0  0  0
   11.9850  -16.4037   21.5484 C   0  0  0  0  0  0  0  0  0  0  0  0
   12.2148  -15.2442   21.9462 O   0  0  0  0  0  0  0  0  0  0  0  0
   14.4071  -18.9802   19.7743 O   0  0  0  0  0  0  0  0  0  0  0  0
    4.8600  -17.3328   23.9849 N   0  0  0  0  0  0  0  0  0  0  0  0
    5.8238  -18.3447   23.7767 C   0  0  0  0  0  0  0  0  0  0  0  0
    5.4591  -19.4664   23.2556 N   0  0  0  0  0  0  0  0  0  0  0  0
    7.1692  -18.0900   24.1504 N   0  0  0  0  0  0  0  0  0  0  0  0
    7.5326  -16.8130   24.7196 C   0  0  0  0  0  0  0  0  0  0  0  0
    9.0398  -16.8489   25.0051 C   0  0  0  0  0  0  0  0  0  0  0  0
    9.7061  -17.1341   23.7029 C   0  0  0  0  0  0  0  0  0  0  0  0
   11.2087  -17.1350   23.8318 C   0  0  2  0  0  0  0  0  0  0  0  0
   11.7113  -17.4228   22.4847 N   0  0  0  0  0  0  0  0  0  0  0  0
   11.7514  -18.0662   24.8169 C   0  0  0  0  0  0  0  0  0  0  0  0
   11.8736  -17.6509   26.1518 O   0  0  0  0  0  0  0  0  0  0  0  0
   12.1131  -19.2238   24.5172 O   0  0  0  0  0  0  0  0  0  0  0  0
  2  1  1  1
  3  2  1  0
  4  3  1  0
  5  2  1  0
  5  6  2  0
  7  5  1  0
  8  7  1  0
  9 10  1  0
  8  9  1  6
 10 14  1  0
 10 11  2  0
 12  8  1  0
 13 12  2  0
 16 15  1  0
 17 16  2  0
 18 16  1  0
 19 18  1  0
 20 19  1  0
 21 20  1  0
 22 21  1  6
 22 23  1  0
 23 12  1  0
 24 22  1  0
 25 24  1  0
 26 24  2  0
M  END
$$$$
