CDR.pdb
     RDKit          3D

 26 25  0  0  1  0  0  0  0  0999 V2000
    7.4748  -12.7915   28.0963 N   0  0  0  0  0  0  0  0  0  0  0  0
    6.9016  -13.3952   26.9073 C   0  0  1  0  0  0  0  0  0  0  0  0
    7.1031  -12.4144   25.7718 C   0  0  0  0  0  0  0  0  0  0  0  0
    5.9727  -11.0081   25.8994 S   0  0  0  0  0  0  0  0  0  0  0  0
    7.6079  -14.6514   26.5393 C   0  0  0  0  0  0  0  0  0  0  0  0
    8.8602  -14.7196   26.6082 O   0  0  0  0  0  0  0  0  0  0  0  0
    6.9268  -15.8184   26.0988 N   0  0  0  0  0  0  0  0  0  0  0  0
    7.6817  -17.0134   25.7791 C   0  0  1  0  0  0  0  0  0  0  0  0
    6.7071  -18.1849   25.9671 C   0  0  0  0  0  0  0  0  0  0  0  0
    7.5208  -19.4167   25.7605 C   0  0  0  0  0  0  0  0  0  0  0  0
    8.7573  -19.4098   25.8607 O   0  0  0  0  0  0  0  0  0  0  0  0
    8.2379  -17.0037   24.4322 C   0  0  0  0  0  0  0  0  0  0  0  0
    7.4916  -17.0836   23.4362 O   0  0  0  0  0  0  0  0  0  0  0  0
    6.8935  -20.6187   25.4455 O   0  0  0  0  0  0  0  0  0  0  0  0
    7.9809  -12.0803   19.0633 N   0  0  0  0  0  0  0  0  0  0  0  0
    8.0607  -13.3880   18.5345 C   0  0  0  0  0  0  0  0  0  0  0  0
    7.4208  -13.6713   17.4515 N   0  0  0  0  0  0  0  0  0  0  0  0
    8.8479  -14.3513   19.2179 N   0  0  0  0  0  0  0  0  0  0  0  0
    9.4972  -14.0048   20.4610 C   0  0  0  0  0  0  0  0  0  0  0  0
   10.2135  -15.2619   20.9717 C   0  0  0  0  0  0  0  0  0  0  0  0
    9.5994  -15.5877   22.2899 C   0  0  0  0  0  0  0  0  0  0  0  0
   10.2482  -16.7908   22.9273 C   0  0  2  0  0  0  0  0  0  0  0  0
    9.6337  -16.9030   24.2539 N   0  0  0  0  0  0  0  0  0  0  0  0
   11.7050  -16.7435   23.0134 C   0  0  0  0  0  0  0  0  0  0  0  0
   12.4580  -16.7514   21.8292 O   0  0  0  0  0  0  0  0  0  0  0  0
   12.3109  -16.6961   24.1049 O   0  0  0  0  0  0  0  0  0  0  0  0
  2  1  1  1
  3  2  1  0
  4  3  1  0
  5  2  1  0
  5  6  2  0
  7  5  1  0
  8  7  1  0
  9 10  1  0
  8  9  1  6
 10 14  1  0
 10 11  2  0
 12  8  1  0
 13 12  2  0
 16 15  1  0
 17 16  2  0
 18 16  1  0
 19 18  1  0
 20 19  1  0
 21 20  1  0
 22 21  1  1
 22 23  1  0
 23 12  1  0
 24 22  1  0
 25 24  1  0
 26 24  2  0
M  END
$$$$
