CDR.pdb
     RDKit          3D

 26 25  0  0  1  0  0  0  0  0999 V2000
    6.9525  -13.4730   17.8027 N   0  0  0  0  0  0  0  0  0  0  0  0
    8.3670  -13.4062   18.1215 C   0  0  1  0  0  0  0  0  0  0  0  0
    8.5244  -12.3807   19.2241 C   0  0  0  0  0  0  0  0  0  0  0  0
    7.6089  -12.8562   20.7099 S   0  0  0  0  0  0  0  0  0  0  0  0
    8.8691  -14.7037   18.6472 C   0  0  0  0  0  0  0  0  0  0  0  0
    8.0648  -15.6165   18.9596 O   0  0  0  0  0  0  0  0  0  0  0  0
   10.2517  -14.9813   18.8235 N   0  0  0  0  0  0  0  0  0  0  0  0
   10.6673  -16.2815   19.3101 C   0  0  1  0  0  0  0  0  0  0  0  0
   11.8438  -16.7038   18.4184 C   0  0  0  0  0  0  0  0  0  0  0  0
   12.1717  -18.0995   18.8266 C   0  0  0  0  0  0  0  0  0  0  0  0
   11.3328  -19.0120   18.7736 O   0  0  0  0  0  0  0  0  0  0  0  0
   11.0487  -16.2785   20.7166 C   0  0  0  0  0  0  0  0  0  0  0  0
   11.8844  -15.4585   21.1463 O   0  0  0  0  0  0  0  0  0  0  0  0
   13.4501  -18.4076   19.2827 O   0  0  0  0  0  0  0  0  0  0  0  0
    6.7832  -20.4943   27.1372 N   0  0  0  0  0  0  0  0  0  0  0  0
    7.9272  -19.9936   27.7982 C   0  0  0  0  0  0  0  0  0  0  0  0
    8.0366  -20.1461   29.0739 N   0  0  0  0  0  0  0  0  0  0  0  0
    8.9233  -19.3359   27.0302 N   0  0  0  0  0  0  0  0  0  0  0  0
    8.6805  -19.0313   25.6391 C   0  0  0  0  0  0  0  0  0  0  0  0
    9.9091  -18.2782   25.1120 C   0  0  0  0  0  0  0  0  0  0  0  0
    9.6498  -18.0119   23.6688 C   0  0  0  0  0  0  0  0  0  0  0  0
   10.7722  -17.2297   23.0339 C   0  0  2  0  0  0  0  0  0  0  0  0
   10.4669  -17.2121   21.5998 N   0  0  0  0  0  0  0  0  0  0  0  0
   12.1150  -17.7427   23.2901 C   0  0  0  0  0  0  0  0  0  0  0  0
   12.9346  -17.0751   24.2130 O   0  0  0  0  0  0  0  0  0  0  0  0
   12.5656  -18.7575   22.7174 O   0  0  0  0  0  0  0  0  0  0  0  0
  2  1  1  1
  3  2  1  0
  4  3  1  0
  5  2  1  0
  5  6  2  0
  7  5  1  0
  8  7  1  0
  9 10  1  0
  8  9  1  6
 10 14  1  0
 10 11  2  0
 12  8  1  0
 13 12  2  0
 16 15  1  0
 17 16  2  0
 18 16  1  0
 19 18  1  0
 20 19  1  0
 21 20  1  0
 22 21  1  1
 22 23  1  0
 23 12  1  0
 24 22  1  0
 25 24  1  0
 26 24  2  0
M  END
$$$$
