SYA.pdb
     RDKit          3D

 24 24  0  0  1  0  0  0  0  0999 V2000
    8.3224  -18.2502   16.7128 O   0  0  0  0  0  0  0  0  0  0  0  0
    8.0786  -16.8886   16.6567 C   0  0  0  0  0  0  0  0  0  0  0  0
    9.2147  -16.2343   15.9061 C   0  0  2  0  0  0  0  0  0  0  0  0
    9.3573  -16.8507   14.5960 N   0  0  0  0  0  0  0  0  0  0  0  0
   10.5039  -16.3657   16.6240 C   0  0  0  0  0  0  0  0  0  0  0  0
   11.3373  -17.2382   16.2255 O   0  0  0  0  0  0  0  0  0  0  0  0
   17.7719  -13.3943   20.7697 O   0  0  0  0  0  0  0  0  0  0  0  0
   16.4867  -13.6396   20.2529 C   0  0  0  0  0  0  0  0  0  0  0  0
   16.2177  -13.6528   18.9212 C   0  0  0  0  0  0  0  0  0  0  0  0
   14.9188  -13.9028   18.4690 C   0  0  0  0  0  0  0  0  0  0  0  0
   13.8874  -14.1401   19.3536 C   0  0  0  0  0  0  0  0  0  0  0  0
   12.5484  -14.3722   18.8439 C   0  0  0  0  0  0  0  0  0  0  0  0
   12.1914  -15.7451   18.3952 C   0  0  2  0  0  0  0  0  0  0  0  0
   10.8784  -15.5843   17.7299 N   0  0  0  0  0  0  0  0  0  0  0  0
   12.0588  -16.7372   19.4889 C   0  0  0  0  0  0  0  0  0  0  0  0
   11.0296  -16.6784   20.2558 O   0  0  0  0  0  0  0  0  0  0  0  0
   14.1977  -14.1188   20.6954 C   0  0  0  0  0  0  0  0  0  0  0  0
   15.4860  -13.8711   21.1544 C   0  0  0  0  0  0  0  0  0  0  0  0
   13.2738  -20.0456   20.5372 C   0  0  0  0  0  0  0  0  0  0  0  0
   12.7356  -18.6566   20.8819 C   0  0  2  0  0  0  0  0  0  0  0  0
   12.9803  -17.7702   19.7708 N   0  0  0  0  0  0  0  0  0  0  0  0
   13.2353  -18.1982   22.1768 C   0  0  0  0  0  0  0  0  0  0  0  0
   13.9081  -17.1528   22.2694 O   0  0  0  0  0  0  0  0  0  0  0  0
   12.9643  -18.9254   23.3202 O   0  0  0  0  0  0  0  0  0  0  0  0
  2  1  1  0
  2  3  1  0
  3  4  1  6
  5  3  1  0
  5  6  2  0
  7  8  1  0
  8 18  2  0
  9 10  2  0
  9  8  1  0
 10 11  1  0
 11 12  1  0
 11 17  2  0
 13 12  1  1
 13 14  1  0
 14  5  1  0
 15 13  1  0
 16 15  2  0
 18 17  1  0
 20 19  1  6
 20 22  1  0
 20 21  1  0
 21 15  1  0
 22 24  1  0
 23 22  2  0
M  END
$$$$
