SYA.pdb
     RDKit          3D

 24 24  0  0  1  0  0  0  0  0999 V2000
    6.4025  -15.3696   18.5244 O   0  0  0  0  0  0  0  0  0  0  0  0
    7.4157  -15.3093   19.4658 C   0  0  0  0  0  0  0  0  0  0  0  0
    7.2316  -14.0503   20.2802 C   0  0  2  0  0  0  0  0  0  0  0  0
    7.5054  -12.8855   19.4527 N   0  0  0  0  0  0  0  0  0  0  0  0
    8.1358  -14.0097   21.4530 C   0  0  0  0  0  0  0  0  0  0  0  0
    9.3053  -13.5356   21.3048 O   0  0  0  0  0  0  0  0  0  0  0  0
   10.3763  -14.8441   30.1434 O   0  0  0  0  0  0  0  0  0  0  0  0
    9.7826  -14.6680   28.8804 C   0  0  0  0  0  0  0  0  0  0  0  0
    9.6444  -13.4501   28.2940 C   0  0  0  0  0  0  0  0  0  0  0  0
    9.0451  -13.3397   27.0359 C   0  0  0  0  0  0  0  0  0  0  0  0
    8.5833  -14.4525   26.3642 C   0  0  0  0  0  0  0  0  0  0  0  0
    7.9459  -14.2922   25.0702 C   0  0  0  0  0  0  0  0  0  0  0  0
    8.7683  -14.4967   23.8473 C   0  0  2  0  0  0  0  0  0  0  0  0
    7.7897  -14.4640   22.7367 N   0  0  0  0  0  0  0  0  0  0  0  0
    9.5022  -15.7842   23.8049 C   0  0  0  0  0  0  0  0  0  0  0  0
    8.8359  -16.8708   23.6435 O   0  0  0  0  0  0  0  0  0  0  0  0
    8.7404  -15.6697   26.9895 C   0  0  0  0  0  0  0  0  0  0  0  0
    9.3350  -15.7893   28.2401 C   0  0  0  0  0  0  0  0  0  0  0  0
   12.5670  -17.1707   22.6824 C   0  0  0  0  0  0  0  0  0  0  0  0
   11.4952  -17.2365   23.7709 C   0  0  2  0  0  0  0  0  0  0  0  0
   10.9023  -15.9307   23.9242 N   0  0  0  0  0  0  0  0  0  0  0  0
   12.0166  -17.8405   24.9956 C   0  0  0  0  0  0  0  0  0  0  0  0
   11.9228  -17.2509   26.0901 O   0  0  0  0  0  0  0  0  0  0  0  0
   12.6236  -19.0812   24.9515 O   0  0  0  0  0  0  0  0  0  0  0  0
  2  1  1  0
  2  3  1  0
  3  4  1  6
  5  3  1  0
  5  6  2  0
  7  8  1  0
  8 18  2  0
  9 10  2  0
  9  8  1  0
 10 11  1  0
 11 12  1  0
 11 17  2  0
 13 12  1  1
 13 14  1  0
 14  5  1  0
 15 13  1  0
 16 15  2  0
 18 17  1  0
 20 19  1  6
 20 22  1  0
 20 21  1  0
 21 15  1  0
 22 24  1  0
 23 22  2  0
M  END
$$$$
