SYA.pdb
     RDKit          3D

 24 24  0  0  1  0  0  0  0  0999 V2000
    8.6342  -18.0739   20.3006 O   0  0  0  0  0  0  0  0  0  0  0  0
    7.6300  -17.1241   20.3771 C   0  0  0  0  0  0  0  0  0  0  0  0
    8.2724  -15.7573   20.4158 C   0  0  2  0  0  0  0  0  0  0  0  0
    9.0962  -15.5680   19.2318 N   0  0  0  0  0  0  0  0  0  0  0  0
    9.1293  -15.5796   21.6112 C   0  0  0  0  0  0  0  0  0  0  0  0
   10.3897  -15.5340   21.4562 O   0  0  0  0  0  0  0  0  0  0  0  0
   10.7740  -15.0200   30.4406 O   0  0  0  0  0  0  0  0  0  0  0  0
   10.2322  -15.0230   29.1424 C   0  0  0  0  0  0  0  0  0  0  0  0
    9.6242  -16.1101   28.5997 C   0  0  0  0  0  0  0  0  0  0  0  0
    9.1050  -16.0509   27.3032 C   0  0  0  0  0  0  0  0  0  0  0  0
    9.1954  -14.8995   26.5490 C   0  0  0  0  0  0  0  0  0  0  0  0
    8.6644  -14.8867   25.1984 C   0  0  0  0  0  0  0  0  0  0  0  0
    9.5500  -15.3269   24.0869 C   0  0  2  0  0  0  0  0  0  0  0  0
    8.6432  -15.4557   22.9235 N   0  0  0  0  0  0  0  0  0  0  0  0
   10.2283  -16.6254   24.3150 C   0  0  0  0  0  0  0  0  0  0  0  0
    9.5369  -17.7058   24.2400 O   0  0  0  0  0  0  0  0  0  0  0  0
    9.8181  -13.8180   27.1320 C   0  0  0  0  0  0  0  0  0  0  0  0
   10.3374  -13.8674   28.4203 C   0  0  0  0  0  0  0  0  0  0  0  0
   13.2115  -18.4052   23.8080 C   0  0  0  0  0  0  0  0  0  0  0  0
   12.1230  -18.1138   24.8415 C   0  0  2  0  0  0  0  0  0  0  0  0
   11.5999  -16.7897   24.6105 N   0  0  0  0  0  0  0  0  0  0  0  0
   12.5939  -18.3781   26.1998 C   0  0  0  0  0  0  0  0  0  0  0  0
   13.0313  -19.5013   26.5181 O   0  0  0  0  0  0  0  0  0  0  0  0
   12.5585  -17.3771   27.1518 O   0  0  0  0  0  0  0  0  0  0  0  0
  2  1  1  0
  2  3  1  0
  3  4  1  6
  5  3  1  0
  5  6  2  0
  7  8  1  0
  8 18  2  0
  9 10  2  0
  9  8  1  0
 10 11  1  0
 11 12  1  0
 11 17  2  0
 13 12  1  1
 13 14  1  0
 14  5  1  0
 15 13  1  0
 16 15  2  0
 18 17  1  0
 20 19  1  6
 20 22  1  0
 20 21  1  0
 21 15  1  0
 22 24  1  0
 23 22  2  0
M  END
$$$$
