SYA.pdb
     RDKit          3D

 24 24  0  0  1  0  0  0  0  0999 V2000
    5.8904  -19.3548   25.7004 O   0  0  0  0  0  0  0  0  0  0  0  0
    6.8205  -19.2134   24.6848 C   0  0  0  0  0  0  0  0  0  0  0  0
    6.3126  -18.1685   23.7192 C   0  0  2  0  0  0  0  0  0  0  0  0
    5.6055  -18.8142   22.6238 N   0  0  0  0  0  0  0  0  0  0  0  0
    7.4131  -17.3579   23.1477 C   0  0  0  0  0  0  0  0  0  0  0  0
    7.8368  -17.6400   21.9834 O   0  0  0  0  0  0  0  0  0  0  0  0
    5.4211  -12.6672   27.6393 O   0  0  0  0  0  0  0  0  0  0  0  0
    6.3444  -13.0328   26.6429 C   0  0  0  0  0  0  0  0  0  0  0  0
    7.6826  -12.8345   26.7693 C   0  0  0  0  0  0  0  0  0  0  0  0
    8.5502  -13.2197   25.7431 C   0  0  0  0  0  0  0  0  0  0  0  0
    8.0753  -13.8048   24.5878 C   0  0  0  0  0  0  0  0  0  0  0  0
    9.0072  -14.1686   23.5363 C   0  0  0  0  0  0  0  0  0  0  0  0
    9.2333  -15.6133   23.2613 C   0  0  2  0  0  0  0  0  0  0  0  0
    8.0322  -16.2839   23.8088 N   0  0  0  0  0  0  0  0  0  0  0  0
   10.4398  -16.1833   23.9073 C   0  0  0  0  0  0  0  0  0  0  0  0
   11.5976  -15.8138   23.4904 O   0  0  0  0  0  0  0  0  0  0  0  0
    6.7136  -13.9899   24.4951 C   0  0  0  0  0  0  0  0  0  0  0  0
    5.8433  -13.6102   25.5101 C   0  0  0  0  0  0  0  0  0  0  0  0
   11.5345  -18.0713   26.8996 C   0  0  0  0  0  0  0  0  0  0  0  0
   11.6824  -17.6723   25.4310 C   0  0  2  0  0  0  0  0  0  0  0  0
   10.4348  -17.1158   24.9686 N   0  0  0  0  0  0  0  0  0  0  0  0
   12.2173  -18.7729   24.6315 C   0  0  0  0  0  0  0  0  0  0  0  0
   11.4730  -19.4492   23.8947 O   0  0  0  0  0  0  0  0  0  0  0  0
   13.5643  -19.0766   24.6853 O   0  0  0  0  0  0  0  0  0  0  0  0
  2  1  1  0
  2  3  1  0
  3  4  1  6
  5  3  1  0
  5  6  2  0
  7  8  1  0
  8 18  2  0
  9 10  2  0
  9  8  1  0
 10 11  1  0
 11 12  1  0
 11 17  2  0
 13 12  1  1
 13 14  1  0
 14  5  1  0
 15 13  1  0
 16 15  2  0
 18 17  1  0
 20 19  1  1
 20 22  1  0
 20 21  1  0
 21 15  1  0
 22 24  1  0
 23 22  2  0
M  END
$$$$
