SYA.pdb
     RDKit          3D

 24 24  0  0  1  0  0  0  0  0999 V2000
   13.3897  -20.3912   18.1489 O   0  0  0  0  0  0  0  0  0  0  0  0
   14.1391  -19.3423   18.6536 C   0  0  0  0  0  0  0  0  0  0  0  0
   13.1938  -18.2343   19.0546 C   0  0  2  0  0  0  0  0  0  0  0  0
   12.5288  -17.7045   17.8740 N   0  0  0  0  0  0  0  0  0  0  0  0
   13.8983  -17.1199   19.7303 C   0  0  0  0  0  0  0  0  0  0  0  0
   14.5126  -16.2659   19.0176 O   0  0  0  0  0  0  0  0  0  0  0  0
   11.7793  -19.1793   26.4608 O   0  0  0  0  0  0  0  0  0  0  0  0
   12.2422  -18.2239   25.5380 C   0  0  0  0  0  0  0  0  0  0  0  0
   11.5503  -17.8838   24.4192 C   0  0  0  0  0  0  0  0  0  0  0  0
   12.0634  -16.9262   23.5394 C   0  0  0  0  0  0  0  0  0  0  0  0
   13.2727  -16.3083   23.7817 C   0  0  0  0  0  0  0  0  0  0  0  0
   13.7813  -15.3366   22.8311 C   0  0  0  0  0  0  0  0  0  0  0  0
   14.6783  -15.8141   21.7443 C   0  0  2  0  0  0  0  0  0  0  0  0
   13.9375  -16.9352   21.1225 N   0  0  0  0  0  0  0  0  0  0  0  0
   15.9989  -16.3060   22.2050 C   0  0  0  0  0  0  0  0  0  0  0  0
   16.1284  -17.5511   22.4943 O   0  0  0  0  0  0  0  0  0  0  0  0
   13.9455  -16.6784   24.9251 C   0  0  0  0  0  0  0  0  0  0  0  0
   13.4434  -17.6294   25.8056 C   0  0  0  0  0  0  0  0  0  0  0  0
   19.4652  -15.7808   21.6769 C   0  0  0  0  0  0  0  0  0  0  0  0
   18.4055  -16.1412   22.7185 C   0  0  2  0  0  0  0  0  0  0  0  0
   17.1588  -15.5136   22.3551 N   0  0  0  0  0  0  0  0  0  0  0  0
   18.8775  -15.8684   24.0747 C   0  0  0  0  0  0  0  0  0  0  0  0
   18.3067  -15.0246   24.7933 O   0  0  0  0  0  0  0  0  0  0  0  0
   19.9701  -16.5490   24.5773 O   0  0  0  0  0  0  0  0  0  0  0  0
  2  1  1  0
  2  3  1  0
  3  4  1  6
  5  3  1  0
  5  6  2  0
  7  8  1  0
  8 18  2  0
  9 10  2  0
  9  8  1  0
 10 11  1  0
 11 12  1  0
 11 17  2  0
 13 12  1  1
 13 14  1  0
 14  5  1  0
 15 13  1  0
 16 15  2  0
 18 17  1  0
 20 19  1  6
 20 22  1  0
 20 21  1  0
 21 15  1  0
 22 24  1  0
 23 22  2  0
M  END
$$$$
