SYA.pdb
     RDKit          3D

 24 24  0  0  1  0  0  0  0  0999 V2000
    9.2828  -19.1264   20.0668 O   0  0  0  0  0  0  0  0  0  0  0  0
    8.4320  -18.3195   19.3309 C   0  0  0  0  0  0  0  0  0  0  0  0
    9.0596  -16.9502   19.2154 C   0  0  2  0  0  0  0  0  0  0  0  0
   10.3461  -17.0545   18.5440 N   0  0  0  0  0  0  0  0  0  0  0  0
    9.2767  -16.3245   20.5406 C   0  0  0  0  0  0  0  0  0  0  0  0
   10.4636  -16.2358   20.9856 O   0  0  0  0  0  0  0  0  0  0  0  0
    6.8675  -11.8565   27.9765 O   0  0  0  0  0  0  0  0  0  0  0  0
    6.9403  -12.5179   26.7371 C   0  0  0  0  0  0  0  0  0  0  0  0
    6.3715  -13.7316   26.5146 C   0  0  0  0  0  0  0  0  0  0  0  0
    6.4785  -14.3386   25.2599 C   0  0  0  0  0  0  0  0  0  0  0  0
    7.1572  -13.7276   24.2260 C   0  0  0  0  0  0  0  0  0  0  0  0
    7.2654  -14.4021   22.9455 C   0  0  0  0  0  0  0  0  0  0  0  0
    8.5348  -15.1084   22.6240 C   0  0  2  0  0  0  0  0  0  0  0  0
    8.2509  -15.8143   21.3538 N   0  0  0  0  0  0  0  0  0  0  0  0
    8.9646  -16.0990   23.6399 C   0  0  0  0  0  0  0  0  0  0  0  0
    8.2885  -17.1837   23.7708 O   0  0  0  0  0  0  0  0  0  0  0  0
    7.7206  -12.4984   24.4885 C   0  0  0  0  0  0  0  0  0  0  0  0
    7.6194  -11.8872   25.7327 C   0  0  0  0  0  0  0  0  0  0  0  0
   11.8251  -17.5115   25.1247 C   0  0  0  0  0  0  0  0  0  0  0  0
   10.4062  -17.0218   25.4155 C   0  0  2  0  0  0  0  0  0  0  0  0
   10.0794  -15.9595   24.4964 N   0  0  0  0  0  0  0  0  0  0  0  0
   10.2316  -16.7065   26.8321 C   0  0  0  0  0  0  0  0  0  0  0  0
   10.4754  -17.5559   27.7115 O   0  0  0  0  0  0  0  0  0  0  0  0
    9.7910  -15.4534   27.2132 O   0  0  0  0  0  0  0  0  0  0  0  0
  2  1  1  0
  2  3  1  0
  3  4  1  1
  5  3  1  0
  5  6  2  0
  7  8  1  0
  8 18  2  0
  9 10  2  0
  9  8  1  0
 10 11  1  0
 11 12  1  0
 11 17  2  0
 13 12  1  1
 13 14  1  0
 14  5  1  0
 15 13  1  0
 16 15  2  0
 18 17  1  0
 20 19  1  1
 20 22  1  0
 20 21  1  0
 21 15  1  0
 22 24  1  0
 23 22  2  0
M  END
$$$$
