SYA.pdb
     RDKit          3D

 24 24  0  0  1  0  0  0  0  0999 V2000
    9.1019  -19.1733   19.8352 O   0  0  0  0  0  0  0  0  0  0  0  0
    7.9010  -18.6411   19.3980 C   0  0  0  0  0  0  0  0  0  0  0  0
    8.1186  -17.1808   19.0777 C   0  0  2  0  0  0  0  0  0  0  0  0
    9.1741  -17.0475   18.0853 N   0  0  0  0  0  0  0  0  0  0  0  0
    8.5064  -16.4007   20.2759 C   0  0  0  0  0  0  0  0  0  0  0  0
    9.7325  -16.1135   20.4457 O   0  0  0  0  0  0  0  0  0  0  0  0
    7.1291  -11.9304   27.9633 O   0  0  0  0  0  0  0  0  0  0  0  0
    7.0402  -12.6135   26.7369 C   0  0  0  0  0  0  0  0  0  0  0  0
    6.7925  -13.9468   26.6518 C   0  0  0  0  0  0  0  0  0  0  0  0
    6.7157  -14.5690   25.4023 C   0  0  0  0  0  0  0  0  0  0  0  0
    6.8878  -13.8533   24.2357 C   0  0  0  0  0  0  0  0  0  0  0  0
    6.8238  -14.5415   22.9595 C   0  0  0  0  0  0  0  0  0  0  0  0
    8.0545  -15.2068   22.4531 C   0  0  2  0  0  0  0  0  0  0  0  0
    7.6041  -15.9481   21.2532 N   0  0  0  0  0  0  0  0  0  0  0  0
    8.6765  -16.1601   23.4030 C   0  0  0  0  0  0  0  0  0  0  0  0
    8.0778  -17.2708   23.6456 O   0  0  0  0  0  0  0  0  0  0  0  0
    7.1371  -12.5045   24.3612 C   0  0  0  0  0  0  0  0  0  0  0  0
    7.2152  -11.8771   25.5989 C   0  0  0  0  0  0  0  0  0  0  0  0
   11.8723  -17.3091   24.4448 C   0  0  0  0  0  0  0  0  0  0  0  0
   10.4421  -17.0145   24.8981 C   0  0  2  0  0  0  0  0  0  0  0  0
    9.8996  -15.9576   24.0803 N   0  0  0  0  0  0  0  0  0  0  0  0
   10.3759  -16.7928   26.3414 C   0  0  0  0  0  0  0  0  0  0  0  0
   10.7733  -17.6627   27.1413 O   0  0  0  0  0  0  0  0  0  0  0  0
    9.8681  -15.6071   26.8371 O   0  0  0  0  0  0  0  0  0  0  0  0
  2  1  1  0
  2  3  1  0
  3  4  1  6
  5  3  1  0
  5  6  2  0
  7  8  1  0
  8 18  2  0
  9 10  2  0
  9  8  1  0
 10 11  1  0
 11 12  1  0
 11 17  2  0
 13 12  1  1
 13 14  1  0
 14  5  1  0
 15 13  1  0
 16 15  2  0
 18 17  1  0
 20 19  1  6
 20 22  1  0
 20 21  1  0
 21 15  1  0
 22 24  1  0
 23 22  2  0
M  END
$$$$
