SYA.pdb
     RDKit          3D

 24 24  0  0  1  0  0  0  0  0999 V2000
   11.8095  -26.0579   26.9336 O   0  0  0  0  0  0  0  0  0  0  0  0
   10.8294  -27.0334   26.9989 C   0  0  0  0  0  0  0  0  0  0  0  0
    9.5450  -26.3846   27.4591 C   0  0  2  0  0  0  0  0  0  0  0  0
    9.2095  -25.2783   26.5758 N   0  0  0  0  0  0  0  0  0  0  0  0
    9.6510  -25.8602   28.8406 C   0  0  0  0  0  0  0  0  0  0  0  0
    9.6190  -24.6026   29.0193 O   0  0  0  0  0  0  0  0  0  0  0  0
    7.7769  -25.4753   37.4641 O   0  0  0  0  0  0  0  0  0  0  0  0
    7.9585  -25.7534   36.0972 C   0  0  0  0  0  0  0  0  0  0  0  0
    8.1524  -27.0107   35.6200 C   0  0  0  0  0  0  0  0  0  0  0  0
    8.3270  -27.2231   34.2494 C   0  0  0  0  0  0  0  0  0  0  0  0
    8.3073  -26.1730   33.3552 C   0  0  0  0  0  0  0  0  0  0  0  0
    8.5160  -26.4335   31.9428 C   0  0  0  0  0  0  0  0  0  0  0  0
    9.8346  -26.0861   31.3476 C   0  0  2  0  0  0  0  0  0  0  0  0
    9.7864  -26.6637   29.9852 N   0  0  0  0  0  0  0  0  0  0  0  0
   11.0037  -26.6462   32.0671 C   0  0  0  0  0  0  0  0  0  0  0  0
   11.2491  -27.9032   31.9642 O   0  0  0  0  0  0  0  0  0  0  0  0
    8.1084  -24.9131   33.8753 C   0  0  0  0  0  0  0  0  0  0  0  0
    7.9338  -24.6922   35.2363 C   0  0  0  0  0  0  0  0  0  0  0  0
   14.0678  -25.5370   33.8762 C   0  0  0  0  0  0  0  0  0  0  0  0
   13.0136  -26.5767   33.4946 C   0  0  2  0  0  0  0  0  0  0  0  0
   11.8983  -25.9067   32.8725 N   0  0  0  0  0  0  0  0  0  0  0  0
   12.6803  -27.4377   34.6278 C   0  0  0  0  0  0  0  0  0  0  0  0
   13.3735  -28.4383   34.8969 O   0  0  0  0  0  0  0  0  0  0  0  0
   11.5844  -27.1482   35.4183 O   0  0  0  0  0  0  0  0  0  0  0  0
  2  1  1  0
  2  3  1  0
  3  4  1  6
  5  3  1  0
  5  6  2  0
  7  8  1  0
  8 18  2  0
  9 10  2  0
  9  8  1  0
 10 11  1  0
 11 12  1  0
 11 17  2  0
 13 12  1  1
 13 14  1  0
 14  5  1  0
 15 13  1  0
 16 15  2  0
 18 17  1  0
 20 19  1  1
 20 22  1  0
 20 21  1  0
 21 15  1  0
 22 24  1  0
 23 22  2  0
M  END
$$$$
