SYA.pdb
     RDKit          3D

 24 24  0  0  1  0  0  0  0  0999 V2000
    5.1802  -17.3544   19.9052 O   0  0  0  0  0  0  0  0  0  0  0  0
    6.5192  -17.2731   20.2472 C   0  0  0  0  0  0  0  0  0  0  0  0
    6.9708  -15.8440   20.0577 C   0  0  2  0  0  0  0  0  0  0  0  0
    7.6789  -15.7161   18.7932 N   0  0  0  0  0  0  0  0  0  0  0  0
    7.8748  -15.3981   21.1434 C   0  0  0  0  0  0  0  0  0  0  0  0
    9.1299  -15.4567   20.9541 O   0  0  0  0  0  0  0  0  0  0  0  0
    9.6167  -13.4282   29.7465 O   0  0  0  0  0  0  0  0  0  0  0  0
    9.0718  -13.5625   28.4566 C   0  0  0  0  0  0  0  0  0  0  0  0
    7.9112  -14.2252   28.2119 C   0  0  0  0  0  0  0  0  0  0  0  0
    7.4204  -14.3246   26.9067 C   0  0  0  0  0  0  0  0  0  0  0  0
    8.0945  -13.7584   25.8447 C   0  0  0  0  0  0  0  0  0  0  0  0
    7.5633  -13.9046   24.5019 C   0  0  0  0  0  0  0  0  0  0  0  0
    8.3822  -14.6294   23.4932 C   0  0  2  0  0  0  0  0  0  0  0  0
    7.4394  -14.9076   22.3859 N   0  0  0  0  0  0  0  0  0  0  0  0
    8.9571  -15.9103   23.9696 C   0  0  0  0  0  0  0  0  0  0  0  0
    8.1706  -16.9081   24.1606 O   0  0  0  0  0  0  0  0  0  0  0  0
    9.2670  -13.0948   26.1310 C   0  0  0  0  0  0  0  0  0  0  0  0
    9.7627  -12.9908   27.4253 C   0  0  0  0  0  0  0  0  0  0  0  0
   11.9242  -17.9037   23.7969 C   0  0  0  0  0  0  0  0  0  0  0  0
   10.7519  -17.4509   24.6679 C   0  0  2  0  0  0  0  0  0  0  0  0
   10.3249  -16.1429   24.2358 N   0  0  0  0  0  0  0  0  0  0  0  0
   11.0664  -17.5742   26.0901 C   0  0  0  0  0  0  0  0  0  0  0  0
   10.9688  -16.5941   26.8543 O   0  0  0  0  0  0  0  0  0  0  0  0
   11.4784  -18.7885   26.6051 O   0  0  0  0  0  0  0  0  0  0  0  0
  2  1  1  0
  2  3  1  0
  3  4  1  6
  5  3  1  0
  5  6  2  0
  7  8  1  0
  8 18  2  0
  9 10  2  0
  9  8  1  0
 10 11  1  0
 11 12  1  0
 11 17  2  0
 13 12  1  1
 13 14  1  0
 14  5  1  0
 15 13  1  0
 16 15  2  0
 18 17  1  0
 20 19  1  6
 20 22  1  0
 20 21  1  0
 21 15  1  0
 22 24  1  0
 23 22  2  0
M  END
$$$$
