TKW.pdb
     RDKit          3D

 31 32  0  0  1  0  0  0  0  0999 V2000
   18.5732  -19.7353  -12.7316 C   0  0  0  0  0  0  0  0  0  0  0  0
   19.7999  -20.5761  -12.5877 C   0  0  1  0  0  0  0  0  0  0  0  0
   19.8836  -21.5065  -13.6235 O   0  0  0  0  0  0  0  0  0  0  0  0
   21.0699  -19.8198  -12.3890 C   0  0  2  0  0  0  0  0  0  0  0  0
   21.3527  -18.9650  -13.4922 N   0  0  0  0  0  0  0  0  0  0  0  0
   22.2190  -20.6760  -11.9860 C   0  0  0  0  0  0  0  0  0  0  0  0
   22.1238  -21.4788  -11.0234 O   0  0  0  0  0  0  0  0  0  0  0  0
   23.4731  -20.6301  -12.6633 N   0  0  0  0  0  0  0  0  0  0  0  0
   24.6239  -21.3971  -12.2833 C   0  0  1  0  0  0  0  0  0  0  0  0
   25.4813  -21.7716  -13.4307 C   0  0  0  0  0  0  0  0  0  0  0  0
   24.8270  -22.8638  -14.2305 C   0  0  0  0  0  0  0  0  0  0  0  0
   25.6357  -23.3008  -15.4052 C   0  0  0  0  0  0  0  0  0  0  0  0
   24.9442  -24.3979  -16.2005 C   0  0  0  0  0  0  0  0  0  0  0  0
   25.1298  -25.6184  -15.4300 N   0  0  0  0  0  0  0  0  0  0  0  0
   25.3499  -20.6246  -11.2311 C   0  0  0  0  0  0  0  0  0  0  0  0
   24.9264  -19.5091  -10.8432 O   0  0  0  0  0  0  0  0  0  0  0  0
   26.5426  -21.1108  -10.6244 N   0  0  0  0  0  0  0  0  0  0  0  0
   27.2630  -20.4236   -9.5670 C   0  0  1  0  0  0  0  0  0  0  0  0
   26.4152  -20.0969   -8.4093 C   0  0  0  0  0  0  0  0  0  0  0  0
   27.1141  -19.3431   -7.3610 C   0  0  0  0  0  0  0  0  0  0  0  0
   27.3794  -17.9669   -7.3227 C   0  0  0  0  0  0  0  0  0  0  0  0
   28.0780  -17.6649   -6.2191 N   0  0  0  0  0  0  0  0  0  0  0  0
   28.2937  -18.7705   -5.5145 C   0  0  0  0  0  0  0  0  0  0  0  0
   28.9462  -18.9839   -4.2960 C   0  0  0  0  0  0  0  0  0  0  0  0
   28.9788  -20.2646   -3.8123 C   0  0  0  0  0  0  0  0  0  0  0  0
   28.4096  -21.3328   -4.4579 C   0  0  0  0  0  0  0  0  0  0  0  0
   27.7723  -21.1175   -5.6523 C   0  0  0  0  0  0  0  0  0  0  0  0
   27.7082  -19.8333   -6.1943 C   0  0  0  0  0  0  0  0  0  0  0  0
   28.5703  -20.9691   -9.2455 C   0  0  0  0  0  0  0  0  0  0  0  0
   28.6286  -22.2950   -8.7686 O   0  0  0  0  0  0  0  0  0  0  0  0
   29.6800  -20.4047   -9.3392 O   0  0  0  0  0  0  0  0  0  0  0  0
  2  1  1  6
  3  2  1  0
  4  2  1  0
  4  5  1  6
  6  7  2  0
  6  4  1  0
  8  6  1  0
  9  8  1  0
  9 10  1  6
 11 10  1  0
 12 11  1  0
 13 12  1  0
 14 13  1  0
 15  9  1  0
 15 17  1  0
 16 15  2  0
 18 17  1  0
 18 29  1  0
 19 20  1  0
 18 19  1  1
 20 28  1  0
 21 20  2  0
 21 22  1  0
 22 23  1  0
 23 24  1  0
 24 25  2  0
 26 25  1  0
 27 26  2  0
 28 23  2  0
 28 27  1  0
 29 31  2  0
 29 30  1  0
M  END
$$$$
