TKW.pdb
     RDKit          3D

 31 32  0  0  1  0  0  0  0  0999 V2000
   20.1918  -17.8185  -15.6226 C   0  0  0  0  0  0  0  0  0  0  0  0
   20.8831  -18.8785  -14.8282 C   0  0  1  0  0  0  0  0  0  0  0  0
   20.7386  -20.1243  -15.4386 O   0  0  0  0  0  0  0  0  0  0  0  0
   22.2969  -18.5777  -14.4609 C   0  0  2  0  0  0  0  0  0  0  0  0
   23.1021  -18.3418  -15.6115 N   0  0  0  0  0  0  0  0  0  0  0  0
   22.8883  -19.5564  -13.5078 C   0  0  0  0  0  0  0  0  0  0  0  0
   22.3655  -19.7645  -12.3837 O   0  0  0  0  0  0  0  0  0  0  0  0
   24.0653  -20.2999  -13.8170 N   0  0  0  0  0  0  0  0  0  0  0  0
   24.6495  -21.2827  -12.9512 C   0  0  1  0  0  0  0  0  0  0  0  0
   25.3003  -22.3931  -13.6830 C   0  0  0  0  0  0  0  0  0  0  0  0
   24.2632  -23.3564  -14.1899 C   0  0  0  0  0  0  0  0  0  0  0  0
   24.8145  -24.7065  -14.5031 C   0  0  0  0  0  0  0  0  0  0  0  0
   23.7819  -25.6081  -15.1628 C   0  0  0  0  0  0  0  0  0  0  0  0
   24.4977  -26.8196  -15.5338 N   0  0  0  0  0  0  0  0  0  0  0  0
   25.5732  -20.5675  -12.0203 C   0  0  0  0  0  0  0  0  0  0  0  0
   26.4409  -19.7736  -12.4574 O   0  0  0  0  0  0  0  0  0  0  0  0
   25.5142  -20.7495  -10.6096 N   0  0  0  0  0  0  0  0  0  0  0  0
   26.4888  -20.2174   -9.6733 C   0  0  1  0  0  0  0  0  0  0  0  0
   25.9450  -20.0303   -8.3187 C   0  0  0  0  0  0  0  0  0  0  0  0
   26.9101  -19.4617   -7.3695 C   0  0  0  0  0  0  0  0  0  0  0  0
   27.4385  -18.1632   -7.3542 C   0  0  0  0  0  0  0  0  0  0  0  0
   28.3236  -18.0398   -6.3548 N   0  0  0  0  0  0  0  0  0  0  0  0
   28.4143  -19.1914   -5.6982 C   0  0  0  0  0  0  0  0  0  0  0  0
   29.1705  -19.5692   -4.5840 C   0  0  0  0  0  0  0  0  0  0  0  0
   29.0199  -20.8497   -4.1227 C   0  0  0  0  0  0  0  0  0  0  0  0
   28.1740  -21.7662   -4.6942 C   0  0  0  0  0  0  0  0  0  0  0  0
   27.4363  -21.3902   -5.7867 C   0  0  0  0  0  0  0  0  0  0  0  0
   27.5492  -20.0982   -6.3014 C   0  0  0  0  0  0  0  0  0  0  0  0
   27.8084  -20.8211   -9.7351 C   0  0  0  0  0  0  0  0  0  0  0  0
   27.8833  -22.2262   -9.8300 O   0  0  0  0  0  0  0  0  0  0  0  0
   28.9160  -20.2451   -9.7163 O   0  0  0  0  0  0  0  0  0  0  0  0
  2  1  1  6
  3  2  1  0
  4  2  1  0
  4  5  1  6
  6  7  2  0
  6  4  1  0
  8  6  1  0
  9  8  1  0
  9 10  1  6
 11 10  1  0
 12 11  1  0
 13 12  1  0
 14 13  1  0
 15  9  1  0
 15 17  1  0
 16 15  2  0
 18 17  1  0
 18 29  1  0
 19 20  1  0
 18 19  1  1
 20 28  1  0
 21 20  2  0
 21 22  1  0
 22 23  1  0
 23 24  1  0
 24 25  2  0
 26 25  1  0
 27 26  2  0
 28 23  2  0
 28 27  1  0
 29 31  2  0
 29 30  1  0
M  END
$$$$
