TKW.pdb
     RDKit          3D

 31 32  0  0  1  0  0  0  0  0999 V2000
   30.5012  -23.8822  -16.8784 C   0  0  0  0  0  0  0  0  0  0  0  0
   29.7821  -22.9402  -15.9685 C   0  0  1  0  0  0  0  0  0  0  0  0
   30.6888  -22.1860  -15.2238 O   0  0  0  0  0  0  0  0  0  0  0  0
   28.7342  -22.1022  -16.6197 C   0  0  2  0  0  0  0  0  0  0  0  0
   29.2464  -21.3991  -17.7471 N   0  0  0  0  0  0  0  0  0  0  0  0
   27.9818  -21.2394  -15.6682 C   0  0  0  0  0  0  0  0  0  0  0  0
   28.1718  -19.9974  -15.6291 O   0  0  0  0  0  0  0  0  0  0  0  0
   27.0177  -21.7711  -14.7618 N   0  0  0  0  0  0  0  0  0  0  0  0
   26.1748  -20.9723  -13.9202 C   0  0  1  0  0  0  0  0  0  0  0  0
   24.7409  -21.0589  -14.2785 C   0  0  0  0  0  0  0  0  0  0  0  0
   24.0430  -19.7727  -13.9335 C   0  0  0  0  0  0  0  0  0  0  0  0
   22.7574  -19.9756  -13.2048 C   0  0  0  0  0  0  0  0  0  0  0  0
   21.9806  -18.6779  -13.0413 C   0  0  0  0  0  0  0  0  0  0  0  0
   20.6940  -19.0584  -12.4777 N   0  0  0  0  0  0  0  0  0  0  0  0
   26.4545  -21.3626  -12.5058 C   0  0  0  0  0  0  0  0  0  0  0  0
   27.4327  -22.0949  -12.2209 O   0  0  0  0  0  0  0  0  0  0  0  0
   25.6353  -20.9277  -11.4258 N   0  0  0  0  0  0  0  0  0  0  0  0
   25.8535  -21.2867  -10.0355 C   0  0  1  0  0  0  0  0  0  0  0  0
   27.2501  -21.1104   -9.6065 C   0  0  0  0  0  0  0  0  0  0  0  0
   27.3919  -20.3489   -8.3591 C   0  0  0  0  0  0  0  0  0  0  0  0
   26.6434  -19.2408   -7.9380 C   0  0  0  0  0  0  0  0  0  0  0  0
   27.1031  -18.7978   -6.7592 N   0  0  0  0  0  0  0  0  0  0  0  0
   28.1227  -19.5548   -6.3681 C   0  0  0  0  0  0  0  0  0  0  0  0
   28.9204  -19.5189   -5.2200 C   0  0  0  0  0  0  0  0  0  0  0  0
   29.8957  -20.4724   -5.0980 C   0  0  0  0  0  0  0  0  0  0  0  0
   30.1236  -21.4472   -6.0360 C   0  0  0  0  0  0  0  0  0  0  0  0
   29.3390  -21.4765   -7.1597 C   0  0  0  0  0  0  0  0  0  0  0  0
   28.3299  -20.5295   -7.3384 C   0  0  0  0  0  0  0  0  0  0  0  0
   24.8511  -20.8048   -9.1013 C   0  0  0  0  0  0  0  0  0  0  0  0
   24.5800  -21.5946   -7.9648 O   0  0  0  0  0  0  0  0  0  0  0  0
   24.1800  -19.7544   -9.1722 O   0  0  0  0  0  0  0  0  0  0  0  0
  2  1  1  6
  3  2  1  0
  4  2  1  0
  4  5  1  6
  6  7  2  0
  6  4  1  0
  8  6  1  0
  9  8  1  0
  9 10  1  6
 11 10  1  0
 12 11  1  0
 13 12  1  0
 14 13  1  0
 15  9  1  0
 15 17  1  0
 16 15  2  0
 18 17  1  0
 18 29  1  0
 19 20  1  0
 18 19  1  1
 20 28  1  0
 21 20  2  0
 21 22  1  0
 22 23  1  0
 23 24  1  0
 24 25  2  0
 26 25  1  0
 27 26  2  0
 28 23  2  0
 28 27  1  0
 29 31  2  0
 29 30  1  0
M  END
$$$$
