TKW.pdb
     RDKit          3D

 31 32  0  0  1  0  0  0  0  0999 V2000
   31.0904  -22.9291  -17.2203 C   0  0  0  0  0  0  0  0  0  0  0  0
   29.7277  -22.9313  -16.6075 C   0  0  1  0  0  0  0  0  0  0  0  0
   29.8003  -22.6468  -15.2440 O   0  0  0  0  0  0  0  0  0  0  0  0
   28.7106  -22.1016  -17.3156 C   0  0  2  0  0  0  0  0  0  0  0  0
   29.2183  -20.8128  -17.6457 N   0  0  0  0  0  0  0  0  0  0  0  0
   27.3878  -22.0664  -16.6336 C   0  0  0  0  0  0  0  0  0  0  0  0
   26.8074  -20.9762  -16.3993 O   0  0  0  0  0  0  0  0  0  0  0  0
   26.7184  -23.2540  -16.2152 N   0  0  0  0  0  0  0  0  0  0  0  0
   25.3240  -23.3212  -15.8864 C   0  0  1  0  0  0  0  0  0  0  0  0
   24.6487  -24.5143  -16.4453 C   0  0  0  0  0  0  0  0  0  0  0  0
   23.1876  -24.4948  -16.0914 C   0  0  0  0  0  0  0  0  0  0  0  0
   22.4370  -25.6716  -16.6174 C   0  0  0  0  0  0  0  0  0  0  0  0
   23.2673  -26.9456  -16.5766 C   0  0  0  0  0  0  0  0  0  0  0  0
   22.4121  -27.9896  -17.1211 N   0  0  0  0  0  0  0  0  0  0  0  0
   25.2085  -23.2191  -14.4007 C   0  0  0  0  0  0  0  0  0  0  0  0
   25.8849  -23.9621  -13.6493 O   0  0  0  0  0  0  0  0  0  0  0  0
   24.3366  -22.2850  -13.7730 N   0  0  0  0  0  0  0  0  0  0  0  0
   24.5634  -21.7065  -12.4602 C   0  0  1  0  0  0  0  0  0  0  0  0
   25.9709  -21.3487  -12.2227 C   0  0  0  0  0  0  0  0  0  0  0  0
   26.2382  -20.8828  -10.8562 C   0  0  0  0  0  0  0  0  0  0  0  0
   25.3552  -20.2368   -9.9796 C   0  0  0  0  0  0  0  0  0  0  0  0
   25.9852  -19.9315   -8.8363 N   0  0  0  0  0  0  0  0  0  0  0  0
   27.2473  -20.3417   -8.9023 C   0  0  0  0  0  0  0  0  0  0  0  0
   28.2949  -20.2786   -7.9779 C   0  0  0  0  0  0  0  0  0  0  0  0
   29.4961  -20.8235   -8.3459 C   0  0  0  0  0  0  0  0  0  0  0  0
   29.7168  -21.4197   -9.5615 C   0  0  0  0  0  0  0  0  0  0  0  0
   28.6864  -21.4776  -10.4637 C   0  0  0  0  0  0  0  0  0  0  0  0
   27.4399  -20.9381  -10.1440 C   0  0  0  0  0  0  0  0  0  0  0  0
   23.5904  -20.7139  -12.0386 C   0  0  0  0  0  0  0  0  0  0  0  0
   22.9549  -20.9054  -10.7942 O   0  0  0  0  0  0  0  0  0  0  0  0
   23.2331  -19.6844  -12.6478 O   0  0  0  0  0  0  0  0  0  0  0  0
  2  1  1  6
  3  2  1  0
  4  2  1  0
  4  5  1  1
  6  7  2  0
  6  4  1  0
  8  6  1  0
  9  8  1  0
  9 10  1  1
 11 10  1  0
 12 11  1  0
 13 12  1  0
 14 13  1  0
 15  9  1  0
 15 17  1  0
 16 15  2  0
 18 17  1  0
 18 29  1  0
 19 20  1  0
 18 19  1  6
 20 28  1  0
 21 20  2  0
 21 22  1  0
 22 23  1  0
 23 24  1  0
 24 25  2  0
 26 25  1  0
 27 26  2  0
 28 23  2  0
 28 27  1  0
 29 31  2  0
 29 30  1  0
M  END
$$$$
