TKW.pdb
     RDKit          3D

 31 32  0  0  1  0  0  0  0  0999 V2000
   32.1054  -22.8623  -13.2869 C   0  0  0  0  0  0  0  0  0  0  0  0
   30.7681  -22.2110  -13.1456 C   0  0  1  0  0  0  0  0  0  0  0  0
   30.1597  -22.5900  -11.9491 O   0  0  0  0  0  0  0  0  0  0  0  0
   30.7542  -20.7346  -13.3563 C   0  0  2  0  0  0  0  0  0  0  0  0
   31.7024  -20.0741  -12.5242 N   0  0  0  0  0  0  0  0  0  0  0  0
   29.3924  -20.1358  -13.3030 C   0  0  0  0  0  0  0  0  0  0  0  0
   28.9605  -19.5987  -12.2517 O   0  0  0  0  0  0  0  0  0  0  0  0
   28.5171  -20.1407  -14.4288 N   0  0  0  0  0  0  0  0  0  0  0  0
   27.1800  -19.6222  -14.4136 C   0  0  1  0  0  0  0  0  0  0  0  0
   26.6173  -19.4174  -15.7676 C   0  0  0  0  0  0  0  0  0  0  0  0
   25.2172  -18.8785  -15.6697 C   0  0  0  0  0  0  0  0  0  0  0  0
   25.1096  -17.4411  -16.0538 C   0  0  0  0  0  0  0  0  0  0  0  0
   23.9324  -16.7541  -15.3781 C   0  0  0  0  0  0  0  0  0  0  0  0
   22.7528  -17.5004  -15.7896 N   0  0  0  0  0  0  0  0  0  0  0  0
   26.3559  -20.5327  -13.5633 C   0  0  0  0  0  0  0  0  0  0  0  0
   26.6144  -21.7584  -13.4934 O   0  0  0  0  0  0  0  0  0  0  0  0
   25.2512  -20.0595  -12.7999 N   0  0  0  0  0  0  0  0  0  0  0  0
   24.9388  -20.4989  -11.4513 C   0  0  1  0  0  0  0  0  0  0  0  0
   26.1130  -20.5186  -10.5644 C   0  0  0  0  0  0  0  0  0  0  0  0
   25.7803  -20.7342   -9.1507 C   0  0  0  0  0  0  0  0  0  0  0  0
   24.8287  -21.6139   -8.6155 C   0  0  0  0  0  0  0  0  0  0  0  0
   24.7896  -21.4909   -7.2812 N   0  0  0  0  0  0  0  0  0  0  0  0
   25.6687  -20.5726   -6.8946 C   0  0  0  0  0  0  0  0  0  0  0  0
   26.0198  -20.0972   -5.6270 C   0  0  0  0  0  0  0  0  0  0  0  0
   27.0009  -19.1443   -5.5588 C   0  0  0  0  0  0  0  0  0  0  0  0
   27.6460  -18.6412   -6.6601 C   0  0  0  0  0  0  0  0  0  0  0  0
   27.2968  -19.1104   -7.8998 C   0  0  0  0  0  0  0  0  0  0  0  0
   26.3030  -20.0812   -8.0306 C   0  0  0  0  0  0  0  0  0  0  0  0
   23.7330  -19.9317  -10.8733 C   0  0  0  0  0  0  0  0  0  0  0  0
   23.0561  -20.6884   -9.8945 O   0  0  0  0  0  0  0  0  0  0  0  0
   23.2024  -18.8322  -11.1342 O   0  0  0  0  0  0  0  0  0  0  0  0
  2  1  1  1
  3  2  1  0
  4  2  1  0
  4  5  1  1
  6  7  2  0
  6  4  1  0
  8  6  1  0
  9  8  1  0
  9 10  1  6
 11 10  1  0
 12 11  1  0
 13 12  1  0
 14 13  1  0
 15  9  1  0
 15 17  1  0
 16 15  2  0
 18 17  1  0
 18 29  1  0
 19 20  1  0
 18 19  1  1
 20 28  1  0
 21 20  2  0
 21 22  1  0
 22 23  1  0
 23 24  1  0
 24 25  2  0
 26 25  1  0
 27 26  2  0
 28 23  2  0
 28 27  1  0
 29 31  2  0
 29 30  1  0
M  END
$$$$
