GKG.pdb
     RDKit          3D

 18 17  0  0  1  0  0  0  0  0999 V2000
    5.9456  -21.0485   18.0750 N   0  0  0  0  0  0  0  0  0  0  0  0
    6.1509  -21.0985   19.4941 C   0  0  0  0  0  0  0  0  0  0  0  0
    5.6200  -19.9038   20.1938 C   0  0  0  0  0  0  0  0  0  0  0  0
    6.2620  -18.8293   20.0416 O   0  0  0  0  0  0  0  0  0  0  0  0
    4.4643  -19.9107   20.9985 N   0  0  0  0  0  0  0  0  0  0  0  0
    4.0281  -18.6647   21.6378 C   0  0  1  0  0  0  0  0  0  0  0  0
    2.5535  -18.7493   21.9381 C   0  0  0  0  0  0  0  0  0  0  0  0
    1.7524  -19.0232   20.7237 C   0  0  0  0  0  0  0  0  0  0  0  0
    0.6028  -19.9956   21.0103 C   0  0  0  0  0  0  0  0  0  0  0  0
   -0.1588  -20.1304   19.7036 C   0  0  0  0  0  0  0  0  0  0  0  0
   -1.3233  -20.9695   19.8266 N   0  0  0  0  0  0  0  0  0  0  0  0
    4.7906  -18.4168   22.8642 C   0  0  0  0  0  0  0  0  0  0  0  0
    4.4903  -17.4842   23.6294 O   0  0  0  0  0  0  0  0  0  0  0  0
    5.9173  -19.2205   23.2586 N   0  0  0  0  0  0  0  0  0  0  0  0
    6.5913  -18.9551   24.5208 C   0  0  0  0  0  0  0  0  0  0  0  0
    7.7066  -19.8869   24.7538 C   0  0  0  0  0  0  0  0  0  0  0  0
    8.0381  -20.6505   23.8173 O   0  0  0  0  0  0  0  0  0  0  0  0
    8.3684  -19.9154   25.9761 O   0  0  0  0  0  0  0  0  0  0  0  0
  2  1  1  0
  3  2  1  0
  4  3  2  0
  5  3  1  0
  6  5  1  0
  6  7  1  1
  8  7  1  0
  9  8  1  0
 10  9  1  0
 11 10  1  0
 12  6  1  0
 12 14  1  0
 13 12  2  0
 15 14  1  0
 15 16  1  0
 16 18  1  0
 17 16  2  0
M  END
$$$$
