GKG.pdb
     RDKit          3D

 18 17  0  0  1  0  0  0  0  0999 V2000
    9.7387  -18.6841   16.8254 N   0  0  0  0  0  0  0  0  0  0  0  0
    8.9516  -18.7921   18.0202 C   0  0  0  0  0  0  0  0  0  0  0  0
    9.3244  -17.7885   19.0463 C   0  0  0  0  0  0  0  0  0  0  0  0
   10.5555  -17.5536   19.1845 O   0  0  0  0  0  0  0  0  0  0  0  0
    8.3949  -17.1034   19.8525 N   0  0  0  0  0  0  0  0  0  0  0  0
    8.8824  -16.2398   20.9333 C   0  0  1  0  0  0  0  0  0  0  0  0
    7.7892  -15.2844   21.3381 C   0  0  0  0  0  0  0  0  0  0  0  0
    8.2324  -14.3453   22.3932 C   0  0  0  0  0  0  0  0  0  0  0  0
    7.6944  -14.7460   23.7713 C   0  0  0  0  0  0  0  0  0  0  0  0
    8.2258  -13.7046   24.7401 C   0  0  0  0  0  0  0  0  0  0  0  0
    7.8679  -13.9873   26.1066 N   0  0  0  0  0  0  0  0  0  0  0  0
    9.3180  -17.0408   22.0802 C   0  0  0  0  0  0  0  0  0  0  0  0
    8.8392  -18.1676   22.2952 O   0  0  0  0  0  0  0  0  0  0  0  0
   10.3108  -16.5862   23.0178 N   0  0  0  0  0  0  0  0  0  0  0  0
   11.6982  -16.4550   22.5986 C   0  0  0  0  0  0  0  0  0  0  0  0
   12.5149  -17.5974   23.0394 C   0  0  0  0  0  0  0  0  0  0  0  0
   12.2649  -18.7219   22.5464 O   0  0  0  0  0  0  0  0  0  0  0  0
   13.5307  -17.4294   23.9735 O   0  0  0  0  0  0  0  0  0  0  0  0
  2  1  1  0
  3  2  1  0
  4  3  2  0
  5  3  1  0
  6  5  1  0
  6  7  1  1
  8  7  1  0
  9  8  1  0
 10  9  1  0
 11 10  1  0
 12  6  1  0
 12 14  1  0
 13 12  2  0
 15 14  1  0
 15 16  1  0
 16 18  1  0
 17 16  2  0
M  END
$$$$
