GKG.pdb
     RDKit          3D

 18 17  0  0  1  0  0  0  0  0999 V2000
    5.6488  -21.3212   17.2719 N   0  0  0  0  0  0  0  0  0  0  0  0
    4.9061  -22.0777   18.2387 C   0  0  0  0  0  0  0  0  0  0  0  0
    4.5086  -21.2705   19.4174 C   0  0  0  0  0  0  0  0  0  0  0  0
    5.2227  -20.2648   19.6791 O   0  0  0  0  0  0  0  0  0  0  0  0
    3.4018  -21.5649   20.2369 N   0  0  0  0  0  0  0  0  0  0  0  0
    3.1123  -20.7029   21.3879 C   0  0  1  0  0  0  0  0  0  0  0  0
    1.6231  -20.6621   21.6169 C   0  0  0  0  0  0  0  0  0  0  0  0
    0.8937  -20.1270   20.4451 C   0  0  0  0  0  0  0  0  0  0  0  0
   -0.6248  -20.2113   20.6357 C   0  0  0  0  0  0  0  0  0  0  0  0
   -1.2307  -19.8043   19.3043 C   0  0  0  0  0  0  0  0  0  0  0  0
   -2.6694  -19.8792   19.3058 N   0  0  0  0  0  0  0  0  0  0  0  0
    3.8050  -21.1868   22.5850 C   0  0  0  0  0  0  0  0  0  0  0  0
    3.8388  -22.3983   22.8615 O   0  0  0  0  0  0  0  0  0  0  0  0
    4.4803  -20.3094   23.5044 N   0  0  0  0  0  0  0  0  0  0  0  0
    5.2079  -20.8650   24.6356 C   0  0  0  0  0  0  0  0  0  0  0  0
    6.6303  -21.0775   24.3222 C   0  0  0  0  0  0  0  0  0  0  0  0
    6.9912  -20.9614   23.1279 O   0  0  0  0  0  0  0  0  0  0  0  0
    7.5410  -21.3967   25.3228 O   0  0  0  0  0  0  0  0  0  0  0  0
  2  1  1  0
  3  2  1  0
  4  3  2  0
  5  3  1  0
  6  5  1  0
  6  7  1  1
  8  7  1  0
  9  8  1  0
 10  9  1  0
 11 10  1  0
 12  6  1  0
 12 14  1  0
 13 12  2  0
 15 14  1  0
 15 16  1  0
 16 18  1  0
 17 16  2  0
M  END
$$$$
