GKG.pdb
     RDKit          3D

 18 17  0  0  1  0  0  0  0  0999 V2000
    8.7672  -17.0131   19.0451 N   0  0  0  0  0  0  0  0  0  0  0  0
    7.7684  -16.8698   20.0652 C   0  0  0  0  0  0  0  0  0  0  0  0
    8.2079  -15.9976   21.1809 C   0  0  0  0  0  0  0  0  0  0  0  0
    9.4267  -15.6752   21.1985 O   0  0  0  0  0  0  0  0  0  0  0  0
    7.3527  -15.5243   22.1949 N   0  0  0  0  0  0  0  0  0  0  0  0
    7.9212  -14.7757   23.3209 C   0  0  1  0  0  0  0  0  0  0  0  0
    6.8039  -14.1592   24.1231 C   0  0  0  0  0  0  0  0  0  0  0  0
    7.3115  -13.2961   25.2135 C   0  0  0  0  0  0  0  0  0  0  0  0
    6.1703  -12.5984   25.9620 C   0  0  0  0  0  0  0  0  0  0  0  0
    6.8365  -11.7445   27.0262 C   0  0  0  0  0  0  0  0  0  0  0  0
    5.8861  -11.0009   27.8131 N   0  0  0  0  0  0  0  0  0  0  0  0
    8.7397  -15.6506   24.1645 C   0  0  0  0  0  0  0  0  0  0  0  0
    8.2949  -16.7299   24.5917 O   0  0  0  0  0  0  0  0  0  0  0  0
   10.0882  -15.3260   24.5484 N   0  0  0  0  0  0  0  0  0  0  0  0
   10.8215  -16.2116   25.4404 C   0  0  0  0  0  0  0  0  0  0  0  0
   12.1075  -16.6320   24.8610 C   0  0  0  0  0  0  0  0  0  0  0  0
   12.3850  -16.2407   23.7034 O   0  0  0  0  0  0  0  0  0  0  0  0
   12.9837  -17.4380   25.5789 O   0  0  0  0  0  0  0  0  0  0  0  0
  2  1  1  0
  3  2  1  0
  4  3  2  0
  5  3  1  0
  6  5  1  0
  6  7  1  1
  8  7  1  0
  9  8  1  0
 10  9  1  0
 11 10  1  0
 12  6  1  0
 12 14  1  0
 13 12  2  0
 15 14  1  0
 15 16  1  0
 16 18  1  0
 17 16  2  0
M  END
$$$$
