GKG.pdb
     RDKit          3D

 18 17  0  0  1  0  0  0  0  0999 V2000
    8.7916  -19.1771   18.6054 N   0  0  0  0  0  0  0  0  0  0  0  0
    8.2866  -19.0080   19.9377 C   0  0  0  0  0  0  0  0  0  0  0  0
    8.7287  -17.7380   20.5627 C   0  0  0  0  0  0  0  0  0  0  0  0
    9.9612  -17.4788   20.5024 O   0  0  0  0  0  0  0  0  0  0  0  0
    7.8619  -16.8315   21.2032 N   0  0  0  0  0  0  0  0  0  0  0  0
    8.4212  -15.6400   21.8505 C   0  0  1  0  0  0  0  0  0  0  0  0
    7.3571  -14.5762   21.9391 C   0  0  0  0  0  0  0  0  0  0  0  0
    7.6138  -13.4526   21.0101 C   0  0  0  0  0  0  0  0  0  0  0  0
    7.6344  -13.9179   19.5498 C   0  0  0  0  0  0  0  0  0  0  0  0
    7.8369  -12.6626   18.7199 C   0  0  0  0  0  0  0  0  0  0  0  0
    7.8585  -12.9329   17.3050 N   0  0  0  0  0  0  0  0  0  0  0  0
    8.9354  -15.9673   23.1830 C   0  0  0  0  0  0  0  0  0  0  0  0
    8.2800  -16.6737   23.9683 O   0  0  0  0  0  0  0  0  0  0  0  0
   10.2096  -15.5021   23.6639 N   0  0  0  0  0  0  0  0  0  0  0  0
   10.6614  -15.8733   24.9965 C   0  0  0  0  0  0  0  0  0  0  0  0
   11.8267  -16.7712   24.9505 C   0  0  0  0  0  0  0  0  0  0  0  0
   12.1998  -17.1907   23.8302 O   0  0  0  0  0  0  0  0  0  0  0  0
   12.4895  -17.1396   26.1156 O   0  0  0  0  0  0  0  0  0  0  0  0
  2  1  1  0
  3  2  1  0
  4  3  2  0
  5  3  1  0
  6  5  1  0
  6  7  1  1
  8  7  1  0
  9  8  1  0
 10  9  1  0
 11 10  1  0
 12  6  1  0
 12 14  1  0
 13 12  2  0
 15 14  1  0
 15 16  1  0
 16 18  1  0
 17 16  2  0
M  END
$$$$
