NKQ.pdb
     RDKit          3D

 27 26  0  0  1  0  0  0  0  0999 V2000
    6.9281  -12.6840   17.9168 N   0  0  0  0  0  0  0  0  0  0  0  0
    7.8647  -13.1014   18.9034 C   0  0  0  0  0  0  0  0  0  0  0  0
    9.0751  -13.1228   18.5894 O   0  0  0  0  0  0  0  0  0  0  0  0
    7.4395  -13.5017   20.2661 C   0  0  0  0  0  0  0  0  0  0  0  0
    8.2440  -14.6958   20.6736 C   0  0  2  0  0  0  0  0  0  0  0  0
    8.2605  -15.6291   19.5661 N   0  0  0  0  0  0  0  0  0  0  0  0
    7.7565  -15.3735   21.8739 C   0  0  0  0  0  0  0  0  0  0  0  0
    7.4667  -14.6701   22.8745 O   0  0  0  0  0  0  0  0  0  0  0  0
    7.5824  -16.7627   22.0055 N   0  0  0  0  0  0  0  0  0  0  0  0
    7.1357  -17.4173   23.2419 C   0  0  1  0  0  0  0  0  0  0  0  0
    6.6987  -18.8115   22.9379 C   0  0  0  0  0  0  0  0  0  0  0  0
    6.3769  -19.6938   24.0974 C   0  0  0  0  0  0  0  0  0  0  0  0
    5.9860  -21.0588   23.5817 C   0  0  0  0  0  0  0  0  0  0  0  0
    5.5744  -21.9803   24.7109 C   0  0  0  0  0  0  0  0  0  0  0  0
    5.0382  -23.1784   24.0873 N   0  0  0  0  0  0  0  0  0  0  0  0
    8.2754  -17.3224   24.1890 C   0  0  0  0  0  0  0  0  0  0  0  0
    9.4525  -17.4002   23.7011 O   0  0  0  0  0  0  0  0  0  0  0  0
    8.8688  -13.1332   28.3943 N   0  0  0  0  0  0  0  0  0  0  0  0
    9.8608  -14.0311   28.8464 C   0  0  0  0  0  0  0  0  0  0  0  0
   10.5321  -13.7237   29.8876 O   0  0  0  0  0  0  0  0  0  0  0  0
   10.1508  -15.3094   28.1754 C   0  0  0  0  0  0  0  0  0  0  0  0
    9.1621  -15.6806   27.1420 C   0  0  0  0  0  0  0  0  0  0  0  0
    9.3881  -16.9479   26.3803 C   0  0  2  0  0  0  0  0  0  0  0  0
    8.1553  -17.1512   25.5829 N   0  0  0  0  0  0  0  0  0  0  0  0
    9.6763  -18.1483   27.1422 C   0  0  0  0  0  0  0  0  0  0  0  0
    8.7745  -19.0193   27.3387 O   0  0  0  0  0  0  0  0  0  0  0  0
   10.9239  -18.4548   27.7026 O   0  0  0  0  0  0  0  0  0  0  0  0
  2  1  1  0
  3  2  2  0
  4  2  1  0
  4  5  1  0
  5  6  1  6
  7  5  1  0
  7  8  2  0
  9  7  1  0
 10  9  1  0
 10 11  1  6
 12 11  1  0
 12 13  1  0
 13 14  1  0
 14 15  1  0
 16 10  1  0
 17 16  2  0
 19 18  1  0
 20 19  2  0
 21 19  1  0
 22 21  1  0
 23 22  1  1
 23 24  1  0
 24 16  1  0
 25 23  1  0
 26 25  2  0
 27 25  1  0
M  END
$$$$
