NKQ.pdb
     RDKit          3D

 27 26  0  0  1  0  0  0  0  0999 V2000
    7.5028  -21.7760   17.2994 N   0  0  0  0  0  0  0  0  0  0  0  0
    8.3133  -21.3493   18.3883 C   0  0  0  0  0  0  0  0  0  0  0  0
    8.4372  -22.1222   19.3637 O   0  0  0  0  0  0  0  0  0  0  0  0
    8.9979  -20.0342   18.3859 C   0  0  0  0  0  0  0  0  0  0  0  0
    9.4462  -19.7393   19.7826 C   0  0  2  0  0  0  0  0  0  0  0  0
    8.3041  -19.8770   20.6626 N   0  0  0  0  0  0  0  0  0  0  0  0
   10.0413  -18.4158   19.9610 C   0  0  0  0  0  0  0  0  0  0  0  0
   11.0778  -18.1395   19.3059 O   0  0  0  0  0  0  0  0  0  0  0  0
    9.5462  -17.4134   20.8141 N   0  0  0  0  0  0  0  0  0  0  0  0
   10.1663  -16.0911   20.9681 C   0  0  1  0  0  0  0  0  0  0  0  0
    9.1111  -15.0369   20.9182 C   0  0  0  0  0  0  0  0  0  0  0  0
    8.8850  -14.3593   19.6082 C   0  0  0  0  0  0  0  0  0  0  0  0
    7.6526  -13.4918   19.7107 C   0  0  0  0  0  0  0  0  0  0  0  0
    7.3868  -12.7521   18.4162 C   0  0  0  0  0  0  0  0  0  0  0  0
    6.1217  -12.0591   18.5924 N   0  0  0  0  0  0  0  0  0  0  0  0
   10.9255  -16.1421   22.2432 C   0  0  0  0  0  0  0  0  0  0  0  0
   10.2533  -16.2484   23.3232 O   0  0  0  0  0  0  0  0  0  0  0  0
   11.9324  -19.6668   25.9633 N   0  0  0  0  0  0  0  0  0  0  0  0
   12.5484  -19.8210   24.7018 C   0  0  0  0  0  0  0  0  0  0  0  0
   12.8434  -20.9987   24.3077 O   0  0  0  0  0  0  0  0  0  0  0  0
   12.8593  -18.6855   23.8174 C   0  0  0  0  0  0  0  0  0  0  0  0
   12.3893  -17.3818   24.3298 C   0  0  0  0  0  0  0  0  0  0  0  0
   12.9403  -16.1423   23.6994 C   0  0  2  0  0  0  0  0  0  0  0  0
   12.3298  -16.0839   22.3501 N   0  0  0  0  0  0  0  0  0  0  0  0
   14.3821  -16.0300   23.5845 C   0  0  0  0  0  0  0  0  0  0  0  0
   15.1098  -15.9790   24.6229 O   0  0  0  0  0  0  0  0  0  0  0  0
   15.0821  -15.9785   22.3712 O   0  0  0  0  0  0  0  0  0  0  0  0
  2  1  1  0
  3  2  2  0
  4  2  1  0
  4  5  1  0
  5  6  1  1
  7  5  1  0
  7  8  2  0
  9  7  1  0
 10  9  1  0
 10 11  1  1
 12 11  1  0
 12 13  1  0
 13 14  1  0
 14 15  1  0
 16 10  1  0
 17 16  2  0
 19 18  1  0
 20 19  2  0
 21 19  1  0
 22 21  1  0
 23 22  1  6
 23 24  1  0
 24 16  1  0
 25 23  1  0
 26 25  2  0
 27 25  1  0
M  END
$$$$
