NKQ.pdb
     RDKit          3D

 27 26  0  0  1  0  0  0  0  0999 V2000
    8.3859  -12.1701   17.8961 N   0  0  0  0  0  0  0  0  0  0  0  0
    8.8501  -13.3088   18.6121 C   0  0  0  0  0  0  0  0  0  0  0  0
    9.6543  -14.0742   18.0364 O   0  0  0  0  0  0  0  0  0  0  0  0
    8.4070  -13.5962   19.9974 C   0  0  0  0  0  0  0  0  0  0  0  0
    7.6756  -14.9015   19.9917 C   0  0  2  0  0  0  0  0  0  0  0  0
    6.4644  -14.7377   19.2144 N   0  0  0  0  0  0  0  0  0  0  0  0
    7.3366  -15.4117   21.3193 C   0  0  0  0  0  0  0  0  0  0  0  0
    6.4821  -14.7840   21.9943 O   0  0  0  0  0  0  0  0  0  0  0  0
    7.8927  -16.5592   21.9123 N   0  0  0  0  0  0  0  0  0  0  0  0
    7.5097  -17.0616   23.2381 C   0  0  1  0  0  0  0  0  0  0  0  0
    7.7569  -18.5319   23.3044 C   0  0  0  0  0  0  0  0  0  0  0  0
    7.6577  -19.1807   24.6444 C   0  0  0  0  0  0  0  0  0  0  0  0
    7.9866  -20.6484   24.5045 C   0  0  0  0  0  0  0  0  0  0  0  0
    7.8842  -21.3679   25.8332 C   0  0  0  0  0  0  0  0  0  0  0  0
    8.1635  -22.7683   25.5635 N   0  0  0  0  0  0  0  0  0  0  0  0
    8.2874  -16.2620   24.2182 C   0  0  0  0  0  0  0  0  0  0  0  0
    9.5218  -16.0597   23.9635 O   0  0  0  0  0  0  0  0  0  0  0  0
    7.2787  -10.8511   26.5843 N   0  0  0  0  0  0  0  0  0  0  0  0
    6.4904  -11.8935   27.1196 C   0  0  0  0  0  0  0  0  0  0  0  0
    5.3593  -11.6000   27.6330 O   0  0  0  0  0  0  0  0  0  0  0  0
    6.9110  -13.3046   27.1059 C   0  0  0  0  0  0  0  0  0  0  0  0
    8.1360  -13.5563   26.3189 C   0  0  0  0  0  0  0  0  0  0  0  0
    8.6775  -14.9504   26.2937 C   0  0  2  0  0  0  0  0  0  0  0  0
    7.7656  -15.7092   25.4052 N   0  0  0  0  0  0  0  0  0  0  0  0
    8.8082  -15.6442   27.5610 C   0  0  0  0  0  0  0  0  0  0  0  0
    9.5860  -15.2021   28.4610 O   0  0  0  0  0  0  0  0  0  0  0  0
    8.1134  -16.8123   27.9041 O   0  0  0  0  0  0  0  0  0  0  0  0
  2  1  1  0
  3  2  2  0
  4  2  1  0
  4  5  1  0
  5  6  1  6
  7  5  1  0
  7  8  2  0
  9  7  1  0
 10  9  1  0
 10 11  1  6
 12 11  1  0
 12 13  1  0
 13 14  1  0
 14 15  1  0
 16 10  1  0
 17 16  2  0
 19 18  1  0
 20 19  2  0
 21 19  1  0
 22 21  1  0
 23 22  1  1
 23 24  1  0
 24 16  1  0
 25 23  1  0
 26 25  2  0
 27 25  1  0
M  END
$$$$
