NKQ.pdb
     RDKit          3D

 27 26  0  0  1  0  0  0  0  0999 V2000
   15.1524  -14.9528   17.7122 N   0  0  0  0  0  0  0  0  0  0  0  0
   15.4701  -14.8864   19.0976 C   0  0  0  0  0  0  0  0  0  0  0  0
   16.6763  -14.9370   19.4245 O   0  0  0  0  0  0  0  0  0  0  0  0
   14.4196  -14.7606   20.1362 C   0  0  0  0  0  0  0  0  0  0  0  0
   13.0860  -14.8566   19.4645 C   0  0  2  0  0  0  0  0  0  0  0  0
   12.8734  -13.6413   18.7058 N   0  0  0  0  0  0  0  0  0  0  0  0
   11.9622  -15.0640   20.3764 C   0  0  0  0  0  0  0  0  0  0  0  0
   11.4130  -14.0513   20.8791 O   0  0  0  0  0  0  0  0  0  0  0  0
   11.4372  -16.3160   20.7434 N   0  0  0  0  0  0  0  0  0  0  0  0
   10.2937  -16.4896   21.6484 C   0  0  1  0  0  0  0  0  0  0  0  0
    9.4817  -17.6612   21.2065 C   0  0  0  0  0  0  0  0  0  0  0  0
    8.4002  -18.1265   22.1231 C   0  0  0  0  0  0  0  0  0  0  0  0
    7.6479  -19.2565   21.4606 C   0  0  0  0  0  0  0  0  0  0  0  0
    6.4962  -19.7341   22.3204 C   0  0  0  0  0  0  0  0  0  0  0  0
    5.8739  -20.8315   21.5991 N   0  0  0  0  0  0  0  0  0  0  0  0
   10.8679  -16.6179   23.0118 C   0  0  0  0  0  0  0  0  0  0  0  0
   11.9509  -17.2829   23.1329 O   0  0  0  0  0  0  0  0  0  0  0  0
    9.0569  -13.5513   28.2211 N   0  0  0  0  0  0  0  0  0  0  0  0
   10.0338  -14.4463   28.7102 C   0  0  0  0  0  0  0  0  0  0  0  0
   10.2884  -14.4464   29.9610 O   0  0  0  0  0  0  0  0  0  0  0  0
   10.7670  -15.3843   27.8438 C   0  0  0  0  0  0  0  0  0  0  0  0
   10.4093  -15.2824   26.4138 C   0  0  0  0  0  0  0  0  0  0  0  0
   11.0008  -16.2822   25.4714 C   0  0  2  0  0  0  0  0  0  0  0  0
   10.3090  -16.0602   24.1795 N   0  0  0  0  0  0  0  0  0  0  0  0
   10.9113  -17.6839   25.8347 C   0  0  0  0  0  0  0  0  0  0  0  0
    9.8675  -18.3541   25.5670 O   0  0  0  0  0  0  0  0  0  0  0  0
   11.9257  -18.4052   26.4792 O   0  0  0  0  0  0  0  0  0  0  0  0
  2  1  1  0
  3  2  2  0
  4  2  1  0
  4  5  1  0
  5  6  1  1
  7  5  1  0
  7  8  2  0
  9  7  1  0
 10  9  1  0
 10 11  1  6
 12 11  1  0
 12 13  1  0
 13 14  1  0
 14 15  1  0
 16 10  1  0
 17 16  2  0
 19 18  1  0
 20 19  2  0
 21 19  1  0
 22 21  1  0
 23 22  1  1
 23 24  1  0
 24 16  1  0
 25 23  1  0
 26 25  2  0
 27 25  1  0
M  END
$$$$
