NKQ.pdb
     RDKit          3D

 27 26  0  0  1  0  0  0  0  0999 V2000
    7.1136  -12.6535   18.2428 N   0  0  0  0  0  0  0  0  0  0  0  0
    8.3697  -13.2218   18.5947 C   0  0  0  0  0  0  0  0  0  0  0  0
    8.6833  -14.3155   18.0755 O   0  0  0  0  0  0  0  0  0  0  0  0
    9.2920  -12.5543   19.5444 C   0  0  0  0  0  0  0  0  0  0  0  0
   10.2208  -13.5889   20.0975 C   0  0  2  0  0  0  0  0  0  0  0  0
   10.8303  -14.2897   18.9861 N   0  0  0  0  0  0  0  0  0  0  0  0
    9.5869  -14.5550   20.9933 C   0  0  0  0  0  0  0  0  0  0  0  0
    8.9166  -14.1139   21.9609 O   0  0  0  0  0  0  0  0  0  0  0  0
    9.6647  -15.9530   20.8627 N   0  0  0  0  0  0  0  0  0  0  0  0
    9.1582  -16.8975   21.8668 C   0  0  1  0  0  0  0  0  0  0  0  0
    9.1341  -18.2734   21.2894 C   0  0  0  0  0  0  0  0  0  0  0  0
    8.7506  -19.3897   22.2021 C   0  0  0  0  0  0  0  0  0  0  0  0
    8.8326  -20.6937   21.4439 C   0  0  0  0  0  0  0  0  0  0  0  0
    8.5426  -21.8767   22.3439 C   0  0  0  0  0  0  0  0  0  0  0  0
    8.5708  -23.0550   21.4938 N   0  0  0  0  0  0  0  0  0  0  0  0
   10.0380  -16.7432   23.0530 C   0  0  0  0  0  0  0  0  0  0  0  0
   11.2984  -16.7262   22.8513 O   0  0  0  0  0  0  0  0  0  0  0  0
    9.2549  -13.3256   28.0580 N   0  0  0  0  0  0  0  0  0  0  0  0
   10.2873  -14.1836   28.4967 C   0  0  0  0  0  0  0  0  0  0  0  0
   10.8054  -13.9761   29.6447 O   0  0  0  0  0  0  0  0  0  0  0  0
   10.7884  -15.3110   27.6930 C   0  0  0  0  0  0  0  0  0  0  0  0
   10.0781  -15.4939   26.4104 C   0  0  0  0  0  0  0  0  0  0  0  0
   10.5932  -16.5343   25.4672 C   0  0  2  0  0  0  0  0  0  0  0  0
    9.5867  -16.6124   24.3819 N   0  0  0  0  0  0  0  0  0  0  0  0
   10.8374  -17.8620   25.9985 C   0  0  0  0  0  0  0  0  0  0  0  0
   11.9933  -18.1909   26.4059 O   0  0  0  0  0  0  0  0  0  0  0  0
    9.8635  -18.8631   26.1173 O   0  0  0  0  0  0  0  0  0  0  0  0
  2  1  1  0
  3  2  2  0
  4  2  1  0
  4  5  1  0
  5  6  1  6
  7  5  1  0
  7  8  2  0
  9  7  1  0
 10  9  1  0
 10 11  1  6
 12 11  1  0
 12 13  1  0
 13 14  1  0
 14 15  1  0
 16 10  1  0
 17 16  2  0
 19 18  1  0
 20 19  2  0
 21 19  1  0
 22 21  1  0
 23 22  1  1
 23 24  1  0
 24 16  1  0
 25 23  1  0
 26 25  2  0
 27 25  1  0
M  END
$$$$
