NKQ.pdb
     RDKit          3D

 27 26  0  0  1  0  0  0  0  0999 V2000
    8.0803  -11.7272   19.0438 N   0  0  0  0  0  0  0  0  0  0  0  0
    7.7026  -13.0987   19.0108 C   0  0  0  0  0  0  0  0  0  0  0  0
    7.9648  -13.7532   17.9778 O   0  0  0  0  0  0  0  0  0  0  0  0
    7.0196  -13.7499   20.1542 C   0  0  0  0  0  0  0  0  0  0  0  0
    7.9895  -14.6846   20.8058 C   0  0  2  0  0  0  0  0  0  0  0  0
    8.4030  -15.6645   19.8226 N   0  0  0  0  0  0  0  0  0  0  0  0
    7.4690  -15.3705   21.9874 C   0  0  0  0  0  0  0  0  0  0  0  0
    7.0892  -14.6698   22.9594 O   0  0  0  0  0  0  0  0  0  0  0  0
    7.3559  -16.7649   22.1305 N   0  0  0  0  0  0  0  0  0  0  0  0
    6.9764  -17.4302   23.3835 C   0  0  1  0  0  0  0  0  0  0  0  0
    6.3407  -18.7452   23.0770 C   0  0  0  0  0  0  0  0  0  0  0  0
    4.9161  -18.7273   22.6334 C   0  0  0  0  0  0  0  0  0  0  0  0
    4.5395  -20.1033   22.1368 C   0  0  0  0  0  0  0  0  0  0  0  0
    3.1465  -20.1155   21.5426 C   0  0  0  0  0  0  0  0  0  0  0  0
    2.9219  -21.4650   21.0524 N   0  0  0  0  0  0  0  0  0  0  0  0
    8.2197  -17.5210   24.1905 C   0  0  0  0  0  0  0  0  0  0  0  0
    9.3038  -17.1242   23.6456 O   0  0  0  0  0  0  0  0  0  0  0  0
    8.3604  -13.1271   26.2348 N   0  0  0  0  0  0  0  0  0  0  0  0
    9.2439  -13.6017   27.2291 C   0  0  0  0  0  0  0  0  0  0  0  0
    9.7529  -12.7609   28.0436 O   0  0  0  0  0  0  0  0  0  0  0  0
    9.5992  -15.0234   27.3734 C   0  0  0  0  0  0  0  0  0  0  0  0
    8.9312  -15.9091   26.3974 C   0  0  0  0  0  0  0  0  0  0  0  0
    9.2432  -17.3710   26.4510 C   0  0  2  0  0  0  0  0  0  0  0  0
    8.2920  -18.0096   25.5106 N   0  0  0  0  0  0  0  0  0  0  0  0
    9.1642  -18.0287   27.7417 C   0  0  0  0  0  0  0  0  0  0  0  0
    8.1226  -18.6724   28.0747 O   0  0  0  0  0  0  0  0  0  0  0  0
   10.1871  -18.0260   28.7000 O   0  0  0  0  0  0  0  0  0  0  0  0
  2  1  1  0
  3  2  2  0
  4  2  1  0
  4  5  1  0
  5  6  1  6
  7  5  1  0
  7  8  2  0
  9  7  1  0
 10  9  1  0
 10 11  1  6
 12 11  1  0
 12 13  1  0
 13 14  1  0
 14 15  1  0
 16 10  1  0
 17 16  2  0
 19 18  1  0
 20 19  2  0
 21 19  1  0
 22 21  1  0
 23 22  1  1
 23 24  1  0
 24 16  1  0
 25 23  1  0
 26 25  2  0
 27 25  1  0
M  END
$$$$
