STE.pdb
     RDKit          3D

 23 22  0  0  1  0  0  0  0  0999 V2000
    9.5890  -15.8654   14.6425 O   0  0  0  0  0  0  0  0  0  0  0  0
    9.6740  -15.8866   16.0262 C   0  0  0  0  0  0  0  0  0  0  0  0
    8.6856  -14.9396   16.6546 C   0  0  2  0  0  0  0  0  0  0  0  0
    8.5425  -13.7962   15.7776 N   0  0  0  0  0  0  0  0  0  0  0  0
    9.0500  -14.4976   18.0074 C   0  0  0  0  0  0  0  0  0  0  0  0
    9.9037  -13.5684   18.1422 O   0  0  0  0  0  0  0  0  0  0  0  0
    6.9224  -13.0778   20.7651 C   0  0  0  0  0  0  0  0  0  0  0  0
    7.7349  -14.2036   21.3600 C   0  0  1  0  0  0  0  0  0  0  0  0
    6.9138  -15.3157   21.5274 O   0  0  0  0  0  0  0  0  0  0  0  0
    8.9287  -14.5074   20.4985 C   0  0  2  0  0  0  0  0  0  0  0  0
    8.5170  -15.0329   19.2028 N   0  0  0  0  0  0  0  0  0  0  0  0
    9.7187  -15.5669   21.1742 C   0  0  0  0  0  0  0  0  0  0  0  0
   10.0984  -16.5914   20.5559 O   0  0  0  0  0  0  0  0  0  0  0  0
   10.0844  -15.4756   22.5507 N   0  0  0  0  0  0  0  0  0  0  0  0
   10.8717  -16.5061   23.2058 C   0  0  1  0  0  0  0  0  0  0  0  0
   12.1626  -16.6611   22.4670 C   0  0  0  0  0  0  0  0  0  0  0  0
   13.0642  -15.4552   22.5955 C   0  0  0  0  0  0  0  0  0  0  0  0
   14.3610  -15.8099   21.9879 C   0  0  0  0  0  0  0  0  0  0  0  0
   14.9752  -16.8151   22.3939 O   0  0  0  0  0  0  0  0  0  0  0  0
   11.0288  -16.2571   24.6388 C   0  0  0  0  0  0  0  0  0  0  0  0
   11.6706  -17.1410   25.4833 O   0  0  0  0  0  0  0  0  0  0  0  0
   14.8899  -15.0408   20.9831 O   0  0  0  0  0  0  0  0  0  0  0  0
   10.5674  -15.2034   25.1347 O   0  0  0  0  0  0  0  0  0  0  0  0
  2  1  1  0
  3  4  1  6
  3  2  1  0
  5  3  1  0
  6  5  2  0
  8  7  1  6
  8 10  1  0
  9  8  1  0
 10 12  1  0
 10 11  1  6
 11  5  1  0
 12 14  1  0
 13 12  2  0
 14 15  1  0
 15 20  1  0
 15 16  1  6
 16 17  1  0
 18 17  1  0
 18 22  1  0
 19 18  2  0
 20 23  2  0
 20 21  1  0
M  END
$$$$
