STE.pdb
     RDKit          3D

 23 22  0  0  1  0  0  0  0  0999 V2000
    8.5324  -17.0368   13.9338 O   0  0  0  0  0  0  0  0  0  0  0  0
    9.6097  -17.2092   14.7894 C   0  0  0  0  0  0  0  0  0  0  0  0
    9.9352  -18.6674   14.9804 C   0  0  2  0  0  0  0  0  0  0  0  0
    8.7923  -19.4415   14.5428 N   0  0  0  0  0  0  0  0  0  0  0  0
   10.2947  -19.0297   16.3579 C   0  0  0  0  0  0  0  0  0  0  0  0
    9.4370  -19.6209   17.0827 O   0  0  0  0  0  0  0  0  0  0  0  0
   12.6278  -21.5476   17.4620 C   0  0  0  0  0  0  0  0  0  0  0  0
   13.0341  -20.2778   18.1718 C   0  0  1  0  0  0  0  0  0  0  0  0
   14.1176  -19.7124   17.5044 O   0  0  0  0  0  0  0  0  0  0  0  0
   11.8718  -19.3293   18.2667 C   0  0  2  0  0  0  0  0  0  0  0  0
   11.5471  -18.7694   16.9608 N   0  0  0  0  0  0  0  0  0  0  0  0
   12.2762  -18.2013   19.1428 C   0  0  0  0  0  0  0  0  0  0  0  0
   12.7273  -17.1326   18.6631 O   0  0  0  0  0  0  0  0  0  0  0  0
   12.1734  -18.2738   20.5644 N   0  0  0  0  0  0  0  0  0  0  0  0
   12.4690  -17.1332   21.4146 C   0  0  1  0  0  0  0  0  0  0  0  0
   11.6821  -17.2653   22.6793 C   0  0  0  0  0  0  0  0  0  0  0  0
   11.9465  -16.1447   23.6582 C   0  0  0  0  0  0  0  0  0  0  0  0
   11.0980  -16.3856   24.8409 C   0  0  0  0  0  0  0  0  0  0  0  0
    9.8615  -16.2660   24.7445 O   0  0  0  0  0  0  0  0  0  0  0  0
   13.9061  -16.9525   21.6202 C   0  0  0  0  0  0  0  0  0  0  0  0
   14.4711  -15.7234   21.8968 O   0  0  0  0  0  0  0  0  0  0  0  0
   11.6629  -16.7388   26.0396 O   0  0  0  0  0  0  0  0  0  0  0  0
   14.6681  -17.9438   21.5456 O   0  0  0  0  0  0  0  0  0  0  0  0
  2  1  1  0
  3  4  1  1
  3  2  1  0
  5  3  1  0
  6  5  2  0
  8  7  1  6
  8 10  1  0
  9  8  1  0
 10 12  1  0
 10 11  1  6
 11  5  1  0
 12 14  1  0
 13 12  2  0
 14 15  1  0
 15 20  1  0
 15 16  1  1
 16 17  1  0
 18 17  1  0
 18 22  1  0
 19 18  2  0
 20 23  2  0
 20 21  1  0
M  END
$$$$
