STE.pdb
     RDKit          3D

 23 22  0  0  1  0  0  0  0  0999 V2000
    5.1368  -19.6200   19.1347 O   0  0  0  0  0  0  0  0  0  0  0  0
    6.0116  -18.7220   19.7269 C   0  0  0  0  0  0  0  0  0  0  0  0
    6.4797  -17.6790   18.7463 C   0  0  2  0  0  0  0  0  0  0  0  0
    6.7596  -18.3410   17.4893 N   0  0  0  0  0  0  0  0  0  0  0  0
    7.6552  -16.9179   19.1905 C   0  0  0  0  0  0  0  0  0  0  0  0
    8.7598  -17.0847   18.5884 O   0  0  0  0  0  0  0  0  0  0  0  0
    7.9381  -13.1320   19.4653 C   0  0  0  0  0  0  0  0  0  0  0  0
    8.4656  -13.7398   20.7435 C   0  0  1  0  0  0  0  0  0  0  0  0
    7.5087  -13.5916   21.7442 O   0  0  0  0  0  0  0  0  0  0  0  0
    8.8408  -15.1796   20.5294 C   0  0  2  0  0  0  0  0  0  0  0  0
    7.6611  -15.9917   20.2590 N   0  0  0  0  0  0  0  0  0  0  0  0
    9.4449  -15.6836   21.7882 C   0  0  0  0  0  0  0  0  0  0  0  0
    8.7451  -15.8924   22.8092 O   0  0  0  0  0  0  0  0  0  0  0  0
   10.8416  -15.9546   21.9009 N   0  0  0  0  0  0  0  0  0  0  0  0
   11.4431  -16.3756   23.1546 C   0  0  1  0  0  0  0  0  0  0  0  0
   11.4774  -17.8703   23.1882 C   0  0  0  0  0  0  0  0  0  0  0  0
   10.6778  -18.4531   24.3304 C   0  0  0  0  0  0  0  0  0  0  0  0
   11.3402  -19.7079   24.7346 C   0  0  0  0  0  0  0  0  0  0  0  0
   11.2670  -20.7074   23.9942 O   0  0  0  0  0  0  0  0  0  0  0  0
   12.7410  -15.7422   23.3873 C   0  0  0  0  0  0  0  0  0  0  0  0
   13.3498  -15.7226   24.6265 O   0  0  0  0  0  0  0  0  0  0  0  0
   12.0325  -19.7774   25.9165 O   0  0  0  0  0  0  0  0  0  0  0  0
   13.3368  -15.1908   22.4334 O   0  0  0  0  0  0  0  0  0  0  0  0
  2  1  1  0
  3  4  1  6
  3  2  1  0
  5  3  1  0
  6  5  2  0
  8  7  1  6
  8 10  1  0
  9  8  1  0
 10 12  1  0
 10 11  1  1
 11  5  1  0
 12 14  1  0
 13 12  2  0
 14 15  1  0
 15 20  1  0
 15 16  1  6
 16 17  1  0
 18 17  1  0
 18 22  1  0
 19 18  2  0
 20 23  2  0
 20 21  1  0
M  END
$$$$
