STE.pdb
     RDKit          3D

 23 22  0  0  1  0  0  0  0  0999 V2000
    7.9994  -19.2439   18.8642 O   0  0  0  0  0  0  0  0  0  0  0  0
    7.2363  -18.3747   18.0997 C   0  0  0  0  0  0  0  0  0  0  0  0
    8.0010  -17.1227   17.7587 C   0  0  2  0  0  0  0  0  0  0  0  0
    9.0012  -17.4653   16.7693 N   0  0  0  0  0  0  0  0  0  0  0  0
    8.6332  -16.4690   18.9125 C   0  0  0  0  0  0  0  0  0  0  0  0
    9.8900  -16.5632   19.0609 O   0  0  0  0  0  0  0  0  0  0  0  0
    7.3795  -12.9042   20.5543 C   0  0  0  0  0  0  0  0  0  0  0  0
    7.8017  -13.9468   21.5622 C   0  0  1  0  0  0  0  0  0  0  0  0
    6.6643  -14.5071   22.1381 O   0  0  0  0  0  0  0  0  0  0  0  0
    8.6768  -14.9840   20.9158 C   0  0  2  0  0  0  0  0  0  0  0  0
    7.9432  -15.7245   19.8971 N   0  0  0  0  0  0  0  0  0  0  0  0
    9.0799  -15.9553   21.9635 C   0  0  0  0  0  0  0  0  0  0  0  0
    8.4160  -16.9996   22.1745 O   0  0  0  0  0  0  0  0  0  0  0  0
   10.2342  -15.7530   22.7781 N   0  0  0  0  0  0  0  0  0  0  0  0
   10.6225  -16.7011   23.8083 C   0  0  1  0  0  0  0  0  0  0  0  0
   12.0737  -17.0201   23.6394 C   0  0  0  0  0  0  0  0  0  0  0  0
   12.9383  -15.7868   23.5159 C   0  0  0  0  0  0  0  0  0  0  0  0
   14.3313  -16.2423   23.3471 C   0  0  0  0  0  0  0  0  0  0  0  0
   14.5874  -17.4613   23.3806 O   0  0  0  0  0  0  0  0  0  0  0  0
   10.2634  -16.2407   25.1496 C   0  0  0  0  0  0  0  0  0  0  0  0
    9.6794  -15.0119   25.3848 O   0  0  0  0  0  0  0  0  0  0  0  0
   15.3400  -15.3333   23.1545 O   0  0  0  0  0  0  0  0  0  0  0  0
   10.4888  -16.9803   26.1351 O   0  0  0  0  0  0  0  0  0  0  0  0
  2  1  1  0
  3  4  1  6
  3  2  1  0
  5  3  1  0
  6  5  2  0
  8  7  1  6
  8 10  1  0
  9  8  1  0
 10 12  1  0
 10 11  1  6
 11  5  1  0
 12 14  1  0
 13 12  2  0
 14 15  1  0
 15 20  1  0
 15 16  1  1
 16 17  1  0
 18 17  1  0
 18 22  1  0
 19 18  2  0
 20 23  2  0
 20 21  1  0
M  END
$$$$
