STE.pdb
     RDKit          3D

 23 22  0  0  1  0  0  0  0  0999 V2000
    7.5156  -13.9475   14.3275 O   0  0  0  0  0  0  0  0  0  0  0  0
    8.5495  -14.7745   13.9159 C   0  0  0  0  0  0  0  0  0  0  0  0
    8.9786  -15.7106   15.0150 C   0  0  2  0  0  0  0  0  0  0  0  0
    7.8573  -16.5697   15.3336 N   0  0  0  0  0  0  0  0  0  0  0  0
    9.4603  -15.0362   16.2280 C   0  0  0  0  0  0  0  0  0  0  0  0
   10.5586  -14.4020   16.1846 O   0  0  0  0  0  0  0  0  0  0  0  0
    7.4291  -12.9017   19.0124 C   0  0  0  0  0  0  0  0  0  0  0  0
    8.3202  -13.9627   19.6139 C   0  0  1  0  0  0  0  0  0  0  0  0
    7.5334  -15.0355   20.0249 O   0  0  0  0  0  0  0  0  0  0  0  0
    9.3796  -14.3821   18.6334 C   0  0  2  0  0  0  0  0  0  0  0  0
    8.7873  -15.0331   17.4717 N   0  0  0  0  0  0  0  0  0  0  0  0
   10.2493  -15.3808   19.3039 C   0  0  0  0  0  0  0  0  0  0  0  0
   10.0538  -16.6131   19.1653 O   0  0  0  0  0  0  0  0  0  0  0  0
   11.3440  -14.9940   20.1339 N   0  0  0  0  0  0  0  0  0  0  0  0
   12.1791  -15.9729   20.8087 C   0  0  1  0  0  0  0  0  0  0  0  0
   13.5382  -15.9502   20.1852 C   0  0  0  0  0  0  0  0  0  0  0  0
   14.0459  -14.5503   19.9280 C   0  0  0  0  0  0  0  0  0  0  0  0
   15.3899  -14.6732   19.3321 C   0  0  0  0  0  0  0  0  0  0  0  0
   15.7570  -15.7686   18.8652 O   0  0  0  0  0  0  0  0  0  0  0  0
   12.1838  -15.7915   22.2602 C   0  0  0  0  0  0  0  0  0  0  0  0
   11.5051  -14.7644   22.8856 O   0  0  0  0  0  0  0  0  0  0  0  0
   16.2320  -13.5916   19.2908 O   0  0  0  0  0  0  0  0  0  0  0  0
   12.8252  -16.5924   22.9786 O   0  0  0  0  0  0  0  0  0  0  0  0
  2  1  1  0
  3  4  1  1
  3  2  1  0
  5  3  1  0
  6  5  2  0
  8  7  1  6
  8 10  1  0
  9  8  1  0
 10 12  1  0
 10 11  1  6
 11  5  1  0
 12 14  1  0
 13 12  2  0
 14 15  1  0
 15 20  1  0
 15 16  1  6
 16 17  1  0
 18 17  1  0
 18 22  1  0
 19 18  2  0
 20 23  2  0
 20 21  1  0
M  END
$$$$
