STE.pdb
     RDKit          3D

 23 22  0  0  1  0  0  0  0  0999 V2000
   10.8570  -17.9810   15.6753 O   0  0  0  0  0  0  0  0  0  0  0  0
    9.6946  -17.2420   15.8332 C   0  0  0  0  0  0  0  0  0  0  0  0
    9.9530  -15.7664   15.6771 C   0  0  2  0  0  0  0  0  0  0  0  0
   11.0177  -15.5989   14.7101 N   0  0  0  0  0  0  0  0  0  0  0  0
   10.2935  -15.0779   16.9294 C   0  0  0  0  0  0  0  0  0  0  0  0
   11.4867  -14.6860   17.1115 O   0  0  0  0  0  0  0  0  0  0  0  0
    8.0496  -12.3722   19.1156 C   0  0  0  0  0  0  0  0  0  0  0  0
    8.6481  -13.5104   19.9079 C   0  0  1  0  0  0  0  0  0  0  0  0
    7.6567  -14.4538   20.1653 O   0  0  0  0  0  0  0  0  0  0  0  0
    9.8186  -14.1062   19.1767 C   0  0  2  0  0  0  0  0  0  0  0  0
    9.3819  -14.8076   17.9761 N   0  0  0  0  0  0  0  0  0  0  0  0
   10.4491  -15.1101   20.0701 C   0  0  0  0  0  0  0  0  0  0  0  0
   10.2186  -16.3369   19.9374 O   0  0  0  0  0  0  0  0  0  0  0  0
   11.3429  -14.7345   21.1175 N   0  0  0  0  0  0  0  0  0  0  0  0
   11.9885  -15.7212   21.9664 C   0  0  1  0  0  0  0  0  0  0  0  0
   13.3739  -15.2504   22.2751 C   0  0  0  0  0  0  0  0  0  0  0  0
   14.4353  -15.9851   21.4895 C   0  0  0  0  0  0  0  0  0  0  0  0
   15.7379  -15.3958   21.8537 C   0  0  0  0  0  0  0  0  0  0  0  0
   16.5111  -15.0116   20.9553 O   0  0  0  0  0  0  0  0  0  0  0  0
   11.1891  -16.0441   23.1483 C   0  0  0  0  0  0  0  0  0  0  0  0
   11.4638  -17.1255   23.9616 O   0  0  0  0  0  0  0  0  0  0  0  0
   16.0985  -15.2702   23.1709 O   0  0  0  0  0  0  0  0  0  0  0  0
   10.2124  -15.3193   23.4476 O   0  0  0  0  0  0  0  0  0  0  0  0
  2  1  1  0
  3  4  1  6
  3  2  1  0
  5  3  1  0
  6  5  2  0
  8  7  1  6
  8 10  1  0
  9  8  1  0
 10 12  1  0
 10 11  1  6
 11  5  1  0
 12 14  1  0
 13 12  2  0
 14 15  1  0
 15 20  1  0
 15 16  1  1
 16 17  1  0
 18 17  1  0
 18 22  1  0
 19 18  2  0
 20 23  2  0
 20 21  1  0
M  END
$$$$
