STE.pdb
     RDKit          3D

 23 22  0  0  1  0  0  0  0  0999 V2000
    7.0765  -17.0577   19.1856 O   0  0  0  0  0  0  0  0  0  0  0  0
    8.3781  -17.5108   19.0352 C   0  0  0  0  0  0  0  0  0  0  0  0
    8.4139  -18.9470   18.5826 C   0  0  2  0  0  0  0  0  0  0  0  0
    7.0478  -19.4120   18.4627 N   0  0  0  0  0  0  0  0  0  0  0  0
    9.1767  -19.8390   19.4661 C   0  0  0  0  0  0  0  0  0  0  0  0
    8.5554  -20.5205   20.3379 O   0  0  0  0  0  0  0  0  0  0  0  0
   11.4017  -22.8151   18.5796 C   0  0  0  0  0  0  0  0  0  0  0  0
   12.1712  -21.8570   19.4578 C   0  0  1  0  0  0  0  0  0  0  0  0
   13.0157  -21.0895   18.6598 O   0  0  0  0  0  0  0  0  0  0  0  0
   11.2303  -21.0071   20.2652 C   0  0  2  0  0  0  0  0  0  0  0  0
   10.5802  -20.0075   19.4271 N   0  0  0  0  0  0  0  0  0  0  0  0
   12.0329  -20.2787   21.2795 C   0  0  0  0  0  0  0  0  0  0  0  0
   12.7329  -19.2849   20.9661 O   0  0  0  0  0  0  0  0  0  0  0  0
   12.0494  -20.6681   22.6524 N   0  0  0  0  0  0  0  0  0  0  0  0
   12.8286  -19.9481   23.6452 C   0  0  1  0  0  0  0  0  0  0  0  0
   12.0695  -19.9421   24.9336 C   0  0  0  0  0  0  0  0  0  0  0  0
   11.8510  -21.3277   25.4960 C   0  0  0  0  0  0  0  0  0  0  0  0
   11.1625  -21.1722   26.7915 C   0  0  0  0  0  0  0  0  0  0  0  0
   10.9856  -20.0313   27.2601 O   0  0  0  0  0  0  0  0  0  0  0  0
   14.1939  -20.4614   23.7576 C   0  0  0  0  0  0  0  0  0  0  0  0
   14.5922  -21.6528   23.1846 O   0  0  0  0  0  0  0  0  0  0  0  0
   10.7189  -22.2735   27.4779 O   0  0  0  0  0  0  0  0  0  0  0  0
   15.0478  -19.8046   24.3968 O   0  0  0  0  0  0  0  0  0  0  0  0
  2  1  1  0
  3  4  1  1
  3  2  1  0
  5  3  1  0
  6  5  2  0
  8  7  1  6
  8 10  1  0
  9  8  1  0
 10 12  1  0
 10 11  1  6
 11  5  1  0
 12 14  1  0
 13 12  2  0
 14 15  1  0
 15 20  1  0
 15 16  1  1
 16 17  1  0
 18 17  1  0
 18 22  1  0
 19 18  2  0
 20 23  2  0
 20 21  1  0
M  END
$$$$
