STE.pdb
     RDKit          3D

 23 22  0  0  1  0  0  0  0  0999 V2000
    9.3996  -19.9046   17.2410 O   0  0  0  0  0  0  0  0  0  0  0  0
    8.7169  -19.2528   18.2566 C   0  0  0  0  0  0  0  0  0  0  0  0
    8.5157  -17.7943   17.9388 C   0  0  2  0  0  0  0  0  0  0  0  0
    9.1091  -17.5329   16.6441 N   0  0  0  0  0  0  0  0  0  0  0  0
    9.0684  -16.8762   18.9437 C   0  0  0  0  0  0  0  0  0  0  0  0
   10.1903  -16.3255   18.7234 O   0  0  0  0  0  0  0  0  0  0  0  0
    7.4225  -13.8011   20.8716 C   0  0  0  0  0  0  0  0  0  0  0  0
    8.0568  -14.7915   21.8194 C   0  0  1  0  0  0  0  0  0  0  0  0
    7.0570  -15.5686   22.3985 O   0  0  0  0  0  0  0  0  0  0  0  0
    9.0795  -15.6288   21.1034 C   0  0  2  0  0  0  0  0  0  0  0  0
    8.4410  -16.5451   20.1670 N   0  0  0  0  0  0  0  0  0  0  0  0
    9.7828  -16.4530   22.1180 C   0  0  0  0  0  0  0  0  0  0  0  0
    9.4313  -17.6345   22.3557 O   0  0  0  0  0  0  0  0  0  0  0  0
   10.8862  -15.9482   22.8693 N   0  0  0  0  0  0  0  0  0  0  0  0
   11.5989  -16.7698   23.8328 C   0  0  1  0  0  0  0  0  0  0  0  0
   13.0245  -16.3204   23.8797 C   0  0  0  0  0  0  0  0  0  0  0  0
   13.7771  -16.6116   22.6019 C   0  0  0  0  0  0  0  0  0  0  0  0
   15.1465  -16.0890   22.7702 C   0  0  0  0  0  0  0  0  0  0  0  0
   15.3217  -14.8660   22.9322 O   0  0  0  0  0  0  0  0  0  0  0  0
   10.9367  -16.7957   25.1369 C   0  0  0  0  0  0  0  0  0  0  0  0
   11.2969  -17.6748   26.1388 O   0  0  0  0  0  0  0  0  0  0  0  0
   16.2214  -16.9404   22.7490 O   0  0  0  0  0  0  0  0  0  0  0  0
   10.0029  -15.9938   25.3692 O   0  0  0  0  0  0  0  0  0  0  0  0
  2  1  1  0
  3  4  1  6
  3  2  1  0
  5  3  1  0
  6  5  2  0
  8  7  1  6
  8 10  1  0
  9  8  1  0
 10 12  1  0
 10 11  1  6
 11  5  1  0
 12 14  1  0
 13 12  2  0
 14 15  1  0
 15 20  1  0
 15 16  1  1
 16 17  1  0
 18 17  1  0
 18 22  1  0
 19 18  2  0
 20 23  2  0
 20 21  1  0
M  END
$$$$
