DEN.pdb
     RDKit          3D

 26 25  0  0  1  0  0  0  0  0999 V2000
   12.7545  -17.8611   16.6014 N   0  0  0  0  0  0  0  0  0  0  0  0
   12.8464  -18.6426   17.7954 C   0  0  1  0  0  0  0  0  0  0  0  0
   13.8713  -19.7593   17.6739 C   0  0  0  0  0  0  0  0  0  0  0  0
   13.3768  -20.7960   16.7358 C   0  0  0  0  0  0  0  0  0  0  0  0
   13.4925  -22.0074   17.0491 O   0  0  0  0  0  0  0  0  0  0  0  0
   13.1451  -17.7901   18.9656 C   0  0  0  0  0  0  0  0  0  0  0  0
   13.7911  -16.7110   18.7774 O   0  0  0  0  0  0  0  0  0  0  0  0
   12.7897  -20.4968   15.5223 O   0  0  0  0  0  0  0  0  0  0  0  0
   12.7601  -18.0909   20.2954 N   0  0  0  0  0  0  0  0  0  0  0  0
   13.0708  -17.1812   21.3548 C   0  0  1  0  0  0  0  0  0  0  0  0
   11.9956  -17.0225   22.3782 C   0  0  0  0  0  0  0  0  0  0  0  0
   12.2674  -16.0603   23.4766 C   0  0  0  0  0  0  0  0  0  0  0  0
   11.1354  -16.1273   24.4505 C   0  0  0  0  0  0  0  0  0  0  0  0
   10.1994  -16.9473   24.2895 O   0  0  0  0  0  0  0  0  0  0  0  0
   14.3548  -17.4880   22.0543 C   0  0  0  0  0  0  0  0  0  0  0  0
   14.7481  -18.6856   22.0718 O   0  0  0  0  0  0  0  0  0  0  0  0
   11.0997  -15.2820   25.5519 O   0  0  0  0  0  0  0  0  0  0  0  0
   19.5433  -17.0056   22.2110 N   0  0  0  0  0  0  0  0  0  0  0  0
   18.7697  -15.9626   22.8251 C   0  0  0  0  0  0  0  0  0  0  0  0
   19.3593  -15.2386   23.6382 O   0  0  0  0  0  0  0  0  0  0  0  0
   17.3686  -15.8749   22.4183 C   0  0  0  0  0  0  0  0  0  0  0  0
   16.3882  -16.6132   23.2434 C   0  0  2  0  0  0  0  0  0  0  0  0
   15.0675  -16.4360   22.6630 N   0  0  0  0  0  0  0  0  0  0  0  0
   16.3787  -16.2628   24.6819 C   0  0  0  0  0  0  0  0  0  0  0  0
   17.1166  -16.8420   25.6729 O   0  0  0  0  0  0  0  0  0  0  0  0
   15.6020  -15.3221   25.0448 O   0  0  0  0  0  0  0  0  0  0  0  0
  2  1  1  6
  2  3  1  0
  3  4  1  0
  4  8  1  0
  5  4  2  0
  6  2  1  0
  6  7  2  0
  9  6  1  0
 10  9  1  0
 10 11  1  1
 11 12  1  0
 12 13  1  0
 13 17  1  0
 13 14  2  0
 15 10  1  0
 16 15  2  0
 19 18  1  0
 19 21  1  0
 20 19  2  0
 22 21  1  6
 22 23  1  0
 23 15  1  0
 24 25  1  0
 24 22  1  0
 26 24  2  0
M  END
$$$$
