DEN.pdb
     RDKit          3D

 26 25  0  0  1  0  0  0  0  0999 V2000
    8.0244  -15.8782   19.9682 N   0  0  0  0  0  0  0  0  0  0  0  0
    7.9778  -17.2012   20.5087 C   0  0  1  0  0  0  0  0  0  0  0  0
    8.0837  -18.2670   19.4294 C   0  0  0  0  0  0  0  0  0  0  0  0
    8.8324  -17.7325   18.2662 C   0  0  0  0  0  0  0  0  0  0  0  0
    8.3162  -16.8177   17.5764 O   0  0  0  0  0  0  0  0  0  0  0  0
    9.0276  -17.3934   21.5316 C   0  0  0  0  0  0  0  0  0  0  0  0
    9.1782  -18.5529   22.0318 O   0  0  0  0  0  0  0  0  0  0  0  0
   10.0810  -18.1925   17.8969 O   0  0  0  0  0  0  0  0  0  0  0  0
    9.8871  -16.3694   22.0001 N   0  0  0  0  0  0  0  0  0  0  0  0
   10.7614  -16.6170   23.1049 C   0  0  1  0  0  0  0  0  0  0  0  0
   11.9535  -15.7208   23.1721 C   0  0  0  0  0  0  0  0  0  0  0  0
   12.9489  -16.0256   24.2315 C   0  0  0  0  0  0  0  0  0  0  0  0
   14.2581  -16.3226   23.5743 C   0  0  0  0  0  0  0  0  0  0  0  0
   14.7181  -17.4899   23.5612 O   0  0  0  0  0  0  0  0  0  0  0  0
   10.0748  -16.5991   24.4317 C   0  0  0  0  0  0  0  0  0  0  0  0
    9.6418  -15.4951   24.8595 O   0  0  0  0  0  0  0  0  0  0  0  0
   14.9894  -15.3105   22.9661 O   0  0  0  0  0  0  0  0  0  0  0  0
    6.8456  -18.9824   24.2986 N   0  0  0  0  0  0  0  0  0  0  0  0
    7.0569  -18.2243   25.5003 C   0  0  0  0  0  0  0  0  0  0  0  0
    6.3249  -17.2409   25.6730 O   0  0  0  0  0  0  0  0  0  0  0  0
    8.1168  -18.7025   26.3859 C   0  0  0  0  0  0  0  0  0  0  0  0
    9.3398  -17.8753   26.4677 C   0  0  2  0  0  0  0  0  0  0  0  0
    9.9416  -17.8059   25.1465 N   0  0  0  0  0  0  0  0  0  0  0  0
   10.3348  -18.3124   27.4733 C   0  0  0  0  0  0  0  0  0  0  0  0
   11.6325  -18.6669   27.2440 O   0  0  0  0  0  0  0  0  0  0  0  0
    9.9494  -18.3677   28.6850 O   0  0  0  0  0  0  0  0  0  0  0  0
  2  1  1  6
  2  3  1  0
  3  4  1  0
  4  8  1  0
  5  4  2  0
  6  2  1  0
  6  7  2  0
  9  6  1  0
 10  9  1  0
 10 11  1  1
 11 12  1  0
 12 13  1  0
 13 17  1  0
 13 14  2  0
 15 10  1  0
 16 15  2  0
 19 18  1  0
 19 21  1  0
 20 19  2  0
 22 21  1  6
 22 23  1  0
 23 15  1  0
 24 25  1  0
 24 22  1  0
 26 24  2  0
M  END
$$$$
