DEN.pdb
     RDKit          3D

 26 25  0  0  1  0  0  0  0  0999 V2000
    9.4393  -15.7633   16.2492 N   0  0  0  0  0  0  0  0  0  0  0  0
   10.0211  -14.6498   16.9322 C   0  0  1  0  0  0  0  0  0  0  0  0
    8.9776  -13.8024   17.6428 C   0  0  0  0  0  0  0  0  0  0  0  0
    8.0042  -13.2721   16.6575 C   0  0  0  0  0  0  0  0  0  0  0  0
    8.1164  -13.6026   15.4503 O   0  0  0  0  0  0  0  0  0  0  0  0
   11.0617  -15.0956   17.8829 C   0  0  0  0  0  0  0  0  0  0  0  0
   10.9431  -16.2457   18.4123 O   0  0  0  0  0  0  0  0  0  0  0  0
    6.9696  -12.4243   17.0007 O   0  0  0  0  0  0  0  0  0  0  0  0
   12.1932  -14.3267   18.2509 N   0  0  0  0  0  0  0  0  0  0  0  0
   13.1918  -14.8863   19.1088 C   0  0  1  0  0  0  0  0  0  0  0  0
   14.5847  -14.4275   18.8294 C   0  0  0  0  0  0  0  0  0  0  0  0
   15.1630  -14.8328   17.5227 C   0  0  0  0  0  0  0  0  0  0  0  0
   16.5149  -14.2084   17.3935 C   0  0  0  0  0  0  0  0  0  0  0  0
   16.8823  -13.6942   16.3094 O   0  0  0  0  0  0  0  0  0  0  0  0
   12.9096  -14.6979   20.5638 C   0  0  0  0  0  0  0  0  0  0  0  0
   12.1817  -13.7268   20.9049 O   0  0  0  0  0  0  0  0  0  0  0  0
   17.3894  -14.1865   18.4724 O   0  0  0  0  0  0  0  0  0  0  0  0
    9.4212  -15.8709   23.9593 N   0  0  0  0  0  0  0  0  0  0  0  0
   10.7106  -16.4944   23.8503 C   0  0  0  0  0  0  0  0  0  0  0  0
   11.0610  -17.2153   24.7939 O   0  0  0  0  0  0  0  0  0  0  0  0
   11.4652  -16.2052   22.6324 C   0  0  0  0  0  0  0  0  0  0  0  0
   12.8883  -15.8407   22.8016 C   0  0  2  0  0  0  0  0  0  0  0  0
   13.4652  -15.6040   21.4887 N   0  0  0  0  0  0  0  0  0  0  0  0
   13.7052  -16.8119   23.5644 C   0  0  0  0  0  0  0  0  0  0  0  0
   14.1487  -16.6820   24.8484 O   0  0  0  0  0  0  0  0  0  0  0  0
   14.0357  -17.8867   22.9683 O   0  0  0  0  0  0  0  0  0  0  0  0
  2  1  1  1
  2  3  1  0
  3  4  1  0
  4  8  1  0
  5  4  2  0
  6  2  1  0
  6  7  2  0
  9  6  1  0
 10  9  1  0
 10 11  1  6
 11 12  1  0
 12 13  1  0
 13 17  1  0
 13 14  2  0
 15 10  1  0
 16 15  2  0
 19 18  1  0
 19 21  1  0
 20 19  2  0
 22 21  1  6
 22 23  1  0
 23 15  1  0
 24 25  1  0
 24 22  1  0
 26 24  2  0
M  END
$$$$
