DEN.pdb
     RDKit          3D

 26 25  0  0  1  0  0  0  0  0999 V2000
    9.4303  -16.8511   20.4059 N   0  0  0  0  0  0  0  0  0  0  0  0
    8.5355  -15.7487   20.5754 C   0  0  1  0  0  0  0  0  0  0  0  0
    7.3913  -15.7781   19.5745 C   0  0  0  0  0  0  0  0  0  0  0  0
    7.7774  -16.5864   18.3926 C   0  0  0  0  0  0  0  0  0  0  0  0
    8.8300  -17.2711   18.4391 O   0  0  0  0  0  0  0  0  0  0  0  0
    8.0138  -15.6967   21.9576 C   0  0  0  0  0  0  0  0  0  0  0  0
    7.2188  -14.7540   22.2678 O   0  0  0  0  0  0  0  0  0  0  0  0
    7.0328  -16.6263   17.2303 O   0  0  0  0  0  0  0  0  0  0  0  0
    8.3384  -16.6305   22.9723 N   0  0  0  0  0  0  0  0  0  0  0  0
    7.8038  -16.4723   24.2897 C   0  0  1  0  0  0  0  0  0  0  0  0
    7.7202  -17.7322   25.0861 C   0  0  0  0  0  0  0  0  0  0  0  0
    9.0073  -18.2923   25.5715 C   0  0  0  0  0  0  0  0  0  0  0  0
    8.7180  -19.5521   26.3220 C   0  0  0  0  0  0  0  0  0  0  0  0
    7.5457  -19.9911   26.4093 O   0  0  0  0  0  0  0  0  0  0  0  0
    8.5086  -15.4375   25.1050 C   0  0  0  0  0  0  0  0  0  0  0  0
    9.7555  -15.3189   24.9617 O   0  0  0  0  0  0  0  0  0  0  0  0
    9.7428  -20.2598   26.9369 O   0  0  0  0  0  0  0  0  0  0  0  0
    7.0236  -12.3816   24.7558 N   0  0  0  0  0  0  0  0  0  0  0  0
    6.5842  -12.0244   26.0759 C   0  0  0  0  0  0  0  0  0  0  0  0
    5.6281  -11.2414   26.1506 O   0  0  0  0  0  0  0  0  0  0  0  0
    7.3195  -12.6288   27.1852 C   0  0  0  0  0  0  0  0  0  0  0  0
    8.3592  -13.6197   26.8335 C   0  0  2  0  0  0  0  0  0  0  0  0
    7.7584  -14.6440   25.9953 N   0  0  0  0  0  0  0  0  0  0  0  0
    9.0661  -14.2317   27.9815 C   0  0  0  0  0  0  0  0  0  0  0  0
    9.1211  -15.5576   28.2997 O   0  0  0  0  0  0  0  0  0  0  0  0
    9.6929  -13.4462   28.7625 O   0  0  0  0  0  0  0  0  0  0  0  0
  2  1  1  1
  2  3  1  0
  3  4  1  0
  4  8  1  0
  5  4  2  0
  6  2  1  0
  6  7  2  0
  9  6  1  0
 10  9  1  0
 10 11  1  1
 11 12  1  0
 12 13  1  0
 13 17  1  0
 13 14  2  0
 15 10  1  0
 16 15  2  0
 19 18  1  0
 19 21  1  0
 20 19  2  0
 22 21  1  1
 22 23  1  0
 23 15  1  0
 24 25  1  0
 24 22  1  0
 26 24  2  0
M  END
$$$$
