DEN.pdb
     RDKit          3D

 26 25  0  0  1  0  0  0  0  0999 V2000
    9.0982  -17.8969   14.5020 N   0  0  0  0  0  0  0  0  0  0  0  0
    8.6294  -16.6214   14.9470 C   0  0  1  0  0  0  0  0  0  0  0  0
    7.4705  -16.1097   14.1061 C   0  0  0  0  0  0  0  0  0  0  0  0
    7.9387  -15.8162   12.7298 C   0  0  0  0  0  0  0  0  0  0  0  0
    9.1324  -16.0639   12.4256 O   0  0  0  0  0  0  0  0  0  0  0  0
    8.2538  -16.6634   16.3761 C   0  0  0  0  0  0  0  0  0  0  0  0
    7.8187  -15.5983   16.9177 O   0  0  0  0  0  0  0  0  0  0  0  0
    7.1225  -15.2788   11.7541 O   0  0  0  0  0  0  0  0  0  0  0  0
    8.3440  -17.8160   17.1949 N   0  0  0  0  0  0  0  0  0  0  0  0
    7.9980  -17.7397   18.5808 C   0  0  1  0  0  0  0  0  0  0  0  0
    7.8659  -19.0594   19.2660 C   0  0  0  0  0  0  0  0  0  0  0  0
    7.4481  -19.0239   20.6909 C   0  0  0  0  0  0  0  0  0  0  0  0
    7.3486  -20.4307   21.1863 C   0  0  0  0  0  0  0  0  0  0  0  0
    6.9903  -20.6712   22.3645 O   0  0  0  0  0  0  0  0  0  0  0  0
    8.9144  -16.8744   19.3831 C   0  0  0  0  0  0  0  0  0  0  0  0
   10.1558  -17.0652   19.2738 O   0  0  0  0  0  0  0  0  0  0  0  0
    7.6516  -21.4976   20.3502 O   0  0  0  0  0  0  0  0  0  0  0  0
    7.6024  -12.0481   19.3133 N   0  0  0  0  0  0  0  0  0  0  0  0
    8.6748  -12.9484   19.6340 C   0  0  0  0  0  0  0  0  0  0  0  0
    9.5726  -13.0664   18.7898 O   0  0  0  0  0  0  0  0  0  0  0  0
    8.5830  -13.6254   20.9262 C   0  0  0  0  0  0  0  0  0  0  0  0
    9.1729  -14.9787   21.0122 C   0  0  2  0  0  0  0  0  0  0  0  0
    8.3594  -15.8896   20.2241 N   0  0  0  0  0  0  0  0  0  0  0  0
    9.3632  -15.5014   22.3843 C   0  0  0  0  0  0  0  0  0  0  0  0
    8.8025  -16.6241   22.9204 O   0  0  0  0  0  0  0  0  0  0  0  0
   10.1299  -14.8403   23.1558 O   0  0  0  0  0  0  0  0  0  0  0  0
  2  1  1  6
  2  3  1  0
  3  4  1  0
  4  8  1  0
  5  4  2  0
  6  2  1  0
  6  7  2  0
  9  6  1  0
 10  9  1  0
 10 11  1  1
 11 12  1  0
 12 13  1  0
 13 17  1  0
 13 14  2  0
 15 10  1  0
 16 15  2  0
 19 18  1  0
 19 21  1  0
 20 19  2  0
 22 21  1  1
 22 23  1  0
 23 15  1  0
 24 25  1  0
 24 22  1  0
 26 24  2  0
M  END
$$$$
