DEN.pdb
     RDKit          3D

 26 25  0  0  1  0  0  0  0  0999 V2000
   11.4935  -15.4039   15.7191 N   0  0  0  0  0  0  0  0  0  0  0  0
   12.4360  -16.4742   15.8237 C   0  0  1  0  0  0  0  0  0  0  0  0
   13.1163  -16.7725   14.4970 C   0  0  0  0  0  0  0  0  0  0  0  0
   13.9713  -17.9770   14.6297 C   0  0  0  0  0  0  0  0  0  0  0  0
   13.4738  -19.0293   15.1032 O   0  0  0  0  0  0  0  0  0  0  0  0
   13.4416  -16.1950   16.8706 C   0  0  0  0  0  0  0  0  0  0  0  0
   14.0989  -17.1713   17.3522 O   0  0  0  0  0  0  0  0  0  0  0  0
   15.3006  -18.0032   14.2564 O   0  0  0  0  0  0  0  0  0  0  0  0
   13.7294  -14.9055   17.3818 N   0  0  0  0  0  0  0  0  0  0  0  0
   14.7264  -14.7420   18.3946 C   0  0  1  0  0  0  0  0  0  0  0  0
   15.7088  -13.6485   18.1343 C   0  0  0  0  0  0  0  0  0  0  0  0
   16.8757  -13.9986   17.2849 C   0  0  0  0  0  0  0  0  0  0  0  0
   17.8075  -12.8300   17.2620 C   0  0  0  0  0  0  0  0  0  0  0  0
   17.6132  -11.8709   16.4766 O   0  0  0  0  0  0  0  0  0  0  0  0
   14.1656  -14.5636   19.7678 C   0  0  0  0  0  0  0  0  0  0  0  0
   13.2261  -13.7371   19.9211 O   0  0  0  0  0  0  0  0  0  0  0  0
   18.9061  -12.7853   18.1107 O   0  0  0  0  0  0  0  0  0  0  0  0
   11.2290  -15.6146   23.8522 N   0  0  0  0  0  0  0  0  0  0  0  0
   11.6030  -15.3720   22.4867 C   0  0  0  0  0  0  0  0  0  0  0  0
   10.8932  -14.5843   21.8476 O   0  0  0  0  0  0  0  0  0  0  0  0
   12.7841  -16.0861   22.0055 C   0  0  0  0  0  0  0  0  0  0  0  0
   14.0826  -15.3913   22.1390 C   0  0  2  0  0  0  0  0  0  0  0  0
   14.7059  -15.3182   20.8280 N   0  0  0  0  0  0  0  0  0  0  0  0
   15.0153  -15.9752   23.1296 C   0  0  0  0  0  0  0  0  0  0  0  0
   15.1789  -15.5914   24.4289 O   0  0  0  0  0  0  0  0  0  0  0  0
   15.7487  -16.9390   22.7382 O   0  0  0  0  0  0  0  0  0  0  0  0
  2  1  1  6
  2  3  1  0
  3  4  1  0
  4  8  1  0
  5  4  2  0
  6  2  1  0
  6  7  2  0
  9  6  1  0
 10  9  1  0
 10 11  1  6
 11 12  1  0
 12 13  1  0
 13 17  1  0
 13 14  2  0
 15 10  1  0
 16 15  2  0
 19 18  1  0
 19 21  1  0
 20 19  2  0
 22 21  1  6
 22 23  1  0
 23 15  1  0
 24 25  1  0
 24 22  1  0
 26 24  2  0
M  END
$$$$
