DEN.pdb
     RDKit          3D

 26 25  0  0  1  0  0  0  0  0999 V2000
   10.9988  -15.8377   20.3982 N   0  0  0  0  0  0  0  0  0  0  0  0
   10.8132  -17.0005   21.2094 C   0  0  1  0  0  0  0  0  0  0  0  0
   11.6416  -18.1790   20.7226 C   0  0  0  0  0  0  0  0  0  0  0  0
   11.3897  -18.4090   19.2793 C   0  0  0  0  0  0  0  0  0  0  0  0
   12.3598  -18.6708   18.5248 O   0  0  0  0  0  0  0  0  0  0  0  0
   11.1091  -16.7100   22.6283 C   0  0  0  0  0  0  0  0  0  0  0  0
   12.3163  -16.7847   23.0210 O   0  0  0  0  0  0  0  0  0  0  0  0
   10.1310  -18.3495   18.7145 O   0  0  0  0  0  0  0  0  0  0  0  0
   10.1355  -16.3506   23.5927 N   0  0  0  0  0  0  0  0  0  0  0  0
   10.5257  -16.0982   24.9456 C   0  0  1  0  0  0  0  0  0  0  0  0
    9.6363  -15.1563   25.6876 C   0  0  0  0  0  0  0  0  0  0  0  0
   10.0755  -14.7722   27.0534 C   0  0  0  0  0  0  0  0  0  0  0  0
    9.1093  -13.7670   27.5921 C   0  0  0  0  0  0  0  0  0  0  0  0
    8.0924  -13.4390   26.9341 O   0  0  0  0  0  0  0  0  0  0  0  0
   10.6982  -17.3367   25.7633 C   0  0  0  0  0  0  0  0  0  0  0  0
    9.8733  -18.2755   25.5974 O   0  0  0  0  0  0  0  0  0  0  0  0
    9.3204  -13.1774   28.8319 O   0  0  0  0  0  0  0  0  0  0  0  0
   14.9973  -20.0129   28.8400 N   0  0  0  0  0  0  0  0  0  0  0  0
   13.8513  -20.2107   27.9968 C   0  0  0  0  0  0  0  0  0  0  0  0
   13.3565  -21.3456   27.9887 O   0  0  0  0  0  0  0  0  0  0  0  0
   13.3983  -19.0444   27.2413 C   0  0  0  0  0  0  0  0  0  0  0  0
   12.0212  -18.5741   27.5047 C   0  0  2  0  0  0  0  0  0  0  0  0
   11.7655  -17.4045   26.6806 N   0  0  0  0  0  0  0  0  0  0  0  0
   11.7081  -18.2924   28.9241 C   0  0  0  0  0  0  0  0  0  0  0  0
   11.2912  -17.1055   29.4529 O   0  0  0  0  0  0  0  0  0  0  0  0
   11.8389  -19.2529   29.7488 O   0  0  0  0  0  0  0  0  0  0  0  0
  2  1  1  6
  2  3  1  0
  3  4  1  0
  4  8  1  0
  5  4  2  0
  6  2  1  0
  6  7  2  0
  9  6  1  0
 10  9  1  0
 10 11  1  1
 11 12  1  0
 12 13  1  0
 13 17  1  0
 13 14  2  0
 15 10  1  0
 16 15  2  0
 19 18  1  0
 19 21  1  0
 20 19  2  0
 22 21  1  1
 22 23  1  0
 23 15  1  0
 24 25  1  0
 24 22  1  0
 26 24  2  0
M  END
$$$$
