DEN.pdb
     RDKit          3D

 26 25  0  0  1  0  0  0  0  0999 V2000
   12.7878  -17.2290   16.0848 N   0  0  0  0  0  0  0  0  0  0  0  0
   12.9623  -18.2320   17.0890 C   0  0  1  0  0  0  0  0  0  0  0  0
   14.3000  -18.9440   16.9637 C   0  0  0  0  0  0  0  0  0  0  0  0
   14.5151  -19.3669   15.5586 C   0  0  0  0  0  0  0  0  0  0  0  0
   13.5876  -19.9574   14.9503 O   0  0  0  0  0  0  0  0  0  0  0  0
   12.8046  -17.6600   18.4429 C   0  0  0  0  0  0  0  0  0  0  0  0
   13.2589  -16.4926   18.6620 O   0  0  0  0  0  0  0  0  0  0  0  0
   15.6946  -19.1437   14.8759 O   0  0  0  0  0  0  0  0  0  0  0  0
   12.1774  -18.3245   19.5256 N   0  0  0  0  0  0  0  0  0  0  0  0
   12.0199  -17.6579   20.7814 C   0  0  1  0  0  0  0  0  0  0  0  0
   10.9028  -18.1733   21.6271 C   0  0  0  0  0  0  0  0  0  0  0  0
   10.7078  -17.5067   22.9400 C   0  0  0  0  0  0  0  0  0  0  0  0
    9.5374  -18.1412   23.6196 C   0  0  0  0  0  0  0  0  0  0  0  0
    8.8705  -17.5069   24.4725 O   0  0  0  0  0  0  0  0  0  0  0  0
   13.2660  -17.6235   21.6050 C   0  0  0  0  0  0  0  0  0  0  0  0
   13.8116  -18.7212   21.8997 O   0  0  0  0  0  0  0  0  0  0  0  0
    9.1672  -19.4456   23.3188 O   0  0  0  0  0  0  0  0  0  0  0  0
   17.8859  -15.5336   22.6101 N   0  0  0  0  0  0  0  0  0  0  0  0
   16.7988  -14.8098   22.0119 C   0  0  0  0  0  0  0  0  0  0  0  0
   17.0524  -14.1831   20.9748 O   0  0  0  0  0  0  0  0  0  0  0  0
   15.5118  -14.8961   22.6993 C   0  0  0  0  0  0  0  0  0  0  0  0
   14.9412  -16.2487   22.8770 C   0  0  2  0  0  0  0  0  0  0  0  0
   13.7760  -16.3766   22.0177 N   0  0  0  0  0  0  0  0  0  0  0  0
   14.6057  -16.6173   24.2712 C   0  0  0  0  0  0  0  0  0  0  0  0
   15.3850  -17.3180   25.1453 O   0  0  0  0  0  0  0  0  0  0  0  0
   13.4709  -16.2465   24.7124 O   0  0  0  0  0  0  0  0  0  0  0  0
  2  1  1  6
  2  3  1  0
  3  4  1  0
  4  8  1  0
  5  4  2  0
  6  2  1  0
  6  7  2  0
  9  6  1  0
 10  9  1  0
 10 11  1  1
 11 12  1  0
 12 13  1  0
 13 17  1  0
 13 14  2  0
 15 10  1  0
 16 15  2  0
 19 18  1  0
 19 21  1  0
 20 19  2  0
 22 21  1  1
 22 23  1  0
 23 15  1  0
 24 25  1  0
 24 22  1  0
 26 24  2  0
M  END
$$$$
