DEN.pdb
     RDKit          3D

 26 25  0  0  1  0  0  0  0  0999 V2000
    9.0747  -12.6875   18.0075 N   0  0  0  0  0  0  0  0  0  0  0  0
    8.5476  -13.9304   18.4786 C   0  0  1  0  0  0  0  0  0  0  0  0
    7.6804  -14.6188   17.4365 C   0  0  0  0  0  0  0  0  0  0  0  0
    8.3908  -14.6547   16.1351 C   0  0  0  0  0  0  0  0  0  0  0  0
    9.6084  -14.3468   16.0959 O   0  0  0  0  0  0  0  0  0  0  0  0
    9.6314  -14.8301   18.9273 C   0  0  0  0  0  0  0  0  0  0  0  0
    9.3215  -15.9984   19.3226 O   0  0  0  0  0  0  0  0  0  0  0  0
    7.7775  -15.0126   14.9507 O   0  0  0  0  0  0  0  0  0  0  0  0
   11.0044  -14.4820   18.9490 N   0  0  0  0  0  0  0  0  0  0  0  0
   11.9729  -15.4155   19.4359 C   0  0  1  0  0  0  0  0  0  0  0  0
   13.3390  -15.2598   18.8544 C   0  0  0  0  0  0  0  0  0  0  0  0
   13.7869  -13.8695   18.5854 C   0  0  0  0  0  0  0  0  0  0  0  0
   15.1623  -13.9236   18.0027 C   0  0  0  0  0  0  0  0  0  0  0  0
   16.1710  -13.9908   18.7461 O   0  0  0  0  0  0  0  0  0  0  0  0
   12.0879  -15.4416   20.9253 C   0  0  0  0  0  0  0  0  0  0  0  0
   12.3830  -14.3673   21.5154 O   0  0  0  0  0  0  0  0  0  0  0  0
   15.3484  -13.9002   16.6265 O   0  0  0  0  0  0  0  0  0  0  0  0
   10.5373  -19.1348   25.2976 N   0  0  0  0  0  0  0  0  0  0  0  0
   10.5778  -17.7449   24.9369 C   0  0  0  0  0  0  0  0  0  0  0  0
   10.5242  -16.9279   25.8655 O   0  0  0  0  0  0  0  0  0  0  0  0
   10.6779  -17.4528   23.5082 C   0  0  0  0  0  0  0  0  0  0  0  0
   11.9055  -16.7649   23.0537 C   0  0  2  0  0  0  0  0  0  0  0  0
   11.8660  -16.6557   21.6049 N   0  0  0  0  0  0  0  0  0  0  0  0
   13.1777  -17.3790   23.4973 C   0  0  0  0  0  0  0  0  0  0  0  0
   13.8708  -17.0979   24.6386 O   0  0  0  0  0  0  0  0  0  0  0  0
   13.6891  -18.2652   22.7404 O   0  0  0  0  0  0  0  0  0  0  0  0
  2  1  1  6
  2  3  1  0
  3  4  1  0
  4  8  1  0
  5  4  2  0
  6  2  1  0
  6  7  2  0
  9  6  1  0
 10  9  1  0
 10 11  1  6
 11 12  1  0
 12 13  1  0
 13 17  1  0
 13 14  2  0
 15 10  1  0
 16 15  2  0
 19 18  1  0
 19 21  1  0
 20 19  2  0
 22 21  1  6
 22 23  1  0
 23 15  1  0
 24 25  1  0
 24 22  1  0
 26 24  2  0
M  END
$$$$
