DEN.pdb
     RDKit          3D

 26 25  0  0  1  0  0  0  0  0999 V2000
   11.2683  -16.5149   20.5297 N   0  0  0  0  0  0  0  0  0  0  0  0
   10.1760  -16.7505   21.4220 C   0  0  1  0  0  0  0  0  0  0  0  0
    9.5111  -18.0953   21.1739 C   0  0  0  0  0  0  0  0  0  0  0  0
    8.8877  -18.1076   19.8283 C   0  0  0  0  0  0  0  0  0  0  0  0
    9.3342  -18.8944   18.9562 O   0  0  0  0  0  0  0  0  0  0  0  0
   10.6086  -16.6385   22.8311 C   0  0  0  0  0  0  0  0  0  0  0  0
   11.8428  -16.7896   23.0977 O   0  0  0  0  0  0  0  0  0  0  0  0
    7.8307  -17.2904   19.4792 O   0  0  0  0  0  0  0  0  0  0  0  0
    9.7393  -16.3722   23.9175 N   0  0  0  0  0  0  0  0  0  0  0  0
   10.2554  -16.3107   25.2503 C   0  0  1  0  0  0  0  0  0  0  0  0
    9.7447  -15.1700   26.0668 C   0  0  0  0  0  0  0  0  0  0  0  0
   10.2474  -15.0801   27.4615 C   0  0  0  0  0  0  0  0  0  0  0  0
    9.7203  -13.8209   28.0704 C   0  0  0  0  0  0  0  0  0  0  0  0
   10.0180  -13.5050   29.2477 O   0  0  0  0  0  0  0  0  0  0  0  0
   10.0706  -17.5741   26.0261 C   0  0  0  0  0  0  0  0  0  0  0  0
    8.9185  -18.0849   26.0602 O   0  0  0  0  0  0  0  0  0  0  0  0
    8.8905  -12.9774   27.3429 O   0  0  0  0  0  0  0  0  0  0  0  0
   11.2680  -21.8482   28.6583 N   0  0  0  0  0  0  0  0  0  0  0  0
   12.1674  -21.6340   27.5589 C   0  0  0  0  0  0  0  0  0  0  0  0
   12.9094  -22.5776   27.2559 O   0  0  0  0  0  0  0  0  0  0  0  0
   12.1037  -20.3205   26.9209 C   0  0  0  0  0  0  0  0  0  0  0  0
   11.0994  -19.3720   27.4486 C   0  0  2  0  0  0  0  0  0  0  0  0
   11.1811  -18.1382   26.6846 N   0  0  0  0  0  0  0  0  0  0  0  0
   11.1900  -19.0952   28.9003 C   0  0  0  0  0  0  0  0  0  0  0  0
   10.6286  -19.8203   29.9109 O   0  0  0  0  0  0  0  0  0  0  0  0
   11.8605  -18.0734   29.2554 O   0  0  0  0  0  0  0  0  0  0  0  0
  2  1  1  6
  2  3  1  0
  3  4  1  0
  4  8  1  0
  5  4  2  0
  6  2  1  0
  6  7  2  0
  9  6  1  0
 10  9  1  0
 10 11  1  1
 11 12  1  0
 12 13  1  0
 13 17  1  0
 13 14  2  0
 15 10  1  0
 16 15  2  0
 19 18  1  0
 19 21  1  0
 20 19  2  0
 22 21  1  6
 22 23  1  0
 23 15  1  0
 24 25  1  0
 24 22  1  0
 26 24  2  0
M  END
$$$$
