NVS.pdb
     RDKit          3D

 22 21  0  0  1  0  0  0  0  0999 V2000
    8.9150  -20.3286   15.1164 N   0  0  0  0  0  0  0  0  0  0  0  0
    8.5154  -19.7193   16.3164 C   0  0  0  0  0  0  0  0  0  0  0  0
    7.3711  -20.0190   16.7739 O   0  0  0  0  0  0  0  0  0  0  0  0
    9.3657  -18.7532   17.0597 C   0  0  0  0  0  0  0  0  0  0  0  0
    8.7161  -17.3745   17.0481 C   0  0  2  0  0  0  0  0  0  0  0  0
    8.9185  -16.7404   15.7691 N   0  0  0  0  0  0  0  0  0  0  0  0
    9.2315  -16.5271   18.1460 C   0  0  0  0  0  0  0  0  0  0  0  0
   10.4767  -16.3833   18.2606 O   0  0  0  0  0  0  0  0  0  0  0  0
    7.3283  -13.2247   19.5032 C   0  0  0  0  0  0  0  0  0  0  0  0
    7.7151  -14.1718   20.6336 C   0  0  2  0  0  0  0  0  0  0  0  0
    8.1110  -13.3067   21.8084 C   0  0  0  0  0  0  0  0  0  0  0  0
    8.8296  -15.0578   20.1653 C   0  0  2  0  0  0  0  0  0  0  0  0
    8.3838  -15.8680   19.0769 N   0  0  0  0  0  0  0  0  0  0  0  0
    9.3079  -15.8417   21.3325 C   0  0  0  0  0  0  0  0  0  0  0  0
    8.5554  -16.7657   21.7368 O   0  0  0  0  0  0  0  0  0  0  0  0
   13.1918  -16.5507   22.2867 O   0  0  0  0  0  0  0  0  0  0  0  0
   12.4358  -16.2298   23.3989 C   0  0  0  0  0  0  0  0  0  0  0  0
   10.9449  -16.3501   23.1415 C   0  0  2  0  0  0  0  0  0  0  0  0
   10.5404  -15.5902   21.9810 N   0  0  0  0  0  0  0  0  0  0  0  0
   10.2374  -15.9057   24.3671 C   0  0  0  0  0  0  0  0  0  0  0  0
   10.4117  -16.5742   25.5685 O   0  0  0  0  0  0  0  0  0  0  0  0
    9.4647  -14.9175   24.3541 O   0  0  0  0  0  0  0  0  0  0  0  0
  2  4  1  0
  2  1  1  0
  3  2  2  0
  5  7  1  0
  5  4  1  0
  5  6  1  6
  7 13  1  0
  8  7  2  0
 10  9  1  6
 10 12  1  0
 11 10  1  0
 12 14  1  0
 12 13  1  6
 14 15  2  0
 14 19  1  0
 17 16  1  0
 18 17  1  1
 18 20  1  0
 19 18  1  0
 20 21  1  0
 22 20  2  0
M  END
$$$$
