NVS.pdb
     RDKit          3D

 22 21  0  0  1  0  0  0  0  0999 V2000
    7.0222  -16.7398   19.5155 N   0  0  0  0  0  0  0  0  0  0  0  0
    6.9044  -17.4920   20.6950 C   0  0  0  0  0  0  0  0  0  0  0  0
    6.4367  -18.6669   20.5973 O   0  0  0  0  0  0  0  0  0  0  0  0
    7.2994  -16.9751   22.0313 C   0  0  0  0  0  0  0  0  0  0  0  0
    7.6300  -15.4903   21.9361 C   0  0  2  0  0  0  0  0  0  0  0  0
    8.4653  -15.2396   20.7879 N   0  0  0  0  0  0  0  0  0  0  0  0
    8.2738  -15.0014   23.1752 C   0  0  0  0  0  0  0  0  0  0  0  0
    9.5247  -15.0945   23.2798 O   0  0  0  0  0  0  0  0  0  0  0  0
    6.7327  -12.0085   25.3860 C   0  0  0  0  0  0  0  0  0  0  0  0
    7.1244  -13.1930   26.2624 C   0  0  2  0  0  0  0  0  0  0  0  0
    7.7093  -12.6187   27.5325 C   0  0  0  0  0  0  0  0  0  0  0  0
    8.0980  -14.0512   25.5128 C   0  0  2  0  0  0  0  0  0  0  0  0
    7.5433  -14.4314   24.2528 N   0  0  0  0  0  0  0  0  0  0  0  0
    8.4484  -15.2048   26.3801 C   0  0  0  0  0  0  0  0  0  0  0  0
    7.5054  -15.9722   26.7044 O   0  0  0  0  0  0  0  0  0  0  0  0
   12.1756  -16.8413   26.4814 O   0  0  0  0  0  0  0  0  0  0  0  0
   11.0699  -17.5307   26.9436 C   0  0  0  0  0  0  0  0  0  0  0  0
   10.0679  -16.6240   27.6346 C   0  0  2  0  0  0  0  0  0  0  0  0
    9.7637  -15.4584   26.8366 N   0  0  0  0  0  0  0  0  0  0  0  0
   10.6283  -16.2567   28.9579 C   0  0  0  0  0  0  0  0  0  0  0  0
   10.9320  -17.2317   29.8948 O   0  0  0  0  0  0  0  0  0  0  0  0
   10.8432  -15.0603   29.2678 O   0  0  0  0  0  0  0  0  0  0  0  0
  2  4  1  0
  2  1  1  0
  3  2  2  0
  5  7  1  0
  5  4  1  0
  5  6  1  6
  7 13  1  0
  8  7  2  0
 10  9  1  6
 10 12  1  0
 11 10  1  0
 12 14  1  0
 12 13  1  6
 14 15  2  0
 14 19  1  0
 17 16  1  0
 18 17  1  6
 18 20  1  0
 19 18  1  0
 20 21  1  0
 22 20  2  0
M  END
$$$$
