NVS.pdb
     RDKit          3D

 22 21  0  0  1  0  0  0  0  0999 V2000
    7.5302  -18.9773   14.5640 N   0  0  0  0  0  0  0  0  0  0  0  0
    8.1923  -18.8839   15.7984 C   0  0  0  0  0  0  0  0  0  0  0  0
    7.9358  -19.7688   16.6701 O   0  0  0  0  0  0  0  0  0  0  0  0
    9.1655  -17.8073   16.1192 C   0  0  0  0  0  0  0  0  0  0  0  0
    8.4221  -16.5258   16.4769 C   0  0  2  0  0  0  0  0  0  0  0  0
    8.2554  -15.7039   15.3040 N   0  0  0  0  0  0  0  0  0  0  0  0
    9.1176  -15.7814   17.5498 C   0  0  0  0  0  0  0  0  0  0  0  0
   10.2873  -15.3694   17.3347 O   0  0  0  0  0  0  0  0  0  0  0  0
    6.9406  -14.7197   20.9661 C   0  0  0  0  0  0  0  0  0  0  0  0
    8.1406  -13.8852   20.5325 C   0  0  2  0  0  0  0  0  0  0  0  0
    7.6130  -12.8168   19.6023 C   0  0  0  0  0  0  0  0  0  0  0  0
    9.1440  -14.7827   19.8736 C   0  0  2  0  0  0  0  0  0  0  0  0
    8.5243  -15.5106   18.8125 N   0  0  0  0  0  0  0  0  0  0  0  0
    9.7354  -15.6509   20.9233 C   0  0  0  0  0  0  0  0  0  0  0  0
    9.1466  -16.7393   21.1515 O   0  0  0  0  0  0  0  0  0  0  0  0
   13.3746  -16.5568   24.0630 O   0  0  0  0  0  0  0  0  0  0  0  0
   12.8315  -15.7287   23.0983 C   0  0  0  0  0  0  0  0  0  0  0  0
   11.4697  -16.2037   22.6255 C   0  0  2  0  0  0  0  0  0  0  0  0
   10.8997  -15.3039   21.6491 N   0  0  0  0  0  0  0  0  0  0  0  0
   10.6012  -16.3457   23.8195 C   0  0  0  0  0  0  0  0  0  0  0  0
    9.5449  -15.4750   24.0357 O   0  0  0  0  0  0  0  0  0  0  0  0
   10.7946  -17.2521   24.6648 O   0  0  0  0  0  0  0  0  0  0  0  0
  2  4  1  0
  2  1  1  0
  3  2  2  0
  5  7  1  0
  5  4  1  0
  5  6  1  6
  7 13  1  0
  8  7  2  0
 10  9  1  6
 10 12  1  0
 11 10  1  0
 12 14  1  0
 12 13  1  6
 14 15  2  0
 14 19  1  0
 17 16  1  0
 18 17  1  1
 18 20  1  0
 19 18  1  0
 20 21  1  0
 22 20  2  0
M  END
$$$$
