NVS.pdb
     RDKit          3D

 22 21  0  0  1  0  0  0  0  0999 V2000
    5.9926  -20.4399   17.3145 N   0  0  0  0  0  0  0  0  0  0  0  0
    6.6919  -19.2625   17.0055 C   0  0  0  0  0  0  0  0  0  0  0  0
    6.4693  -18.7267   15.8777 O   0  0  0  0  0  0  0  0  0  0  0  0
    7.6665  -18.6293   17.9320 C   0  0  0  0  0  0  0  0  0  0  0  0
    8.0846  -17.2664   17.3929 C   0  0  2  0  0  0  0  0  0  0  0  0
    8.9338  -17.4275   16.2389 N   0  0  0  0  0  0  0  0  0  0  0  0
    8.7557  -16.4580   18.4346 C   0  0  0  0  0  0  0  0  0  0  0  0
   10.0087  -16.5258   18.5338 O   0  0  0  0  0  0  0  0  0  0  0  0
    7.5291  -12.8026   19.7574 C   0  0  0  0  0  0  0  0  0  0  0  0
    7.7027  -13.8164   20.8827 C   0  0  2  0  0  0  0  0  0  0  0  0
    8.2377  -13.0552   22.0742 C   0  0  0  0  0  0  0  0  0  0  0  0
    8.6315  -14.8990   20.4225 C   0  0  2  0  0  0  0  0  0  0  0  0
    8.0492  -15.6084   19.3283 N   0  0  0  0  0  0  0  0  0  0  0  0
    8.9401  -15.7605   21.5922 C   0  0  0  0  0  0  0  0  0  0  0  0
    7.9811  -16.4134   22.0793 O   0  0  0  0  0  0  0  0  0  0  0  0
   12.8627  -16.4447   22.8037 O   0  0  0  0  0  0  0  0  0  0  0  0
   11.9038  -17.3981   23.0919 C   0  0  0  0  0  0  0  0  0  0  0  0
   10.5135  -16.8027   23.2198 C   0  0  2  0  0  0  0  0  0  0  0  0
   10.2340  -15.8658   22.1558 N   0  0  0  0  0  0  0  0  0  0  0  0
   10.4157  -16.1665   24.5561 C   0  0  0  0  0  0  0  0  0  0  0  0
   10.5537  -16.9190   25.7117 O   0  0  0  0  0  0  0  0  0  0  0  0
   10.2064  -14.9359   24.6807 O   0  0  0  0  0  0  0  0  0  0  0  0
  2  4  1  0
  2  1  1  0
  3  2  2  0
  5  7  1  0
  5  4  1  0
  5  6  1  6
  7 13  1  0
  8  7  2  0
 10  9  1  6
 10 12  1  0
 11 10  1  0
 12 14  1  0
 12 13  1  6
 14 15  2  0
 14 19  1  0
 17 16  1  0
 18 17  1  6
 18 20  1  0
 19 18  1  0
 20 21  1  0
 22 20  2  0
M  END
$$$$
