NVS.pdb
     RDKit          3D

 22 21  0  0  1  0  0  0  0  0999 V2000
    6.1134  -18.5872   15.3562 N   0  0  0  0  0  0  0  0  0  0  0  0
    6.4467  -19.2372   16.5551 C   0  0  0  0  0  0  0  0  0  0  0  0
    6.1760  -20.4728   16.6475 O   0  0  0  0  0  0  0  0  0  0  0  0
    7.0933  -18.5465   17.7013 C   0  0  0  0  0  0  0  0  0  0  0  0
    7.6918  -17.2232   17.2390 C   0  0  2  0  0  0  0  0  0  0  0  0
    8.5848  -17.4426   16.1284 N   0  0  0  0  0  0  0  0  0  0  0  0
    8.3856  -16.5297   18.3465 C   0  0  0  0  0  0  0  0  0  0  0  0
    9.6112  -16.7554   18.5231 O   0  0  0  0  0  0  0  0  0  0  0  0
    7.1554  -12.8665   19.6897 C   0  0  0  0  0  0  0  0  0  0  0  0
    7.4386  -13.8548   20.8156 C   0  0  2  0  0  0  0  0  0  0  0  0
    8.0484  -13.0600   21.9477 C   0  0  0  0  0  0  0  0  0  0  0  0
    8.3520  -14.9268   20.3029 C   0  0  2  0  0  0  0  0  0  0  0  0
    7.7304  -15.6201   19.2200 N   0  0  0  0  0  0  0  0  0  0  0  0
    8.7067  -15.8063   21.4459 C   0  0  0  0  0  0  0  0  0  0  0  0
    7.7890  -16.5383   21.8990 O   0  0  0  0  0  0  0  0  0  0  0  0
   12.6522  -16.6365   22.4913 O   0  0  0  0  0  0  0  0  0  0  0  0
   11.6229  -17.4970   22.8252 C   0  0  0  0  0  0  0  0  0  0  0  0
   10.3180  -16.7671   23.0864 C   0  0  2  0  0  0  0  0  0  0  0  0
    9.9994  -15.8450   22.0204 N   0  0  0  0  0  0  0  0  0  0  0  0
   10.4394  -16.0786   24.3946 C   0  0  0  0  0  0  0  0  0  0  0  0
   10.6776  -16.7978   25.5551 O   0  0  0  0  0  0  0  0  0  0  0  0
   10.3310  -14.8325   24.4903 O   0  0  0  0  0  0  0  0  0  0  0  0
  2  4  1  0
  2  1  1  0
  3  2  2  0
  5  7  1  0
  5  4  1  0
  5  6  1  6
  7 13  1  0
  8  7  2  0
 10  9  1  6
 10 12  1  0
 11 10  1  0
 12 14  1  0
 12 13  1  6
 14 15  2  0
 14 19  1  0
 17 16  1  0
 18 17  1  6
 18 20  1  0
 19 18  1  0
 20 21  1  0
 22 20  2  0
M  END
$$$$
