QCT.pdb
     RDKit          3D

 23 22  0  0  1  0  0  0  0  0999 V2000
    8.5235  -12.1155   17.7457 N   0  0  0  0  0  0  0  0  0  0  0  0
    8.0709  -13.4289   17.4705 C   0  0  0  0  0  0  0  0  0  0  0  0
    7.8473  -13.7347   16.2722 O   0  0  0  0  0  0  0  0  0  0  0  0
    7.8503  -14.4500   18.5150 C   0  0  0  0  0  0  0  0  0  0  0  0
    8.1789  -13.9294   19.8954 C   0  0  0  0  0  0  0  0  0  0  0  0
    7.9983  -15.0691   20.8736 C   0  0  2  0  0  0  0  0  0  0  0  0
    6.5657  -15.2354   21.0596 N   0  0  0  0  0  0  0  0  0  0  0  0
    8.6132  -14.7639   22.1917 C   0  0  0  0  0  0  0  0  0  0  0  0
    9.8647  -14.5753   22.2747 O   0  0  0  0  0  0  0  0  0  0  0  0
    7.8362  -14.6763   23.3696 N   0  0  0  0  0  0  0  0  0  0  0  0
    8.4574  -14.5161   24.6928 C   0  0  1  0  0  0  0  0  0  0  0  0
    7.6000  -13.5619   25.5279 C   0  0  0  0  0  0  0  0  0  0  0  0
    5.9010  -14.1951   25.6254 S   0  0  0  0  0  0  0  0  0  0  0  0
    8.4380  -15.8351   25.3702 C   0  0  0  0  0  0  0  0  0  0  0  0
    7.4118  -16.5375   25.3902 O   0  0  0  0  0  0  0  0  0  0  0  0
    9.8748  -18.6183   24.2888 C   0  0  0  0  0  0  0  0  0  0  0  0
   10.5376  -18.4818   25.6355 C   0  0  1  0  0  0  0  0  0  0  0  0
   11.7747  -17.8531   25.4978 O   0  0  0  0  0  0  0  0  0  0  0  0
    9.7031  -17.6480   26.5743 C   0  0  2  0  0  0  0  0  0  0  0  0
    9.6010  -16.3222   26.0128 N   0  0  0  0  0  0  0  0  0  0  0  0
   10.3366  -17.5690   27.9151 C   0  0  0  0  0  0  0  0  0  0  0  0
   10.3528  -18.6706   28.7569 O   0  0  0  0  0  0  0  0  0  0  0  0
   10.8620  -16.5146   28.3039 O   0  0  0  0  0  0  0  0  0  0  0  0
  1  2  1  0
  2  3  2  0
  4  2  1  0
  4  5  1  0
  5  6  1  0
  6  8  1  0
  6  7  1  1
  8 10  1  0
  8  9  2  0
 10 11  1  0
 11 14  1  0
 11 12  1  1
 13 12  1  0
 14 20  1  0
 14 15  2  0
 17 16  1  6
 17 19  1  0
 17 18  1  0
 19 21  1  0
 19 20  1  6
 21 22  1  0
 23 21  2  0
M  END
$$$$
