QCT.pdb
     RDKit          3D

 23 22  0  0  1  0  0  0  0  0999 V2000
   11.7889  -14.7072   21.2509 N   0  0  0  0  0  0  0  0  0  0  0  0
   12.1518  -14.2021   19.9786 C   0  0  0  0  0  0  0  0  0  0  0  0
   13.3551  -14.2992   19.6289 O   0  0  0  0  0  0  0  0  0  0  0  0
   11.1927  -13.5714   19.0488 C   0  0  0  0  0  0  0  0  0  0  0  0
    9.8180  -13.4306   19.6612 C   0  0  0  0  0  0  0  0  0  0  0  0
    9.1094  -14.7591   19.5151 C   0  0  2  0  0  0  0  0  0  0  0  0
    8.3604  -14.6970   18.2702 N   0  0  0  0  0  0  0  0  0  0  0  0
    8.1549  -14.9974   20.6290 C   0  0  0  0  0  0  0  0  0  0  0  0
    6.9381  -15.2478   20.3734 O   0  0  0  0  0  0  0  0  0  0  0  0
    8.5670  -14.9529   21.9807 N   0  0  0  0  0  0  0  0  0  0  0  0
    7.6941  -15.4188   23.0685 C   0  0  1  0  0  0  0  0  0  0  0  0
    7.2800  -16.8646   22.7836 C   0  0  0  0  0  0  0  0  0  0  0  0
    6.4163  -17.5477   24.2274 S   0  0  0  0  0  0  0  0  0  0  0  0
    8.4875  -15.4250   24.3212 C   0  0  0  0  0  0  0  0  0  0  0  0
    9.5623  -16.0454   24.4036 O   0  0  0  0  0  0  0  0  0  0  0  0
    8.4913  -11.9895   26.4812 C   0  0  0  0  0  0  0  0  0  0  0  0
    8.2889  -13.2343   27.3064 C   0  0  1  0  0  0  0  0  0  0  0  0
    6.9273  -13.4570   27.5096 O   0  0  0  0  0  0  0  0  0  0  0  0
    8.8520  -14.4486   26.6126 C   0  0  2  0  0  0  0  0  0  0  0  0
    8.0294  -14.7165   25.4573 N   0  0  0  0  0  0  0  0  0  0  0  0
    8.8351  -15.6278   27.5152 C   0  0  0  0  0  0  0  0  0  0  0  0
    9.6068  -15.6494   28.6669 O   0  0  0  0  0  0  0  0  0  0  0  0
    8.1293  -16.6136   27.2527 O   0  0  0  0  0  0  0  0  0  0  0  0
  1  2  1  0
  2  3  2  0
  4  2  1  0
  4  5  1  0
  5  6  1  0
  6  8  1  0
  6  7  1  6
  8 10  1  0
  8  9  2  0
 10 11  1  0
 11 14  1  0
 11 12  1  6
 13 12  1  0
 14 20  1  0
 14 15  2  0
 17 16  1  6
 17 19  1  0
 17 18  1  0
 19 21  1  0
 19 20  1  6
 21 22  1  0
 23 21  2  0
M  END
$$$$
