QCT.pdb
     RDKit          3D

 23 22  0  0  1  0  0  0  0  0999 V2000
    8.4024  -17.4266   18.7285 N   0  0  0  0  0  0  0  0  0  0  0  0
    7.6903  -16.3807   18.0923 C   0  0  0  0  0  0  0  0  0  0  0  0
    7.3294  -16.5550   16.9011 O   0  0  0  0  0  0  0  0  0  0  0  0
    7.3534  -15.1042   18.7550 C   0  0  0  0  0  0  0  0  0  0  0  0
    7.9205  -15.0242   20.1537 C   0  0  0  0  0  0  0  0  0  0  0  0
    7.5192  -13.6882   20.7388 C   0  0  2  0  0  0  0  0  0  0  0  0
    8.1026  -12.6668   19.8837 N   0  0  0  0  0  0  0  0  0  0  0  0
    8.0494  -13.5104   22.1157 C   0  0  0  0  0  0  0  0  0  0  0  0
    9.2872  -13.2966   22.2916 O   0  0  0  0  0  0  0  0  0  0  0  0
    7.2059  -13.5731   23.2486 N   0  0  0  0  0  0  0  0  0  0  0  0
    7.7480  -13.5519   24.6155 C   0  0  1  0  0  0  0  0  0  0  0  0
    6.7555  -12.8276   25.5284 C   0  0  0  0  0  0  0  0  0  0  0  0
    7.3503  -12.8846   27.2431 S   0  0  0  0  0  0  0  0  0  0  0  0
    7.8446  -14.9530   25.0911 C   0  0  0  0  0  0  0  0  0  0  0  0
    6.8321  -15.6634   25.2225 O   0  0  0  0  0  0  0  0  0  0  0  0
    9.5209  -17.7862   23.6372 C   0  0  0  0  0  0  0  0  0  0  0  0
   10.1755  -17.5995   24.9818 C   0  0  1  0  0  0  0  0  0  0  0  0
   11.3522  -16.8641   24.8424 O   0  0  0  0  0  0  0  0  0  0  0  0
    9.2758  -16.8469   25.9289 C   0  0  2  0  0  0  0  0  0  0  0  0
    9.1057  -15.5119   25.4073 N   0  0  0  0  0  0  0  0  0  0  0  0
    9.8783  -16.7746   27.2844 C   0  0  0  0  0  0  0  0  0  0  0  0
   10.0251  -17.9170   28.0562 O   0  0  0  0  0  0  0  0  0  0  0  0
   10.2605  -15.6893   27.7482 O   0  0  0  0  0  0  0  0  0  0  0  0
  1  2  1  0
  2  3  2  0
  4  2  1  0
  4  5  1  0
  5  6  1  0
  6  8  1  0
  6  7  1  6
  8 10  1  0
  8  9  2  0
 10 11  1  0
 11 14  1  0
 11 12  1  1
 13 12  1  0
 14 20  1  0
 14 15  2  0
 17 16  1  6
 17 19  1  0
 17 18  1  0
 19 21  1  0
 19 20  1  6
 21 22  1  0
 23 21  2  0
M  END
$$$$
