QCT.pdb
     RDKit          3D

 23 22  0  0  1  0  0  0  0  0999 V2000
    8.1264  -17.4178   15.4090 N   0  0  0  0  0  0  0  0  0  0  0  0
    7.3687  -18.5728   15.0969 C   0  0  0  0  0  0  0  0  0  0  0  0
    7.6736  -19.2134   14.0595 O   0  0  0  0  0  0  0  0  0  0  0  0
    6.2456  -19.0583   15.9246 C   0  0  0  0  0  0  0  0  0  0  0  0
    6.0057  -18.1766   17.1285 C   0  0  0  0  0  0  0  0  0  0  0  0
    6.9510  -18.6219   18.2224 C   0  0  2  0  0  0  0  0  0  0  0  0
    6.4667  -19.9099   18.6927 N   0  0  0  0  0  0  0  0  0  0  0  0
    6.9535  -17.6724   19.3658 C   0  0  0  0  0  0  0  0  0  0  0  0
    7.0035  -16.4240   19.1480 O   0  0  0  0  0  0  0  0  0  0  0  0
    6.9014  -18.1242   20.7045 N   0  0  0  0  0  0  0  0  0  0  0  0
    6.9857  -17.1902   21.8372 C   0  0  1  0  0  0  0  0  0  0  0  0
    5.7146  -17.3210   22.6799 C   0  0  0  0  0  0  0  0  0  0  0  0
    5.5858  -19.0110   23.3314 S   0  0  0  0  0  0  0  0  0  0  0  0
    8.1257  -17.6060   22.6893 C   0  0  0  0  0  0  0  0  0  0  0  0
    8.3289  -18.8029   22.9599 O   0  0  0  0  0  0  0  0  0  0  0  0
   12.4955  -16.2008   24.4891 C   0  0  0  0  0  0  0  0  0  0  0  0
   11.2408  -15.9398   23.6961 C   0  0  1  0  0  0  0  0  0  0  0  0
   11.5161  -16.0053   22.3306 O   0  0  0  0  0  0  0  0  0  0  0  0
   10.1789  -16.9665   23.9979 C   0  0  2  0  0  0  0  0  0  0  0  0
    9.0121  -16.6362   23.2152 N   0  0  0  0  0  0  0  0  0  0  0  0
    9.8260  -16.9529   25.4404 C   0  0  0  0  0  0  0  0  0  0  0  0
   10.5485  -17.7056   26.3535 O   0  0  0  0  0  0  0  0  0  0  0  0
    8.8779  -16.2668   25.8519 O   0  0  0  0  0  0  0  0  0  0  0  0
  1  2  1  0
  2  3  2  0
  4  2  1  0
  4  5  1  0
  5  6  1  0
  6  8  1  0
  6  7  1  1
  8 10  1  0
  8  9  2  0
 10 11  1  0
 11 14  1  0
 11 12  1  1
 13 12  1  0
 14 20  1  0
 14 15  2  0
 17 16  1  1
 17 19  1  0
 17 18  1  0
 19 21  1  0
 19 20  1  6
 21 22  1  0
 23 21  2  0
M  END
$$$$
