QCT.pdb
     RDKit          3D

 23 22  0  0  1  0  0  0  0  0999 V2000
    5.3645  -18.8749   21.1690 N   0  0  0  0  0  0  0  0  0  0  0  0
    5.4563  -18.0256   20.0394 C   0  0  0  0  0  0  0  0  0  0  0  0
    4.9925  -18.4450   18.9492 O   0  0  0  0  0  0  0  0  0  0  0  0
    6.0660  -16.6806   20.0792 C   0  0  0  0  0  0  0  0  0  0  0  0
    6.4785  -16.2859   21.4786 C   0  0  0  0  0  0  0  0  0  0  0  0
    7.1322  -14.9240   21.4003 C   0  0  2  0  0  0  0  0  0  0  0  0
    8.1278  -14.9999   20.3431 N   0  0  0  0  0  0  0  0  0  0  0  0
    7.8182  -14.5705   22.6704 C   0  0  0  0  0  0  0  0  0  0  0  0
    9.0409  -14.8675   22.8299 O   0  0  0  0  0  0  0  0  0  0  0  0
    7.1412  -13.9055   23.7184 N   0  0  0  0  0  0  0  0  0  0  0  0
    7.7562  -13.7264   25.0421 C   0  0  1  0  0  0  0  0  0  0  0  0
    6.9752  -12.6554   25.8078 C   0  0  0  0  0  0  0  0  0  0  0  0
    7.6080  -12.5359   27.5056 S   0  0  0  0  0  0  0  0  0  0  0  0
    7.6112  -14.9985   25.7900 C   0  0  0  0  0  0  0  0  0  0  0  0
    6.5000  -15.3946   26.1843 O   0  0  0  0  0  0  0  0  0  0  0  0
    7.9039  -18.2637   24.8423 C   0  0  0  0  0  0  0  0  0  0  0  0
    8.9681  -18.1606   25.9044 C   0  0  1  0  0  0  0  0  0  0  0  0
   10.2123  -17.9397   25.3144 O   0  0  0  0  0  0  0  0  0  0  0  0
    8.6965  -17.0116   26.8419 C   0  0  2  0  0  0  0  0  0  0  0  0
    8.7484  -15.7926   26.0708 N   0  0  0  0  0  0  0  0  0  0  0  0
    9.7160  -16.9576   27.9204 C   0  0  0  0  0  0  0  0  0  0  0  0
   10.6040  -15.8960   28.0031 O   0  0  0  0  0  0  0  0  0  0  0  0
    9.7894  -17.8627   28.7655 O   0  0  0  0  0  0  0  0  0  0  0  0
  1  2  1  0
  2  3  2  0
  4  2  1  0
  4  5  1  0
  5  6  1  0
  6  8  1  0
  6  7  1  6
  8 10  1  0
  8  9  2  0
 10 11  1  0
 11 14  1  0
 11 12  1  1
 13 12  1  0
 14 20  1  0
 14 15  2  0
 17 16  1  6
 17 19  1  0
 17 18  1  0
 19 21  1  0
 19 20  1  6
 21 22  1  0
 23 21  2  0
M  END
$$$$
