QCT.pdb
     RDKit          3D

 23 22  0  0  1  0  0  0  0  0999 V2000
    4.8451  -19.6635   18.5332 N   0  0  0  0  0  0  0  0  0  0  0  0
    5.3582  -19.9113   17.2367 C   0  0  0  0  0  0  0  0  0  0  0  0
    4.6461  -20.5718   16.4390 O   0  0  0  0  0  0  0  0  0  0  0  0
    6.6796  -19.4352   16.7790 C   0  0  0  0  0  0  0  0  0  0  0  0
    7.4124  -18.6718   17.8581 C   0  0  0  0  0  0  0  0  0  0  0  0
    7.7934  -17.3221   17.2910 C   0  0  2  0  0  0  0  0  0  0  0  0
    8.6614  -17.5785   16.1528 N   0  0  0  0  0  0  0  0  0  0  0  0
    8.5412  -16.5025   18.2797 C   0  0  0  0  0  0  0  0  0  0  0  0
    9.7971  -16.6400   18.3910 O   0  0  0  0  0  0  0  0  0  0  0  0
    7.8872  -15.5631   19.1097 N   0  0  0  0  0  0  0  0  0  0  0  0
    8.6295  -14.7394   20.0756 C   0  0  1  0  0  0  0  0  0  0  0  0
    7.7983  -13.4971   20.4058 C   0  0  0  0  0  0  0  0  0  0  0  0
    7.4643  -12.5643   18.8842 S   0  0  0  0  0  0  0  0  0  0  0  0
    8.7735  -15.5204   21.3277 C   0  0  0  0  0  0  0  0  0  0  0  0
    7.7917  -15.7781   22.0465 O   0  0  0  0  0  0  0  0  0  0  0  0
   10.1734  -18.9106   21.6403 C   0  0  0  0  0  0  0  0  0  0  0  0
   11.0149  -18.0215   22.5195 C   0  0  1  0  0  0  0  0  0  0  0  0
   12.1612  -17.6192   21.8347 O   0  0  0  0  0  0  0  0  0  0  0  0
   10.2624  -16.7783   22.9209 C   0  0  2  0  0  0  0  0  0  0  0  0
   10.0458  -15.9912   21.7305 N   0  0  0  0  0  0  0  0  0  0  0  0
   11.0420  -15.9833   23.9036 C   0  0  0  0  0  0  0  0  0  0  0  0
   11.2021  -16.4283   25.2069 O   0  0  0  0  0  0  0  0  0  0  0  0
   11.5630  -14.9070   23.5735 O   0  0  0  0  0  0  0  0  0  0  0  0
  1  2  1  0
  2  3  2  0
  4  2  1  0
  4  5  1  0
  5  6  1  0
  6  8  1  0
  6  7  1  6
  8 10  1  0
  8  9  2  0
 10 11  1  0
 11 14  1  0
 11 12  1  1
 13 12  1  0
 14 20  1  0
 14 15  2  0
 17 16  1  6
 17 19  1  0
 17 18  1  0
 19 21  1  0
 19 20  1  6
 21 22  1  0
 23 21  2  0
M  END
$$$$
