KYY.pdb
     RDKit          3D

 34 35  0  0  1  0  0  0  0  0999 V2000
   11.9593  -16.9555   17.7465 N   0  0  0  0  0  0  0  0  0  0  0  0
   11.6748  -17.6428   18.9723 C   0  0  1  0  0  0  0  0  0  0  0  0
   12.9237  -18.3136   19.5595 C   0  0  0  0  0  0  0  0  0  0  0  0
   13.1665  -19.5528   18.7550 C   0  0  0  0  0  0  0  0  0  0  0  0
   14.5888  -19.6099   18.2284 C   0  0  0  0  0  0  0  0  0  0  0  0
   14.7628  -20.9267   17.4936 C   0  0  0  0  0  0  0  0  0  0  0  0
   14.4338  -20.6826   16.0975 N   0  0  0  0  0  0  0  0  0  0  0  0
   11.2121  -16.6999   20.0123 C   0  0  0  0  0  0  0  0  0  0  0  0
   11.9375  -15.7289   20.3180 O   0  0  0  0  0  0  0  0  0  0  0  0
    7.2895  -12.7695   16.4267 O   0  0  0  0  0  0  0  0  0  0  0  0
    7.4749  -13.4565   17.6195 C   0  0  0  0  0  0  0  0  0  0  0  0
    7.3392  -14.8217   17.7277 C   0  0  0  0  0  0  0  0  0  0  0  0
    7.5217  -15.5163   18.9148 C   0  0  0  0  0  0  0  0  0  0  0  0
    7.8548  -14.7788   20.0253 C   0  0  0  0  0  0  0  0  0  0  0  0
    8.0633  -15.4603   21.3229 C   0  0  0  0  0  0  0  0  0  0  0  0
    9.5080  -15.8105   21.5390 C   0  0  2  0  0  0  0  0  0  0  0  0
    9.9742  -16.8545   20.6808 N   0  0  0  0  0  0  0  0  0  0  0  0
    9.6837  -16.1952   22.9648 C   0  0  0  0  0  0  0  0  0  0  0  0
    9.6037  -17.4188   23.2496 O   0  0  0  0  0  0  0  0  0  0  0  0
    8.0022  -13.4145   19.9688 C   0  0  0  0  0  0  0  0  0  0  0  0
    7.8100  -12.7649   18.7622 C   0  0  0  0  0  0  0  0  0  0  0  0
   10.8468  -16.2878   31.7061 O   0  0  0  0  0  0  0  0  0  0  0  0
   10.7856  -15.8798   30.3637 C   0  0  0  0  0  0  0  0  0  0  0  0
    9.7331  -15.1052   29.9135 C   0  0  0  0  0  0  0  0  0  0  0  0
    9.6541  -14.6948   28.6018 C   0  0  0  0  0  0  0  0  0  0  0  0
   10.6384  -15.0452   27.6646 C   0  0  0  0  0  0  0  0  0  0  0  0
   10.5050  -14.6022   26.2682 C   0  0  0  0  0  0  0  0  0  0  0  0
   10.1111  -15.7394   25.3509 C   0  0  2  0  0  0  0  0  0  0  0  0
    9.9338  -15.2519   23.9903 N   0  0  0  0  0  0  0  0  0  0  0  0
    8.8379  -16.3672   25.7600 C   0  0  0  0  0  0  0  0  0  0  0  0
    7.6514  -15.8384   25.2920 O   0  0  0  0  0  0  0  0  0  0  0  0
   11.6729  -15.8177   28.1474 C   0  0  0  0  0  0  0  0  0  0  0  0
   11.7507  -16.2269   29.4590 C   0  0  0  0  0  0  0  0  0  0  0  0
    8.8247  -17.3473   26.5087 O   0  0  0  0  0  0  0  0  0  0  0  0
  2  1  1  6
  2  3  1  0
  4  3  1  0
  5  4  1  0
  6  5  1  0
  7  6  1  0
  8  2  1  0
  8  9  2  0
 10 11  1  0
 11 21  2  0
 11 12  1  0
 12 13  2  0
 13 14  1  0
 14 15  1  0
 16 15  1  1
 16 17  1  0
 17  8  1  0
 18 16  1  0
 19 18  2  0
 20 14  2  0
 21 20  1  0
 23 22  1  0
 23 24  2  0
 25 24  1  0
 26 25  2  0
 27 26  1  0
 28 27  1  1
 28 29  1  0
 28 30  1  0
 29 18  1  0
 30 34  2  0
 30 31  1  0
 32 33  2  0
 32 26  1  0
 33 23  1  0
M  END
$$$$
