KYY.pdb
     RDKit          3D

 34 35  0  0  1  0  0  0  0  0999 V2000
    7.4805  -18.3100   15.8853 N   0  0  0  0  0  0  0  0  0  0  0  0
    8.8171  -17.8784   16.1734 C   0  0  1  0  0  0  0  0  0  0  0  0
    9.0180  -16.3871   15.8730 C   0  0  0  0  0  0  0  0  0  0  0  0
    8.7679  -16.2044   14.4082 C   0  0  0  0  0  0  0  0  0  0  0  0
    9.0893  -14.7917   13.9563 C   0  0  0  0  0  0  0  0  0  0  0  0
    8.9181  -14.7325   12.4492 C   0  0  0  0  0  0  0  0  0  0  0  0
    9.2344  -13.3734   12.0371 N   0  0  0  0  0  0  0  0  0  0  0  0
    9.1244  -18.0324   17.6109 C   0  0  0  0  0  0  0  0  0  0  0  0
    8.2185  -17.8382   18.4500 O   0  0  0  0  0  0  0  0  0  0  0  0
   10.3856  -24.7408   18.5830 O   0  0  0  0  0  0  0  0  0  0  0  0
   10.7102  -23.4339   18.9229 C   0  0  0  0  0  0  0  0  0  0  0  0
   10.4326  -22.8884   20.1555 C   0  0  0  0  0  0  0  0  0  0  0  0
   10.7524  -21.5840   20.5038 C   0  0  0  0  0  0  0  0  0  0  0  0
   11.3786  -20.8184   19.5500 C   0  0  0  0  0  0  0  0  0  0  0  0
   11.7464  -19.4180   19.8588 C   0  0  0  0  0  0  0  0  0  0  0  0
   10.6496  -18.4618   19.4859 C   0  0  2  0  0  0  0  0  0  0  0  0
   10.4114  -18.3913   18.0781 N   0  0  0  0  0  0  0  0  0  0  0  0
   11.0035  -17.1193   20.0191 C   0  0  0  0  0  0  0  0  0  0  0  0
   10.9529  -16.1467   19.2215 O   0  0  0  0  0  0  0  0  0  0  0  0
   11.6774  -21.3167   18.3055 C   0  0  0  0  0  0  0  0  0  0  0  0
   11.3390  -22.6240   18.0036 C   0  0  0  0  0  0  0  0  0  0  0  0
    6.9731  -12.7022   17.9963 O   0  0  0  0  0  0  0  0  0  0  0  0
    7.5287  -13.4848   19.0214 C   0  0  0  0  0  0  0  0  0  0  0  0
    8.8831  -13.4275   19.2916 C   0  0  0  0  0  0  0  0  0  0  0  0
    9.4477  -14.1864   20.2920 C   0  0  0  0  0  0  0  0  0  0  0  0
    8.6731  -15.0512   21.0806 C   0  0  0  0  0  0  0  0  0  0  0  0
    9.3198  -15.8591   22.1260 C   0  0  0  0  0  0  0  0  0  0  0  0
   10.8283  -15.7554   22.0667 C   0  0  2  0  0  0  0  0  0  0  0  0
   11.3858  -16.9029   21.3648 N   0  0  0  0  0  0  0  0  0  0  0  0
   11.4364  -15.7282   23.4127 C   0  0  0  0  0  0  0  0  0  0  0  0
   11.7006  -16.9238   24.0509 O   0  0  0  0  0  0  0  0  0  0  0  0
    7.3272  -15.0835   20.7841 C   0  0  0  0  0  0  0  0  0  0  0  0
    6.7642  -14.3240   19.7840 C   0  0  0  0  0  0  0  0  0  0  0  0
   11.7057  -14.6596   23.9666 O   0  0  0  0  0  0  0  0  0  0  0  0
  2  1  1  1
  2  3  1  0
  4  3  1  0
  5  4  1  0
  6  5  1  0
  7  6  1  0
  8  2  1  0
  8  9  2  0
 10 11  1  0
 11 21  2  0
 11 12  1  0
 12 13  2  0
 13 14  1  0
 14 15  1  0
 16 15  1  6
 16 17  1  0
 17  8  1  0
 18 16  1  0
 19 18  2  0
 20 14  2  0
 21 20  1  0
 23 22  1  0
 23 24  2  0
 25 24  1  0
 26 25  2  0
 27 26  1  0
 28 27  1  1
 28 29  1  0
 28 30  1  0
 29 18  1  0
 30 34  2  0
 30 31  1  0
 32 33  2  0
 32 26  1  0
 33 23  1  0
M  END
$$$$
