KYY.pdb
     RDKit          3D

 34 35  0  0  1  0  0  0  0  0999 V2000
    5.5932  -21.2350   22.6745 N   0  0  0  0  0  0  0  0  0  0  0  0
    5.5140  -20.0199   23.4314 C   0  0  1  0  0  0  0  0  0  0  0  0
    6.1000  -20.1800   24.8405 C   0  0  0  0  0  0  0  0  0  0  0  0
    6.1123  -21.6472   25.1386 C   0  0  0  0  0  0  0  0  0  0  0  0
    6.8061  -21.9463   26.4548 C   0  0  0  0  0  0  0  0  0  0  0  0
    6.8387  -23.4532   26.6344 C   0  0  0  0  0  0  0  0  0  0  0  0
    7.6626  -23.7258   27.8023 N   0  0  0  0  0  0  0  0  0  0  0  0
    6.3100  -18.9484   22.7966 C   0  0  0  0  0  0  0  0  0  0  0  0
    7.4124  -19.2345   22.2815 O   0  0  0  0  0  0  0  0  0  0  0  0
    9.1650  -11.8467   18.7359 O   0  0  0  0  0  0  0  0  0  0  0  0
    8.3847  -12.7205   19.4819 C   0  0  0  0  0  0  0  0  0  0  0  0
    7.8600  -13.8839   18.9667 C   0  0  0  0  0  0  0  0  0  0  0  0
    7.0791  -14.7624   19.7039 C   0  0  0  0  0  0  0  0  0  0  0  0
    6.8319  -14.4299   21.0141 C   0  0  0  0  0  0  0  0  0  0  0  0
    6.0053  -15.3254   21.8547 C   0  0  0  0  0  0  0  0  0  0  0  0
    6.7167  -16.6131   22.1583 C   0  0  2  0  0  0  0  0  0  0  0  0
    5.8720  -17.6032   22.7499 N   0  0  0  0  0  0  0  0  0  0  0  0
    7.8640  -16.3090   23.0544 C   0  0  0  0  0  0  0  0  0  0  0  0
    7.6006  -15.9044   24.2170 O   0  0  0  0  0  0  0  0  0  0  0  0
    7.3331  -13.2806   21.5746 C   0  0  0  0  0  0  0  0  0  0  0  0
    8.1071  -12.4346   20.8001 C   0  0  0  0  0  0  0  0  0  0  0  0
    9.6406  -13.6861   29.5441 O   0  0  0  0  0  0  0  0  0  0  0  0
    9.7279  -14.4745   28.3852 C   0  0  0  0  0  0  0  0  0  0  0  0
   10.2397  -15.7570   28.4466 C   0  0  0  0  0  0  0  0  0  0  0  0
   10.3341  -16.5462   27.3225 C   0  0  0  0  0  0  0  0  0  0  0  0
    9.9152  -16.0830   26.0656 C   0  0  0  0  0  0  0  0  0  0  0  0
   10.0522  -16.9519   24.8865 C   0  0  0  0  0  0  0  0  0  0  0  0
   10.2602  -16.1530   23.6182 C   0  0  2  0  0  0  0  0  0  0  0  0
    9.2134  -16.4572   22.6529 N   0  0  0  0  0  0  0  0  0  0  0  0
   11.5530  -16.4614   22.9735 C   0  0  0  0  0  0  0  0  0  0  0  0
   12.7129  -15.9565   23.5268 O   0  0  0  0  0  0  0  0  0  0  0  0
    9.4104  -14.8005   26.0408 C   0  0  0  0  0  0  0  0  0  0  0  0
    9.3164  -14.0129   27.1654 C   0  0  0  0  0  0  0  0  0  0  0  0
   11.6056  -17.1564   21.9559 O   0  0  0  0  0  0  0  0  0  0  0  0
  2  1  1  6
  2  3  1  0
  4  3  1  0
  5  4  1  0
  6  5  1  0
  7  6  1  0
  8  2  1  0
  8  9  2  0
 10 11  1  0
 11 21  2  0
 11 12  1  0
 12 13  2  0
 13 14  1  0
 14 15  1  0
 16 15  1  1
 16 17  1  0
 17  8  1  0
 18 16  1  0
 19 18  2  0
 20 14  2  0
 21 20  1  0
 23 22  1  0
 23 24  2  0
 25 24  1  0
 26 25  2  0
 27 26  1  0
 28 27  1  1
 28 29  1  0
 28 30  1  0
 29 18  1  0
 30 34  2  0
 30 31  1  0
 32 33  2  0
 32 26  1  0
 33 23  1  0
M  END
$$$$
