KYY.pdb
     RDKit          3D

 34 35  0  0  1  0  0  0  0  0999 V2000
   10.2147  -18.0789   17.5011 N   0  0  0  0  0  0  0  0  0  0  0  0
    9.7707  -18.4558   18.8113 C   0  0  1  0  0  0  0  0  0  0  0  0
   10.4713  -19.7251   19.3137 C   0  0  0  0  0  0  0  0  0  0  0  0
    9.9231  -20.8659   18.5139 C   0  0  0  0  0  0  0  0  0  0  0  0
   10.4488  -22.2011   19.0081 C   0  0  0  0  0  0  0  0  0  0  0  0
    9.7858  -23.2958   18.1917 C   0  0  0  0  0  0  0  0  0  0  0  0
   10.2265  -24.5670   18.7456 N   0  0  0  0  0  0  0  0  0  0  0  0
   10.0994  -17.4097   19.8025 C   0  0  0  0  0  0  0  0  0  0  0  0
   11.1819  -16.7933   19.6989 O   0  0  0  0  0  0  0  0  0  0  0  0
    6.6561  -12.2180   17.7526 O   0  0  0  0  0  0  0  0  0  0  0  0
    7.0981  -12.9569   18.8424 C   0  0  0  0  0  0  0  0  0  0  0  0
    6.5106  -14.1376   19.2361 C   0  0  0  0  0  0  0  0  0  0  0  0
    6.9447  -14.8820   20.3235 C   0  0  0  0  0  0  0  0  0  0  0  0
    8.0189  -14.3926   21.0269 C   0  0  0  0  0  0  0  0  0  0  0  0
    8.5307  -15.1398   22.1980 C   0  0  0  0  0  0  0  0  0  0  0  0
    9.6364  -16.0815   21.8144 C   0  0  2  0  0  0  0  0  0  0  0  0
    9.2330  -17.0773   20.8713 N   0  0  0  0  0  0  0  0  0  0  0  0
   10.1518  -16.7210   23.0541 C   0  0  0  0  0  0  0  0  0  0  0  0
    9.4502  -17.6278   23.5739 O   0  0  0  0  0  0  0  0  0  0  0  0
    8.6396  -13.2194   20.6738 C   0  0  0  0  0  0  0  0  0  0  0  0
    8.1712  -12.5110   19.5814 C   0  0  0  0  0  0  0  0  0  0  0  0
   10.2488  -14.3677   31.1822 O   0  0  0  0  0  0  0  0  0  0  0  0
   10.2491  -14.6410   29.8046 C   0  0  0  0  0  0  0  0  0  0  0  0
   10.1899  -13.6106   28.8853 C   0  0  0  0  0  0  0  0  0  0  0  0
   10.1890  -13.8569   27.5308 C   0  0  0  0  0  0  0  0  0  0  0  0
   10.2479  -15.1646   27.0245 C   0  0  0  0  0  0  0  0  0  0  0  0
   10.2246  -15.3843   25.5702 C   0  0  0  0  0  0  0  0  0  0  0  0
   11.4190  -16.1868   25.1018 C   0  0  2  0  0  0  0  0  0  0  0  0
   11.3793  -16.3532   23.6557 N   0  0  0  0  0  0  0  0  0  0  0  0
   11.4476  -17.5385   25.6970 C   0  0  0  0  0  0  0  0  0  0  0  0
   11.3938  -18.6374   24.8626 O   0  0  0  0  0  0  0  0  0  0  0  0
   10.3060  -16.1672   27.9687 C   0  0  0  0  0  0  0  0  0  0  0  0
   10.3072  -15.9194   29.3224 C   0  0  0  0  0  0  0  0  0  0  0  0
   11.5167  -17.6933   26.9188 O   0  0  0  0  0  0  0  0  0  0  0  0
  2  1  1  6
  2  3  1  0
  4  3  1  0
  5  4  1  0
  6  5  1  0
  7  6  1  0
  8  2  1  0
  8  9  2  0
 10 11  1  0
 11 21  2  0
 11 12  1  0
 12 13  2  0
 13 14  1  0
 14 15  1  0
 16 15  1  1
 16 17  1  0
 17  8  1  0
 18 16  1  0
 19 18  2  0
 20 14  2  0
 21 20  1  0
 23 22  1  0
 23 24  2  0
 25 24  1  0
 26 25  2  0
 27 26  1  0
 28 27  1  1
 28 29  1  0
 28 30  1  0
 29 18  1  0
 30 34  2  0
 30 31  1  0
 32 33  2  0
 32 26  1  0
 33 23  1  0
M  END
$$$$
