KYY.pdb
     RDKit          3D

 34 35  0  0  1  0  0  0  0  0999 V2000
    9.2167  -19.3474   19.3056 N   0  0  0  0  0  0  0  0  0  0  0  0
   10.4432  -18.6328   19.1034 C   0  0  1  0  0  0  0  0  0  0  0  0
   10.4491  -17.8633   17.7759 C   0  0  0  0  0  0  0  0  0  0  0  0
   10.5525  -18.8842   16.6857 C   0  0  0  0  0  0  0  0  0  0  0  0
    9.8200  -18.4423   15.4321 C   0  0  0  0  0  0  0  0  0  0  0  0
   10.0001  -19.5218   14.3802 C   0  0  0  0  0  0  0  0  0  0  0  0
    9.3911  -19.0284   13.1543 N   0  0  0  0  0  0  0  0  0  0  0  0
   10.6369  -17.6076   20.1503 C   0  0  0  0  0  0  0  0  0  0  0  0
   11.6596  -16.8898   20.1158 O   0  0  0  0  0  0  0  0  0  0  0  0
    6.9815  -12.2497   18.3264 O   0  0  0  0  0  0  0  0  0  0  0  0
    7.4362  -13.0723   19.3489 C   0  0  0  0  0  0  0  0  0  0  0  0
    8.7419  -13.4962   19.4461 C   0  0  0  0  0  0  0  0  0  0  0  0
    9.2049  -14.3184   20.4633 C   0  0  0  0  0  0  0  0  0  0  0  0
    8.2918  -14.7156   21.4101 C   0  0  0  0  0  0  0  0  0  0  0  0
    8.7224  -15.5935   22.5217 C   0  0  0  0  0  0  0  0  0  0  0  0
    9.9505  -16.3804   22.1625 C   0  0  2  0  0  0  0  0  0  0  0  0
    9.7060  -17.4063   21.1974 N   0  0  0  0  0  0  0  0  0  0  0  0
   10.5076  -16.9659   23.4108 C   0  0  0  0  0  0  0  0  0  0  0  0
    9.8666  -17.9079   23.9461 O   0  0  0  0  0  0  0  0  0  0  0  0
    6.9778  -14.3194   21.3573 C   0  0  0  0  0  0  0  0  0  0  0  0
    6.5619  -13.4989   20.3236 C   0  0  0  0  0  0  0  0  0  0  0  0
   10.2136  -14.3534   31.3696 O   0  0  0  0  0  0  0  0  0  0  0  0
   10.2836  -14.5700   29.9838 C   0  0  0  0  0  0  0  0  0  0  0  0
   10.0684  -15.8307   29.4595 C   0  0  0  0  0  0  0  0  0  0  0  0
   10.1325  -16.0644   28.1042 C   0  0  0  0  0  0  0  0  0  0  0  0
   10.4191  -15.0332   27.1963 C   0  0  0  0  0  0  0  0  0  0  0  0
   10.4977  -15.3302   25.7578 C   0  0  0  0  0  0  0  0  0  0  0  0
   11.7010  -16.1847   25.4232 C   0  0  2  0  0  0  0  0  0  0  0  0
   11.7096  -16.5104   24.0040 N   0  0  0  0  0  0  0  0  0  0  0  0
   11.6985  -17.4621   26.1651 C   0  0  0  0  0  0  0  0  0  0  0  0
   11.5527  -18.6422   25.4634 O   0  0  0  0  0  0  0  0  0  0  0  0
   10.6280  -13.7896   27.7533 C   0  0  0  0  0  0  0  0  0  0  0  0
   10.5634  -13.5575   29.1082 C   0  0  0  0  0  0  0  0  0  0  0  0
   11.8224  -17.4842   27.3922 O   0  0  0  0  0  0  0  0  0  0  0  0
  2  1  1  1
  2  3  1  0
  4  3  1  0
  5  4  1  0
  6  5  1  0
  7  6  1  0
  8  2  1  0
  8  9  2  0
 10 11  1  0
 11 21  2  0
 11 12  1  0
 12 13  2  0
 13 14  1  0
 14 15  1  0
 16 15  1  1
 16 17  1  0
 17  8  1  0
 18 16  1  0
 19 18  2  0
 20 14  2  0
 21 20  1  0
 23 22  1  0
 23 24  2  0
 25 24  1  0
 26 25  2  0
 27 26  1  0
 28 27  1  6
 28 29  1  0
 28 30  1  0
 29 18  1  0
 30 34  2  0
 30 31  1  0
 32 33  2  0
 32 26  1  0
 33 23  1  0
M  END
$$$$
