KYY.pdb
     RDKit          3D

 34 35  0  0  1  0  0  0  0  0999 V2000
   10.1925  -18.2094   18.7469 N   0  0  0  0  0  0  0  0  0  0  0  0
    9.4949  -18.4061   19.9841 C   0  0  1  0  0  0  0  0  0  0  0  0
   10.0082  -19.6355   20.7454 C   0  0  0  0  0  0  0  0  0  0  0  0
    9.6380  -20.8345   19.9286 C   0  0  0  0  0  0  0  0  0  0  0  0
   10.0547  -22.1262   20.6077 C   0  0  0  0  0  0  0  0  0  0  0  0
    9.5765  -23.2820   19.7477 C   0  0  0  0  0  0  0  0  0  0  0  0
    9.9669  -24.5084   20.4263 N   0  0  0  0  0  0  0  0  0  0  0  0
    9.7067  -17.2640   20.8981 C   0  0  0  0  0  0  0  0  0  0  0  0
   10.8536  -16.7795   21.0094 O   0  0  0  0  0  0  0  0  0  0  0  0
    7.5996  -12.4918   17.1591 O   0  0  0  0  0  0  0  0  0  0  0  0
    7.7048  -12.9621   18.4617 C   0  0  0  0  0  0  0  0  0  0  0  0
    8.5961  -12.4475   19.3753 C   0  0  0  0  0  0  0  0  0  0  0  0
    8.7088  -12.9112   20.6781 C   0  0  0  0  0  0  0  0  0  0  0  0
    7.8753  -13.9384   21.0499 C   0  0  0  0  0  0  0  0  0  0  0  0
    7.9459  -14.4787   22.4264 C   0  0  0  0  0  0  0  0  0  0  0  0
    8.9406  -15.5993   22.5315 C   0  0  2  0  0  0  0  0  0  0  0  0
    8.6569  -16.6948   21.6580 N   0  0  0  0  0  0  0  0  0  0  0  0
    8.9731  -16.0595   23.9454 C   0  0  0  0  0  0  0  0  0  0  0  0
    8.0546  -16.8320   24.3251 O   0  0  0  0  0  0  0  0  0  0  0  0
    6.9688  -14.4857   20.1752 C   0  0  0  0  0  0  0  0  0  0  0  0
    6.8925  -13.9902   18.8855 C   0  0  0  0  0  0  0  0  0  0  0  0
    6.1970  -10.4695   27.2407 O   0  0  0  0  0  0  0  0  0  0  0  0
    6.7192  -11.7621   27.0713 C   0  0  0  0  0  0  0  0  0  0  0  0
    5.9033  -12.7997   26.6612 C   0  0  0  0  0  0  0  0  0  0  0  0
    6.3952  -14.0741   26.4893 C   0  0  0  0  0  0  0  0  0  0  0  0
    7.7460  -14.3750   26.7230 C   0  0  0  0  0  0  0  0  0  0  0  0
    8.2260  -15.7543   26.5463 C   0  0  0  0  0  0  0  0  0  0  0  0
    9.7155  -15.8038   26.2836 C   0  0  2  0  0  0  0  0  0  0  0  0
    9.9813  -15.6674   24.8584 N   0  0  0  0  0  0  0  0  0  0  0  0
   10.3140  -17.0820   26.7198 C   0  0  0  0  0  0  0  0  0  0  0  0
   10.6231  -18.0342   25.7689 O   0  0  0  0  0  0  0  0  0  0  0  0
    8.5305  -13.3173   27.1305 C   0  0  0  0  0  0  0  0  0  0  0  0
    8.0374  -12.0440   27.3017 C   0  0  0  0  0  0  0  0  0  0  0  0
   10.5363  -17.3051   27.9124 O   0  0  0  0  0  0  0  0  0  0  0  0
  2  1  1  6
  2  3  1  0
  4  3  1  0
  5  4  1  0
  6  5  1  0
  7  6  1  0
  8  2  1  0
  8  9  2  0
 10 11  1  0
 11 21  2  0
 11 12  1  0
 12 13  2  0
 13 14  1  0
 14 15  1  0
 16 15  1  1
 16 17  1  0
 17  8  1  0
 18 16  1  0
 19 18  2  0
 20 14  2  0
 21 20  1  0
 23 22  1  0
 23 24  2  0
 25 24  1  0
 26 25  2  0
 27 26  1  0
 28 27  1  6
 28 29  1  0
 28 30  1  0
 29 18  1  0
 30 34  2  0
 30 31  1  0
 32 33  2  0
 32 26  1  0
 33 23  1  0
M  END
$$$$
