KYY.pdb
     RDKit          3D

 34 35  0  0  1  0  0  0  0  0999 V2000
   16.5824  -23.7959   15.6706 N   0  0  0  0  0  0  0  0  0  0  0  0
   16.7669  -22.4140   16.0056 C   0  0  1  0  0  0  0  0  0  0  0  0
   15.4307  -21.6776   16.1682 C   0  0  0  0  0  0  0  0  0  0  0  0
   14.8519  -21.5257   14.7957 C   0  0  0  0  0  0  0  0  0  0  0  0
   13.5404  -20.7624   14.8214 C   0  0  0  0  0  0  0  0  0  0  0  0
   13.2751  -20.2413   13.4206 C   0  0  0  0  0  0  0  0  0  0  0  0
   12.1014  -19.3850   13.4993 N   0  0  0  0  0  0  0  0  0  0  0  0
   17.4521  -22.2724   17.3076 C   0  0  0  0  0  0  0  0  0  0  0  0
   17.4536  -23.2378   18.1015 O   0  0  0  0  0  0  0  0  0  0  0  0
   23.2352  -25.2631   17.3644 O   0  0  0  0  0  0  0  0  0  0  0  0
   22.4964  -24.1361   17.7005 C   0  0  0  0  0  0  0  0  0  0  0  0
   22.0184  -23.2463   16.7658 C   0  0  0  0  0  0  0  0  0  0  0  0
   21.2802  -22.1178   17.0922 C   0  0  0  0  0  0  0  0  0  0  0  0
   21.0272  -21.9007   18.4252 C   0  0  0  0  0  0  0  0  0  0  0  0
   20.2448  -20.7141   18.8396 C   0  0  0  0  0  0  0  0  0  0  0  0
   18.7805  -21.0285   18.9552 C   0  0  2  0  0  0  0  0  0  0  0  0
   18.1090  -21.0797   17.6941 N   0  0  0  0  0  0  0  0  0  0  0  0
   18.1544  -20.0052   19.8341 C   0  0  0  0  0  0  0  0  0  0  0  0
   17.8054  -18.9190   19.3022 O   0  0  0  0  0  0  0  0  0  0  0  0
   21.4820  -22.7593   19.3959 C   0  0  0  0  0  0  0  0  0  0  0  0
   22.2145  -23.8721   19.0224 C   0  0  0  0  0  0  0  0  0  0  0  0
   11.8565  -21.4081   19.3685 O   0  0  0  0  0  0  0  0  0  0  0  0
   12.9083  -21.0267   20.2173 C   0  0  0  0  0  0  0  0  0  0  0  0
   13.2110  -19.6907   20.4020 C   0  0  0  0  0  0  0  0  0  0  0  0
   14.2379  -19.2957   21.2295 C   0  0  0  0  0  0  0  0  0  0  0  0
   15.0221  -20.2318   21.9212 C   0  0  0  0  0  0  0  0  0  0  0  0
   16.1226  -19.7675   22.7798 C   0  0  0  0  0  0  0  0  0  0  0  0
   17.2538  -19.1687   21.9725 C   0  0  2  0  0  0  0  0  0  0  0  0
   17.9410  -20.2078   21.2188 N   0  0  0  0  0  0  0  0  0  0  0  0
   18.2611  -18.5118   22.8304 C   0  0  0  0  0  0  0  0  0  0  0  0
   19.5661  -18.9614   22.7931 O   0  0  0  0  0  0  0  0  0  0  0  0
   14.6929  -21.5543   21.7140 C   0  0  0  0  0  0  0  0  0  0  0  0
   13.6659  -21.9477   20.8867 C   0  0  0  0  0  0  0  0  0  0  0  0
   17.9508  -17.5770   23.5729 O   0  0  0  0  0  0  0  0  0  0  0  0
  2  1  1  1
  2  3  1  0
  4  3  1  0
  5  4  1  0
  6  5  1  0
  7  6  1  0
  8  2  1  0
  8  9  2  0
 10 11  1  0
 11 21  2  0
 11 12  1  0
 12 13  2  0
 13 14  1  0
 14 15  1  0
 16 15  1  6
 16 17  1  0
 17  8  1  0
 18 16  1  0
 19 18  2  0
 20 14  2  0
 21 20  1  0
 23 22  1  0
 23 24  2  0
 25 24  1  0
 26 25  2  0
 27 26  1  0
 28 27  1  1
 28 29  1  0
 28 30  1  0
 29 18  1  0
 30 34  2  0
 30 31  1  0
 32 33  2  0
 32 26  1  0
 33 23  1  0
M  END
$$$$
