KYY.pdb
     RDKit          3D

 34 35  0  0  1  0  0  0  0  0999 V2000
   10.0616  -18.0223   17.8925 N   0  0  0  0  0  0  0  0  0  0  0  0
    9.3223  -18.3643   19.0723 C   0  0  1  0  0  0  0  0  0  0  0  0
    9.8354  -19.6579   19.7186 C   0  0  0  0  0  0  0  0  0  0  0  0
   10.4540  -20.4712   18.6243 C   0  0  0  0  0  0  0  0  0  0  0  0
   10.8933  -21.8367   19.1200 C   0  0  0  0  0  0  0  0  0  0  0  0
   11.5801  -22.5525   17.9711 C   0  0  0  0  0  0  0  0  0  0  0  0
   11.9407  -23.8785   18.4495 N   0  0  0  0  0  0  0  0  0  0  0  0
    9.4715  -17.3228   20.1105 C   0  0  0  0  0  0  0  0  0  0  0  0
   10.5643  -16.7260   20.2196 O   0  0  0  0  0  0  0  0  0  0  0  0
    7.2294  -12.1903   16.7039 O   0  0  0  0  0  0  0  0  0  0  0  0
    7.2715  -12.8313   17.9352 C   0  0  0  0  0  0  0  0  0  0  0  0
    7.9401  -12.3207   19.0243 C   0  0  0  0  0  0  0  0  0  0  0  0
    7.9882  -12.9541   20.2578 C   0  0  0  0  0  0  0  0  0  0  0  0
    7.3253  -14.1523   20.3710 C   0  0  0  0  0  0  0  0  0  0  0  0
    7.3382  -14.8788   21.6609 C   0  0  0  0  0  0  0  0  0  0  0  0
    8.5322  -15.7831   21.7757 C   0  0  2  0  0  0  0  0  0  0  0  0
    8.4207  -16.9736   20.9923 N   0  0  0  0  0  0  0  0  0  0  0  0
    8.7198  -16.1235   23.2112 C   0  0  0  0  0  0  0  0  0  0  0  0
    8.1163  -17.1371   23.6506 O   0  0  0  0  0  0  0  0  0  0  0  0
    6.6434  -14.7034   19.3138 C   0  0  0  0  0  0  0  0  0  0  0  0
    6.6234  -14.0349   18.1024 C   0  0  0  0  0  0  0  0  0  0  0  0
   10.8230  -16.1251   31.7853 O   0  0  0  0  0  0  0  0  0  0  0  0
   10.7563  -15.8168   30.4167 C   0  0  0  0  0  0  0  0  0  0  0  0
   10.2526  -14.6004   29.9958 C   0  0  0  0  0  0  0  0  0  0  0  0
   10.1784  -14.2786   28.6592 C   0  0  0  0  0  0  0  0  0  0  0  0
   10.6106  -15.1714   27.6662 C   0  0  0  0  0  0  0  0  0  0  0  0
   10.4951  -14.7956   26.2487 C   0  0  0  0  0  0  0  0  0  0  0  0
    9.5951  -15.7430   25.4856 C   0  0  2  0  0  0  0  0  0  0  0  0
    9.5378  -15.3631   24.0810 N   0  0  0  0  0  0  0  0  0  0  0  0
    8.2103  -15.7284   25.9996 C   0  0  0  0  0  0  0  0  0  0  0  0
    7.3487  -14.7384   25.5705 O   0  0  0  0  0  0  0  0  0  0  0  0
   11.1069  -16.3743   28.1212 C   0  0  0  0  0  0  0  0  0  0  0  0
   11.1807  -16.6944   29.4576 C   0  0  0  0  0  0  0  0  0  0  0  0
    7.8210  -16.5816   26.8008 O   0  0  0  0  0  0  0  0  0  0  0  0
  2  1  1  6
  2  3  1  0
  4  3  1  0
  5  4  1  0
  6  5  1  0
  7  6  1  0
  8  2  1  0
  8  9  2  0
 10 11  1  0
 11 21  2  0
 11 12  1  0
 12 13  2  0
 13 14  1  0
 14 15  1  0
 16 15  1  1
 16 17  1  0
 17  8  1  0
 18 16  1  0
 19 18  2  0
 20 14  2  0
 21 20  1  0
 23 22  1  0
 23 24  2  0
 25 24  1  0
 26 25  2  0
 27 26  1  0
 28 27  1  1
 28 29  1  0
 28 30  1  0
 29 18  1  0
 30 34  2  0
 30 31  1  0
 32 33  2  0
 32 26  1  0
 33 23  1  0
M  END
$$$$
