QDD.pdb
     RDKit          3D

 26 25  0  0  1  0  0  0  0  0999 V2000
    9.4227  -13.9626   22.0564 N   0  0  0  0  0  0  0  0  0  0  0  0
    8.0069  -14.1223   21.8298 C   0  0  0  0  0  0  0  0  0  0  0  0
    7.3918  -14.8362   22.6452 O   0  0  0  0  0  0  0  0  0  0  0  0
    7.4509  -13.4186   20.6670 C   0  0  0  0  0  0  0  0  0  0  0  0
    8.4128  -12.7739   19.7694 C   0  0  0  0  0  0  0  0  0  0  0  0
    8.5460  -13.2154   18.3617 C   0  0  2  0  0  0  0  0  0  0  0  0
    7.1690  -13.1152   17.7559 N   0  0  0  0  0  0  0  0  0  0  0  0
    8.9730  -14.6040   18.1814 C   0  0  0  0  0  0  0  0  0  0  0  0
    8.1700  -15.5737   17.9837 O   0  0  0  0  0  0  0  0  0  0  0  0
   10.3779  -14.9523   18.2236 N   0  0  0  0  0  0  0  0  0  0  0  0
   10.8372  -16.3105   18.2098 C   0  0  1  0  0  0  0  0  0  0  0  0
   11.5886  -16.6515   16.9385 C   0  0  0  0  0  0  0  0  0  0  0  0
   12.0422  -18.0397   16.8661 C   0  0  0  0  0  0  0  0  0  0  0  0
   11.3246  -19.0432   16.6437 O   0  0  0  0  0  0  0  0  0  0  0  0
   11.6679  -16.6187   19.4122 C   0  0  0  0  0  0  0  0  0  0  0  0
   12.1108  -17.7736   19.6050 O   0  0  0  0  0  0  0  0  0  0  0  0
   13.3964  -18.2901   17.0602 O   0  0  0  0  0  0  0  0  0  0  0  0
   12.0122  -15.6676   20.4042 N   0  0  0  0  0  0  0  0  0  0  0  0
   12.7781  -15.9882   21.5322 C   0  0  1  0  0  0  0  0  0  0  0  0
   13.9892  -15.2234   21.8686 C   0  0  0  0  0  0  0  0  0  0  0  0
   15.0041  -15.2765   20.7808 C   0  0  0  0  0  0  0  0  0  0  0  0
   15.2038  -16.2992   20.0701 O   0  0  0  0  0  0  0  0  0  0  0  0
   11.8776  -15.9054   22.7191 C   0  0  0  0  0  0  0  0  0  0  0  0
   10.7198  -15.4648   22.5258 O   0  0  0  0  0  0  0  0  0  0  0  0
   15.8144  -14.1759   20.4710 O   0  0  0  0  0  0  0  0  0  0  0  0
   12.2670  -16.2850   23.9744 O   0  0  0  0  0  0  0  0  0  0  0  0
  2  1  1  0
  2  3  2  0
  4  2  1  0
  4  5  1  0
  5  6  1  0
  6  7  1  1
  6  8  1  0
  8 10  1  0
  9  8  2  0
 10 11  1  0
 11 15  1  0
 11 12  1  6
 12 13  1  0
 13 17  1  0
 14 13  2  0
 15 18  1  0
 16 15  2  0
 18 19  1  0
 19 20  1  1
 20 21  1  0
 21 25  1  0
 22 21  2  0
 23 19  1  0
 23 26  1  0
 24 23  2  0
M  END
$$$$
