QDD.pdb
     RDKit          3D

 26 25  0  0  1  0  0  0  0  0999 V2000
    8.5033  -12.0247   19.3389 N   0  0  0  0  0  0  0  0  0  0  0  0
    8.2905  -13.1884   20.1647 C   0  0  0  0  0  0  0  0  0  0  0  0
    8.2087  -12.9899   21.3922 O   0  0  0  0  0  0  0  0  0  0  0  0
    8.1872  -14.4741   19.4625 C   0  0  0  0  0  0  0  0  0  0  0  0
    8.3048  -14.4350   18.0027 C   0  0  0  0  0  0  0  0  0  0  0  0
    8.3589  -15.6884   17.2152 C   0  0  2  0  0  0  0  0  0  0  0  0
    6.9588  -16.2478   17.2155 N   0  0  0  0  0  0  0  0  0  0  0  0
    9.2190  -16.7360   17.7685 C   0  0  0  0  0  0  0  0  0  0  0  0
    8.8246  -17.6064   18.6118 O   0  0  0  0  0  0  0  0  0  0  0  0
   10.6079  -16.8330   17.3707 N   0  0  0  0  0  0  0  0  0  0  0  0
   11.4890  -17.8412   17.8835 C   0  0  1  0  0  0  0  0  0  0  0  0
   12.6290  -18.1473   16.9329 C   0  0  0  0  0  0  0  0  0  0  0  0
   13.4272  -19.3123   17.3121 C   0  0  0  0  0  0  0  0  0  0  0  0
   12.9874  -20.4006   17.7521 O   0  0  0  0  0  0  0  0  0  0  0  0
   12.0121  -17.4744   19.2336 C   0  0  0  0  0  0  0  0  0  0  0  0
   12.5381  -16.3563   19.4339 O   0  0  0  0  0  0  0  0  0  0  0  0
   14.8087  -19.2229   17.1785 O   0  0  0  0  0  0  0  0  0  0  0  0
   11.9632  -18.3286   20.3628 N   0  0  0  0  0  0  0  0  0  0  0  0
   12.5776  -18.0143   21.5816 C   0  0  1  0  0  0  0  0  0  0  0  0
   12.1616  -16.8361   22.3587 C   0  0  0  0  0  0  0  0  0  0  0  0
   13.0785  -16.5672   23.5003 C   0  0  0  0  0  0  0  0  0  0  0  0
   14.1268  -17.2339   23.7177 O   0  0  0  0  0  0  0  0  0  0  0  0
   12.4162  -19.1959   22.4785 C   0  0  0  0  0  0  0  0  0  0  0  0
   11.6827  -20.1261   22.0682 O   0  0  0  0  0  0  0  0  0  0  0  0
   12.8323  -15.5390   24.4202 O   0  0  0  0  0  0  0  0  0  0  0  0
   13.0273  -19.2906   23.6988 O   0  0  0  0  0  0  0  0  0  0  0  0
  2  1  1  0
  2  3  2  0
  4  2  1  0
  4  5  1  0
  5  6  1  0
  6  7  1  1
  6  8  1  0
  8 10  1  0
  9  8  2  0
 10 11  1  0
 11 15  1  0
 11 12  1  6
 12 13  1  0
 13 17  1  0
 14 13  2  0
 15 18  1  0
 16 15  2  0
 18 19  1  0
 19 20  1  1
 20 21  1  0
 21 25  1  0
 22 21  2  0
 23 19  1  0
 23 26  1  0
 24 23  2  0
M  END
$$$$
