QDD.pdb
     RDKit          3D

 26 25  0  0  1  0  0  0  0  0999 V2000
    6.5693  -19.8855   17.8102 N   0  0  0  0  0  0  0  0  0  0  0  0
    6.6040  -18.8866   16.7698 C   0  0  0  0  0  0  0  0  0  0  0  0
    5.6020  -18.8192   16.0321 O   0  0  0  0  0  0  0  0  0  0  0  0
    7.8145  -18.0578   16.7040 C   0  0  0  0  0  0  0  0  0  0  0  0
    8.7924  -18.2394   17.7797 C   0  0  0  0  0  0  0  0  0  0  0  0
    9.5345  -17.0814   18.3297 C   0  0  2  0  0  0  0  0  0  0  0  0
   10.2769  -16.4665   17.1704 N   0  0  0  0  0  0  0  0  0  0  0  0
   10.5457  -17.4096   19.3362 C   0  0  0  0  0  0  0  0  0  0  0  0
   10.2726  -17.8666   20.4941 O   0  0  0  0  0  0  0  0  0  0  0  0
   11.9531  -17.2208   19.0529 N   0  0  0  0  0  0  0  0  0  0  0  0
   12.9846  -17.6236   19.9637 C   0  0  1  0  0  0  0  0  0  0  0  0
   14.3393  -17.7242   19.2915 C   0  0  0  0  0  0  0  0  0  0  0  0
   14.4871  -18.8854   18.4152 C   0  0  0  0  0  0  0  0  0  0  0  0
   13.8148  -19.9422   18.4654 O   0  0  0  0  0  0  0  0  0  0  0  0
   13.0503  -16.7183   21.1498 C   0  0  0  0  0  0  0  0  0  0  0  0
   13.5236  -15.5639   21.0482 O   0  0  0  0  0  0  0  0  0  0  0  0
   15.4622  -18.8302   17.4250 O   0  0  0  0  0  0  0  0  0  0  0  0
   12.6023  -17.0742   22.4459 N   0  0  0  0  0  0  0  0  0  0  0  0
   12.6717  -16.2033   23.5406 C   0  0  1  0  0  0  0  0  0  0  0  0
   11.4500  -15.6779   24.1702 C   0  0  0  0  0  0  0  0  0  0  0  0
   10.4707  -16.7566   24.4765 C   0  0  0  0  0  0  0  0  0  0  0  0
   10.7117  -17.9815   24.2963 O   0  0  0  0  0  0  0  0  0  0  0  0
   13.4398  -16.8990   24.6142 C   0  0  0  0  0  0  0  0  0  0  0  0
   13.7292  -16.2283   25.6331 O   0  0  0  0  0  0  0  0  0  0  0  0
    9.1990  -16.4758   24.9940 O   0  0  0  0  0  0  0  0  0  0  0  0
   13.8257  -18.2082   24.5215 O   0  0  0  0  0  0  0  0  0  0  0  0
  2  1  1  0
  2  3  2  0
  4  2  1  0
  4  5  1  0
  5  6  1  0
  6  7  1  6
  6  8  1  0
  8 10  1  0
  9  8  2  0
 10 11  1  0
 11 15  1  0
 11 12  1  6
 12 13  1  0
 13 17  1  0
 14 13  2  0
 15 18  1  0
 16 15  2  0
 18 19  1  0
 19 20  1  1
 20 21  1  0
 21 25  1  0
 22 21  2  0
 23 19  1  0
 23 26  1  0
 24 23  2  0
M  END
$$$$
