QDD.pdb
     RDKit          3D

 26 25  0  0  1  0  0  0  0  0999 V2000
    8.0122  -12.0924   18.6306 N   0  0  0  0  0  0  0  0  0  0  0  0
    7.3384  -13.1082   17.8589 C   0  0  0  0  0  0  0  0  0  0  0  0
    7.4098  -13.0016   16.6194 O   0  0  0  0  0  0  0  0  0  0  0  0
    6.6510  -14.1567   18.6234 C   0  0  0  0  0  0  0  0  0  0  0  0
    7.4508  -14.8716   19.6213 C   0  0  0  0  0  0  0  0  0  0  0  0
    8.9213  -14.9766   19.4767 C   0  0  2  0  0  0  0  0  0  0  0  0
    9.1713  -15.5284   18.0960 N   0  0  0  0  0  0  0  0  0  0  0  0
    9.5756  -15.8955   20.4099 C   0  0  0  0  0  0  0  0  0  0  0  0
    9.3233  -15.9382   21.6583 O   0  0  0  0  0  0  0  0  0  0  0  0
   10.5775  -16.8297   19.9406 N   0  0  0  0  0  0  0  0  0  0  0  0
   11.2150  -17.7776   20.8071 C   0  0  1  0  0  0  0  0  0  0  0  0
   11.5000  -19.0934   20.1110 C   0  0  0  0  0  0  0  0  0  0  0  0
   10.3151  -19.7431   19.5523 C   0  0  0  0  0  0  0  0  0  0  0  0
    9.2789  -20.0624   20.1814 O   0  0  0  0  0  0  0  0  0  0  0  0
   12.4629  -17.2170   21.4065 C   0  0  0  0  0  0  0  0  0  0  0  0
   13.3403  -16.6926   20.6837 O   0  0  0  0  0  0  0  0  0  0  0  0
   10.3202  -20.0434   18.1943 O   0  0  0  0  0  0  0  0  0  0  0  0
   12.7536  -17.2313   22.7930 N   0  0  0  0  0  0  0  0  0  0  0  0
   13.9735  -16.7877   23.3192 C   0  0  1  0  0  0  0  0  0  0  0  0
   14.1745  -16.6700   24.7720 C   0  0  0  0  0  0  0  0  0  0  0  0
   15.5433  -16.1922   25.1101 C   0  0  0  0  0  0  0  0  0  0  0  0
   15.9463  -15.0213   24.8706 O   0  0  0  0  0  0  0  0  0  0  0  0
   15.0356  -17.7063   22.8144 C   0  0  0  0  0  0  0  0  0  0  0  0
   16.1031  -17.1801   22.4202 O   0  0  0  0  0  0  0  0  0  0  0  0
   16.4862  -17.0256   25.7269 O   0  0  0  0  0  0  0  0  0  0  0  0
   14.8827  -19.0650   22.7707 O   0  0  0  0  0  0  0  0  0  0  0  0
  2  1  1  0
  2  3  2  0
  4  2  1  0
  4  5  1  0
  5  6  1  0
  6  7  1  6
  6  8  1  0
  8 10  1  0
  9  8  2  0
 10 11  1  0
 11 15  1  0
 11 12  1  6
 12 13  1  0
 13 17  1  0
 14 13  2  0
 15 18  1  0
 16 15  2  0
 18 19  1  0
 19 20  1  1
 20 21  1  0
 21 25  1  0
 22 21  2  0
 23 19  1  0
 23 26  1  0
 24 23  2  0
M  END
$$$$
