QDD.pdb
     RDKit          3D

 26 25  0  0  1  0  0  0  0  0999 V2000
    8.9262  -11.8383   18.7034 N   0  0  0  0  0  0  0  0  0  0  0  0
    8.0249  -12.8372   18.1829 C   0  0  0  0  0  0  0  0  0  0  0  0
    7.7973  -12.7948   16.9585 O   0  0  0  0  0  0  0  0  0  0  0  0
    7.4841  -13.7953   19.1556 C   0  0  0  0  0  0  0  0  0  0  0  0
    7.9338  -13.6464   20.5420 C   0  0  0  0  0  0  0  0  0  0  0  0
    7.4539  -14.5705   21.5955 C   0  0  2  0  0  0  0  0  0  0  0  0
    8.2160  -14.2159   22.8472 N   0  0  0  0  0  0  0  0  0  0  0  0
    7.7134  -15.9895   21.3458 C   0  0  0  0  0  0  0  0  0  0  0  0
    6.9307  -16.7490   20.6866 O   0  0  0  0  0  0  0  0  0  0  0  0
    8.9134  -16.6183   21.8571 N   0  0  0  0  0  0  0  0  0  0  0  0
    9.2499  -17.9832   21.5747 C   0  0  1  0  0  0  0  0  0  0  0  0
    9.3151  -18.2643   20.0868 C   0  0  0  0  0  0  0  0  0  0  0  0
    9.5438  -19.6695   19.7533 C   0  0  0  0  0  0  0  0  0  0  0  0
    9.0658  -20.6609   20.3533 O   0  0  0  0  0  0  0  0  0  0  0  0
   10.5251  -18.3810   22.2430 C   0  0  0  0  0  0  0  0  0  0  0  0
   11.0261  -19.5109   22.0442 O   0  0  0  0  0  0  0  0  0  0  0  0
   10.3682  -19.9525   18.6695 O   0  0  0  0  0  0  0  0  0  0  0  0
   11.2507  -17.5472   23.1292 N   0  0  0  0  0  0  0  0  0  0  0  0
   12.6491  -17.4683   23.1260 C   0  0  1  0  0  0  0  0  0  0  0  0
   13.3447  -16.3657   22.4439 C   0  0  0  0  0  0  0  0  0  0  0  0
   14.8213  -16.4449   22.6159 C   0  0  0  0  0  0  0  0  0  0  0  0
   15.4516  -17.5347   22.6925 O   0  0  0  0  0  0  0  0  0  0  0  0
   13.0959  -17.4390   24.5494 C   0  0  0  0  0  0  0  0  0  0  0  0
   14.3281  -17.3379   24.7574 O   0  0  0  0  0  0  0  0  0  0  0  0
   15.6183  -15.2955   22.7037 O   0  0  0  0  0  0  0  0  0  0  0  0
   12.2259  -17.5169   25.6023 O   0  0  0  0  0  0  0  0  0  0  0  0
  2  1  1  0
  2  3  2  0
  4  2  1  0
  4  5  1  0
  5  6  1  0
  6  7  1  1
  6  8  1  0
  8 10  1  0
  9  8  2  0
 10 11  1  0
 11 15  1  0
 11 12  1  6
 12 13  1  0
 13 17  1  0
 14 13  2  0
 15 18  1  0
 16 15  2  0
 18 19  1  0
 19 20  1  6
 20 21  1  0
 21 25  1  0
 22 21  2  0
 23 19  1  0
 23 26  1  0
 24 23  2  0
M  END
$$$$
