KGM.pdb
     RDKit          3D

 22 21  0  0  1  0  0  0  0  0999 V2000
    6.9894  -15.3647   21.3618 N   0  0  0  0  0  0  0  0  0  0  0  0
    8.1846  -15.5780   20.6037 C   0  0  1  0  0  0  0  0  0  0  0  0
    8.6072  -14.3998   19.7795 C   0  0  0  0  0  0  0  0  0  0  0  0
    7.7171  -14.2150   18.5596 C   0  0  0  0  0  0  0  0  0  0  0  0
    8.5190  -13.8067   17.3523 C   0  0  0  0  0  0  0  0  0  0  0  0
    7.6384  -13.5074   16.1572 C   0  0  0  0  0  0  0  0  0  0  0  0
    8.3613  -12.8700   15.0936 N   0  0  0  0  0  0  0  0  0  0  0  0
    9.2872  -16.0461   21.4654 C   0  0  0  0  0  0  0  0  0  0  0  0
   10.3751  -16.3526   20.9231 O   0  0  0  0  0  0  0  0  0  0  0  0
    9.1013  -16.1405   22.8710 N   0  0  0  0  0  0  0  0  0  0  0  0
   10.1894  -16.5796   23.6649 C   0  0  0  0  0  0  0  0  0  0  0  0
   10.4570  -15.8191   24.8970 C   0  0  0  0  0  0  0  0  0  0  0  0
   11.5059  -15.0820   24.9937 O   0  0  0  0  0  0  0  0  0  0  0  0
    6.1108  -12.5185   27.2517 C   0  0  0  0  0  0  0  0  0  0  0  0
    7.6086  -11.7294   26.6023 S   0  0  0  0  0  0  0  0  0  0  0  0
    8.9394  -12.9366   26.3948 C   0  0  0  0  0  0  0  0  0  0  0  0
    8.9714  -13.9522   27.5161 C   0  0  0  0  0  0  0  0  0  0  0  0
    9.9881  -15.0392   27.2379 C   0  0  2  0  0  0  0  0  0  0  0  0
    9.6450  -15.8036   26.0585 N   0  0  0  0  0  0  0  0  0  0  0  0
   10.1989  -15.8894   28.4221 C   0  0  0  0  0  0  0  0  0  0  0  0
   10.7740  -15.3944   29.5708 O   0  0  0  0  0  0  0  0  0  0  0  0
    9.8503  -17.0845   28.3877 O   0  0  0  0  0  0  0  0  0  0  0  0
  2  1  1  1
  3  2  1  0
  4  3  1  0
  5  4  1  0
  6  5  1  0
  7  6  1  0
  8  2  1  0
  8 10  1  0
  9  8  2  0
 11 10  1  0
 11 12  1  0
 12 13  2  0
 15 14  1  0
 16 15  1  0
 17 16  1  0
 18 17  1  1
 19 12  1  0
 19 18  1  0
 20 21  1  0
 20 18  1  0
 22 20  2  0
M  END
$$$$
