KGM.pdb
     RDKit          3D

 22 21  0  0  1  0  0  0  0  0999 V2000
   10.3941  -14.3178   18.7053 N   0  0  0  0  0  0  0  0  0  0  0  0
    9.3675  -13.5953   19.3929 C   0  0  1  0  0  0  0  0  0  0  0  0
    8.2347  -13.1543   18.5163 C   0  0  0  0  0  0  0  0  0  0  0  0
    7.9235  -14.1796   17.4363 C   0  0  0  0  0  0  0  0  0  0  0  0
    7.4436  -13.5166   16.1724 C   0  0  0  0  0  0  0  0  0  0  0  0
    6.9368  -14.5207   15.1584 C   0  0  0  0  0  0  0  0  0  0  0  0
    6.4743  -13.8925   13.9537 N   0  0  0  0  0  0  0  0  0  0  0  0
    8.8729  -14.3507   20.5599 C   0  0  0  0  0  0  0  0  0  0  0  0
    8.1051  -13.7684   21.3619 O   0  0  0  0  0  0  0  0  0  0  0  0
    9.2677  -15.7020   20.7526 N   0  0  0  0  0  0  0  0  0  0  0  0
    8.6620  -16.4362   21.8020 C   0  0  0  0  0  0  0  0  0  0  0  0
    9.0079  -16.0329   23.1752 C   0  0  0  0  0  0  0  0  0  0  0  0
   10.2264  -16.0827   23.5822 O   0  0  0  0  0  0  0  0  0  0  0  0
    6.0691  -10.4757   26.0440 C   0  0  0  0  0  0  0  0  0  0  0  0
    6.0488  -12.2060   26.5855 S   0  0  0  0  0  0  0  0  0  0  0  0
    7.3702  -13.1500   25.7894 C   0  0  0  0  0  0  0  0  0  0  0  0
    7.4468  -14.5720   26.3013 C   0  0  0  0  0  0  0  0  0  0  0  0
    8.4846  -15.3699   25.5405 C   0  0  2  0  0  0  0  0  0  0  0  0
    8.1004  -15.5685   24.1598 N   0  0  0  0  0  0  0  0  0  0  0  0
    8.7967  -16.6343   26.2287 C   0  0  0  0  0  0  0  0  0  0  0  0
    8.5587  -17.8542   25.6365 O   0  0  0  0  0  0  0  0  0  0  0  0
    9.2874  -16.6037   27.3728 O   0  0  0  0  0  0  0  0  0  0  0  0
  2  1  1  6
  3  2  1  0
  4  3  1  0
  5  4  1  0
  6  5  1  0
  7  6  1  0
  8  2  1  0
  8 10  1  0
  9  8  2  0
 11 10  1  0
 11 12  1  0
 12 13  2  0
 15 14  1  0
 16 15  1  0
 17 16  1  0
 18 17  1  1
 19 12  1  0
 19 18  1  0
 20 21  1  0
 20 18  1  0
 22 20  2  0
M  END
$$$$
