KGM.pdb
     RDKit          3D

 22 21  0  0  1  0  0  0  0  0999 V2000
    6.3533  -19.8505   20.8653 N   0  0  0  0  0  0  0  0  0  0  0  0
    5.4218  -18.8880   21.3700 C   0  0  1  0  0  0  0  0  0  0  0  0
    4.9174  -19.1864   22.7494 C   0  0  0  0  0  0  0  0  0  0  0  0
    5.9597  -19.9111   23.5878 C   0  0  0  0  0  0  0  0  0  0  0  0
    5.4071  -21.1861   24.1678 C   0  0  0  0  0  0  0  0  0  0  0  0
    6.4608  -21.9769   24.9144 C   0  0  0  0  0  0  0  0  0  0  0  0
    5.9659  -23.2416   25.3788 N   0  0  0  0  0  0  0  0  0  0  0  0
    5.9705  -17.5206   21.2893 C   0  0  0  0  0  0  0  0  0  0  0  0
    5.2529  -16.5693   21.6788 O   0  0  0  0  0  0  0  0  0  0  0  0
    7.2800  -17.3079   20.7804 N   0  0  0  0  0  0  0  0  0  0  0  0
    7.8045  -15.9920   20.8034 C   0  0  0  0  0  0  0  0  0  0  0  0
    8.2017  -15.4625   22.1186 C   0  0  0  0  0  0  0  0  0  0  0  0
    8.9952  -14.4545   22.2034 O   0  0  0  0  0  0  0  0  0  0  0  0
    6.9286  -10.7221   26.8683 C   0  0  0  0  0  0  0  0  0  0  0  0
    6.4432  -12.4522   26.6256 S   0  0  0  0  0  0  0  0  0  0  0  0
    7.6575  -13.3302   25.6128 C   0  0  0  0  0  0  0  0  0  0  0  0
    7.3425  -14.8053   25.4910 C   0  0  0  0  0  0  0  0  0  0  0  0
    8.3641  -15.5110   24.6245 C   0  0  2  0  0  0  0  0  0  0  0  0
    7.7868  -15.9640   23.3777 N   0  0  0  0  0  0  0  0  0  0  0  0
    9.0353  -16.5938   25.3639 C   0  0  0  0  0  0  0  0  0  0  0  0
    9.8695  -16.3302   26.4270 O   0  0  0  0  0  0  0  0  0  0  0  0
    8.8467  -17.7765   25.0229 O   0  0  0  0  0  0  0  0  0  0  0  0
  2  1  1  1
  3  2  1  0
  4  3  1  0
  5  4  1  0
  6  5  1  0
  7  6  1  0
  8  2  1  0
  8 10  1  0
  9  8  2  0
 11 10  1  0
 11 12  1  0
 12 13  2  0
 15 14  1  0
 16 15  1  0
 17 16  1  0
 18 17  1  1
 19 12  1  0
 19 18  1  0
 20 21  1  0
 20 18  1  0
 22 20  2  0
M  END
$$$$
