KGM.pdb
     RDKit          3D

 22 21  0  0  1  0  0  0  0  0999 V2000
    6.1821  -20.4616   23.6308 N   0  0  0  0  0  0  0  0  0  0  0  0
    5.9963  -20.2124   22.2336 C   0  0  1  0  0  0  0  0  0  0  0  0
    4.5614  -20.1030   21.8149 C   0  0  0  0  0  0  0  0  0  0  0  0
    3.6802  -21.1006   22.5515 C   0  0  0  0  0  0  0  0  0  0  0  0
    3.8820  -22.4993   22.0316 C   0  0  0  0  0  0  0  0  0  0  0  0
    3.0522  -23.5147   22.7889 C   0  0  0  0  0  0  0  0  0  0  0  0
    3.3310  -24.8615   22.3784 N   0  0  0  0  0  0  0  0  0  0  0  0
    6.7691  -19.0348   21.7938 C   0  0  0  0  0  0  0  0  0  0  0  0
    6.9913  -18.8948   20.5680 O   0  0  0  0  0  0  0  0  0  0  0  0
    7.2407  -18.0953   22.7498 N   0  0  0  0  0  0  0  0  0  0  0  0
    8.0026  -16.9930   22.2897 C   0  0  0  0  0  0  0  0  0  0  0  0
    8.5558  -16.0971   23.3189 C   0  0  0  0  0  0  0  0  0  0  0  0
    9.3636  -15.1512   22.9945 O   0  0  0  0  0  0  0  0  0  0  0  0
    6.5231  -10.8966   25.5807 C   0  0  0  0  0  0  0  0  0  0  0  0
    7.1013  -12.2510   26.6384 S   0  0  0  0  0  0  0  0  0  0  0  0
    8.0765  -13.4431   25.6902 C   0  0  0  0  0  0  0  0  0  0  0  0
    8.5944  -14.5739   26.5521 C   0  0  0  0  0  0  0  0  0  0  0  0
    9.2121  -15.6661   25.7047 C   0  0  2  0  0  0  0  0  0  0  0  0
    8.2857  -16.1593   24.7089 N   0  0  0  0  0  0  0  0  0  0  0  0
    9.7687  -16.7422   26.5424 C   0  0  0  0  0  0  0  0  0  0  0  0
    9.3470  -18.0464   26.4132 O   0  0  0  0  0  0  0  0  0  0  0  0
   10.6412  -16.4705   27.3884 O   0  0  0  0  0  0  0  0  0  0  0  0
  2  1  1  1
  3  2  1  0
  4  3  1  0
  5  4  1  0
  6  5  1  0
  7  6  1  0
  8  2  1  0
  8 10  1  0
  9  8  2  0
 11 10  1  0
 11 12  1  0
 12 13  2  0
 15 14  1  0
 16 15  1  0
 17 16  1  0
 18 17  1  1
 19 12  1  0
 19 18  1  0
 20 21  1  0
 20 18  1  0
 22 20  2  0
M  END
$$$$
