KGM.pdb
     RDKit          3D

 22 21  0  0  1  0  0  0  0  0999 V2000
    7.1925  -19.1959   21.1360 N   0  0  0  0  0  0  0  0  0  0  0  0
    8.5450  -19.6625   21.0977 C   0  0  1  0  0  0  0  0  0  0  0  0
    8.8670  -20.5149   19.9078 C   0  0  0  0  0  0  0  0  0  0  0  0
    8.5406  -21.9797   20.1569 C   0  0  0  0  0  0  0  0  0  0  0  0
    9.5752  -22.8846   19.5418 C   0  0  0  0  0  0  0  0  0  0  0  0
    9.2125  -24.3476   19.6872 C   0  0  0  0  0  0  0  0  0  0  0  0
   10.0963  -25.2041   18.9488 N   0  0  0  0  0  0  0  0  0  0  0  0
    9.4995  -18.5443   21.2239 C   0  0  0  0  0  0  0  0  0  0  0  0
   10.7207  -18.8135   21.3126 O   0  0  0  0  0  0  0  0  0  0  0  0
    9.0275  -17.2042   21.2425 N   0  0  0  0  0  0  0  0  0  0  0  0
    9.9686  -16.1627   21.4345 C   0  0  0  0  0  0  0  0  0  0  0  0
   10.0633  -15.6004   22.7920 C   0  0  0  0  0  0  0  0  0  0  0  0
   11.1811  -15.1419   23.2315 O   0  0  0  0  0  0  0  0  0  0  0  0
    5.6787  -11.5360   27.2238 C   0  0  0  0  0  0  0  0  0  0  0  0
    7.1313  -11.2909   26.1667 S   0  0  0  0  0  0  0  0  0  0  0  0
    8.2075  -12.7442   26.1966 C   0  0  0  0  0  0  0  0  0  0  0  0
    8.1121  -13.5539   24.9218 C   0  0  0  0  0  0  0  0  0  0  0  0
    9.0994  -14.7017   24.9301 C   0  0  2  0  0  0  0  0  0  0  0  0
    9.0029  -15.4994   23.7269 N   0  0  0  0  0  0  0  0  0  0  0  0
    8.9709  -15.5084   26.1558 C   0  0  0  0  0  0  0  0  0  0  0  0
    9.5362  -15.1063   27.3450 O   0  0  0  0  0  0  0  0  0  0  0  0
    8.3369  -16.5797   26.1201 O   0  0  0  0  0  0  0  0  0  0  0  0
  2  1  1  6
  3  2  1  0
  4  3  1  0
  5  4  1  0
  6  5  1  0
  7  6  1  0
  8  2  1  0
  8 10  1  0
  9  8  2  0
 11 10  1  0
 11 12  1  0
 12 13  2  0
 15 14  1  0
 16 15  1  0
 17 16  1  0
 18 17  1  6
 19 12  1  0
 19 18  1  0
 20 21  1  0
 20 18  1  0
 22 20  2  0
M  END
$$$$
