KGM.pdb
     RDKit          3D

 22 21  0  0  1  0  0  0  0  0999 V2000
    6.5964  -17.5742   22.1034 N   0  0  0  0  0  0  0  0  0  0  0  0
    7.5530  -16.5245   22.2810 C   0  0  1  0  0  0  0  0  0  0  0  0
    6.9573  -15.1496   22.3113 C   0  0  0  0  0  0  0  0  0  0  0  0
    6.8735  -14.5392   20.9203 C   0  0  0  0  0  0  0  0  0  0  0  0
    7.7817  -13.3451   20.7897 C   0  0  0  0  0  0  0  0  0  0  0  0
    7.7371  -12.7437   19.4007 C   0  0  0  0  0  0  0  0  0  0  0  0
    8.5739  -11.5836   19.2820 N   0  0  0  0  0  0  0  0  0  0  0  0
    8.3951  -16.7646   23.4686 C   0  0  0  0  0  0  0  0  0  0  0  0
    7.8723  -16.6420   24.6015 O   0  0  0  0  0  0  0  0  0  0  0  0
    9.7608  -17.1246   23.3120 N   0  0  0  0  0  0  0  0  0  0  0  0
   10.7466  -16.1291   23.5224 C   0  0  0  0  0  0  0  0  0  0  0  0
   10.9324  -15.6664   24.9078 C   0  0  0  0  0  0  0  0  0  0  0  0
   11.9880  -15.0126   25.2411 O   0  0  0  0  0  0  0  0  0  0  0  0
    7.4568  -10.8641   25.7699 C   0  0  0  0  0  0  0  0  0  0  0  0
    7.5368  -12.2417   26.9461 S   0  0  0  0  0  0  0  0  0  0  0  0
    9.0242  -13.2357   26.6801 C   0  0  0  0  0  0  0  0  0  0  0  0
    9.1575  -14.3502   27.6951 C   0  0  0  0  0  0  0  0  0  0  0  0
   10.2523  -15.3186   27.3005 C   0  0  2  0  0  0  0  0  0  0  0  0
   10.0296  -15.8695   25.9813 N   0  0  0  0  0  0  0  0  0  0  0  0
   10.4390  -16.3605   28.3248 C   0  0  0  0  0  0  0  0  0  0  0  0
   10.8266  -16.0472   29.6082 O   0  0  0  0  0  0  0  0  0  0  0  0
   10.2428  -17.5537   28.0274 O   0  0  0  0  0  0  0  0  0  0  0  0
  2  1  1  1
  3  2  1  0
  4  3  1  0
  5  4  1  0
  6  5  1  0
  7  6  1  0
  8  2  1  0
  8 10  1  0
  9  8  2  0
 11 10  1  0
 11 12  1  0
 12 13  2  0
 15 14  1  0
 16 15  1  0
 17 16  1  0
 18 17  1  1
 19 12  1  0
 19 18  1  0
 20 21  1  0
 20 18  1  0
 22 20  2  0
M  END
$$$$
