KGM.pdb
     RDKit          3D

 22 21  0  0  1  0  0  0  0  0999 V2000
    7.8778  -17.2538   20.5371 N   0  0  0  0  0  0  0  0  0  0  0  0
    9.1890  -16.7089   20.3564 C   0  0  1  0  0  0  0  0  0  0  0  0
    9.2030  -15.2872   19.8823 C   0  0  0  0  0  0  0  0  0  0  0  0
    8.5000  -15.1315   18.5421 C   0  0  0  0  0  0  0  0  0  0  0  0
    7.9052  -13.7564   18.3912 C   0  0  0  0  0  0  0  0  0  0  0  0
    7.2319  -13.5703   17.0477 C   0  0  0  0  0  0  0  0  0  0  0  0
    6.5862  -12.2935   16.9338 N   0  0  0  0  0  0  0  0  0  0  0  0
   10.0069  -16.8708   21.5738 C   0  0  0  0  0  0  0  0  0  0  0  0
   11.2008  -16.4895   21.5417 O   0  0  0  0  0  0  0  0  0  0  0  0
    9.4385  -17.4461   22.7421 N   0  0  0  0  0  0  0  0  0  0  0  0
   10.2002  -17.4331   23.9366 C   0  0  0  0  0  0  0  0  0  0  0  0
    9.4824  -17.0828   25.1735 C   0  0  0  0  0  0  0  0  0  0  0  0
    9.2704  -17.9709   26.0785 O   0  0  0  0  0  0  0  0  0  0  0  0
    6.5121  -11.1708   27.1279 C   0  0  0  0  0  0  0  0  0  0  0  0
    6.0295  -12.8182   26.5440 S   0  0  0  0  0  0  0  0  0  0  0  0
    7.4592  -13.7247   25.9070 C   0  0  0  0  0  0  0  0  0  0  0  0
    8.5571  -13.8613   26.9394 C   0  0  0  0  0  0  0  0  0  0  0  0
    9.4689  -15.0255   26.6143 C   0  0  2  0  0  0  0  0  0  0  0  0
    8.9670  -15.8042   25.5031 N   0  0  0  0  0  0  0  0  0  0  0  0
    9.7329  -15.8472   27.8079 C   0  0  0  0  0  0  0  0  0  0  0  0
    9.6951  -17.2226   27.7581 O   0  0  0  0  0  0  0  0  0  0  0  0
    9.9967  -15.2890   28.8894 O   0  0  0  0  0  0  0  0  0  0  0  0
  2  1  1  1
  3  2  1  0
  4  3  1  0
  5  4  1  0
  6  5  1  0
  7  6  1  0
  8  2  1  0
  8 10  1  0
  9  8  2  0
 11 10  1  0
 11 12  1  0
 12 13  2  0
 15 14  1  0
 16 15  1  0
 17 16  1  0
 18 17  1  1
 19 12  1  0
 19 18  1  0
 20 21  1  0
 20 18  1  0
 22 20  2  0
M  END
$$$$
