KGM.pdb
     RDKit          3D

 22 21  0  0  1  0  0  0  0  0999 V2000
    7.9926  -16.9496   19.2177 N   0  0  0  0  0  0  0  0  0  0  0  0
    9.1758  -16.1488   19.1319 C   0  0  1  0  0  0  0  0  0  0  0  0
    8.9175  -14.7005   18.8461 C   0  0  0  0  0  0  0  0  0  0  0  0
    7.8895  -14.5173   17.7396 C   0  0  0  0  0  0  0  0  0  0  0  0
    8.4178  -13.6335   16.6409 C   0  0  0  0  0  0  0  0  0  0  0  0
    7.3901  -13.3986   15.5538 C   0  0  0  0  0  0  0  0  0  0  0  0
    7.8733  -12.5189   14.5279 N   0  0  0  0  0  0  0  0  0  0  0  0
   10.0187  -16.3112   20.3321 C   0  0  0  0  0  0  0  0  0  0  0  0
   11.0318  -15.5820   20.4489 O   0  0  0  0  0  0  0  0  0  0  0  0
    9.6747  -17.2743   21.3186 N   0  0  0  0  0  0  0  0  0  0  0  0
   10.5535  -17.4571   22.4147 C   0  0  0  0  0  0  0  0  0  0  0  0
   10.2492  -16.6973   23.6387 C   0  0  0  0  0  0  0  0  0  0  0  0
   10.9505  -16.8666   24.7028 O   0  0  0  0  0  0  0  0  0  0  0  0
    5.9134  -11.3731   27.7160 C   0  0  0  0  0  0  0  0  0  0  0  0
    6.2971  -12.0877   26.0943 S   0  0  0  0  0  0  0  0  0  0  0  0
    7.5290  -13.4038   26.2409 C   0  0  0  0  0  0  0  0  0  0  0  0
    7.8823  -14.0096   24.8999 C   0  0  0  0  0  0  0  0  0  0  0  0
    8.9363  -15.0863   25.0491 C   0  0  2  0  0  0  0  0  0  0  0  0
    9.2114  -15.7440   23.7902 N   0  0  0  0  0  0  0  0  0  0  0  0
    8.5828  -16.0357   26.1183 C   0  0  0  0  0  0  0  0  0  0  0  0
    7.7152  -17.0812   25.8951 O   0  0  0  0  0  0  0  0  0  0  0  0
    9.0779  -15.8932   27.2521 O   0  0  0  0  0  0  0  0  0  0  0  0
  2  1  1  1
  3  2  1  0
  4  3  1  0
  5  4  1  0
  6  5  1  0
  7  6  1  0
  8  2  1  0
  8 10  1  0
  9  8  2  0
 11 10  1  0
 11 12  1  0
 12 13  2  0
 15 14  1  0
 16 15  1  0
 17 16  1  0
 18 17  1  6
 19 12  1  0
 19 18  1  0
 20 21  1  0
 20 18  1  0
 22 20  2  0
M  END
$$$$
