KGM.pdb
     RDKit          3D

 22 21  0  0  1  0  0  0  0  0999 V2000
    9.6703  -18.2939   20.4384 N   0  0  0  0  0  0  0  0  0  0  0  0
    8.7279  -17.3397   19.9385 C   0  0  1  0  0  0  0  0  0  0  0  0
    7.9088  -17.8325   18.7842 C   0  0  0  0  0  0  0  0  0  0  0  0
    8.1373  -19.3132   18.5204 C   0  0  0  0  0  0  0  0  0  0  0  0
    7.4122  -19.7679   17.2814 C   0  0  0  0  0  0  0  0  0  0  0  0
    7.6421  -21.2365   16.9925 C   0  0  0  0  0  0  0  0  0  0  0  0
    7.0664  -21.6425   15.7420 N   0  0  0  0  0  0  0  0  0  0  0  0
    7.8661  -16.8236   21.0193 C   0  0  0  0  0  0  0  0  0  0  0  0
    7.4671  -17.6271   21.8951 O   0  0  0  0  0  0  0  0  0  0  0  0
    7.5087  -15.4487   21.0496 N   0  0  0  0  0  0  0  0  0  0  0  0
    6.7394  -14.9781   22.1423 C   0  0  0  0  0  0  0  0  0  0  0  0
    7.3888  -14.9967   23.4636 C   0  0  0  0  0  0  0  0  0  0  0  0
    6.7494  -15.4117   24.4989 O   0  0  0  0  0  0  0  0  0  0  0  0
    5.5681  -11.3981   26.8125 C   0  0  0  0  0  0  0  0  0  0  0  0
    7.1519  -12.1984   27.1854 S   0  0  0  0  0  0  0  0  0  0  0  0
    7.7890  -13.0796   25.7402 C   0  0  0  0  0  0  0  0  0  0  0  0
    9.0935  -13.7892   26.0312 C   0  0  0  0  0  0  0  0  0  0  0  0
    9.3675  -14.8683   25.0051 C   0  0  2  0  0  0  0  0  0  0  0  0
    8.7158  -14.5860   23.7446 N   0  0  0  0  0  0  0  0  0  0  0  0
    9.0309  -16.2028   25.5300 C   0  0  0  0  0  0  0  0  0  0  0  0
    8.8469  -17.2804   24.6931 O   0  0  0  0  0  0  0  0  0  0  0  0
    8.9090  -16.3645   26.7588 O   0  0  0  0  0  0  0  0  0  0  0  0
  2  1  1  1
  3  2  1  0
  4  3  1  0
  5  4  1  0
  6  5  1  0
  7  6  1  0
  8  2  1  0
  8 10  1  0
  9  8  2  0
 11 10  1  0
 11 12  1  0
 12 13  2  0
 15 14  1  0
 16 15  1  0
 17 16  1  0
 18 17  1  1
 19 12  1  0
 19 18  1  0
 20 21  1  0
 20 18  1  0
 22 20  2  0
M  END
$$$$
