KGM.pdb
     RDKit          3D

 22 21  0  0  1  0  0  0  0  0999 V2000
    6.1963  -18.8809   20.8533 N   0  0  0  0  0  0  0  0  0  0  0  0
    7.2360  -18.7438   19.8791 C   0  0  1  0  0  0  0  0  0  0  0  0
    6.8098  -19.0604   18.4776 C   0  0  0  0  0  0  0  0  0  0  0  0
    5.8046  -20.2016   18.4368 C   0  0  0  0  0  0  0  0  0  0  0  0
    5.3221  -20.4576   17.0335 C   0  0  0  0  0  0  0  0  0  0  0  0
    4.1844  -21.4563   16.9947 C   0  0  0  0  0  0  0  0  0  0  0  0
    3.7205  -21.7023   15.6589 N   0  0  0  0  0  0  0  0  0  0  0  0
    7.8661  -17.4116   19.9544 C   0  0  0  0  0  0  0  0  0  0  0  0
    8.9999  -17.2615   19.4411 O   0  0  0  0  0  0  0  0  0  0  0  0
    7.1895  -16.3394   20.5962 N   0  0  0  0  0  0  0  0  0  0  0  0
    7.8687  -15.1040   20.7364 C   0  0  0  0  0  0  0  0  0  0  0  0
    8.3395  -14.7591   22.0882 C   0  0  0  0  0  0  0  0  0  0  0  0
    9.0405  -13.6994   22.2841 O   0  0  0  0  0  0  0  0  0  0  0  0
    6.2672  -10.7857   27.0296 C   0  0  0  0  0  0  0  0  0  0  0  0
    6.1273  -12.5642   26.7052 S   0  0  0  0  0  0  0  0  0  0  0  0
    7.5693  -13.1732   25.7991 C   0  0  0  0  0  0  0  0  0  0  0  0
    7.4626  -14.6480   25.4772 C   0  0  0  0  0  0  0  0  0  0  0  0
    8.5880  -15.0895   24.5655 C   0  0  2  0  0  0  0  0  0  0  0  0
    8.0957  -15.5032   23.2695 N   0  0  0  0  0  0  0  0  0  0  0  0
    9.4241  -16.1179   25.2081 C   0  0  0  0  0  0  0  0  0  0  0  0
   10.1741  -15.8393   26.3286 O   0  0  0  0  0  0  0  0  0  0  0  0
    9.4563  -17.2674   24.7301 O   0  0  0  0  0  0  0  0  0  0  0  0
  2  1  1  1
  3  2  1  0
  4  3  1  0
  5  4  1  0
  6  5  1  0
  7  6  1  0
  8  2  1  0
  8 10  1  0
  9  8  2  0
 11 10  1  0
 11 12  1  0
 12 13  2  0
 15 14  1  0
 16 15  1  0
 17 16  1  0
 18 17  1  1
 19 12  1  0
 19 18  1  0
 20 21  1  0
 20 18  1  0
 22 20  2  0
M  END
$$$$
