KGM.pdb
     RDKit          3D

 22 21  0  0  1  0  0  0  0  0999 V2000
    6.2060  -19.8281   21.6412 N   0  0  0  0  0  0  0  0  0  0  0  0
    5.6879  -18.8408   20.7437 C   0  0  1  0  0  0  0  0  0  0  0  0
    4.3172  -18.3487   21.0972 C   0  0  0  0  0  0  0  0  0  0  0  0
    3.3587  -19.4969   21.3751 C   0  0  0  0  0  0  0  0  0  0  0  0
    1.9743  -19.1908   20.8678 C   0  0  0  0  0  0  0  0  0  0  0  0
    0.9951  -20.3044   21.1747 C   0  0  0  0  0  0  0  0  0  0  0  0
   -0.2965  -20.0697   20.5943 N   0  0  0  0  0  0  0  0  0  0  0  0
    6.6308  -17.7171   20.5839 C   0  0  0  0  0  0  0  0  0  0  0  0
    6.4364  -16.9080   19.6462 O   0  0  0  0  0  0  0  0  0  0  0  0
    7.7246  -17.5728   21.4794 N   0  0  0  0  0  0  0  0  0  0  0  0
    8.5643  -16.4405   21.3377 C   0  0  0  0  0  0  0  0  0  0  0  0
    8.7853  -15.6272   22.5451 C   0  0  0  0  0  0  0  0  0  0  0  0
    9.5273  -14.5784   22.4983 O   0  0  0  0  0  0  0  0  0  0  0  0
    7.2458  -10.7428   27.8085 C   0  0  0  0  0  0  0  0  0  0  0  0
    6.6331  -11.9091   26.5627 S   0  0  0  0  0  0  0  0  0  0  0  0
    7.5059  -13.4896   26.6697 C   0  0  0  0  0  0  0  0  0  0  0  0
    7.2250  -14.3808   25.4793 C   0  0  0  0  0  0  0  0  0  0  0  0
    8.4974  -15.0205   24.9652 C   0  0  2  0  0  0  0  0  0  0  0  0
    8.2431  -15.8804   23.8299 N   0  0  0  0  0  0  0  0  0  0  0  0
    9.2235  -15.7095   26.0458 C   0  0  0  0  0  0  0  0  0  0  0  0
    9.6399  -17.0153   25.9150 O   0  0  0  0  0  0  0  0  0  0  0  0
    9.4685  -15.1005   27.1041 O   0  0  0  0  0  0  0  0  0  0  0  0
  2  1  1  1
  3  2  1  0
  4  3  1  0
  5  4  1  0
  6  5  1  0
  7  6  1  0
  8  2  1  0
  8 10  1  0
  9  8  2  0
 11 10  1  0
 11 12  1  0
 12 13  2  0
 15 14  1  0
 16 15  1  0
 17 16  1  0
 18 17  1  1
 19 12  1  0
 19 18  1  0
 20 21  1  0
 20 18  1  0
 22 20  2  0
M  END
$$$$
