TVA.pdb
     RDKit          3D

 20 19  0  0  1  0  0  0  0  0999 V2000
   22.9573  -13.5675  -19.6826 C   0  0  0  0  0  0  0  0  0  0  0  0
   22.1323  -12.3822  -19.2054 C   0  0  1  0  0  0  0  0  0  0  0  0
   20.9605  -12.8205  -18.5902 O   0  0  0  0  0  0  0  0  0  0  0  0
   22.9616  -11.5272  -18.2546 C   0  0  2  0  0  0  0  0  0  0  0  0
   23.3391  -12.3670  -17.1335 N   0  0  0  0  0  0  0  0  0  0  0  0
   22.1244  -10.3838  -17.8314 C   0  0  0  0  0  0  0  0  0  0  0  0
   21.7287   -9.5412  -18.6741 O   0  0  0  0  0  0  0  0  0  0  0  0
   18.9691  -10.6477  -15.9208 C   0  0  0  0  0  0  0  0  0  0  0  0
   19.8093   -9.6670  -15.1691 C   0  0  2  0  0  0  0  0  0  0  0  0
   19.0091   -8.6115  -14.4556 C   0  0  0  0  0  0  0  0  0  0  0  0
   20.8640   -9.0485  -16.0906 C   0  0  2  0  0  0  0  0  0  0  0  0
   21.7253  -10.1709  -16.4828 N   0  0  0  0  0  0  0  0  0  0  0  0
   21.6216   -8.0180  -15.3605 C   0  0  0  0  0  0  0  0  0  0  0  0
   22.2414   -8.3356  -14.3155 O   0  0  0  0  0  0  0  0  0  0  0  0
   22.6838   -4.4174  -15.9362 C   0  0  0  0  0  0  0  0  0  0  0  0
   22.5178   -5.6744  -15.1102 C   0  0  2  0  0  0  0  0  0  0  0  0
   21.6922   -6.6612  -15.7789 N   0  0  0  0  0  0  0  0  0  0  0  0
   21.9174   -5.3486  -13.7918 C   0  0  0  0  0  0  0  0  0  0  0  0
   22.6002   -5.0171  -12.7834 O   0  0  0  0  0  0  0  0  0  0  0  0
   20.5369   -5.4026  -13.6295 O   0  0  0  0  0  0  0  0  0  0  0  0
  2  1  1  1
  2  4  1  0
  3  2  1  0
  4  5  1  1
  6 12  1  0
  6  4  1  0
  7  6  2  0
  9  8  1  6
  9 11  1  0
 10  9  1  0
 11 12  1  1
 11 13  1  0
 13 17  1  0
 14 13  2  0
 16 18  1  0
 16 15  1  6
 17 16  1  0
 18 20  1  0
 19 18  2  0
M  END
$$$$
