TVA.pdb
     RDKit          3D

 20 19  0  0  1  0  0  0  0  0999 V2000
   21.0707  -13.1262  -20.0359 C   0  0  0  0  0  0  0  0  0  0  0  0
   21.4050  -12.2831  -18.8148 C   0  0  1  0  0  0  0  0  0  0  0  0
   20.2377  -11.8476  -18.1892 O   0  0  0  0  0  0  0  0  0  0  0  0
   22.2714  -13.0891  -17.8543 C   0  0  2  0  0  0  0  0  0  0  0  0
   21.4913  -14.2337  -17.4229 N   0  0  0  0  0  0  0  0  0  0  0  0
   22.6299  -12.2064  -16.7230 C   0  0  0  0  0  0  0  0  0  0  0  0
   22.0469  -12.3243  -15.6172 O   0  0  0  0  0  0  0  0  0  0  0  0
   25.9748  -11.5689  -15.2584 C   0  0  0  0  0  0  0  0  0  0  0  0
   25.4304  -10.2217  -15.6070 C   0  0  2  0  0  0  0  0  0  0  0  0
   25.8907   -9.1287  -14.6813 C   0  0  0  0  0  0  0  0  0  0  0  0
   23.9034  -10.2707  -15.7065 C   0  0  2  0  0  0  0  0  0  0  0  0
   23.6282  -11.1971  -16.8118 N   0  0  0  0  0  0  0  0  0  0  0  0
   23.3786   -8.9241  -15.9894 C   0  0  0  0  0  0  0  0  0  0  0  0
   23.7015   -8.3507  -17.0590 O   0  0  0  0  0  0  0  0  0  0  0  0
   20.5178   -6.7894  -15.1676 C   0  0  0  0  0  0  0  0  0  0  0  0
   22.0118   -6.8931  -15.3852 C   0  0  2  0  0  0  0  0  0  0  0  0
   22.5124   -8.2248  -15.1052 N   0  0  0  0  0  0  0  0  0  0  0  0
   22.7260   -5.9133  -14.5281 C   0  0  0  0  0  0  0  0  0  0  0  0
   23.2010   -6.2020  -13.3949 O   0  0  0  0  0  0  0  0  0  0  0  0
   22.8956   -4.6049  -14.9690 O   0  0  0  0  0  0  0  0  0  0  0  0
  2  1  1  6
  2  4  1  0
  3  2  1  0
  4  5  1  1
  6 12  1  0
  6  4  1  0
  7  6  2  0
  9  8  1  1
  9 11  1  0
 10  9  1  0
 11 12  1  6
 11 13  1  0
 13 17  1  0
 14 13  2  0
 16 18  1  0
 16 15  1  1
 17 16  1  0
 18 20  1  0
 19 18  2  0
M  END
$$$$
