TVA.pdb
     RDKit          3D

 20 19  0  0  1  0  0  0  0  0999 V2000
   19.0901   -8.8359  -18.9813 C   0  0  0  0  0  0  0  0  0  0  0  0
   18.2157  -10.0509  -18.7119 C   0  0  1  0  0  0  0  0  0  0  0  0
   17.6141  -10.4891  -19.8909 O   0  0  0  0  0  0  0  0  0  0  0  0
   19.0523  -11.1578  -18.0815 C   0  0  2  0  0  0  0  0  0  0  0  0
   18.1869  -12.3088  -17.9054 N   0  0  0  0  0  0  0  0  0  0  0  0
   19.5687  -10.6521  -16.7911 C   0  0  0  0  0  0  0  0  0  0  0  0
   18.7981  -10.5160  -15.8091 O   0  0  0  0  0  0  0  0  0  0  0  0
   22.4091  -12.0138  -14.8794 C   0  0  0  0  0  0  0  0  0  0  0  0
   22.7036  -10.5559  -15.0226 C   0  0  2  0  0  0  0  0  0  0  0  0
   23.4611   -9.9778  -13.8584 C   0  0  0  0  0  0  0  0  0  0  0  0
   21.4169   -9.7748  -15.3023 C   0  0  2  0  0  0  0  0  0  0  0  0
   20.9308  -10.2978  -16.5851 N   0  0  0  0  0  0  0  0  0  0  0  0
   21.7158   -8.3351  -15.3864 C   0  0  0  0  0  0  0  0  0  0  0  0
   22.5466   -7.9284  -16.2357 O   0  0  0  0  0  0  0  0  0  0  0  0
   20.1113   -5.1359  -14.8469 C   0  0  0  0  0  0  0  0  0  0  0  0
   21.3775   -5.9437  -14.6619 C   0  0  2  0  0  0  0  0  0  0  0  0
   21.1066   -7.3635  -14.5463 N   0  0  0  0  0  0  0  0  0  0  0  0
   22.1077   -5.4864  -13.4526 C   0  0  0  0  0  0  0  0  0  0  0  0
   22.0823   -6.1059  -12.3532 O   0  0  0  0  0  0  0  0  0  0  0  0
   22.8658   -4.3211  -13.5032 O   0  0  0  0  0  0  0  0  0  0  0  0
  2  1  1  6
  2  4  1  0
  3  2  1  0
  4  5  1  1
  6 12  1  0
  6  4  1  0
  7  6  2  0
  9  8  1  1
  9 11  1  0
 10  9  1  0
 11 12  1  6
 11 13  1  0
 13 17  1  0
 14 13  2  0
 16 18  1  0
 16 15  1  1
 17 16  1  0
 18 20  1  0
 19 18  2  0
M  END
$$$$
