TVA.pdb
     RDKit          3D

 20 19  0  0  1  0  0  0  0  0999 V2000
   26.8924   -9.8146  -16.6004 C   0  0  0  0  0  0  0  0  0  0  0  0
   26.6252  -10.6975  -17.8096 C   0  0  1  0  0  0  0  0  0  0  0  0
   27.7287  -11.5072  -18.0750 O   0  0  0  0  0  0  0  0  0  0  0  0
   25.3768  -11.5378  -17.5677 C   0  0  2  0  0  0  0  0  0  0  0  0
   25.2423  -12.4476  -18.6897 N   0  0  0  0  0  0  0  0  0  0  0  0
   24.2261  -10.6145  -17.4639 C   0  0  0  0  0  0  0  0  0  0  0  0
   23.8002  -10.0149  -18.4816 O   0  0  0  0  0  0  0  0  0  0  0  0
   20.9472  -11.4316  -16.0209 C   0  0  0  0  0  0  0  0  0  0  0  0
   21.3588  -10.1708  -15.3325 C   0  0  2  0  0  0  0  0  0  0  0  0
   20.2035   -9.2765  -14.9734 C   0  0  0  0  0  0  0  0  0  0  0  0
   22.4111   -9.4280  -16.1599 C   0  0  2  0  0  0  0  0  0  0  0  0
   23.5477  -10.3537  -16.2411 N   0  0  0  0  0  0  0  0  0  0  0  0
   22.7848   -8.1748  -15.4825 C   0  0  0  0  0  0  0  0  0  0  0  0
   23.3158   -8.2253  -14.3456 O   0  0  0  0  0  0  0  0  0  0  0  0
   23.1688   -4.5343  -16.4302 C   0  0  0  0  0  0  0  0  0  0  0  0
   23.0530   -5.6680  -15.4346 C   0  0  2  0  0  0  0  0  0  0  0  0
   22.5748   -6.8895  -16.0525 N   0  0  0  0  0  0  0  0  0  0  0  0
   22.1375   -5.2902  -14.3283 C   0  0  0  0  0  0  0  0  0  0  0  0
   22.5166   -4.6652  -13.2993 O   0  0  0  0  0  0  0  0  0  0  0  0
   20.7901   -5.6280  -14.4011 O   0  0  0  0  0  0  0  0  0  0  0  0
  2  1  1  1
  2  4  1  0
  3  2  1  0
  4  5  1  6
  6 12  1  0
  6  4  1  0
  7  6  2  0
  9  8  1  6
  9 11  1  0
 10  9  1  0
 11 12  1  1
 11 13  1  0
 13 17  1  0
 14 13  2  0
 16 18  1  0
 16 15  1  6
 17 16  1  0
 18 20  1  0
 19 18  2  0
M  END
$$$$
