TVA.pdb
     RDKit          3D

 20 19  0  0  1  0  0  0  0  0999 V2000
   26.7944  -10.5192  -15.7179 C   0  0  0  0  0  0  0  0  0  0  0  0
   26.5297  -11.5255  -16.8271 C   0  0  1  0  0  0  0  0  0  0  0  0
   27.5270  -12.4995  -16.8493 O   0  0  0  0  0  0  0  0  0  0  0  0
   25.1554  -12.1553  -16.6336 C   0  0  2  0  0  0  0  0  0  0  0  0
   25.0142  -13.2024  -17.6278 N   0  0  0  0  0  0  0  0  0  0  0  0
   24.1440  -11.0900  -16.8057 C   0  0  0  0  0  0  0  0  0  0  0  0
   23.9452  -10.5806  -17.9360 O   0  0  0  0  0  0  0  0  0  0  0  0
   20.6080  -11.2634  -16.0557 C   0  0  0  0  0  0  0  0  0  0  0  0
   21.0769  -10.0572  -15.3086 C   0  0  2  0  0  0  0  0  0  0  0  0
   20.0310   -8.9831  -15.1826 C   0  0  0  0  0  0  0  0  0  0  0  0
   22.3702   -9.5158  -15.9236 C   0  0  2  0  0  0  0  0  0  0  0  0
   23.3545  -10.5884  -15.7339 N   0  0  0  0  0  0  0  0  0  0  0  0
   22.7760   -8.2834  -15.2270 C   0  0  0  0  0  0  0  0  0  0  0  0
   23.0978   -8.3402  -14.0145 O   0  0  0  0  0  0  0  0  0  0  0  0
   23.4312   -4.6434  -16.1195 C   0  0  0  0  0  0  0  0  0  0  0  0
   23.2345   -5.8045  -15.1691 C   0  0  2  0  0  0  0  0  0  0  0  0
   22.8247   -7.0115  -15.8603 N   0  0  0  0  0  0  0  0  0  0  0  0
   22.2189   -5.4622  -14.1415 C   0  0  0  0  0  0  0  0  0  0  0  0
   20.9871   -5.7001  -14.2797 O   0  0  0  0  0  0  0  0  0  0  0  0
   22.6143   -4.8482  -12.9575 O   0  0  0  0  0  0  0  0  0  0  0  0
  2  1  1  1
  2  4  1  0
  3  2  1  0
  4  5  1  6
  6 12  1  0
  6  4  1  0
  7  6  2  0
  9  8  1  6
  9 11  1  0
 10  9  1  0
 11 12  1  1
 11 13  1  0
 13 17  1  0
 14 13  2  0
 16 18  1  0
 16 15  1  6
 17 16  1  0
 18 20  1  0
 19 18  2  0
M  END
$$$$
