TVA.pdb
     RDKit          3D

 20 19  0  0  1  0  0  0  0  0999 V2000
   17.2535  -10.9195  -19.1215 C   0  0  0  0  0  0  0  0  0  0  0  0
   17.8536  -10.3021  -17.8677 C   0  0  1  0  0  0  0  0  0  0  0  0
   16.8752   -9.6227  -17.1432 O   0  0  0  0  0  0  0  0  0  0  0  0
   18.5052  -11.3883  -17.0201 C   0  0  2  0  0  0  0  0  0  0  0  0
   17.4482  -12.2636  -16.5493 N   0  0  0  0  0  0  0  0  0  0  0  0
   19.2115  -10.7244  -15.9031 C   0  0  0  0  0  0  0  0  0  0  0  0
   18.6881  -10.6731  -14.7629 O   0  0  0  0  0  0  0  0  0  0  0  0
   22.4648  -11.5604  -14.6166 C   0  0  0  0  0  0  0  0  0  0  0  0
   22.5649  -10.0934  -14.8824 C   0  0  2  0  0  0  0  0  0  0  0  0
   23.4755   -9.3697  -13.9281 C   0  0  0  0  0  0  0  0  0  0  0  0
   21.1716   -9.4602  -14.9223 C   0  0  2  0  0  0  0  0  0  0  0  0
   20.4911  -10.1192  -16.0439 N   0  0  0  0  0  0  0  0  0  0  0  0
   21.2894   -8.0088  -15.1419 C   0  0  0  0  0  0  0  0  0  0  0  0
   21.8579   -7.5883  -16.1797 O   0  0  0  0  0  0  0  0  0  0  0  0
   19.7237   -4.8548  -13.8634 C   0  0  0  0  0  0  0  0  0  0  0  0
   20.8864   -5.6131  -14.4661 C   0  0  2  0  0  0  0  0  0  0  0  0
   20.7875   -7.0404  -14.2302 N   0  0  0  0  0  0  0  0  0  0  0  0
   22.1698   -5.1145  -13.9102 C   0  0  0  0  0  0  0  0  0  0  0  0
   22.7045   -5.5896  -12.8703 O   0  0  0  0  0  0  0  0  0  0  0  0
   22.8391   -4.0733  -14.5449 O   0  0  0  0  0  0  0  0  0  0  0  0
  2  1  1  6
  2  4  1  0
  3  2  1  0
  4  5  1  1
  6 12  1  0
  6  4  1  0
  7  6  2  0
  9  8  1  1
  9 11  1  0
 10  9  1  0
 11 12  1  6
 11 13  1  0
 13 17  1  0
 14 13  2  0
 16 18  1  0
 16 15  1  1
 17 16  1  0
 18 20  1  0
 19 18  2  0
M  END
$$$$
