TVA.pdb
     RDKit          3D

 20 19  0  0  1  0  0  0  0  0999 V2000
   19.1100  -10.5206  -19.7183 C   0  0  0  0  0  0  0  0  0  0  0  0
   18.8394  -11.9578  -19.3005 C   0  0  1  0  0  0  0  0  0  0  0  0
   18.7322  -12.7791  -20.4220 O   0  0  0  0  0  0  0  0  0  0  0  0
   19.9478  -12.4417  -18.3730 C   0  0  2  0  0  0  0  0  0  0  0  0
   19.6764  -13.8324  -18.0616 N   0  0  0  0  0  0  0  0  0  0  0  0
   19.9264  -11.5903  -17.1638 C   0  0  0  0  0  0  0  0  0  0  0  0
   19.0026  -11.7079  -16.3216 O   0  0  0  0  0  0  0  0  0  0  0  0
   22.6130  -11.2585  -14.7374 C   0  0  0  0  0  0  0  0  0  0  0  0
   22.2757   -9.8457  -15.0885 C   0  0  2  0  0  0  0  0  0  0  0  0
   22.4472   -8.8840  -13.9443 C   0  0  0  0  0  0  0  0  0  0  0  0
   20.8693   -9.7642  -15.6879 C   0  0  2  0  0  0  0  0  0  0  0  0
   20.9211  -10.6124  -16.8851 N   0  0  0  0  0  0  0  0  0  0  0  0
   20.5536   -8.3672  -16.0311 C   0  0  0  0  0  0  0  0  0  0  0  0
   21.3032   -7.7444  -16.8231 O   0  0  0  0  0  0  0  0  0  0  0  0
   17.5596   -6.1235  -15.8928 C   0  0  0  0  0  0  0  0  0  0  0  0
   19.0564   -6.3402  -15.9427 C   0  0  2  0  0  0  0  0  0  0  0  0
   19.4293   -7.6722  -15.5078 N   0  0  0  0  0  0  0  0  0  0  0  0
   19.7503   -5.3380  -15.0948 C   0  0  0  0  0  0  0  0  0  0  0  0
   20.0333   -5.5359  -13.8808 O   0  0  0  0  0  0  0  0  0  0  0  0
   20.1190   -4.1113  -15.6372 O   0  0  0  0  0  0  0  0  0  0  0  0
  2  1  1  6
  2  4  1  0
  3  2  1  0
  4  5  1  1
  6 12  1  0
  6  4  1  0
  7  6  2  0
  9  8  1  1
  9 11  1  0
 10  9  1  0
 11 12  1  6
 11 13  1  0
 13 17  1  0
 14 13  2  0
 16 18  1  0
 16 15  1  1
 17 16  1  0
 18 20  1  0
 19 18  2  0
M  END
$$$$
