TVA.pdb
     RDKit          3D

 20 19  0  0  1  0  0  0  0  0999 V2000
   27.9482  -12.2528  -15.6719 C   0  0  0  0  0  0  0  0  0  0  0  0
   26.9244  -11.2138  -16.1028 C   0  0  1  0  0  0  0  0  0  0  0  0
   27.4935  -10.3130  -17.0020 O   0  0  0  0  0  0  0  0  0  0  0  0
   25.7141  -11.9073  -16.7168 C   0  0  2  0  0  0  0  0  0  0  0  0
   26.1593  -12.5601  -17.9336 N   0  0  0  0  0  0  0  0  0  0  0  0
   24.6918  -10.8732  -16.9867 C   0  0  0  0  0  0  0  0  0  0  0  0
   24.5690  -10.3880  -18.1382 O   0  0  0  0  0  0  0  0  0  0  0  0
   21.1928  -11.2794  -16.7169 C   0  0  0  0  0  0  0  0  0  0  0  0
   21.4529  -10.0757  -15.8707 C   0  0  2  0  0  0  0  0  0  0  0  0
   20.3059   -9.1025  -15.8400 C   0  0  0  0  0  0  0  0  0  0  0  0
   22.7581   -9.3960  -16.2932 C   0  0  2  0  0  0  0  0  0  0  0  0
   23.8079  -10.3762  -15.9891 N   0  0  0  0  0  0  0  0  0  0  0  0
   22.9440   -8.1526  -15.5262 C   0  0  0  0  0  0  0  0  0  0  0  0
   23.0620   -8.2126  -14.2774 O   0  0  0  0  0  0  0  0  0  0  0  0
   23.4501   -4.4551  -16.2814 C   0  0  0  0  0  0  0  0  0  0  0  0
   23.2739   -5.6571  -15.3791 C   0  0  2  0  0  0  0  0  0  0  0  0
   22.9983   -6.8666  -16.1298 N   0  0  0  0  0  0  0  0  0  0  0  0
   22.1702   -5.4193  -14.4147 C   0  0  0  0  0  0  0  0  0  0  0  0
   20.9668   -5.7155  -14.6534 O   0  0  0  0  0  0  0  0  0  0  0  0
   22.4454   -4.8431  -13.1788 O   0  0  0  0  0  0  0  0  0  0  0  0
  2  1  1  6
  2  4  1  0
  3  2  1  0
  4  5  1  6
  6 12  1  0
  6  4  1  0
  7  6  2  0
  9  8  1  6
  9 11  1  0
 10  9  1  0
 11 12  1  1
 11 13  1  0
 13 17  1  0
 14 13  2  0
 16 18  1  0
 16 15  1  6
 17 16  1  0
 18 20  1  0
 19 18  2  0
M  END
$$$$
