TVA.pdb
     RDKit          3D

 20 19  0  0  1  0  0  0  0  0999 V2000
   22.1347   -9.8452  -18.8500 C   0  0  0  0  0  0  0  0  0  0  0  0
   20.8604  -10.5498  -19.2892 C   0  0  1  0  0  0  0  0  0  0  0  0
   21.1526  -11.5576  -20.2072 O   0  0  0  0  0  0  0  0  0  0  0  0
   20.1377  -11.1131  -18.0713 C   0  0  2  0  0  0  0  0  0  0  0  0
   19.0008  -11.8737  -18.5550 N   0  0  0  0  0  0  0  0  0  0  0  0
   19.7207   -9.9721  -17.2278 C   0  0  0  0  0  0  0  0  0  0  0  0
   18.9400   -9.0997  -17.6818 O   0  0  0  0  0  0  0  0  0  0  0  0
   18.0254  -10.1994  -14.0686 C   0  0  0  0  0  0  0  0  0  0  0  0
   19.1918   -9.3135  -13.7726 C   0  0  2  0  0  0  0  0  0  0  0  0
   18.9119   -8.2846  -12.7112 C   0  0  0  0  0  0  0  0  0  0  0  0
   19.7146   -8.6688  -15.0590 C   0  0  2  0  0  0  0  0  0  0  0  0
   20.1638   -9.7943  -15.8879 N   0  0  0  0  0  0  0  0  0  0  0  0
   20.8260   -7.7555  -14.7433 C   0  0  0  0  0  0  0  0  0  0  0  0
   21.8545   -8.2094  -14.1838 O   0  0  0  0  0  0  0  0  0  0  0  0
   21.9792   -4.3059  -15.6807 C   0  0  0  0  0  0  0  0  0  0  0  0
   21.8958   -5.4723  -14.7202 C   0  0  2  0  0  0  0  0  0  0  0  0
   20.7998   -6.3657  -15.0411 N   0  0  0  0  0  0  0  0  0  0  0  0
   21.7339   -4.9821  -13.3280 C   0  0  0  0  0  0  0  0  0  0  0  0
   20.6119   -4.8624  -12.7625 O   0  0  0  0  0  0  0  0  0  0  0  0
   22.8560   -4.6297  -12.5851 O   0  0  0  0  0  0  0  0  0  0  0  0
  2  1  1  1
  2  4  1  0
  3  2  1  0
  4  5  1  6
  6 12  1  0
  6  4  1  0
  7  6  2  0
  9  8  1  6
  9 11  1  0
 10  9  1  0
 11 12  1  6
 11 13  1  0
 13 17  1  0
 14 13  2  0
 16 18  1  0
 16 15  1  6
 17 16  1  0
 18 20  1  0
 19 18  2  0
M  END
$$$$
