TVA.pdb
     RDKit          3D

 20 19  0  0  1  0  0  0  0  0999 V2000
   21.0701  -21.0185  -16.3096 C   0  0  0  0  0  0  0  0  0  0  0  0
   21.5628  -19.7143  -15.7017 C   0  0  1  0  0  0  0  0  0  0  0  0
   20.7070  -19.2979  -14.6828 O   0  0  0  0  0  0  0  0  0  0  0  0
   22.9843  -19.8932  -15.1820 C   0  0  2  0  0  0  0  0  0  0  0  0
   22.9250  -20.8191  -14.0667 N   0  0  0  0  0  0  0  0  0  0  0  0
   23.4835  -18.5633  -14.7702 C   0  0  0  0  0  0  0  0  0  0  0  0
   23.5280  -18.2509  -13.5548 O   0  0  0  0  0  0  0  0  0  0  0  0
   26.6222  -15.0155  -15.5345 C   0  0  0  0  0  0  0  0  0  0  0  0
   25.8855  -16.2495  -15.9437 C   0  0  2  0  0  0  0  0  0  0  0  0
   25.7701  -16.4150  -17.4346 C   0  0  0  0  0  0  0  0  0  0  0  0
   24.5158  -16.3061  -15.2622 C   0  0  2  0  0  0  0  0  0  0  0  0
   23.9321  -17.5814  -15.6965 N   0  0  0  0  0  0  0  0  0  0  0  0
   23.6951  -15.1629  -15.6962 C   0  0  0  0  0  0  0  0  0  0  0  0
   23.1265  -15.2041  -16.8152 O   0  0  0  0  0  0  0  0  0  0  0  0
   22.5603  -11.8209  -14.2610 C   0  0  0  0  0  0  0  0  0  0  0  0
   22.6711  -12.8882  -15.3280 C   0  0  2  0  0  0  0  0  0  0  0  0
   23.5070  -13.9957  -14.9068 N   0  0  0  0  0  0  0  0  0  0  0  0
   23.2220  -12.3097  -16.5796 C   0  0  0  0  0  0  0  0  0  0  0  0
   22.5227  -11.6684  -17.4120 O   0  0  0  0  0  0  0  0  0  0  0  0
   24.5720  -12.4657  -16.8767 O   0  0  0  0  0  0  0  0  0  0  0  0
  2  1  1  1
  2  4  1  0
  3  2  1  0
  4  5  1  1
  6 12  1  0
  6  4  1  0
  7  6  2  0
  9  8  1  6
  9 11  1  0
 10  9  1  0
 11 12  1  6
 11 13  1  0
 13 17  1  0
 14 13  2  0
 16 18  1  0
 16 15  1  1
 17 16  1  0
 18 20  1  0
 19 18  2  0
M  END
$$$$
