WSA.pdb
     RDKit          3D

 26 27  0  0  1  0  0  0  0  0999 V2000
   26.4874  -19.5098  -12.2426 N   0  0  0  0  0  0  0  0  0  0  0  0
   26.1994  -20.9194  -11.9661 C   0  0  1  0  0  0  0  0  0  0  0  0
   25.6381  -20.9696  -10.5702 C   0  0  0  0  0  0  0  0  0  0  0  0
   26.5643  -20.4798   -9.5399 C   0  0  0  0  0  0  0  0  0  0  0  0
   26.2386  -19.6093   -8.5286 C   0  0  0  0  0  0  0  0  0  0  0  0
   27.3406  -19.3753   -7.7551 N   0  0  0  0  0  0  0  0  0  0  0  0
   28.3790  -20.0849   -8.2536 C   0  0  0  0  0  0  0  0  0  0  0  0
   29.6911  -20.1893   -7.8389 C   0  0  0  0  0  0  0  0  0  0  0  0
   30.5700  -20.9939   -8.5309 C   0  0  0  0  0  0  0  0  0  0  0  0
   30.1069  -21.6784   -9.6294 C   0  0  0  0  0  0  0  0  0  0  0  0
   28.7908  -21.5762  -10.0486 C   0  0  0  0  0  0  0  0  0  0  0  0
   27.9002  -20.7684   -9.3573 C   0  0  0  0  0  0  0  0  0  0  0  0
   25.2259  -21.3461  -12.9902 C   0  0  0  0  0  0  0  0  0  0  0  0
   24.5225  -20.4569  -13.5297 O   0  0  0  0  0  0  0  0  0  0  0  0
   23.6445  -24.9723  -15.8544 O   0  0  0  0  0  0  0  0  0  0  0  0
   24.4467  -24.5529  -14.8013 C   0  0  0  0  0  0  0  0  0  0  0  0
   24.1364  -23.0910  -14.4632 C   0  0  2  0  0  0  0  0  0  0  0  0
   25.0375  -22.6827  -13.3978 N   0  0  0  0  0  0  0  0  0  0  0  0
   22.7328  -22.8644  -14.1195 C   0  0  0  0  0  0  0  0  0  0  0  0
   22.3071  -23.1566  -12.9557 O   0  0  0  0  0  0  0  0  0  0  0  0
   19.5625  -21.5291  -15.7340 C   0  0  0  0  0  0  0  0  0  0  0  0
   20.3584  -22.2184  -14.6506 C   0  0  2  0  0  0  0  0  0  0  0  0
   21.7625  -22.3258  -15.0007 N   0  0  0  0  0  0  0  0  0  0  0  0
   19.8097  -23.5790  -14.4985 C   0  0  0  0  0  0  0  0  0  0  0  0
   20.3539  -24.6461  -15.1825 O   0  0  0  0  0  0  0  0  0  0  0  0
   18.8358  -23.7653  -13.7370 O   0  0  0  0  0  0  0  0  0  0  0  0
  2  1  1  6
  2 13  1  0
  3  2  1  0
  3  4  1  0
  4 12  1  0
  5  4  2  0
  5  6  1  0
  6  7  1  0
  7  8  2  0
  8  9  1  0
 10  9  2  0
 11 10  1  0
 12 11  2  0
 12  7  1  0
 13 14  2  0
 16 15  1  0
 17 16  1  1
 17 19  1  0
 18 17  1  0
 18 13  1  0
 19 20  2  0
 19 23  1  0
 22 21  1  6
 23 22  1  0
 24 25  1  0
 24 22  1  0
 26 24  2  0
M  END
$$$$
