WSA.pdb
     RDKit          3D

 26 27  0  0  1  0  0  0  0  0999 V2000
   24.8105  -19.5213  -10.1269 N   0  0  0  0  0  0  0  0  0  0  0  0
   26.1562  -20.0185  -10.4241 C   0  0  1  0  0  0  0  0  0  0  0  0
   26.3534  -21.2406   -9.5675 C   0  0  0  0  0  0  0  0  0  0  0  0
   26.3601  -20.9599   -8.1252 C   0  0  0  0  0  0  0  0  0  0  0  0
   25.2497  -20.9288   -7.3172 C   0  0  0  0  0  0  0  0  0  0  0  0
   25.6259  -20.6417   -6.0352 N   0  0  0  0  0  0  0  0  0  0  0  0
   26.9694  -20.4858   -6.0021 C   0  0  0  0  0  0  0  0  0  0  0  0
   27.8248  -20.1907   -4.9602 C   0  0  0  0  0  0  0  0  0  0  0  0
   29.1792  -20.0835   -5.1904 C   0  0  0  0  0  0  0  0  0  0  0  0
   29.6443  -20.2766   -6.4696 C   0  0  0  0  0  0  0  0  0  0  0  0
   28.7889  -20.5729   -7.5177 C   0  0  0  0  0  0  0  0  0  0  0  0
   27.4245  -20.6825   -7.2939 C   0  0  0  0  0  0  0  0  0  0  0  0
   26.1695  -20.3234  -11.8682 C   0  0  0  0  0  0  0  0  0  0  0  0
   25.0954  -20.1804  -12.5024 O   0  0  0  0  0  0  0  0  0  0  0  0
   29.4788  -21.9369  -14.0155 O   0  0  0  0  0  0  0  0  0  0  0  0
   28.9711  -20.6806  -14.3196 C   0  0  0  0  0  0  0  0  0  0  0  0
   27.4699  -20.6403  -14.0153 C   0  0  2  0  0  0  0  0  0  0  0  0
   27.3071  -20.7632  -12.5758 N   0  0  0  0  0  0  0  0  0  0  0  0
   26.7061  -21.6499  -14.7479 C   0  0  0  0  0  0  0  0  0  0  0  0
   26.3014  -22.6992  -14.1510 O   0  0  0  0  0  0  0  0  0  0  0  0
   24.1673  -22.1933  -17.0175 C   0  0  0  0  0  0  0  0  0  0  0  0
   25.6078  -22.5964  -16.8057 C   0  0  2  0  0  0  0  0  0  0  0  0
   26.3600  -21.5628  -16.1193 N   0  0  0  0  0  0  0  0  0  0  0  0
   26.2075  -22.8042  -18.1372 C   0  0  0  0  0  0  0  0  0  0  0  0
   26.4017  -24.0741  -18.6396 O   0  0  0  0  0  0  0  0  0  0  0  0
   26.5445  -21.8119  -18.8190 O   0  0  0  0  0  0  0  0  0  0  0  0
  2  1  1  1
  2 13  1  0
  3  2  1  0
  3  4  1  0
  4 12  1  0
  5  4  2  0
  5  6  1  0
  6  7  1  0
  7  8  2  0
  8  9  1  0
 10  9  2  0
 11 10  1  0
 12 11  2  0
 12  7  1  0
 13 14  2  0
 16 15  1  0
 17 16  1  1
 17 19  1  0
 18 17  1  0
 18 13  1  0
 19 20  2  0
 19 23  1  0
 22 21  1  6
 23 22  1  0
 24 25  1  0
 24 22  1  0
 26 24  2  0
M  END
$$$$
