WSA.pdb
     RDKit          3D

 26 27  0  0  1  0  0  0  0  0999 V2000
   28.1054  -20.8567   -9.7036 N   0  0  0  0  0  0  0  0  0  0  0  0
   26.6639  -21.0977   -9.6018 C   0  0  1  0  0  0  0  0  0  0  0  0
   26.1534  -20.1613   -8.5394 C   0  0  0  0  0  0  0  0  0  0  0  0
   27.2020  -19.6464   -7.6481 C   0  0  0  0  0  0  0  0  0  0  0  0
   28.1685  -18.7366   -8.0017 C   0  0  0  0  0  0  0  0  0  0  0  0
   28.9717  -18.4824   -6.9258 N   0  0  0  0  0  0  0  0  0  0  0  0
   28.5369  -19.2178   -5.8766 C   0  0  0  0  0  0  0  0  0  0  0  0
   29.0024  -19.3173   -4.5813 C   0  0  0  0  0  0  0  0  0  0  0  0
   28.3728  -20.1544   -3.6858 C   0  0  0  0  0  0  0  0  0  0  0  0
   27.2844  -20.8755   -4.1159 C   0  0  0  0  0  0  0  0  0  0  0  0
   26.8144  -20.7782   -5.4150 C   0  0  0  0  0  0  0  0  0  0  0  0
   27.4426  -19.9379   -6.3221 C   0  0  0  0  0  0  0  0  0  0  0  0
   26.1057  -20.8074  -10.9370 C   0  0  0  0  0  0  0  0  0  0  0  0
   26.3417  -19.6782  -11.4327 O   0  0  0  0  0  0  0  0  0  0  0  0
   24.0635  -23.7057  -13.0557 O   0  0  0  0  0  0  0  0  0  0  0  0
   24.7387  -22.7384  -13.7885 C   0  0  0  0  0  0  0  0  0  0  0  0
   24.7786  -21.4248  -13.0007 C   0  0  2  0  0  0  0  0  0  0  0  0
   25.3281  -21.7141  -11.6861 N   0  0  0  0  0  0  0  0  0  0  0  0
   23.4784  -20.7592  -12.9240 C   0  0  0  0  0  0  0  0  0  0  0  0
   22.7345  -20.9308  -11.9051 O   0  0  0  0  0  0  0  0  0  0  0  0
   21.3040  -18.4680  -15.0378 C   0  0  0  0  0  0  0  0  0  0  0  0
   21.5937  -19.3879  -13.8749 C   0  0  2  0  0  0  0  0  0  0  0  0
   22.9491  -19.9037  -13.9220 N   0  0  0  0  0  0  0  0  0  0  0  0
   20.6580  -20.5243  -13.9682 C   0  0  0  0  0  0  0  0  0  0  0  0
   19.4547  -20.5122  -13.2940 O   0  0  0  0  0  0  0  0  0  0  0  0
   20.9629  -21.5130  -14.6700 O   0  0  0  0  0  0  0  0  0  0  0  0
  2  1  1  6
  2 13  1  0
  3  2  1  0
  3  4  1  0
  4 12  1  0
  5  4  2  0
  5  6  1  0
  6  7  1  0
  7  8  2  0
  8  9  1  0
 10  9  2  0
 11 10  1  0
 12 11  2  0
 12  7  1  0
 13 14  2  0
 16 15  1  0
 17 16  1  6
 17 19  1  0
 18 17  1  0
 18 13  1  0
 19 20  2  0
 19 23  1  0
 22 21  1  6
 23 22  1  0
 24 25  1  0
 24 22  1  0
 26 24  2  0
M  END
$$$$
