WSA.pdb
     RDKit          3D

 26 27  0  0  1  0  0  0  0  0999 V2000
   18.1060   -9.6727  -12.6838 N   0  0  0  0  0  0  0  0  0  0  0  0
   17.0194   -8.6908  -12.7236 C   0  0  1  0  0  0  0  0  0  0  0  0
   15.9888   -9.2400  -13.6736 C   0  0  0  0  0  0  0  0  0  0  0  0
   16.3663   -9.1271  -15.0892 C   0  0  0  0  0  0  0  0  0  0  0  0
   17.0883   -8.0957  -15.6386 C   0  0  0  0  0  0  0  0  0  0  0  0
   17.2577   -8.3188  -16.9761 N   0  0  0  0  0  0  0  0  0  0  0  0
   16.6531   -9.4846  -17.3014 C   0  0  0  0  0  0  0  0  0  0  0  0
   16.5395  -10.1438  -18.5084 C   0  0  0  0  0  0  0  0  0  0  0  0
   15.8594  -11.3402  -18.5783 C   0  0  0  0  0  0  0  0  0  0  0  0
   15.3067  -11.8487  -17.4268 C   0  0  0  0  0  0  0  0  0  0  0  0
   15.4187  -11.1900  -16.2137 C   0  0  0  0  0  0  0  0  0  0  0  0
   16.1017   -9.9854  -16.1354 C   0  0  0  0  0  0  0  0  0  0  0  0
   16.5195   -8.5781  -11.3395 C   0  0  0  0  0  0  0  0  0  0  0  0
   16.4531   -9.6306  -10.6579 O   0  0  0  0  0  0  0  0  0  0  0  0
   17.3548   -5.8639   -8.5581 O   0  0  0  0  0  0  0  0  0  0  0  0
   15.9951   -5.8868   -8.8395 C   0  0  0  0  0  0  0  0  0  0  0  0
   15.6008   -7.2644   -9.3820 C   0  0  2  0  0  0  0  0  0  0  0  0
   16.1139   -7.3689  -10.7383 N   0  0  0  0  0  0  0  0  0  0  0  0
   14.1625   -7.5212   -9.3120 C   0  0  0  0  0  0  0  0  0  0  0  0
   13.4210   -7.2677  -10.3154 O   0  0  0  0  0  0  0  0  0  0  0  0
   11.3170   -7.0909   -8.7888 C   0  0  0  0  0  0  0  0  0  0  0  0
   12.0529   -8.2410   -8.1422 C   0  0  2  0  0  0  0  0  0  0  0  0
   13.4907   -8.0495   -8.1817 N   0  0  0  0  0  0  0  0  0  0  0  0
   11.7230   -9.4598   -8.9046 C   0  0  0  0  0  0  0  0  0  0  0  0
   10.4156   -9.8737   -9.0535 O   0  0  0  0  0  0  0  0  0  0  0  0
   12.6449  -10.1265   -9.4230 O   0  0  0  0  0  0  0  0  0  0  0  0
  2  1  1  1
  2 13  1  0
  3  2  1  0
  3  4  1  0
  4 12  1  0
  5  4  2  0
  5  6  1  0
  6  7  1  0
  7  8  2  0
  8  9  1  0
 10  9  2  0
 11 10  1  0
 12 11  2  0
 12  7  1  0
 13 14  2  0
 16 15  1  0
 17 16  1  6
 17 19  1  0
 18 17  1  0
 18 13  1  0
 19 20  2  0
 19 23  1  0
 22 21  1  6
 23 22  1  0
 24 25  1  0
 24 22  1  0
 26 24  2  0
M  END
$$$$
