WSA.pdb
     RDKit          3D

 26 27  0  0  1  0  0  0  0  0999 V2000
   25.1739  -20.2073   -9.6058 N   0  0  0  0  0  0  0  0  0  0  0  0
   26.5674  -20.4497   -9.9879 C   0  0  1  0  0  0  0  0  0  0  0  0
   27.1889  -21.2180   -8.8523 C   0  0  0  0  0  0  0  0  0  0  0  0
   27.2822  -20.4549   -7.6000 C   0  0  0  0  0  0  0  0  0  0  0  0
   26.2898  -19.6614   -7.0780 C   0  0  0  0  0  0  0  0  0  0  0  0
   26.7179  -19.1082   -5.9040 N   0  0  0  0  0  0  0  0  0  0  0  0
   27.9783  -19.5341   -5.6580 C   0  0  0  0  0  0  0  0  0  0  0  0
   28.8412  -19.2655   -4.6151 C   0  0  0  0  0  0  0  0  0  0  0  0
   30.0964  -19.8338   -4.5963 C   0  0  0  0  0  0  0  0  0  0  0  0
   30.4566  -20.6632   -5.6317 C   0  0  0  0  0  0  0  0  0  0  0  0
   29.5932  -20.9351   -6.6800 C   0  0  0  0  0  0  0  0  0  0  0  0
   28.3282  -20.3670   -6.7060 C   0  0  0  0  0  0  0  0  0  0  0  0
   26.5181  -21.2240  -11.2435 C   0  0  0  0  0  0  0  0  0  0  0  0
   27.5831  -21.7586  -11.6389 O   0  0  0  0  0  0  0  0  0  0  0  0
   23.1464  -21.1346  -13.6153 O   0  0  0  0  0  0  0  0  0  0  0  0
   23.8723  -22.3162  -13.6882 C   0  0  0  0  0  0  0  0  0  0  0  0
   25.3361  -22.0491  -13.3228 C   0  0  2  0  0  0  0  0  0  0  0  0
   25.3558  -21.3995  -12.0223 N   0  0  0  0  0  0  0  0  0  0  0  0
   26.0521  -21.2778  -14.3387 C   0  0  0  0  0  0  0  0  0  0  0  0
   25.9242  -20.0119  -14.3844 O   0  0  0  0  0  0  0  0  0  0  0  0
   28.7786  -21.7527  -16.9060 C   0  0  0  0  0  0  0  0  0  0  0  0
   27.5923  -21.0282  -16.3142 C   0  0  2  0  0  0  0  0  0  0  0  0
   26.9121  -21.8344  -15.3178 N   0  0  0  0  0  0  0  0  0  0  0  0
   26.6499  -20.7531  -17.4149 C   0  0  0  0  0  0  0  0  0  0  0  0
   26.9122  -19.7709  -18.3473 O   0  0  0  0  0  0  0  0  0  0  0  0
   25.5973  -21.4220  -17.5019 O   0  0  0  0  0  0  0  0  0  0  0  0
  2  1  1  1
  2 13  1  0
  3  2  1  0
  3  4  1  0
  4 12  1  0
  5  4  2  0
  5  6  1  0
  6  7  1  0
  7  8  2  0
  8  9  1  0
 10  9  2  0
 11 10  1  0
 12 11  2  0
 12  7  1  0
 13 14  2  0
 16 15  1  0
 17 16  1  6
 17 19  1  0
 18 17  1  0
 18 13  1  0
 19 20  2  0
 19 23  1  0
 22 21  1  6
 23 22  1  0
 24 25  1  0
 24 22  1  0
 26 24  2  0
M  END
$$$$
