WSA.pdb
     RDKit          3D

 26 27  0  0  1  0  0  0  0  0999 V2000
   24.3686  -20.0448  -11.3119 N   0  0  0  0  0  0  0  0  0  0  0  0
   25.8213  -20.1003  -11.4941 C   0  0  1  0  0  0  0  0  0  0  0  0
   26.3155  -21.2132  -10.6089 C   0  0  0  0  0  0  0  0  0  0  0  0
   26.3986  -20.8491   -9.1878 C   0  0  0  0  0  0  0  0  0  0  0  0
   25.3267  -20.7066   -8.3406 C   0  0  0  0  0  0  0  0  0  0  0  0
   25.7720  -20.3667   -7.0942 N   0  0  0  0  0  0  0  0  0  0  0  0
   27.1223  -20.2869   -7.1228 C   0  0  0  0  0  0  0  0  0  0  0  0
   28.0359  -19.9809   -6.1349 C   0  0  0  0  0  0  0  0  0  0  0  0
   29.3832  -19.9657   -6.4237 C   0  0  0  0  0  0  0  0  0  0  0  0
   29.7826  -20.2601   -7.7058 C   0  0  0  0  0  0  0  0  0  0  0  0
   28.8686  -20.5677   -8.6999 C   0  0  0  0  0  0  0  0  0  0  0  0
   27.5109  -20.5851   -8.4169 C   0  0  0  0  0  0  0  0  0  0  0  0
   26.0433  -20.3682  -12.9284 C   0  0  0  0  0  0  0  0  0  0  0  0
   25.1947  -21.0750  -13.5259 O   0  0  0  0  0  0  0  0  0  0  0  0
   28.4845  -19.1225  -16.9566 O   0  0  0  0  0  0  0  0  0  0  0  0
   28.2179  -18.9374  -15.6063 C   0  0  0  0  0  0  0  0  0  0  0  0
   27.3056  -20.0591  -15.0993 C   0  0  2  0  0  0  0  0  0  0  0  0
   27.1430  -19.8828  -13.6654 N   0  0  0  0  0  0  0  0  0  0  0  0
   27.7908  -21.3958  -15.4420 C   0  0  0  0  0  0  0  0  0  0  0  0
   28.7157  -21.9337  -14.7520 O   0  0  0  0  0  0  0  0  0  0  0  0
   26.9147  -24.2841  -17.7151 C   0  0  0  0  0  0  0  0  0  0  0  0
   27.8602  -23.4769  -16.8567 C   0  0  2  0  0  0  0  0  0  0  0  0
   27.3042  -22.1804  -16.5171 N   0  0  0  0  0  0  0  0  0  0  0  0
   29.0935  -23.2660  -17.6377 C   0  0  0  0  0  0  0  0  0  0  0  0
   30.0436  -24.2598  -17.7492 O   0  0  0  0  0  0  0  0  0  0  0  0
   29.2783  -22.1682  -18.2066 O   0  0  0  0  0  0  0  0  0  0  0  0
  2  1  1  6
  2 13  1  0
  3  2  1  0
  3  4  1  0
  4 12  1  0
  5  4  2  0
  5  6  1  0
  6  7  1  0
  7  8  2  0
  8  9  1  0
 10  9  2  0
 11 10  1  0
 12 11  2  0
 12  7  1  0
 13 14  2  0
 16 15  1  0
 17 16  1  1
 17 19  1  0
 18 17  1  0
 18 13  1  0
 19 20  2  0
 19 23  1  0
 22 21  1  6
 23 22  1  0
 24 25  1  0
 24 22  1  0
 26 24  2  0
M  END
$$$$
