WSA.pdb
     RDKit          3D

 26 27  0  0  1  0  0  0  0  0999 V2000
   27.8562  -21.7040  -10.8765 N   0  0  0  0  0  0  0  0  0  0  0  0
   26.7596  -21.0387  -10.1684 C   0  0  1  0  0  0  0  0  0  0  0  0
   27.3768  -19.8863   -9.4220 C   0  0  0  0  0  0  0  0  0  0  0  0
   28.3157  -20.2960   -8.3686 C   0  0  0  0  0  0  0  0  0  0  0  0
   29.4840  -20.9893   -8.5719 C   0  0  0  0  0  0  0  0  0  0  0  0
   30.1069  -21.1957   -7.3733 N   0  0  0  0  0  0  0  0  0  0  0  0
   29.3552  -20.6435   -6.3931 C   0  0  0  0  0  0  0  0  0  0  0  0
   29.5449  -20.5820   -5.0276 C   0  0  0  0  0  0  0  0  0  0  0  0
   28.6144  -19.9510   -4.2309 C   0  0  0  0  0  0  0  0  0  0  0  0
   27.5090  -19.3938   -4.8289 C   0  0  0  0  0  0  0  0  0  0  0  0
   27.3153  -19.4536   -6.1989 C   0  0  0  0  0  0  0  0  0  0  0  0
   28.2474  -20.0868   -7.0074 C   0  0  0  0  0  0  0  0  0  0  0  0
   25.8069  -20.6028  -11.2080 C   0  0  0  0  0  0  0  0  0  0  0  0
   26.1967  -19.7339  -12.0263 O   0  0  0  0  0  0  0  0  0  0  0  0
   23.3585  -23.0638  -12.8054 O   0  0  0  0  0  0  0  0  0  0  0  0
   23.5735  -21.8468  -13.4388 C   0  0  0  0  0  0  0  0  0  0  0  0
   23.5799  -20.7173  -12.4035 C   0  0  2  0  0  0  0  0  0  0  0  0
   24.4933  -21.0986  -11.3386 N   0  0  0  0  0  0  0  0  0  0  0  0
   22.2463  -20.3901  -11.8994 C   0  0  0  0  0  0  0  0  0  0  0  0
   21.8422  -20.8867  -10.7989 O   0  0  0  0  0  0  0  0  0  0  0  0
   19.2143  -18.3444  -12.9326 C   0  0  0  0  0  0  0  0  0  0  0  0
   19.9658  -19.3396  -12.0798 C   0  0  2  0  0  0  0  0  0  0  0  0
   21.3243  -19.5340  -12.5512 N   0  0  0  0  0  0  0  0  0  0  0  0
   19.2511  -20.6266  -12.1712 C   0  0  0  0  0  0  0  0  0  0  0  0
   18.1782  -20.9044  -11.3500 O   0  0  0  0  0  0  0  0  0  0  0  0
   19.6259  -21.4776  -13.0069 O   0  0  0  0  0  0  0  0  0  0  0  0
  2  1  1  6
  2 13  1  0
  3  2  1  0
  3  4  1  0
  4 12  1  0
  5  4  2  0
  5  6  1  0
  6  7  1  0
  7  8  2  0
  8  9  1  0
 10  9  2  0
 11 10  1  0
 12 11  2  0
 12  7  1  0
 13 14  2  0
 16 15  1  0
 17 16  1  6
 17 19  1  0
 18 17  1  0
 18 13  1  0
 19 20  2  0
 19 23  1  0
 22 21  1  6
 23 22  1  0
 24 25  1  0
 24 22  1  0
 26 24  2  0
M  END
$$$$
