WSA.pdb
     RDKit          3D

 26 27  0  0  1  0  0  0  0  0999 V2000
   27.7914  -37.1832  -10.7173 N   0  0  0  0  0  0  0  0  0  0  0  0
   27.8588  -35.9061  -10.0026 C   0  0  1  0  0  0  0  0  0  0  0  0
   26.4769  -35.3125  -10.0676 C   0  0  0  0  0  0  0  0  0  0  0  0
   26.3635  -33.9994   -9.4180 C   0  0  0  0  0  0  0  0  0  0  0  0
   26.7381  -32.8020   -9.9771 C   0  0  0  0  0  0  0  0  0  0  0  0
   26.4882  -31.7884   -9.0953 N   0  0  0  0  0  0  0  0  0  0  0  0
   25.9551  -32.3151   -7.9688 C   0  0  0  0  0  0  0  0  0  0  0  0
   25.5354  -31.7192   -6.7971 C   0  0  0  0  0  0  0  0  0  0  0  0
   25.0193  -32.4907   -5.7786 C   0  0  0  0  0  0  0  0  0  0  0  0
   24.9367  -33.8505   -5.9631 C   0  0  0  0  0  0  0  0  0  0  0  0
   25.3569  -34.4521   -7.1377 C   0  0  0  0  0  0  0  0  0  0  0  0
   25.8774  -33.6823   -8.1673 C   0  0  0  0  0  0  0  0  0  0  0  0
   28.2783  -36.2303   -8.6251 C   0  0  0  0  0  0  0  0  0  0  0  0
   27.8064  -37.2703   -8.1033 O   0  0  0  0  0  0  0  0  0  0  0  0
   31.4883  -35.5306   -5.0694 O   0  0  0  0  0  0  0  0  0  0  0  0
   30.9440  -35.0891   -6.2682 C   0  0  0  0  0  0  0  0  0  0  0  0
   29.6006  -35.7834   -6.5149 C   0  0  2  0  0  0  0  0  0  0  0  0
   29.1709  -35.4490   -7.8629 N   0  0  0  0  0  0  0  0  0  0  0  0
   28.5883  -35.4525   -5.5122 C   0  0  0  0  0  0  0  0  0  0  0  0
   27.9396  -34.3604   -5.5987 O   0  0  0  0  0  0  0  0  0  0  0  0
   26.9096  -37.0285   -2.4972 C   0  0  0  0  0  0  0  0  0  0  0  0
   27.2644  -35.8818   -3.4145 C   0  0  2  0  0  0  0  0  0  0  0  0
   28.2487  -36.2716   -4.4069 N   0  0  0  0  0  0  0  0  0  0  0  0
   27.8417  -34.8117   -2.5795 C   0  0  0  0  0  0  0  0  0  0  0  0
   29.1278  -34.3600   -2.7910 O   0  0  0  0  0  0  0  0  0  0  0  0
   27.1525  -34.3080   -1.6662 O   0  0  0  0  0  0  0  0  0  0  0  0
  2  1  1  6
  2 13  1  0
  3  2  1  0
  3  4  1  0
  4 12  1  0
  5  4  2  0
  5  6  1  0
  6  7  1  0
  7  8  2  0
  8  9  1  0
 10  9  2  0
 11 10  1  0
 12 11  2  0
 12  7  1  0
 13 14  2  0
 16 15  1  0
 17 16  1  1
 17 19  1  0
 18 17  1  0
 18 13  1  0
 19 20  2  0
 19 23  1  0
 22 21  1  1
 23 22  1  0
 24 25  1  0
 24 22  1  0
 26 24  2  0
M  END
$$$$
