WSA.pdb
     RDKit          3D

 26 27  0  0  1  0  0  0  0  0999 V2000
   27.7381  -20.7246  -11.8784 N   0  0  0  0  0  0  0  0  0  0  0  0
   26.5427  -21.4653  -11.4675 C   0  0  1  0  0  0  0  0  0  0  0  0
   25.7914  -20.5642  -10.5242 C   0  0  0  0  0  0  0  0  0  0  0  0
   26.5009  -20.2988   -9.2651 C   0  0  0  0  0  0  0  0  0  0  0  0
   26.0017  -19.5751   -8.2097 C   0  0  0  0  0  0  0  0  0  0  0  0
   26.9279  -19.5337   -7.2058 N   0  0  0  0  0  0  0  0  0  0  0  0
   28.0240  -20.2231   -7.5983 C   0  0  0  0  0  0  0  0  0  0  0  0
   29.2188  -20.4735   -6.9549 C   0  0  0  0  0  0  0  0  0  0  0  0
   30.1956  -21.2167   -7.5814 C   0  0  0  0  0  0  0  0  0  0  0  0
   29.9469  -21.6932   -8.8467 C   0  0  0  0  0  0  0  0  0  0  0  0
   28.7490  -21.4439   -9.4955 C   0  0  0  0  0  0  0  0  0  0  0  0
   27.7610  -20.6968   -8.8714 C   0  0  0  0  0  0  0  0  0  0  0  0
   25.7926  -21.7502  -12.7063 C   0  0  0  0  0  0  0  0  0  0  0  0
   26.2378  -21.2719  -13.7785 O   0  0  0  0  0  0  0  0  0  0  0  0
   21.8937  -23.3844  -12.6026 O   0  0  0  0  0  0  0  0  0  0  0  0
   22.7200  -23.7051  -13.6716 C   0  0  0  0  0  0  0  0  0  0  0  0
   23.7240  -22.5722  -13.9091 C   0  0  2  0  0  0  0  0  0  0  0  0
   24.6135  -22.5216  -12.7602 N   0  0  0  0  0  0  0  0  0  0  0  0
   23.0859  -21.2828  -14.1735 C   0  0  0  0  0  0  0  0  0  0  0  0
   22.6862  -20.5598  -13.2049 O   0  0  0  0  0  0  0  0  0  0  0  0
   22.2580  -19.0437  -17.1264 C   0  0  0  0  0  0  0  0  0  0  0  0
   22.2026  -19.4675  -15.6774 C   0  0  2  0  0  0  0  0  0  0  0  0
   22.8635  -20.7416  -15.4641 N   0  0  0  0  0  0  0  0  0  0  0  0
   20.7803  -19.6128  -15.3147 C   0  0  0  0  0  0  0  0  0  0  0  0
   20.0059  -18.5108  -15.0169 O   0  0  0  0  0  0  0  0  0  0  0  0
   20.2710  -20.7540  -15.2772 O   0  0  0  0  0  0  0  0  0  0  0  0
  2  1  1  6
  2 13  1  0
  3  2  1  0
  3  4  1  0
  4 12  1  0
  5  4  2  0
  5  6  1  0
  6  7  1  0
  7  8  2  0
  8  9  1  0
 10  9  2  0
 11 10  1  0
 12 11  2  0
 12  7  1  0
 13 14  2  0
 16 15  1  0
 17 16  1  1
 17 19  1  0
 18 17  1  0
 18 13  1  0
 19 20  2  0
 19 23  1  0
 22 21  1  6
 23 22  1  0
 24 25  1  0
 24 22  1  0
 26 24  2  0
M  END
$$$$
