WSA.pdb
     RDKit          3D

 26 27  0  0  1  0  0  0  0  0999 V2000
   23.7901  -15.8912  -17.4659 N   0  0  0  0  0  0  0  0  0  0  0  0
   23.8042  -15.9498  -16.0020 C   0  0  1  0  0  0  0  0  0  0  0  0
   24.9061  -15.0275  -15.5533 C   0  0  0  0  0  0  0  0  0  0  0  0
   26.2311  -15.3866  -16.0771 C   0  0  0  0  0  0  0  0  0  0  0  0
   26.8971  -14.7201  -17.0767 C   0  0  0  0  0  0  0  0  0  0  0  0
   28.1012  -15.3246  -17.3049 N   0  0  0  0  0  0  0  0  0  0  0  0
   28.2244  -16.3772  -16.4637 C   0  0  0  0  0  0  0  0  0  0  0  0
   29.2408  -17.2962  -16.3005 C   0  0  0  0  0  0  0  0  0  0  0  0
   29.1225  -18.2934  -15.3569 C   0  0  0  0  0  0  0  0  0  0  0  0
   27.9791  -18.3436  -14.5955 C   0  0  0  0  0  0  0  0  0  0  0  0
   26.9569  -17.4230  -14.7564 C   0  0  0  0  0  0  0  0  0  0  0  0
   27.0686  -16.4164  -15.7040 C   0  0  0  0  0  0  0  0  0  0  0  0
   22.4683  -15.5020  -15.5623 C   0  0  0  0  0  0  0  0  0  0  0  0
   22.2713  -15.3864  -14.3276 O   0  0  0  0  0  0  0  0  0  0  0  0
   20.4240  -12.8667  -17.3051 O   0  0  0  0  0  0  0  0  0  0  0  0
   19.9442  -13.3128  -16.0806 C   0  0  0  0  0  0  0  0  0  0  0  0
   20.0665  -14.8380  -16.0002 C   0  0  2  0  0  0  0  0  0  0  0  0
   21.4054  -15.1980  -16.4375 N   0  0  0  0  0  0  0  0  0  0  0  0
   19.0291  -15.5400  -16.7556 C   0  0  0  0  0  0  0  0  0  0  0  0
   19.1961  -15.7801  -17.9947 O   0  0  0  0  0  0  0  0  0  0  0  0
   15.9751  -17.6310  -16.1846 C   0  0  0  0  0  0  0  0  0  0  0  0
   16.7898  -16.6618  -17.0087 C   0  0  2  0  0  0  0  0  0  0  0  0
   17.8034  -15.9972  -16.2110 N   0  0  0  0  0  0  0  0  0  0  0  0
   15.8630  -15.6403  -17.5314 C   0  0  0  0  0  0  0  0  0  0  0  0
   14.9175  -15.9583  -18.4841 O   0  0  0  0  0  0  0  0  0  0  0  0
   15.9378  -14.4683  -17.1026 O   0  0  0  0  0  0  0  0  0  0  0  0
  2  1  1  6
  2 13  1  0
  3  2  1  0
  3  4  1  0
  4 12  1  0
  5  4  2  0
  5  6  1  0
  6  7  1  0
  7  8  2  0
  8  9  1  0
 10  9  2  0
 11 10  1  0
 12 11  2  0
 12  7  1  0
 13 14  2  0
 16 15  1  0
 17 16  1  6
 17 19  1  0
 18 17  1  0
 18 13  1  0
 19 20  2  0
 19 23  1  0
 22 21  1  1
 23 22  1  0
 24 25  1  0
 24 22  1  0
 26 24  2  0
M  END
$$$$
