WSA.pdb
     RDKit          3D

 26 27  0  0  1  0  0  0  0  0999 V2000
   26.0349  -22.9562  -12.1790 N   0  0  0  0  0  0  0  0  0  0  0  0
   25.4453  -21.7095  -11.6843 C   0  0  1  0  0  0  0  0  0  0  0  0
   26.4865  -20.6411  -11.8859 C   0  0  0  0  0  0  0  0  0  0  0  0
   27.5879  -20.6947  -10.9148 C   0  0  0  0  0  0  0  0  0  0  0  0
   28.8811  -21.0598  -11.2002 C   0  0  0  0  0  0  0  0  0  0  0  0
   29.6360  -20.9923  -10.0632 N   0  0  0  0  0  0  0  0  0  0  0  0
   28.8466  -20.5872   -9.0418 C   0  0  0  0  0  0  0  0  0  0  0  0
   29.1268  -20.3666   -7.7087 C   0  0  0  0  0  0  0  0  0  0  0  0
   28.1287  -19.9491   -6.8552 C   0  0  0  0  0  0  0  0  0  0  0  0
   26.8657  -19.7622   -7.3647 C   0  0  0  0  0  0  0  0  0  0  0  0
   26.5807  -19.9825   -8.7020 C   0  0  0  0  0  0  0  0  0  0  0  0
   27.5800  -20.4028   -9.5672 C   0  0  0  0  0  0  0  0  0  0  0  0
   24.2301  -21.4840  -12.4910 C   0  0  0  0  0  0  0  0  0  0  0  0
   24.3447  -21.5312  -13.7405 O   0  0  0  0  0  0  0  0  0  0  0  0
   20.7149  -20.0072  -10.8438 O   0  0  0  0  0  0  0  0  0  0  0  0
   20.5581  -21.0099  -11.7916 C   0  0  0  0  0  0  0  0  0  0  0  0
   21.7571  -21.0140  -12.7456 C   0  0  2  0  0  0  0  0  0  0  0  0
   22.9555  -21.2200  -11.9488 N   0  0  0  0  0  0  0  0  0  0  0  0
   21.8406  -19.8094  -13.5713 C   0  0  0  0  0  0  0  0  0  0  0  0
   22.2443  -18.7149  -13.0616 O   0  0  0  0  0  0  0  0  0  0  0  0
   21.9353  -18.7949  -17.1624 C   0  0  0  0  0  0  0  0  0  0  0  0
   21.5813  -18.5224  -15.7192 C   0  0  2  0  0  0  0  0  0  0  0  0
   21.4993  -19.7471  -14.9453 N   0  0  0  0  0  0  0  0  0  0  0  0
   20.2576  -17.8718  -15.7053 C   0  0  0  0  0  0  0  0  0  0  0  0
   20.1198  -16.5330  -16.0076 O   0  0  0  0  0  0  0  0  0  0  0  0
   19.2462  -18.5467  -15.4145 O   0  0  0  0  0  0  0  0  0  0  0  0
  2  1  1  6
  2 13  1  0
  3  2  1  0
  3  4  1  0
  4 12  1  0
  5  4  2  0
  5  6  1  0
  6  7  1  0
  7  8  2  0
  8  9  1  0
 10  9  2  0
 11 10  1  0
 12 11  2  0
 12  7  1  0
 13 14  2  0
 16 15  1  0
 17 16  1  1
 17 19  1  0
 18 17  1  0
 18 13  1  0
 19 20  2  0
 19 23  1  0
 22 21  1  6
 23 22  1  0
 24 25  1  0
 24 22  1  0
 26 24  2  0
M  END
$$$$
