WSA.pdb
     RDKit          3D

 26 27  0  0  1  0  0  0  0  0999 V2000
   15.4714  -13.2597    3.3889 N   0  0  0  0  0  0  0  0  0  0  0  0
   16.4369  -14.0049    4.2008 C   0  0  1  0  0  0  0  0  0  0  0  0
   17.5031  -14.4858    3.2531 C   0  0  0  0  0  0  0  0  0  0  0  0
   17.2011  -15.7804    2.6271 C   0  0  0  0  0  0  0  0  0  0  0  0
   16.6584  -15.9504    1.3767 C   0  0  0  0  0  0  0  0  0  0  0  0
   16.5179  -17.2848    1.1176 N   0  0  0  0  0  0  0  0  0  0  0  0
   16.9637  -17.9835    2.1870 C   0  0  0  0  0  0  0  0  0  0  0  0
   17.0342  -19.3418    2.4201 C   0  0  0  0  0  0  0  0  0  0  0  0
   17.5381  -19.8104    3.6139 C   0  0  0  0  0  0  0  0  0  0  0  0
   17.9616  -18.8975    4.5505 C   0  0  0  0  0  0  0  0  0  0  0  0
   17.8924  -17.5336    4.3202 C   0  0  0  0  0  0  0  0  0  0  0  0
   17.3865  -17.0543    3.1210 C   0  0  0  0  0  0  0  0  0  0  0  0
   16.9501  -13.0510    5.2034 C   0  0  0  0  0  0  0  0  0  0  0  0
   17.3357  -11.9285    4.7938 O   0  0  0  0  0  0  0  0  0  0  0  0
   17.0759  -14.0018    9.2626 O   0  0  0  0  0  0  0  0  0  0  0  0
   16.8737  -12.6757    8.9033 C   0  0  0  0  0  0  0  0  0  0  0  0
   17.5656  -12.3892    7.5666 C   0  0  2  0  0  0  0  0  0  0  0  0
   17.0339  -13.3205    6.5849 N   0  0  0  0  0  0  0  0  0  0  0  0
   19.0249  -12.4444    7.6496 C   0  0  0  0  0  0  0  0  0  0  0  0
   19.6309  -13.5511    7.4794 O   0  0  0  0  0  0  0  0  0  0  0  0
   21.9565  -10.1070    8.2658 C   0  0  0  0  0  0  0  0  0  0  0  0
   21.2930  -11.4558    8.1139 C   0  0  2  0  0  0  0  0  0  0  0  0
   19.8614  -11.3312    7.9126 N   0  0  0  0  0  0  0  0  0  0  0  0
   21.5255  -12.2045    9.3633 C   0  0  0  0  0  0  0  0  0  0  0  0
   22.7957  -12.5959    9.7323 O   0  0  0  0  0  0  0  0  0  0  0  0
   20.5541  -12.4877   10.0977 O   0  0  0  0  0  0  0  0  0  0  0  0
  2  1  1  6
  2 13  1  0
  3  2  1  0
  3  4  1  0
  4 12  1  0
  5  4  2  0
  5  6  1  0
  6  7  1  0
  7  8  2  0
  8  9  1  0
 10  9  2  0
 11 10  1  0
 12 11  2  0
 12  7  1  0
 13 14  2  0
 16 15  1  0
 17 16  1  1
 17 19  1  0
 18 17  1  0
 18 13  1  0
 19 20  2  0
 19 23  1  0
 22 21  1  1
 23 22  1  0
 24 25  1  0
 24 22  1  0
 26 24  2  0
M  END
$$$$
