SEY.pdb
     RDKit          3D

 28 28  0  0  1  0  0  0  0  0999 V2000
   25.7818  -14.3799  -18.9993 O   0  0  0  0  0  0  0  0  0  0  0  0
   27.1365  -14.6747  -18.8521 C   0  0  0  0  0  0  0  0  0  0  0  0
   27.5166  -15.6266  -19.9641 C   0  0  2  0  0  0  0  0  0  0  0  0
   26.9616  -15.0991  -21.1967 N   0  0  0  0  0  0  0  0  0  0  0  0
   27.0099  -16.9996  -19.7125 C   0  0  0  0  0  0  0  0  0  0  0  0
   25.9906  -17.3923  -20.3287 O   0  0  0  0  0  0  0  0  0  0  0  0
   27.6629  -17.8731  -18.7848 N   0  0  0  0  0  0  0  0  0  0  0  0
   27.2211  -19.1701  -18.4236 C   0  0  1  0  0  0  0  0  0  0  0  0
   28.2426  -20.1217  -17.9252 C   0  0  0  0  0  0  0  0  0  0  0  0
   27.7976  -21.5177  -17.6770 C   0  0  0  0  0  0  0  0  0  0  0  0
   28.9484  -22.3119  -17.1559 C   0  0  0  0  0  0  0  0  0  0  0  0
   28.7873  -23.5115  -16.8788 O   0  0  0  0  0  0  0  0  0  0  0  0
   25.9588  -19.2122  -17.6243 C   0  0  0  0  0  0  0  0  0  0  0  0
   25.7554  -18.2444  -16.8524 O   0  0  0  0  0  0  0  0  0  0  0  0
   30.2052  -21.7615  -16.9655 O   0  0  0  0  0  0  0  0  0  0  0  0
   19.1651  -19.7936  -12.5136 O   0  0  0  0  0  0  0  0  0  0  0  0
   20.3457  -19.7491  -13.2577 C   0  0  0  0  0  0  0  0  0  0  0  0
   21.1088  -20.8850  -13.4250 C   0  0  0  0  0  0  0  0  0  0  0  0
   22.2732  -20.8377  -14.1600 C   0  0  0  0  0  0  0  0  0  0  0  0
   22.7379  -19.6633  -14.7648 C   0  0  0  0  0  0  0  0  0  0  0  0
   24.0050  -19.6628  -15.5288 C   0  0  0  0  0  0  0  0  0  0  0  0
   23.7528  -20.2009  -16.8986 C   0  0  2  0  0  0  0  0  0  0  0  0
   25.0055  -20.2487  -17.6788 N   0  0  0  0  0  0  0  0  0  0  0  0
   22.7187  -19.4900  -17.6753 C   0  0  0  0  0  0  0  0  0  0  0  0
   22.9865  -18.5658  -18.4733 O   0  0  0  0  0  0  0  0  0  0  0  0
   21.9658  -18.5344  -14.5897 C   0  0  0  0  0  0  0  0  0  0  0  0
   20.7938  -18.5875  -13.8486 C   0  0  0  0  0  0  0  0  0  0  0  0
   21.3895  -19.8511  -17.5246 O   0  0  0  0  0  0  0  0  0  0  0  0
  2  1  1  0
  2  3  1  0
  3  5  1  0
  3  4  1  6
  5  6  2  0
  7  8  1  0
  7  5  1  0
  8  9  1  1
 10  9  1  0
 11 10  1  0
 11 15  1  0
 12 11  2  0
 13 14  2  0
 13  8  1  0
 16 17  1  0
 17 18  2  0
 17 27  1  0
 18 19  1  0
 19 20  2  0
 20 21  1  0
 22 21  1  1
 22 24  1  0
 22 23  1  0
 23 13  1  0
 24 28  1  0
 25 24  2  0
 26 20  1  0
 27 26  2  0
M  END
$$$$
