SEY.pdb
     RDKit          3D

 28 28  0  0  1  0  0  0  0  0999 V2000
   27.3400  -23.8097  -16.9170 O   0  0  0  0  0  0  0  0  0  0  0  0
   28.6041  -24.1819  -16.4617 C   0  0  0  0  0  0  0  0  0  0  0  0
   29.2169  -25.0821  -17.5111 C   0  0  2  0  0  0  0  0  0  0  0  0
   29.4959  -24.2642  -18.6766 N   0  0  0  0  0  0  0  0  0  0  0  0
   28.3143  -26.2057  -17.8694 C   0  0  0  0  0  0  0  0  0  0  0  0
   27.4495  -26.0284  -18.7602 O   0  0  0  0  0  0  0  0  0  0  0  0
   28.4170  -27.4766  -17.2181 N   0  0  0  0  0  0  0  0  0  0  0  0
   27.5643  -28.5866  -17.4387 C   0  0  1  0  0  0  0  0  0  0  0  0
   27.9171  -29.8591  -16.7651 C   0  0  0  0  0  0  0  0  0  0  0  0
   27.0846  -31.0462  -17.0907 C   0  0  0  0  0  0  0  0  0  0  0  0
   27.5859  -32.2209  -16.3190 C   0  0  0  0  0  0  0  0  0  0  0  0
   27.0604  -33.3330  -16.4891 O   0  0  0  0  0  0  0  0  0  0  0  0
   26.1013  -28.2878  -17.3715 C   0  0  0  0  0  0  0  0  0  0  0  0
   25.7090  -27.6470  -16.3669 O   0  0  0  0  0  0  0  0  0  0  0  0
   28.6257  -32.1230  -15.4091 O   0  0  0  0  0  0  0  0  0  0  0  0
   17.8755  -25.8364  -18.5581 O   0  0  0  0  0  0  0  0  0  0  0  0
   19.2174  -26.1889  -18.7148 C   0  0  0  0  0  0  0  0  0  0  0  0
   20.1973  -25.5478  -17.9873 C   0  0  0  0  0  0  0  0  0  0  0  0
   21.5205  -25.8982  -18.1443 C   0  0  0  0  0  0  0  0  0  0  0  0
   21.9371  -26.9004  -19.0292 C   0  0  0  0  0  0  0  0  0  0  0  0
   23.3733  -27.2256  -19.1732 C   0  0  0  0  0  0  0  0  0  0  0  0
   23.7259  -28.3229  -18.2240 C   0  0  2  0  0  0  0  0  0  0  0  0
   25.1551  -28.6748  -18.3416 N   0  0  0  0  0  0  0  0  0  0  0  0
   22.9088  -29.5462  -18.3419 C   0  0  0  0  0  0  0  0  0  0  0  0
   23.2078  -30.4896  -19.1056 O   0  0  0  0  0  0  0  0  0  0  0  0
   20.9474  -27.5336  -19.7510 C   0  0  0  0  0  0  0  0  0  0  0  0
   19.6161  -27.1769  -19.5890 C   0  0  0  0  0  0  0  0  0  0  0  0
   21.7580  -29.6691  -17.5800 O   0  0  0  0  0  0  0  0  0  0  0  0
  2  1  1  0
  2  3  1  0
  3  5  1  0
  3  4  1  6
  5  6  2  0
  7  8  1  0
  7  5  1  0
  8  9  1  1
 10  9  1  0
 11 10  1  0
 11 15  1  0
 12 11  2  0
 13 14  2  0
 13  8  1  0
 16 17  1  0
 17 18  2  0
 17 27  1  0
 18 19  1  0
 19 20  2  0
 20 21  1  0
 22 21  1  6
 22 24  1  0
 22 23  1  0
 23 13  1  0
 24 28  1  0
 25 24  2  0
 26 20  1  0
 27 26  2  0
M  END
$$$$
