SEY.pdb
     RDKit          3D

 28 28  0  0  1  0  0  0  0  0999 V2000
   22.3133  -11.3535  -19.9077 O   0  0  0  0  0  0  0  0  0  0  0  0
   21.1219  -10.6483  -19.7436 C   0  0  0  0  0  0  0  0  0  0  0  0
   20.9793  -10.3362  -18.2706 C   0  0  2  0  0  0  0  0  0  0  0  0
   20.5326  -11.5487  -17.6105 N   0  0  0  0  0  0  0  0  0  0  0  0
   20.0173   -9.2304  -18.0315 C   0  0  0  0  0  0  0  0  0  0  0  0
   18.9011   -9.2636  -18.6023 O   0  0  0  0  0  0  0  0  0  0  0  0
   20.3436   -8.1373  -17.1663 N   0  0  0  0  0  0  0  0  0  0  0  0
   19.4782   -7.0671  -16.8288 C   0  0  1  0  0  0  0  0  0  0  0  0
   18.6158   -7.2409  -15.6357 C   0  0  0  0  0  0  0  0  0  0  0  0
   18.2882   -8.6352  -15.2395 C   0  0  0  0  0  0  0  0  0  0  0  0
   17.3849   -8.6061  -14.0522 C   0  0  0  0  0  0  0  0  0  0  0  0
   17.7932   -9.0409  -12.9631 O   0  0  0  0  0  0  0  0  0  0  0  0
   20.0922   -5.7063  -16.9001 C   0  0  0  0  0  0  0  0  0  0  0  0
   21.2159   -5.5728  -16.3585 O   0  0  0  0  0  0  0  0  0  0  0  0
   16.0936   -8.1085  -14.1130 O   0  0  0  0  0  0  0  0  0  0  0  0
   23.4690   -5.8191  -22.4817 O   0  0  0  0  0  0  0  0  0  0  0  0
   22.6589   -5.0662  -21.6294 C   0  0  0  0  0  0  0  0  0  0  0  0
   21.3230   -5.3738  -21.4836 C   0  0  0  0  0  0  0  0  0  0  0  0
   20.5264   -4.6289  -20.6417 C   0  0  0  0  0  0  0  0  0  0  0  0
   21.0143   -3.5435  -19.9036 C   0  0  0  0  0  0  0  0  0  0  0  0
   20.1117   -2.7649  -19.0272 C   0  0  0  0  0  0  0  0  0  0  0  0
   20.2032   -3.2939  -17.6339 C   0  0  2  0  0  0  0  0  0  0  0  0
   19.5005   -4.5875  -17.5201 N   0  0  0  0  0  0  0  0  0  0  0  0
   19.7220   -2.3805  -16.5792 C   0  0  0  0  0  0  0  0  0  0  0  0
   18.8047   -2.6846  -15.7863 O   0  0  0  0  0  0  0  0  0  0  0  0
   22.3518   -3.2460  -20.0587 C   0  0  0  0  0  0  0  0  0  0  0  0
   23.1497   -3.9996  -20.9079 C   0  0  0  0  0  0  0  0  0  0  0  0
   20.3019   -1.1288  -16.4497 O   0  0  0  0  0  0  0  0  0  0  0  0
  2  1  1  0
  2  3  1  0
  3  5  1  0
  3  4  1  1
  5  6  2  0
  7  8  1  0
  7  5  1  0
  8  9  1  1
 10  9  1  0
 11 10  1  0
 11 15  1  0
 12 11  2  0
 13 14  2  0
 13  8  1  0
 16 17  1  0
 17 18  2  0
 17 27  1  0
 18 19  1  0
 19 20  2  0
 20 21  1  0
 22 21  1  6
 22 24  1  0
 22 23  1  0
 23 13  1  0
 24 28  1  0
 25 24  2  0
 26 20  1  0
 27 26  2  0
M  END
$$$$
