SEY.pdb
     RDKit          3D

 28 28  0  0  1  0  0  0  0  0999 V2000
   24.9792  -12.6014  -15.7816 O   0  0  0  0  0  0  0  0  0  0  0  0
   23.8419  -13.2004  -15.2419 C   0  0  0  0  0  0  0  0  0  0  0  0
   22.7564  -13.1412  -16.2933 C   0  0  2  0  0  0  0  0  0  0  0  0
   23.3410  -13.5793  -17.5470 N   0  0  0  0  0  0  0  0  0  0  0  0
   22.1963  -11.7728  -16.4318 C   0  0  0  0  0  0  0  0  0  0  0  0
   22.6340  -11.0275  -17.3406 O   0  0  0  0  0  0  0  0  0  0  0  0
   21.1732  -11.2971  -15.5505 N   0  0  0  0  0  0  0  0  0  0  0  0
   20.5161  -10.0456  -15.6505 C   0  0  1  0  0  0  0  0  0  0  0  0
   19.1967   -9.9159  -14.9873 C   0  0  0  0  0  0  0  0  0  0  0  0
   18.1369  -10.8703  -15.4049 C   0  0  0  0  0  0  0  0  0  0  0  0
   16.9584  -10.7170  -14.5025 C   0  0  0  0  0  0  0  0  0  0  0  0
   17.0197  -11.1467  -13.3391 O   0  0  0  0  0  0  0  0  0  0  0  0
   21.3876   -8.8508  -15.4338 C   0  0  0  0  0  0  0  0  0  0  0  0
   22.1289   -8.8779  -14.4221 O   0  0  0  0  0  0  0  0  0  0  0  0
   15.7835  -10.1080  -14.9118 O   0  0  0  0  0  0  0  0  0  0  0  0
   26.0986   -1.4742  -16.1642 O   0  0  0  0  0  0  0  0  0  0  0  0
   25.2534   -2.5494  -16.4455 C   0  0  0  0  0  0  0  0  0  0  0  0
   23.8889   -2.3652  -16.5157 C   0  0  0  0  0  0  0  0  0  0  0  0
   23.0577   -3.4283  -16.7936 C   0  0  0  0  0  0  0  0  0  0  0  0
   23.5376   -4.7249  -17.0155 C   0  0  0  0  0  0  0  0  0  0  0  0
   22.6001   -5.8355  -17.2925 C   0  0  0  0  0  0  0  0  0  0  0  0
   22.3562   -6.5983  -16.0323 C   0  0  2  0  0  0  0  0  0  0  0  0
   21.4258   -7.7193  -16.2730 N   0  0  0  0  0  0  0  0  0  0  0  0
   21.8718   -5.7957  -14.8925 C   0  0  0  0  0  0  0  0  0  0  0  0
   22.6414   -5.2485  -14.0734 O   0  0  0  0  0  0  0  0  0  0  0  0
   24.9039   -4.8959  -16.9421 C   0  0  0  0  0  0  0  0  0  0  0  0
   25.7366   -3.8217  -16.6620 C   0  0  0  0  0  0  0  0  0  0  0  0
   20.5081   -5.6323  -14.7091 O   0  0  0  0  0  0  0  0  0  0  0  0
  2  1  1  0
  2  3  1  0
  3  5  1  0
  3  4  1  6
  5  6  2  0
  7  8  1  0
  7  5  1  0
  8  9  1  1
 10  9  1  0
 11 10  1  0
 11 15  1  0
 12 11  2  0
 13 14  2  0
 13  8  1  0
 16 17  1  0
 17 18  2  0
 17 27  1  0
 18 19  1  0
 19 20  2  0
 20 21  1  0
 22 21  1  6
 22 24  1  0
 22 23  1  0
 23 13  1  0
 24 28  1  0
 25 24  2  0
 26 20  1  0
 27 26  2  0
M  END
$$$$
