SEY.pdb
     RDKit          3D

 28 28  0  0  1  0  0  0  0  0999 V2000
   17.8990  -13.7499  -14.7309 O   0  0  0  0  0  0  0  0  0  0  0  0
   16.6769  -13.2133  -15.1336 C   0  0  0  0  0  0  0  0  0  0  0  0
   16.8240  -12.7834  -16.5761 C   0  0  2  0  0  0  0  0  0  0  0  0
   17.3223  -13.9244  -17.3213 N   0  0  0  0  0  0  0  0  0  0  0  0
   17.7471  -11.6285  -16.7163 C   0  0  0  0  0  0  0  0  0  0  0  0
   18.8334  -11.7905  -17.3217 O   0  0  0  0  0  0  0  0  0  0  0  0
   17.4170  -10.3448  -16.1750 N   0  0  0  0  0  0  0  0  0  0  0  0
   18.2502   -9.1990  -16.2052 C   0  0  1  0  0  0  0  0  0  0  0  0
   17.6219   -7.8934  -15.8922 C   0  0  0  0  0  0  0  0  0  0  0  0
   18.4751   -6.6849  -16.0337 C   0  0  0  0  0  0  0  0  0  0  0  0
   18.0757   -5.6817  -15.0037 C   0  0  0  0  0  0  0  0  0  0  0  0
   18.9514   -5.0163  -14.4272 O   0  0  0  0  0  0  0  0  0  0  0  0
   19.5842   -9.3655  -15.5520 C   0  0  0  0  0  0  0  0  0  0  0  0
   19.6086  -10.0508  -14.5014 O   0  0  0  0  0  0  0  0  0  0  0  0
   16.7531   -5.4578  -14.6583 O   0  0  0  0  0  0  0  0  0  0  0  0
   28.2218  -10.2834  -16.2965 O   0  0  0  0  0  0  0  0  0  0  0  0
   26.8386  -10.3270  -16.1117 C   0  0  0  0  0  0  0  0  0  0  0  0
   25.9851  -10.0849  -17.1669 C   0  0  0  0  0  0  0  0  0  0  0  0
   24.6206  -10.1289  -16.9812 C   0  0  0  0  0  0  0  0  0  0  0  0
   24.0356  -10.4147  -15.7414 C   0  0  0  0  0  0  0  0  0  0  0  0
   22.5637  -10.4316  -15.5917 C   0  0  0  0  0  0  0  0  0  0  0  0
   22.0788   -9.0407  -15.3476 C   0  0  2  0  0  0  0  0  0  0  0  0
   20.7889   -8.8109  -16.0285 N   0  0  0  0  0  0  0  0  0  0  0  0
   23.0246   -7.9691  -15.7153 C   0  0  0  0  0  0  0  0  0  0  0  0
   23.0309   -7.4282  -16.8423 O   0  0  0  0  0  0  0  0  0  0  0  0
   24.9000  -10.6545  -14.6942 C   0  0  0  0  0  0  0  0  0  0  0  0
   26.2735  -10.6091  -14.8868 C   0  0  0  0  0  0  0  0  0  0  0  0
   23.9514   -7.5328  -14.7821 O   0  0  0  0  0  0  0  0  0  0  0  0
  2  1  1  0
  2  3  1  0
  3  5  1  0
  3  4  1  6
  5  6  2  0
  7  8  1  0
  7  5  1  0
  8  9  1  1
 10  9  1  0
 11 10  1  0
 11 15  1  0
 12 11  2  0
 13 14  2  0
 13  8  1  0
 16 17  1  0
 17 18  2  0
 17 27  1  0
 18 19  1  0
 19 20  2  0
 20 21  1  0
 22 21  1  6
 22 24  1  0
 22 23  1  0
 23 13  1  0
 24 28  1  0
 25 24  2  0
 26 20  1  0
 27 26  2  0
M  END
$$$$
