SEY.pdb
     RDKit          3D

 28 28  0  0  1  0  0  0  0  0999 V2000
   25.5543  -12.1685  -15.8073 O   0  0  0  0  0  0  0  0  0  0  0  0
   24.5671  -13.0593  -15.3882 C   0  0  0  0  0  0  0  0  0  0  0  0
   23.6879  -13.3559  -16.5824 C   0  0  2  0  0  0  0  0  0  0  0  0
   24.5595  -13.5592  -17.7244 N   0  0  0  0  0  0  0  0  0  0  0  0
   22.7302  -12.2529  -16.8501 C   0  0  0  0  0  0  0  0  0  0  0  0
   23.0391  -11.3714  -17.6870 O   0  0  0  0  0  0  0  0  0  0  0  0
   21.4711  -12.1826  -16.1723 N   0  0  0  0  0  0  0  0  0  0  0  0
   20.5059  -11.1573  -16.3313 C   0  0  1  0  0  0  0  0  0  0  0  0
   19.0818  -11.5324  -16.1622 C   0  0  0  0  0  0  0  0  0  0  0  0
   18.6081  -12.7288  -16.9056 C   0  0  0  0  0  0  0  0  0  0  0  0
   17.7225  -13.5369  -16.0172 C   0  0  0  0  0  0  0  0  0  0  0  0
   16.8099  -14.2146  -16.5171 O   0  0  0  0  0  0  0  0  0  0  0  0
   20.8408   -9.8605  -15.6680 C   0  0  0  0  0  0  0  0  0  0  0  0
   21.3017   -9.9328  -14.5034 O   0  0  0  0  0  0  0  0  0  0  0  0
   17.8763  -13.5641  -14.6408 O   0  0  0  0  0  0  0  0  0  0  0  0
   21.8621   -1.1704  -14.3018 O   0  0  0  0  0  0  0  0  0  0  0  0
   21.9050   -2.4891  -14.7585 C   0  0  0  0  0  0  0  0  0  0  0  0
   21.5804   -2.7865  -16.0649 C   0  0  0  0  0  0  0  0  0  0  0  0
   21.6239   -4.0888  -16.5125 C   0  0  0  0  0  0  0  0  0  0  0  0
   21.9910   -5.1594  -15.6879 C   0  0  0  0  0  0  0  0  0  0  0  0
   22.0039   -6.5423  -16.2138 C   0  0  0  0  0  0  0  0  0  0  0  0
   20.9569   -7.3439  -15.5134 C   0  0  2  0  0  0  0  0  0  0  0  0
   20.6720   -8.5896  -16.2533 N   0  0  0  0  0  0  0  0  0  0  0  0
   19.6916   -6.6329  -15.2458 C   0  0  0  0  0  0  0  0  0  0  0  0
   18.7561   -6.5797  -16.0733 O   0  0  0  0  0  0  0  0  0  0  0  0
   22.3129   -4.8487  -14.3836 C   0  0  0  0  0  0  0  0  0  0  0  0
   22.2676   -3.5353  -13.9380 C   0  0  0  0  0  0  0  0  0  0  0  0
   19.5181   -5.9918  -14.0297 O   0  0  0  0  0  0  0  0  0  0  0  0
  2  1  1  0
  2  3  1  0
  3  5  1  0
  3  4  1  6
  5  6  2  0
  7  8  1  0
  7  5  1  0
  8  9  1  1
 10  9  1  0
 11 10  1  0
 11 15  1  0
 12 11  2  0
 13 14  2  0
 13  8  1  0
 16 17  1  0
 17 18  2  0
 17 27  1  0
 18 19  1  0
 19 20  2  0
 20 21  1  0
 22 21  1  6
 22 24  1  0
 22 23  1  0
 23 13  1  0
 24 28  1  0
 25 24  2  0
 26 20  1  0
 27 26  2  0
M  END
$$$$
