SEY.pdb
     RDKit          3D

 28 28  0  0  1  0  0  0  0  0999 V2000
   37.9260  -31.9982  -21.9630 O   0  0  0  0  0  0  0  0  0  0  0  0
   37.0163  -31.4803  -21.0422 C   0  0  0  0  0  0  0  0  0  0  0  0
   36.8298  -30.0146  -21.3646 C   0  0  2  0  0  0  0  0  0  0  0  0
   37.9220  -29.2900  -20.7419 N   0  0  0  0  0  0  0  0  0  0  0  0
   35.5234  -29.5041  -20.8768 C   0  0  0  0  0  0  0  0  0  0  0  0
   35.4412  -29.0727  -19.7021 O   0  0  0  0  0  0  0  0  0  0  0  0
   34.3672  -29.4978  -21.7212 N   0  0  0  0  0  0  0  0  0  0  0  0
   33.1119  -28.9269  -21.3950 C   0  0  1  0  0  0  0  0  0  0  0  0
   32.3682  -28.2523  -22.4855 C   0  0  0  0  0  0  0  0  0  0  0  0
   31.0853  -27.5972  -22.1201 C   0  0  0  0  0  0  0  0  0  0  0  0
   30.4852  -26.9836  -23.3407 C   0  0  0  0  0  0  0  0  0  0  0  0
   29.4169  -27.4317  -23.7877 O   0  0  0  0  0  0  0  0  0  0  0  0
   32.2298  -29.7773  -20.5391 C   0  0  0  0  0  0  0  0  0  0  0  0
   32.1204  -30.9812  -20.8747 O   0  0  0  0  0  0  0  0  0  0  0  0
   31.0760  -25.9217  -24.0055 O   0  0  0  0  0  0  0  0  0  0  0  0
   27.1866  -33.2848  -14.2687 O   0  0  0  0  0  0  0  0  0  0  0  0
   27.9335  -32.3764  -15.0214 C   0  0  0  0  0  0  0  0  0  0  0  0
   29.2910  -32.5539  -15.1838 C   0  0  0  0  0  0  0  0  0  0  0  0
   30.0250  -31.6558  -15.9273 C   0  0  0  0  0  0  0  0  0  0  0  0
   29.4502  -30.5387  -16.5459 C   0  0  0  0  0  0  0  0  0  0  0  0
   30.2873  -29.5945  -17.3186 C   0  0  0  0  0  0  0  0  0  0  0  0
   30.6239  -30.2043  -18.6393 C   0  0  2  0  0  0  0  0  0  0  0  0
   31.5258  -29.3220  -19.4063 N   0  0  0  0  0  0  0  0  0  0  0  0
   29.4666  -30.5707  -19.4786 C   0  0  0  0  0  0  0  0  0  0  0  0
   28.7275  -29.7212  -20.0217 O   0  0  0  0  0  0  0  0  0  0  0  0
   28.0920  -30.3724  -16.3755 C   0  0  0  0  0  0  0  0  0  0  0  0
   27.3574  -31.2801  -15.6258 C   0  0  0  0  0  0  0  0  0  0  0  0
   29.1737  -31.9095  -19.6828 O   0  0  0  0  0  0  0  0  0  0  0  0
  2  1  1  0
  2  3  1  0
  3  5  1  0
  3  4  1  1
  5  6  2  0
  7  8  1  0
  7  5  1  0
  8  9  1  6
 10  9  1  0
 11 10  1  0
 11 15  1  0
 12 11  2  0
 13 14  2  0
 13  8  1  0
 16 17  1  0
 17 18  2  0
 17 27  1  0
 18 19  1  0
 19 20  2  0
 20 21  1  0
 22 21  1  1
 22 24  1  0
 22 23  1  0
 23 13  1  0
 24 28  1  0
 25 24  2  0
 26 20  1  0
 27 26  2  0
M  END
$$$$
