SEY.pdb
     RDKit          3D

 28 28  0  0  1  0  0  0  0  0999 V2000
   28.6129  -24.9547  -17.0641 O   0  0  0  0  0  0  0  0  0  0  0  0
   27.8284  -23.9441  -16.5103 C   0  0  0  0  0  0  0  0  0  0  0  0
   28.1588  -22.6619  -17.2411 C   0  0  2  0  0  0  0  0  0  0  0  0
   29.4800  -22.2441  -16.8106 N   0  0  0  0  0  0  0  0  0  0  0  0
   27.1618  -21.5966  -16.9647 C   0  0  0  0  0  0  0  0  0  0  0  0
   27.3081  -20.8782  -15.9472 O   0  0  0  0  0  0  0  0  0  0  0  0
   26.0462  -21.3804  -17.8357 N   0  0  0  0  0  0  0  0  0  0  0  0
   25.0517  -20.3848  -17.6691 C   0  0  1  0  0  0  0  0  0  0  0  0
   24.4223  -19.8408  -18.8960 C   0  0  0  0  0  0  0  0  0  0  0  0
   23.3959  -18.7818  -18.7131 C   0  0  0  0  0  0  0  0  0  0  0  0
   23.1985  -18.0644  -20.0064 C   0  0  0  0  0  0  0  0  0  0  0  0
   23.4750  -18.6386  -21.0721 O   0  0  0  0  0  0  0  0  0  0  0  0
   24.0584  -20.6534  -16.5850 C   0  0  0  0  0  0  0  0  0  0  0  0
   23.6808  -21.8430  -16.4575 O   0  0  0  0  0  0  0  0  0  0  0  0
   22.7136  -16.7684  -20.0706 O   0  0  0  0  0  0  0  0  0  0  0  0
   18.5920  -20.2979   -9.6910 O   0  0  0  0  0  0  0  0  0  0  0  0
   19.5199  -19.9553  -10.6765 C   0  0  0  0  0  0  0  0  0  0  0  0
   20.8446  -20.3126  -10.5428 C   0  0  0  0  0  0  0  0  0  0  0  0
   21.7576  -19.9731  -11.5171 C   0  0  0  0  0  0  0  0  0  0  0  0
   21.4027  -19.2634  -12.6710 C   0  0  0  0  0  0  0  0  0  0  0  0
   22.4263  -18.9080  -13.6786 C   0  0  0  0  0  0  0  0  0  0  0  0
   22.5317  -20.0095  -14.6811 C   0  0  2  0  0  0  0  0  0  0  0  0
   23.5280  -19.6765  -15.7188 N   0  0  0  0  0  0  0  0  0  0  0  0
   21.2630  -20.3985  -15.3269 C   0  0  0  0  0  0  0  0  0  0  0  0
   20.7898  -19.7909  -16.3116 O   0  0  0  0  0  0  0  0  0  0  0  0
   20.0750  -18.9117  -12.7925 C   0  0  0  0  0  0  0  0  0  0  0  0
   19.1595  -19.2563  -11.8082 C   0  0  0  0  0  0  0  0  0  0  0  0
   20.5544  -21.4816  -14.8322 O   0  0  0  0  0  0  0  0  0  0  0  0
  2  1  1  0
  2  3  1  0
  3  5  1  0
  3  4  1  1
  5  6  2  0
  7  8  1  0
  7  5  1  0
  8  9  1  6
 10  9  1  0
 11 10  1  0
 11 15  1  0
 12 11  2  0
 13 14  2  0
 13  8  1  0
 16 17  1  0
 17 18  2  0
 17 27  1  0
 18 19  1  0
 19 20  2  0
 20 21  1  0
 22 21  1  1
 22 24  1  0
 22 23  1  0
 23 13  1  0
 24 28  1  0
 25 24  2  0
 26 20  1  0
 27 26  2  0
M  END
$$$$
