SEY.pdb
     RDKit          3D

 28 28  0  0  1  0  0  0  0  0999 V2000
   13.5429  -12.2000  -16.4488 O   0  0  0  0  0  0  0  0  0  0  0  0
   14.7080  -11.5724  -16.0102 C   0  0  0  0  0  0  0  0  0  0  0  0
   15.7763  -12.6357  -15.8864 C   0  0  2  0  0  0  0  0  0  0  0  0
   15.4039  -13.4998  -14.7818 N   0  0  0  0  0  0  0  0  0  0  0  0
   17.1186  -12.0448  -15.6535 C   0  0  0  0  0  0  0  0  0  0  0  0
   17.3575  -11.4982  -14.5503 O   0  0  0  0  0  0  0  0  0  0  0  0
   18.1343  -12.0899  -16.6616 N   0  0  0  0  0  0  0  0  0  0  0  0
   19.3895  -11.4356  -16.5963 C   0  0  1  0  0  0  0  0  0  0  0  0
   20.5512  -12.1322  -17.1984 C   0  0  0  0  0  0  0  0  0  0  0  0
   21.8753  -11.4707  -17.0658 C   0  0  0  0  0  0  0  0  0  0  0  0
   22.9023  -12.2865  -17.7774 C   0  0  0  0  0  0  0  0  0  0  0  0
   23.4940  -11.8047  -18.7571 O   0  0  0  0  0  0  0  0  0  0  0  0
   19.3637   -9.9768  -16.9206 C   0  0  0  0  0  0  0  0  0  0  0  0
   18.9962   -9.6701  -18.0803 O   0  0  0  0  0  0  0  0  0  0  0  0
   23.2284  -13.5750  -17.3874 O   0  0  0  0  0  0  0  0  0  0  0  0
   17.8584   -1.5455  -17.6413 O   0  0  0  0  0  0  0  0  0  0  0  0
   17.9430   -2.9221  -17.4242 C   0  0  0  0  0  0  0  0  0  0  0  0
   17.4701   -3.4747  -16.2530 C   0  0  0  0  0  0  0  0  0  0  0  0
   17.5550   -4.8335  -16.0420 C   0  0  0  0  0  0  0  0  0  0  0  0
   18.1124   -5.7107  -16.9805 C   0  0  0  0  0  0  0  0  0  0  0  0
   18.1959   -7.1604  -16.6965 C   0  0  0  0  0  0  0  0  0  0  0  0
   19.6130   -7.5209  -16.3946 C   0  0  2  0  0  0  0  0  0  0  0  0
   19.7215   -8.9470  -16.0276 N   0  0  0  0  0  0  0  0  0  0  0  0
   20.2667   -6.6974  -15.3589 C   0  0  0  0  0  0  0  0  0  0  0  0
   20.3203   -5.4499  -15.4191 O   0  0  0  0  0  0  0  0  0  0  0  0
   18.5820   -5.1455  -18.1473 C   0  0  0  0  0  0  0  0  0  0  0  0
   18.4939   -3.7763  -18.3548 C   0  0  0  0  0  0  0  0  0  0  0  0
   20.8505   -7.3190  -14.2668 O   0  0  0  0  0  0  0  0  0  0  0  0
  2  1  1  0
  2  3  1  0
  3  5  1  0
  3  4  1  1
  5  6  2  0
  7  8  1  0
  7  5  1  0
  8  9  1  6
 10  9  1  0
 11 10  1  0
 11 15  1  0
 12 11  2  0
 13 14  2  0
 13  8  1  0
 16 17  1  0
 17 18  2  0
 17 27  1  0
 18 19  1  0
 19 20  2  0
 20 21  1  0
 22 21  1  1
 22 24  1  0
 22 23  1  0
 23 13  1  0
 24 28  1  0
 25 24  2  0
 26 20  1  0
 27 26  2  0
M  END
$$$$
