SEY.pdb
     RDKit          3D

 28 28  0  0  1  0  0  0  0  0999 V2000
   27.7474  -15.0234  -15.7188 O   0  0  0  0  0  0  0  0  0  0  0  0
   27.0017  -13.8830  -16.0138 C   0  0  0  0  0  0  0  0  0  0  0  0
   26.4081  -14.0736  -17.3916 C   0  0  2  0  0  0  0  0  0  0  0  0
   27.4902  -13.9578  -18.3512 N   0  0  0  0  0  0  0  0  0  0  0  0
   25.3495  -13.0727  -17.6797 C   0  0  0  0  0  0  0  0  0  0  0  0
   25.6677  -11.9989  -18.2440 O   0  0  0  0  0  0  0  0  0  0  0  0
   23.9835  -13.3145  -17.3253 N   0  0  0  0  0  0  0  0  0  0  0  0
   22.9009  -12.4333  -17.5690 C   0  0  1  0  0  0  0  0  0  0  0  0
   21.5343  -13.0054  -17.5177 C   0  0  0  0  0  0  0  0  0  0  0  0
   20.4155  -12.1124  -17.9170 C   0  0  0  0  0  0  0  0  0  0  0  0
   19.1316  -12.8670  -17.8249 C   0  0  0  0  0  0  0  0  0  0  0  0
   19.0177  -13.9536  -18.4152 O   0  0  0  0  0  0  0  0  0  0  0  0
   22.9941  -11.1072  -16.8858 C   0  0  0  0  0  0  0  0  0  0  0  0
   23.4252  -11.1164  -15.7077 O   0  0  0  0  0  0  0  0  0  0  0  0
   18.0468  -12.4019  -17.0998 O   0  0  0  0  0  0  0  0  0  0  0  0
   22.4115   -2.4923  -14.9961 O   0  0  0  0  0  0  0  0  0  0  0  0
   22.5853   -3.7153  -15.6470 C   0  0  0  0  0  0  0  0  0  0  0  0
   21.8276   -4.0305  -16.7548 C   0  0  0  0  0  0  0  0  0  0  0  0
   22.0016   -5.2380  -17.3949 C   0  0  0  0  0  0  0  0  0  0  0  0
   22.9345   -6.1916  -16.9690 C   0  0  0  0  0  0  0  0  0  0  0  0
   23.0689   -7.4812  -17.6818 C   0  0  0  0  0  0  0  0  0  0  0  0
   22.7667   -8.5979  -16.7379 C   0  0  2  0  0  0  0  0  0  0  0  0
   22.6332   -9.8751  -17.4668 N   0  0  0  0  0  0  0  0  0  0  0  0
   21.5821   -8.3967  -15.8810 C   0  0  0  0  0  0  0  0  0  0  0  0
   20.4225   -8.6832  -16.2498 O   0  0  0  0  0  0  0  0  0  0  0  0
   23.6856   -5.8644  -15.8599 C   0  0  0  0  0  0  0  0  0  0  0  0
   23.5064   -4.6467  -15.2190 C   0  0  0  0  0  0  0  0  0  0  0  0
   21.7459   -7.8685  -14.6105 O   0  0  0  0  0  0  0  0  0  0  0  0
  2  1  1  0
  2  3  1  0
  3  5  1  0
  3  4  1  6
  5  6  2  0
  7  8  1  0
  7  5  1  0
  8  9  1  1
 10  9  1  0
 11 10  1  0
 11 15  1  0
 12 11  2  0
 13 14  2  0
 13  8  1  0
 16 17  1  0
 17 18  2  0
 17 27  1  0
 18 19  1  0
 19 20  2  0
 20 21  1  0
 22 21  1  6
 22 24  1  0
 22 23  1  0
 23 13  1  0
 24 28  1  0
 25 24  2  0
 26 20  1  0
 27 26  2  0
M  END
$$$$
