YGH.pdb
     RDKit          3D

 27 28  0  0  1  0  0  0  0  0999 V2000
    6.1568  -10.4758   26.1452 O   0  0  0  0  0  0  0  0  0  0  0  0
    6.3660  -11.7988   25.7900 C   0  0  0  0  0  0  0  0  0  0  0  0
    5.7449  -12.8534   26.4364 C   0  0  0  0  0  0  0  0  0  0  0  0
    5.9764  -14.1588   26.0564 C   0  0  0  0  0  0  0  0  0  0  0  0
    6.8308  -14.4308   25.0261 C   0  0  0  0  0  0  0  0  0  0  0  0
    7.1257  -15.8190   24.5646 C   0  0  0  0  0  0  0  0  0  0  0  0
    8.2892  -15.7400   23.6163 C   0  0  2  0  0  0  0  0  0  0  0  0
    7.8099  -15.2899   22.3291 N   0  0  0  0  0  0  0  0  0  0  0  0
    9.0345  -16.9822   23.4767 C   0  0  0  0  0  0  0  0  0  0  0  0
    9.1049  -17.5285   22.3477 O   0  0  0  0  0  0  0  0  0  0  0  0
    7.4449  -13.3577   24.3895 C   0  0  0  0  0  0  0  0  0  0  0  0
    7.2318  -12.0603   24.7471 C   0  0  0  0  0  0  0  0  0  0  0  0
    9.6948  -17.6256   24.5424 N   0  0  0  0  0  0  0  0  0  0  0  0
   10.4712  -18.8421   24.3699 C   0  0  0  0  0  0  0  0  0  0  0  0
   11.5886  -18.9045   25.3460 C   0  0  0  0  0  0  0  0  0  0  0  0
   12.3425  -19.9001   25.3331 O   0  0  0  0  0  0  0  0  0  0  0  0
   11.8168  -17.8676   26.2845 N   0  0  0  0  0  0  0  0  0  0  0  0
   11.7995  -18.1453   27.7453 C   0  0  1  0  0  0  0  0  0  0  0  0
   10.6385  -17.4736   28.3733 C   0  0  0  0  0  0  0  0  0  0  0  0
   10.5204  -16.0264   28.1249 C   0  0  0  0  0  0  0  0  0  0  0  0
   11.2797  -15.1277   27.4321 C   0  0  0  0  0  0  0  0  0  0  0  0
   10.6256  -13.9431   27.5007 N   0  0  0  0  0  0  0  0  0  0  0  0
    9.4964  -14.0756   28.2047 C   0  0  0  0  0  0  0  0  0  0  0  0
    9.4214  -15.3470   28.5916 N   0  0  0  0  0  0  0  0  0  0  0  0
   11.7086  -19.6497   27.8683 C   0  0  0  0  0  0  0  0  0  0  0  0
   12.5958  -20.3405   28.7055 O   0  0  0  0  0  0  0  0  0  0  0  0
   10.8823  -20.2935   27.2593 O   0  0  0  0  0  0  0  0  0  0  0  0
  2  3  2  0
  2  1  1  0
  4  3  1  0
  5  4  2  0
  6  7  1  0
  6  5  1  0
  7  8  1  6
  9  7  1  0
  9 13  1  0
 10  9  2  0
 11  5  1  0
 11 12  2  0
 12  2  1  0
 14 13  1  0
 15 14  1  0
 15 16  2  0
 17 18  1  0
 17 15  1  0
 18 19  1  6
 20 19  1  0
 20 21  2  0
 22 21  1  0
 23 22  1  0
 24 23  2  0
 24 20  1  0
 25 18  1  0
 26 25  1  0
 27 25  2  0
M  END
$$$$
