YGH.pdb
     RDKit          3D

 27 28  0  0  1  0  0  0  0  0999 V2000
    4.8162  -12.4337   26.5787 O   0  0  0  0  0  0  0  0  0  0  0  0
    5.7080  -13.1583   25.8041 C   0  0  0  0  0  0  0  0  0  0  0  0
    5.7369  -14.5420   25.7949 C   0  0  0  0  0  0  0  0  0  0  0  0
    6.6386  -15.2314   25.0113 C   0  0  0  0  0  0  0  0  0  0  0  0
    7.5241  -14.5502   24.2257 C   0  0  0  0  0  0  0  0  0  0  0  0
    8.5250  -15.2333   23.3549 C   0  0  0  0  0  0  0  0  0  0  0  0
    7.7848  -15.7938   22.1730 C   0  0  2  0  0  0  0  0  0  0  0  0
    6.5086  -16.3026   22.6225 N   0  0  0  0  0  0  0  0  0  0  0  0
    8.5128  -16.8193   21.4406 C   0  0  0  0  0  0  0  0  0  0  0  0
    9.5111  -16.4871   20.7543 O   0  0  0  0  0  0  0  0  0  0  0  0
    7.4791  -13.1604   24.2489 C   0  0  0  0  0  0  0  0  0  0  0  0
    6.5978  -12.4579   25.0146 C   0  0  0  0  0  0  0  0  0  0  0  0
    8.1670  -18.1854   21.4496 N   0  0  0  0  0  0  0  0  0  0  0  0
    9.0293  -19.2209   20.9051 C   0  0  0  0  0  0  0  0  0  0  0  0
   10.1250  -19.5540   21.8505 C   0  0  0  0  0  0  0  0  0  0  0  0
   11.1020  -20.2093   21.4309 O   0  0  0  0  0  0  0  0  0  0  0  0
   10.0871  -19.1483   23.2077 N   0  0  0  0  0  0  0  0  0  0  0  0
   11.1007  -19.6400   24.1782 C   0  0  1  0  0  0  0  0  0  0  0  0
   11.6547  -18.5034   24.9492 C   0  0  0  0  0  0  0  0  0  0  0  0
   12.2766  -17.4294   24.1555 C   0  0  0  0  0  0  0  0  0  0  0  0
   13.0320  -17.4197   23.0181 C   0  0  0  0  0  0  0  0  0  0  0  0
   13.2566  -16.1169   22.7211 N   0  0  0  0  0  0  0  0  0  0  0  0
   12.6706  -15.3259   23.6261 C   0  0  0  0  0  0  0  0  0  0  0  0
   12.0672  -16.1186   24.5090 N   0  0  0  0  0  0  0  0  0  0  0  0
   10.3649  -20.6146   25.0701 C   0  0  0  0  0  0  0  0  0  0  0  0
   11.0467  -21.2738   26.1025 O   0  0  0  0  0  0  0  0  0  0  0  0
    9.1858  -20.8522   24.9239 O   0  0  0  0  0  0  0  0  0  0  0  0
  2  3  2  0
  2  1  1  0
  4  3  1  0
  5  4  2  0
  6  7  1  0
  6  5  1  0
  7  8  1  1
  9  7  1  0
  9 13  1  0
 10  9  2  0
 11  5  1  0
 11 12  2  0
 12  2  1  0
 14 13  1  0
 15 14  1  0
 15 16  2  0
 17 18  1  0
 17 15  1  0
 18 19  1  1
 20 19  1  0
 20 21  2  0
 22 21  1  0
 23 22  1  0
 24 23  2  0
 24 20  1  0
 25 18  1  0
 26 25  1  0
 27 25  2  0
M  END
$$$$
