YGH.pdb
     RDKit          3D

 27 28  0  0  1  0  0  0  0  0999 V2000
    6.3132  -12.0505   27.9642 O   0  0  0  0  0  0  0  0  0  0  0  0
    6.6301  -12.4437   26.6737 C   0  0  0  0  0  0  0  0  0  0  0  0
    5.6782  -12.8889   25.7730 C   0  0  0  0  0  0  0  0  0  0  0  0
    6.0292  -13.2727   24.4956 C   0  0  0  0  0  0  0  0  0  0  0  0
    7.3349  -13.2179   24.0987 C   0  0  0  0  0  0  0  0  0  0  0  0
    7.7827  -13.6179   22.7325 C   0  0  0  0  0  0  0  0  0  0  0  0
    8.4069  -14.9806   22.8448 C   0  0  2  0  0  0  0  0  0  0  0  0
    8.8336  -15.4061   21.5310 N   0  0  0  0  0  0  0  0  0  0  0  0
    7.5472  -15.9859   23.4518 C   0  0  0  0  0  0  0  0  0  0  0  0
    6.3549  -16.0820   23.0681 O   0  0  0  0  0  0  0  0  0  0  0  0
    8.2762  -12.7679   25.0182 C   0  0  0  0  0  0  0  0  0  0  0  0
    7.9533  -12.3836   26.2849 C   0  0  0  0  0  0  0  0  0  0  0  0
    7.9699  -16.8753   24.4597 N   0  0  0  0  0  0  0  0  0  0  0  0
    7.0530  -17.7388   25.1850 C   0  0  0  0  0  0  0  0  0  0  0  0
    7.7669  -18.5186   26.2278 C   0  0  0  0  0  0  0  0  0  0  0  0
    7.1032  -19.2576   26.9850 O   0  0  0  0  0  0  0  0  0  0  0  0
    9.1735  -18.4436   26.3818 N   0  0  0  0  0  0  0  0  0  0  0  0
    9.8843  -19.3387   27.3330 C   0  0  1  0  0  0  0  0  0  0  0  0
   11.0798  -19.9211   26.6812 C   0  0  0  0  0  0  0  0  0  0  0  0
   10.8418  -20.6181   25.4053 C   0  0  0  0  0  0  0  0  0  0  0  0
    9.8486  -21.4401   24.9556 C   0  0  0  0  0  0  0  0  0  0  0  0
   10.1401  -21.7174   23.6617 N   0  0  0  0  0  0  0  0  0  0  0  0
   11.2687  -21.1001   23.2968 C   0  0  0  0  0  0  0  0  0  0  0  0
   11.7071  -20.4238   24.3562 N   0  0  0  0  0  0  0  0  0  0  0  0
   10.2591  -18.4625   28.5072 C   0  0  0  0  0  0  0  0  0  0  0  0
   10.9781  -19.0009   29.5835 O   0  0  0  0  0  0  0  0  0  0  0  0
    9.9561  -17.2904   28.5542 O   0  0  0  0  0  0  0  0  0  0  0  0
  2  3  2  0
  2  1  1  0
  4  3  1  0
  5  4  2  0
  6  7  1  0
  6  5  1  0
  7  8  1  6
  9  7  1  0
  9 13  1  0
 10  9  2  0
 11  5  1  0
 11 12  2  0
 12  2  1  0
 14 13  1  0
 15 14  1  0
 15 16  2  0
 17 18  1  0
 17 15  1  0
 18 19  1  6
 20 19  1  0
 20 21  2  0
 22 21  1  0
 23 22  1  0
 24 23  2  0
 24 20  1  0
 25 18  1  0
 26 25  1  0
 27 25  2  0
M  END
$$$$
