YGH.pdb
     RDKit          3D

 27 28  0  0  1  0  0  0  0  0999 V2000
    8.0314  -13.7651   15.6276 O   0  0  0  0  0  0  0  0  0  0  0  0
    7.7153  -14.0762   16.9405 C   0  0  0  0  0  0  0  0  0  0  0  0
    6.9085  -15.1478   17.2812 C   0  0  0  0  0  0  0  0  0  0  0  0
    6.6142  -15.4286   18.5991 C   0  0  0  0  0  0  0  0  0  0  0  0
    7.1208  -14.6442   19.5958 C   0  0  0  0  0  0  0  0  0  0  0  0
    6.8422  -14.8917   21.0408 C   0  0  0  0  0  0  0  0  0  0  0  0
    8.1160  -15.3876   21.6659 C   0  0  2  0  0  0  0  0  0  0  0  0
    8.5880  -16.5295   20.9159 N   0  0  0  0  0  0  0  0  0  0  0  0
    8.0018  -15.7177   23.0787 C   0  0  0  0  0  0  0  0  0  0  0  0
    7.5514  -14.8550   23.8729 O   0  0  0  0  0  0  0  0  0  0  0  0
    7.9293  -13.5724   19.2331 C   0  0  0  0  0  0  0  0  0  0  0  0
    8.2337  -13.2756   17.9385 C   0  0  0  0  0  0  0  0  0  0  0  0
    8.3693  -16.9631   23.6261 N   0  0  0  0  0  0  0  0  0  0  0  0
    8.2800  -17.2576   25.0465 C   0  0  0  0  0  0  0  0  0  0  0  0
    9.2095  -16.4027   25.8279 C   0  0  0  0  0  0  0  0  0  0  0  0
   10.2279  -15.9508   25.2636 O   0  0  0  0  0  0  0  0  0  0  0  0
    8.9685  -16.0906   27.1890 N   0  0  0  0  0  0  0  0  0  0  0  0
    9.8828  -15.1869   27.9365 C   0  0  1  0  0  0  0  0  0  0  0  0
    9.0996  -14.1446   28.6390 C   0  0  0  0  0  0  0  0  0  0  0  0
    8.1541  -13.3801   27.8074 C   0  0  0  0  0  0  0  0  0  0  0  0
    6.7995  -13.4263   27.6419 C   0  0  0  0  0  0  0  0  0  0  0  0
    6.4852  -12.4211   26.7895 N   0  0  0  0  0  0  0  0  0  0  0  0
    7.5881  -11.7585   26.4253 C   0  0  0  0  0  0  0  0  0  0  0  0
    8.6159  -12.3365   27.0427 N   0  0  0  0  0  0  0  0  0  0  0  0
   10.6247  -16.0779   28.9073 C   0  0  0  0  0  0  0  0  0  0  0  0
   11.6047  -15.5350   29.7500 O   0  0  0  0  0  0  0  0  0  0  0  0
   10.4002  -17.2659   28.9864 O   0  0  0  0  0  0  0  0  0  0  0  0
  2  3  2  0
  2  1  1  0
  4  3  1  0
  5  4  2  0
  6  7  1  0
  6  5  1  0
  7  8  1  6
  9  7  1  0
  9 13  1  0
 10  9  2  0
 11  5  1  0
 11 12  2  0
 12  2  1  0
 14 13  1  0
 15 14  1  0
 15 16  2  0
 17 18  1  0
 17 15  1  0
 18 19  1  1
 20 19  1  0
 20 21  2  0
 22 21  1  0
 23 22  1  0
 24 23  2  0
 24 20  1  0
 25 18  1  0
 26 25  1  0
 27 25  2  0
M  END
$$$$
