YGH.pdb
     RDKit          3D

 27 28  0  0  1  0  0  0  0  0999 V2000
    5.6769  -11.1111   27.0009 O   0  0  0  0  0  0  0  0  0  0  0  0
    6.2243  -12.0547   26.1463 C   0  0  0  0  0  0  0  0  0  0  0  0
    5.8814  -13.3947   26.1943 C   0  0  0  0  0  0  0  0  0  0  0  0
    6.4463  -14.3071   25.3279 C   0  0  0  0  0  0  0  0  0  0  0  0
    7.3614  -13.8956   24.4013 C   0  0  0  0  0  0  0  0  0  0  0  0
    8.0104  -14.8294   23.4350 C   0  0  0  0  0  0  0  0  0  0  0  0
    8.7454  -15.8669   24.2365 C   0  0  2  0  0  0  0  0  0  0  0  0
    9.5724  -15.1981   25.2153 N   0  0  0  0  0  0  0  0  0  0  0  0
    9.5426  -16.7870   23.4391 C   0  0  0  0  0  0  0  0  0  0  0  0
    8.9851  -17.4432   22.5244 O   0  0  0  0  0  0  0  0  0  0  0  0
    7.6927  -12.5453   24.3690 C   0  0  0  0  0  0  0  0  0  0  0  0
    7.1481  -11.6259   25.2144 C   0  0  0  0  0  0  0  0  0  0  0  0
   10.9234  -16.9955   23.6274 N   0  0  0  0  0  0  0  0  0  0  0  0
   11.5319  -18.3152   23.6065 C   0  0  0  0  0  0  0  0  0  0  0  0
   12.2453  -18.5936   24.8789 C   0  0  0  0  0  0  0  0  0  0  0  0
   12.8913  -19.6572   24.9850 O   0  0  0  0  0  0  0  0  0  0  0  0
   12.2097  -17.6865   25.9669 N   0  0  0  0  0  0  0  0  0  0  0  0
   11.6621  -18.1005   27.2860 C   0  0  1  0  0  0  0  0  0  0  0  0
   10.3997  -17.3758   27.5587 C   0  0  0  0  0  0  0  0  0  0  0  0
   10.5210  -15.9197   27.7463 C   0  0  0  0  0  0  0  0  0  0  0  0
   11.5848  -15.0653   27.7993 C   0  0  0  0  0  0  0  0  0  0  0  0
   11.0670  -13.8192   27.9216 N   0  0  0  0  0  0  0  0  0  0  0  0
    9.7310  -13.8711   27.9446 C   0  0  0  0  0  0  0  0  0  0  0  0
    9.3854  -15.1520   27.8376 N   0  0  0  0  0  0  0  0  0  0  0  0
   11.4383  -19.5922   27.1790 C   0  0  0  0  0  0  0  0  0  0  0  0
   11.9191  -20.4477   28.1801 O   0  0  0  0  0  0  0  0  0  0  0  0
   10.8480  -20.0859   26.2432 O   0  0  0  0  0  0  0  0  0  0  0  0
  2  3  2  0
  2  1  1  0
  4  3  1  0
  5  4  2  0
  6  7  1  0
  6  5  1  0
  7  8  1  1
  9  7  1  0
  9 13  1  0
 10  9  2  0
 11  5  1  0
 11 12  2  0
 12  2  1  0
 14 13  1  0
 15 14  1  0
 15 16  2  0
 17 18  1  0
 17 15  1  0
 18 19  1  6
 20 19  1  0
 20 21  2  0
 22 21  1  0
 23 22  1  0
 24 23  2  0
 24 20  1  0
 25 18  1  0
 26 25  1  0
 27 25  2  0
M  END
$$$$
