MRC.pdb
     RDKit          3D

 26 25  0  0  1  0  0  0  0  0999 V2000
    8.4391  -11.7322   19.5723 C   0  0  0  0  0  0  0  0  0  0  0  0
    8.5091  -12.6682   18.0223 S   0  0  0  0  0  0  0  0  0  0  0  0
    8.3749  -14.4461   18.3510 C   0  0  0  0  0  0  0  0  0  0  0  0
    7.6928  -14.7139   19.6737 C   0  0  0  0  0  0  0  0  0  0  0  0
    7.5548  -16.1960   19.9443 C   0  0  2  0  0  0  0  0  0  0  0  0
    6.6663  -16.8304   19.0047 N   0  0  0  0  0  0  0  0  0  0  0  0
    7.0793  -16.4668   21.3172 C   0  0  0  0  0  0  0  0  0  0  0  0
    5.8624  -16.3974   21.5629 O   0  0  0  0  0  0  0  0  0  0  0  0
    7.3486  -20.8101   28.9640 N   0  0  0  0  0  0  0  0  0  0  0  0
    8.5024  -20.0203   28.6996 C   0  0  0  0  0  0  0  0  0  0  0  0
    9.3031  -19.7153   29.6930 N   0  0  0  0  0  0  0  0  0  0  0  0
    8.8066  -19.5570   27.3951 N   0  0  0  0  0  0  0  0  0  0  0  0
    7.8136  -19.6352   26.3770 C   0  0  0  0  0  0  0  0  0  0  0  0
    7.4008  -18.2800   25.8386 C   0  0  0  0  0  0  0  0  0  0  0  0
    7.8127  -18.2037   24.3936 C   0  0  0  0  0  0  0  0  0  0  0  0
    7.5266  -16.8940   23.7325 C   0  0  2  0  0  0  0  0  0  0  0  0
    7.9919  -16.8102   22.3811 N   0  0  0  0  0  0  0  0  0  0  0  0
    8.0011  -15.7282   24.5556 C   0  0  0  0  0  0  0  0  0  0  0  0
    9.2309  -15.5034   24.7025 O   0  0  0  0  0  0  0  0  0  0  0  0
   10.1640  -19.1711   29.5156 N   0  0  0  0  0  0  0  0  0  0  0  0
    7.0498  -14.8721   25.1736 C   0  0  2  0  0  0  0  0  0  0  0  0
    7.4861  -13.7303   25.9522 C   0  0  0  0  0  0  0  0  0  0  0  0
    6.3161  -12.9210   26.4578 S   0  0  0  0  0  0  0  0  0  0  0  0
    7.0044  -11.4632   27.3013 C   0  0  0  0  0  0  0  0  0  0  0  0
    8.2719  -14.1589   27.1374 O   0  0  0  0  0  0  0  0  0  0  0  0
    9.2592  -13.3090   27.6114 O   0  0  0  0  0  0  0  0  0  0  0  0
  2  1  1  0
  3  4  1  0
  3  2  1  0
  4  5  1  0
  5  7  1  0
  5  6  1  6
  7  8  2  0
 10 12  1  0
 10  9  1  0
 11 10  2  0
 13 14  1  0
 13 12  1  0
 14 15  1  0
 16 15  1  1
 17  7  1  0
 17 16  1  0
 18 19  2  0
 18 16  1  0
 20 18  1  0
 21 20  1  0
 21 22  1  1
 23 22  1  0
 24 25  1  0
 24 21  1  0
 26 24  2  0
M  END
$$$$
