MRC.pdb
     RDKit          3D

 26 25  0  0  1  0  0  0  0  0999 V2000
    6.3957  -11.0532   26.7361 C   0  0  0  0  0  0  0  0  0  0  0  0
    5.6673  -12.2367   27.8990 S   0  0  0  0  0  0  0  0  0  0  0  0
    5.2815  -13.7950   27.0563 C   0  0  0  0  0  0  0  0  0  0  0  0
    6.5014  -14.3706   26.3730 C   0  0  0  0  0  0  0  0  0  0  0  0
    6.1759  -15.6425   25.6212 C   0  0  2  0  0  0  0  0  0  0  0  0
    5.8324  -16.7187   26.5148 N   0  0  0  0  0  0  0  0  0  0  0  0
    7.2909  -16.0735   24.7522 C   0  0  0  0  0  0  0  0  0  0  0  0
    7.6813  -17.2529   24.8057 O   0  0  0  0  0  0  0  0  0  0  0  0
    9.4649  -14.5772   16.8528 N   0  0  0  0  0  0  0  0  0  0  0  0
    8.7070  -14.0917   17.9550 C   0  0  0  0  0  0  0  0  0  0  0  0
    8.3691  -12.8244   17.9828 N   0  0  0  0  0  0  0  0  0  0  0  0
    8.3099  -14.9397   19.0189 N   0  0  0  0  0  0  0  0  0  0  0  0
    9.2348  -15.8919   19.5354 C   0  0  0  0  0  0  0  0  0  0  0  0
   10.0568  -15.3606   20.6925 C   0  0  0  0  0  0  0  0  0  0  0  0
    9.1126  -14.7941   21.7178 C   0  0  0  0  0  0  0  0  0  0  0  0
    8.9517  -15.6306   22.9462 C   0  0  2  0  0  0  0  0  0  0  0  0
    7.9391  -15.1600   23.8422 N   0  0  0  0  0  0  0  0  0  0  0  0
   10.2592  -15.8539   23.6549 C   0  0  0  0  0  0  0  0  0  0  0  0
   11.2605  -16.2947   23.0324 O   0  0  0  0  0  0  0  0  0  0  0  0
    7.7572  -12.4682   18.7361 N   0  0  0  0  0  0  0  0  0  0  0  0
   10.3638  -15.5639   25.0422 C   0  0  1  0  0  0  0  0  0  0  0  0
   11.6331  -15.7030   25.7279 C   0  0  0  0  0  0  0  0  0  0  0  0
   11.5294  -15.2997   27.1790 S   0  0  0  0  0  0  0  0  0  0  0  0
   10.3719  -13.8982   27.2588 C   0  0  0  0  0  0  0  0  0  0  0  0
   12.1091  -17.1095   25.6931 O   0  0  0  0  0  0  0  0  0  0  0  0
   13.3801  -17.3832   26.1744 O   0  0  0  0  0  0  0  0  0  0  0  0
  2  1  1  0
  3  4  1  0
  3  2  1  0
  4  5  1  0
  5  7  1  0
  5  6  1  1
  7  8  2  0
 10 12  1  0
 10  9  1  0
 11 10  2  0
 13 14  1  0
 13 12  1  0
 14 15  1  0
 16 15  1  6
 17  7  1  0
 17 16  1  0
 18 19  2  0
 18 16  1  0
 20 18  1  0
 21 20  1  0
 21 22  1  6
 23 22  1  0
 24 25  1  0
 24 21  1  0
 26 24  2  0
M  END
$$$$
