MRC.pdb
     RDKit          3D

 26 25  0  0  1  0  0  0  0  0999 V2000
    7.3258  -11.4037   26.7692 C   0  0  0  0  0  0  0  0  0  0  0  0
    5.8710  -12.4805   26.8569 S   0  0  0  0  0  0  0  0  0  0  0  0
    6.3575  -14.1633   27.3242 C   0  0  0  0  0  0  0  0  0  0  0  0
    7.2368  -14.7975   26.2701 C   0  0  0  0  0  0  0  0  0  0  0  0
    6.4365  -15.6502   25.3102 C   0  0  2  0  0  0  0  0  0  0  0  0
    5.9471  -16.8491   25.9409 N   0  0  0  0  0  0  0  0  0  0  0  0
    7.2192  -16.0196   24.1123 C   0  0  0  0  0  0  0  0  0  0  0  0
    7.8533  -17.0892   24.1075 O   0  0  0  0  0  0  0  0  0  0  0  0
    7.7110  -12.8116   15.9890 N   0  0  0  0  0  0  0  0  0  0  0  0
    8.0402  -14.1925   16.0868 C   0  0  0  0  0  0  0  0  0  0  0  0
    7.9837  -14.9356   15.0072 N   0  0  0  0  0  0  0  0  0  0  0  0
    8.4259  -14.7824   17.3164 N   0  0  0  0  0  0  0  0  0  0  0  0
    8.6849  -13.9472   18.4408 C   0  0  0  0  0  0  0  0  0  0  0  0
    9.1362  -14.7165   19.6661 C   0  0  0  0  0  0  0  0  0  0  0  0
    8.1558  -14.4491   20.7755 C   0  0  0  0  0  0  0  0  0  0  0  0
    8.2584  -15.3848   21.9367 C   0  0  2  0  0  0  0  0  0  0  0  0
    7.2666  -15.1701   22.9466 N   0  0  0  0  0  0  0  0  0  0  0  0
    9.6449  -15.4157   22.5187 C   0  0  0  0  0  0  0  0  0  0  0  0
   10.0080  -14.5526   23.3600 O   0  0  0  0  0  0  0  0  0  0  0  0
    8.2911  -15.9221   15.0411 N   0  0  0  0  0  0  0  0  0  0  0  0
   10.5535  -16.4304   22.1135 C   0  0  2  0  0  0  0  0  0  0  0  0
   11.9018  -16.4634   22.6441 C   0  0  0  0  0  0  0  0  0  0  0  0
   12.0364  -17.4703   23.7609 S   0  0  0  0  0  0  0  0  0  0  0  0
   13.7888  -17.4891   24.2499 C   0  0  0  0  0  0  0  0  0  0  0  0
   12.8821  -16.8363   21.5925 O   0  0  0  0  0  0  0  0  0  0  0  0
   14.2200  -16.5456   21.8110 O   0  0  0  0  0  0  0  0  0  0  0  0
  2  1  1  0
  3  4  1  0
  3  2  1  0
  4  5  1  0
  5  7  1  0
  5  6  1  1
  7  8  2  0
 10 12  1  0
 10  9  1  0
 11 10  2  0
 13 14  1  0
 13 12  1  0
 14 15  1  0
 16 15  1  6
 17  7  1  0
 17 16  1  0
 18 19  2  0
 18 16  1  0
 20 18  1  0
 21 20  1  0
 21 22  1  1
 23 22  1  0
 24 25  1  0
 24 21  1  0
 26 24  2  0
M  END
$$$$
