MRC.pdb
     RDKit          3D

 26 25  0  0  1  0  0  0  0  0999 V2000
    8.3286  -12.1280   26.3560 C   0  0  0  0  0  0  0  0  0  0  0  0
    7.0210  -12.7708   27.4334 S   0  0  0  0  0  0  0  0  0  0  0  0
    6.1833  -14.1715   26.6439 C   0  0  0  0  0  0  0  0  0  0  0  0
    6.9449  -14.6599   25.4324 C   0  0  0  0  0  0  0  0  0  0  0  0
    6.1939  -15.7491   24.6986 C   0  0  2  0  0  0  0  0  0  0  0  0
    5.6643  -16.7363   25.6040 N   0  0  0  0  0  0  0  0  0  0  0  0
    7.0391  -16.4225   23.6904 C   0  0  0  0  0  0  0  0  0  0  0  0
    6.4967  -17.0814   22.7861 O   0  0  0  0  0  0  0  0  0  0  0  0
    6.6031  -13.2736   18.2993 N   0  0  0  0  0  0  0  0  0  0  0  0
    7.8321  -13.5086   17.6217 C   0  0  0  0  0  0  0  0  0  0  0  0
    7.8227  -13.6303   16.3156 N   0  0  0  0  0  0  0  0  0  0  0  0
    9.0609  -13.6141   18.3201 N   0  0  0  0  0  0  0  0  0  0  0  0
    9.0608  -13.5719   19.7439 C   0  0  0  0  0  0  0  0  0  0  0  0
    9.5268  -14.8657   20.3807 C   0  0  0  0  0  0  0  0  0  0  0  0
    8.7029  -15.1037   21.6169 C   0  0  0  0  0  0  0  0  0  0  0  0
    9.2249  -16.1773   22.5165 C   0  0  2  0  0  0  0  0  0  0  0  0
    8.4790  -16.3349   23.7283 N   0  0  0  0  0  0  0  0  0  0  0  0
   10.6964  -16.0242   22.7869 C   0  0  0  0  0  0  0  0  0  0  0  0
   11.3271  -15.0214   22.3611 O   0  0  0  0  0  0  0  0  0  0  0  0
    8.7138  -13.6873   15.7945 N   0  0  0  0  0  0  0  0  0  0  0  0
   11.3807  -17.0228   23.5311 C   0  0  1  0  0  0  0  0  0  0  0  0
   12.1606  -16.6635   24.6987 C   0  0  0  0  0  0  0  0  0  0  0  0
   11.2930  -16.0903   25.7932 S   0  0  0  0  0  0  0  0  0  0  0  0
   10.2244  -17.4390   26.3842 C   0  0  0  0  0  0  0  0  0  0  0  0
   12.8580  -17.8475   25.2621 O   0  0  0  0  0  0  0  0  0  0  0  0
   13.8329  -17.6371   26.2250 O   0  0  0  0  0  0  0  0  0  0  0  0
  2  1  1  0
  3  4  1  0
  3  2  1  0
  4  5  1  0
  5  7  1  0
  5  6  1  1
  7  8  2  0
 10 12  1  0
 10  9  1  0
 11 10  2  0
 13 14  1  0
 13 12  1  0
 14 15  1  0
 16 15  1  1
 17  7  1  0
 17 16  1  0
 18 19  2  0
 18 16  1  0
 20 18  1  0
 21 20  1  0
 21 22  1  1
 23 22  1  0
 24 25  1  0
 24 21  1  0
 26 24  2  0
M  END
$$$$
