MRC.pdb
     RDKit          3D

 26 25  0  0  1  0  0  0  0  0999 V2000
    9.1712  -11.9613   20.7829 C   0  0  0  0  0  0  0  0  0  0  0  0
    8.4820  -12.7557   19.3073 S   0  0  0  0  0  0  0  0  0  0  0  0
    6.9662  -13.6584   19.7252 C   0  0  0  0  0  0  0  0  0  0  0  0
    6.8798  -14.9698   18.9775 C   0  0  0  0  0  0  0  0  0  0  0  0
    7.9744  -15.9272   19.3947 C   0  0  2  0  0  0  0  0  0  0  0  0
    7.9119  -17.1640   18.6591 N   0  0  0  0  0  0  0  0  0  0  0  0
    7.9299  -16.2232   20.8420 C   0  0  0  0  0  0  0  0  0  0  0  0
    6.8323  -16.4445   21.3828 O   0  0  0  0  0  0  0  0  0  0  0  0
   13.1303  -21.2087   25.3434 N   0  0  0  0  0  0  0  0  0  0  0  0
   13.3784  -19.8297   25.0954 C   0  0  0  0  0  0  0  0  0  0  0  0
   14.6108  -19.3852   25.1627 N   0  0  0  0  0  0  0  0  0  0  0  0
   12.3314  -18.9283   24.7789 N   0  0  0  0  0  0  0  0  0  0  0  0
   10.9800  -19.3264   24.9884 C   0  0  0  0  0  0  0  0  0  0  0  0
    9.9880  -18.1953   24.8058 C   0  0  0  0  0  0  0  0  0  0  0  0
   10.0124  -17.7784   23.3605 C   0  0  0  0  0  0  0  0  0  0  0  0
    9.0671  -16.6734   23.0146 C   0  0  2  0  0  0  0  0  0  0  0  0
    9.1286  -16.2621   21.6446 N   0  0  0  0  0  0  0  0  0  0  0  0
    9.1959  -15.5036   23.9510 C   0  0  0  0  0  0  0  0  0  0  0  0
   10.0542  -14.6063   23.7442 O   0  0  0  0  0  0  0  0  0  0  0  0
   14.8197  -18.4007   24.9261 N   0  0  0  0  0  0  0  0  0  0  0  0
    8.3390  -15.4116   25.0810 C   0  0  2  0  0  0  0  0  0  0  0  0
    8.3779  -14.2444   25.9392 C   0  0  0  0  0  0  0  0  0  0  0  0
    7.0491  -13.5282   25.9661 S   0  0  0  0  0  0  0  0  0  0  0  0
    7.2040  -12.1675   27.1639 C   0  0  0  0  0  0  0  0  0  0  0  0
    8.7063  -14.6191   27.3383 O   0  0  0  0  0  0  0  0  0  0  0  0
    9.1477  -13.6241   28.1969 O   0  0  0  0  0  0  0  0  0  0  0  0
  2  1  1  0
  3  4  1  0
  3  2  1  0
  4  5  1  0
  5  7  1  0
  5  6  1  6
  7  8  2  0
 10 12  1  0
 10  9  1  0
 11 10  2  0
 13 14  1  0
 13 12  1  0
 14 15  1  0
 16 15  1  1
 17  7  1  0
 17 16  1  0
 18 19  2  0
 18 16  1  0
 20 18  1  0
 21 20  1  0
 21 22  1  1
 23 22  1  0
 24 25  1  0
 24 21  1  0
 26 24  2  0
M  END
$$$$
