MRC.pdb
     RDKit          3D

 26 25  0  0  1  0  0  0  0  0999 V2000
    6.0685  -12.0696   25.3829 C   0  0  0  0  0  0  0  0  0  0  0  0
    6.7374  -12.4498   27.0235 S   0  0  0  0  0  0  0  0  0  0  0  0
    6.1972  -14.0951   27.5605 C   0  0  0  0  0  0  0  0  0  0  0  0
    5.5128  -14.8453   26.4401 C   0  0  0  0  0  0  0  0  0  0  0  0
    6.2901  -16.0777   26.0328 C   0  0  2  0  0  0  0  0  0  0  0  0
    7.2886  -16.4271   27.0103 N   0  0  0  0  0  0  0  0  0  0  0  0
    6.9404  -15.9127   24.7159 C   0  0  0  0  0  0  0  0  0  0  0  0
    6.3889  -16.3795   23.7039 O   0  0  0  0  0  0  0  0  0  0  0  0
    9.3147  -14.5942   18.1554 N   0  0  0  0  0  0  0  0  0  0  0  0
    8.9519  -13.3161   18.6650 C   0  0  0  0  0  0  0  0  0  0  0  0
    9.7185  -12.2859   18.3970 N   0  0  0  0  0  0  0  0  0  0  0  0
    7.7878  -13.1295   19.4517 N   0  0  0  0  0  0  0  0  0  0  0  0
    7.4443  -14.1033   20.4327 C   0  0  0  0  0  0  0  0  0  0  0  0
    8.6451  -14.8441   20.9862 C   0  0  0  0  0  0  0  0  0  0  0  0
    8.8947  -14.3536   22.3863 C   0  0  0  0  0  0  0  0  0  0  0  0
    9.0115  -15.4334   23.4134 C   0  0  2  0  0  0  0  0  0  0  0  0
    8.2000  -15.2230   24.5740 N   0  0  0  0  0  0  0  0  0  0  0  0
   10.4427  -15.7135   23.7808 C   0  0  0  0  0  0  0  0  0  0  0  0
   11.3186  -15.8593   22.8885 O   0  0  0  0  0  0  0  0  0  0  0  0
    9.4466  -11.3412   18.7169 N   0  0  0  0  0  0  0  0  0  0  0  0
   10.8088  -15.8145   25.1503 C   0  0  1  0  0  0  0  0  0  0  0  0
   12.1753  -16.1191   25.5246 C   0  0  0  0  0  0  0  0  0  0  0  0
   12.4614  -15.7284   26.9546 S   0  0  0  0  0  0  0  0  0  0  0  0
   11.0200  -14.7890   27.5465 C   0  0  0  0  0  0  0  0  0  0  0  0
   12.4536  -17.5726   25.3996 O   0  0  0  0  0  0  0  0  0  0  0  0
   13.7383  -18.0194   25.6680 O   0  0  0  0  0  0  0  0  0  0  0  0
  2  1  1  0
  3  4  1  0
  3  2  1  0
  4  5  1  0
  5  7  1  0
  5  6  1  1
  7  8  2  0
 10 12  1  0
 10  9  1  0
 11 10  2  0
 13 14  1  0
 13 12  1  0
 14 15  1  0
 16 15  1  6
 17  7  1  0
 17 16  1  0
 18 19  2  0
 18 16  1  0
 20 18  1  0
 21 20  1  0
 21 22  1  6
 23 22  1  0
 24 25  1  0
 24 21  1  0
 26 24  2  0
M  END
$$$$
