MRC.pdb
     RDKit          3D

 26 25  0  0  1  0  0  0  0  0999 V2000
    5.9890  -11.4150   26.5168 C   0  0  0  0  0  0  0  0  0  0  0  0
    6.5260  -12.6892   27.6881 S   0  0  0  0  0  0  0  0  0  0  0  0
    6.0939  -14.3380   27.0703 C   0  0  0  0  0  0  0  0  0  0  0  0
    7.0780  -14.8122   26.0248 C   0  0  0  0  0  0  0  0  0  0  0  0
    6.4554  -15.8200   25.0838 C   0  0  2  0  0  0  0  0  0  0  0  0
    6.3319  -17.1178   25.6962 N   0  0  0  0  0  0  0  0  0  0  0  0
    7.2203  -15.9502   23.8259 C   0  0  0  0  0  0  0  0  0  0  0  0
    7.8052  -17.0193   23.5791 O   0  0  0  0  0  0  0  0  0  0  0  0
    7.2338  -15.3458   17.2978 N   0  0  0  0  0  0  0  0  0  0  0  0
    8.1229  -14.5136   16.5617 C   0  0  0  0  0  0  0  0  0  0  0  0
    8.3787  -14.8104   15.3097 N   0  0  0  0  0  0  0  0  0  0  0  0
    8.7362  -13.3768   17.1452 N   0  0  0  0  0  0  0  0  0  0  0  0
    8.3993  -13.0091   18.4793 C   0  0  0  0  0  0  0  0  0  0  0  0
    8.8661  -14.0144   19.5129 C   0  0  0  0  0  0  0  0  0  0  0  0
    7.9458  -13.9288   20.7000 C   0  0  0  0  0  0  0  0  0  0  0  0
    8.1918  -14.9591   21.7547 C   0  0  2  0  0  0  0  0  0  0  0  0
    7.3060  -14.8674   22.8758 N   0  0  0  0  0  0  0  0  0  0  0  0
    9.6317  -14.9947   22.1872 C   0  0  0  0  0  0  0  0  0  0  0  0
   10.4535  -14.1443   21.7558 O   0  0  0  0  0  0  0  0  0  0  0  0
    9.0431  -14.2341   14.7665 N   0  0  0  0  0  0  0  0  0  0  0  0
   10.0679  -15.9996   23.0924 C   0  0  1  0  0  0  0  0  0  0  0  0
   11.4675  -16.1052   23.4537 C   0  0  0  0  0  0  0  0  0  0  0  0
   11.6411  -16.4948   24.9019 S   0  0  0  0  0  0  0  0  0  0  0  0
   10.5918  -15.3770   25.8815 C   0  0  0  0  0  0  0  0  0  0  0  0
   12.1560  -17.1345   22.6337 O   0  0  0  0  0  0  0  0  0  0  0  0
   13.5292  -17.2691   22.7687 O   0  0  0  0  0  0  0  0  0  0  0  0
  2  1  1  0
  3  4  1  0
  3  2  1  0
  4  5  1  0
  5  7  1  0
  5  6  1  1
  7  8  2  0
 10 12  1  0
 10  9  1  0
 11 10  2  0
 13 14  1  0
 13 12  1  0
 14 15  1  0
 16 15  1  6
 17  7  1  0
 17 16  1  0
 18 19  2  0
 18 16  1  0
 20 18  1  0
 21 20  1  0
 21 22  1  6
 23 22  1  0
 24 25  1  0
 24 21  1  0
 26 24  2  0
M  END
$$$$
