MRC.pdb
     RDKit          3D

 26 25  0  0  1  0  0  0  0  0999 V2000
    6.6948  -11.2419   26.1325 C   0  0  0  0  0  0  0  0  0  0  0  0
    5.2630  -12.1905   26.7103 S   0  0  0  0  0  0  0  0  0  0  0  0
    5.1876  -13.7955   25.8705 C   0  0  0  0  0  0  0  0  0  0  0  0
    6.5454  -14.4594   25.8238 C   0  0  0  0  0  0  0  0  0  0  0  0
    6.5009  -15.7768   25.0812 C   0  0  2  0  0  0  0  0  0  0  0  0
    5.6112  -16.7168   25.7132 N   0  0  0  0  0  0  0  0  0  0  0  0
    7.8406  -16.3883   24.9567 C   0  0  0  0  0  0  0  0  0  0  0  0
    8.2803  -17.0821   25.8901 O   0  0  0  0  0  0  0  0  0  0  0  0
    8.4987  -14.8979   18.7363 N   0  0  0  0  0  0  0  0  0  0  0  0
    8.9478  -13.6848   19.3292 C   0  0  0  0  0  0  0  0  0  0  0  0
    8.4742  -12.5466   18.8806 N   0  0  0  0  0  0  0  0  0  0  0  0
    9.8901  -13.6757   20.3878 N   0  0  0  0  0  0  0  0  0  0  0  0
   10.6262  -14.8602   20.6776 C   0  0  0  0  0  0  0  0  0  0  0  0
    9.7899  -15.9376   21.3383 C   0  0  0  0  0  0  0  0  0  0  0  0
   10.6334  -16.6089   22.3878 C   0  0  0  0  0  0  0  0  0  0  0  0
    9.9863  -16.7189   23.7308 C   0  0  2  0  0  0  0  0  0  0  0  0
    8.6525  -16.2008   23.7784 N   0  0  0  0  0  0  0  0  0  0  0  0
   10.8447  -16.1416   24.8224 C   0  0  0  0  0  0  0  0  0  0  0  0
   11.9631  -15.6285   24.5569 O   0  0  0  0  0  0  0  0  0  0  0  0
    8.6642  -11.6690   19.3928 N   0  0  0  0  0  0  0  0  0  0  0  0
   10.3873  -16.1765   26.1674 C   0  0  1  0  0  0  0  0  0  0  0  0
   11.3152  -15.9843   27.2640 C   0  0  0  0  0  0  0  0  0  0  0  0
   10.8682  -14.8737   28.1838 S   0  0  0  0  0  0  0  0  0  0  0  0
    9.5141  -13.9989   27.3403 C   0  0  0  0  0  0  0  0  0  0  0  0
   11.4366  -17.2160   28.0850 O   0  0  0  0  0  0  0  0  0  0  0  0
   10.6463  -18.3055   27.7528 O   0  0  0  0  0  0  0  0  0  0  0  0
  2  1  1  0
  3  4  1  0
  3  2  1  0
  4  5  1  0
  5  7  1  0
  5  6  1  1
  7  8  2  0
 10 12  1  0
 10  9  1  0
 11 10  2  0
 13 14  1  0
 13 12  1  0
 14 15  1  0
 16 15  1  6
 17  7  1  0
 17 16  1  0
 18 19  2  0
 18 16  1  0
 20 18  1  0
 21 20  1  0
 21 22  1  1
 23 22  1  0
 24 25  1  0
 24 21  1  0
 26 24  2  0
M  END
$$$$
