MRC.pdb
     RDKit          3D

 26 25  0  0  1  0  0  0  0  0999 V2000
    6.9138  -11.1132   26.6253 C   0  0  0  0  0  0  0  0  0  0  0  0
    5.7072  -12.1805   27.4553 S   0  0  0  0  0  0  0  0  0  0  0  0
    5.4092  -13.6775   26.4769 C   0  0  0  0  0  0  0  0  0  0  0  0
    6.7063  -14.3416   26.0733 C   0  0  0  0  0  0  0  0  0  0  0  0
    6.4664  -15.5902   25.2534 C   0  0  2  0  0  0  0  0  0  0  0  0
    5.6804  -16.5593   25.9729 N   0  0  0  0  0  0  0  0  0  0  0  0
    7.7311  -16.2200   24.8197 C   0  0  0  0  0  0  0  0  0  0  0  0
    8.1168  -17.2585   25.3841 O   0  0  0  0  0  0  0  0  0  0  0  0
    8.5258  -13.6473   17.6212 N   0  0  0  0  0  0  0  0  0  0  0  0
    8.3701  -13.2533   18.9797 C   0  0  0  0  0  0  0  0  0  0  0  0
    8.8167  -12.0780   19.3540 N   0  0  0  0  0  0  0  0  0  0  0  0
    7.7473  -14.0957   19.9343 N   0  0  0  0  0  0  0  0  0  0  0  0
    8.4996  -15.1450   20.5359 C   0  0  0  0  0  0  0  0  0  0  0  0
    9.5863  -14.6445   21.4661 C   0  0  0  0  0  0  0  0  0  0  0  0
   10.2884  -15.8387   22.0530 C   0  0  0  0  0  0  0  0  0  0  0  0
    9.7702  -16.2733   23.3860 C   0  0  2  0  0  0  0  0  0  0  0  0
    8.5308  -15.6600   23.7568 N   0  0  0  0  0  0  0  0  0  0  0  0
   10.8041  -16.1332   24.4691 C   0  0  0  0  0  0  0  0  0  0  0  0
   12.0155  -15.9484   24.1811 O   0  0  0  0  0  0  0  0  0  0  0  0
    8.7642  -11.7966   20.3474 N   0  0  0  0  0  0  0  0  0  0  0  0
   10.4080  -16.2106   25.8317 C   0  0  1  0  0  0  0  0  0  0  0  0
   11.4013  -16.2019   26.8870 C   0  0  0  0  0  0  0  0  0  0  0  0
   10.9781  -15.3284   28.0433 S   0  0  0  0  0  0  0  0  0  0  0  0
   10.5959  -13.6875   27.3565 C   0  0  0  0  0  0  0  0  0  0  0  0
   11.6240  -17.5686   27.4241 O   0  0  0  0  0  0  0  0  0  0  0  0
   10.8484  -18.6035   26.9245 O   0  0  0  0  0  0  0  0  0  0  0  0
  2  1  1  0
  3  4  1  0
  3  2  1  0
  4  5  1  0
  5  7  1  0
  5  6  1  1
  7  8  2  0
 10 12  1  0
 10  9  1  0
 11 10  2  0
 13 14  1  0
 13 12  1  0
 14 15  1  0
 16 15  1  6
 17  7  1  0
 17 16  1  0
 18 19  2  0
 18 16  1  0
 20 18  1  0
 21 20  1  0
 21 22  1  6
 23 22  1  0
 24 25  1  0
 24 21  1  0
 26 24  2  0
M  END
$$$$
