MRC.pdb
     RDKit          3D

 26 25  0  0  1  0  0  0  0  0999 V2000
    7.5087  -11.6637   25.9771 C   0  0  0  0  0  0  0  0  0  0  0  0
    5.9078  -12.2346   26.6057 S   0  0  0  0  0  0  0  0  0  0  0  0
    5.4767  -13.8367   25.8746 C   0  0  0  0  0  0  0  0  0  0  0  0
    6.7120  -14.6383   25.5315 C   0  0  0  0  0  0  0  0  0  0  0  0
    6.3647  -15.9300   24.8244 C   0  0  2  0  0  0  0  0  0  0  0  0
    5.3080  -16.6404   25.4977 N   0  0  0  0  0  0  0  0  0  0  0  0
    7.5364  -16.8207   24.6902 C   0  0  0  0  0  0  0  0  0  0  0  0
    7.3591  -18.0184   24.4072 O   0  0  0  0  0  0  0  0  0  0  0  0
    9.1732  -13.2367   18.1384 N   0  0  0  0  0  0  0  0  0  0  0  0
    8.3373  -13.7392   19.1746 C   0  0  0  0  0  0  0  0  0  0  0  0
    7.1157  -13.2743   19.2852 N   0  0  0  0  0  0  0  0  0  0  0  0
    8.7902  -14.7254   20.0864 N   0  0  0  0  0  0  0  0  0  0  0  0
   10.1659  -14.7574   20.4539 C   0  0  0  0  0  0  0  0  0  0  0  0
   10.4890  -15.8360   21.4684 C   0  0  0  0  0  0  0  0  0  0  0  0
    9.4514  -15.7829   22.5565 C   0  0  0  0  0  0  0  0  0  0  0  0
    9.8481  -16.4587   23.8294 C   0  0  2  0  0  0  0  0  0  0  0  0
    8.8824  -16.3357   24.8792 N   0  0  0  0  0  0  0  0  0  0  0  0
   11.2199  -16.0453   24.2867 C   0  0  0  0  0  0  0  0  0  0  0  0
   12.2475  -16.4465   23.6803 O   0  0  0  0  0  0  0  0  0  0  0  0
    6.4864  -13.6414   20.0186 N   0  0  0  0  0  0  0  0  0  0  0  0
   11.3561  -15.1928   25.4156 C   0  0  2  0  0  0  0  0  0  0  0  0
   11.4035  -15.7479   26.7535 C   0  0  0  0  0  0  0  0  0  0  0  0
   10.0579  -15.6765   27.4343 S   0  0  0  0  0  0  0  0  0  0  0  0
   10.2752  -14.6709   28.9349 C   0  0  0  0  0  0  0  0  0  0  0  0
   11.8099  -17.1762   26.7267 O   0  0  0  0  0  0  0  0  0  0  0  0
   12.8406  -17.5801   27.5612 O   0  0  0  0  0  0  0  0  0  0  0  0
  2  1  1  0
  3  4  1  0
  3  2  1  0
  4  5  1  0
  5  7  1  0
  5  6  1  1
  7  8  2  0
 10 12  1  0
 10  9  1  0
 11 10  2  0
 13 14  1  0
 13 12  1  0
 14 15  1  0
 16 15  1  6
 17  7  1  0
 17 16  1  0
 18 19  2  0
 18 16  1  0
 20 18  1  0
 21 20  1  0
 21 22  1  6
 23 22  1  0
 24 25  1  0
 24 21  1  0
 26 24  2  0
M  END
$$$$
