MRC.pdb
     RDKit          3D

 26 25  0  0  1  0  0  0  0  0999 V2000
    7.0716  -11.2540   25.8523 C   0  0  0  0  0  0  0  0  0  0  0  0
    5.8880  -11.8482   27.0891 S   0  0  0  0  0  0  0  0  0  0  0  0
    5.5558  -13.6142   26.8487 C   0  0  0  0  0  0  0  0  0  0  0  0
    5.8431  -14.0424   25.4273 C   0  0  0  0  0  0  0  0  0  0  0  0
    6.7150  -15.2779   25.3785 C   0  0  2  0  0  0  0  0  0  0  0  0
    7.8651  -15.1547   26.2368 N   0  0  0  0  0  0  0  0  0  0  0  0
    7.1678  -15.5829   24.0050 C   0  0  0  0  0  0  0  0  0  0  0  0
    6.4355  -16.2576   23.2603 O   0  0  0  0  0  0  0  0  0  0  0  0
    9.7623  -13.9653   17.8353 N   0  0  0  0  0  0  0  0  0  0  0  0
    8.3472  -14.0494   17.9592 C   0  0  0  0  0  0  0  0  0  0  0  0
    7.6651  -14.6704   17.0264 N   0  0  0  0  0  0  0  0  0  0  0  0
    7.6594  -13.4813   19.0606 N   0  0  0  0  0  0  0  0  0  0  0  0
    8.3859  -12.7191   20.0197 C   0  0  0  0  0  0  0  0  0  0  0  0
    8.5281  -13.4189   21.3565 C   0  0  0  0  0  0  0  0  0  0  0  0
    8.8402  -14.8676   21.0970 C   0  0  0  0  0  0  0  0  0  0  0  0
    9.0088  -15.6989   22.3278 C   0  0  2  0  0  0  0  0  0  0  0  0
    8.4391  -15.1173   23.5055 N   0  0  0  0  0  0  0  0  0  0  0  0
   10.4405  -16.1040   22.5463 C   0  0  0  0  0  0  0  0  0  0  0  0
   11.3792  -15.2990   22.3107 O   0  0  0  0  0  0  0  0  0  0  0  0
    6.6318  -14.6787   17.0595 N   0  0  0  0  0  0  0  0  0  0  0  0
   10.7354  -17.4097   23.0236 C   0  0  1  0  0  0  0  0  0  0  0  0
   12.1024  -17.7946   23.3126 C   0  0  0  0  0  0  0  0  0  0  0  0
   12.2112  -18.5111   24.6371 S   0  0  0  0  0  0  0  0  0  0  0  0
   11.4829  -17.4158   25.8941 C   0  0  0  0  0  0  0  0  0  0  0  0
   12.6327  -18.7101   22.2702 O   0  0  0  0  0  0  0  0  0  0  0  0
   13.9792  -19.0379   22.3093 O   0  0  0  0  0  0  0  0  0  0  0  0
  2  1  1  0
  3  4  1  0
  3  2  1  0
  4  5  1  0
  5  7  1  0
  5  6  1  1
  7  8  2  0
 10 12  1  0
 10  9  1  0
 11 10  2  0
 13 14  1  0
 13 12  1  0
 14 15  1  0
 16 15  1  6
 17  7  1  0
 17 16  1  0
 18 19  2  0
 18 16  1  0
 20 18  1  0
 21 20  1  0
 21 22  1  6
 23 22  1  0
 24 25  1  0
 24 21  1  0
 26 24  2  0
M  END
$$$$
