YIG.pdb
     RDKit          3D

 25 25  0  0  1  0  0  0  0  0999 V2000
   28.9249  -31.0843  -19.9281 O   0  0  0  0  0  0  0  0  0  0  0  0
   28.5583  -30.0270  -19.0940 C   0  0  0  0  0  0  0  0  0  0  0  0
   29.2752  -29.7077  -17.9595 C   0  0  0  0  0  0  0  0  0  0  0  0
   28.8807  -28.6439  -17.1477 C   0  0  0  0  0  0  0  0  0  0  0  0
   27.7719  -27.8786  -17.4435 C   0  0  0  0  0  0  0  0  0  0  0  0
   27.4038  -26.7634  -16.5444 C   0  0  0  0  0  0  0  0  0  0  0  0
   27.5551  -25.4183  -17.1642 C   0  0  2  0  0  0  0  0  0  0  0  0
   28.9355  -24.9961  -17.2760 N   0  0  0  0  0  0  0  0  0  0  0  0
   26.8596  -24.4366  -16.2651 C   0  0  0  0  0  0  0  0  0  0  0  0
   27.4994  -23.8181  -15.3463 O   0  0  0  0  0  0  0  0  0  0  0  0
   27.0585  -28.2004  -18.5773 C   0  0  0  0  0  0  0  0  0  0  0  0
   27.4516  -29.2544  -19.3791 C   0  0  0  0  0  0  0  0  0  0  0  0
   23.3604  -21.1886  -18.4849 C   0  0  0  0  0  0  0  0  0  0  0  0
   23.6931  -22.3633  -17.6237 C   0  0  0  0  0  0  0  0  0  0  0  0
   24.4930  -21.9525  -16.3906 C   0  0  2  0  0  0  0  0  0  0  0  0
   25.7916  -21.3166  -16.7852 C   0  0  0  0  0  0  0  0  0  0  0  0
   24.7734  -23.1900  -15.5292 C   0  0  2  0  0  0  0  0  0  0  0  0
   25.4846  -24.1590  -16.3958 N   0  0  0  0  0  0  0  0  0  0  0  0
   23.4712  -23.7661  -15.1338 C   0  0  0  0  0  0  0  0  0  0  0  0
   22.8220  -24.4287  -16.0206 O   0  0  0  0  0  0  0  0  0  0  0  0
   22.8506  -23.6757  -13.8763 N   0  0  0  0  0  0  0  0  0  0  0  0
   21.5458  -24.3097  -13.6132 C   0  0  0  0  0  0  0  0  0  0  0  0
   20.4710  -23.3297  -13.7698 C   0  0  0  0  0  0  0  0  0  0  0  0
   20.7509  -22.1460  -14.0698 O   0  0  0  0  0  0  0  0  0  0  0  0
   19.1514  -23.6966  -13.5903 O   0  0  0  0  0  0  0  0  0  0  0  0
  2  1  1  0
  3  2  2  0
  4  3  1  0
  5  4  2  0
  5 11  1  0
  6  5  1  0
  7  6  1  0
  7  9  1  0
  7  8  1  1
  9 10  2  0
 11 12  2  0
 12  2  1  0
 14 13  1  0
 14 15  1  0
 15 16  1  6
 17 15  1  0
 17 18  1  6
 18  9  1  0
 19 21  1  0
 19 17  1  0
 20 19  2  0
 22 21  1  0
 23 22  1  0
 23 25  1  0
 24 23  2  0
M  END
$$$$
