YIG.pdb
     RDKit          3D

 25 25  0  0  1  0  0  0  0  0999 V2000
   16.9450  -21.4002  -16.9003 O   0  0  0  0  0  0  0  0  0  0  0  0
   17.9945  -20.5553  -16.5361 C   0  0  0  0  0  0  0  0  0  0  0  0
   18.4116  -20.4290  -15.2272 C   0  0  0  0  0  0  0  0  0  0  0  0
   19.4644  -19.5750  -14.8981 C   0  0  0  0  0  0  0  0  0  0  0  0
   20.1221  -18.8321  -15.8563 C   0  0  0  0  0  0  0  0  0  0  0  0
   21.2312  -17.9441  -15.4457 C   0  0  0  0  0  0  0  0  0  0  0  0
   22.5804  -18.4716  -15.7889 C   0  0  2  0  0  0  0  0  0  0  0  0
   22.9071  -19.6959  -15.0885 N   0  0  0  0  0  0  0  0  0  0  0  0
   23.5812  -17.4346  -15.3658 C   0  0  0  0  0  0  0  0  0  0  0  0
   24.0283  -17.4020  -14.1679 O   0  0  0  0  0  0  0  0  0  0  0  0
   19.7027  -18.9608  -17.1623 C   0  0  0  0  0  0  0  0  0  0  0  0
   18.6599  -19.8073  -17.4851 C   0  0  0  0  0  0  0  0  0  0  0  0
   28.0611  -17.4599  -17.0582 C   0  0  0  0  0  0  0  0  0  0  0  0
   26.8446  -17.0918  -16.2725 C   0  0  0  0  0  0  0  0  0  0  0  0
   26.3300  -15.7038  -16.6434 C   0  0  2  0  0  0  0  0  0  0  0  0
   27.3481  -14.6532  -16.3176 C   0  0  0  0  0  0  0  0  0  0  0  0
   25.0368  -15.4162  -15.8705 C   0  0  2  0  0  0  0  0  0  0  0  0
   24.0646  -16.4630  -16.2641 N   0  0  0  0  0  0  0  0  0  0  0  0
   24.5313  -14.1006  -16.3150 C   0  0  0  0  0  0  0  0  0  0  0  0
   25.1825  -13.0589  -15.9439 O   0  0  0  0  0  0  0  0  0  0  0  0
   23.4031  -13.8517  -17.1149 N   0  0  0  0  0  0  0  0  0  0  0  0
   23.0296  -12.4830  -17.5163 C   0  0  0  0  0  0  0  0  0  0  0  0
   22.1355  -11.8941  -16.5192 C   0  0  0  0  0  0  0  0  0  0  0  0
   21.7228  -12.5951  -15.5665 O   0  0  0  0  0  0  0  0  0  0  0  0
   21.7423  -10.5736  -16.6181 O   0  0  0  0  0  0  0  0  0  0  0  0
  2  1  1  0
  3  2  2  0
  4  3  1  0
  5  4  2  0
  5 11  1  0
  6  5  1  0
  7  6  1  0
  7  9  1  0
  7  8  1  1
  9 10  2  0
 11 12  2  0
 12  2  1  0
 14 13  1  0
 14 15  1  0
 15 16  1  1
 17 15  1  0
 17 18  1  6
 18  9  1  0
 19 21  1  0
 19 17  1  0
 20 19  2  0
 22 21  1  0
 23 22  1  0
 23 25  1  0
 24 23  2  0
M  END
$$$$
