YIG.pdb
     RDKit          3D

 25 25  0  0  1  0  0  0  0  0999 V2000
   19.4823  -19.8391  -19.4526 O   0  0  0  0  0  0  0  0  0  0  0  0
   19.9828  -18.7723  -18.7047 C   0  0  0  0  0  0  0  0  0  0  0  0
   19.8908  -18.7365  -17.3287 C   0  0  0  0  0  0  0  0  0  0  0  0
   20.4019  -17.6543  -16.6120 C   0  0  0  0  0  0  0  0  0  0  0  0
   21.0120  -16.5901  -17.2428 C   0  0  0  0  0  0  0  0  0  0  0  0
   21.5346  -15.4715  -16.4286 C   0  0  0  0  0  0  0  0  0  0  0  0
   22.9904  -15.5731  -16.1338 C   0  0  2  0  0  0  0  0  0  0  0  0
   23.3253  -16.7167  -15.3113 N   0  0  0  0  0  0  0  0  0  0  0  0
   23.3723  -14.3418  -15.3632 C   0  0  0  0  0  0  0  0  0  0  0  0
   23.1745  -14.2675  -14.1016 O   0  0  0  0  0  0  0  0  0  0  0  0
   21.1021  -16.6294  -18.6170 C   0  0  0  0  0  0  0  0  0  0  0  0
   20.5951  -17.7024  -19.3239 C   0  0  0  0  0  0  0  0  0  0  0  0
   28.0924  -12.6691  -15.8765 C   0  0  0  0  0  0  0  0  0  0  0  0
   26.7113  -12.8592  -15.3389 C   0  0  0  0  0  0  0  0  0  0  0  0
   25.8003  -11.6867  -15.6918 C   0  0  2  0  0  0  0  0  0  0  0  0
   26.2582  -10.4324  -15.0112 C   0  0  0  0  0  0  0  0  0  0  0  0
   24.3651  -12.0072  -15.2562 C   0  0  2  0  0  0  0  0  0  0  0  0
   23.9594  -13.2270  -15.9933 N   0  0  0  0  0  0  0  0  0  0  0  0
   23.5055  -10.8824  -15.6803 C   0  0  0  0  0  0  0  0  0  0  0  0
   23.4229  -10.6406  -16.9379 O   0  0  0  0  0  0  0  0  0  0  0  0
   22.7504  -10.0334  -14.8535 N   0  0  0  0  0  0  0  0  0  0  0  0
   21.9656   -8.9153  -15.4082 C   0  0  0  0  0  0  0  0  0  0  0  0
   22.7169   -7.6659  -15.2865 C   0  0  0  0  0  0  0  0  0  0  0  0
   23.8938   -7.6901  -14.8579 O   0  0  0  0  0  0  0  0  0  0  0  0
   22.1415   -6.4608  -15.6395 O   0  0  0  0  0  0  0  0  0  0  0  0
  2  1  1  0
  3  2  2  0
  4  3  1  0
  5  4  2  0
  5 11  1  0
  6  5  1  0
  7  6  1  0
  7  9  1  0
  7  8  1  1
  9 10  2  0
 11 12  2  0
 12  2  1  0
 14 13  1  0
 14 15  1  0
 15 16  1  1
 17 15  1  0
 17 18  1  6
 18  9  1  0
 19 21  1  0
 19 17  1  0
 20 19  2  0
 22 21  1  0
 23 22  1  0
 23 25  1  0
 24 23  2  0
M  END
$$$$
