YIG.pdb
     RDKit          3D

 25 25  0  0  1  0  0  0  0  0999 V2000
   12.8676  -13.0895    5.4465 O   0  0  0  0  0  0  0  0  0  0  0  0
   13.8671  -13.9895    5.8191 C   0  0  0  0  0  0  0  0  0  0  0  0
   15.1422  -13.5742    6.1425 C   0  0  0  0  0  0  0  0  0  0  0  0
   16.1176  -14.5011    6.5108 C   0  0  0  0  0  0  0  0  0  0  0  0
   15.8491  -15.8529    6.5657 C   0  0  0  0  0  0  0  0  0  0  0  0
   16.9247  -16.7868    6.9636 C   0  0  0  0  0  0  0  0  0  0  0  0
   18.1055  -16.7628    6.0572 C   0  0  2  0  0  0  0  0  0  0  0  0
   17.7909  -17.1670    4.7030 N   0  0  0  0  0  0  0  0  0  0  0  0
   19.0985  -17.7511    6.5986 C   0  0  0  0  0  0  0  0  0  0  0  0
   19.3736  -18.8245    5.9598 O   0  0  0  0  0  0  0  0  0  0  0  0
   14.5746  -16.2639    6.2422 C   0  0  0  0  0  0  0  0  0  0  0  0
   13.6110  -15.3437    5.8778 C   0  0  0  0  0  0  0  0  0  0  0  0
   23.4704  -15.8302    8.8362 C   0  0  0  0  0  0  0  0  0  0  0  0
   22.5711  -16.8011    8.1427 C   0  0  0  0  0  0  0  0  0  0  0  0
   21.7908  -17.6583    9.1354 C   0  0  2  0  0  0  0  0  0  0  0  0
   22.7098  -18.5726    9.8877 C   0  0  0  0  0  0  0  0  0  0  0  0
   20.7491  -18.4927    8.3799 C   0  0  2  0  0  0  0  0  0  0  0  0
   19.7624  -17.5379    7.8228 N   0  0  0  0  0  0  0  0  0  0  0  0
   20.0718  -19.3630    9.3637 C   0  0  0  0  0  0  0  0  0  0  0  0
   19.3360  -18.7962   10.2493 O   0  0  0  0  0  0  0  0  0  0  0  0
   20.1363  -20.7645    9.4424 N   0  0  0  0  0  0  0  0  0  0  0  0
   19.4907  -21.5054   10.5415 C   0  0  0  0  0  0  0  0  0  0  0  0
   18.0435  -21.2942   10.5068 C   0  0  0  0  0  0  0  0  0  0  0  0
   17.5440  -20.5726    9.6127 O   0  0  0  0  0  0  0  0  0  0  0  0
   17.2230  -21.8824   11.4496 O   0  0  0  0  0  0  0  0  0  0  0  0
  2  1  1  0
  3  2  2  0
  4  3  1  0
  5  4  2  0
  5 11  1  0
  6  5  1  0
  7  6  1  0
  7  9  1  0
  7  8  1  6
  9 10  2  0
 11 12  2  0
 12  2  1  0
 14 13  1  0
 14 15  1  0
 15 16  1  6
 17 15  1  0
 17 18  1  1
 18  9  1  0
 19 21  1  0
 19 17  1  0
 20 19  2  0
 22 21  1  0
 23 22  1  0
 23 25  1  0
 24 23  2  0
M  END
$$$$
