YIG.pdb
     RDKit          3D

 25 25  0  0  1  0  0  0  0  0999 V2000
   18.2879  -23.1336  -12.4187 O   0  0  0  0  0  0  0  0  0  0  0  0
   19.5480  -22.5351  -12.3779 C   0  0  0  0  0  0  0  0  0  0  0  0
   20.6877  -23.2012  -12.7786 C   0  0  0  0  0  0  0  0  0  0  0  0
   21.9320  -22.5727  -12.7246 C   0  0  0  0  0  0  0  0  0  0  0  0
   22.0705  -21.2764  -12.2741 C   0  0  0  0  0  0  0  0  0  0  0  0
   23.4164  -20.6640  -12.2404 C   0  0  0  0  0  0  0  0  0  0  0  0
   24.2898  -21.1945  -11.1578 C   0  0  2  0  0  0  0  0  0  0  0  0
   23.7750  -20.9290   -9.8308 N   0  0  0  0  0  0  0  0  0  0  0  0
   25.6121  -20.4916  -11.2724 C   0  0  0  0  0  0  0  0  0  0  0  0
   25.8319  -19.3974  -10.6476 O   0  0  0  0  0  0  0  0  0  0  0  0
   20.9303  -20.6144  -11.8748 C   0  0  0  0  0  0  0  0  0  0  0  0
   19.6996  -21.2394  -11.9294 C   0  0  0  0  0  0  0  0  0  0  0  0
   30.3474  -22.4033  -10.2107 C   0  0  0  0  0  0  0  0  0  0  0  0
   29.2032  -21.4969  -10.5303 C   0  0  0  0  0  0  0  0  0  0  0  0
   29.0603  -21.2746  -12.0334 C   0  0  2  0  0  0  0  0  0  0  0  0
   30.3347  -20.7442  -12.6173 C   0  0  0  0  0  0  0  0  0  0  0  0
   27.9262  -20.2759  -12.2953 C   0  0  2  0  0  0  0  0  0  0  0  0
   26.6565  -21.0048  -12.0666 N   0  0  0  0  0  0  0  0  0  0  0  0
   28.0000  -19.8753  -13.7159 C   0  0  0  0  0  0  0  0  0  0  0  0
   28.9785  -19.1243  -14.0702 O   0  0  0  0  0  0  0  0  0  0  0  0
   27.1108  -20.2301  -14.7445 N   0  0  0  0  0  0  0  0  0  0  0  0
   27.3084  -19.7641  -16.1292 C   0  0  0  0  0  0  0  0  0  0  0  0
   28.0516  -20.7653  -16.8944 C   0  0  0  0  0  0  0  0  0  0  0  0
   28.3857  -21.8412  -16.3463 O   0  0  0  0  0  0  0  0  0  0  0  0
   28.3881  -20.5361  -18.2144 O   0  0  0  0  0  0  0  0  0  0  0  0
  2  1  1  0
  3  2  2  0
  4  3  1  0
  5  4  2  0
  5 11  1  0
  6  5  1  0
  7  6  1  0
  7  9  1  0
  7  8  1  1
  9 10  2  0
 11 12  2  0
 12  2  1  0
 14 13  1  0
 14 15  1  0
 15 16  1  1
 17 15  1  0
 17 18  1  6
 18  9  1  0
 19 21  1  0
 19 17  1  0
 20 19  2  0
 22 21  1  0
 23 22  1  0
 23 25  1  0
 24 23  2  0
M  END
$$$$
