YIG.pdb
     RDKit          3D

 25 25  0  0  1  0  0  0  0  0999 V2000
   27.4671  -19.7028  -22.4192 O   0  0  0  0  0  0  0  0  0  0  0  0
   26.9455  -20.1369  -21.1996 C   0  0  0  0  0  0  0  0  0  0  0  0
   26.8342  -19.2971  -20.1109 C   0  0  0  0  0  0  0  0  0  0  0  0
   26.3080  -19.7641  -18.9063 C   0  0  0  0  0  0  0  0  0  0  0  0
   25.8832  -21.0680  -18.7577 C   0  0  0  0  0  0  0  0  0  0  0  0
   25.3340  -21.5043  -17.4556 C   0  0  0  0  0  0  0  0  0  0  0  0
   26.3764  -21.8415  -16.4476 C   0  0  2  0  0  0  0  0  0  0  0  0
   27.1530  -23.0108  -16.8024 N   0  0  0  0  0  0  0  0  0  0  0  0
   25.6643  -22.1517  -15.1622 C   0  0  0  0  0  0  0  0  0  0  0  0
   25.1735  -23.3129  -14.9456 O   0  0  0  0  0  0  0  0  0  0  0  0
   25.9958  -21.9037  -19.8471 C   0  0  0  0  0  0  0  0  0  0  0  0
   26.5173  -21.4384  -21.0386 C   0  0  0  0  0  0  0  0  0  0  0  0
   25.4991  -21.5081   -9.4559 C   0  0  0  0  0  0  0  0  0  0  0  0
   24.7178  -20.7581  -10.4853 C   0  0  0  0  0  0  0  0  0  0  0  0
   25.4884  -20.6271  -11.7961 C   0  0  2  0  0  0  0  0  0  0  0  0
   25.5617  -19.1946  -12.2305 C   0  0  0  0  0  0  0  0  0  0  0  0
   24.7896  -21.4534  -12.8829 C   0  0  2  0  0  0  0  0  0  0  0  0
   25.5088  -21.1840  -14.1502 N   0  0  0  0  0  0  0  0  0  0  0  0
   23.4032  -20.9559  -13.0032 C   0  0  0  0  0  0  0  0  0  0  0  0
   23.2408  -19.7286  -13.3412 O   0  0  0  0  0  0  0  0  0  0  0  0
   22.2198  -21.6833  -12.7913 N   0  0  0  0  0  0  0  0  0  0  0  0
   20.8941  -21.0472  -12.8996 C   0  0  0  0  0  0  0  0  0  0  0  0
   20.4299  -20.6265  -11.5775 C   0  0  0  0  0  0  0  0  0  0  0  0
   19.4665  -21.2212  -11.0411 O   0  0  0  0  0  0  0  0  0  0  0  0
   21.0432  -19.5808  -10.9154 O   0  0  0  0  0  0  0  0  0  0  0  0
  2  1  1  0
  3  2  2  0
  4  3  1  0
  5  4  2  0
  5 11  1  0
  6  5  1  0
  7  6  1  0
  7  9  1  0
  7  8  1  6
  9 10  2  0
 11 12  2  0
 12  2  1  0
 14 13  1  0
 14 15  1  0
 15 16  1  6
 17 15  1  0
 17 18  1  6
 18  9  1  0
 19 21  1  0
 19 17  1  0
 20 19  2  0
 22 21  1  0
 23 22  1  0
 23 25  1  0
 24 23  2  0
M  END
$$$$
