YIG.pdb
     RDKit          3D

 25 25  0  0  1  0  0  0  0  0999 V2000
   19.2024  -11.1345  -25.0891 O   0  0  0  0  0  0  0  0  0  0  0  0
   19.2521  -10.7791  -23.7404 C   0  0  0  0  0  0  0  0  0  0  0  0
   18.1435  -10.3115  -23.0656 C   0  0  0  0  0  0  0  0  0  0  0  0
   18.2284   -9.9651  -21.7170 C   0  0  0  0  0  0  0  0  0  0  0  0
   19.4096  -10.0750  -21.0131 C   0  0  0  0  0  0  0  0  0  0  0  0
   19.4370   -9.6923  -19.5848 C   0  0  0  0  0  0  0  0  0  0  0  0
   19.7882  -10.8133  -18.6702 C   0  0  2  0  0  0  0  0  0  0  0  0
   18.8086  -11.8794  -18.6754 N   0  0  0  0  0  0  0  0  0  0  0  0
   19.8292  -10.2515  -17.2779 C   0  0  0  0  0  0  0  0  0  0  0  0
   18.8819  -10.4781  -16.4488 O   0  0  0  0  0  0  0  0  0  0  0  0
   20.5145  -10.5424  -21.6903 C   0  0  0  0  0  0  0  0  0  0  0  0
   20.4274  -10.8846  -23.0257 C   0  0  0  0  0  0  0  0  0  0  0  0
   23.8619  -11.1378  -14.2783 C   0  0  0  0  0  0  0  0  0  0  0  0
   22.5224  -10.7503  -14.8151 C   0  0  0  0  0  0  0  0  0  0  0  0
   22.3720   -9.2353  -14.9214 C   0  0  2  0  0  0  0  0  0  0  0  0
   22.5577   -8.5861  -13.5834 C   0  0  0  0  0  0  0  0  0  0  0  0
   20.9767   -8.8982  -15.4614 C   0  0  2  0  0  0  0  0  0  0  0  0
   20.9044   -9.4581  -16.8315 N   0  0  0  0  0  0  0  0  0  0  0  0
   20.8687   -7.4264  -15.5384 C   0  0  0  0  0  0  0  0  0  0  0  0
   20.8583   -6.7739  -14.4333 O   0  0  0  0  0  0  0  0  0  0  0  0
   20.7789   -6.6422  -16.7010 N   0  0  0  0  0  0  0  0  0  0  0  0
   20.6916   -5.1719  -16.6343 C   0  0  0  0  0  0  0  0  0  0  0  0
   19.2920   -4.7495  -16.6861 C   0  0  0  0  0  0  0  0  0  0  0  0
   18.3859   -5.6131  -16.7388 O   0  0  0  0  0  0  0  0  0  0  0  0
   18.9600   -3.4087  -16.6774 O   0  0  0  0  0  0  0  0  0  0  0  0
  2  1  1  0
  3  2  2  0
  4  3  1  0
  5  4  2  0
  5 11  1  0
  6  5  1  0
  7  6  1  0
  7  9  1  0
  7  8  1  1
  9 10  2  0
 11 12  2  0
 12  2  1  0
 14 13  1  0
 14 15  1  0
 15 16  1  1
 17 15  1  0
 17 18  1  6
 18  9  1  0
 19 21  1  0
 19 17  1  0
 20 19  2  0
 22 21  1  0
 23 22  1  0
 23 25  1  0
 24 23  2  0
M  END
$$$$
