YIG.pdb
     RDKit          3D

 25 25  0  0  1  0  0  0  0  0999 V2000
   28.2385  -29.9007  -18.5245 O   0  0  0  0  0  0  0  0  0  0  0  0
   28.0828  -28.6634  -17.8978 C   0  0  0  0  0  0  0  0  0  0  0  0
   28.9308  -28.2388  -16.8960 C   0  0  0  0  0  0  0  0  0  0  0  0
   28.7463  -26.9955  -16.2907 C   0  0  0  0  0  0  0  0  0  0  0  0
   27.7213  -26.1518  -16.6651 C   0  0  0  0  0  0  0  0  0  0  0  0
   27.5770  -24.8458  -15.9862 C   0  0  0  0  0  0  0  0  0  0  0  0
   28.0097  -23.6877  -16.8156 C   0  0  2  0  0  0  0  0  0  0  0  0
   29.4378  -23.6603  -17.0525 N   0  0  0  0  0  0  0  0  0  0  0  0
   27.6599  -22.4423  -16.0524 C   0  0  0  0  0  0  0  0  0  0  0  0
   28.5681  -21.6225  -15.6791 O   0  0  0  0  0  0  0  0  0  0  0  0
   26.8764  -26.5793  -17.6658 C   0  0  0  0  0  0  0  0  0  0  0  0
   27.0617  -27.8109  -18.2633 C   0  0  0  0  0  0  0  0  0  0  0  0
   27.0438  -17.6303  -15.2484 C   0  0  0  0  0  0  0  0  0  0  0  0
   25.8294  -18.3863  -15.6800 C   0  0  0  0  0  0  0  0  0  0  0  0
   26.1860  -19.7668  -16.2241 C   0  0  2  0  0  0  0  0  0  0  0  0
   25.3683  -20.0888  -17.4382 C   0  0  0  0  0  0  0  0  0  0  0  0
   25.9286  -20.8231  -15.1423 C   0  0  2  0  0  0  0  0  0  0  0  0
   26.3276  -22.1284  -15.7191 N   0  0  0  0  0  0  0  0  0  0  0  0
   24.4760  -20.8427  -14.8707 C   0  0  0  0  0  0  0  0  0  0  0  0
   23.6953  -21.1516  -15.8413 O   0  0  0  0  0  0  0  0  0  0  0  0
   23.8375  -20.5620  -13.6509 N   0  0  0  0  0  0  0  0  0  0  0  0
   22.3705  -20.6231  -13.5168 C   0  0  0  0  0  0  0  0  0  0  0  0
   21.7610  -19.4419  -14.1279 C   0  0  0  0  0  0  0  0  0  0  0  0
   22.4924  -18.5563  -14.6282 O   0  0  0  0  0  0  0  0  0  0  0  0
   20.3880  -19.2936  -14.1585 O   0  0  0  0  0  0  0  0  0  0  0  0
  2  1  1  0
  3  2  2  0
  4  3  1  0
  5  4  2  0
  5 11  1  0
  6  5  1  0
  7  6  1  0
  7  9  1  0
  7  8  1  1
  9 10  2  0
 11 12  2  0
 12  2  1  0
 14 13  1  0
 14 15  1  0
 15 16  1  6
 17 15  1  0
 17 18  1  6
 18  9  1  0
 19 21  1  0
 19 17  1  0
 20 19  2  0
 22 21  1  0
 23 22  1  0
 23 25  1  0
 24 23  2  0
M  END
$$$$
