CMH.pdb
     RDKit          3D

 25 25  0  0  1  0  0  0  0  0999 V2000
    8.5398  -15.7521   19.0988 N   0  0  0  0  0  0  0  0  0  0  0  0
    7.5293  -15.8012   20.1098 C   0  0  1  0  0  0  0  0  0  0  0  0
    6.8704  -17.1373   20.2033 C   0  0  0  0  0  0  0  0  0  0  0  0
    8.1147  -18.3575   20.7036 S   0  0  0  0  0  0  0  0  0  0  0  0
    8.1269  -15.4070   21.4321 C   0  0  0  0  0  0  0  0  0  0  0  0
    9.3618  -15.4846   21.6365 O   0  0  0  0  0  0  0  0  0  0  0  0
    7.2083  -11.7314   28.3742 C   0  0  0  0  0  0  0  0  0  0  0  0
    6.3974  -12.3400   26.8941 S   0  0  0  0  0  0  0  0  0  0  0  0
    7.5127  -13.2805   25.8195 C   0  0  0  0  0  0  0  0  0  0  0  0
    6.8150  -13.7189   24.5475 C   0  0  0  0  0  0  0  0  0  0  0  0
    7.7667  -14.5676   23.7853 C   0  0  2  0  0  0  0  0  0  0  0  0
    7.2938  -14.9368   22.4791 N   0  0  0  0  0  0  0  0  0  0  0  0
    8.3451  -15.7028   24.5586 C   0  0  0  0  0  0  0  0  0  0  0  0
    7.6248  -16.7184   24.7002 O   0  0  0  0  0  0  0  0  0  0  0  0
    9.6307  -15.6808   25.1201 N   0  0  0  0  0  0  0  0  0  0  0  0
   10.2038  -16.7785   25.8543 C   0  0  1  0  0  0  0  0  0  0  0  0
   11.6912  -16.9273   25.5914 C   0  0  0  0  0  0  0  0  0  0  0  0
   11.9437  -17.5069   24.2470 C   0  0  0  0  0  0  0  0  0  0  0  0
   10.9813  -17.9879   23.3711 C   0  0  0  0  0  0  0  0  0  0  0  0
   11.5738  -18.4372   22.2456 N   0  0  0  0  0  0  0  0  0  0  0  0
   12.8905  -18.2518   22.3880 C   0  0  0  0  0  0  0  0  0  0  0  0
   13.1164  -17.6858   23.6057 N   0  0  0  0  0  0  0  0  0  0  0  0
   10.0541  -16.5805   27.3122 C   0  0  0  0  0  0  0  0  0  0  0  0
    9.5127  -15.5664   27.8024 O   0  0  0  0  0  0  0  0  0  0  0  0
   10.5320  -17.5559   28.1631 O   0  0  0  0  0  0  0  0  0  0  0  0
  2  1  1  6
  2  5  1  0
  3  2  1  0
  3  4  1  0
  5  6  2  0
  7  8  1  0
  9  8  1  0
 10  9  1  0
 11 10  1  1
 11 13  1  0
 12  5  1  0
 12 11  1  0
 13 15  1  0
 13 14  2  0
 15 16  1  0
 16 23  1  0
 17 18  1  0
 16 17  1  1
 18 19  2  0
 19 20  1  0
 21 20  1  0
 22 18  1  0
 22 21  2  0
 23 24  2  0
 23 25  1  0
M  END
$$$$
