CMH.pdb
     RDKit          3D

 25 25  0  0  1  0  0  0  0  0999 V2000
    8.4584  -16.3974   18.8613 N   0  0  0  0  0  0  0  0  0  0  0  0
    7.5503  -16.3241   19.9639 C   0  0  1  0  0  0  0  0  0  0  0  0
    7.0100  -17.6589   20.3567 C   0  0  0  0  0  0  0  0  0  0  0  0
    8.4042  -18.7859   20.6275 S   0  0  0  0  0  0  0  0  0  0  0  0
    8.2318  -15.6604   21.1284 C   0  0  0  0  0  0  0  0  0  0  0  0
    9.4815  -15.6547   21.2332 O   0  0  0  0  0  0  0  0  0  0  0  0
    6.0792  -12.2273   27.3736 C   0  0  0  0  0  0  0  0  0  0  0  0
    6.9153  -11.5354   25.9449 S   0  0  0  0  0  0  0  0  0  0  0  0
    7.9213  -12.7564   25.0615 C   0  0  0  0  0  0  0  0  0  0  0  0
    7.1165  -13.4637   23.9895 C   0  0  0  0  0  0  0  0  0  0  0  0
    8.0156  -14.4457   23.3305 C   0  0  2  0  0  0  0  0  0  0  0  0
    7.4633  -15.0246   22.1364 N   0  0  0  0  0  0  0  0  0  0  0  0
    8.6318  -15.4417   24.2523 C   0  0  0  0  0  0  0  0  0  0  0  0
    8.1403  -16.5943   24.2530 O   0  0  0  0  0  0  0  0  0  0  0  0
    9.7124  -15.1481   25.0976 N   0  0  0  0  0  0  0  0  0  0  0  0
   10.3651  -16.1227   25.9323 C   0  0  1  0  0  0  0  0  0  0  0  0
    9.5860  -17.4230   26.0089 C   0  0  0  0  0  0  0  0  0  0  0  0
   10.2094  -18.3667   26.9722 C   0  0  0  0  0  0  0  0  0  0  0  0
   11.1830  -18.0526   27.9094 C   0  0  0  0  0  0  0  0  0  0  0  0
   11.5121  -19.1564   28.6115 N   0  0  0  0  0  0  0  0  0  0  0  0
   10.7690  -20.1637   28.1406 C   0  0  0  0  0  0  0  0  0  0  0  0
    9.9761  -19.6838   27.1429 N   0  0  0  0  0  0  0  0  0  0  0  0
   11.7028  -16.4667   25.4039 C   0  0  0  0  0  0  0  0  0  0  0  0
   12.7500  -16.3110   26.0679 O   0  0  0  0  0  0  0  0  0  0  0  0
   11.7958  -16.9800   24.1265 O   0  0  0  0  0  0  0  0  0  0  0  0
  2  1  1  6
  2  5  1  0
  3  2  1  0
  3  4  1  0
  5  6  2  0
  7  8  1  0
  9  8  1  0
 10  9  1  0
 11 10  1  1
 11 13  1  0
 12  5  1  0
 12 11  1  0
 13 15  1  0
 13 14  2  0
 15 16  1  0
 16 23  1  0
 17 18  1  0
 16 17  1  6
 18 19  2  0
 19 20  1  0
 21 20  1  0
 22 18  1  0
 22 21  2  0
 23 24  2  0
 23 25  1  0
M  END
$$$$
