CMH.pdb
     RDKit          3D

 25 25  0  0  1  0  0  0  0  0999 V2000
    8.6237  -16.7584   19.3989 N   0  0  0  0  0  0  0  0  0  0  0  0
    7.9240  -17.0030   20.6220 C   0  0  1  0  0  0  0  0  0  0  0  0
    8.0715  -18.4092   21.1005 C   0  0  0  0  0  0  0  0  0  0  0  0
    7.0314  -18.6283   22.5693 S   0  0  0  0  0  0  0  0  0  0  0  0
    8.3938  -16.0310   21.6687 C   0  0  0  0  0  0  0  0  0  0  0  0
    9.5769  -15.6155   21.6857 O   0  0  0  0  0  0  0  0  0  0  0  0
    6.7044  -11.4978   27.8462 C   0  0  0  0  0  0  0  0  0  0  0  0
    6.1830  -12.7781   26.7027 S   0  0  0  0  0  0  0  0  0  0  0  0
    7.2086  -12.8457   25.2103 C   0  0  0  0  0  0  0  0  0  0  0  0
    6.6781  -13.8640   24.2211 C   0  0  0  0  0  0  0  0  0  0  0  0
    7.8425  -14.6135   23.6832 C   0  0  2  0  0  0  0  0  0  0  0  0
    7.4964  -15.5650   22.6630 N   0  0  0  0  0  0  0  0  0  0  0  0
    8.7681  -15.1528   24.7195 C   0  0  0  0  0  0  0  0  0  0  0  0
    9.1143  -14.3693   25.6341 O   0  0  0  0  0  0  0  0  0  0  0  0
    9.2548  -16.4687   24.7124 N   0  0  0  0  0  0  0  0  0  0  0  0
   10.1628  -16.9929   25.6989 C   0  0  1  0  0  0  0  0  0  0  0  0
    9.9913  -18.4880   25.8963 C   0  0  0  0  0  0  0  0  0  0  0  0
    8.8036  -18.7859   26.7375 C   0  0  0  0  0  0  0  0  0  0  0  0
    7.5869  -18.1204   26.6978 C   0  0  0  0  0  0  0  0  0  0  0  0
    6.7424  -18.6611   27.6001 N   0  0  0  0  0  0  0  0  0  0  0  0
    7.3963  -19.6549   28.2112 C   0  0  0  0  0  0  0  0  0  0  0  0
    8.6506  -19.7314   27.6868 N   0  0  0  0  0  0  0  0  0  0  0  0
   11.5694  -16.7828   25.2936 C   0  0  0  0  0  0  0  0  0  0  0  0
   11.8854  -16.2281   24.2192 O   0  0  0  0  0  0  0  0  0  0  0  0
   12.5712  -17.2173   26.1371 O   0  0  0  0  0  0  0  0  0  0  0  0
  2  1  1  6
  2  5  1  0
  3  2  1  0
  3  4  1  0
  5  6  2  0
  7  8  1  0
  9  8  1  0
 10  9  1  0
 11 10  1  1
 11 13  1  0
 12  5  1  0
 12 11  1  0
 13 15  1  0
 13 14  2  0
 15 16  1  0
 16 23  1  0
 17 18  1  0
 16 17  1  6
 18 19  2  0
 19 20  1  0
 21 20  1  0
 22 18  1  0
 22 21  2  0
 23 24  2  0
 23 25  1  0
M  END
$$$$
