CMH.pdb
     RDKit          3D

 25 25  0  0  1  0  0  0  0  0999 V2000
   10.1229  -16.4590   18.7317 N   0  0  0  0  0  0  0  0  0  0  0  0
    8.9402  -16.4237   19.5352 C   0  0  1  0  0  0  0  0  0  0  0  0
    8.2576  -17.7487   19.6165 C   0  0  0  0  0  0  0  0  0  0  0  0
    9.4219  -18.9530   20.3103 S   0  0  0  0  0  0  0  0  0  0  0  0
    9.2844  -15.9155   20.9079 C   0  0  0  0  0  0  0  0  0  0  0  0
   10.4768  -15.7534   21.2610 O   0  0  0  0  0  0  0  0  0  0  0  0
    7.0108  -11.8467   27.2214 C   0  0  0  0  0  0  0  0  0  0  0  0
    6.4631  -12.7606   25.7780 S   0  0  0  0  0  0  0  0  0  0  0  0
    7.7849  -13.7496   25.0307 C   0  0  0  0  0  0  0  0  0  0  0  0
    7.3134  -14.4348   23.7638 C   0  0  0  0  0  0  0  0  0  0  0  0
    8.4840  -15.1298   23.1692 C   0  0  2  0  0  0  0  0  0  0  0  0
    8.2547  -15.6090   21.8336 N   0  0  0  0  0  0  0  0  0  0  0  0
    9.1346  -16.1291   24.0634 C   0  0  0  0  0  0  0  0  0  0  0  0
    8.7012  -17.3037   24.0119 O   0  0  0  0  0  0  0  0  0  0  0  0
   10.1859  -15.8156   24.9380 N   0  0  0  0  0  0  0  0  0  0  0  0
   10.9320  -16.7984   25.6795 C   0  0  1  0  0  0  0  0  0  0  0  0
   11.8497  -16.1629   26.7080 C   0  0  0  0  0  0  0  0  0  0  0  0
   11.0748  -15.4014   27.7215 C   0  0  0  0  0  0  0  0  0  0  0  0
    9.6951  -15.2610   27.7584 C   0  0  0  0  0  0  0  0  0  0  0  0
    9.3426  -14.5042   28.8180 N   0  0  0  0  0  0  0  0  0  0  0  0
   10.4680  -14.1614   29.4539 C   0  0  0  0  0  0  0  0  0  0  0  0
   11.5226  -14.7070   28.7872 N   0  0  0  0  0  0  0  0  0  0  0  0
   10.0293  -17.7016   26.4254 C   0  0  0  0  0  0  0  0  0  0  0  0
   10.4348  -18.7330   27.0031 O   0  0  0  0  0  0  0  0  0  0  0  0
    8.6862  -17.3911   26.4844 O   0  0  0  0  0  0  0  0  0  0  0  0
  2  1  1  6
  2  5  1  0
  3  2  1  0
  3  4  1  0
  5  6  2  0
  7  8  1  0
  9  8  1  0
 10  9  1  0
 11 10  1  1
 11 13  1  0
 12  5  1  0
 12 11  1  0
 13 15  1  0
 13 14  2  0
 15 16  1  0
 16 23  1  0
 17 18  1  0
 16 17  1  1
 18 19  2  0
 19 20  1  0
 21 20  1  0
 22 18  1  0
 22 21  2  0
 23 24  2  0
 23 25  1  0
M  END
$$$$
