CMH.pdb
     RDKit          3D

 25 25  0  0  1  0  0  0  0  0999 V2000
    7.6711  -17.2463   20.4253 N   0  0  0  0  0  0  0  0  0  0  0  0
    8.6128  -16.1946   20.1959 C   0  0  1  0  0  0  0  0  0  0  0  0
    8.1368  -15.2032   19.1867 C   0  0  0  0  0  0  0  0  0  0  0  0
    6.5006  -15.7201   18.6013 S   0  0  0  0  0  0  0  0  0  0  0  0
    8.9322  -15.5175   21.4999 C   0  0  0  0  0  0  0  0  0  0  0  0
    9.9154  -14.7466   21.6085 O   0  0  0  0  0  0  0  0  0  0  0  0
    6.9983  -11.7004   27.8707 C   0  0  0  0  0  0  0  0  0  0  0  0
    6.4649  -12.5226   26.3679 S   0  0  0  0  0  0  0  0  0  0  0  0
    7.6937  -13.6947   25.7357 C   0  0  0  0  0  0  0  0  0  0  0  0
    7.2605  -14.2877   24.4099 C   0  0  0  0  0  0  0  0  0  0  0  0
    8.3591  -15.1667   23.9331 C   0  0  2  0  0  0  0  0  0  0  0  0
    8.1178  -15.7433   22.6387 N   0  0  0  0  0  0  0  0  0  0  0  0
    8.8579  -16.1429   24.9428 C   0  0  0  0  0  0  0  0  0  0  0  0
    8.0403  -16.9963   25.3593 O   0  0  0  0  0  0  0  0  0  0  0  0
   10.1725  -16.1448   25.4333 N   0  0  0  0  0  0  0  0  0  0  0  0
   10.7083  -17.1731   26.2865 C   0  0  1  0  0  0  0  0  0  0  0  0
   12.2094  -17.3269   26.1227 C   0  0  0  0  0  0  0  0  0  0  0  0
   12.5545  -17.8060   24.7593 C   0  0  0  0  0  0  0  0  0  0  0  0
   11.7239  -18.5240   23.9113 C   0  0  0  0  0  0  0  0  0  0  0  0
   12.3696  -18.7868   22.7565 N   0  0  0  0  0  0  0  0  0  0  0  0
   13.5912  -18.2514   22.8531 C   0  0  0  0  0  0  0  0  0  0  0  0
   13.7045  -17.6544   24.0717 N   0  0  0  0  0  0  0  0  0  0  0  0
   10.4728  -16.8590   27.7123 C   0  0  0  0  0  0  0  0  0  0  0  0
    9.9651  -15.7812   28.0899 O   0  0  0  0  0  0  0  0  0  0  0  0
   10.8287  -17.7948   28.6617 O   0  0  0  0  0  0  0  0  0  0  0  0
  2  1  1  1
  2  5  1  0
  3  2  1  0
  3  4  1  0
  5  6  2  0
  7  8  1  0
  9  8  1  0
 10  9  1  0
 11 10  1  1
 11 13  1  0
 12  5  1  0
 12 11  1  0
 13 15  1  0
 13 14  2  0
 15 16  1  0
 16 23  1  0
 17 18  1  0
 16 17  1  1
 18 19  2  0
 19 20  1  0
 21 20  1  0
 22 18  1  0
 22 21  2  0
 23 24  2  0
 23 25  1  0
M  END
$$$$
