CMH.pdb
     RDKit          3D

 25 25  0  0  1  0  0  0  0  0999 V2000
    9.4813  -16.4020   19.6540 N   0  0  0  0  0  0  0  0  0  0  0  0
    8.3983  -16.4540   20.5867 C   0  0  1  0  0  0  0  0  0  0  0  0
    7.8674  -17.8358   20.7787 C   0  0  0  0  0  0  0  0  0  0  0  0
    9.1491  -18.8374   21.5795 S   0  0  0  0  0  0  0  0  0  0  0  0
    8.8401  -15.8650   21.8978 C   0  0  0  0  0  0  0  0  0  0  0  0
   10.0438  -15.8901   22.2490 O   0  0  0  0  0  0  0  0  0  0  0  0
    7.1755  -11.2707   28.1030 C   0  0  0  0  0  0  0  0  0  0  0  0
    6.5161  -12.1138   26.6632 S   0  0  0  0  0  0  0  0  0  0  0  0
    7.7268  -13.2076   25.8752 C   0  0  0  0  0  0  0  0  0  0  0  0
    7.1685  -13.8300   24.6111 C   0  0  0  0  0  0  0  0  0  0  0  0
    8.2035  -14.7483   24.0701 C   0  0  2  0  0  0  0  0  0  0  0  0
    7.8921  -15.2663   22.7660 N   0  0  0  0  0  0  0  0  0  0  0  0
    8.6802  -15.7836   25.0305 C   0  0  0  0  0  0  0  0  0  0  0  0
    7.9187  -16.7565   25.2403 O   0  0  0  0  0  0  0  0  0  0  0  0
    9.9155  -15.7147   25.6920 N   0  0  0  0  0  0  0  0  0  0  0  0
   10.4103  -16.7383   26.5750 C   0  0  1  0  0  0  0  0  0  0  0  0
   11.9183  -16.8874   26.4889 C   0  0  0  0  0  0  0  0  0  0  0  0
   12.3269  -17.4690   25.1842 C   0  0  0  0  0  0  0  0  0  0  0  0
   11.4928  -18.1060   24.2769 C   0  0  0  0  0  0  0  0  0  0  0  0
   12.2068  -18.5045   23.2041 N   0  0  0  0  0  0  0  0  0  0  0  0
   13.4752  -18.1344   23.4106 C   0  0  0  0  0  0  0  0  0  0  0  0
   13.5491  -17.5042   24.6155 N   0  0  0  0  0  0  0  0  0  0  0  0
   10.1010  -16.4205   27.9858 C   0  0  0  0  0  0  0  0  0  0  0  0
    9.5385  -15.3588   28.3296 O   0  0  0  0  0  0  0  0  0  0  0  0
   10.4482  -17.3343   28.9596 O   0  0  0  0  0  0  0  0  0  0  0  0
  2  1  1  6
  2  5  1  0
  3  2  1  0
  3  4  1  0
  5  6  2  0
  7  8  1  0
  9  8  1  0
 10  9  1  0
 11 10  1  1
 11 13  1  0
 12  5  1  0
 12 11  1  0
 13 15  1  0
 13 14  2  0
 15 16  1  0
 16 23  1  0
 17 18  1  0
 16 17  1  1
 18 19  2  0
 19 20  1  0
 21 20  1  0
 22 18  1  0
 22 21  2  0
 23 24  2  0
 23 25  1  0
M  END
$$$$
