CMH.pdb
     RDKit          3D

 25 25  0  0  1  0  0  0  0  0999 V2000
    7.1151  -15.5501   20.7156 N   0  0  0  0  0  0  0  0  0  0  0  0
    8.4606  -15.0684   20.7719 C   0  0  1  0  0  0  0  0  0  0  0  0
    8.6223  -13.7306   20.1300 C   0  0  0  0  0  0  0  0  0  0  0  0
    7.1840  -13.4249   19.0693 S   0  0  0  0  0  0  0  0  0  0  0  0
    8.9181  -15.0322   22.2038 C   0  0  0  0  0  0  0  0  0  0  0  0
   10.0970  -14.7257   22.5021 O   0  0  0  0  0  0  0  0  0  0  0  0
    5.9135  -10.9123   26.7052 C   0  0  0  0  0  0  0  0  0  0  0  0
    5.9329  -12.7049   26.6355 S   0  0  0  0  0  0  0  0  0  0  0  0
    7.2214  -13.3503   25.5370 C   0  0  0  0  0  0  0  0  0  0  0  0
    7.2196  -14.8657   25.5140 C   0  0  0  0  0  0  0  0  0  0  0  0
    8.3449  -15.3009   24.6474 C   0  0  2  0  0  0  0  0  0  0  0  0
    8.0136  -15.3477   23.2495 N   0  0  0  0  0  0  0  0  0  0  0  0
    9.0743  -16.5065   25.1332 C   0  0  0  0  0  0  0  0  0  0  0  0
    8.5251  -17.6167   24.9438 O   0  0  0  0  0  0  0  0  0  0  0  0
   10.3194  -16.4497   25.7777 N   0  0  0  0  0  0  0  0  0  0  0  0
   10.9885  -17.5977   26.3314 C   0  0  1  0  0  0  0  0  0  0  0  0
   12.4902  -17.5421   26.1177 C   0  0  0  0  0  0  0  0  0  0  0  0
   12.8242  -17.4522   24.6728 C   0  0  0  0  0  0  0  0  0  0  0  0
   12.3704  -18.3028   23.6752 C   0  0  0  0  0  0  0  0  0  0  0  0
   12.8763  -17.9194   22.4850 N   0  0  0  0  0  0  0  0  0  0  0  0
   13.6408  -16.8445   22.7053 C   0  0  0  0  0  0  0  0  0  0  0  0
   13.6096  -16.5596   24.0365 N   0  0  0  0  0  0  0  0  0  0  0  0
   10.7766  -17.6851   27.7923 C   0  0  0  0  0  0  0  0  0  0  0  0
   10.1687  -16.8051   28.4387 O   0  0  0  0  0  0  0  0  0  0  0  0
   11.2706  -18.7830   28.4664 O   0  0  0  0  0  0  0  0  0  0  0  0
  2  1  1  1
  2  5  1  0
  3  2  1  0
  3  4  1  0
  5  6  2  0
  7  8  1  0
  9  8  1  0
 10  9  1  0
 11 10  1  1
 11 13  1  0
 12  5  1  0
 12 11  1  0
 13 15  1  0
 13 14  2  0
 15 16  1  0
 16 23  1  0
 17 18  1  0
 16 17  1  1
 18 19  2  0
 19 20  1  0
 21 20  1  0
 22 18  1  0
 22 21  2  0
 23 24  2  0
 23 25  1  0
M  END
$$$$
