CMH.pdb
     RDKit          3D

 25 25  0  0  1  0  0  0  0  0999 V2000
    8.5678  -15.0148   19.7306 N   0  0  0  0  0  0  0  0  0  0  0  0
    7.5858  -15.0836   20.7681 C   0  0  1  0  0  0  0  0  0  0  0  0
    6.6869  -16.2679   20.6348 C   0  0  0  0  0  0  0  0  0  0  0  0
    7.6758  -17.7690   20.8715 S   0  0  0  0  0  0  0  0  0  0  0  0
    8.2722  -15.0826   22.1060 C   0  0  0  0  0  0  0  0  0  0  0  0
    9.5124  -15.2433   22.2005 O   0  0  0  0  0  0  0  0  0  0  0  0
    6.5576  -10.1136   26.5249 C   0  0  0  0  0  0  0  0  0  0  0  0
    6.4604  -11.8920   26.7406 S   0  0  0  0  0  0  0  0  0  0  0  0
    7.2961  -12.8058   25.4178 C   0  0  0  0  0  0  0  0  0  0  0  0
    7.2239  -14.3019   25.6489 C   0  0  0  0  0  0  0  0  0  0  0  0
    8.0723  -14.9548   24.6190 C   0  0  2  0  0  0  0  0  0  0  0  0
    7.5193  -14.8981   23.2935 N   0  0  0  0  0  0  0  0  0  0  0  0
    8.5871  -16.3010   24.9989 C   0  0  0  0  0  0  0  0  0  0  0  0
    7.7733  -17.2528   24.9550 O   0  0  0  0  0  0  0  0  0  0  0  0
    9.9122  -16.5393   25.3935 N   0  0  0  0  0  0  0  0  0  0  0  0
   10.3986  -17.8195   25.8373 C   0  0  1  0  0  0  0  0  0  0  0  0
   11.8521  -18.0406   25.4601 C   0  0  0  0  0  0  0  0  0  0  0  0
   12.0181  -18.1221   23.9859 C   0  0  0  0  0  0  0  0  0  0  0  0
   11.0212  -18.4157   23.0669 C   0  0  0  0  0  0  0  0  0  0  0  0
   11.5337  -18.4016   21.8192 N   0  0  0  0  0  0  0  0  0  0  0  0
   12.8334  -18.1056   21.9263 C   0  0  0  0  0  0  0  0  0  0  0  0
   13.1289  -17.9354   23.2446 N   0  0  0  0  0  0  0  0  0  0  0  0
   10.3259  -17.9360   27.3097 C   0  0  0  0  0  0  0  0  0  0  0  0
   10.6639  -18.9723   27.9211 O   0  0  0  0  0  0  0  0  0  0  0  0
    9.8663  -16.8562   28.0353 O   0  0  0  0  0  0  0  0  0  0  0  0
  2  1  1  6
  2  5  1  0
  3  2  1  0
  3  4  1  0
  5  6  2  0
  7  8  1  0
  9  8  1  0
 10  9  1  0
 11 10  1  1
 11 13  1  0
 12  5  1  0
 12 11  1  0
 13 15  1  0
 13 14  2  0
 15 16  1  0
 16 23  1  0
 17 18  1  0
 16 17  1  1
 18 19  2  0
 19 20  1  0
 21 20  1  0
 22 18  1  0
 22 21  2  0
 23 24  2  0
 23 25  1  0
M  END
$$$$
