SQL.pdb
     RDKit          3D

 24 23  0  0  1  0  0  0  0  0999 V2000
    7.1246  -15.1406   18.3802 O   0  0  0  0  0  0  0  0  0  0  0  0
    8.5040  -15.1829   18.5795 C   0  0  0  0  0  0  0  0  0  0  0  0
    8.8588  -16.5383   19.1558 C   0  0  2  0  0  0  0  0  0  0  0  0
    8.4605  -17.6197   18.3065 N   0  0  0  0  0  0  0  0  0  0  0  0
    8.1761  -16.6694   20.4574 C   0  0  0  0  0  0  0  0  0  0  0  0
    7.0773  -17.2657   20.5149 O   0  0  0  0  0  0  0  0  0  0  0  0
    9.0600  -20.6545   23.4311 N   0  0  0  0  0  0  0  0  0  0  0  0
   10.1327  -19.7846   23.1456 C   0  0  0  0  0  0  0  0  0  0  0  0
   11.2903  -20.2337   23.0483 O   0  0  0  0  0  0  0  0  0  0  0  0
    9.8671  -18.3458   22.9651 C   0  0  0  0  0  0  0  0  0  0  0  0
    8.4160  -18.0332   23.1593 C   0  0  0  0  0  0  0  0  0  0  0  0
    8.1809  -16.5565   22.9178 C   0  0  2  0  0  0  0  0  0  0  0  0
    8.7199  -16.1435   21.6498 N   0  0  0  0  0  0  0  0  0  0  0  0
    8.8528  -15.7560   23.9939 C   0  0  0  0  0  0  0  0  0  0  0  0
   10.0968  -15.6006   24.0009 O   0  0  0  0  0  0  0  0  0  0  0  0
    7.7048  -11.7023   25.2428 C   0  0  0  0  0  0  0  0  0  0  0  0
    6.7805  -12.7327   25.8200 C   0  0  2  0  0  0  0  0  0  0  0  0
    5.6544  -12.0808   26.6046 C   0  0  0  0  0  0  0  0  0  0  0  0
    7.5544  -13.6084   26.7784 C   0  0  0  0  0  0  0  0  0  0  0  0
    8.6674  -14.3405   26.0240 C   0  0  2  0  0  0  0  0  0  0  0  0
    8.0772  -15.1747   25.0042 N   0  0  0  0  0  0  0  0  0  0  0  0
    9.3925  -15.1832   27.0162 C   0  0  0  0  0  0  0  0  0  0  0  0
    9.2622  -16.4352   27.0478 O   0  0  0  0  0  0  0  0  0  0  0  0
   10.2273  -14.5518   27.9187 O   0  0  0  0  0  0  0  0  0  0  0  0
  2  1  1  0
  3  2  1  0
  3  4  1  6
  5  3  1  0
  5  6  2  0
  7  8  1  0
  8 10  1  0
  9  8  2  0
 10 11  1  0
 12 11  1  1
 12 13  1  0
 13  5  1  0
 14 12  1  0
 15 14  2  0
 17 19  1  0
 17 16  1  1
 17 18  1  0
 20 19  1  1
 20 22  1  0
 20 21  1  0
 21 14  1  0
 22 24  1  0
 23 22  2  0
M  END
$$$$
