SQL.pdb
     RDKit          3D

 24 23  0  0  1  0  0  0  0  0999 V2000
    8.9737  -15.0892   17.6542 O   0  0  0  0  0  0  0  0  0  0  0  0
    8.1684  -15.1802   18.7889 C   0  0  0  0  0  0  0  0  0  0  0  0
    8.3248  -16.5698   19.3716 C   0  0  2  0  0  0  0  0  0  0  0  0
    7.6863  -17.5755   18.5777 N   0  0  0  0  0  0  0  0  0  0  0  0
    7.7249  -16.5653   20.7197 C   0  0  0  0  0  0  0  0  0  0  0  0
    6.4868  -16.7043   20.8392 O   0  0  0  0  0  0  0  0  0  0  0  0
    8.3751  -20.6478   24.2735 N   0  0  0  0  0  0  0  0  0  0  0  0
    9.5307  -19.9194   23.9228 C   0  0  0  0  0  0  0  0  0  0  0  0
   10.6484  -20.4679   23.9605 O   0  0  0  0  0  0  0  0  0  0  0  0
    9.3989  -18.5093   23.5138 C   0  0  0  0  0  0  0  0  0  0  0  0
    7.9803  -18.0433   23.6213 C   0  0  0  0  0  0  0  0  0  0  0  0
    7.8886  -16.5982   23.1770 C   0  0  2  0  0  0  0  0  0  0  0  0
    8.5007  -16.4090   21.8892 N   0  0  0  0  0  0  0  0  0  0  0  0
    8.5985  -15.7204   24.1649 C   0  0  0  0  0  0  0  0  0  0  0  0
    9.8415  -15.5649   24.1133 O   0  0  0  0  0  0  0  0  0  0  0  0
    7.7823  -11.5958   25.0667 C   0  0  0  0  0  0  0  0  0  0  0  0
    6.7603  -12.4782   25.7195 C   0  0  2  0  0  0  0  0  0  0  0  0
    5.6833  -11.6548   26.4054 C   0  0  0  0  0  0  0  0  0  0  0  0
    7.4367  -13.3156   26.7803 C   0  0  0  0  0  0  0  0  0  0  0  0
    8.4960  -14.2113   26.1325 C   0  0  2  0  0  0  0  0  0  0  0  0
    7.8601  -15.0663   25.1585 N   0  0  0  0  0  0  0  0  0  0  0  0
    9.1006  -15.0349   27.2172 C   0  0  0  0  0  0  0  0  0  0  0  0
    8.8006  -16.2471   27.3784 O   0  0  0  0  0  0  0  0  0  0  0  0
   10.0149  -14.4309   28.0594 O   0  0  0  0  0  0  0  0  0  0  0  0
  2  1  1  0
  3  2  1  0
  3  4  1  6
  5  3  1  0
  5  6  2  0
  7  8  1  0
  8 10  1  0
  9  8  2  0
 10 11  1  0
 12 11  1  1
 12 13  1  0
 13  5  1  0
 14 12  1  0
 15 14  2  0
 17 19  1  0
 17 16  1  1
 17 18  1  0
 20 19  1  1
 20 22  1  0
 20 21  1  0
 21 14  1  0
 22 24  1  0
 23 22  2  0
M  END
$$$$
