SQL.pdb
     RDKit          3D

 24 23  0  0  1  0  0  0  0  0999 V2000
    6.4717  -18.6548   24.3663 O   0  0  0  0  0  0  0  0  0  0  0  0
    5.4274  -18.0350   23.6812 C   0  0  0  0  0  0  0  0  0  0  0  0
    5.7743  -18.0127   22.2067 C   0  0  2  0  0  0  0  0  0  0  0  0
    5.9655  -19.3243   21.6656 N   0  0  0  0  0  0  0  0  0  0  0  0
    7.0197  -17.2376   22.0464 C   0  0  0  0  0  0  0  0  0  0  0  0
    8.0910  -17.8416   21.8142 O   0  0  0  0  0  0  0  0  0  0  0  0
    9.0033  -12.1775   19.2617 N   0  0  0  0  0  0  0  0  0  0  0  0
    8.1736  -13.2338   18.8320 C   0  0  0  0  0  0  0  0  0  0  0  0
    7.8928  -13.3541   17.6245 O   0  0  0  0  0  0  0  0  0  0  0  0
    7.6464  -14.1876   19.8248 C   0  0  0  0  0  0  0  0  0  0  0  0
    8.1258  -13.8560   21.2037 C   0  0  0  0  0  0  0  0  0  0  0  0
    8.2990  -15.1335   21.9988 C   0  0  2  0  0  0  0  0  0  0  0  0
    7.0488  -15.8293   22.1460 N   0  0  0  0  0  0  0  0  0  0  0  0
    8.8169  -14.8090   23.3687 C   0  0  0  0  0  0  0  0  0  0  0  0
    9.9277  -14.2483   23.5225 O   0  0  0  0  0  0  0  0  0  0  0  0
    8.2642  -11.9376   26.3933 C   0  0  0  0  0  0  0  0  0  0  0  0
    7.1079  -12.8394   26.0783 C   0  0  2  0  0  0  0  0  0  0  0  0
    5.8291  -12.3380   26.7277 C   0  0  0  0  0  0  0  0  0  0  0  0
    7.3901  -14.2162   26.6340 C   0  0  0  0  0  0  0  0  0  0  0  0
    8.5145  -14.8758   25.8311 C   0  0  2  0  0  0  0  0  0  0  0  0
    8.0468  -15.1380   24.4908 N   0  0  0  0  0  0  0  0  0  0  0  0
    8.8513  -16.1568   26.5139 C   0  0  0  0  0  0  0  0  0  0  0  0
    8.6530  -17.2741   25.9682 O   0  0  0  0  0  0  0  0  0  0  0  0
    9.3962  -16.0937   27.7824 O   0  0  0  0  0  0  0  0  0  0  0  0
  2  1  1  0
  3  2  1  0
  3  4  1  1
  5  3  1  0
  5  6  2  0
  7  8  1  0
  8 10  1  0
  9  8  2  0
 10 11  1  0
 12 11  1  6
 12 13  1  0
 13  5  1  0
 14 12  1  0
 15 14  2  0
 17 19  1  0
 17 16  1  1
 17 18  1  0
 20 19  1  1
 20 22  1  0
 20 21  1  0
 21 14  1  0
 22 24  1  0
 23 22  2  0
M  END
$$$$
