SQL.pdb
     RDKit          3D

 24 23  0  0  1  0  0  0  0  0999 V2000
    8.8131  -14.5989   19.5628 O   0  0  0  0  0  0  0  0  0  0  0  0
    8.9003  -15.9814   19.4031 C   0  0  0  0  0  0  0  0  0  0  0  0
    7.5227  -16.5723   19.6222 C   0  0  2  0  0  0  0  0  0  0  0  0
    6.5106  -15.9093   18.8569 N   0  0  0  0  0  0  0  0  0  0  0  0
    7.2009  -16.4504   21.0571 C   0  0  0  0  0  0  0  0  0  0  0  0
    6.4571  -15.5199   21.4408 O   0  0  0  0  0  0  0  0  0  0  0  0
    7.2955  -20.3066   26.1895 N   0  0  0  0  0  0  0  0  0  0  0  0
    6.3649  -20.4326   25.1374 C   0  0  0  0  0  0  0  0  0  0  0  0
    5.4514  -21.2761   25.2110 O   0  0  0  0  0  0  0  0  0  0  0  0
    6.4870  -19.5582   23.9568 C   0  0  0  0  0  0  0  0  0  0  0  0
    7.5700  -18.5418   24.1440 C   0  0  0  0  0  0  0  0  0  0  0  0
    7.2211  -17.2847   23.3744 C   0  0  2  0  0  0  0  0  0  0  0  0
    7.7044  -17.3509   22.0213 N   0  0  0  0  0  0  0  0  0  0  0  0
    7.8511  -16.0958   24.0376 C   0  0  0  0  0  0  0  0  0  0  0  0
    9.0091  -15.7250   23.7324 O   0  0  0  0  0  0  0  0  0  0  0  0
    5.9216  -11.2743   27.3073 C   0  0  0  0  0  0  0  0  0  0  0  0
    7.0617  -12.0502   26.7178 C   0  0  2  0  0  0  0  0  0  0  0  0
    7.8052  -11.2278   25.6789 C   0  0  0  0  0  0  0  0  0  0  0  0
    6.5168  -13.2761   26.0220 C   0  0  0  0  0  0  0  0  0  0  0  0
    7.6706  -14.2054   25.6356 C   0  0  2  0  0  0  0  0  0  0  0  0
    7.1333  -15.3913   25.0117 N   0  0  0  0  0  0  0  0  0  0  0  0
    8.3844  -14.5686   26.8922 C   0  0  0  0  0  0  0  0  0  0  0  0
    9.1358  -13.7541   27.4900 O   0  0  0  0  0  0  0  0  0  0  0  0
    8.2024  -15.8415   27.3986 O   0  0  0  0  0  0  0  0  0  0  0  0
  2  1  1  0
  3  2  1  0
  3  4  1  6
  5  3  1  0
  5  6  2  0
  7  8  1  0
  8 10  1  0
  9  8  2  0
 10 11  1  0
 12 11  1  1
 12 13  1  0
 13  5  1  0
 14 12  1  0
 15 14  2  0
 17 19  1  0
 17 16  1  6
 17 18  1  0
 20 19  1  1
 20 22  1  0
 20 21  1  0
 21 14  1  0
 22 24  1  0
 23 22  2  0
M  END
$$$$
