SQL.pdb
     RDKit          3D

 24 23  0  0  1  0  0  0  0  0999 V2000
    6.2043  -14.3320   20.0652 O   0  0  0  0  0  0  0  0  0  0  0  0
    7.3490  -14.7393   19.3810 C   0  0  0  0  0  0  0  0  0  0  0  0
    7.4845  -16.2404   19.5341 C   0  0  2  0  0  0  0  0  0  0  0  0
    6.2502  -16.9306   19.3118 N   0  0  0  0  0  0  0  0  0  0  0  0
    7.9514  -16.5150   20.9066 C   0  0  0  0  0  0  0  0  0  0  0  0
    7.1501  -16.9911   21.7419 O   0  0  0  0  0  0  0  0  0  0  0  0
   13.5680  -18.4006   22.7090 N   0  0  0  0  0  0  0  0  0  0  0  0
   12.7903  -18.4720   23.8833 C   0  0  0  0  0  0  0  0  0  0  0  0
   13.2296  -19.0651   24.8866 O   0  0  0  0  0  0  0  0  0  0  0  0
   11.4590  -17.8393   23.9073 C   0  0  0  0  0  0  0  0  0  0  0  0
   11.1189  -17.2400   22.5782 C   0  0  0  0  0  0  0  0  0  0  0  0
    9.7115  -16.6818   22.6214 C   0  0  2  0  0  0  0  0  0  0  0  0
    9.2782  -16.2592   21.3166 N   0  0  0  0  0  0  0  0  0  0  0  0
    9.6679  -15.4933   23.5356 C   0  0  0  0  0  0  0  0  0  0  0  0
   10.3509  -14.4696   23.2961 O   0  0  0  0  0  0  0  0  0  0  0  0
    5.7694  -12.3754   26.6898 C   0  0  0  0  0  0  0  0  0  0  0  0
    7.2239  -12.6950   26.5115 C   0  0  2  0  0  0  0  0  0  0  0  0
    7.9901  -11.4901   25.9923 C   0  0  0  0  0  0  0  0  0  0  0  0
    7.3649  -13.7984   25.4884 C   0  0  0  0  0  0  0  0  0  0  0  0
    8.7662  -14.4085   25.5776 C   0  0  2  0  0  0  0  0  0  0  0  0
    8.8516  -15.5300   24.6726 N   0  0  0  0  0  0  0  0  0  0  0  0
    8.9582  -14.8697   26.9815 C   0  0  0  0  0  0  0  0  0  0  0  0
    9.3519  -14.0915   27.8898 O   0  0  0  0  0  0  0  0  0  0  0  0
    8.6907  -16.1938   27.2731 O   0  0  0  0  0  0  0  0  0  0  0  0
  2  1  1  0
  3  2  1  0
  3  4  1  1
  5  3  1  0
  5  6  2  0
  7  8  1  0
  8 10  1  0
  9  8  2  0
 10 11  1  0
 12 11  1  6
 12 13  1  0
 13  5  1  0
 14 12  1  0
 15 14  2  0
 17 19  1  0
 17 16  1  6
 17 18  1  0
 20 19  1  1
 20 22  1  0
 20 21  1  0
 21 14  1  0
 22 24  1  0
 23 22  2  0
M  END
$$$$
