SQL.pdb
     RDKit          3D

 24 23  0  0  1  0  0  0  0  0999 V2000
    6.7208  -18.5660   25.1643 O   0  0  0  0  0  0  0  0  0  0  0  0
    5.5616  -18.1971   24.4828 C   0  0  0  0  0  0  0  0  0  0  0  0
    5.7717  -18.4689   23.0074 C   0  0  2  0  0  0  0  0  0  0  0  0
    6.0838  -19.8399   22.7385 N   0  0  0  0  0  0  0  0  0  0  0  0
    6.8866  -17.6200   22.5451 C   0  0  0  0  0  0  0  0  0  0  0  0
    7.9949  -18.1462   22.2977 O   0  0  0  0  0  0  0  0  0  0  0  0
    7.2083  -12.6584   18.8322 N   0  0  0  0  0  0  0  0  0  0  0  0
    8.5013  -13.0200   19.2639 C   0  0  0  0  0  0  0  0  0  0  0  0
    9.4722  -12.8990   18.4931 O   0  0  0  0  0  0  0  0  0  0  0  0
    8.6871  -13.5399   20.6307 C   0  0  0  0  0  0  0  0  0  0  0  0
    7.4694  -14.2710   21.1036 C   0  0  0  0  0  0  0  0  0  0  0  0
    7.8878  -15.4464   21.9623 C   0  0  2  0  0  0  0  0  0  0  0  0
    6.7495  -16.2255   22.3700 N   0  0  0  0  0  0  0  0  0  0  0  0
    8.5792  -14.9485   23.1970 C   0  0  0  0  0  0  0  0  0  0  0  0
    9.6948  -14.3806   23.1272 O   0  0  0  0  0  0  0  0  0  0  0  0
    7.6191  -11.9197   25.7896 C   0  0  0  0  0  0  0  0  0  0  0  0
    6.7211  -13.0969   26.0289 C   0  0  2  0  0  0  0  0  0  0  0  0
    5.6050  -12.7466   26.9986 C   0  0  0  0  0  0  0  0  0  0  0  0
    7.5274  -14.2148   26.6487 C   0  0  0  0  0  0  0  0  0  0  0  0
    8.6028  -14.6821   25.6643 C   0  0  2  0  0  0  0  0  0  0  0  0
    7.9678  -15.1215   24.4446 N   0  0  0  0  0  0  0  0  0  0  0  0
    9.3220  -15.8198   26.3039 C   0  0  0  0  0  0  0  0  0  0  0  0
    9.2327  -16.9959   25.8631 O   0  0  0  0  0  0  0  0  0  0  0  0
   10.1042  -15.5540   27.4118 O   0  0  0  0  0  0  0  0  0  0  0  0
  2  1  1  0
  3  2  1  0
  3  4  1  1
  5  3  1  0
  5  6  2  0
  7  8  1  0
  8 10  1  0
  9  8  2  0
 10 11  1  0
 12 11  1  6
 12 13  1  0
 13  5  1  0
 14 12  1  0
 15 14  2  0
 17 19  1  0
 17 16  1  1
 17 18  1  0
 20 19  1  1
 20 22  1  0
 20 21  1  0
 21 14  1  0
 22 24  1  0
 23 22  2  0
M  END
$$$$
