LHK.pdb
     RDKit          3D

 28 28  0  0  1  0  0  0  0  0999 V2000
   29.2494  -19.9763   -4.7244 C   0  0  0  0  0  0  0  0  0  0  0  0
   27.8561  -20.1553   -5.2465 C   0  0  1  0  0  0  0  0  0  0  0  0
   26.8058  -19.9358   -4.1868 C   0  0  0  0  0  0  0  0  0  0  0  0
   27.6009  -19.3721   -6.4921 C   0  0  0  0  0  0  0  0  0  0  0  0
   26.3104  -19.8225   -7.1308 C   0  0  2  0  0  0  0  0  0  0  0  0
   26.0270  -21.2058   -6.8140 N   0  0  0  0  0  0  0  0  0  0  0  0
   26.3459  -19.6995   -8.6077 C   0  0  0  0  0  0  0  0  0  0  0  0
   26.7301  -18.6535   -9.1325 O   0  0  0  0  0  0  0  0  0  0  0  0
   25.9384  -20.7831   -9.4659 N   0  0  0  0  0  0  0  0  0  0  0  0
   25.9985  -20.7131  -10.9060 C   0  0  1  0  0  0  0  0  0  0  0  0
   26.7742  -21.9620  -11.3403 C   0  0  0  0  0  0  0  0  0  0  0  0
   28.2437  -21.7618  -11.2106 C   0  0  0  0  0  0  0  0  0  0  0  0
   28.9534  -20.6595  -10.7815 C   0  0  0  0  0  0  0  0  0  0  0  0
   30.2783  -20.9051  -10.8191 N   0  0  0  0  0  0  0  0  0  0  0  0
   30.4231  -22.1498  -11.2664 C   0  0  0  0  0  0  0  0  0  0  0  0
   29.2218  -22.6728  -11.5038 N   0  0  0  0  0  0  0  0  0  0  0  0
   24.6916  -20.5784  -11.5447 C   0  0  0  0  0  0  0  0  0  0  0  0
   23.6846  -21.1019  -11.0021 O   0  0  0  0  0  0  0  0  0  0  0  0
   24.4609  -19.8880  -12.7546 N   0  0  0  0  0  0  0  0  0  0  0  0
   23.1087  -19.8555  -13.3174 C   0  0  1  0  0  0  0  0  0  0  0  0
   23.0394  -18.8193  -14.4181 C   0  0  0  0  0  0  0  0  0  0  0  0
   21.6896  -18.7557  -15.0709 C   0  0  0  0  0  0  0  0  0  0  0  0
   21.6613  -17.7398  -16.2046 C   0  0  0  0  0  0  0  0  0  0  0  0
   20.2918  -17.6793  -16.8201 C   0  0  0  0  0  0  0  0  0  0  0  0
   20.2937  -16.6707  -17.8878 N   0  0  0  0  0  0  0  0  0  0  0  0
   22.7901  -21.2174  -13.7243 C   0  0  0  0  0  0  0  0  0  0  0  0
   23.7616  -22.0992  -14.1907 O   0  0  0  0  0  0  0  0  0  0  0  0
   21.6086  -21.6356  -13.6631 O   0  0  0  0  0  0  0  0  0  0  0  0
  2  1  1  1
  2  3  1  0
  4  5  1  0
  4  2  1  0
  5  6  1  6
  7  5  1  0
  7  8  2  0
  9  7  1  0
 10  9  1  0
 11 12  1  0
 10 11  1  6
 12 16  1  0
 12 13  2  0
 13 14  1  0
 15 14  1  0
 16 15  2  0
 17 10  1  0
 18 17  2  0
 19 17  1  0
 20 21  1  6
 20 19  1  0
 21 22  1  0
 22 23  1  0
 23 24  1  0
 24 25  1  0
 26 20  1  0
 27 26  1  0
 28 26  2  0
M  END
$$$$
