LHK.pdb
     RDKit          3D

 28 28  0  0  1  0  0  0  0  0999 V2000
   26.4351   -9.9431  -15.5688 C   0  0  0  0  0  0  0  0  0  0  0  0
   25.0577  -10.5131  -15.7227 C   0  0  1  0  0  0  0  0  0  0  0  0
   25.0672  -12.0059  -15.9374 C   0  0  0  0  0  0  0  0  0  0  0  0
   24.1308  -10.0864  -14.6324 C   0  0  0  0  0  0  0  0  0  0  0  0
   22.7193  -10.5072  -14.9594 C   0  0  2  0  0  0  0  0  0  0  0  0
   22.5809  -10.8188  -16.3658 N   0  0  0  0  0  0  0  0  0  0  0  0
   21.7324   -9.4492  -14.6360 C   0  0  0  0  0  0  0  0  0  0  0  0
   21.6513   -9.0086  -13.4886 O   0  0  0  0  0  0  0  0  0  0  0  0
   20.8485   -8.9092  -15.6377 N   0  0  0  0  0  0  0  0  0  0  0  0
   19.8446   -7.9136  -15.3487 C   0  0  1  0  0  0  0  0  0  0  0  0
   20.1715   -6.7303  -16.2667 C   0  0  0  0  0  0  0  0  0  0  0  0
   20.9522   -5.6851  -15.5495 C   0  0  0  0  0  0  0  0  0  0  0  0
   21.3071   -5.6009  -14.2192 C   0  0  0  0  0  0  0  0  0  0  0  0
   22.0210   -4.4808  -13.9893 N   0  0  0  0  0  0  0  0  0  0  0  0
   22.1262   -3.8493  -15.1556 C   0  0  0  0  0  0  0  0  0  0  0  0
   21.4955   -4.5532  -16.0936 N   0  0  0  0  0  0  0  0  0  0  0  0
   18.4743   -8.4023  -15.4811 C   0  0  0  0  0  0  0  0  0  0  0  0
   18.1733   -9.1322  -16.4605 O   0  0  0  0  0  0  0  0  0  0  0  0
   17.4321   -8.1145  -14.5730 N   0  0  0  0  0  0  0  0  0  0  0  0
   16.0766   -8.5906  -14.8599 C   0  0  1  0  0  0  0  0  0  0  0  0
   15.6046   -9.4909  -13.7388 C   0  0  0  0  0  0  0  0  0  0  0  0
   14.2218  -10.0268  -13.9682 C   0  0  0  0  0  0  0  0  0  0  0  0
   13.7144  -10.8064  -12.7629 C   0  0  0  0  0  0  0  0  0  0  0  0
   12.3906  -11.4468  -13.0722 C   0  0  0  0  0  0  0  0  0  0  0  0
   12.0036  -12.3078  -11.9470 N   0  0  0  0  0  0  0  0  0  0  0  0
   15.2575   -7.4094  -15.0957 C   0  0  0  0  0  0  0  0  0  0  0  0
   14.0188   -7.4791  -15.7280 O   0  0  0  0  0  0  0  0  0  0  0  0
   15.6578   -6.2786  -14.7275 O   0  0  0  0  0  0  0  0  0  0  0  0
  2  1  1  1
  2  3  1  0
  4  5  1  0
  4  2  1  0
  5  6  1  6
  7  5  1  0
  7  8  2  0
  9  7  1  0
 10  9  1  0
 11 12  1  0
 10 11  1  6
 12 16  1  0
 12 13  2  0
 13 14  1  0
 15 14  1  0
 16 15  2  0
 17 10  1  0
 18 17  2  0
 19 17  1  0
 20 21  1  1
 20 19  1  0
 21 22  1  0
 22 23  1  0
 23 24  1  0
 24 25  1  0
 26 20  1  0
 27 26  1  0
 28 26  2  0
M  END
$$$$
