LHK.pdb
     RDKit          3D

 28 28  0  0  1  0  0  0  0  0999 V2000
   22.9722  -15.3925  -19.0052 C   0  0  0  0  0  0  0  0  0  0  0  0
   22.6487  -14.0615  -19.6132 C   0  0  1  0  0  0  0  0  0  0  0  0
   22.2438  -14.1674  -21.0621 C   0  0  0  0  0  0  0  0  0  0  0  0
   21.6820  -13.2717  -18.7936 C   0  0  0  0  0  0  0  0  0  0  0  0
   21.5431  -11.8791  -19.3573 C   0  0  2  0  0  0  0  0  0  0  0  0
   22.8253  -11.3572  -19.7791 N   0  0  0  0  0  0  0  0  0  0  0  0
   20.9769  -10.9306  -18.3685 C   0  0  0  0  0  0  0  0  0  0  0  0
   19.8927  -11.1677  -17.8343 O   0  0  0  0  0  0  0  0  0  0  0  0
   21.6655   -9.7182  -18.0049 N   0  0  0  0  0  0  0  0  0  0  0  0
   21.1617   -8.7906  -17.0209 C   0  0  1  0  0  0  0  0  0  0  0  0
   22.3844   -7.9940  -16.5515 C   0  0  0  0  0  0  0  0  0  0  0  0
   22.0293   -7.0457  -15.4601 C   0  0  0  0  0  0  0  0  0  0  0  0
   20.8510   -6.9053  -14.7568 C   0  0  0  0  0  0  0  0  0  0  0  0
   20.9574   -5.9163  -13.8470 N   0  0  0  0  0  0  0  0  0  0  0  0
   22.1882   -5.4240  -13.9607 C   0  0  0  0  0  0  0  0  0  0  0  0
   22.8383   -6.0855  -14.9162 N   0  0  0  0  0  0  0  0  0  0  0  0
   20.0641   -7.9566  -17.5046 C   0  0  0  0  0  0  0  0  0  0  0  0
   20.1444   -7.4354  -18.6468 O   0  0  0  0  0  0  0  0  0  0  0  0
   18.8876   -7.6815  -16.7740 N   0  0  0  0  0  0  0  0  0  0  0  0
   17.8253   -6.8859  -17.3944 C   0  0  1  0  0  0  0  0  0  0  0  0
   16.4783   -7.4982  -17.0769 C   0  0  0  0  0  0  0  0  0  0  0  0
   15.3320   -6.6727  -17.5834 C   0  0  0  0  0  0  0  0  0  0  0  0
   13.9897   -7.2920  -17.2190 C   0  0  0  0  0  0  0  0  0  0  0  0
   12.8632   -6.4587  -17.7620 C   0  0  0  0  0  0  0  0  0  0  0  0
   11.5878   -7.0294  -17.3097 N   0  0  0  0  0  0  0  0  0  0  0  0
   18.0078   -5.5142  -16.9398 C   0  0  0  0  0  0  0  0  0  0  0  0
   18.4085   -5.2095  -15.6415 O   0  0  0  0  0  0  0  0  0  0  0  0
   17.8034   -4.5558  -17.7236 O   0  0  0  0  0  0  0  0  0  0  0  0
  2  1  1  1
  2  3  1  0
  4  5  1  0
  4  2  1  0
  5  6  1  1
  7  5  1  0
  7  8  2  0
  9  7  1  0
 10  9  1  0
 11 12  1  0
 10 11  1  6
 12 16  1  0
 12 13  2  0
 13 14  1  0
 15 14  1  0
 16 15  2  0
 17 10  1  0
 18 17  2  0
 19 17  1  0
 20 21  1  1
 20 19  1  0
 21 22  1  0
 22 23  1  0
 23 24  1  0
 24 25  1  0
 26 20  1  0
 27 26  1  0
 28 26  2  0
M  END
$$$$
