LHK.pdb
     RDKit          3D

 28 28  0  0  1  0  0  0  0  0999 V2000
   29.0611  -17.9363  -21.4870 C   0  0  0  0  0  0  0  0  0  0  0  0
   28.2188  -17.4689  -20.3390 C   0  0  1  0  0  0  0  0  0  0  0  0
   27.3437  -16.2950  -20.7004 C   0  0  0  0  0  0  0  0  0  0  0  0
   27.4643  -18.5800  -19.6863 C   0  0  0  0  0  0  0  0  0  0  0  0
   26.6337  -18.0419  -18.5475 C   0  0  2  0  0  0  0  0  0  0  0  0
   27.4542  -17.3176  -17.6007 N   0  0  0  0  0  0  0  0  0  0  0  0
   25.9391  -19.1207  -17.8048 C   0  0  0  0  0  0  0  0  0  0  0  0
   25.1918  -19.8989  -18.3990 O   0  0  0  0  0  0  0  0  0  0  0  0
   26.1123  -19.2923  -16.3846 N   0  0  0  0  0  0  0  0  0  0  0  0
   25.4869  -20.3567  -15.6374 C   0  0  1  0  0  0  0  0  0  0  0  0
   26.6128  -20.9862  -14.8091 C   0  0  0  0  0  0  0  0  0  0  0  0
   27.3903  -21.9721  -15.6090 C   0  0  0  0  0  0  0  0  0  0  0  0
   27.2437  -22.3579  -16.9252 C   0  0  0  0  0  0  0  0  0  0  0  0
   28.1663  -23.2845  -17.2528 N   0  0  0  0  0  0  0  0  0  0  0  0
   28.8996  -23.4948  -16.1628 C   0  0  0  0  0  0  0  0  0  0  0  0
   28.4504  -22.7214  -15.1764 N   0  0  0  0  0  0  0  0  0  0  0  0
   24.3403  -19.9240  -14.8422 C   0  0  0  0  0  0  0  0  0  0  0  0
   24.4722  -18.9581  -14.0471 O   0  0  0  0  0  0  0  0  0  0  0  0
   23.0605  -20.5180  -14.8963 N   0  0  0  0  0  0  0  0  0  0  0  0
   21.9692  -19.9483  -14.1020 C   0  0  1  0  0  0  0  0  0  0  0  0
   20.8528  -19.4977  -15.0190 C   0  0  0  0  0  0  0  0  0  0  0  0
   19.6662  -18.9655  -14.2701 C   0  0  0  0  0  0  0  0  0  0  0  0
   18.5721  -18.4901  -15.2161 C   0  0  0  0  0  0  0  0  0  0  0  0
   17.4504  -17.8552  -14.4435 C   0  0  0  0  0  0  0  0  0  0  0  0
   16.7226  -18.9017  -13.7139 N   0  0  0  0  0  0  0  0  0  0  0  0
   21.5970  -20.9545  -13.1168 C   0  0  0  0  0  0  0  0  0  0  0  0
   21.0601  -20.6167  -11.8771 O   0  0  0  0  0  0  0  0  0  0  0  0
   21.7553  -22.1738  -13.3674 O   0  0  0  0  0  0  0  0  0  0  0  0
  2  1  1  6
  2  3  1  0
  4  5  1  0
  4  2  1  0
  5  6  1  1
  7  5  1  0
  7  8  2  0
  9  7  1  0
 10  9  1  0
 11 12  1  0
 10 11  1  1
 12 16  1  0
 12 13  2  0
 13 14  1  0
 15 14  1  0
 16 15  2  0
 17 10  1  0
 18 17  2  0
 19 17  1  0
 20 21  1  6
 20 19  1  0
 21 22  1  0
 22 23  1  0
 23 24  1  0
 24 25  1  0
 26 20  1  0
 27 26  1  0
 28 26  2  0
M  END
$$$$
