LHK.pdb
     RDKit          3D

 28 28  0  0  1  0  0  0  0  0999 V2000
   18.3622  -14.6206  -18.2386 C   0  0  0  0  0  0  0  0  0  0  0  0
   18.5544  -13.1942  -18.6561 C   0  0  1  0  0  0  0  0  0  0  0  0
   17.2604  -12.5218  -19.0406 C   0  0  0  0  0  0  0  0  0  0  0  0
   19.3509  -12.4058  -17.6692 C   0  0  0  0  0  0  0  0  0  0  0  0
   19.4328  -10.9637  -18.1049 C   0  0  2  0  0  0  0  0  0  0  0  0
   20.1448  -10.8375  -19.3585 N   0  0  0  0  0  0  0  0  0  0  0  0
   20.1299  -10.1178  -17.1068 C   0  0  0  0  0  0  0  0  0  0  0  0
   19.7234  -10.0690  -15.9451 O   0  0  0  0  0  0  0  0  0  0  0  0
   21.2888   -9.3361  -17.4570 N   0  0  0  0  0  0  0  0  0  0  0  0
   22.0266   -8.5483  -16.4992 C   0  0  1  0  0  0  0  0  0  0  0  0
   23.5017   -8.8801  -16.7521 C   0  0  0  0  0  0  0  0  0  0  0  0
   23.8648  -10.2088  -16.1872 C   0  0  0  0  0  0  0  0  0  0  0  0
   23.1356  -11.0582  -15.3812 C   0  0  0  0  0  0  0  0  0  0  0  0
   23.8458  -12.1685  -15.0982 N   0  0  0  0  0  0  0  0  0  0  0  0
   25.0184  -12.0385  -15.7132 C   0  0  0  0  0  0  0  0  0  0  0  0
   25.0451  -10.8779  -16.3653 N   0  0  0  0  0  0  0  0  0  0  0  0
   21.7253   -7.1199  -16.5538 C   0  0  0  0  0  0  0  0  0  0  0  0
   21.7661   -6.5243  -17.6611 O   0  0  0  0  0  0  0  0  0  0  0  0
   21.3813   -6.3324  -15.4334 N   0  0  0  0  0  0  0  0  0  0  0  0
   21.1347   -4.8992  -15.6103 C   0  0  1  0  0  0  0  0  0  0  0  0
   19.6462   -4.6293  -15.5695 C   0  0  0  0  0  0  0  0  0  0  0  0
   18.9601   -4.9650  -16.8613 C   0  0  0  0  0  0  0  0  0  0  0  0
   17.4647   -4.6880  -16.7917 C   0  0  0  0  0  0  0  0  0  0  0  0
   16.7794   -5.1951  -18.0292 C   0  0  0  0  0  0  0  0  0  0  0  0
   15.3579   -4.8306  -17.9697 N   0  0  0  0  0  0  0  0  0  0  0  0
   21.9199   -4.2094  -14.5958 C   0  0  0  0  0  0  0  0  0  0  0  0
   22.2157   -2.8514  -14.6822 O   0  0  0  0  0  0  0  0  0  0  0  0
   22.3571   -4.8359  -13.6003 O   0  0  0  0  0  0  0  0  0  0  0  0
  2  1  1  1
  2  3  1  0
  4  5  1  0
  4  2  1  0
  5  6  1  6
  7  5  1  0
  7  8  2  0
  9  7  1  0
 10  9  1  0
 11 12  1  0
 10 11  1  6
 12 16  1  0
 12 13  2  0
 13 14  1  0
 15 14  1  0
 16 15  2  0
 17 10  1  0
 18 17  2  0
 19 17  1  0
 20 21  1  1
 20 19  1  0
 21 22  1  0
 22 23  1  0
 23 24  1  0
 24 25  1  0
 26 20  1  0
 27 26  1  0
 28 26  2  0
M  END
$$$$
