GKC.pdb
     RDKit          3D

 20 19  0  0  1  0  0  0  0  0999 V2000
   20.8238  -21.0126  -12.4866 N   0  0  0  0  0  0  0  0  0  0  0  0
   21.1131  -19.7448  -13.0959 C   0  0  0  0  0  0  0  0  0  0  0  0
   22.4131  -19.7654  -13.8262 C   0  0  0  0  0  0  0  0  0  0  0  0
   23.4579  -19.5068  -13.1856 O   0  0  0  0  0  0  0  0  0  0  0  0
   22.5219  -20.0625  -15.2054 N   0  0  0  0  0  0  0  0  0  0  0  0
   23.7751  -20.0816  -15.9291 C   0  0  1  0  0  0  0  0  0  0  0  0
   23.7372  -21.0368  -17.0995 C   0  0  0  0  0  0  0  0  0  0  0  0
   25.0524  -21.1726  -17.7878 C   0  0  0  0  0  0  0  0  0  0  0  0
   25.9379  -22.0942  -16.9877 C   0  0  0  0  0  0  0  0  0  0  0  0
   27.3169  -22.2640  -17.5533 C   0  0  0  0  0  0  0  0  0  0  0  0
   28.1653  -22.9812  -16.5859 N   0  0  0  0  0  0  0  0  0  0  0  0
   24.1232  -18.7058  -16.3535 C   0  0  0  0  0  0  0  0  0  0  0  0
   23.2134  -17.9311  -16.7408 O   0  0  0  0  0  0  0  0  0  0  0  0
   25.4455  -18.2066  -16.3470 N   0  0  0  0  0  0  0  0  0  0  0  0
   25.7337  -16.8172  -16.7245 C   0  0  1  0  0  0  0  0  0  0  0  0
   27.0441  -16.4265  -16.0780 C   0  0  0  0  0  0  0  0  0  0  0  0
   26.8888  -16.4014  -14.2820 S   0  0  0  0  0  0  0  0  0  0  0  0
   25.8207  -16.6553  -18.1766 C   0  0  0  0  0  0  0  0  0  0  0  0
   26.0088  -17.5950  -18.9903 O   0  0  0  0  0  0  0  0  0  0  0  0
   25.6882  -15.3839  -18.7043 O   0  0  0  0  0  0  0  0  0  0  0  0
  2  1  1  0
  3  2  1  0
  4  3  2  0
  5  3  1  0
  6 12  1  0
  6  5  1  0
  6  7  1  6
  8  7  1  0
  9  8  1  0
 10  9  1  0
 11 10  1  0
 12 14  1  0
 13 12  2  0
 14 15  1  0
 15 16  1  1
 15 18  1  0
 17 16  1  0
 18 19  2  0
 18 20  1  0
M  END
$$$$
