GKC.pdb
     RDKit          3D

 20 19  0  0  1  0  0  0  0  0999 V2000
   21.4858  -14.2331  -17.3684 N   0  0  0  0  0  0  0  0  0  0  0  0
   21.0881  -13.5892  -16.1480 C   0  0  0  0  0  0  0  0  0  0  0  0
   20.4926  -12.2454  -16.3995 C   0  0  0  0  0  0  0  0  0  0  0  0
   21.0017  -11.5281  -17.2912 O   0  0  0  0  0  0  0  0  0  0  0  0
   19.3823  -11.7435  -15.6801 N   0  0  0  0  0  0  0  0  0  0  0  0
   18.7543  -10.4686  -15.9541 C   0  0  1  0  0  0  0  0  0  0  0  0
   17.2927  -10.4646  -15.5698 C   0  0  0  0  0  0  0  0  0  0  0  0
   16.3910  -10.8530  -16.6915 C   0  0  0  0  0  0  0  0  0  0  0  0
   15.4910  -11.9747  -16.2385 C   0  0  0  0  0  0  0  0  0  0  0  0
   14.5810  -12.5013  -17.3086 C   0  0  0  0  0  0  0  0  0  0  0  0
   13.7598  -13.5976  -16.7665 N   0  0  0  0  0  0  0  0  0  0  0  0
   19.5050   -9.3895  -15.2715 C   0  0  0  0  0  0  0  0  0  0  0  0
   19.8409   -9.5366  -14.0700 O   0  0  0  0  0  0  0  0  0  0  0  0
   19.8714   -8.1816  -15.9075 N   0  0  0  0  0  0  0  0  0  0  0  0
   20.6468   -7.1559  -15.1986 C   0  0  1  0  0  0  0  0  0  0  0  0
   21.5462   -6.4783  -16.2086 C   0  0  0  0  0  0  0  0  0  0  0  0
   22.4350   -5.1039  -15.4528 S   0  0  0  0  0  0  0  0  0  0  0  0
   19.7802   -6.1683  -14.5537 C   0  0  0  0  0  0  0  0  0  0  0  0
   18.6879   -5.7606  -15.0241 O   0  0  0  0  0  0  0  0  0  0  0  0
   20.1791   -5.6379  -13.3404 O   0  0  0  0  0  0  0  0  0  0  0  0
  2  1  1  0
  3  2  1  0
  4  3  2  0
  5  3  1  0
  6 12  1  0
  6  5  1  0
  6  7  1  1
  8  7  1  0
  9  8  1  0
 10  9  1  0
 11 10  1  0
 12 14  1  0
 13 12  2  0
 14 15  1  0
 15 16  1  6
 15 18  1  0
 17 16  1  0
 18 19  2  0
 18 20  1  0
M  END
$$$$
