GKC.pdb
     RDKit          3D

 20 19  0  0  1  0  0  0  0  0999 V2000
   22.6338  -12.0011  -21.3907 N   0  0  0  0  0  0  0  0  0  0  0  0
   21.4524  -11.5927  -22.0975 C   0  0  0  0  0  0  0  0  0  0  0  0
   20.4916  -10.8819  -21.2056 C   0  0  0  0  0  0  0  0  0  0  0  0
   19.5645  -10.2263  -21.7343 O   0  0  0  0  0  0  0  0  0  0  0  0
   20.5775  -10.9130  -19.7935 N   0  0  0  0  0  0  0  0  0  0  0  0
   19.6068  -10.2980  -18.9135 C   0  0  1  0  0  0  0  0  0  0  0  0
   19.6337  -10.9056  -17.5301 C   0  0  0  0  0  0  0  0  0  0  0  0
   18.5577  -10.3839  -16.6401 C   0  0  0  0  0  0  0  0  0  0  0  0
   17.2870  -11.1548  -16.8940 C   0  0  0  0  0  0  0  0  0  0  0  0
   16.0989  -10.6477  -16.1311 C   0  0  0  0  0  0  0  0  0  0  0  0
   14.8941  -11.3921  -16.5364 N   0  0  0  0  0  0  0  0  0  0  0  0
   19.8300   -8.8342  -18.8753 C   0  0  0  0  0  0  0  0  0  0  0  0
   20.9491   -8.3901  -18.5172 O   0  0  0  0  0  0  0  0  0  0  0  0
   18.8365   -7.8919  -19.2256 N   0  0  0  0  0  0  0  0  0  0  0  0
   19.0809   -6.4496  -19.0995 C   0  0  1  0  0  0  0  0  0  0  0  0
   17.9512   -5.7279  -19.8003 C   0  0  0  0  0  0  0  0  0  0  0  0
   18.2045   -3.9436  -19.7514 S   0  0  0  0  0  0  0  0  0  0  0  0
   19.1536   -6.0309  -17.6989 C   0  0  0  0  0  0  0  0  0  0  0  0
   18.3961   -6.4506  -16.7874 O   0  0  0  0  0  0  0  0  0  0  0  0
   20.1192   -5.1088  -17.3388 O   0  0  0  0  0  0  0  0  0  0  0  0
  2  1  1  0
  3  2  1  0
  4  3  2  0
  5  3  1  0
  6 12  1  0
  6  5  1  0
  6  7  1  1
  8  7  1  0
  9  8  1  0
 10  9  1  0
 11 10  1  0
 12 14  1  0
 13 12  2  0
 14 15  1  0
 15 16  1  1
 15 18  1  0
 17 16  1  0
 18 19  2  0
 18 20  1  0
M  END
$$$$
