GKC.pdb
     RDKit          3D

 20 19  0  0  1  0  0  0  0  0999 V2000
   27.4320  -23.7502  -17.2326 N   0  0  0  0  0  0  0  0  0  0  0  0
   27.3460  -22.5650  -16.4263 C   0  0  0  0  0  0  0  0  0  0  0  0
   25.9433  -22.0711  -16.3158 C   0  0  0  0  0  0  0  0  0  0  0  0
   25.2198  -22.1050  -17.3378 O   0  0  0  0  0  0  0  0  0  0  0  0
   25.3921  -21.5672  -15.1139 N   0  0  0  0  0  0  0  0  0  0  0  0
   24.0325  -21.0866  -14.9903 C   0  0  1  0  0  0  0  0  0  0  0  0
   23.5655  -21.0760  -13.5531 C   0  0  0  0  0  0  0  0  0  0  0  0
   22.1645  -20.5917  -13.3959 C   0  0  0  0  0  0  0  0  0  0  0  0
   21.2264  -21.7718  -13.4193 C   0  0  0  0  0  0  0  0  0  0  0  0
   19.7758  -21.4046  -13.3119 C   0  0  0  0  0  0  0  0  0  0  0  0
   18.9492  -22.6220  -13.3811 N   0  0  0  0  0  0  0  0  0  0  0  0
   23.9217  -19.7477  -15.6141 C   0  0  0  0  0  0  0  0  0  0  0  0
   24.6481  -18.8113  -15.1980 O   0  0  0  0  0  0  0  0  0  0  0  0
   23.0281  -19.4593  -16.6707 N   0  0  0  0  0  0  0  0  0  0  0  0
   22.9101  -18.1007  -17.2148 C   0  0  1  0  0  0  0  0  0  0  0  0
   22.8100  -18.2142  -18.7198 C   0  0  0  0  0  0  0  0  0  0  0  0
   22.8187  -16.5824  -19.4863 S   0  0  0  0  0  0  0  0  0  0  0  0
   21.7386  -17.4022  -16.6836 C   0  0  0  0  0  0  0  0  0  0  0  0
   20.7224  -17.9702  -16.2089 O   0  0  0  0  0  0  0  0  0  0  0  0
   21.7362  -16.0194  -16.6989 O   0  0  0  0  0  0  0  0  0  0  0  0
  2  1  1  0
  3  2  1  0
  4  3  2  0
  5  3  1  0
  6 12  1  0
  6  5  1  0
  6  7  1  1
  8  7  1  0
  9  8  1  0
 10  9  1  0
 11 10  1  0
 12 14  1  0
 13 12  2  0
 14 15  1  0
 15 16  1  6
 15 18  1  0
 17 16  1  0
 18 19  2  0
 18 20  1  0
M  END
$$$$
