GKC.pdb
     RDKit          3D

 20 19  0  0  1  0  0  0  0  0999 V2000
   14.7369   -7.7775   -7.1352 N   0  0  0  0  0  0  0  0  0  0  0  0
   14.7402   -6.9195   -8.2867 C   0  0  0  0  0  0  0  0  0  0  0  0
   15.6918   -7.3975   -9.3306 C   0  0  0  0  0  0  0  0  0  0  0  0
   16.5558   -8.2433   -9.0036 O   0  0  0  0  0  0  0  0  0  0  0  0
   15.6650   -6.9417  -10.6700 N   0  0  0  0  0  0  0  0  0  0  0  0
   16.5633   -7.4165  -11.7008 C   0  0  1  0  0  0  0  0  0  0  0  0
   15.8775   -7.5213  -13.0433 C   0  0  0  0  0  0  0  0  0  0  0  0
   16.3190   -8.7039  -13.8360 C   0  0  0  0  0  0  0  0  0  0  0  0
   16.0380   -9.9601  -13.0509 C   0  0  0  0  0  0  0  0  0  0  0  0
   16.5814  -11.2100  -13.6778 C   0  0  0  0  0  0  0  0  0  0  0  0
   16.3088  -12.3632  -12.8027 N   0  0  0  0  0  0  0  0  0  0  0  0
   17.7565   -6.5410  -11.7599 C   0  0  0  0  0  0  0  0  0  0  0  0
   17.6071   -5.2937  -11.7586 O   0  0  0  0  0  0  0  0  0  0  0  0
   19.0780   -7.0390  -11.8189 N   0  0  0  0  0  0  0  0  0  0  0  0
   20.2283   -6.1302  -11.9011 C   0  0  1  0  0  0  0  0  0  0  0  0
   21.3724   -6.7653  -11.1425 C   0  0  0  0  0  0  0  0  0  0  0  0
   22.8551   -5.7452  -11.2495 S   0  0  0  0  0  0  0  0  0  0  0  0
   20.6227   -5.8766  -13.2876 C   0  0  0  0  0  0  0  0  0  0  0  0
   20.6074   -6.7375  -14.2037 O   0  0  0  0  0  0  0  0  0  0  0  0
   21.0442   -4.6042  -13.6278 O   0  0  0  0  0  0  0  0  0  0  0  0
  2  1  1  0
  3  2  1  0
  4  3  2  0
  5  3  1  0
  6 12  1  0
  6  5  1  0
  6  7  1  6
  8  7  1  0
  9  8  1  0
 10  9  1  0
 11 10  1  0
 12 14  1  0
 13 12  2  0
 14 15  1  0
 15 16  1  1
 15 18  1  0
 17 16  1  0
 18 19  2  0
 18 20  1  0
M  END
$$$$
