GKC.pdb
     RDKit          3D

 20 19  0  0  1  0  0  0  0  0999 V2000
   27.3640  -22.9448  -15.4125 N   0  0  0  0  0  0  0  0  0  0  0  0
   27.0610  -21.7351  -14.7004 C   0  0  0  0  0  0  0  0  0  0  0  0
   25.8111  -21.8637  -13.8972 C   0  0  0  0  0  0  0  0  0  0  0  0
   25.0885  -22.8701  -14.0808 O   0  0  0  0  0  0  0  0  0  0  0  0
   25.4038  -20.9047  -12.9398 N   0  0  0  0  0  0  0  0  0  0  0  0
   24.1534  -20.9715  -12.2140 C   0  0  1  0  0  0  0  0  0  0  0  0
   24.1479  -20.0549  -11.0125 C   0  0  0  0  0  0  0  0  0  0  0  0
   22.8446  -20.0451  -10.2890 C   0  0  0  0  0  0  0  0  0  0  0  0
   22.8379  -21.1514   -9.2646 C   0  0  0  0  0  0  0  0  0  0  0  0
   21.5374  -21.3013   -8.5319 C   0  0  0  0  0  0  0  0  0  0  0  0
   21.6072  -22.4634   -7.6294 N   0  0  0  0  0  0  0  0  0  0  0  0
   23.0302  -20.6784  -13.1341 C   0  0  0  0  0  0  0  0  0  0  0  0
   23.0618  -19.6355  -13.8335 O   0  0  0  0  0  0  0  0  0  0  0  0
   21.9042  -21.5217  -13.2717 N   0  0  0  0  0  0  0  0  0  0  0  0
   20.8018  -21.1734  -14.1770 C   0  0  1  0  0  0  0  0  0  0  0  0
   20.4237  -22.4212  -14.9438 C   0  0  0  0  0  0  0  0  0  0  0  0
   18.9894  -22.1171  -15.9929 S   0  0  0  0  0  0  0  0  0  0  0  0
   19.6414  -20.6594  -13.4479 C   0  0  0  0  0  0  0  0  0  0  0  0
   19.3295  -20.9911  -12.2760 O   0  0  0  0  0  0  0  0  0  0  0  0
   18.8215  -19.7434  -14.0812 O   0  0  0  0  0  0  0  0  0  0  0  0
  2  1  1  0
  3  2  1  0
  4  3  2  0
  5  3  1  0
  6 12  1  0
  6  5  1  0
  6  7  1  1
  8  7  1  0
  9  8  1  0
 10  9  1  0
 11 10  1  0
 12 14  1  0
 13 12  2  0
 14 15  1  0
 15 16  1  1
 15 18  1  0
 17 16  1  0
 18 19  2  0
 18 20  1  0
M  END
$$$$
