GKC.pdb
     RDKit          3D

 20 19  0  0  1  0  0  0  0  0999 V2000
   26.0504  -22.1328  -14.9669 N   0  0  0  0  0  0  0  0  0  0  0  0
   24.8325  -21.4801  -14.5757 C   0  0  0  0  0  0  0  0  0  0  0  0
   24.5550  -20.2779  -15.4132 C   0  0  0  0  0  0  0  0  0  0  0  0
   25.4937  -19.7941  -16.0867 O   0  0  0  0  0  0  0  0  0  0  0  0
   23.2843  -19.6593  -15.4828 N   0  0  0  0  0  0  0  0  0  0  0  0
   22.9516  -18.6047  -16.4167 C   0  0  1  0  0  0  0  0  0  0  0  0
   21.5170  -18.6950  -16.8832 C   0  0  0  0  0  0  0  0  0  0  0  0
   21.3916  -19.0224  -18.3321 C   0  0  0  0  0  0  0  0  0  0  0  0
   20.5018  -20.2289  -18.4925 C   0  0  0  0  0  0  0  0  0  0  0  0
   20.2922  -20.6517  -19.9166 C   0  0  0  0  0  0  0  0  0  0  0  0
   19.4113  -21.8316  -19.9596 N   0  0  0  0  0  0  0  0  0  0  0  0
   23.2488  -17.2890  -15.8048 C   0  0  0  0  0  0  0  0  0  0  0  0
   22.9113  -17.0720  -14.6145 O   0  0  0  0  0  0  0  0  0  0  0  0
   23.9027  -16.2448  -16.4976 N   0  0  0  0  0  0  0  0  0  0  0  0
   24.1624  -14.9520  -15.8517 C   0  0  1  0  0  0  0  0  0  0  0  0
   25.6222  -14.9191  -15.4571 C   0  0  0  0  0  0  0  0  0  0  0  0
   26.1064  -13.2628  -14.9349 S   0  0  0  0  0  0  0  0  0  0  0  0
   23.8552  -13.8295  -16.7393 C   0  0  0  0  0  0  0  0  0  0  0  0
   24.0006  -13.8454  -17.9880 O   0  0  0  0  0  0  0  0  0  0  0  0
   23.3701  -12.6625  -16.1778 O   0  0  0  0  0  0  0  0  0  0  0  0
  2  1  1  0
  3  2  1  0
  4  3  2  0
  5  3  1  0
  6 12  1  0
  6  5  1  0
  6  7  1  1
  8  7  1  0
  9  8  1  0
 10  9  1  0
 11 10  1  0
 12 14  1  0
 13 12  2  0
 14 15  1  0
 15 16  1  6
 15 18  1  0
 17 16  1  0
 18 19  2  0
 18 20  1  0
M  END
$$$$
