SAY.pdb
     RDKit          3D

 24 24  0  0  1  0  0  0  0  0999 V2000
   26.7253  -15.8602  -18.0842 O   0  0  0  0  0  0  0  0  0  0  0  0
   28.1198  -15.7527  -18.0615 C   0  0  0  0  0  0  0  0  0  0  0  0
   28.7348  -16.4552  -19.2651 C   0  0  2  0  0  0  0  0  0  0  0  0
   28.1471  -15.9627  -20.4930 N   0  0  0  0  0  0  0  0  0  0  0  0
   28.4366  -17.8885  -19.1341 C   0  0  0  0  0  0  0  0  0  0  0  0
   27.2761  -18.3001  -19.3731 O   0  0  0  0  0  0  0  0  0  0  0  0
   30.3067  -21.0698  -18.4735 C   0  0  0  0  0  0  0  0  0  0  0  0
   29.0562  -20.2514  -18.6083 C   0  0  2  0  0  0  0  0  0  0  0  0
   29.4118  -18.8557  -18.7431 N   0  0  0  0  0  0  0  0  0  0  0  0
   28.0964  -20.4166  -17.5338 C   0  0  0  0  0  0  0  0  0  0  0  0
   28.1466  -19.6254  -16.5487 O   0  0  0  0  0  0  0  0  0  0  0  0
   20.8310  -20.6320  -13.0804 O   0  0  0  0  0  0  0  0  0  0  0  0
   21.9939  -20.5039  -13.8614 C   0  0  0  0  0  0  0  0  0  0  0  0
   23.1583  -20.0043  -13.3592 C   0  0  0  0  0  0  0  0  0  0  0  0
   24.3047  -19.8800  -14.1363 C   0  0  0  0  0  0  0  0  0  0  0  0
   24.2343  -20.2814  -15.4505 C   0  0  0  0  0  0  0  0  0  0  0  0
   25.4390  -20.1584  -16.2904 C   0  0  0  0  0  0  0  0  0  0  0  0
   26.1909  -21.4735  -16.3529 C   0  0  2  0  0  0  0  0  0  0  0  0
   27.0816  -21.4081  -17.4847 N   0  0  0  0  0  0  0  0  0  0  0  0
   25.2880  -22.6273  -16.5104 C   0  0  0  0  0  0  0  0  0  0  0  0
   24.9274  -23.1075  -17.7554 O   0  0  0  0  0  0  0  0  0  0  0  0
   23.0594  -20.7970  -15.9973 C   0  0  0  0  0  0  0  0  0  0  0  0
   21.9646  -20.8939  -15.1799 C   0  0  0  0  0  0  0  0  0  0  0  0
   24.8305  -23.1935  -15.4952 O   0  0  0  0  0  0  0  0  0  0  0  0
  2  3  1  0
  2  1  1  0
  3  4  1  6
  5  9  1  0
  5  3  1  0
  6  5  2  0
  8  7  1  1
  8 10  1  0
  8  9  1  0
 10 19  1  0
 11 10  2  0
 13 12  1  0
 14 13  2  0
 15 14  1  0
 16 22  1  0
 16 15  2  0
 17 16  1  0
 18 17  1  6
 19 18  1  0
 20 21  1  0
 20 18  1  0
 22 23  2  0
 23 13  1  0
 24 20  2  0
M  END
$$$$
