SAY.pdb
     RDKit          3D

 24 24  0  0  1  0  0  0  0  0999 V2000
   20.1554  -11.5997  -19.2276 O   0  0  0  0  0  0  0  0  0  0  0  0
   21.0819  -12.6429  -19.1259 C   0  0  0  0  0  0  0  0  0  0  0  0
   20.9329  -13.3688  -17.7950 C   0  0  2  0  0  0  0  0  0  0  0  0
   19.5480  -13.7211  -17.5632 N   0  0  0  0  0  0  0  0  0  0  0  0
   21.3735  -12.4441  -16.7410 C   0  0  0  0  0  0  0  0  0  0  0  0
   20.5153  -11.8371  -16.0564 O   0  0  0  0  0  0  0  0  0  0  0  0
   24.5927  -11.3864  -15.1349 C   0  0  0  0  0  0  0  0  0  0  0  0
   23.1246  -11.2527  -15.4150 C   0  0  2  0  0  0  0  0  0  0  0  0
   22.7485  -12.1937  -16.4474 N   0  0  0  0  0  0  0  0  0  0  0  0
   22.6886   -9.9182  -15.7782 C   0  0  0  0  0  0  0  0  0  0  0  0
   22.4756   -9.6607  -16.9979 O   0  0  0  0  0  0  0  0  0  0  0  0
   18.6866   -2.7340  -17.6970 O   0  0  0  0  0  0  0  0  0  0  0  0
   19.1992   -3.9776  -17.2857 C   0  0  0  0  0  0  0  0  0  0  0  0
   20.0705   -4.6958  -18.0490 C   0  0  0  0  0  0  0  0  0  0  0  0
   20.5738   -5.9248  -17.6369 C   0  0  0  0  0  0  0  0  0  0  0  0
   20.1634   -6.4083  -16.4159 C   0  0  0  0  0  0  0  0  0  0  0  0
   20.6863   -7.7089  -15.9609 C   0  0  0  0  0  0  0  0  0  0  0  0
   22.0699   -7.5549  -15.3604 C   0  0  2  0  0  0  0  0  0  0  0  0
   22.4738   -8.8490  -14.8695 N   0  0  0  0  0  0  0  0  0  0  0  0
   22.0938   -6.5848  -14.2516 C   0  0  0  0  0  0  0  0  0  0  0  0
   22.5640   -5.2958  -14.4193 O   0  0  0  0  0  0  0  0  0  0  0  0
   19.2730   -5.7001  -15.6090 C   0  0  0  0  0  0  0  0  0  0  0  0
   18.8133   -4.4956  -16.0715 C   0  0  0  0  0  0  0  0  0  0  0  0
   21.6795   -6.9287  -13.1244 O   0  0  0  0  0  0  0  0  0  0  0  0
  2  3  1  0
  2  1  1  0
  3  4  1  1
  5  9  1  0
  5  3  1  0
  6  5  2  0
  8  7  1  6
  8 10  1  0
  8  9  1  0
 10 19  1  0
 11 10  2  0
 13 12  1  0
 14 13  2  0
 15 14  1  0
 16 22  1  0
 16 15  2  0
 17 16  1  0
 18 17  1  1
 19 18  1  0
 20 21  1  0
 20 18  1  0
 22 23  2  0
 23 13  1  0
 24 20  2  0
M  END
$$$$
