SAY.pdb
     RDKit          3D

 24 24  0  0  1  0  0  0  0  0999 V2000
   20.4192  -12.9781  -18.5482 O   0  0  0  0  0  0  0  0  0  0  0  0
   19.9277  -12.1347  -17.5463 C   0  0  0  0  0  0  0  0  0  0  0  0
   20.9742  -11.9204  -16.4602 C   0  0  2  0  0  0  0  0  0  0  0  0
   21.2718  -13.1691  -15.7911 N   0  0  0  0  0  0  0  0  0  0  0  0
   20.4054  -10.9795  -15.4848 C   0  0  0  0  0  0  0  0  0  0  0  0
   19.5298  -11.3805  -14.6810 O   0  0  0  0  0  0  0  0  0  0  0  0
   21.1539   -7.5704  -14.1781 C   0  0  0  0  0  0  0  0  0  0  0  0
   20.2368   -8.7387  -14.3918 C   0  0  2  0  0  0  0  0  0  0  0  0
   20.8010   -9.6099  -15.3995 N   0  0  0  0  0  0  0  0  0  0  0  0
   18.8734   -8.3917  -14.7438 C   0  0  0  0  0  0  0  0  0  0  0  0
   18.5215   -8.4693  -15.9559 O   0  0  0  0  0  0  0  0  0  0  0  0
   12.9218  -10.8431  -10.2362 O   0  0  0  0  0  0  0  0  0  0  0  0
   13.6320  -10.3533  -11.3473 C   0  0  0  0  0  0  0  0  0  0  0  0
   13.0450   -9.5827  -12.3061 C   0  0  0  0  0  0  0  0  0  0  0  0
   13.7525   -9.1015  -13.4023 C   0  0  0  0  0  0  0  0  0  0  0  0
   15.0856   -9.4280  -13.4979 C   0  0  0  0  0  0  0  0  0  0  0  0
   15.8529   -8.9268  -14.6520 C   0  0  0  0  0  0  0  0  0  0  0  0
   16.5559   -7.6276  -14.3105 C   0  0  2  0  0  0  0  0  0  0  0  0
   17.8738   -7.9630  -13.8316 N   0  0  0  0  0  0  0  0  0  0  0  0
   15.8422   -6.8608  -13.2743 C   0  0  0  0  0  0  0  0  0  0  0  0
   14.6421   -6.2255  -13.5327 O   0  0  0  0  0  0  0  0  0  0  0  0
   15.7183  -10.2143  -12.5352 C   0  0  0  0  0  0  0  0  0  0  0  0
   14.9667  -10.6575  -11.4795 C   0  0  0  0  0  0  0  0  0  0  0  0
   16.3286   -6.7771  -12.1266 O   0  0  0  0  0  0  0  0  0  0  0  0
  2  3  1  0
  2  1  1  0
  3  4  1  1
  5  9  1  0
  5  3  1  0
  6  5  2  0
  8  7  1  6
  8 10  1  0
  8  9  1  0
 10 19  1  0
 11 10  2  0
 13 12  1  0
 14 13  2  0
 15 14  1  0
 16 22  1  0
 16 15  2  0
 17 16  1  0
 18 17  1  1
 19 18  1  0
 20 21  1  0
 20 18  1  0
 22 23  2  0
 23 13  1  0
 24 20  2  0
M  END
$$$$
