SAY.pdb
     RDKit          3D

 24 24  0  0  1  0  0  0  0  0999 V2000
   26.8443  -18.0032  -17.5595 O   0  0  0  0  0  0  0  0  0  0  0  0
   25.4685  -18.0302  -17.3079 C   0  0  0  0  0  0  0  0  0  0  0  0
   24.7155  -17.1966  -18.3367 C   0  0  2  0  0  0  0  0  0  0  0  0
   24.9970  -15.7888  -18.1511 N   0  0  0  0  0  0  0  0  0  0  0  0
   23.2802  -17.4292  -18.1218 C   0  0  0  0  0  0  0  0  0  0  0  0
   22.6866  -16.8100  -17.2065 O   0  0  0  0  0  0  0  0  0  0  0  0
   20.4755  -19.1201  -19.9221 C   0  0  0  0  0  0  0  0  0  0  0  0
   21.0801  -18.4498  -18.7234 C   0  0  2  0  0  0  0  0  0  0  0  0
   22.5101  -18.3368  -18.9108 N   0  0  0  0  0  0  0  0  0  0  0  0
   20.7957  -19.0905  -17.4540 C   0  0  0  0  0  0  0  0  0  0  0  0
   21.7480  -19.6286  -16.8194 O   0  0  0  0  0  0  0  0  0  0  0  0
   17.5317  -21.0954   -9.6483 O   0  0  0  0  0  0  0  0  0  0  0  0
   17.9915  -20.5289  -10.8510 C   0  0  0  0  0  0  0  0  0  0  0  0
   19.3178  -20.3715  -11.1227 C   0  0  0  0  0  0  0  0  0  0  0  0
   19.7662  -19.8108  -12.3136 C   0  0  0  0  0  0  0  0  0  0  0  0
   18.8205  -19.4108  -13.2294 C   0  0  0  0  0  0  0  0  0  0  0  0
   19.2758  -18.8149  -14.4981 C   0  0  0  0  0  0  0  0  0  0  0  0
   19.3583  -19.8644  -15.5891 C   0  0  2  0  0  0  0  0  0  0  0  0
   19.5167  -19.1713  -16.8435 N   0  0  0  0  0  0  0  0  0  0  0  0
   18.1508  -20.7067  -15.6478 C   0  0  0  0  0  0  0  0  0  0  0  0
   17.0870  -20.4011  -16.4759 O   0  0  0  0  0  0  0  0  0  0  0  0
   17.4553  -19.5569  -12.9842 C   0  0  0  0  0  0  0  0  0  0  0  0
   17.0778  -20.1163  -11.7923 C   0  0  0  0  0  0  0  0  0  0  0  0
   18.0777  -21.7279  -14.9320 O   0  0  0  0  0  0  0  0  0  0  0  0
  2  3  1  0
  2  1  1  0
  3  4  1  1
  5  9  1  0
  5  3  1  0
  6  5  2  0
  8  7  1  6
  8 10  1  0
  8  9  1  0
 10 19  1  0
 11 10  2  0
 13 12  1  0
 14 13  2  0
 15 14  1  0
 16 22  1  0
 16 15  2  0
 17 16  1  0
 18 17  1  1
 19 18  1  0
 20 21  1  0
 20 18  1  0
 22 23  2  0
 23 13  1  0
 24 20  2  0
M  END
$$$$
