SAY.pdb
     RDKit          3D

 24 24  0  0  1  0  0  0  0  0999 V2000
   20.0902  -12.3106  -20.1630 O   0  0  0  0  0  0  0  0  0  0  0  0
   20.4616  -11.5966  -19.0189 C   0  0  0  0  0  0  0  0  0  0  0  0
   20.9870  -12.5378  -17.9425 C   0  0  2  0  0  0  0  0  0  0  0  0
   19.9238  -13.3888  -17.4517 N   0  0  0  0  0  0  0  0  0  0  0  0
   21.4812  -11.7049  -16.8369 C   0  0  0  0  0  0  0  0  0  0  0  0
   20.6591  -11.1558  -16.0647 O   0  0  0  0  0  0  0  0  0  0  0  0
   24.7596  -10.7956  -15.2719 C   0  0  0  0  0  0  0  0  0  0  0  0
   23.2978  -10.5850  -15.5370 C   0  0  2  0  0  0  0  0  0  0  0  0
   22.8696  -11.4818  -16.5882 N   0  0  0  0  0  0  0  0  0  0  0  0
   22.9241   -9.2227  -15.8652 C   0  0  0  0  0  0  0  0  0  0  0  0
   22.7923   -8.9064  -17.0824 O   0  0  0  0  0  0  0  0  0  0  0  0
   19.5173   -1.7219  -17.7268 O   0  0  0  0  0  0  0  0  0  0  0  0
   19.9351   -3.0142  -17.3604 C   0  0  0  0  0  0  0  0  0  0  0  0
   20.9068   -3.6865  -18.0396 C   0  0  0  0  0  0  0  0  0  0  0  0
   21.3155   -4.9639  -17.6725 C   0  0  0  0  0  0  0  0  0  0  0  0
   20.7035   -5.5447  -16.5857 C   0  0  0  0  0  0  0  0  0  0  0  0
   21.1233   -6.8980  -16.1802 C   0  0  0  0  0  0  0  0  0  0  0  0
   22.4095   -6.8475  -15.3792 C   0  0  2  0  0  0  0  0  0  0  0  0
   22.6871   -8.1870  -14.9237 N   0  0  0  0  0  0  0  0  0  0  0  0
   22.3092   -5.9491  -14.2157 C   0  0  0  0  0  0  0  0  0  0  0  0
   21.8565   -6.3929  -12.9874 O   0  0  0  0  0  0  0  0  0  0  0  0
   19.7057   -4.8857  -15.8678 C   0  0  0  0  0  0  0  0  0  0  0  0
   19.3478   -3.6294  -16.2796 C   0  0  0  0  0  0  0  0  0  0  0  0
   22.6404   -4.7503  -14.3337 O   0  0  0  0  0  0  0  0  0  0  0  0
  2  3  1  0
  2  1  1  0
  3  4  1  1
  5  9  1  0
  5  3  1  0
  6  5  2  0
  8  7  1  6
  8 10  1  0
  8  9  1  0
 10 19  1  0
 11 10  2  0
 13 12  1  0
 14 13  2  0
 15 14  1  0
 16 22  1  0
 16 15  2  0
 17 16  1  0
 18 17  1  1
 19 18  1  0
 20 21  1  0
 20 18  1  0
 22 23  2  0
 23 13  1  0
 24 20  2  0
M  END
$$$$
