GGI.pdb
     RDKit          3D

 17 16  0  0  1  0  0  0  0  0999 V2000
    8.8809  -16.7917   18.7373 N   0  0  0  0  0  0  0  0  0  0  0  0
    8.5375  -17.9300   19.5482 C   0  0  0  0  0  0  0  0  0  0  0  0
    7.8674  -17.5028   20.7814 C   0  0  0  0  0  0  0  0  0  0  0  0
    7.7709  -18.3248   21.7317 O   0  0  0  0  0  0  0  0  0  0  0  0
    7.3459  -16.2061   20.8984 N   0  0  0  0  0  0  0  0  0  0  0  0
    6.6693  -15.7336   22.0862 C   0  0  0  0  0  0  0  0  0  0  0  0
    7.6605  -15.2277   23.0759 C   0  0  0  0  0  0  0  0  0  0  0  0
    8.8363  -15.0441   22.7146 O   0  0  0  0  0  0  0  0  0  0  0  0
    5.6674  -11.5685   26.3671 C   0  0  0  0  0  0  0  0  0  0  0  0
    6.5711  -12.3714   25.4693 C   0  0  0  0  0  0  0  0  0  0  0  0
    7.4370  -13.3358   26.2357 C   0  0  2  0  0  0  0  0  0  0  0  0
    8.3094  -12.5673   27.1560 C   0  0  0  0  0  0  0  0  0  0  0  0
    8.1318  -14.3088   25.3541 C   0  0  2  0  0  0  0  0  0  0  0  0
    7.2615  -14.9594   24.4169 N   0  0  0  0  0  0  0  0  0  0  0  0
    8.9812  -15.2825   26.0346 C   0  0  0  0  0  0  0  0  0  0  0  0
   10.1558  -15.0600   26.4262 O   0  0  0  0  0  0  0  0  0  0  0  0
    8.4816  -16.5481   26.2757 O   0  0  0  0  0  0  0  0  0  0  0  0
  1  2  1  0
  3  5  1  0
  3  2  1  0
  4  3  2  0
  6  5  1  0
  7  6  1  0
  8  7  2  0
  9 10  1  0
 10 11  1  0
 11 13  1  0
 11 12  1  6
 13 14  1  1
 14  7  1  0
 15 13  1  0
 16 15  2  0
 17 15  1  0
M  END
$$$$
