GGI.pdb
     RDKit          3D

 17 16  0  0  1  0  0  0  0  0999 V2000
    7.7373  -19.2677   18.8118 N   0  0  0  0  0  0  0  0  0  0  0  0
    7.8659  -19.1646   20.2415 C   0  0  0  0  0  0  0  0  0  0  0  0
    7.2130  -17.9460   20.7325 C   0  0  0  0  0  0  0  0  0  0  0  0
    6.1237  -17.5914   20.2073 O   0  0  0  0  0  0  0  0  0  0  0  0
    7.7907  -17.1927   21.7649 N   0  0  0  0  0  0  0  0  0  0  0  0
    7.1516  -16.0326   22.3459 C   0  0  0  0  0  0  0  0  0  0  0  0
    8.0167  -15.4459   23.4067 C   0  0  0  0  0  0  0  0  0  0  0  0
    9.2042  -15.1861   23.1438 O   0  0  0  0  0  0  0  0  0  0  0  0
    5.6881  -11.6974   26.1831 C   0  0  0  0  0  0  0  0  0  0  0  0
    6.7133  -12.5441   25.4763 C   0  0  0  0  0  0  0  0  0  0  0  0
    7.4649  -13.4466   26.4186 C   0  0  2  0  0  0  0  0  0  0  0  0
    8.2379  -12.6095   27.3675 C   0  0  0  0  0  0  0  0  0  0  0  0
    8.2395  -14.4981   25.7108 C   0  0  2  0  0  0  0  0  0  0  0  0
    7.4858  -15.1880   24.7032 N   0  0  0  0  0  0  0  0  0  0  0  0
    8.9472  -15.4454   26.5679 C   0  0  0  0  0  0  0  0  0  0  0  0
    9.9863  -15.1799   27.2255 O   0  0  0  0  0  0  0  0  0  0  0  0
    8.4607  -16.7339   26.6796 O   0  0  0  0  0  0  0  0  0  0  0  0
  1  2  1  0
  3  5  1  0
  3  2  1  0
  4  3  2  0
  6  5  1  0
  7  6  1  0
  8  7  2  0
  9 10  1  0
 10 11  1  0
 11 13  1  0
 11 12  1  6
 13 14  1  1
 14  7  1  0
 15 13  1  0
 16 15  2  0
 17 15  1  0
M  END
$$$$
