GGI.pdb
     RDKit          3D

 17 16  0  0  1  0  0  0  0  0999 V2000
    7.5248  -21.0115   21.1584 N   0  0  0  0  0  0  0  0  0  0  0  0
    6.6072  -19.9048   21.2241 C   0  0  0  0  0  0  0  0  0  0  0  0
    6.5268  -19.3807   22.5920 C   0  0  0  0  0  0  0  0  0  0  0  0
    7.1045  -20.0138   23.5158 O   0  0  0  0  0  0  0  0  0  0  0  0
    5.8212  -18.1994   22.8638 N   0  0  0  0  0  0  0  0  0  0  0  0
    5.7426  -17.6153   24.1846 C   0  0  0  0  0  0  0  0  0  0  0  0
    6.8412  -16.6282   24.3768 C   0  0  0  0  0  0  0  0  0  0  0  0
    7.7097  -16.5105   23.4944 O   0  0  0  0  0  0  0  0  0  0  0  0
    5.5357  -12.0268   26.7040 C   0  0  0  0  0  0  0  0  0  0  0  0
    6.2725  -12.9794   25.8001 C   0  0  0  0  0  0  0  0  0  0  0  0
    7.4400  -13.6387   26.4854 C   0  0  2  0  0  0  0  0  0  0  0  0
    8.4725  -12.6116   26.7645 C   0  0  0  0  0  0  0  0  0  0  0  0
    7.9158  -14.8505   25.7701 C   0  0  2  0  0  0  0  0  0  0  0  0
    6.8913  -15.8324   25.5572 N   0  0  0  0  0  0  0  0  0  0  0  0
    9.1225  -15.4698   26.3113 C   0  0  0  0  0  0  0  0  0  0  0  0
   10.2961  -15.0878   26.0674 O   0  0  0  0  0  0  0  0  0  0  0  0
    8.9921  -16.5575   27.1537 O   0  0  0  0  0  0  0  0  0  0  0  0
  1  2  1  0
  3  5  1  0
  3  2  1  0
  4  3  2  0
  6  5  1  0
  7  6  1  0
  8  7  2  0
  9 10  1  0
 10 11  1  0
 11 13  1  0
 11 12  1  6
 13 14  1  1
 14  7  1  0
 15 13  1  0
 16 15  2  0
 17 15  1  0
M  END
$$$$
