EHH.pdb
     RDKit          3D

 30 31  0  0  1  0  0  0  0  0999 V2000
    5.0392  -16.7942   23.3422 N   0  0  0  0  0  0  0  0  0  0  0  0
    5.8212  -18.0324   23.2254 C   0  0  1  0  0  0  0  0  0  0  0  0
    5.2650  -18.7686   22.0059 C   0  0  0  0  0  0  0  0  0  0  0  0
    4.7523  -17.6723   21.0659 C   0  0  0  0  0  0  0  0  0  0  0  0
    4.3929  -18.2105   19.7395 C   0  0  0  0  0  0  0  0  0  0  0  0
    3.6489  -19.2249   19.6735 O   0  0  0  0  0  0  0  0  0  0  0  0
    7.2320  -17.7214   22.9509 C   0  0  0  0  0  0  0  0  0  0  0  0
    8.0225  -18.6193   22.5899 O   0  0  0  0  0  0  0  0  0  0  0  0
    4.8656  -17.6099   18.5982 O   0  0  0  0  0  0  0  0  0  0  0  0
    7.7937  -16.4109   23.0712 N   0  0  0  0  0  0  0  0  0  0  0  0
    9.1604  -16.1246   22.8298 C   0  0  1  0  0  0  0  0  0  0  0  0
    9.5122  -14.9786   21.9790 C   0  0  0  0  0  0  0  0  0  0  0  0
    8.5227  -14.5816   20.9546 C   0  0  0  0  0  0  0  0  0  0  0  0
    7.3069  -13.9699   21.0669 C   0  0  0  0  0  0  0  0  0  0  0  0
    6.7502  -13.7665   19.8568 N   0  0  0  0  0  0  0  0  0  0  0  0
    7.6135  -14.2497   18.9627 C   0  0  0  0  0  0  0  0  0  0  0  0
    8.6859  -14.7444   19.5991 N   0  0  0  0  0  0  0  0  0  0  0  0
    9.9525  -16.0396   24.1074 C   0  0  0  0  0  0  0  0  0  0  0  0
   10.3030  -14.9239   24.5325 O   0  0  0  0  0  0  0  0  0  0  0  0
   10.2946  -17.2029   24.8164 N   0  0  0  0  0  0  0  0  0  0  0  0
   10.4259  -17.2386   26.2736 C   0  0  1  0  0  0  0  0  0  0  0  0
    9.1491  -16.8641   26.9397 C   0  0  0  0  0  0  0  0  0  0  0  0
    9.3148  -15.6049   27.7031 C   0  0  0  0  0  0  0  0  0  0  0  0
   10.4876  -14.8647   27.8588 C   0  0  0  0  0  0  0  0  0  0  0  0
   10.2309  -13.7924   28.6167 N   0  0  0  0  0  0  0  0  0  0  0  0
    8.9371  -13.8335   28.9427 C   0  0  0  0  0  0  0  0  0  0  0  0
    8.3778  -14.9249   28.3948 N   0  0  0  0  0  0  0  0  0  0  0  0
   10.8258  -18.6003   26.6452 C   0  0  0  0  0  0  0  0  0  0  0  0
   10.6010  -19.5840   25.8955 O   0  0  0  0  0  0  0  0  0  0  0  0
   11.4694  -18.8571   27.8356 O   0  0  0  0  0  0  0  0  0  0  0  0
  2  1  1  6
  3  2  1  0
  4  5  1  0
  4  3  1  0
  5  6  2  0
  7  2  1  0
  8  7  2  0
  9  5  1  0
 10  7  1  0
 11 10  1  0
 12 13  1  0
 11 12  1  1
 13 14  2  0
 15 14  1  0
 16 15  1  0
 17 16  2  0
 17 13  1  0
 18 11  1  0
 18 19  2  0
 20 18  1  0
 21 20  1  0
 21 22  1  1
 23 22  1  0
 24 23  2  0
 25 26  1  0
 25 24  1  0
 26 27  2  0
 27 23  1  0
 28 21  1  0
 29 28  2  0
 30 28  1  0
M  END
$$$$
