EHH.pdb
     RDKit          3D

 30 31  0  0  1  0  0  0  0  0999 V2000
   10.3764  -19.3330   18.1737 N   0  0  0  0  0  0  0  0  0  0  0  0
    9.5137  -18.9097   19.2849 C   0  0  1  0  0  0  0  0  0  0  0  0
    9.6954  -19.9588   20.3827 C   0  0  0  0  0  0  0  0  0  0  0  0
   11.2104  -20.1088   20.5572 C   0  0  0  0  0  0  0  0  0  0  0  0
   11.5480  -21.1374   21.5605 C   0  0  0  0  0  0  0  0  0  0  0  0
   10.6153  -21.7211   22.1739 O   0  0  0  0  0  0  0  0  0  0  0  0
    9.9706  -17.6199   19.8235 C   0  0  0  0  0  0  0  0  0  0  0  0
   11.1279  -17.2088   19.5937 O   0  0  0  0  0  0  0  0  0  0  0  0
   12.8610  -21.4487   21.8167 O   0  0  0  0  0  0  0  0  0  0  0  0
    9.1546  -16.7616   20.6266 N   0  0  0  0  0  0  0  0  0  0  0  0
    9.5361  -15.4481   20.9973 C   0  0  1  0  0  0  0  0  0  0  0  0
    8.6395  -14.3266   20.6824 C   0  0  0  0  0  0  0  0  0  0  0  0
    8.5092  -13.9588   19.2562 C   0  0  0  0  0  0  0  0  0  0  0  0
    9.0829  -14.4861   18.1346 C   0  0  0  0  0  0  0  0  0  0  0  0
    8.6527  -13.8551   17.0246 N   0  0  0  0  0  0  0  0  0  0  0  0
    7.7976  -12.9180   17.4356 C   0  0  0  0  0  0  0  0  0  0  0  0
    7.6955  -12.9617   18.7725 N   0  0  0  0  0  0  0  0  0  0  0  0
    9.9254  -15.3629   22.4492 C   0  0  0  0  0  0  0  0  0  0  0  0
   10.3306  -14.2795   22.9076 O   0  0  0  0  0  0  0  0  0  0  0  0
    9.8339  -16.4903   23.2822 N   0  0  0  0  0  0  0  0  0  0  0  0
    9.6446  -16.3979   24.7305 C   0  0  1  0  0  0  0  0  0  0  0  0
    8.2042  -16.4863   25.0931 C   0  0  0  0  0  0  0  0  0  0  0  0
    7.6223  -15.1306   25.2315 C   0  0  0  0  0  0  0  0  0  0  0  0
    8.3104  -13.9165   25.2291 C   0  0  0  0  0  0  0  0  0  0  0  0
    7.4339  -12.9165   25.3774 N   0  0  0  0  0  0  0  0  0  0  0  0
    6.2187  -13.4605   25.4731 C   0  0  0  0  0  0  0  0  0  0  0  0
    6.3248  -14.7968   25.3860 N   0  0  0  0  0  0  0  0  0  0  0  0
   10.4028  -17.4943   25.3432 C   0  0  0  0  0  0  0  0  0  0  0  0
   10.4368  -17.6604   26.5888 O   0  0  0  0  0  0  0  0  0  0  0  0
   11.1096  -18.3923   24.5743 O   0  0  0  0  0  0  0  0  0  0  0  0
  2  1  1  6
  3  2  1  0
  4  5  1  0
  4  3  1  0
  5  6  2  0
  7  2  1  0
  8  7  2  0
  9  5  1  0
 10  7  1  0
 11 10  1  0
 12 13  1  0
 11 12  1  1
 13 14  2  0
 15 14  1  0
 16 15  1  0
 17 16  2  0
 17 13  1  0
 18 11  1  0
 18 19  2  0
 20 18  1  0
 21 20  1  0
 21 22  1  6
 23 22  1  0
 24 23  2  0
 25 26  1  0
 25 24  1  0
 26 27  2  0
 27 23  1  0
 28 21  1  0
 29 28  2  0
 30 28  1  0
M  END
$$$$
