EHH.pdb
     RDKit          3D

 30 31  0  0  1  0  0  0  0  0999 V2000
   10.6157  -16.9877   15.4703 N   0  0  0  0  0  0  0  0  0  0  0  0
   10.0129  -17.7428   16.5770 C   0  0  1  0  0  0  0  0  0  0  0  0
   10.7183  -19.0996   16.5949 C   0  0  0  0  0  0  0  0  0  0  0  0
   12.2170  -18.7803   16.6098 C   0  0  0  0  0  0  0  0  0  0  0  0
   13.0351  -19.9949   16.7935 C   0  0  0  0  0  0  0  0  0  0  0  0
   14.2455  -19.8720   17.1202 O   0  0  0  0  0  0  0  0  0  0  0  0
   10.2926  -17.0801   17.8596 C   0  0  0  0  0  0  0  0  0  0  0  0
   11.2747  -16.3173   17.9803 O   0  0  0  0  0  0  0  0  0  0  0  0
   12.4792  -21.2374   16.6095 O   0  0  0  0  0  0  0  0  0  0  0  0
    9.4902  -17.2501   19.0320 N   0  0  0  0  0  0  0  0  0  0  0  0
    9.6801  -16.5018   20.2204 C   0  0  1  0  0  0  0  0  0  0  0  0
    8.5156  -15.8847   20.8715 C   0  0  0  0  0  0  0  0  0  0  0  0
    7.7917  -14.8514   20.1003 C   0  0  0  0  0  0  0  0  0  0  0  0
    6.7358  -14.9456   19.2393 C   0  0  0  0  0  0  0  0  0  0  0  0
    6.3715  -13.7323   18.7805 N   0  0  0  0  0  0  0  0  0  0  0  0
    7.1975  -12.8542   19.3505 C   0  0  0  0  0  0  0  0  0  0  0  0
    8.0593  -13.5036   20.1476 N   0  0  0  0  0  0  0  0  0  0  0  0
   10.4595  -17.2721   21.2529 C   0  0  0  0  0  0  0  0  0  0  0  0
   10.0806  -18.4128   21.5746 O   0  0  0  0  0  0  0  0  0  0  0  0
   11.6028  -16.7151   21.8494 N   0  0  0  0  0  0  0  0  0  0  0  0
   12.6472  -17.5238   22.4796 C   0  0  1  0  0  0  0  0  0  0  0  0
   13.9944  -17.1661   21.9589 C   0  0  0  0  0  0  0  0  0  0  0  0
   15.0324  -18.0207   22.5818 C   0  0  0  0  0  0  0  0  0  0  0  0
   14.8384  -19.0106   23.5463 C   0  0  0  0  0  0  0  0  0  0  0  0
   16.0195  -19.5582   23.8551 N   0  0  0  0  0  0  0  0  0  0  0  0
   16.9490  -18.9463   23.1179 C   0  0  0  0  0  0  0  0  0  0  0  0
   16.3605  -18.0169   22.3470 N   0  0  0  0  0  0  0  0  0  0  0  0
   12.5705  -17.2902   23.9259 C   0  0  0  0  0  0  0  0  0  0  0  0
   13.3938  -17.8052   24.7242 O   0  0  0  0  0  0  0  0  0  0  0  0
   11.5897  -16.4908   24.4704 O   0  0  0  0  0  0  0  0  0  0  0  0
  2  1  1  6
  3  2  1  0
  4  5  1  0
  4  3  1  0
  5  6  2  0
  7  2  1  0
  8  7  2  0
  9  5  1  0
 10  7  1  0
 11 10  1  0
 12 13  1  0
 11 12  1  1
 13 14  2  0
 15 14  1  0
 16 15  1  0
 17 16  2  0
 17 13  1  0
 18 11  1  0
 18 19  2  0
 20 18  1  0
 21 20  1  0
 21 22  1  6
 23 22  1  0
 24 23  2  0
 25 26  1  0
 25 24  1  0
 26 27  2  0
 27 23  1  0
 28 21  1  0
 29 28  2  0
 30 28  1  0
M  END
$$$$
