EHH.pdb
     RDKit          3D

 30 31  0  0  1  0  0  0  0  0999 V2000
   10.3356  -16.5916   14.9477 N   0  0  0  0  0  0  0  0  0  0  0  0
   10.8105  -17.4766   16.0199 C   0  0  1  0  0  0  0  0  0  0  0  0
   12.1818  -17.9837   15.5713 C   0  0  0  0  0  0  0  0  0  0  0  0
   12.6657  -18.9027   16.6980 C   0  0  0  0  0  0  0  0  0  0  0  0
   13.9961  -19.4724   16.4082 C   0  0  0  0  0  0  0  0  0  0  0  0
   14.2240  -19.9378   15.2600 O   0  0  0  0  0  0  0  0  0  0  0  0
   11.0036  -16.7150   17.2629 C   0  0  0  0  0  0  0  0  0  0  0  0
   11.8593  -15.8067   17.3256 O   0  0  0  0  0  0  0  0  0  0  0  0
   14.9666  -19.4918   17.3801 O   0  0  0  0  0  0  0  0  0  0  0  0
   10.2531  -16.9452   18.4592 N   0  0  0  0  0  0  0  0  0  0  0  0
   10.3746  -16.1426   19.6209 C   0  0  1  0  0  0  0  0  0  0  0  0
    9.1580  -15.7210   20.3300 C   0  0  0  0  0  0  0  0  0  0  0  0
    8.3386  -14.6746   19.6819 C   0  0  0  0  0  0  0  0  0  0  0  0
    8.5009  -14.0065   18.5020 C   0  0  0  0  0  0  0  0  0  0  0  0
    7.4852  -13.1483   18.2843 N   0  0  0  0  0  0  0  0  0  0  0  0
    6.6660  -13.2666   19.3298 C   0  0  0  0  0  0  0  0  0  0  0  0
    7.1584  -14.1779   20.1824 N   0  0  0  0  0  0  0  0  0  0  0  0
   11.3344  -16.7359   20.6177 C   0  0  0  0  0  0  0  0  0  0  0  0
   11.2831  -17.9553   20.8599 O   0  0  0  0  0  0  0  0  0  0  0  0
   12.2798  -15.9272   21.2700 N   0  0  0  0  0  0  0  0  0  0  0  0
   13.2899  -16.4614   22.1844 C   0  0  1  0  0  0  0  0  0  0  0  0
   14.2811  -15.4179   22.5626 C   0  0  0  0  0  0  0  0  0  0  0  0
   15.3538  -16.0039   23.4002 C   0  0  0  0  0  0  0  0  0  0  0  0
   15.4736  -17.3350   23.8021 C   0  0  0  0  0  0  0  0  0  0  0  0
   16.5761  -17.4692   24.5483 N   0  0  0  0  0  0  0  0  0  0  0  0
   17.1530  -16.2682   24.6292 C   0  0  0  0  0  0  0  0  0  0  0  0
   16.4206  -15.3788   23.9386 N   0  0  0  0  0  0  0  0  0  0  0  0
   12.5870  -16.9641   23.3699 C   0  0  0  0  0  0  0  0  0  0  0  0
   11.4188  -16.5957   23.6526 O   0  0  0  0  0  0  0  0  0  0  0  0
   13.1806  -17.8669   24.2243 O   0  0  0  0  0  0  0  0  0  0  0  0
  2  1  1  6
  3  2  1  0
  4  5  1  0
  4  3  1  0
  5  6  2  0
  7  2  1  0
  8  7  2  0
  9  5  1  0
 10  7  1  0
 11 10  1  0
 12 13  1  0
 11 12  1  1
 13 14  2  0
 15 14  1  0
 16 15  1  0
 17 16  2  0
 17 13  1  0
 18 11  1  0
 18 19  2  0
 20 18  1  0
 21 20  1  0
 21 22  1  1
 23 22  1  0
 24 23  2  0
 25 26  1  0
 25 24  1  0
 26 27  2  0
 27 23  1  0
 28 21  1  0
 29 28  2  0
 30 28  1  0
M  END
$$$$
