EHH.pdb
     RDKit          3D

 30 31  0  0  1  0  0  0  0  0999 V2000
   11.1842  -16.6862   18.4498 N   0  0  0  0  0  0  0  0  0  0  0  0
   10.0788  -17.2651   19.2252 C   0  0  1  0  0  0  0  0  0  0  0  0
   10.4978  -18.6995   19.5502 C   0  0  0  0  0  0  0  0  0  0  0  0
   11.9108  -18.5899   20.1330 C   0  0  0  0  0  0  0  0  0  0  0  0
   12.4679  -19.9134   20.4741 C   0  0  0  0  0  0  0  0  0  0  0  0
   13.6582  -20.1752   20.1552 O   0  0  0  0  0  0  0  0  0  0  0  0
    9.9195  -16.5495   20.5000 C   0  0  0  0  0  0  0  0  0  0  0  0
   10.8967  -15.9900   21.0415 O   0  0  0  0  0  0  0  0  0  0  0  0
   11.6952  -20.8409   21.1294 O   0  0  0  0  0  0  0  0  0  0  0  0
    8.6757  -16.4406   21.1988 N   0  0  0  0  0  0  0  0  0  0  0  0
    8.5068  -15.6622   22.3709 C   0  0  1  0  0  0  0  0  0  0  0  0
    7.1522  -15.2543   22.7703 C   0  0  0  0  0  0  0  0  0  0  0  0
    7.0465  -14.3383   23.9262 C   0  0  0  0  0  0  0  0  0  0  0  0
    8.0055  -13.7731   24.7174 C   0  0  0  0  0  0  0  0  0  0  0  0
    7.4570  -12.9664   25.6468 N   0  0  0  0  0  0  0  0  0  0  0  0
    6.1389  -13.0134   25.4509 C   0  0  0  0  0  0  0  0  0  0  0  0
    5.8688  -13.8313   24.4224 N   0  0  0  0  0  0  0  0  0  0  0  0
    9.1972  -16.2765   23.5595 C   0  0  0  0  0  0  0  0  0  0  0  0
    9.2208  -17.5150   23.6760 O   0  0  0  0  0  0  0  0  0  0  0  0
    9.8100  -15.4658   24.5293 N   0  0  0  0  0  0  0  0  0  0  0  0
   10.3928  -15.9992   25.7613 C   0  0  1  0  0  0  0  0  0  0  0  0
   10.8329  -14.9046   26.6680 C   0  0  0  0  0  0  0  0  0  0  0  0
   11.3271  -15.4622   27.9488 C   0  0  0  0  0  0  0  0  0  0  0  0
   12.4554  -16.2617   28.1377 C   0  0  0  0  0  0  0  0  0  0  0  0
   12.5666  -16.5617   29.4369 N   0  0  0  0  0  0  0  0  0  0  0  0
   11.5470  -15.9783   30.0708 C   0  0  0  0  0  0  0  0  0  0  0  0
   10.7946  -15.3130   29.1788 N   0  0  0  0  0  0  0  0  0  0  0  0
    9.3700  -16.8292   26.4073 C   0  0  0  0  0  0  0  0  0  0  0  0
    8.1475  -16.5438   26.3417 O   0  0  0  0  0  0  0  0  0  0  0  0
    9.7093  -17.9622   27.1134 O   0  0  0  0  0  0  0  0  0  0  0  0
  2  1  1  6
  3  2  1  0
  4  5  1  0
  4  3  1  0
  5  6  2  0
  7  2  1  0
  8  7  2  0
  9  5  1  0
 10  7  1  0
 11 10  1  0
 12 13  1  0
 11 12  1  1
 13 14  2  0
 15 14  1  0
 16 15  1  0
 17 16  2  0
 17 13  1  0
 18 11  1  0
 18 19  2  0
 20 18  1  0
 21 20  1  0
 21 22  1  1
 23 22  1  0
 24 23  2  0
 25 26  1  0
 25 24  1  0
 26 27  2  0
 27 23  1  0
 28 21  1  0
 29 28  2  0
 30 28  1  0
M  END
$$$$
