EHH.pdb
     RDKit          3D

 30 31  0  0  1  0  0  0  0  0999 V2000
   12.6145  -17.0225   16.7879 N   0  0  0  0  0  0  0  0  0  0  0  0
   13.1836  -15.6685   16.8215 C   0  0  1  0  0  0  0  0  0  0  0  0
   12.8129  -15.0224   15.4859 C   0  0  0  0  0  0  0  0  0  0  0  0
   12.6316  -16.1863   14.5058 C   0  0  0  0  0  0  0  0  0  0  0  0
   12.3844  -15.7119   13.1301 C   0  0  0  0  0  0  0  0  0  0  0  0
   13.1033  -14.7881   12.6646 O   0  0  0  0  0  0  0  0  0  0  0  0
   12.5535  -14.8760   17.8880 C   0  0  0  0  0  0  0  0  0  0  0  0
   12.8885  -13.6876   18.0796 O   0  0  0  0  0  0  0  0  0  0  0  0
   11.3843  -16.2733   12.3743 O   0  0  0  0  0  0  0  0  0  0  0  0
   11.5413  -15.3846   18.7621 N   0  0  0  0  0  0  0  0  0  0  0  0
   10.9435  -14.6158   19.7915 C   0  0  1  0  0  0  0  0  0  0  0  0
    9.4781  -14.5173   19.8523 C   0  0  0  0  0  0  0  0  0  0  0  0
    8.7767  -14.2341   18.5819 C   0  0  0  0  0  0  0  0  0  0  0  0
    8.5598  -13.0620   17.9153 C   0  0  0  0  0  0  0  0  0  0  0  0
    7.8936  -13.2727   16.7632 N   0  0  0  0  0  0  0  0  0  0  0  0
    7.6822  -14.5873   16.6894 C   0  0  0  0  0  0  0  0  0  0  0  0
    8.2041  -15.1853   17.7709 N   0  0  0  0  0  0  0  0  0  0  0  0
   11.4593  -14.9992   21.1530 C   0  0  0  0  0  0  0  0  0  0  0  0
   11.0482  -14.3852   22.1542 O   0  0  0  0  0  0  0  0  0  0  0  0
   12.3939  -16.0378   21.2981 N   0  0  0  0  0  0  0  0  0  0  0  0
   12.9652  -16.4212   22.5898 C   0  0  1  0  0  0  0  0  0  0  0  0
   13.9076  -15.3849   23.0919 C   0  0  0  0  0  0  0  0  0  0  0  0
   15.0838  -15.2794   22.1968 C   0  0  0  0  0  0  0  0  0  0  0  0
   15.1144  -15.5027   20.8195 C   0  0  0  0  0  0  0  0  0  0  0  0
   16.3601  -15.3069   20.3721 N   0  0  0  0  0  0  0  0  0  0  0  0
   17.1133  -14.9683   21.4209 C   0  0  0  0  0  0  0  0  0  0  0  0
   16.3495  -14.9498   22.5257 N   0  0  0  0  0  0  0  0  0  0  0  0
   11.8503  -16.6064   23.5253 C   0  0  0  0  0  0  0  0  0  0  0  0
   10.6574  -16.4112   23.1803 O   0  0  0  0  0  0  0  0  0  0  0  0
   12.0665  -17.0063   24.8255 O   0  0  0  0  0  0  0  0  0  0  0  0
  2  1  1  6
  3  2  1  0
  4  5  1  0
  4  3  1  0
  5  6  2  0
  7  2  1  0
  8  7  2  0
  9  5  1  0
 10  7  1  0
 11 10  1  0
 12 13  1  0
 11 12  1  1
 13 14  2  0
 15 14  1  0
 16 15  1  0
 17 16  2  0
 17 13  1  0
 18 11  1  0
 18 19  2  0
 20 18  1  0
 21 20  1  0
 21 22  1  1
 23 22  1  0
 24 23  2  0
 25 26  1  0
 25 24  1  0
 26 27  2  0
 27 23  1  0
 28 21  1  0
 29 28  2  0
 30 28  1  0
M  END
$$$$
