EHH.pdb
     RDKit          3D

 30 31  0  0  1  0  0  0  0  0999 V2000
   13.1361  -14.5592   17.1500 N   0  0  0  0  0  0  0  0  0  0  0  0
   13.2796  -15.2773   18.4236 C   0  0  1  0  0  0  0  0  0  0  0  0
   14.7076  -15.0084   18.9003 C   0  0  0  0  0  0  0  0  0  0  0  0
   15.5382  -16.1899   18.3880 C   0  0  0  0  0  0  0  0  0  0  0  0
   16.9695  -16.0369   18.7141 C   0  0  0  0  0  0  0  0  0  0  0  0
   17.8303  -16.4652   17.9002 O   0  0  0  0  0  0  0  0  0  0  0  0
   12.3634  -14.7203   19.4300 C   0  0  0  0  0  0  0  0  0  0  0  0
   12.3792  -13.5000   19.6981 O   0  0  0  0  0  0  0  0  0  0  0  0
   17.3506  -15.4356   19.8889 O   0  0  0  0  0  0  0  0  0  0  0  0
   11.4133  -15.5040   20.1582 N   0  0  0  0  0  0  0  0  0  0  0  0
   10.5103  -14.9539   21.1018 C   0  0  1  0  0  0  0  0  0  0  0  0
    9.0822  -14.8735   20.7632 C   0  0  0  0  0  0  0  0  0  0  0  0
    8.7449  -14.3613   19.4177 C   0  0  0  0  0  0  0  0  0  0  0  0
    8.8467  -13.1104   18.8792 C   0  0  0  0  0  0  0  0  0  0  0  0
    8.4509  -13.1008   17.5913 N   0  0  0  0  0  0  0  0  0  0  0  0
    8.0936  -14.3523   17.3012 C   0  0  0  0  0  0  0  0  0  0  0  0
    8.2618  -15.1273   18.3832 N   0  0  0  0  0  0  0  0  0  0  0  0
   10.6508  -15.5955   22.4565 C   0  0  0  0  0  0  0  0  0  0  0  0
   11.1277  -16.7417   22.5401 O   0  0  0  0  0  0  0  0  0  0  0  0
   10.2502  -14.9129   23.6170 N   0  0  0  0  0  0  0  0  0  0  0  0
    9.5621  -15.5685   24.7299 C   0  0  1  0  0  0  0  0  0  0  0  0
    8.0939  -15.6295   24.4958 C   0  0  0  0  0  0  0  0  0  0  0  0
    7.4551  -14.3508   24.8864 C   0  0  0  0  0  0  0  0  0  0  0  0
    8.0860  -13.2223   25.4118 C   0  0  0  0  0  0  0  0  0  0  0  0
    7.1700  -12.2728   25.6345 N   0  0  0  0  0  0  0  0  0  0  0  0
    5.9852  -12.7659   25.2672 C   0  0  0  0  0  0  0  0  0  0  0  0
    6.1497  -14.0199   24.8147 N   0  0  0  0  0  0  0  0  0  0  0  0
   10.1239  -16.9176   24.8597 C   0  0  0  0  0  0  0  0  0  0  0  0
   11.1404  -17.1464   25.5631 O   0  0  0  0  0  0  0  0  0  0  0  0
    9.5559  -17.9941   24.2150 O   0  0  0  0  0  0  0  0  0  0  0  0
  2  1  1  6
  3  2  1  0
  4  5  1  0
  4  3  1  0
  5  6  2  0
  7  2  1  0
  8  7  2  0
  9  5  1  0
 10  7  1  0
 11 10  1  0
 12 13  1  0
 11 12  1  6
 13 14  2  0
 15 14  1  0
 16 15  1  0
 17 16  2  0
 17 13  1  0
 18 11  1  0
 18 19  2  0
 20 18  1  0
 21 20  1  0
 21 22  1  6
 23 22  1  0
 24 23  2  0
 25 26  1  0
 25 24  1  0
 26 27  2  0
 27 23  1  0
 28 21  1  0
 29 28  2  0
 30 28  1  0
M  END
$$$$
