FIM.pdb
     RDKit          3D

 28 28  0  0  1  0  0  0  0  0999 V2000
   27.2597  -17.6684  -16.6593 N   0  0  0  0  0  0  0  0  0  0  0  0
   26.6207  -17.4723  -15.3864 C   0  0  1  0  0  0  0  0  0  0  0  0
   25.4612  -16.5014  -15.6093 C   0  0  0  0  0  0  0  0  0  0  0  0
   25.9577  -15.1602  -15.9866 C   0  0  0  0  0  0  0  0  0  0  0  0
   26.6653  -14.4249  -15.0628 C   0  0  0  0  0  0  0  0  0  0  0  0
   27.1571  -13.1664  -15.3537 C   0  0  0  0  0  0  0  0  0  0  0  0
   26.9291  -12.6377  -16.6058 C   0  0  0  0  0  0  0  0  0  0  0  0
   26.2211  -13.3825  -17.5191 C   0  0  0  0  0  0  0  0  0  0  0  0
   25.7251  -14.6460  -17.2333 C   0  0  0  0  0  0  0  0  0  0  0  0
   26.0292  -18.7497  -14.9139 C   0  0  0  0  0  0  0  0  0  0  0  0
   25.5759  -19.6026  -15.7246 O   0  0  0  0  0  0  0  0  0  0  0  0
   28.1396  -21.3323  -10.7112 C   0  0  0  0  0  0  0  0  0  0  0  0
   27.4328  -21.0436  -12.0064 C   0  0  0  0  0  0  0  0  0  0  0  0
   25.9494  -20.8034  -11.7974 C   0  0  2  0  0  0  0  0  0  0  0  0
   25.3049  -22.1374  -11.4843 C   0  0  0  0  0  0  0  0  0  0  0  0
   25.2919  -20.3018  -13.0711 C   0  0  2  0  0  0  0  0  0  0  0  0
   25.9325  -19.0975  -13.5321 N   0  0  0  0  0  0  0  0  0  0  0  0
   23.8358  -20.1659  -12.9346 C   0  0  0  0  0  0  0  0  0  0  0  0
   23.3558  -19.0699  -12.5431 O   0  0  0  0  0  0  0  0  0  0  0  0
   19.8344  -17.1237  -15.9188 C   0  0  0  0  0  0  0  0  0  0  0  0
   19.4821  -18.9129  -16.0929 S   0  0  0  0  0  0  0  0  0  0  0  0
   19.6682  -19.6536  -14.4196 C   0  0  0  0  0  0  0  0  0  0  0  0
   21.1438  -19.9282  -14.2627 C   0  0  0  0  0  0  0  0  0  0  0  0
   21.4617  -20.9759  -13.2442 C   0  0  2  0  0  0  0  0  0  0  0  0
   22.9015  -21.1973  -13.2162 N   0  0  0  0  0  0  0  0  0  0  0  0
   20.7088  -22.2187  -13.3580 C   0  0  0  0  0  0  0  0  0  0  0  0
   19.6503  -22.3816  -12.7116 O   0  0  0  0  0  0  0  0  0  0  0  0
   21.1328  -23.2545  -14.1771 O   0  0  0  0  0  0  0  0  0  0  0  0
  2  1  1  6
  2 10  1  0
  2  3  1  0
  3  4  1  0
  4  9  2  0
  5  4  1  0
  5  6  2  0
  6  7  1  0
  7  8  2  0
  9  8  1  0
 10 11  2  0
 10 17  1  0
 13 12  1  0
 14 15  1  6
 14 13  1  0
 16 14  1  0
 16 17  1  1
 18 16  1  0
 18 19  2  0
 20 21  1  0
 21 22  1  0
 22 23  1  0
 24 23  1  6
 24 25  1  0
 25 18  1  0
 26 24  1  0
 26 28  1  0
 27 26  2  0
M  END
$$$$
