FIM.pdb
     RDKit          3D

 28 28  0  0  1  0  0  0  0  0999 V2000
   18.9373   -9.4679  -18.2403 N   0  0  0  0  0  0  0  0  0  0  0  0
   19.2460   -8.2474  -17.5460 C   0  0  1  0  0  0  0  0  0  0  0  0
   18.0742   -7.2919  -17.7718 C   0  0  0  0  0  0  0  0  0  0  0  0
   18.0416   -6.8142  -19.1713 C   0  0  0  0  0  0  0  0  0  0  0  0
   18.9728   -5.8880  -19.5834 C   0  0  0  0  0  0  0  0  0  0  0  0
   18.9966   -5.4031  -20.8775 C   0  0  0  0  0  0  0  0  0  0  0  0
   18.0586   -5.8635  -21.7761 C   0  0  0  0  0  0  0  0  0  0  0  0
   17.1343   -6.7885  -21.3517 C   0  0  0  0  0  0  0  0  0  0  0  0
   17.1054   -7.2791  -20.0545 C   0  0  0  0  0  0  0  0  0  0  0  0
   19.3211   -8.5004  -16.0848 C   0  0  0  0  0  0  0  0  0  0  0  0
   18.6030   -9.3778  -15.5328 O   0  0  0  0  0  0  0  0  0  0  0  0
   23.5735   -9.9956  -13.7839 C   0  0  0  0  0  0  0  0  0  0  0  0
   22.1856   -9.5897  -14.1957 C   0  0  0  0  0  0  0  0  0  0  0  0
   21.6843   -8.4034  -13.3938 C   0  0  2  0  0  0  0  0  0  0  0  0
   21.6124   -8.8247  -11.9412 C   0  0  0  0  0  0  0  0  0  0  0  0
   20.2694   -8.0284  -13.7986 C   0  0  2  0  0  0  0  0  0  0  0  0
   20.1960   -7.7807  -15.2151 N   0  0  0  0  0  0  0  0  0  0  0  0
   19.7279   -6.9278  -12.9906 C   0  0  0  0  0  0  0  0  0  0  0  0
   19.8588   -5.7443  -13.3996 O   0  0  0  0  0  0  0  0  0  0  0  0
   13.8180   -4.2201  -12.2303 C   0  0  0  0  0  0  0  0  0  0  0  0
   15.4841   -3.6557  -12.7414 S   0  0  0  0  0  0  0  0  0  0  0  0
   16.6513   -4.1937  -11.4256 C   0  0  0  0  0  0  0  0  0  0  0  0
   17.4638   -5.3076  -12.0389 C   0  0  0  0  0  0  0  0  0  0  0  0
   18.3665   -6.0046  -11.0717 C   0  0  2  0  0  0  0  0  0  0  0  0
   19.0511   -7.0949  -11.7538 N   0  0  0  0  0  0  0  0  0  0  0  0
   17.7484   -6.4295   -9.8220 C   0  0  0  0  0  0  0  0  0  0  0  0
   17.3500   -5.5840   -8.9906 O   0  0  0  0  0  0  0  0  0  0  0  0
   17.5811   -7.7710   -9.5118 O   0  0  0  0  0  0  0  0  0  0  0  0
  2  1  1  6
  2 10  1  0
  2  3  1  0
  3  4  1  0
  4  9  2  0
  5  4  1  0
  5  6  2  0
  6  7  1  0
  7  8  2  0
  9  8  1  0
 10 11  2  0
 10 17  1  0
 13 12  1  0
 14 15  1  1
 14 13  1  0
 16 14  1  0
 16 17  1  6
 18 16  1  0
 18 19  2  0
 20 21  1  0
 21 22  1  0
 22 23  1  0
 24 23  1  6
 24 25  1  0
 25 18  1  0
 26 24  1  0
 26 28  1  0
 27 26  2  0
M  END
$$$$
