FIM.pdb
     RDKit          3D

 28 28  0  0  1  0  0  0  0  0999 V2000
   25.6684  -19.7160  -17.7688 N   0  0  0  0  0  0  0  0  0  0  0  0
   25.1763  -19.0716  -16.5815 C   0  0  1  0  0  0  0  0  0  0  0  0
   23.9383  -18.2703  -16.9840 C   0  0  0  0  0  0  0  0  0  0  0  0
   24.3020  -17.1400  -17.8659 C   0  0  0  0  0  0  0  0  0  0  0  0
   23.9418  -17.1852  -19.1937 C   0  0  0  0  0  0  0  0  0  0  0  0
   24.2506  -16.1611  -20.0690 C   0  0  0  0  0  0  0  0  0  0  0  0
   24.9390  -15.0661  -19.5931 C   0  0  0  0  0  0  0  0  0  0  0  0
   25.2925  -15.0334  -18.2649 C   0  0  0  0  0  0  0  0  0  0  0  0
   24.9855  -16.0579  -17.3816 C   0  0  0  0  0  0  0  0  0  0  0  0
   24.7295  -20.0917  -15.5992 C   0  0  0  0  0  0  0  0  0  0  0  0
   24.3123  -21.2222  -15.9707 O   0  0  0  0  0  0  0  0  0  0  0  0
   27.2241  -20.9420  -10.8518 C   0  0  0  0  0  0  0  0  0  0  0  0
   26.4275  -21.1418  -12.1111 C   0  0  0  0  0  0  0  0  0  0  0  0
   24.9757  -20.7406  -11.9290 C   0  0  2  0  0  0  0  0  0  0  0  0
   24.3298  -21.7503  -11.0038 C   0  0  0  0  0  0  0  0  0  0  0  0
   24.2174  -20.8209  -13.2424 C   0  0  2  0  0  0  0  0  0  0  0  0
   24.7396  -19.8693  -14.1885 N   0  0  0  0  0  0  0  0  0  0  0  0
   22.7640  -20.7148  -13.0583 C   0  0  0  0  0  0  0  0  0  0  0  0
   22.2744  -19.6271  -12.6555 O   0  0  0  0  0  0  0  0  0  0  0  0
   18.7517  -23.7364  -16.4432 C   0  0  0  0  0  0  0  0  0  0  0  0
   17.5030  -23.6347  -15.1068 S   0  0  0  0  0  0  0  0  0  0  0  0
   18.1695  -22.4709  -13.8480 C   0  0  0  0  0  0  0  0  0  0  0  0
   19.6656  -22.4776  -14.0455 C   0  0  0  0  0  0  0  0  0  0  0  0
   20.4126  -21.6416  -13.0561 C   0  0  2  0  0  0  0  0  0  0  0  0
   21.8428  -21.7667  -13.3043 N   0  0  0  0  0  0  0  0  0  0  0  0
   20.0688  -21.8582  -11.6563 C   0  0  0  0  0  0  0  0  0  0  0  0
   20.6567  -22.7357  -10.9862 O   0  0  0  0  0  0  0  0  0  0  0  0
   19.0887  -21.1086  -11.0230 O   0  0  0  0  0  0  0  0  0  0  0  0
  2  1  1  6
  2 10  1  0
  2  3  1  0
  3  4  1  0
  4  9  2  0
  5  4  1  0
  5  6  2  0
  6  7  1  0
  7  8  2  0
  9  8  1  0
 10 11  2  0
 10 17  1  0
 13 12  1  0
 14 15  1  1
 14 13  1  0
 16 14  1  0
 16 17  1  6
 18 16  1  0
 18 19  2  0
 20 21  1  0
 21 22  1  0
 22 23  1  0
 24 23  1  6
 24 25  1  0
 25 18  1  0
 26 24  1  0
 26 28  1  0
 27 26  2  0
M  END
$$$$
