FIM.pdb
     RDKit          3D

 28 28  0  0  1  0  0  0  0  0999 V2000
   28.0935  -21.9521  -15.7609 N   0  0  0  0  0  0  0  0  0  0  0  0
   27.3387  -20.8364  -15.2584 C   0  0  1  0  0  0  0  0  0  0  0  0
   26.6531  -20.1800  -16.4567 C   0  0  0  0  0  0  0  0  0  0  0  0
   27.6140  -19.3752  -17.2420 C   0  0  0  0  0  0  0  0  0  0  0  0
   28.0232  -19.8361  -18.4729 C   0  0  0  0  0  0  0  0  0  0  0  0
   28.9176  -19.1309  -19.2558 C   0  0  0  0  0  0  0  0  0  0  0  0
   29.4106  -17.9330  -18.7854 C   0  0  0  0  0  0  0  0  0  0  0  0
   28.9938  -17.4840  -17.5547 C   0  0  0  0  0  0  0  0  0  0  0  0
   28.0963  -18.1870  -16.7643 C   0  0  0  0  0  0  0  0  0  0  0  0
   26.2624  -21.3177  -14.3557 C   0  0  0  0  0  0  0  0  0  0  0  0
   25.7690  -22.4716  -14.4797 O   0  0  0  0  0  0  0  0  0  0  0  0
   26.6163  -20.6057   -9.0913 C   0  0  0  0  0  0  0  0  0  0  0  0
   26.2500  -21.1651  -10.4379 C   0  0  0  0  0  0  0  0  0  0  0  0
   24.9813  -20.5365  -10.9829 C   0  0  2  0  0  0  0  0  0  0  0  0
   23.8232  -21.0275  -10.1398 C   0  0  0  0  0  0  0  0  0  0  0  0
   24.7042  -21.0053  -12.4006 C   0  0  2  0  0  0  0  0  0  0  0  0
   25.7183  -20.5226  -13.3016 N   0  0  0  0  0  0  0  0  0  0  0  0
   23.3400  -20.6847  -12.8408 C   0  0  0  0  0  0  0  0  0  0  0  0
   22.9948  -19.4780  -12.9394 O   0  0  0  0  0  0  0  0  0  0  0  0
   20.2199  -23.5687  -17.3987 C   0  0  0  0  0  0  0  0  0  0  0  0
   18.7823  -23.4510  -16.2695 S   0  0  0  0  0  0  0  0  0  0  0  0
   19.1340  -22.0686  -15.1082 C   0  0  0  0  0  0  0  0  0  0  0  0
   20.5119  -22.3452  -14.5584 C   0  0  0  0  0  0  0  0  0  0  0  0
   21.0147  -21.2933  -13.6221 C   0  0  2  0  0  0  0  0  0  0  0  0
   22.3538  -21.6506  -13.1728 N   0  0  0  0  0  0  0  0  0  0  0  0
   20.1280  -20.9534  -12.5164 C   0  0  0  0  0  0  0  0  0  0  0  0
   20.2378  -21.5323  -11.4129 O   0  0  0  0  0  0  0  0  0  0  0  0
   19.1412  -19.9873  -12.6450 O   0  0  0  0  0  0  0  0  0  0  0  0
  2  1  1  6
  2 10  1  0
  2  3  1  0
  3  4  1  0
  4  9  2  0
  5  4  1  0
  5  6  2  0
  6  7  1  0
  7  8  2  0
  9  8  1  0
 10 11  2  0
 10 17  1  0
 13 12  1  0
 14 15  1  1
 14 13  1  0
 16 14  1  0
 16 17  1  6
 18 16  1  0
 18 19  2  0
 20 21  1  0
 21 22  1  0
 22 23  1  0
 24 23  1  1
 24 25  1  0
 25 18  1  0
 26 24  1  0
 26 28  1  0
 27 26  2  0
M  END
$$$$
