FIM.pdb
     RDKit          3D

 28 28  0  0  1  0  0  0  0  0999 V2000
   26.4713  -22.3977  -11.9317 N   0  0  0  0  0  0  0  0  0  0  0  0
   25.5829  -21.5578  -11.1750 C   0  0  1  0  0  0  0  0  0  0  0  0
   26.2925  -20.2192  -10.9718 C   0  0  0  0  0  0  0  0  0  0  0  0
   27.2702  -20.3000   -9.8648 C   0  0  0  0  0  0  0  0  0  0  0  0
   28.5807  -20.6083  -10.1515 C   0  0  0  0  0  0  0  0  0  0  0  0
   29.5425  -20.6978   -9.1629 C   0  0  0  0  0  0  0  0  0  0  0  0
   29.1727  -20.4712   -7.8547 C   0  0  0  0  0  0  0  0  0  0  0  0
   27.8607  -20.1641   -7.5821 C   0  0  0  0  0  0  0  0  0  0  0  0
   26.8910  -20.0727   -8.5698 C   0  0  0  0  0  0  0  0  0  0  0  0
   24.3547  -21.2801  -11.9620 C   0  0  0  0  0  0  0  0  0  0  0  0
   24.3116  -21.4854  -13.2055 O   0  0  0  0  0  0  0  0  0  0  0  0
   19.7058  -22.2294   -9.3367 C   0  0  0  0  0  0  0  0  0  0  0  0
   20.8088  -22.1253  -10.3531 C   0  0  0  0  0  0  0  0  0  0  0  0
   20.7359  -20.8258  -11.1326 C   0  0  2  0  0  0  0  0  0  0  0  0
   19.4889  -20.8708  -11.9904 C   0  0  0  0  0  0  0  0  0  0  0  0
   21.9070  -20.6964  -12.0907 C   0  0  2  0  0  0  0  0  0  0  0  0
   23.1559  -20.7692  -11.3777 N   0  0  0  0  0  0  0  0  0  0  0  0
   21.8003  -19.5099  -12.9499 C   0  0  0  0  0  0  0  0  0  0  0  0
   22.4767  -18.4859  -12.6686 O   0  0  0  0  0  0  0  0  0  0  0  0
   25.7105  -19.2180  -15.5821 C   0  0  0  0  0  0  0  0  0  0  0  0
   24.9320  -19.0342  -17.2300 S   0  0  0  0  0  0  0  0  0  0  0  0
   23.2377  -18.3780  -16.9441 C   0  0  0  0  0  0  0  0  0  0  0  0
   22.7367  -19.0819  -15.7069 C   0  0  0  0  0  0  0  0  0  0  0  0
   21.3569  -18.6785  -15.2951 C   0  0  2  0  0  0  0  0  0  0  0  0
   20.9751  -19.4221  -14.1018 N   0  0  0  0  0  0  0  0  0  0  0  0
   20.3413  -18.7395  -16.3388 C   0  0  0  0  0  0  0  0  0  0  0  0
   19.7136  -19.8001  -16.5531 O   0  0  0  0  0  0  0  0  0  0  0  0
   20.0368  -17.6373  -17.1236 O   0  0  0  0  0  0  0  0  0  0  0  0
  2  1  1  6
  2 10  1  0
  2  3  1  0
  3  4  1  0
  4  9  2  0
  5  4  1  0
  5  6  2  0
  6  7  1  0
  7  8  2  0
  9  8  1  0
 10 11  2  0
 10 17  1  0
 13 12  1  0
 14 15  1  6
 14 13  1  0
 16 14  1  0
 16 17  1  1
 18 16  1  0
 18 19  2  0
 20 21  1  0
 21 22  1  0
 22 23  1  0
 24 23  1  6
 24 25  1  0
 25 18  1  0
 26 24  1  0
 26 28  1  0
 27 26  2  0
M  END
$$$$
