FIM.pdb
     RDKit          3D

 28 28  0  0  1  0  0  0  0  0999 V2000
   17.7035  -11.6880  -17.8428 N   0  0  0  0  0  0  0  0  0  0  0  0
   18.6138  -10.5995  -18.0742 C   0  0  1  0  0  0  0  0  0  0  0  0
   17.8093   -9.4675  -18.7131 C   0  0  0  0  0  0  0  0  0  0  0  0
   17.4567   -9.7919  -20.1125 C   0  0  0  0  0  0  0  0  0  0  0  0
   16.1395   -9.7159  -20.5049 C   0  0  0  0  0  0  0  0  0  0  0  0
   15.7453  -10.0048  -21.7977 C   0  0  0  0  0  0  0  0  0  0  0  0
   16.7028  -10.3793  -22.7155 C   0  0  0  0  0  0  0  0  0  0  0  0
   18.0146  -10.4511  -22.3107 C   0  0  0  0  0  0  0  0  0  0  0  0
   18.4165  -10.1623  -21.0148 C   0  0  0  0  0  0  0  0  0  0  0  0
   19.1291  -10.0856  -16.7799 C   0  0  0  0  0  0  0  0  0  0  0  0
   18.5354  -10.3282  -15.6942 O   0  0  0  0  0  0  0  0  0  0  0  0
   23.6755  -10.4012  -13.2373 C   0  0  0  0  0  0  0  0  0  0  0  0
   22.5877   -9.4559  -13.6659 C   0  0  0  0  0  0  0  0  0  0  0  0
   21.9758   -9.8653  -14.9924 C   0  0  2  0  0  0  0  0  0  0  0  0
   23.0553   -9.7656  -16.0496 C   0  0  0  0  0  0  0  0  0  0  0  0
   20.8805   -8.9000  -15.4104 C   0  0  2  0  0  0  0  0  0  0  0  0
   20.3127   -9.2934  -16.6737 N   0  0  0  0  0  0  0  0  0  0  0  0
   21.3274   -7.5009  -15.3883 C   0  0  0  0  0  0  0  0  0  0  0  0
   22.2291   -7.1322  -16.1857 O   0  0  0  0  0  0  0  0  0  0  0  0
   18.8147   -0.1811  -14.7351 C   0  0  0  0  0  0  0  0  0  0  0  0
   18.5456   -1.9850  -14.5645 S   0  0  0  0  0  0  0  0  0  0  0  0
   20.2031   -2.7775  -14.6537 C   0  0  0  0  0  0  0  0  0  0  0  0
   19.9407   -4.2634  -14.6314 C   0  0  0  0  0  0  0  0  0  0  0  0
   21.1807   -5.0990  -14.6154 C   0  0  2  0  0  0  0  0  0  0  0  0
   20.8111   -6.5050  -14.5180 N   0  0  0  0  0  0  0  0  0  0  0  0
   22.1883   -4.7182  -13.6336 C   0  0  0  0  0  0  0  0  0  0  0  0
   22.2210   -5.2684  -12.5106 O   0  0  0  0  0  0  0  0  0  0  0  0
   23.1370   -3.7434  -13.9045 O   0  0  0  0  0  0  0  0  0  0  0  0
  2  1  1  1
  2 10  1  0
  2  3  1  0
  3  4  1  0
  4  9  2  0
  5  4  1  0
  5  6  2  0
  6  7  1  0
  7  8  2  0
  9  8  1  0
 10 11  2  0
 10 17  1  0
 13 12  1  0
 14 15  1  6
 14 13  1  0
 16 14  1  0
 16 17  1  6
 18 16  1  0
 18 19  2  0
 20 21  1  0
 21 22  1  0
 22 23  1  0
 24 23  1  1
 24 25  1  0
 25 18  1  0
 26 24  1  0
 26 28  1  0
 27 26  2  0
M  END
$$$$
