FIM.pdb
     RDKit          3D

 28 28  0  0  1  0  0  0  0  0999 V2000
   19.6044  -14.0042  -21.2734 N   0  0  0  0  0  0  0  0  0  0  0  0
   20.0371  -13.3309  -20.0790 C   0  0  1  0  0  0  0  0  0  0  0  0
   21.3199  -12.5758  -20.4271 C   0  0  0  0  0  0  0  0  0  0  0  0
   22.4306  -13.5142  -20.6981 C   0  0  0  0  0  0  0  0  0  0  0  0
   23.1167  -14.0621  -19.6380 C   0  0  0  0  0  0  0  0  0  0  0  0
   24.1628  -14.9459  -19.8242 C   0  0  0  0  0  0  0  0  0  0  0  0
   24.5250  -15.2843  -21.1102 C   0  0  0  0  0  0  0  0  0  0  0  0
   23.8316  -14.7301  -22.1599 C   0  0  0  0  0  0  0  0  0  0  0  0
   22.7807  -13.8427  -21.9796 C   0  0  0  0  0  0  0  0  0  0  0  0
   19.0326  -12.3134  -19.6784 C   0  0  0  0  0  0  0  0  0  0  0  0
   18.3328  -11.7089  -20.5357 O   0  0  0  0  0  0  0  0  0  0  0  0
   15.6891  -13.7065  -16.4366 C   0  0  0  0  0  0  0  0  0  0  0  0
   15.9993  -12.6433  -17.4533 C   0  0  0  0  0  0  0  0  0  0  0  0
   16.8752  -11.5482  -16.8742 C   0  0  2  0  0  0  0  0  0  0  0  0
   15.9711  -10.4115  -16.4460 C   0  0  0  0  0  0  0  0  0  0  0  0
   17.8061  -10.9772  -17.9295 C   0  0  2  0  0  0  0  0  0  0  0  0
   18.7915  -11.9525  -18.3178 N   0  0  0  0  0  0  0  0  0  0  0  0
   18.3924   -9.6928  -17.5243 C   0  0  0  0  0  0  0  0  0  0  0  0
   19.1885   -9.6621  -16.5495 O   0  0  0  0  0  0  0  0  0  0  0  0
   20.1516   -4.3519  -21.1592 C   0  0  0  0  0  0  0  0  0  0  0  0
   18.9084   -3.7810  -19.9410 S   0  0  0  0  0  0  0  0  0  0  0  0
   19.1277   -4.8165  -18.4367 C   0  0  0  0  0  0  0  0  0  0  0  0
   18.5761   -6.1738  -18.7983 C   0  0  0  0  0  0  0  0  0  0  0  0
   18.7069   -7.1919  -17.7109 C   0  0  2  0  0  0  0  0  0  0  0  0
   18.1274   -8.4511  -18.1597 N   0  0  0  0  0  0  0  0  0  0  0  0
   18.2130   -6.7865  -16.4010 C   0  0  0  0  0  0  0  0  0  0  0  0
   17.0099   -6.9469  -16.0982 O   0  0  0  0  0  0  0  0  0  0  0  0
   19.0483   -6.2145  -15.4530 O   0  0  0  0  0  0  0  0  0  0  0  0
  2  1  1  6
  2 10  1  0
  2  3  1  0
  3  4  1  0
  4  9  2  0
  5  4  1  0
  5  6  2  0
  6  7  1  0
  7  8  2  0
  9  8  1  0
 10 11  2  0
 10 17  1  0
 13 12  1  0
 14 15  1  6
 14 13  1  0
 16 14  1  0
 16 17  1  1
 18 16  1  0
 18 19  2  0
 20 21  1  0
 21 22  1  0
 22 23  1  0
 24 23  1  6
 24 25  1  0
 25 18  1  0
 26 24  1  0
 26 28  1  0
 27 26  2  0
M  END
$$$$
