FIM.pdb
     RDKit          3D

 28 28  0  0  1  0  0  0  0  0999 V2000
   22.3812  -20.0803  -16.0208 N   0  0  0  0  0  0  0  0  0  0  0  0
   21.3329  -19.4874  -15.2354 C   0  0  1  0  0  0  0  0  0  0  0  0
   20.1685  -19.1988  -16.1829 C   0  0  0  0  0  0  0  0  0  0  0  0
   20.5119  -18.1163  -17.1306 C   0  0  0  0  0  0  0  0  0  0  0  0
   20.4496  -18.3667  -18.4827 C   0  0  0  0  0  0  0  0  0  0  0  0
   20.7566  -17.3978  -19.4192 C   0  0  0  0  0  0  0  0  0  0  0  0
   21.1354  -16.1473  -18.9808 C   0  0  0  0  0  0  0  0  0  0  0  0
   21.1933  -15.9103  -17.6279 C   0  0  0  0  0  0  0  0  0  0  0  0
   20.8864  -16.8785  -16.6831 C   0  0  0  0  0  0  0  0  0  0  0  0
   20.8396  -20.4624  -14.2299 C   0  0  0  0  0  0  0  0  0  0  0  0
   20.9713  -21.7048  -14.4006 O   0  0  0  0  0  0  0  0  0  0  0  0
   21.6168  -19.7597   -8.9348 C   0  0  0  0  0  0  0  0  0  0  0  0
   21.3994  -20.2789  -10.3288 C   0  0  0  0  0  0  0  0  0  0  0  0
   19.9261  -20.4730  -10.6345 C   0  0  2  0  0  0  0  0  0  0  0  0
   19.3939  -21.5308   -9.6908 C   0  0  0  0  0  0  0  0  0  0  0  0
   19.7258  -21.0157  -12.0386 C   0  0  2  0  0  0  0  0  0  0  0  0
   20.1918  -20.0698  -13.0191 N   0  0  0  0  0  0  0  0  0  0  0  0
   18.3467  -21.4621  -12.2759 C   0  0  0  0  0  0  0  0  0  0  0  0
   17.4484  -20.6019  -12.4712 O   0  0  0  0  0  0  0  0  0  0  0  0
   16.9481  -27.3873  -13.8052 C   0  0  0  0  0  0  0  0  0  0  0  0
   15.5270  -26.5974  -14.6490 S   0  0  0  0  0  0  0  0  0  0  0  0
   15.2310  -24.9942  -13.7974 C   0  0  0  0  0  0  0  0  0  0  0  0
   16.5841  -24.5452  -13.3027 C   0  0  0  0  0  0  0  0  0  0  0  0
   16.5661  -23.2268  -12.5972 C   0  0  2  0  0  0  0  0  0  0  0  0
   17.9341  -22.8203  -12.3039 N   0  0  0  0  0  0  0  0  0  0  0  0
   15.6978  -23.1453  -11.4294 C   0  0  0  0  0  0  0  0  0  0  0  0
   16.1227  -23.4685  -10.2981 O   0  0  0  0  0  0  0  0  0  0  0  0
   14.3840  -22.7118  -11.5278 O   0  0  0  0  0  0  0  0  0  0  0  0
  2  1  1  6
  2 10  1  0
  2  3  1  0
  3  4  1  0
  4  9  2  0
  5  4  1  0
  5  6  2  0
  6  7  1  0
  7  8  2  0
  9  8  1  0
 10 11  2  0
 10 17  1  0
 13 12  1  0
 14 15  1  1
 14 13  1  0
 16 14  1  0
 16 17  1  6
 18 16  1  0
 18 19  2  0
 20 21  1  0
 21 22  1  0
 22 23  1  0
 24 23  1  1
 24 25  1  0
 25 18  1  0
 26 24  1  0
 26 28  1  0
 27 26  2  0
M  END
$$$$
