FIM.pdb
     RDKit          3D

 28 28  0  0  1  0  0  0  0  0999 V2000
   21.9377  -19.9176  -17.4498 N   0  0  0  0  0  0  0  0  0  0  0  0
   22.6827  -19.0067  -16.6237 C   0  0  1  0  0  0  0  0  0  0  0  0
   21.6797  -18.3070  -15.7066 C   0  0  0  0  0  0  0  0  0  0  0  0
   20.8324  -17.3642  -16.4687 C   0  0  0  0  0  0  0  0  0  0  0  0
   19.4916  -17.6390  -16.6155 C   0  0  0  0  0  0  0  0  0  0  0  0
   18.6465  -16.7979  -17.3146 C   0  0  0  0  0  0  0  0  0  0  0  0
   19.1669  -15.6532  -17.8787 C   0  0  0  0  0  0  0  0  0  0  0  0
   20.5075  -15.3905  -17.7245 C   0  0  0  0  0  0  0  0  0  0  0  0
   21.3606  -16.2305  -17.0240 C   0  0  0  0  0  0  0  0  0  0  0  0
   23.6140  -19.7622  -15.7481 C   0  0  0  0  0  0  0  0  0  0  0  0
   23.3613  -20.9433  -15.3854 O   0  0  0  0  0  0  0  0  0  0  0  0
   28.6407  -20.1619  -16.9884 C   0  0  0  0  0  0  0  0  0  0  0  0
   27.2603  -20.3340  -16.4179 C   0  0  0  0  0  0  0  0  0  0  0  0
   27.1763  -19.8382  -14.9866 C   0  0  2  0  0  0  0  0  0  0  0  0
   28.0378  -20.7443  -14.1323 C   0  0  0  0  0  0  0  0  0  0  0  0
   25.7623  -19.9627  -14.4469 C   0  0  2  0  0  0  0  0  0  0  0  0
   24.8406  -19.2153  -15.2623 N   0  0  0  0  0  0  0  0  0  0  0  0
   25.6750  -19.6266  -13.0197 C   0  0  0  0  0  0  0  0  0  0  0  0
   25.4767  -18.4301  -12.6821 O   0  0  0  0  0  0  0  0  0  0  0  0
   20.7529  -21.0817  -11.1528 C   0  0  0  0  0  0  0  0  0  0  0  0
   21.1897  -19.6533  -10.0924 S   0  0  0  0  0  0  0  0  0  0  0  0
   22.9414  -19.8889   -9.5832 C   0  0  0  0  0  0  0  0  0  0  0  0
   23.7113  -20.0820  -10.8666 C   0  0  0  0  0  0  0  0  0  0  0  0
   25.1611  -20.3880  -10.6650 C   0  0  2  0  0  0  0  0  0  0  0  0
   25.7992  -20.5663  -11.9626 N   0  0  0  0  0  0  0  0  0  0  0  0
   25.4560  -21.4786   -9.7442 C   0  0  0  0  0  0  0  0  0  0  0  0
   25.2944  -21.3314   -8.5126 O   0  0  0  0  0  0  0  0  0  0  0  0
   25.9213  -22.7054  -10.1938 O   0  0  0  0  0  0  0  0  0  0  0  0
  2  1  1  6
  2 10  1  0
  2  3  1  0
  3  4  1  0
  4  9  2  0
  5  4  1  0
  5  6  2  0
  6  7  1  0
  7  8  2  0
  9  8  1  0
 10 11  2  0
 10 17  1  0
 13 12  1  0
 14 15  1  1
 14 13  1  0
 16 14  1  0
 16 17  1  6
 18 16  1  0
 18 19  2  0
 20 21  1  0
 21 22  1  0
 22 23  1  0
 24 23  1  6
 24 25  1  0
 25 18  1  0
 26 24  1  0
 26 28  1  0
 27 26  2  0
M  END
$$$$
