IRP.pdb
     RDKit          3D

 27 27  0  0  1  0  0  0  0  0999 V2000
   15.5621  -13.7806  -19.5253 C   0  0  0  0  0  0  0  0  0  0  0  0
   16.6911  -14.3999  -18.7283 C   0  0  0  0  0  0  0  0  0  0  0  0
   17.4370  -13.3385  -17.9279 C   0  0  2  0  0  0  0  0  0  0  0  0
   18.0493  -12.3935  -18.9454 C   0  0  0  0  0  0  0  0  0  0  0  0
   18.5082  -14.0711  -17.1453 C   0  0  2  0  0  0  0  0  0  0  0  0
   17.8409  -15.0332  -16.3234 N   0  0  0  0  0  0  0  0  0  0  0  0
   19.3229  -13.1380  -16.3284 C   0  0  0  0  0  0  0  0  0  0  0  0
   18.8362  -12.6226  -15.2718 O   0  0  0  0  0  0  0  0  0  0  0  0
   26.9487  -16.0111  -15.2338 N   0  0  0  0  0  0  0  0  0  0  0  0
   25.6791  -16.6272  -15.4096 C   0  0  0  0  0  0  0  0  0  0  0  0
   25.5643  -17.9070  -15.5068 N   0  0  0  0  0  0  0  0  0  0  0  0
   24.4890  -15.8638  -15.4857 N   0  0  0  0  0  0  0  0  0  0  0  0
   24.5572  -14.3976  -15.6756 C   0  0  0  0  0  0  0  0  0  0  0  0
   23.1383  -13.8387  -15.6603 C   0  0  0  0  0  0  0  0  0  0  0  0
   23.0104  -12.4448  -16.1267 C   0  0  0  0  0  0  0  0  0  0  0  0
   21.5534  -11.9780  -16.0583 C   0  0  2  0  0  0  0  0  0  0  0  0
   20.6415  -12.8272  -16.7334 N   0  0  0  0  0  0  0  0  0  0  0  0
   21.4605  -10.5262  -16.2243 C   0  0  0  0  0  0  0  0  0  0  0  0
   21.7450  -10.1358  -17.4407 O   0  0  0  0  0  0  0  0  0  0  0  0
   24.6270  -18.3279  -15.6479 N   0  0  0  0  0  0  0  0  0  0  0  0
   21.1286   -9.5152  -15.3334 C   0  0  0  0  0  0  0  0  0  0  0  0
   20.4456   -9.6988  -14.0332 C   0  0  0  0  0  0  0  0  0  0  0  0
   21.3822   -8.8909  -13.1172 C   0  0  0  0  0  0  0  0  0  0  0  0
   22.1735   -7.9706  -14.0523 C   0  0  2  0  0  0  0  0  0  0  0  0
   21.2982   -8.0882  -15.3132 C   0  0  0  0  0  0  0  0  0  0  0  0
   21.7973   -7.3562  -16.4231 O   0  0  0  0  0  0  0  0  0  0  0  0
   22.5919   -7.7375  -17.2813 O   0  0  0  0  0  0  0  0  0  0  0  0
  1  2  1  0
  3  2  1  0
  3  4  1  6
  5  6  1  1
  5  3  1  0
  7  5  1  0
  8  7  2  0
  9 10  1  0
 10 12  1  0
 11 10  2  0
 12 13  1  0
 13 14  1  0
 15 14  1  0
 16 15  1  6
 16 17  1  0
 17  7  1  0
 18 16  1  0
 19 18  2  0
 20 18  1  0
 21 20  1  0
 22 23  1  0
 22 21  1  0
 23 24  1  0
 24 20  1  0
 25 27  1  0
 24 25  1  1
 26 25  2  0
M  END
$$$$
