IRP.pdb
     RDKit          3D

 27 27  0  0  1  0  0  0  0  0999 V2000
   26.1454  -20.0469   -7.8942 C   0  0  0  0  0  0  0  0  0  0  0  0
   26.2308  -21.0433   -9.0314 C   0  0  0  0  0  0  0  0  0  0  0  0
   25.5310  -20.5086  -10.2757 C   0  0  2  0  0  0  0  0  0  0  0  0
   24.0496  -20.4768   -9.9474 C   0  0  0  0  0  0  0  0  0  0  0  0
   25.8258  -21.4966  -11.3864 C   0  0  2  0  0  0  0  0  0  0  0  0
   27.2479  -21.6360  -11.4552 N   0  0  0  0  0  0  0  0  0  0  0  0
   25.2660  -21.0434  -12.6838 C   0  0  0  0  0  0  0  0  0  0  0  0
   25.7864  -20.0553  -13.2935 O   0  0  0  0  0  0  0  0  0  0  0  0
   26.4267  -23.6231  -17.4609 N   0  0  0  0  0  0  0  0  0  0  0  0
   26.4774  -24.8969  -16.8307 C   0  0  0  0  0  0  0  0  0  0  0  0
   26.9394  -25.9301  -17.4469 N   0  0  0  0  0  0  0  0  0  0  0  0
   26.0238  -25.0855  -15.5028 N   0  0  0  0  0  0  0  0  0  0  0  0
   25.3967  -23.9659  -14.7654 C   0  0  0  0  0  0  0  0  0  0  0  0
   24.8056  -22.9885  -15.7758 C   0  0  0  0  0  0  0  0  0  0  0  0
   23.4416  -22.5184  -15.4667 C   0  0  0  0  0  0  0  0  0  0  0  0
   23.4751  -21.3865  -14.4356 C   0  0  2  0  0  0  0  0  0  0  0  0
   24.1520  -21.7174  -13.2351 N   0  0  0  0  0  0  0  0  0  0  0  0
   22.1885  -20.6897  -14.3812 C   0  0  0  0  0  0  0  0  0  0  0  0
   21.2796  -21.3547  -13.7144 O   0  0  0  0  0  0  0  0  0  0  0  0
   26.9799  -26.8431  -16.9567 N   0  0  0  0  0  0  0  0  0  0  0  0
   21.7766  -19.4713  -14.9025 C   0  0  0  0  0  0  0  0  0  0  0  0
   22.6473  -18.3022  -15.1590 C   0  0  0  0  0  0  0  0  0  0  0  0
   22.2426  -17.9737  -16.6072 C   0  0  0  0  0  0  0  0  0  0  0  0
   20.8876  -18.6574  -16.8172 C   0  0  2  0  0  0  0  0  0  0  0  0
   20.5203  -18.9341  -15.3481 C   0  0  0  0  0  0  0  0  0  0  0  0
   19.2885  -19.6226  -15.1892 O   0  0  0  0  0  0  0  0  0  0  0  0
   19.0254  -20.7803  -15.5114 O   0  0  0  0  0  0  0  0  0  0  0  0
  1  2  1  0
  3  2  1  0
  3  4  1  1
  5  6  1  6
  5  3  1  0
  7  5  1  0
  8  7  2  0
  9 10  1  0
 10 12  1  0
 11 10  2  0
 12 13  1  0
 13 14  1  0
 15 14  1  0
 16 15  1  1
 16 17  1  0
 17  7  1  0
 18 16  1  0
 19 18  2  0
 20 18  1  0
 21 20  1  0
 22 23  1  0
 22 21  1  0
 23 24  1  0
 24 20  1  0
 25 27  1  0
 24 25  1  6
 26 25  2  0
M  END
$$$$
