IRP.pdb
     RDKit          3D

 27 27  0  0  1  0  0  0  0  0999 V2000
   26.8061  -24.1579  -10.9500 C   0  0  0  0  0  0  0  0  0  0  0  0
   26.0995  -22.8252  -10.8161 C   0  0  0  0  0  0  0  0  0  0  0  0
   26.0511  -22.0991  -12.1556 C   0  0  2  0  0  0  0  0  0  0  0  0
   27.4937  -21.9135  -12.5888 C   0  0  0  0  0  0  0  0  0  0  0  0
   25.3815  -20.7654  -11.8919 C   0  0  2  0  0  0  0  0  0  0  0  0
   24.0683  -21.0472  -11.3992 N   0  0  0  0  0  0  0  0  0  0  0  0
   25.3289  -19.9286  -13.1163 C   0  0  0  0  0  0  0  0  0  0  0  0
   26.3930  -19.4067  -13.5791 O   0  0  0  0  0  0  0  0  0  0  0  0
   18.7162  -20.2956  -17.7874 N   0  0  0  0  0  0  0  0  0  0  0  0
   18.8621  -18.9179  -17.4662 C   0  0  0  0  0  0  0  0  0  0  0  0
   17.8356  -18.1678  -17.2559 N   0  0  0  0  0  0  0  0  0  0  0  0
   20.1375  -18.3118  -17.3638 N   0  0  0  0  0  0  0  0  0  0  0  0
   21.3361  -19.0103  -17.8793 C   0  0  0  0  0  0  0  0  0  0  0  0
   22.5283  -18.6424  -17.0022 C   0  0  0  0  0  0  0  0  0  0  0  0
   22.6712  -19.4452  -15.7726 C   0  0  0  0  0  0  0  0  0  0  0  0
   23.8724  -18.9724  -14.9487 C   0  0  2  0  0  0  0  0  0  0  0  0
   24.0891  -19.7167  -13.7622 N   0  0  0  0  0  0  0  0  0  0  0  0
   23.9430  -17.5102  -14.9176 C   0  0  0  0  0  0  0  0  0  0  0  0
   22.7844  -16.9517  -14.6759 O   0  0  0  0  0  0  0  0  0  0  0  0
   17.9722  -17.1673  -17.0195 N   0  0  0  0  0  0  0  0  0  0  0  0
   25.0045  -16.6340  -15.0952 C   0  0  0  0  0  0  0  0  0  0  0  0
   26.4334  -16.9516  -14.8760 C   0  0  0  0  0  0  0  0  0  0  0  0
   27.0325  -16.4364  -16.1968 C   0  0  0  0  0  0  0  0  0  0  0  0
   25.9871  -15.4751  -16.7716 C   0  0  2  0  0  0  0  0  0  0  0  0
   25.1270  -15.2642  -15.5124 C   0  0  0  0  0  0  0  0  0  0  0  0
   24.0046  -14.4204  -15.7244 O   0  0  0  0  0  0  0  0  0  0  0  0
   23.0320  -14.6279  -16.4486 O   0  0  0  0  0  0  0  0  0  0  0  0
  1  2  1  0
  3  2  1  0
  3  4  1  1
  5  6  1  6
  5  3  1  0
  7  5  1  0
  8  7  2  0
  9 10  1  0
 10 12  1  0
 11 10  2  0
 12 13  1  0
 13 14  1  0
 15 14  1  0
 16 15  1  1
 16 17  1  0
 17  7  1  0
 18 16  1  0
 19 18  2  0
 20 18  1  0
 21 20  1  0
 22 23  1  0
 22 21  1  0
 23 24  1  0
 24 20  1  0
 25 27  1  0
 24 25  1  6
 26 25  2  0
M  END
$$$$
