IRP.pdb
     RDKit          3D

 27 27  0  0  1  0  0  0  0  0999 V2000
   29.0151  -18.3859  -15.2569 C   0  0  0  0  0  0  0  0  0  0  0  0
   28.3581  -19.6155  -14.6655 C   0  0  0  0  0  0  0  0  0  0  0  0
   26.8792  -19.6699  -15.0307 C   0  0  2  0  0  0  0  0  0  0  0  0
   26.2441  -18.4397  -14.4089 C   0  0  0  0  0  0  0  0  0  0  0  0
   26.3349  -20.9412  -14.4108 C   0  0  2  0  0  0  0  0  0  0  0  0
   27.1025  -22.0261  -14.9402 N   0  0  0  0  0  0  0  0  0  0  0  0
   24.8894  -21.1140  -14.6981 C   0  0  0  0  0  0  0  0  0  0  0  0
   24.5083  -21.4897  -15.8524 O   0  0  0  0  0  0  0  0  0  0  0  0
   18.8143  -24.1136   -9.4413 N   0  0  0  0  0  0  0  0  0  0  0  0
   20.0216  -23.3622   -9.4294 C   0  0  0  0  0  0  0  0  0  0  0  0
   20.7276  -23.2476   -8.3575 N   0  0  0  0  0  0  0  0  0  0  0  0
   20.4993  -22.7086  -10.5910 N   0  0  0  0  0  0  0  0  0  0  0  0
   19.6703  -22.6699  -11.8163 C   0  0  0  0  0  0  0  0  0  0  0  0
   20.4218  -21.8867  -12.8876 C   0  0  0  0  0  0  0  0  0  0  0  0
   21.8670  -21.7198  -12.6417 C   0  0  0  0  0  0  0  0  0  0  0  0
   22.5328  -20.9624  -13.7942 C   0  0  2  0  0  0  0  0  0  0  0  0
   23.9417  -20.8580  -13.6805 N   0  0  0  0  0  0  0  0  0  0  0  0
   21.7416  -19.7914  -14.1773 C   0  0  0  0  0  0  0  0  0  0  0  0
   21.2737  -19.1360  -13.1456 O   0  0  0  0  0  0  0  0  0  0  0  0
   21.5953  -22.6798   -8.3739 N   0  0  0  0  0  0  0  0  0  0  0  0
   21.4109  -19.2677  -15.4192 C   0  0  0  0  0  0  0  0  0  0  0  0
   22.0617  -19.6117  -16.7034 C   0  0  0  0  0  0  0  0  0  0  0  0
   20.8221  -19.9127  -17.5646 C   0  0  0  0  0  0  0  0  0  0  0  0
   19.6490  -19.2466  -16.8383 C   0  0  2  0  0  0  0  0  0  0  0  0
   20.4370  -18.3226  -15.8922 C   0  0  0  0  0  0  0  0  0  0  0  0
   19.6123  -17.5645  -15.0193 O   0  0  0  0  0  0  0  0  0  0  0  0
   19.2118  -17.8784  -13.8993 O   0  0  0  0  0  0  0  0  0  0  0  0
  1  2  1  0
  3  2  1  0
  3  4  1  1
  5  6  1  6
  5  3  1  0
  7  5  1  0
  8  7  2  0
  9 10  1  0
 10 12  1  0
 11 10  2  0
 12 13  1  0
 13 14  1  0
 15 14  1  0
 16 15  1  1
 16 17  1  0
 17  7  1  0
 18 16  1  0
 19 18  2  0
 20 18  1  0
 21 20  1  0
 22 23  1  0
 22 21  1  0
 23 24  1  0
 24 20  1  0
 25 27  1  0
 24 25  1  6
 26 25  2  0
M  END
$$$$
