IRP.pdb
     RDKit          3D

 27 27  0  0  1  0  0  0  0  0999 V2000
   28.3342  -17.8649  -16.9919 C   0  0  0  0  0  0  0  0  0  0  0  0
   28.5310  -18.5512  -15.6565 C   0  0  0  0  0  0  0  0  0  0  0  0
   28.3306  -20.0568  -15.7848 C   0  0  2  0  0  0  0  0  0  0  0  0
   27.1865  -20.2497  -16.7631 C   0  0  0  0  0  0  0  0  0  0  0  0
   27.9605  -20.5555  -14.4024 C   0  0  2  0  0  0  0  0  0  0  0  0
   27.6468  -21.9455  -14.5297 N   0  0  0  0  0  0  0  0  0  0  0  0
   26.8191  -19.7960  -13.8347 C   0  0  0  0  0  0  0  0  0  0  0  0
   26.9220  -18.5438  -13.6343 O   0  0  0  0  0  0  0  0  0  0  0  0
   20.5694  -20.0192  -16.9008 N   0  0  0  0  0  0  0  0  0  0  0  0
   19.8213  -19.3110  -15.9204 C   0  0  0  0  0  0  0  0  0  0  0  0
   18.5924  -19.6093  -15.6723 N   0  0  0  0  0  0  0  0  0  0  0  0
   20.3919  -18.2502  -15.1762 N   0  0  0  0  0  0  0  0  0  0  0  0
   21.8024  -17.8611  -15.3980 C   0  0  0  0  0  0  0  0  0  0  0  0
   22.6281  -18.3224  -14.2016 C   0  0  0  0  0  0  0  0  0  0  0  0
   23.8528  -19.0727  -14.5393 C   0  0  0  0  0  0  0  0  0  0  0  0
   24.3414  -19.8886  -13.3389 C   0  0  2  0  0  0  0  0  0  0  0  0
   25.6194  -20.4743  -13.5190 N   0  0  0  0  0  0  0  0  0  0  0  0
   23.2504  -20.6773  -12.7630 C   0  0  0  0  0  0  0  0  0  0  0  0
   22.2982  -20.9303  -13.6245 O   0  0  0  0  0  0  0  0  0  0  0  0
   18.0594  -19.0504  -14.9802 N   0  0  0  0  0  0  0  0  0  0  0  0
   23.0573  -21.1926  -11.4890 C   0  0  0  0  0  0  0  0  0  0  0  0
   24.0912  -21.3030  -10.4355 C   0  0  0  0  0  0  0  0  0  0  0  0
   23.3437  -20.6627   -9.2523 C   0  0  0  0  0  0  0  0  0  0  0  0
   21.8597  -20.7178   -9.6292 C   0  0  2  0  0  0  0  0  0  0  0  0
   21.9345  -21.7397  -10.7781 C   0  0  0  0  0  0  0  0  0  0  0  0
   20.6815  -21.9942  -11.3961 O   0  0  0  0  0  0  0  0  0  0  0  0
   20.2150  -21.4604  -12.4014 O   0  0  0  0  0  0  0  0  0  0  0  0
  1  2  1  0
  3  2  1  0
  3  4  1  6
  5  6  1  6
  5  3  1  0
  7  5  1  0
  8  7  2  0
  9 10  1  0
 10 12  1  0
 11 10  2  0
 12 13  1  0
 13 14  1  0
 15 14  1  0
 16 15  1  6
 16 17  1  0
 17  7  1  0
 18 16  1  0
 19 18  2  0
 20 18  1  0
 21 20  1  0
 22 23  1  0
 22 21  1  0
 23 24  1  0
 24 20  1  0
 25 27  1  0
 24 25  1  1
 26 25  2  0
M  END
$$$$
