IRP.pdb
     RDKit          3D

 27 27  0  0  1  0  0  0  0  0999 V2000
   26.6830  -20.4071   -8.0636 C   0  0  0  0  0  0  0  0  0  0  0  0
   26.9965  -21.0494   -9.3987 C   0  0  0  0  0  0  0  0  0  0  0  0
   26.0514  -20.5409  -10.4813 C   0  0  2  0  0  0  0  0  0  0  0  0
   24.6884  -21.1275  -10.1629 C   0  0  0  0  0  0  0  0  0  0  0  0
   26.5848  -21.0743  -11.7957 C   0  0  2  0  0  0  0  0  0  0  0  0
   27.9363  -20.6202  -11.9134 N   0  0  0  0  0  0  0  0  0  0  0  0
   25.7623  -20.6198  -12.9442 C   0  0  0  0  0  0  0  0  0  0  0  0
   25.6980  -19.3824  -13.2333 O   0  0  0  0  0  0  0  0  0  0  0  0
   23.9588  -25.9332  -14.7676 N   0  0  0  0  0  0  0  0  0  0  0  0
   24.6114  -26.0137  -16.0285 C   0  0  0  0  0  0  0  0  0  0  0  0
   24.2080  -26.8311  -16.9394 N   0  0  0  0  0  0  0  0  0  0  0  0
   25.7297  -25.2022  -16.3375 N   0  0  0  0  0  0  0  0  0  0  0  0
   26.0251  -24.0022  -15.5232 C   0  0  0  0  0  0  0  0  0  0  0  0
   25.4775  -22.7765  -16.2468 C   0  0  0  0  0  0  0  0  0  0  0  0
   24.1122  -22.3774  -15.8551 C   0  0  0  0  0  0  0  0  0  0  0  0
   24.1495  -21.2976  -14.7698 C   0  0  2  0  0  0  0  0  0  0  0  0
   25.0525  -21.5713  -13.7122 N   0  0  0  0  0  0  0  0  0  0  0  0
   22.8021  -20.8077  -14.4722 C   0  0  0  0  0  0  0  0  0  0  0  0
   22.0995  -21.6549  -13.7640 O   0  0  0  0  0  0  0  0  0  0  0  0
   24.7028  -26.8678  -17.8501 N   0  0  0  0  0  0  0  0  0  0  0  0
   22.1566  -19.6247  -14.8036 C   0  0  0  0  0  0  0  0  0  0  0  0
   22.8175  -18.3371  -15.1139 C   0  0  0  0  0  0  0  0  0  0  0  0
   22.1064  -17.9765  -16.4304 C   0  0  0  0  0  0  0  0  0  0  0  0
   20.8269  -18.8190  -16.4472 C   0  0  2  0  0  0  0  0  0  0  0  0
   20.7837  -19.2318  -14.9647 C   0  0  0  0  0  0  0  0  0  0  0  0
   19.6955  -20.0857  -14.6431 O   0  0  0  0  0  0  0  0  0  0  0  0
   19.5188  -21.2490  -15.0021 O   0  0  0  0  0  0  0  0  0  0  0  0
  1  2  1  0
  3  2  1  0
  3  4  1  1
  5  6  1  6
  5  3  1  0
  7  5  1  0
  8  7  2  0
  9 10  1  0
 10 12  1  0
 11 10  2  0
 12 13  1  0
 13 14  1  0
 15 14  1  0
 16 15  1  1
 16 17  1  0
 17  7  1  0
 18 16  1  0
 19 18  2  0
 20 18  1  0
 21 20  1  0
 22 23  1  0
 22 21  1  0
 23 24  1  0
 24 20  1  0
 25 27  1  0
 24 25  1  6
 26 25  2  0
M  END
$$$$
