IRP.pdb
     RDKit          3D

 27 27  0  0  1  0  0  0  0  0999 V2000
   26.6312  -21.1905   -9.4150 C   0  0  0  0  0  0  0  0  0  0  0  0
   25.9858  -21.0806  -10.7805 C   0  0  0  0  0  0  0  0  0  0  0  0
   24.5678  -20.5323  -10.6685 C   0  0  2  0  0  0  0  0  0  0  0  0
   23.7498  -21.6113   -9.9830 C   0  0  0  0  0  0  0  0  0  0  0  0
   24.0892  -20.2991  -12.0873 C   0  0  2  0  0  0  0  0  0  0  0  0
   24.0441  -21.5771  -12.7286 N   0  0  0  0  0  0  0  0  0  0  0  0
   24.9785  -19.3618  -12.8171 C   0  0  0  0  0  0  0  0  0  0  0  0
   25.3031  -18.2496  -12.2913 O   0  0  0  0  0  0  0  0  0  0  0  0
   29.4888  -21.2160  -17.9430 N   0  0  0  0  0  0  0  0  0  0  0  0
   29.2721  -22.2592  -17.0010 C   0  0  0  0  0  0  0  0  0  0  0  0
   28.9921  -23.4576  -17.3829 N   0  0  0  0  0  0  0  0  0  0  0  0
   29.3539  -22.0275  -15.6067 N   0  0  0  0  0  0  0  0  0  0  0  0
   29.6762  -20.6766  -15.0951 C   0  0  0  0  0  0  0  0  0  0  0  0
   28.3968  -20.0405  -14.5618 C   0  0  0  0  0  0  0  0  0  0  0  0
   27.4304  -19.6197  -15.5942 C   0  0  0  0  0  0  0  0  0  0  0  0
   26.2353  -18.9003  -14.9621 C   0  0  2  0  0  0  0  0  0  0  0  0
   25.4604  -19.7144  -14.0988 N   0  0  0  0  0  0  0  0  0  0  0  0
   25.5731  -18.0302  -15.9360 C   0  0  0  0  0  0  0  0  0  0  0  0
   24.9709  -18.6990  -16.8862 O   0  0  0  0  0  0  0  0  0  0  0  0
   28.8326  -24.1971  -16.6734 N   0  0  0  0  0  0  0  0  0  0  0  0
   25.4754  -16.6486  -16.0221 C   0  0  0  0  0  0  0  0  0  0  0  0
   25.5898  -15.7018  -14.8901 C   0  0  0  0  0  0  0  0  0  0  0  0
   26.6136  -14.7087  -15.4682 C   0  0  0  0  0  0  0  0  0  0  0  0
   26.5808  -14.9251  -16.9846 C   0  0  2  0  0  0  0  0  0  0  0  0
   25.2632  -15.7139  -17.0929 C   0  0  0  0  0  0  0  0  0  0  0  0
   24.9491  -16.1185  -18.4174 O   0  0  0  0  0  0  0  0  0  0  0  0
   25.3755  -17.0982  -19.0271 O   0  0  0  0  0  0  0  0  0  0  0  0
  1  2  1  0
  3  2  1  0
  3  4  1  6
  5  6  1  6
  5  3  1  0
  7  5  1  0
  8  7  2  0
  9 10  1  0
 10 12  1  0
 11 10  2  0
 12 13  1  0
 13 14  1  0
 15 14  1  0
 16 15  1  6
 16 17  1  0
 17  7  1  0
 18 16  1  0
 19 18  2  0
 20 18  1  0
 21 20  1  0
 22 23  1  0
 22 21  1  0
 23 24  1  0
 24 20  1  0
 25 27  1  0
 24 25  1  6
 26 25  2  0
M  END
$$$$
