VWY.pdb
     RDKit          3D

 34 36  0  0  1  0  0  0  0  0999 V2000
   24.1807  -24.7688  -14.8153 C   0  0  0  0  0  0  0  0  0  0  0  0
   23.7467  -24.8417  -16.3063 C   0  0  2  0  0  0  0  0  0  0  0  0
   24.9950  -25.3332  -17.0099 C   0  0  0  0  0  0  0  0  0  0  0  0
   23.3145  -23.4696  -16.7298 C   0  0  2  0  0  0  0  0  0  0  0  0
   24.5573  -22.6683  -16.7406 N   0  0  0  0  0  0  0  0  0  0  0  0
   22.3537  -22.7811  -15.8892 C   0  0  0  0  0  0  0  0  0  0  0  0
   22.7937  -22.0298  -14.9372 O   0  0  0  0  0  0  0  0  0  0  0  0
   20.9454  -22.8485  -16.0126 N   0  0  0  0  0  0  0  0  0  0  0  0
   20.0594  -22.1135  -15.0953 C   0  0  1  0  0  0  0  0  0  0  0  0
   19.0518  -21.3426  -15.8697 C   0  0  0  0  0  0  0  0  0  0  0  0
   19.5258  -20.0448  -16.3519 C   0  0  0  0  0  0  0  0  0  0  0  0
   20.7498  -19.4779  -16.0168 C   0  0  0  0  0  0  0  0  0  0  0  0
   20.8566  -18.2978  -16.6288 N   0  0  0  0  0  0  0  0  0  0  0  0
   19.7660  -18.0360  -17.3625 C   0  0  0  0  0  0  0  0  0  0  0  0
   19.4106  -16.9679  -18.1591 C   0  0  0  0  0  0  0  0  0  0  0  0
   18.1916  -16.9849  -18.8029 C   0  0  0  0  0  0  0  0  0  0  0  0
   17.3544  -18.0866  -18.6271 C   0  0  0  0  0  0  0  0  0  0  0  0
   17.7052  -19.1576  -17.8317 C   0  0  0  0  0  0  0  0  0  0  0  0
   18.9264  -19.1419  -17.1857 C   0  0  0  0  0  0  0  0  0  0  0  0
   19.3558  -23.0572  -14.1555 C   0  0  0  0  0  0  0  0  0  0  0  0
   18.8558  -24.1280  -14.5696 O   0  0  0  0  0  0  0  0  0  0  0  0
   16.0663  -25.7573   -6.3936 O   0  0  0  0  0  0  0  0  0  0  0  0
   16.7558  -25.1241   -7.3966 C   0  0  0  0  0  0  0  0  0  0  0  0
   16.4043  -23.8476   -7.7851 C   0  0  0  0  0  0  0  0  0  0  0  0
   17.1006  -23.2269   -8.7877 C   0  0  0  0  0  0  0  0  0  0  0  0
   18.1408  -23.8937   -9.3889 C   0  0  0  0  0  0  0  0  0  0  0  0
   18.9028  -23.2671  -10.4699 C   0  0  0  0  0  0  0  0  0  0  0  0
   18.4409  -23.6352  -11.8622 C   0  0  2  0  0  0  0  0  0  0  0  0
   19.2236  -22.7841  -12.7720 N   0  0  0  0  0  0  0  0  0  0  0  0
   16.9925  -23.4110  -12.0563 C   0  0  0  0  0  0  0  0  0  0  0  0
   16.1272  -24.3054  -12.0575 O   0  0  0  0  0  0  0  0  0  0  0  0
   18.4999  -25.1767   -9.0037 C   0  0  0  0  0  0  0  0  0  0  0  0
   17.7943  -25.7943   -7.9938 C   0  0  0  0  0  0  0  0  0  0  0  0
   16.5538  -22.1098  -12.2523 O   0  0  0  0  0  0  0  0  0  0  0  0
  2  1  1  1
  2  3  1  0
  4  2  1  0
  4  5  1  1
  6  4  1  0
  6  8  1  0
  7  6  2  0
  9  8  1  0
  9 20  1  0
  9 10  1  6
 11 19  1  0
 11 10  1  0
 12 11  2  0
 13 12  1  0
 13 14  1  0
 14 15  1  0
 14 19  2  0
 15 16  2  0
 16 17  1  0
 18 17  2  0
 19 18  1  0
 20 29  1  0
 21 20  2  0
 22 23  1  0
 23 24  2  0
 23 33  1  0
 24 25  1  0
 25 26  2  0
 26 27  1  0
 28 27  1  1
 28 30  1  0
 29 28  1  0
 30 31  2  0
 30 34  1  0
 32 26  1  0
 33 32  2  0
M  END
$$$$
