VWY.pdb
     RDKit          3D

 34 36  0  0  1  0  0  0  0  0999 V2000
   26.1039  -19.9955  -15.8719 C   0  0  0  0  0  0  0  0  0  0  0  0
   27.6123  -19.8807  -15.5135 C   0  0  2  0  0  0  0  0  0  0  0  0
   28.2824  -19.7360  -16.8644 C   0  0  0  0  0  0  0  0  0  0  0  0
   28.0075  -21.1231  -14.7724 C   0  0  2  0  0  0  0  0  0  0  0  0
   27.5768  -22.2367  -15.6450 N   0  0  0  0  0  0  0  0  0  0  0  0
   27.4208  -21.3369  -13.4634 C   0  0  0  0  0  0  0  0  0  0  0  0
   26.3076  -21.9843  -13.3844 O   0  0  0  0  0  0  0  0  0  0  0  0
   27.9613  -20.8993  -12.2307 N   0  0  0  0  0  0  0  0  0  0  0  0
   27.2265  -21.0718  -10.9670 C   0  0  1  0  0  0  0  0  0  0  0  0
   28.0648  -20.6209   -9.8254 C   0  0  0  0  0  0  0  0  0  0  0  0
   27.3670  -20.5923   -8.5393 C   0  0  0  0  0  0  0  0  0  0  0  0
   26.0467  -20.9829   -8.3494 C   0  0  0  0  0  0  0  0  0  0  0  0
   25.7356  -20.8280   -7.0618 N   0  0  0  0  0  0  0  0  0  0  0  0
   26.7794  -20.3520   -6.3688 C   0  0  0  0  0  0  0  0  0  0  0  0
   26.9495  -20.0328   -5.0381 C   0  0  0  0  0  0  0  0  0  0  0  0
   28.1693  -19.5521   -4.6119 C   0  0  0  0  0  0  0  0  0  0  0  0
   29.1959  -19.4041   -5.5445 C   0  0  0  0  0  0  0  0  0  0  0  0
   29.0311  -19.7223   -6.8765 C   0  0  0  0  0  0  0  0  0  0  0  0
   27.8092  -20.2039   -7.3051 C   0  0  0  0  0  0  0  0  0  0  0  0
   25.9382  -20.2914  -10.9830 C   0  0  0  0  0  0  0  0  0  0  0  0
   25.9311  -19.0610  -11.2156 O   0  0  0  0  0  0  0  0  0  0  0  0
   18.9697  -17.9668  -15.0186 O   0  0  0  0  0  0  0  0  0  0  0  0
   20.0808  -18.5227  -14.4365 C   0  0  0  0  0  0  0  0  0  0  0  0
   20.1442  -19.8832  -14.2150 C   0  0  0  0  0  0  0  0  0  0  0  0
   21.2589  -20.4253  -13.6331 C   0  0  0  0  0  0  0  0  0  0  0  0
   22.2967  -19.5967  -13.2799 C   0  0  0  0  0  0  0  0  0  0  0  0
   23.5008  -20.1375  -12.6478 C   0  0  0  0  0  0  0  0  0  0  0  0
   23.4077  -20.2952  -11.1465 C   0  0  2  0  0  0  0  0  0  0  0  0
   24.6840  -20.9017  -10.7369 N   0  0  0  0  0  0  0  0  0  0  0  0
   22.2710  -21.1466  -10.7356 C   0  0  0  0  0  0  0  0  0  0  0  0
   21.1748  -20.7225  -10.3268 O   0  0  0  0  0  0  0  0  0  0  0  0
   22.2402  -18.2286  -13.4995 C   0  0  0  0  0  0  0  0  0  0  0  0
   21.1149  -17.6908  -14.0858 C   0  0  0  0  0  0  0  0  0  0  0  0
   22.4268  -22.5231  -10.8076 O   0  0  0  0  0  0  0  0  0  0  0  0
  2  1  1  6
  2  3  1  0
  4  2  1  0
  4  5  1  6
  6  4  1  0
  6  8  1  0
  7  6  2  0
  9  8  1  0
  9 20  1  0
  9 10  1  1
 11 19  1  0
 11 10  1  0
 12 11  2  0
 13 12  1  0
 13 14  1  0
 14 15  1  0
 14 19  2  0
 15 16  2  0
 16 17  1  0
 18 17  2  0
 19 18  1  0
 20 29  1  0
 21 20  2  0
 22 23  1  0
 23 24  2  0
 23 33  1  0
 24 25  1  0
 25 26  2  0
 26 27  1  0
 28 27  1  6
 28 30  1  0
 29 28  1  0
 30 31  2  0
 30 34  1  0
 32 26  1  0
 33 32  2  0
M  END
$$$$
