VWY.pdb
     RDKit          3D

 34 36  0  0  1  0  0  0  0  0999 V2000
   28.3630  -18.2638  -15.7983 C   0  0  0  0  0  0  0  0  0  0  0  0
   28.8929  -19.6237  -16.3337 C   0  0  2  0  0  0  0  0  0  0  0  0
   29.0639  -19.3723  -17.8177 C   0  0  0  0  0  0  0  0  0  0  0  0
   27.8740  -20.6761  -16.0121 C   0  0  2  0  0  0  0  0  0  0  0  0
   26.6638  -20.2712  -16.7593 N   0  0  0  0  0  0  0  0  0  0  0  0
   27.4983  -20.8412  -14.6210 C   0  0  0  0  0  0  0  0  0  0  0  0
   28.3389  -21.3991  -13.8169 O   0  0  0  0  0  0  0  0  0  0  0  0
   26.2722  -20.4387  -14.0397 N   0  0  0  0  0  0  0  0  0  0  0  0
   26.0388  -20.5472  -12.5904 C   0  0  1  0  0  0  0  0  0  0  0  0
   27.0043  -19.6900  -11.8539 C   0  0  0  0  0  0  0  0  0  0  0  0
   27.8184  -20.4059  -10.8709 C   0  0  0  0  0  0  0  0  0  0  0  0
   28.8500  -21.2815  -11.1887 C   0  0  0  0  0  0  0  0  0  0  0  0
   29.3744  -21.7535  -10.0569 N   0  0  0  0  0  0  0  0  0  0  0  0
   28.7500  -21.2414   -8.9873 C   0  0  0  0  0  0  0  0  0  0  0  0
   28.9242  -21.4183   -7.6308 C   0  0  0  0  0  0  0  0  0  0  0  0
   28.1070  -20.7381   -6.7530 C   0  0  0  0  0  0  0  0  0  0  0  0
   27.1270  -19.8896   -7.2679 C   0  0  0  0  0  0  0  0  0  0  0  0
   26.9489  -19.7090   -8.6238 C   0  0  0  0  0  0  0  0  0  0  0  0
   27.7669  -20.3900   -9.5046 C   0  0  0  0  0  0  0  0  0  0  0  0
   24.6329  -20.1356  -12.2397 C   0  0  0  0  0  0  0  0  0  0  0  0
   24.2406  -18.9599  -12.4176 O   0  0  0  0  0  0  0  0  0  0  0  0
   20.8638  -19.2596  -17.4214 O   0  0  0  0  0  0  0  0  0  0  0  0
   21.0300  -19.8218  -16.1809 C   0  0  0  0  0  0  0  0  0  0  0  0
   22.0299  -20.7475  -15.9641 C   0  0  0  0  0  0  0  0  0  0  0  0
   22.1849  -21.3012  -14.7212 C   0  0  0  0  0  0  0  0  0  0  0  0
   21.3352  -20.9201  -13.7108 C   0  0  0  0  0  0  0  0  0  0  0  0
   21.4636  -21.4960  -12.3715 C   0  0  0  0  0  0  0  0  0  0  0  0
   22.2985  -20.6783  -11.4113 C   0  0  2  0  0  0  0  0  0  0  0  0
   23.6945  -21.0462  -11.6954 N   0  0  0  0  0  0  0  0  0  0  0  0
   21.9656  -20.9513   -9.9970 C   0  0  0  0  0  0  0  0  0  0  0  0
   22.7327  -21.4846   -9.1749 O   0  0  0  0  0  0  0  0  0  0  0  0
   20.3281  -19.9903  -13.9212 C   0  0  0  0  0  0  0  0  0  0  0  0
   20.1788  -19.4376  -15.1747 C   0  0  0  0  0  0  0  0  0  0  0  0
   20.7064  -20.5896   -9.5410 O   0  0  0  0  0  0  0  0  0  0  0  0
  2  1  1  1
  2  3  1  0
  4  2  1  0
  4  5  1  6
  6  4  1  0
  6  8  1  0
  7  6  2  0
  9  8  1  0
  9 20  1  0
  9 10  1  1
 11 19  1  0
 11 10  1  0
 12 11  2  0
 13 12  1  0
 13 14  1  0
 14 15  1  0
 14 19  2  0
 15 16  2  0
 16 17  1  0
 18 17  2  0
 19 18  1  0
 20 29  1  0
 21 20  2  0
 22 23  1  0
 23 24  2  0
 23 33  1  0
 24 25  1  0
 25 26  2  0
 26 27  1  0
 28 27  1  6
 28 30  1  0
 29 28  1  0
 30 31  2  0
 30 34  1  0
 32 26  1  0
 33 32  2  0
M  END
$$$$
