VWY.pdb
     RDKit          3D

 34 36  0  0  1  0  0  0  0  0999 V2000
   19.7020  -25.5282  -16.2303 C   0  0  0  0  0  0  0  0  0  0  0  0
   21.2231  -25.4376  -15.9226 C   0  0  2  0  0  0  0  0  0  0  0  0
   21.8273  -26.4845  -16.8357 C   0  0  0  0  0  0  0  0  0  0  0  0
   21.4177  -25.7231  -14.4633 C   0  0  2  0  0  0  0  0  0  0  0  0
   21.0692  -27.1519  -14.3080 N   0  0  0  0  0  0  0  0  0  0  0  0
   20.6141  -24.9687  -13.5206 C   0  0  0  0  0  0  0  0  0  0  0  0
   20.8352  -23.7039  -13.3950 O   0  0  0  0  0  0  0  0  0  0  0  0
   19.5822  -25.4920  -12.7054 N   0  0  0  0  0  0  0  0  0  0  0  0
   18.6787  -24.6083  -11.9509 C   0  0  1  0  0  0  0  0  0  0  0  0
   17.4695  -24.3057  -12.7605 C   0  0  0  0  0  0  0  0  0  0  0  0
   17.5809  -23.1008  -13.5835 C   0  0  0  0  0  0  0  0  0  0  0  0
   18.5983  -22.1604  -13.4716 C   0  0  0  0  0  0  0  0  0  0  0  0
   18.3908  -21.1965  -14.3697 N   0  0  0  0  0  0  0  0  0  0  0  0
   17.2833  -21.4365  -15.0854 C   0  0  0  0  0  0  0  0  0  0  0  0
   16.6648  -20.7482  -16.1079 C   0  0  0  0  0  0  0  0  0  0  0  0
   15.5081  -21.2575  -16.6587 C   0  0  0  0  0  0  0  0  0  0  0  0
   14.9993  -22.4574  -16.1618 C   0  0  0  0  0  0  0  0  0  0  0  0
   15.6142  -23.1499  -15.1394 C   0  0  0  0  0  0  0  0  0  0  0  0
   16.7733  -22.6406  -14.5865 C   0  0  0  0  0  0  0  0  0  0  0  0
   18.2653  -25.2456  -10.6501 C   0  0  0  0  0  0  0  0  0  0  0  0
   18.0340  -26.4741  -10.5775 O   0  0  0  0  0  0  0  0  0  0  0  0
   16.5550  -25.7825   -2.0096 O   0  0  0  0  0  0  0  0  0  0  0  0
   16.9752  -25.4211   -3.2647 C   0  0  0  0  0  0  0  0  0  0  0  0
   16.3784  -24.3646   -3.9217 C   0  0  0  0  0  0  0  0  0  0  0  0
   16.8072  -24.0143   -5.1741 C   0  0  0  0  0  0  0  0  0  0  0  0
   17.8291  -24.7277   -5.7529 C   0  0  0  0  0  0  0  0  0  0  0  0
   18.3090  -24.3892   -7.0934 C   0  0  0  0  0  0  0  0  0  0  0  0
   17.5626  -25.0681   -8.2201 C   0  0  2  0  0  0  0  0  0  0  0  0
   18.1171  -24.4965   -9.4572 N   0  0  0  0  0  0  0  0  0  0  0  0
   16.1033  -24.8418   -8.1503 C   0  0  0  0  0  0  0  0  0  0  0  0
   15.5295  -23.7876   -8.4792 O   0  0  0  0  0  0  0  0  0  0  0  0
   18.4338  -25.7905   -5.0987 C   0  0  0  0  0  0  0  0  0  0  0  0
   17.9966  -26.1367   -3.8384 C   0  0  0  0  0  0  0  0  0  0  0  0
   15.3037  -25.8755   -7.6851 O   0  0  0  0  0  0  0  0  0  0  0  0
  2  1  1  1
  2  3  1  0
  4  2  1  0
  4  5  1  6
  6  4  1  0
  6  8  1  0
  7  6  2  0
  9  8  1  0
  9 20  1  0
  9 10  1  6
 11 19  1  0
 11 10  1  0
 12 11  2  0
 13 12  1  0
 13 14  1  0
 14 15  1  0
 14 19  2  0
 15 16  2  0
 16 17  1  0
 18 17  2  0
 19 18  1  0
 20 29  1  0
 21 20  2  0
 22 23  1  0
 23 24  2  0
 23 33  1  0
 24 25  1  0
 25 26  2  0
 26 27  1  0
 28 27  1  1
 28 30  1  0
 29 28  1  0
 30 31  2  0
 30 34  1  0
 32 26  1  0
 33 32  2  0
M  END
$$$$
