VWY.pdb
     RDKit          3D

 34 36  0  0  1  0  0  0  0  0999 V2000
   29.6870  -20.8746  -15.9353 C   0  0  0  0  0  0  0  0  0  0  0  0
   29.0256  -21.8092  -16.9869 C   0  0  2  0  0  0  0  0  0  0  0  0
   29.5555  -21.2826  -18.3048 C   0  0  0  0  0  0  0  0  0  0  0  0
   27.5378  -21.6886  -16.8420 C   0  0  2  0  0  0  0  0  0  0  0  0
   27.2123  -20.3516  -17.3837 N   0  0  0  0  0  0  0  0  0  0  0  0
   26.9871  -21.7672  -15.5025 C   0  0  0  0  0  0  0  0  0  0  0  0
   26.9910  -22.9079  -14.8997 O   0  0  0  0  0  0  0  0  0  0  0  0
   26.4346  -20.6907  -14.7684 N   0  0  0  0  0  0  0  0  0  0  0  0
   25.8195  -20.8992  -13.4475 C   0  0  1  0  0  0  0  0  0  0  0  0
   26.3065  -19.8706  -12.4914 C   0  0  0  0  0  0  0  0  0  0  0  0
   27.2967  -20.3603  -11.5315 C   0  0  0  0  0  0  0  0  0  0  0  0
   28.5596  -20.8307  -11.8716 C   0  0  0  0  0  0  0  0  0  0  0  0
   29.1951  -21.1948  -10.7571 N   0  0  0  0  0  0  0  0  0  0  0  0
   28.4261  -20.9945   -9.6778 C   0  0  0  0  0  0  0  0  0  0  0  0
   28.6321  -21.2098   -8.3313 C   0  0  0  0  0  0  0  0  0  0  0  0
   27.6287  -20.8980   -7.4387 C   0  0  0  0  0  0  0  0  0  0  0  0
   26.4332  -20.3725   -7.9287 C   0  0  0  0  0  0  0  0  0  0  0  0
   26.2222  -20.1549   -9.2744 C   0  0  0  0  0  0  0  0  0  0  0  0
   27.2267  -20.4670  -10.1701 C   0  0  0  0  0  0  0  0  0  0  0  0
   24.3174  -20.8306  -13.5367 C   0  0  0  0  0  0  0  0  0  0  0  0
   23.7482  -19.8904  -14.1366 O   0  0  0  0  0  0  0  0  0  0  0  0
   15.9942  -23.5379  -12.2514 O   0  0  0  0  0  0  0  0  0  0  0  0
   17.3599  -23.4067  -12.2587 C   0  0  0  0  0  0  0  0  0  0  0  0
   18.0262  -22.9948  -11.1228 C   0  0  0  0  0  0  0  0  0  0  0  0
   19.3895  -22.8678  -11.1436 C   0  0  0  0  0  0  0  0  0  0  0  0
   20.0684  -23.1551  -12.3032 C   0  0  0  0  0  0  0  0  0  0  0  0
   21.5245  -23.0228  -12.3673 C   0  0  0  0  0  0  0  0  0  0  0  0
   22.0135  -21.7224  -12.9649 C   0  0  2  0  0  0  0  0  0  0  0  0
   23.4819  -21.8134  -12.9517 N   0  0  0  0  0  0  0  0  0  0  0  0
   21.5581  -20.5413  -12.2012 C   0  0  0  0  0  0  0  0  0  0  0  0
   22.1054  -20.1038  -11.1727 O   0  0  0  0  0  0  0  0  0  0  0  0
   19.4055  -23.5697  -13.4487 C   0  0  0  0  0  0  0  0  0  0  0  0
   18.0335  -23.6952  -13.4195 C   0  0  0  0  0  0  0  0  0  0  0  0
   20.4378  -19.8616  -12.6564 O   0  0  0  0  0  0  0  0  0  0  0  0
  2  1  1  1
  2  3  1  0
  4  2  1  0
  4  5  1  1
  6  4  1  0
  6  8  1  0
  7  6  2  0
  9  8  1  0
  9 20  1  0
  9 10  1  1
 11 19  1  0
 11 10  1  0
 12 11  2  0
 13 12  1  0
 13 14  1  0
 14 15  1  0
 14 19  2  0
 15 16  2  0
 16 17  1  0
 18 17  2  0
 19 18  1  0
 20 29  1  0
 21 20  2  0
 22 23  1  0
 23 24  2  0
 23 33  1  0
 24 25  1  0
 25 26  2  0
 26 27  1  0
 28 27  1  1
 28 30  1  0
 29 28  1  0
 30 31  2  0
 30 34  1  0
 32 26  1  0
 33 32  2  0
M  END
$$$$
