VWY.pdb
     RDKit          3D

 34 36  0  0  1  0  0  0  0  0999 V2000
   28.3659  -19.7363   -8.2040 C   0  0  0  0  0  0  0  0  0  0  0  0
   27.0009  -19.4424   -7.5206 C   0  0  2  0  0  0  0  0  0  0  0  0
   27.1959  -19.9639   -6.1118 C   0  0  0  0  0  0  0  0  0  0  0  0
   25.9339  -20.1629   -8.2897 C   0  0  2  0  0  0  0  0  0  0  0  0
   26.2950  -21.5933   -8.1877 N   0  0  0  0  0  0  0  0  0  0  0  0
   25.7922  -19.8437   -9.6974 C   0  0  0  0  0  0  0  0  0  0  0  0
   24.7623  -19.1648  -10.0755 O   0  0  0  0  0  0  0  0  0  0  0  0
   26.6944  -20.2076  -10.7254 N   0  0  0  0  0  0  0  0  0  0  0  0
   26.4832  -19.7798  -12.1178 C   0  0  1  0  0  0  0  0  0  0  0  0
   27.7188  -20.0057  -12.9126 C   0  0  0  0  0  0  0  0  0  0  0  0
   27.6648  -19.4746  -14.2751 C   0  0  0  0  0  0  0  0  0  0  0  0
   27.5631  -18.1252  -14.5924 C   0  0  0  0  0  0  0  0  0  0  0  0
   27.5383  -17.9983  -15.9197 N   0  0  0  0  0  0  0  0  0  0  0  0
   27.6184  -19.1947  -16.5187 C   0  0  0  0  0  0  0  0  0  0  0  0
   27.6309  -19.5767  -17.8437 C   0  0  0  0  0  0  0  0  0  0  0  0
   27.7241  -20.9160  -18.1571 C   0  0  0  0  0  0  0  0  0  0  0  0
   27.8035  -21.8447  -17.1194 C   0  0  0  0  0  0  0  0  0  0  0  0
   27.7918  -21.4678  -15.7925 C   0  0  0  0  0  0  0  0  0  0  0  0
   27.6982  -20.1260  -15.4770 C   0  0  0  0  0  0  0  0  0  0  0  0
   25.3387  -20.5327  -12.7442 C   0  0  0  0  0  0  0  0  0  0  0  0
   25.2539  -21.7781  -12.6457 O   0  0  0  0  0  0  0  0  0  0  0  0
   17.6400  -23.7338  -13.8115 O   0  0  0  0  0  0  0  0  0  0  0  0
   18.7981  -23.0511  -13.5376 C   0  0  0  0  0  0  0  0  0  0  0  0
   18.7487  -21.7461  -13.0921 C   0  0  0  0  0  0  0  0  0  0  0  0
   19.9121  -21.0760  -12.8224 C   0  0  0  0  0  0  0  0  0  0  0  0
   21.1111  -21.7224  -13.0030 C   0  0  0  0  0  0  0  0  0  0  0  0
   22.3758  -21.0369  -12.7341 C   0  0  0  0  0  0  0  0  0  0  0  0
   23.1187  -20.5776  -13.9689 C   0  0  2  0  0  0  0  0  0  0  0  0
   24.3131  -19.8784  -13.4696 N   0  0  0  0  0  0  0  0  0  0  0  0
   22.3065  -19.6798  -14.8175 C   0  0  0  0  0  0  0  0  0  0  0  0
   22.2401  -18.4439  -14.6872 O   0  0  0  0  0  0  0  0  0  0  0  0
   21.1687  -23.0339  -13.4503 C   0  0  0  0  0  0  0  0  0  0  0  0
   19.9934  -23.7014  -13.7192 C   0  0  0  0  0  0  0  0  0  0  0  0
   21.5587  -20.2467  -15.8390 O   0  0  0  0  0  0  0  0  0  0  0  0
  2  1  1  6
  2  3  1  0
  4  2  1  0
  4  5  1  6
  6  4  1  0
  6  8  1  0
  7  6  2  0
  9  8  1  0
  9 20  1  0
  9 10  1  6
 11 19  1  0
 11 10  1  0
 12 11  2  0
 13 12  1  0
 13 14  1  0
 14 15  1  0
 14 19  2  0
 15 16  2  0
 16 17  1  0
 18 17  2  0
 19 18  1  0
 20 29  1  0
 21 20  2  0
 22 23  1  0
 23 24  2  0
 23 33  1  0
 24 25  1  0
 25 26  2  0
 26 27  1  0
 28 27  1  1
 28 30  1  0
 29 28  1  0
 30 31  2  0
 30 34  1  0
 32 26  1  0
 33 32  2  0
M  END
$$$$
