VWY.pdb
     RDKit          3D

 34 36  0  0  1  0  0  0  0  0999 V2000
   27.3125  -19.2108  -14.0978 C   0  0  0  0  0  0  0  0  0  0  0  0
   28.2789  -18.8330  -12.9403 C   0  0  2  0  0  0  0  0  0  0  0  0
   29.4428  -18.1790  -13.6561 C   0  0  0  0  0  0  0  0  0  0  0  0
   28.6463  -20.0930  -12.2147 C   0  0  2  0  0  0  0  0  0  0  0  0
   29.2584  -20.9583  -13.2460 N   0  0  0  0  0  0  0  0  0  0  0  0
   27.5734  -20.8432  -11.5904 C   0  0  0  0  0  0  0  0  0  0  0  0
   27.1384  -21.9049  -12.1804 O   0  0  0  0  0  0  0  0  0  0  0  0
   26.9406  -20.5226  -10.3657 N   0  0  0  0  0  0  0  0  0  0  0  0
   25.7068  -21.2027   -9.9392 C   0  0  1  0  0  0  0  0  0  0  0  0
   25.4450  -20.9280   -8.5021 C   0  0  0  0  0  0  0  0  0  0  0  0
   26.4460  -20.0758   -7.8591 C   0  0  0  0  0  0  0  0  0  0  0  0
   26.6151  -18.7215   -8.1218 C   0  0  0  0  0  0  0  0  0  0  0  0
   27.6109  -18.2597   -7.3644 N   0  0  0  0  0  0  0  0  0  0  0  0
   28.1258  -19.2335   -6.6008 C   0  0  0  0  0  0  0  0  0  0  0  0
   29.1463  -19.2523   -5.6736 C   0  0  0  0  0  0  0  0  0  0  0  0
   29.4532  -20.4347   -5.0344 C   0  0  0  0  0  0  0  0  0  0  0  0
   28.7182  -21.5779   -5.3477 C   0  0  0  0  0  0  0  0  0  0  0  0
   27.6962  -21.5645   -6.2741 C   0  0  0  0  0  0  0  0  0  0  0  0
   27.3877  -20.3804   -6.9155 C   0  0  0  0  0  0  0  0  0  0  0  0
   24.5294  -20.7457  -10.7603 C   0  0  0  0  0  0  0  0  0  0  0  0
   24.4106  -19.5489  -11.1089 O   0  0  0  0  0  0  0  0  0  0  0  0
   17.5458  -21.7039  -16.0646 O   0  0  0  0  0  0  0  0  0  0  0  0
   18.6713  -21.8622  -15.2960 C   0  0  0  0  0  0  0  0  0  0  0  0
   18.6210  -22.5999  -14.1310 C   0  0  0  0  0  0  0  0  0  0  0  0
   19.7516  -22.7500  -13.3730 C   0  0  0  0  0  0  0  0  0  0  0  0
   20.9188  -22.1584  -13.7921 C   0  0  0  0  0  0  0  0  0  0  0  0
   22.1455  -22.2887  -13.0046 C   0  0  0  0  0  0  0  0  0  0  0  0
   22.3486  -21.2041  -11.9703 C   0  0  2  0  0  0  0  0  0  0  0  0
   23.5077  -21.6354  -11.1733 N   0  0  0  0  0  0  0  0  0  0  0  0
   21.1636  -21.0161  -11.1064 C   0  0  0  0  0  0  0  0  0  0  0  0
   20.2238  -20.2364  -11.3462 O   0  0  0  0  0  0  0  0  0  0  0  0
   20.9770  -21.4157  -14.9618 C   0  0  0  0  0  0  0  0  0  0  0  0
   19.8349  -21.2695  -15.7192 C   0  0  0  0  0  0  0  0  0  0  0  0
   21.0826  -21.7598   -9.9383 O   0  0  0  0  0  0  0  0  0  0  0  0
  2  1  1  6
  2  3  1  0
  4  2  1  0
  4  5  1  6
  6  4  1  0
  6  8  1  0
  7  6  2  0
  9  8  1  0
  9 20  1  0
  9 10  1  1
 11 19  1  0
 11 10  1  0
 12 11  2  0
 13 12  1  0
 13 14  1  0
 14 15  1  0
 14 19  2  0
 15 16  2  0
 16 17  1  0
 18 17  2  0
 19 18  1  0
 20 29  1  0
 21 20  2  0
 22 23  1  0
 23 24  2  0
 23 33  1  0
 24 25  1  0
 25 26  2  0
 26 27  1  0
 28 27  1  6
 28 30  1  0
 29 28  1  0
 30 31  2  0
 30 34  1  0
 32 26  1  0
 33 32  2  0
M  END
$$$$
