VWY.pdb
     RDKit          3D

 34 36  0  0  1  0  0  0  0  0999 V2000
   22.2888  -20.3365  -17.8384 C   0  0  0  0  0  0  0  0  0  0  0  0
   23.6106  -20.3489  -17.0203 C   0  0  2  0  0  0  0  0  0  0  0  0
   24.6500  -20.7626  -18.0418 C   0  0  0  0  0  0  0  0  0  0  0  0
   23.4481  -21.3251  -15.8935 C   0  0  2  0  0  0  0  0  0  0  0  0
   23.1357  -22.6124  -16.5510 N   0  0  0  0  0  0  0  0  0  0  0  0
   22.4025  -21.0604  -14.9239 C   0  0  0  0  0  0  0  0  0  0  0  0
   22.5039  -20.0129  -14.1776 O   0  0  0  0  0  0  0  0  0  0  0  0
   21.2497  -21.8532  -14.7099 N   0  0  0  0  0  0  0  0  0  0  0  0
   20.2125  -21.4532  -13.7452 C   0  0  1  0  0  0  0  0  0  0  0  0
   18.9791  -21.0416  -14.4655 C   0  0  0  0  0  0  0  0  0  0  0  0
   19.0485  -19.7095  -15.0672 C   0  0  0  0  0  0  0  0  0  0  0  0
   19.2454  -18.5318  -14.3557 C   0  0  0  0  0  0  0  0  0  0  0  0
   19.2549  -17.5104  -15.2131 N   0  0  0  0  0  0  0  0  0  0  0  0
   19.0744  -17.9366  -16.4710 C   0  0  0  0  0  0  0  0  0  0  0  0
   19.0090  -17.2771  -17.6802 C   0  0  0  0  0  0  0  0  0  0  0  0
   18.8089  -18.0050  -18.8339 C   0  0  0  0  0  0  0  0  0  0  0  0
   18.6789  -19.3905  -18.7398 C   0  0  0  0  0  0  0  0  0  0  0  0
   18.7439  -20.0551  -17.5328 C   0  0  0  0  0  0  0  0  0  0  0  0
   18.9442  -19.3270  -16.3759 C   0  0  0  0  0  0  0  0  0  0  0  0
   19.8900  -22.5832  -12.8027 C   0  0  0  0  0  0  0  0  0  0  0  0
   20.0365  -23.7769  -13.1513 O   0  0  0  0  0  0  0  0  0  0  0  0
   16.8517  -26.1299   -5.2618 O   0  0  0  0  0  0  0  0  0  0  0  0
   17.4209  -25.3500   -6.2366 C   0  0  0  0  0  0  0  0  0  0  0  0
   18.7089  -25.5992   -6.6642 C   0  0  0  0  0  0  0  0  0  0  0  0
   19.2653  -24.8133   -7.6378 C   0  0  0  0  0  0  0  0  0  0  0  0
   18.5236  -23.7867   -8.1708 C   0  0  0  0  0  0  0  0  0  0  0  0
   19.0865  -22.9195   -9.2067 C   0  0  0  0  0  0  0  0  0  0  0  0
   18.9283  -23.4393  -10.6181 C   0  0  2  0  0  0  0  0  0  0  0  0
   19.4086  -22.3560  -11.4902 N   0  0  0  0  0  0  0  0  0  0  0  0
   17.5276  -23.7852  -10.9408 C   0  0  0  0  0  0  0  0  0  0  0  0
   16.6449  -22.9649  -11.2519 O   0  0  0  0  0  0  0  0  0  0  0  0
   17.2285  -23.5303   -7.7462 C   0  0  0  0  0  0  0  0  0  0  0  0
   16.6757  -24.3260   -6.7661 C   0  0  0  0  0  0  0  0  0  0  0  0
   17.1584  -25.1216  -10.8971 O   0  0  0  0  0  0  0  0  0  0  0  0
  2  1  1  6
  2  3  1  0
  4  2  1  0
  4  5  1  6
  6  4  1  0
  6  8  1  0
  7  6  2  0
  9  8  1  0
  9 20  1  0
  9 10  1  6
 11 19  1  0
 11 10  1  0
 12 11  2  0
 13 12  1  0
 13 14  1  0
 14 15  1  0
 14 19  2  0
 15 16  2  0
 16 17  1  0
 18 17  2  0
 19 18  1  0
 20 29  1  0
 21 20  2  0
 22 23  1  0
 23 24  2  0
 23 33  1  0
 24 25  1  0
 25 26  2  0
 26 27  1  0
 28 27  1  1
 28 30  1  0
 29 28  1  0
 30 31  2  0
 30 34  1  0
 32 26  1  0
 33 32  2  0
M  END
$$$$
