VWY.pdb
     RDKit          3D

 34 36  0  0  1  0  0  0  0  0999 V2000
   24.7111  -26.7190  -17.1868 C   0  0  0  0  0  0  0  0  0  0  0  0
   25.0317  -25.5335  -16.2336 C   0  0  2  0  0  0  0  0  0  0  0  0
   24.0953  -25.7615  -15.0649 C   0  0  0  0  0  0  0  0  0  0  0  0
   24.7705  -24.2579  -16.9778 C   0  0  2  0  0  0  0  0  0  0  0  0
   25.8470  -24.1830  -17.9889 N   0  0  0  0  0  0  0  0  0  0  0  0
   24.7932  -23.0228  -16.2178 C   0  0  0  0  0  0  0  0  0  0  0  0
   25.9328  -22.4686  -15.9751 O   0  0  0  0  0  0  0  0  0  0  0  0
   23.6625  -22.3436  -15.7048 N   0  0  0  0  0  0  0  0  0  0  0  0
   23.8012  -21.0975  -14.9337 C   0  0  1  0  0  0  0  0  0  0  0  0
   22.5685  -20.2775  -15.0660 C   0  0  0  0  0  0  0  0  0  0  0  0
   22.7496  -19.0332  -15.8147 C   0  0  0  0  0  0  0  0  0  0  0  0
   23.9471  -18.3333  -15.9037 C   0  0  0  0  0  0  0  0  0  0  0  0
   23.7553  -17.2516  -16.6599 N   0  0  0  0  0  0  0  0  0  0  0  0
   22.4872  -17.1831  -17.0884 C   0  0  0  0  0  0  0  0  0  0  0  0
   21.8163  -16.2736  -17.8787 C   0  0  0  0  0  0  0  0  0  0  0  0
   20.4803  -16.4764  -18.1522 C   0  0  0  0  0  0  0  0  0  0  0  0
   19.8484  -17.5995  -17.6185 C   0  0  0  0  0  0  0  0  0  0  0  0
   20.5149  -18.5123  -16.8278 C   0  0  0  0  0  0  0  0  0  0  0  0
   21.8537  -18.3104  -16.5528 C   0  0  0  0  0  0  0  0  0  0  0  0
   24.0552  -21.3909  -13.4782 C   0  0  0  0  0  0  0  0  0  0  0  0
   23.3619  -22.2288  -12.8576 O   0  0  0  0  0  0  0  0  0  0  0  0
   27.6298  -19.8369   -5.5064 O   0  0  0  0  0  0  0  0  0  0  0  0
   27.3454  -19.9151   -6.8464 C   0  0  0  0  0  0  0  0  0  0  0  0
   27.6565  -21.0550   -7.5591 C   0  0  0  0  0  0  0  0  0  0  0  0
   27.3674  -21.1200   -8.8960 C   0  0  0  0  0  0  0  0  0  0  0  0
   26.7702  -20.0412   -9.5023 C   0  0  0  0  0  0  0  0  0  0  0  0
   26.4539  -20.0694  -10.9310 C   0  0  0  0  0  0  0  0  0  0  0  0
   25.2394  -20.8956  -11.2913 C   0  0  2  0  0  0  0  0  0  0  0  0
   25.0779  -20.7404  -12.7455 N   0  0  0  0  0  0  0  0  0  0  0  0
   24.0209  -20.4510  -10.5818 C   0  0  0  0  0  0  0  0  0  0  0  0
   23.3290  -19.4674  -10.9022 O   0  0  0  0  0  0  0  0  0  0  0  0
   26.4546  -18.8924   -8.7925 C   0  0  0  0  0  0  0  0  0  0  0  0
   26.7485  -18.8349   -7.4474 C   0  0  0  0  0  0  0  0  0  0  0  0
   23.6083  -21.1776   -9.4745 O   0  0  0  0  0  0  0  0  0  0  0  0
  2  1  1  6
  2  3  1  0
  4  2  1  0
  4  5  1  6
  6  4  1  0
  6  8  1  0
  7  6  2  0
  9  8  1  0
  9 20  1  0
  9 10  1  1
 11 19  1  0
 11 10  1  0
 12 11  2  0
 13 12  1  0
 13 14  1  0
 14 15  1  0
 14 19  2  0
 15 16  2  0
 16 17  1  0
 18 17  2  0
 19 18  1  0
 20 29  1  0
 21 20  2  0
 22 23  1  0
 23 24  2  0
 23 33  1  0
 24 25  1  0
 25 26  2  0
 26 27  1  0
 28 27  1  1
 28 30  1  0
 29 28  1  0
 30 31  2  0
 30 34  1  0
 32 26  1  0
 33 32  2  0
M  END
$$$$
