GCM.pdb
     RDKit          3D

 19 18  0  0  1  0  0  0  0  0999 V2000
   26.9529  -14.7165  -16.0832 N   0  0  0  0  0  0  0  0  0  0  0  0
   26.1631  -13.5349  -15.8033 C   0  0  0  0  0  0  0  0  0  0  0  0
   26.6768  -12.4273  -16.6415 C   0  0  0  0  0  0  0  0  0  0  0  0
   27.5356  -12.6625  -17.5376 O   0  0  0  0  0  0  0  0  0  0  0  0
   26.2538  -11.0842  -16.4972 N   0  0  0  0  0  0  0  0  0  0  0  0
   26.7165  -10.0009  -17.3858 C   0  0  1  0  0  0  0  0  0  0  0  0
   25.7678   -8.8405  -17.2822 C   0  0  0  0  0  0  0  0  0  0  0  0
   26.3255   -7.3586  -18.1257 S   0  0  0  0  0  0  0  0  0  0  0  0
   28.0810   -9.6008  -17.0095 C   0  0  0  0  0  0  0  0  0  0  0  0
   28.3979   -9.4227  -15.7854 O   0  0  0  0  0  0  0  0  0  0  0  0
   35.2060  -11.8671  -17.6947 C   0  0  0  0  0  0  0  0  0  0  0  0
   33.4323  -11.8867  -18.1557 S   0  0  0  0  0  0  0  0  0  0  0  0
   32.6858  -10.3251  -17.5458 C   0  0  0  0  0  0  0  0  0  0  0  0
   31.2418  -10.3698  -17.9211 C   0  0  0  0  0  0  0  0  0  0  0  0
   30.4735   -9.1087  -17.5899 C   0  0  2  0  0  0  0  0  0  0  0  0
   29.0819   -9.4046  -17.9664 N   0  0  0  0  0  0  0  0  0  0  0  0
   30.8994   -7.9417  -18.3955 C   0  0  0  0  0  0  0  0  0  0  0  0
   31.9764   -7.1251  -18.0739 O   0  0  0  0  0  0  0  0  0  0  0  0
   30.2888   -7.6057  -19.4610 O   0  0  0  0  0  0  0  0  0  0  0  0
  2  3  1  0
  2  1  1  0
  3  5  1  0
  4  3  2  0
  6  5  1  0
  6  9  1  0
  6  7  1  1
  7  8  1  0
  9 16  1  0
  9 10  2  0
 11 12  1  0
 13 12  1  0
 13 14  1  0
 15 14  1  6
 15 17  1  0
 16 15  1  0
 17 19  2  0
 17 18  1  0
M  END
$$$$
