GCM.pdb
     RDKit          3D

 19 18  0  0  1  0  0  0  0  0999 V2000
   15.0276  -13.1819  -15.4552 N   0  0  0  0  0  0  0  0  0  0  0  0
   15.0273  -11.8860  -14.8081 C   0  0  0  0  0  0  0  0  0  0  0  0
   16.0660  -11.0489  -15.4512 C   0  0  0  0  0  0  0  0  0  0  0  0
   16.8462  -11.5589  -16.3038 O   0  0  0  0  0  0  0  0  0  0  0  0
   16.2441   -9.6747  -15.1620 N   0  0  0  0  0  0  0  0  0  0  0  0
   17.1820   -8.8158  -15.9102 C   0  0  1  0  0  0  0  0  0  0  0  0
   16.4976   -7.5234  -16.2549 C   0  0  0  0  0  0  0  0  0  0  0  0
   17.5926   -6.2671  -16.9191 S   0  0  0  0  0  0  0  0  0  0  0  0
   18.3858   -8.5744  -15.1003 C   0  0  0  0  0  0  0  0  0  0  0  0
   18.2973   -8.3371  -13.8487 O   0  0  0  0  0  0  0  0  0  0  0  0
   25.9558  -10.3309  -14.6329 C   0  0  0  0  0  0  0  0  0  0  0  0
   24.2931  -10.4997  -15.3854 S   0  0  0  0  0  0  0  0  0  0  0  0
   23.2146   -9.2183  -14.6352 C   0  0  0  0  0  0  0  0  0  0  0  0
   21.8762   -9.3586  -15.2810 C   0  0  0  0  0  0  0  0  0  0  0  0
   20.8710   -8.3069  -14.8643 C   0  0  2  0  0  0  0  0  0  0  0  0
   19.6675   -8.5989  -15.6594 N   0  0  0  0  0  0  0  0  0  0  0  0
   21.2937   -6.9310  -15.2111 C   0  0  0  0  0  0  0  0  0  0  0  0
   22.0471   -6.1145  -14.3768 O   0  0  0  0  0  0  0  0  0  0  0  0
   20.9847   -6.3970  -16.3247 O   0  0  0  0  0  0  0  0  0  0  0  0
  2  3  1  0
  2  1  1  0
  3  5  1  0
  4  3  2  0
  6  5  1  0
  6  9  1  0
  6  7  1  1
  7  8  1  0
  9 16  1  0
  9 10  2  0
 11 12  1  0
 13 12  1  0
 13 14  1  0
 15 14  1  6
 15 17  1  0
 16 15  1  0
 17 19  2  0
 17 18  1  0
M  END
$$$$
