GCM.pdb
     RDKit          3D

 19 18  0  0  1  0  0  0  0  0999 V2000
   14.6272  -23.2825   -2.6917 N   0  0  0  0  0  0  0  0  0  0  0  0
   13.9339  -22.8656   -1.4900 C   0  0  0  0  0  0  0  0  0  0  0  0
   14.9324  -22.2997   -0.5541 C   0  0  0  0  0  0  0  0  0  0  0  0
   16.1608  -22.3363   -0.8468 O   0  0  0  0  0  0  0  0  0  0  0  0
   14.5867  -21.7036    0.6824 N   0  0  0  0  0  0  0  0  0  0  0  0
   15.5941  -21.2118    1.6417 C   0  0  1  0  0  0  0  0  0  0  0  0
   14.9631  -20.1785    2.5314 C   0  0  0  0  0  0  0  0  0  0  0  0
   16.1000  -19.4138    3.6895 S   0  0  0  0  0  0  0  0  0  0  0  0
   16.1174  -22.3374    2.4307 C   0  0  0  0  0  0  0  0  0  0  0  0
   15.3537  -23.2938    2.7949 O   0  0  0  0  0  0  0  0  0  0  0  0
   21.3967  -24.3131    0.9920 C   0  0  0  0  0  0  0  0  0  0  0  0
   21.6341  -25.1780    2.5904 S   0  0  0  0  0  0  0  0  0  0  0  0
   20.1021  -24.9503    3.5746 C   0  0  0  0  0  0  0  0  0  0  0  0
   19.3205  -23.8721    2.9003 C   0  0  0  0  0  0  0  0  0  0  0  0
   17.9985  -23.5537    3.5644 C   0  0  2  0  0  0  0  0  0  0  0  0
   17.4619  -22.4106    2.8086 N   0  0  0  0  0  0  0  0  0  0  0  0
   18.1471  -23.1103    4.9693 C   0  0  0  0  0  0  0  0  0  0  0  0
   18.2912  -23.9748    6.0473 O   0  0  0  0  0  0  0  0  0  0  0  0
   18.1521  -21.8768    5.2844 O   0  0  0  0  0  0  0  0  0  0  0  0
  2  3  1  0
  2  1  1  0
  3  5  1  0
  4  3  2  0
  6  5  1  0
  6  9  1  0
  6  7  1  1
  7  8  1  0
  9 16  1  0
  9 10  2  0
 11 12  1  0
 13 12  1  0
 13 14  1  0
 15 14  1  6
 15 17  1  0
 16 15  1  0
 17 19  2  0
 17 18  1  0
M  END
$$$$
