GCM.pdb
     RDKit          3D

 19 18  0  0  1  0  0  0  0  0999 V2000
   18.6410  -14.6495  -18.3348 N   0  0  0  0  0  0  0  0  0  0  0  0
   17.8600  -13.8023  -17.4571 C   0  0  0  0  0  0  0  0  0  0  0  0
   18.2910  -12.4008  -17.6648 C   0  0  0  0  0  0  0  0  0  0  0  0
   19.0509  -12.1129  -18.6320 O   0  0  0  0  0  0  0  0  0  0  0  0
   17.8936  -11.3338  -16.8237 N   0  0  0  0  0  0  0  0  0  0  0  0
   18.2637   -9.9296  -17.0854 C   0  0  1  0  0  0  0  0  0  0  0  0
   17.0247   -9.0803  -17.0554 C   0  0  0  0  0  0  0  0  0  0  0  0
   17.3439   -7.3151  -17.0752 S   0  0  0  0  0  0  0  0  0  0  0  0
   19.2361   -9.4781  -16.0784 C   0  0  0  0  0  0  0  0  0  0  0  0
   19.0947   -9.7846  -14.8468 O   0  0  0  0  0  0  0  0  0  0  0  0
   25.0982  -11.2371  -14.4743 C   0  0  0  0  0  0  0  0  0  0  0  0
   25.1686   -9.7132  -15.4902 S   0  0  0  0  0  0  0  0  0  0  0  0
   23.7890   -8.6281  -14.9548 C   0  0  0  0  0  0  0  0  0  0  0  0
   22.5957   -9.0320  -15.7555 C   0  0  0  0  0  0  0  0  0  0  0  0
   21.3342   -8.2655  -15.4220 C   0  0  2  0  0  0  0  0  0  0  0  0
   20.3494   -8.7052  -16.4234 N   0  0  0  0  0  0  0  0  0  0  0  0
   21.4862   -6.8013  -15.5806 C   0  0  0  0  0  0  0  0  0  0  0  0
   22.0267   -5.9653  -14.6114 O   0  0  0  0  0  0  0  0  0  0  0  0
   21.1213   -6.2021  -16.6430 O   0  0  0  0  0  0  0  0  0  0  0  0
  2  3  1  0
  2  1  1  0
  3  5  1  0
  4  3  2  0
  6  5  1  0
  6  9  1  0
  6  7  1  1
  7  8  1  0
  9 16  1  0
  9 10  2  0
 11 12  1  0
 13 12  1  0
 13 14  1  0
 15 14  1  6
 15 17  1  0
 16 15  1  0
 17 19  2  0
 17 18  1  0
M  END
$$$$
