GCM.pdb
     RDKit          3D

 19 18  0  0  1  0  0  0  0  0999 V2000
   28.3238  -19.0463  -15.7941 N   0  0  0  0  0  0  0  0  0  0  0  0
   28.1306  -20.1428  -14.8674 C   0  0  0  0  0  0  0  0  0  0  0  0
   27.2201  -19.6841  -13.7932 C   0  0  0  0  0  0  0  0  0  0  0  0
   26.9197  -18.4604  -13.7030 O   0  0  0  0  0  0  0  0  0  0  0  0
   26.6497  -20.5555  -12.8346 N   0  0  0  0  0  0  0  0  0  0  0  0
   25.7179  -20.0925  -11.7884 C   0  0  1  0  0  0  0  0  0  0  0  0
   24.3065  -20.3117  -12.2544 C   0  0  0  0  0  0  0  0  0  0  0  0
   24.1311  -20.4266  -14.0362 S   0  0  0  0  0  0  0  0  0  0  0  0
   25.9781  -20.8198  -10.5367 C   0  0  0  0  0  0  0  0  0  0  0  0
   26.1423  -22.0862  -10.5362 O   0  0  0  0  0  0  0  0  0  0  0  0
   28.2397  -19.1906   -4.3108 C   0  0  0  0  0  0  0  0  0  0  0  0
   28.7003  -18.5794   -5.9762 S   0  0  0  0  0  0  0  0  0  0  0  0
   28.1452  -19.8317   -7.1973 C   0  0  0  0  0  0  0  0  0  0  0  0
   26.6683  -19.9654   -7.0269 C   0  0  0  0  0  0  0  0  0  0  0  0
   26.0077  -20.8892   -8.0272 C   0  0  2  0  0  0  0  0  0  0  0  0
   26.0610  -20.1617   -9.3054 N   0  0  0  0  0  0  0  0  0  0  0  0
   24.5782  -21.1372   -7.7314 C   0  0  0  0  0  0  0  0  0  0  0  0
   23.5268  -20.5723   -8.4425 O   0  0  0  0  0  0  0  0  0  0  0  0
   24.2148  -21.9038   -6.7821 O   0  0  0  0  0  0  0  0  0  0  0  0
  2  3  1  0
  2  1  1  0
  3  5  1  0
  4  3  2  0
  6  5  1  0
  6  9  1  0
  6  7  1  6
  7  8  1  0
  9 16  1  0
  9 10  2  0
 11 12  1  0
 13 12  1  0
 13 14  1  0
 15 14  1  1
 15 17  1  0
 16 15  1  0
 17 19  2  0
 17 18  1  0
M  END
$$$$
