GCM.pdb
     RDKit          3D

 19 18  0  0  1  0  0  0  0  0999 V2000
   13.5697   -9.6966   -9.3506 N   0  0  0  0  0  0  0  0  0  0  0  0
   14.7886   -9.1708   -8.7710 C   0  0  0  0  0  0  0  0  0  0  0  0
   15.3119   -8.1189   -9.6727 C   0  0  0  0  0  0  0  0  0  0  0  0
   14.8438   -8.0009  -10.8401 O   0  0  0  0  0  0  0  0  0  0  0  0
   16.3321   -7.2121   -9.2976 N   0  0  0  0  0  0  0  0  0  0  0  0
   16.7851   -6.1130  -10.1715 C   0  0  1  0  0  0  0  0  0  0  0  0
   16.3961   -4.8002   -9.5528 C   0  0  0  0  0  0  0  0  0  0  0  0
   17.0554   -3.3642  -10.4023 S   0  0  0  0  0  0  0  0  0  0  0  0
   18.2418   -6.1965  -10.3573 C   0  0  0  0  0  0  0  0  0  0  0  0
   19.0252   -6.3084   -9.3550 O   0  0  0  0  0  0  0  0  0  0  0  0
   23.0299  -10.5735  -13.6601 C   0  0  0  0  0  0  0  0  0  0  0  0
   21.6518   -9.4593  -14.1277 S   0  0  0  0  0  0  0  0  0  0  0  0
   21.7725   -7.9601  -13.0763 C   0  0  0  0  0  0  0  0  0  0  0  0
   20.3771   -7.6020  -12.6855 C   0  0  0  0  0  0  0  0  0  0  0  0
   20.2706   -6.3603  -11.8270 C   0  0  2  0  0  0  0  0  0  0  0  0
   18.8261   -6.1621  -11.6274 N   0  0  0  0  0  0  0  0  0  0  0  0
   20.7838   -5.1448  -12.4990 C   0  0  0  0  0  0  0  0  0  0  0  0
   19.9897   -4.2557  -13.2126 O   0  0  0  0  0  0  0  0  0  0  0  0
   22.0172   -4.8312  -12.4635 O   0  0  0  0  0  0  0  0  0  0  0  0
  2  3  1  0
  2  1  1  0
  3  5  1  0
  4  3  2  0
  6  5  1  0
  6  9  1  0
  6  7  1  1
  7  8  1  0
  9 16  1  0
  9 10  2  0
 11 12  1  0
 13 12  1  0
 13 14  1  0
 15 14  1  6
 15 17  1  0
 16 15  1  0
 17 19  2  0
 17 18  1  0
M  END
$$$$
