GCM.pdb
     RDKit          3D

 19 18  0  0  1  0  0  0  0  0999 V2000
   29.5821  -19.4815  -15.4871 N   0  0  0  0  0  0  0  0  0  0  0  0
   28.2712  -19.1382  -15.9989 C   0  0  0  0  0  0  0  0  0  0  0  0
   27.3424  -19.0264  -14.8508 C   0  0  0  0  0  0  0  0  0  0  0  0
   27.2772  -17.9475  -14.1969 O   0  0  0  0  0  0  0  0  0  0  0  0
   26.4997  -20.0825  -14.4285 N   0  0  0  0  0  0  0  0  0  0  0  0
   25.4836  -19.9198  -13.3710 C   0  0  1  0  0  0  0  0  0  0  0  0
   24.1670  -20.4456  -13.8686 C   0  0  0  0  0  0  0  0  0  0  0  0
   22.8638  -20.4470  -12.6357 S   0  0  0  0  0  0  0  0  0  0  0  0
   25.9119  -20.6346  -12.1590 C   0  0  0  0  0  0  0  0  0  0  0  0
   26.3205  -21.8429  -12.2203 O   0  0  0  0  0  0  0  0  0  0  0  0
   29.8597  -19.2887   -7.2607 C   0  0  0  0  0  0  0  0  0  0  0  0
   28.1832  -19.1267   -6.5380 S   0  0  0  0  0  0  0  0  0  0  0  0
   27.0989  -20.3449   -7.3794 C   0  0  0  0  0  0  0  0  0  0  0  0
   26.9664  -19.8890   -8.7945 C   0  0  0  0  0  0  0  0  0  0  0  0
   26.1143  -20.7906   -9.6614 C   0  0  2  0  0  0  0  0  0  0  0  0
   25.8949  -20.0263  -10.8997 N   0  0  0  0  0  0  0  0  0  0  0  0
   24.7798  -21.0619   -9.0800 C   0  0  0  0  0  0  0  0  0  0  0  0
   24.5437  -21.9884   -8.0720 O   0  0  0  0  0  0  0  0  0  0  0  0
   23.7389  -20.4466   -9.4784 O   0  0  0  0  0  0  0  0  0  0  0  0
  2  3  1  0
  2  1  1  0
  3  5  1  0
  4  3  2  0
  6  5  1  0
  6  9  1  0
  6  7  1  6
  7  8  1  0
  9 16  1  0
  9 10  2  0
 11 12  1  0
 13 12  1  0
 13 14  1  0
 15 14  1  1
 15 17  1  0
 16 15  1  0
 17 19  2  0
 17 18  1  0
M  END
$$$$
