IEL.pdb
     RDKit          3D

 26 25  0  0  1  0  0  0  0  0999 V2000
   16.2549  -19.1377  -13.6287 C   0  0  0  0  0  0  0  0  0  0  0  0
   17.0238  -19.1623  -14.9109 C   0  0  0  0  0  0  0  0  0  0  0  0
   18.2741  -19.9837  -14.8350 C   0  0  2  0  0  0  0  0  0  0  0  0
   17.9501  -21.3810  -14.3465 C   0  0  0  0  0  0  0  0  0  0  0  0
   19.3757  -19.3506  -14.0467 C   0  0  2  0  0  0  0  0  0  0  0  0
   19.4911  -17.9739  -14.5917 N   0  0  0  0  0  0  0  0  0  0  0  0
   20.7140  -19.9803  -14.2751 C   0  0  0  0  0  0  0  0  0  0  0  0
   20.9380  -21.0495  -13.6689 O   0  0  0  0  0  0  0  0  0  0  0  0
   21.6897  -19.4455  -15.1089 N   0  0  0  0  0  0  0  0  0  0  0  0
   22.9817  -19.9072  -15.4531 C   0  0  1  0  0  0  0  0  0  0  0  0
   23.4574  -19.6348  -16.8350 C   0  0  0  0  0  0  0  0  0  0  0  0
   23.1318  -20.6086  -17.8986 C   0  0  0  0  0  0  0  0  0  0  0  0
   23.5949  -20.2549  -19.2577 C   0  0  0  0  0  0  0  0  0  0  0  0
   24.2034  -19.1978  -19.5448 O   0  0  0  0  0  0  0  0  0  0  0  0
   24.0793  -19.8138  -14.4957 C   0  0  0  0  0  0  0  0  0  0  0  0
   24.2572  -18.6567  -13.9490 O   0  0  0  0  0  0  0  0  0  0  0  0
   23.3552  -21.1370  -20.3234 O   0  0  0  0  0  0  0  0  0  0  0  0
   24.9219  -21.7734   -9.5896 C   0  0  0  0  0  0  0  0  0  0  0  0
   24.9834  -20.7358  -10.7252 C   0  0  1  0  0  0  0  0  0  0  0  0
   25.6015  -19.5036  -10.1048 C   0  0  0  0  0  0  0  0  0  0  0  0
   25.8175  -21.3450  -11.7913 C   0  0  0  0  0  0  0  0  0  0  0  0
   25.9988  -20.5397  -13.0374 C   0  0  2  0  0  0  0  0  0  0  0  0
   24.9993  -20.7734  -14.0629 N   0  0  0  0  0  0  0  0  0  0  0  0
   27.3078  -20.9074  -13.6088 C   0  0  0  0  0  0  0  0  0  0  0  0
   27.3793  -21.5914  -14.6427 O   0  0  0  0  0  0  0  0  0  0  0  0
   28.4660  -20.4862  -12.9875 O   0  0  0  0  0  0  0  0  0  0  0  0
  1  2  1  0
  2  3  1  0
  3  5  1  0
  3  4  1  1
  5  6  1  6
  7  5  1  0
  7  8  2  0
  9 10  1  0
  9  7  1  0
 11 12  1  0
 10 11  1  6
 12 13  1  0
 13 14  2  0
 13 17  1  0
 15 16  2  0
 15 10  1  0
 19 18  1  1
 19 20  1  0
 19 21  1  0
 22 21  1  1
 22 23  1  0
 22 24  1  0
 23 15  1  0
 24 26  1  0
 25 24  2  0
M  END
$$$$
