IEL.pdb
     RDKit          3D

 26 25  0  0  1  0  0  0  0  0999 V2000
   17.2010  -16.5055  -15.7635 C   0  0  0  0  0  0  0  0  0  0  0  0
   16.3256  -15.3031  -15.9184 C   0  0  0  0  0  0  0  0  0  0  0  0
   17.0909  -14.0468  -16.2009 C   0  0  2  0  0  0  0  0  0  0  0  0
   18.1886  -13.8636  -15.1724 C   0  0  0  0  0  0  0  0  0  0  0  0
   16.2365  -12.8275  -16.3389 C   0  0  2  0  0  0  0  0  0  0  0  0
   15.3326  -13.1233  -17.4795 N   0  0  0  0  0  0  0  0  0  0  0  0
   16.9987  -11.6050  -16.7446 C   0  0  0  0  0  0  0  0  0  0  0  0
   17.9642  -11.7809  -17.5178 O   0  0  0  0  0  0  0  0  0  0  0  0
   16.6883  -10.3200  -16.3139 N   0  0  0  0  0  0  0  0  0  0  0  0
   17.3819   -9.0947  -16.4497 C   0  0  1  0  0  0  0  0  0  0  0  0
   16.5691   -7.8751  -16.6988 C   0  0  0  0  0  0  0  0  0  0  0  0
   17.2699   -6.5911  -16.9133 C   0  0  0  0  0  0  0  0  0  0  0  0
   17.0222   -5.9331  -18.2142 C   0  0  0  0  0  0  0  0  0  0  0  0
   15.8883   -5.7814  -18.7255 O   0  0  0  0  0  0  0  0  0  0  0  0
   18.5254   -8.7938  -15.5940 C   0  0  0  0  0  0  0  0  0  0  0  0
   18.3104   -8.8493  -14.3212 O   0  0  0  0  0  0  0  0  0  0  0  0
   18.1045   -5.4321  -18.9550 O   0  0  0  0  0  0  0  0  0  0  0  0
   23.7803  -10.6062  -15.2784 C   0  0  0  0  0  0  0  0  0  0  0  0
   22.3356  -10.2261  -14.9064 C   0  0  1  0  0  0  0  0  0  0  0  0
   22.2109  -10.5336  -13.4316 C   0  0  0  0  0  0  0  0  0  0  0  0
   22.1973   -8.7829  -15.2251 C   0  0  0  0  0  0  0  0  0  0  0  0
   20.8704   -8.1603  -14.9329 C   0  0  2  0  0  0  0  0  0  0  0  0
   19.8389   -8.4386  -15.9147 N   0  0  0  0  0  0  0  0  0  0  0  0
   21.0692   -6.6990  -14.9079 C   0  0  0  0  0  0  0  0  0  0  0  0
   20.5466   -5.9727  -15.7687 O   0  0  0  0  0  0  0  0  0  0  0  0
   21.8447   -6.1329  -13.9164 O   0  0  0  0  0  0  0  0  0  0  0  0
  1  2  1  0
  2  3  1  0
  3  5  1  0
  3  4  1  1
  5  6  1  6
  7  5  1  0
  7  8  2  0
  9 10  1  0
  9  7  1  0
 11 12  1  0
 10 11  1  1
 12 13  1  0
 13 14  2  0
 13 17  1  0
 15 16  2  0
 15 10  1  0
 19 18  1  1
 19 20  1  0
 19 21  1  0
 22 21  1  6
 22 23  1  0
 22 24  1  0
 23 15  1  0
 24 26  1  0
 25 24  2  0
M  END
$$$$
