IEL.pdb
     RDKit          3D

 26 25  0  0  1  0  0  0  0  0999 V2000
   30.1779  -19.3877  -17.2084 C   0  0  0  0  0  0  0  0  0  0  0  0
   28.7234  -19.0954  -17.3955 C   0  0  0  0  0  0  0  0  0  0  0  0
   28.0146  -18.7772  -16.1149 C   0  0  2  0  0  0  0  0  0  0  0  0
   28.3809  -17.3822  -15.6501 C   0  0  0  0  0  0  0  0  0  0  0  0
   28.2042  -19.7991  -15.0399 C   0  0  2  0  0  0  0  0  0  0  0  0
   27.7829  -21.0827  -15.6565 N   0  0  0  0  0  0  0  0  0  0  0  0
   27.2969  -19.6077  -13.8651 C   0  0  0  0  0  0  0  0  0  0  0  0
   27.5863  -18.6776  -13.0827 O   0  0  0  0  0  0  0  0  0  0  0  0
   26.1782  -20.3943  -13.6139 N   0  0  0  0  0  0  0  0  0  0  0  0
   25.2194  -20.3524  -12.5748 C   0  0  1  0  0  0  0  0  0  0  0  0
   23.8105  -20.6619  -12.9342 C   0  0  0  0  0  0  0  0  0  0  0  0
   22.7691  -20.5214  -11.8943 C   0  0  0  0  0  0  0  0  0  0  0  0
   21.4042  -20.9277  -12.2922 C   0  0  0  0  0  0  0  0  0  0  0  0
   21.1065  -21.4052  -13.4119 O   0  0  0  0  0  0  0  0  0  0  0  0
   25.5443  -20.8666  -11.2481 C   0  0  0  0  0  0  0  0  0  0  0  0
   26.0700  -22.0463  -11.2110 O   0  0  0  0  0  0  0  0  0  0  0  0
   20.3449  -20.7842  -11.3820 O   0  0  0  0  0  0  0  0  0  0  0  0
   28.0360  -18.6707   -6.7337 C   0  0  0  0  0  0  0  0  0  0  0  0
   27.7361  -19.6863   -7.8511 C   0  0  1  0  0  0  0  0  0  0  0  0
   28.6877  -20.8358   -7.6094 C   0  0  0  0  0  0  0  0  0  0  0  0
   26.3071  -20.0563   -7.6949 C   0  0  0  0  0  0  0  0  0  0  0  0
   25.7346  -20.9591   -8.7395 C   0  0  2  0  0  0  0  0  0  0  0  0
   25.3747  -20.3003   -9.9812 N   0  0  0  0  0  0  0  0  0  0  0  0
   24.5023  -21.5469   -8.1816 C   0  0  0  0  0  0  0  0  0  0  0  0
   23.3871  -21.2047   -8.6070 O   0  0  0  0  0  0  0  0  0  0  0  0
   24.5900  -22.4878   -7.1756 O   0  0  0  0  0  0  0  0  0  0  0  0
  1  2  1  0
  2  3  1  0
  3  5  1  0
  3  4  1  1
  5  6  1  6
  7  5  1  0
  7  8  2  0
  9 10  1  0
  9  7  1  0
 11 12  1  0
 10 11  1  6
 12 13  1  0
 13 14  2  0
 13 17  1  0
 15 16  2  0
 15 10  1  0
 19 18  1  1
 19 20  1  0
 19 21  1  0
 22 21  1  1
 22 23  1  0
 22 24  1  0
 23 15  1  0
 24 26  1  0
 25 24  2  0
M  END
$$$$
