IEL.pdb
     RDKit          3D

 26 25  0  0  1  0  0  0  0  0999 V2000
   22.8746  -13.5901  -15.2681 C   0  0  0  0  0  0  0  0  0  0  0  0
   23.3062  -12.1601  -15.3395 C   0  0  0  0  0  0  0  0  0  0  0  0
   22.3219  -11.2798  -16.0465 C   0  0  2  0  0  0  0  0  0  0  0  0
   21.9404  -11.8915  -17.3795 C   0  0  0  0  0  0  0  0  0  0  0  0
   22.7604   -9.8568  -16.1824 C   0  0  2  0  0  0  0  0  0  0  0  0
   23.0761   -9.4220  -14.7979 N   0  0  0  0  0  0  0  0  0  0  0  0
   21.6750   -8.9376  -16.6481 C   0  0  0  0  0  0  0  0  0  0  0  0
   21.2930   -9.0791  -17.8292 O   0  0  0  0  0  0  0  0  0  0  0  0
   21.0886   -7.9633  -15.8482 N   0  0  0  0  0  0  0  0  0  0  0  0
   20.0167   -7.0731  -16.0921 C   0  0  1  0  0  0  0  0  0  0  0  0
   18.8438   -7.1526  -15.1822 C   0  0  0  0  0  0  0  0  0  0  0  0
   17.6672   -6.3053  -15.4710 C   0  0  0  0  0  0  0  0  0  0  0  0
   16.5427   -6.4201  -14.5176 C   0  0  0  0  0  0  0  0  0  0  0  0
   16.5291   -7.1905  -13.5294 O   0  0  0  0  0  0  0  0  0  0  0  0
   20.2777   -5.6926  -16.4874 C   0  0  0  0  0  0  0  0  0  0  0  0
   21.1314   -5.0478  -15.7630 O   0  0  0  0  0  0  0  0  0  0  0  0
   15.3968   -5.6293  -14.6985 O   0  0  0  0  0  0  0  0  0  0  0  0
   20.4246   -3.1227  -21.5779 C   0  0  0  0  0  0  0  0  0  0  0  0
   20.8852   -3.6590  -20.2103 C   0  0  1  0  0  0  0  0  0  0  0  0
   22.2972   -3.1476  -20.0378 C   0  0  0  0  0  0  0  0  0  0  0  0
   19.9305   -3.1123  -19.2138 C   0  0  0  0  0  0  0  0  0  0  0  0
   20.1234   -3.5483  -17.7972 C   0  0  2  0  0  0  0  0  0  0  0  0
   19.7485   -4.9239  -17.5283 N   0  0  0  0  0  0  0  0  0  0  0  0
   19.2705   -2.6886  -16.9553 C   0  0  0  0  0  0  0  0  0  0  0  0
   18.3218   -3.1690  -16.3142 O   0  0  0  0  0  0  0  0  0  0  0  0
   19.5300   -1.3352  -16.8792 O   0  0  0  0  0  0  0  0  0  0  0  0
  1  2  1  0
  2  3  1  0
  3  5  1  0
  3  4  1  6
  5  6  1  1
  7  5  1  0
  7  8  2  0
  9 10  1  0
  9  7  1  0
 11 12  1  0
 10 11  1  1
 12 13  1  0
 13 14  2  0
 13 17  1  0
 15 16  2  0
 15 10  1  0
 19 18  1  6
 19 20  1  0
 19 21  1  0
 22 21  1  6
 22 23  1  0
 22 24  1  0
 23 15  1  0
 24 26  1  0
 25 24  2  0
M  END
$$$$
