IEL.pdb
     RDKit          3D

 26 25  0  0  1  0  0  0  0  0999 V2000
   33.2743  -22.4339  -10.6240 C   0  0  0  0  0  0  0  0  0  0  0  0
   32.4209  -22.3582  -11.8496 C   0  0  0  0  0  0  0  0  0  0  0  0
   31.0750  -21.7515  -11.5966 C   0  0  2  0  0  0  0  0  0  0  0  0
   30.4033  -22.4439  -10.4279 C   0  0  0  0  0  0  0  0  0  0  0  0
   30.1927  -21.6940  -12.8025 C   0  0  2  0  0  0  0  0  0  0  0  0
   30.9771  -20.9386  -13.8122 N   0  0  0  0  0  0  0  0  0  0  0  0
   28.9440  -20.8961  -12.5934 C   0  0  0  0  0  0  0  0  0  0  0  0
   29.0810  -19.6570  -12.5117 O   0  0  0  0  0  0  0  0  0  0  0  0
   27.6751  -21.4555  -12.4910 N   0  0  0  0  0  0  0  0  0  0  0  0
   26.4459  -20.9119  -12.0500 C   0  0  1  0  0  0  0  0  0  0  0  0
   25.3272  -20.8738  -13.0283 C   0  0  0  0  0  0  0  0  0  0  0  0
   25.5520  -20.2156  -14.3328 C   0  0  0  0  0  0  0  0  0  0  0  0
   24.5247  -19.2345  -14.7434 C   0  0  0  0  0  0  0  0  0  0  0  0
   23.3683  -19.1787  -14.2639 O   0  0  0  0  0  0  0  0  0  0  0  0
   25.9535  -21.1930  -10.7051 C   0  0  0  0  0  0  0  0  0  0  0  0
   26.7357  -21.8912   -9.9501 O   0  0  0  0  0  0  0  0  0  0  0  0
   24.8277  -18.2863  -15.7335 O   0  0  0  0  0  0  0  0  0  0  0  0
   27.4592  -19.4217   -6.7050 C   0  0  0  0  0  0  0  0  0  0  0  0
   26.7823  -20.5101   -7.5578 C   0  0  1  0  0  0  0  0  0  0  0  0
   26.8214  -21.7610   -6.7099 C   0  0  0  0  0  0  0  0  0  0  0  0
   25.4075  -20.0208   -7.8298 C   0  0  0  0  0  0  0  0  0  0  0  0
   24.5315  -20.9148   -8.6465 C   0  0  2  0  0  0  0  0  0  0  0  0
   24.7544  -20.8413  -10.0784 N   0  0  0  0  0  0  0  0  0  0  0  0
   23.1364  -20.5053   -8.3983 C   0  0  0  0  0  0  0  0  0  0  0  0
   22.5668  -19.7019   -9.1545 O   0  0  0  0  0  0  0  0  0  0  0  0
   22.4568  -21.0212   -7.3135 O   0  0  0  0  0  0  0  0  0  0  0  0
  1  2  1  0
  2  3  1  0
  3  5  1  0
  3  4  1  1
  5  6  1  6
  7  5  1  0
  7  8  2  0
  9 10  1  0
  9  7  1  0
 11 12  1  0
 10 11  1  6
 12 13  1  0
 13 14  2  0
 13 17  1  0
 15 16  2  0
 15 10  1  0
 19 18  1  1
 19 20  1  0
 19 21  1  0
 22 21  1  1
 22 23  1  0
 22 24  1  0
 23 15  1  0
 24 26  1  0
 25 24  2  0
M  END
$$$$
