IEL.pdb
     RDKit          3D

 26 25  0  0  1  0  0  0  0  0999 V2000
   28.8129  -12.3841  -16.2721 C   0  0  0  0  0  0  0  0  0  0  0  0
   27.4013  -12.8737  -16.2098 C   0  0  0  0  0  0  0  0  0  0  0  0
   26.3898  -11.7700  -16.2594 C   0  0  2  0  0  0  0  0  0  0  0  0
   26.5868  -10.8304  -15.0868 C   0  0  0  0  0  0  0  0  0  0  0  0
   24.9753  -12.2406  -16.3751 C   0  0  2  0  0  0  0  0  0  0  0  0
   24.9546  -13.0877  -17.5947 N   0  0  0  0  0  0  0  0  0  0  0  0
   23.9977  -11.1392  -16.6415 C   0  0  0  0  0  0  0  0  0  0  0  0
   24.1557  -10.4975  -17.7018 O   0  0  0  0  0  0  0  0  0  0  0  0
   22.9509  -10.8090  -15.7879 N   0  0  0  0  0  0  0  0  0  0  0  0
   21.9737   -9.7886  -15.8570 C   0  0  1  0  0  0  0  0  0  0  0  0
   20.5882  -10.1429  -15.4512 C   0  0  0  0  0  0  0  0  0  0  0  0
   19.5317   -9.1162  -15.5749 C   0  0  0  0  0  0  0  0  0  0  0  0
   18.1966   -9.5035  -15.0709 C   0  0  0  0  0  0  0  0  0  0  0  0
   17.9374  -10.6020  -14.5266 O   0  0  0  0  0  0  0  0  0  0  0  0
   22.3012   -8.4234  -15.4583 C   0  0  0  0  0  0  0  0  0  0  0  0
   22.9191   -8.2954  -14.3308 O   0  0  0  0  0  0  0  0  0  0  0  0
   17.1228   -8.6072  -15.1922 O   0  0  0  0  0  0  0  0  0  0  0  0
   24.0195   -2.9904  -17.5813 C   0  0  0  0  0  0  0  0  0  0  0  0
   23.4583   -3.6500  -16.3085 C   0  0  1  0  0  0  0  0  0  0  0  0
   22.3854   -2.7077  -15.8124 C   0  0  0  0  0  0  0  0  0  0  0  0
   22.9362   -4.9741  -16.7300 C   0  0  0  0  0  0  0  0  0  0  0  0
   22.5766   -5.9274  -15.6364 C   0  0  2  0  0  0  0  0  0  0  0  0
   22.0504   -7.2014  -16.0894 N   0  0  0  0  0  0  0  0  0  0  0  0
   21.5280   -5.2839  -14.8229 C   0  0  0  0  0  0  0  0  0  0  0  0
   21.8231   -4.4483  -13.9531 O   0  0  0  0  0  0  0  0  0  0  0  0
   20.2043   -5.6144  -15.0310 O   0  0  0  0  0  0  0  0  0  0  0  0
  1  2  1  0
  2  3  1  0
  3  5  1  0
  3  4  1  1
  5  6  1  6
  7  5  1  0
  7  8  2  0
  9 10  1  0
  9  7  1  0
 11 12  1  0
 10 11  1  1
 12 13  1  0
 13 14  2  0
 13 17  1  0
 15 16  2  0
 15 10  1  0
 19 18  1  6
 19 20  1  0
 19 21  1  0
 22 21  1  6
 22 23  1  0
 22 24  1  0
 23 15  1  0
 24 26  1  0
 25 24  2  0
M  END
$$$$
