IEL.pdb
     RDKit          3D

 26 25  0  0  1  0  0  0  0  0999 V2000
   18.1385  -17.1473  -16.8667 C   0  0  0  0  0  0  0  0  0  0  0  0
   17.1682  -16.0813  -16.4689 C   0  0  0  0  0  0  0  0  0  0  0  0
   17.7001  -14.6947  -16.6643 C   0  0  2  0  0  0  0  0  0  0  0  0
   19.0298  -14.5423  -15.9536 C   0  0  0  0  0  0  0  0  0  0  0  0
   16.7362  -13.6119  -16.2981 C   0  0  2  0  0  0  0  0  0  0  0  0
   15.5609  -13.8350  -17.1781 N   0  0  0  0  0  0  0  0  0  0  0  0
   17.2250  -12.2372  -16.6314 C   0  0  0  0  0  0  0  0  0  0  0  0
   17.8879  -12.1209  -17.6840 O   0  0  0  0  0  0  0  0  0  0  0  0
   16.9797  -11.1161  -15.8463 N   0  0  0  0  0  0  0  0  0  0  0  0
   17.4584   -9.7881  -15.9362 C   0  0  1  0  0  0  0  0  0  0  0  0
   16.4527   -8.7136  -16.1457 C   0  0  0  0  0  0  0  0  0  0  0  0
   15.1266   -9.0829  -16.6849 C   0  0  0  0  0  0  0  0  0  0  0  0
   13.9626   -8.4960  -15.9869 C   0  0  0  0  0  0  0  0  0  0  0  0
   12.9130   -9.1228  -15.7119 O   0  0  0  0  0  0  0  0  0  0  0  0
   18.5369   -9.3307  -15.0658 C   0  0  0  0  0  0  0  0  0  0  0  0
   18.3669   -9.5303  -13.8006 O   0  0  0  0  0  0  0  0  0  0  0  0
   13.9985   -7.1498  -15.5900 O   0  0  0  0  0  0  0  0  0  0  0  0
   23.5115  -10.8920  -14.7931 C   0  0  0  0  0  0  0  0  0  0  0  0
   22.5089   -9.8477  -15.3169 C   0  0  1  0  0  0  0  0  0  0  0  0
   21.6156  -10.6005  -16.2762 C   0  0  0  0  0  0  0  0  0  0  0  0
   21.7946   -9.3313  -14.1224 C   0  0  0  0  0  0  0  0  0  0  0  0
   20.7313   -8.3108  -14.3714 C   0  0  2  0  0  0  0  0  0  0  0  0
   19.7440   -8.6916  -15.3641 N   0  0  0  0  0  0  0  0  0  0  0  0
   21.4014   -7.0927  -14.8640 C   0  0  0  0  0  0  0  0  0  0  0  0
   22.2807   -6.5346  -14.1878 O   0  0  0  0  0  0  0  0  0  0  0  0
   21.0471   -6.5676  -16.0902 O   0  0  0  0  0  0  0  0  0  0  0  0
  1  2  1  0
  2  3  1  0
  3  5  1  0
  3  4  1  1
  5  6  1  6
  7  5  1  0
  7  8  2  0
  9 10  1  0
  9  7  1  0
 11 12  1  0
 10 11  1  1
 12 13  1  0
 13 14  2  0
 13 17  1  0
 15 16  2  0
 15 10  1  0
 19 18  1  1
 19 20  1  0
 19 21  1  0
 22 21  1  6
 22 23  1  0
 22 24  1  0
 23 15  1  0
 24 26  1  0
 25 24  2  0
M  END
$$$$
