YWG.pdb
     RDKit          3D

 31 33  0  0  1  0  0  0  0  0999 V2000
   28.2997  -18.1906  -20.8058 O   0  0  0  0  0  0  0  0  0  0  0  0
   27.7165  -18.9433  -19.7720 C   0  0  0  0  0  0  0  0  0  0  0  0
   27.8203  -20.3223  -19.7795 C   0  0  0  0  0  0  0  0  0  0  0  0
   27.2629  -21.1228  -18.7833 C   0  0  0  0  0  0  0  0  0  0  0  0
   26.5812  -20.5277  -17.7482 C   0  0  0  0  0  0  0  0  0  0  0  0
   25.9867  -21.3841  -16.6792 C   0  0  0  0  0  0  0  0  0  0  0  0
   26.9225  -21.4917  -15.4943 C   0  0  2  0  0  0  0  0  0  0  0  0
   27.9574  -22.4572  -15.7000 N   0  0  0  0  0  0  0  0  0  0  0  0
   26.2024  -21.7847  -14.2165 C   0  0  0  0  0  0  0  0  0  0  0  0
   25.8386  -22.9472  -13.9206 O   0  0  0  0  0  0  0  0  0  0  0  0
   26.4726  -19.1494  -17.7320 C   0  0  0  0  0  0  0  0  0  0  0  0
   27.0276  -18.3563  -18.7234 C   0  0  0  0  0  0  0  0  0  0  0  0
   25.9044  -20.7353  -13.2751 N   0  0  0  0  0  0  0  0  0  0  0  0
   25.1846  -20.8939  -12.0630 C   0  0  1  0  0  0  0  0  0  0  0  0
   25.6278  -20.1365  -10.8873 C   0  0  0  0  0  0  0  0  0  0  0  0
   26.9731  -20.4828  -10.3987 C   0  0  0  0  0  0  0  0  0  0  0  0
   28.0513  -21.0794  -11.0043 C   0  0  0  0  0  0  0  0  0  0  0  0
   29.0871  -21.2048  -10.1248 N   0  0  0  0  0  0  0  0  0  0  0  0
   28.7043  -20.7010   -8.9567 C   0  0  0  0  0  0  0  0  0  0  0  0
   29.4082  -20.6092   -7.7697 C   0  0  0  0  0  0  0  0  0  0  0  0
   28.8086  -20.0423   -6.6554 C   0  0  0  0  0  0  0  0  0  0  0  0
   27.5207  -19.5909   -6.7874 C   0  0  0  0  0  0  0  0  0  0  0  0
   26.8139  -19.6831   -7.9803 C   0  0  0  0  0  0  0  0  0  0  0  0
   27.4122  -20.2470   -9.0838 C   0  0  0  0  0  0  0  0  0  0  0  0
   23.7189  -20.8665  -12.2992 C   0  0  0  0  0  0  0  0  0  0  0  0
   23.2177  -19.8769  -12.8651 O   0  0  0  0  0  0  0  0  0  0  0  0
   22.8334  -21.9072  -11.9165 N   0  0  0  0  0  0  0  0  0  0  0  0
   21.3933  -21.8070  -12.2248 C   0  0  0  0  0  0  0  0  0  0  0  0
   20.6958  -21.0013  -11.2233 C   0  0  0  0  0  0  0  0  0  0  0  0
   19.3286  -20.8436  -11.2875 O   0  0  0  0  0  0  0  0  0  0  0  0
   21.3304  -20.4502  -10.3024 O   0  0  0  0  0  0  0  0  0  0  0  0
  2  1  1  0
  3  2  2  0
  4  3  1  0
  5  4  2  0
  5 11  1  0
  6  5  1  0
  7  6  1  0
  7  8  1  6
  9 10  2  0
  9  7  1  0
 11 12  2  0
 12  2  1  0
 13  9  1  0
 14 13  1  0
 14 15  1  1
 16 15  1  0
 16 17  2  0
 18 17  1  0
 19 18  1  0
 20 19  2  0
 21 20  1  0
 22 21  2  0
 22 23  1  0
 23 24  2  0
 24 19  1  0
 24 16  1  0
 25 14  1  0
 26 25  2  0
 27 25  1  0
 28 27  1  0
 29 28  1  0
 29 30  1  0
 31 29  2  0
M  END
$$$$
