YWG.pdb
     RDKit          3D

 31 33  0  0  1  0  0  0  0  0999 V2000
   23.0490  -39.8946  -17.4363 O   0  0  0  0  0  0  0  0  0  0  0  0
   23.0410  -38.7264  -16.6550 C   0  0  0  0  0  0  0  0  0  0  0  0
   24.2333  -38.1897  -16.2045 C   0  0  0  0  0  0  0  0  0  0  0  0
   24.2901  -37.0343  -15.4260 C   0  0  0  0  0  0  0  0  0  0  0  0
   23.1206  -36.3957  -15.0875 C   0  0  0  0  0  0  0  0  0  0  0  0
   23.1807  -35.1566  -14.2566 C   0  0  0  0  0  0  0  0  0  0  0  0
   23.7660  -35.4524  -12.8923 C   0  0  2  0  0  0  0  0  0  0  0  0
   22.9424  -36.3323  -12.1223 N   0  0  0  0  0  0  0  0  0  0  0  0
   24.0543  -34.2118  -12.1081 C   0  0  0  0  0  0  0  0  0  0  0  0
   24.7187  -33.2674  -12.5958 O   0  0  0  0  0  0  0  0  0  0  0  0
   21.9236  -36.9248  -15.5339 C   0  0  0  0  0  0  0  0  0  0  0  0
   21.8701  -38.0731  -16.3073 C   0  0  0  0  0  0  0  0  0  0  0  0
   23.5718  -34.0577  -10.7591 N   0  0  0  0  0  0  0  0  0  0  0  0
   23.7293  -32.9007   -9.9534 C   0  0  1  0  0  0  0  0  0  0  0  0
   22.5450  -32.0806   -9.6758 C   0  0  0  0  0  0  0  0  0  0  0  0
   21.8998  -31.5017  -10.8661 C   0  0  0  0  0  0  0  0  0  0  0  0
   21.1528  -32.0577  -11.8752 C   0  0  0  0  0  0  0  0  0  0  0  0
   20.7824  -31.1049  -12.7791 N   0  0  0  0  0  0  0  0  0  0  0  0
   21.2741  -29.9376  -12.3782 C   0  0  0  0  0  0  0  0  0  0  0  0
   21.1642  -28.6920  -12.9689 C   0  0  0  0  0  0  0  0  0  0  0  0
   21.7661  -27.5927  -12.3754 C   0  0  0  0  0  0  0  0  0  0  0  0
   22.4547  -27.7988  -11.2078 C   0  0  0  0  0  0  0  0  0  0  0  0
   22.5645  -29.0505  -10.6145 C   0  0  0  0  0  0  0  0  0  0  0  0
   21.9664  -30.1391  -11.2070 C   0  0  0  0  0  0  0  0  0  0  0  0
   24.5785  -33.1811   -8.7680 C   0  0  0  0  0  0  0  0  0  0  0  0
   24.5485  -34.3177   -8.2600 O   0  0  0  0  0  0  0  0  0  0  0  0
   25.4358  -32.2266   -8.1618 N   0  0  0  0  0  0  0  0  0  0  0  0
   26.1749  -32.5691   -6.9308 C   0  0  0  0  0  0  0  0  0  0  0  0
   25.2739  -32.6506   -5.7818 C   0  0  0  0  0  0  0  0  0  0  0  0
   25.7797  -32.8363   -4.5137 O   0  0  0  0  0  0  0  0  0  0  0  0
   24.0408  -32.5526   -5.9378 O   0  0  0  0  0  0  0  0  0  0  0  0
  2  1  1  0
  3  2  2  0
  4  3  1  0
  5  4  2  0
  5 11  1  0
  6  5  1  0
  7  6  1  0
  7  8  1  1
  9 10  2  0
  9  7  1  0
 11 12  2  0
 12  2  1  0
 13  9  1  0
 14 13  1  0
 14 15  1  1
 16 15  1  0
 16 17  2  0
 18 17  1  0
 19 18  1  0
 20 19  2  0
 21 20  1  0
 22 21  2  0
 22 23  1  0
 23 24  2  0
 24 19  1  0
 24 16  1  0
 25 14  1  0
 26 25  2  0
 27 25  1  0
 28 27  1  0
 29 28  1  0
 29 30  1  0
 31 29  2  0
M  END
$$$$
