YWG.pdb
     RDKit          3D

 31 33  0  0  1  0  0  0  0  0999 V2000
   30.2877  -16.0045  -18.5245 O   0  0  0  0  0  0  0  0  0  0  0  0
   29.4269  -16.8255  -17.7762 C   0  0  0  0  0  0  0  0  0  0  0  0
   29.0619  -18.0675  -18.2629 C   0  0  0  0  0  0  0  0  0  0  0  0
   28.2113  -18.9262  -17.5677 C   0  0  0  0  0  0  0  0  0  0  0  0
   27.7103  -18.5324  -16.3494 C   0  0  0  0  0  0  0  0  0  0  0  0
   26.8020  -19.4527  -15.6029 C   0  0  0  0  0  0  0  0  0  0  0  0
   27.5685  -20.2310  -14.5550 C   0  0  2  0  0  0  0  0  0  0  0  0
   28.5040  -21.1477  -15.1294 N   0  0  0  0  0  0  0  0  0  0  0  0
   26.6697  -20.9539  -13.6026 C   0  0  0  0  0  0  0  0  0  0  0  0
   26.2556  -22.1123  -13.8429 O   0  0  0  0  0  0  0  0  0  0  0  0
   28.0700  -17.2924  -15.8545 C   0  0  0  0  0  0  0  0  0  0  0  0
   28.9154  -16.4410  -16.5476 C   0  0  0  0  0  0  0  0  0  0  0  0
   26.2504  -20.3411  -12.3677 N   0  0  0  0  0  0  0  0  0  0  0  0
   25.3720  -20.9199  -11.4159 C   0  0  1  0  0  0  0  0  0  0  0  0
   25.6026  -20.6366   -9.9950 C   0  0  0  0  0  0  0  0  0  0  0  0
   26.9866  -20.8475   -9.5383 C   0  0  0  0  0  0  0  0  0  0  0  0
   28.0580  -21.4943  -10.1030 C   0  0  0  0  0  0  0  0  0  0  0  0
   29.1436  -21.4351   -9.2782 N   0  0  0  0  0  0  0  0  0  0  0  0
   28.7999  -20.7615   -8.1860 C   0  0  0  0  0  0  0  0  0  0  0  0
   29.5605  -20.4503   -7.0736 C   0  0  0  0  0  0  0  0  0  0  0  0
   28.9948  -19.7315   -6.0315 C   0  0  0  0  0  0  0  0  0  0  0  0
   27.6820  -19.3565   -6.1575 C   0  0  0  0  0  0  0  0  0  0  0  0
   26.9182  -19.6691   -7.2754 C   0  0  0  0  0  0  0  0  0  0  0  0
   27.4831  -20.3833   -8.3073 C   0  0  0  0  0  0  0  0  0  0  0  0
   23.9562  -20.8020  -11.8476 C   0  0  0  0  0  0  0  0  0  0  0  0
   23.4999  -19.6751  -12.1174 O   0  0  0  0  0  0  0  0  0  0  0  0
   23.0705  -21.9033  -11.9747 N   0  0  0  0  0  0  0  0  0  0  0  0
   21.6873  -21.6927  -12.4452 C   0  0  0  0  0  0  0  0  0  0  0  0
   20.8112  -21.2972  -11.3431 C   0  0  0  0  0  0  0  0  0  0  0  0
   19.6649  -22.0131  -11.0752 O   0  0  0  0  0  0  0  0  0  0  0  0
   21.0927  -20.3100  -10.6356 O   0  0  0  0  0  0  0  0  0  0  0  0
  2  1  1  0
  3  2  2  0
  4  3  1  0
  5  4  2  0
  5 11  1  0
  6  5  1  0
  7  6  1  0
  7  8  1  6
  9 10  2  0
  9  7  1  0
 11 12  2  0
 12  2  1  0
 13  9  1  0
 14 13  1  0
 14 15  1  1
 16 15  1  0
 16 17  2  0
 18 17  1  0
 19 18  1  0
 20 19  2  0
 21 20  1  0
 22 21  2  0
 22 23  1  0
 23 24  2  0
 24 19  1  0
 24 16  1  0
 25 14  1  0
 26 25  2  0
 27 25  1  0
 28 27  1  0
 29 28  1  0
 29 30  1  0
 31 29  2  0
M  END
$$$$
