YWG.pdb
     RDKit          3D

 31 33  0  0  1  0  0  0  0  0999 V2000
   29.4675  -16.5599  -18.5238 O   0  0  0  0  0  0  0  0  0  0  0  0
   28.8384  -17.1609  -17.4200 C   0  0  0  0  0  0  0  0  0  0  0  0
   27.4706  -17.3642  -17.4319 C   0  0  0  0  0  0  0  0  0  0  0  0
   26.7897  -17.9541  -16.3677 C   0  0  0  0  0  0  0  0  0  0  0  0
   27.4968  -18.3533  -15.2582 C   0  0  0  0  0  0  0  0  0  0  0  0
   26.7689  -18.9880  -14.1195 C   0  0  0  0  0  0  0  0  0  0  0  0
   27.2409  -20.4104  -13.9060 C   0  0  2  0  0  0  0  0  0  0  0  0
   26.9517  -21.2564  -15.0222 N   0  0  0  0  0  0  0  0  0  0  0  0
   26.6921  -21.0174  -12.6540 C   0  0  0  0  0  0  0  0  0  0  0  0
   25.6300  -21.6830  -12.6589 O   0  0  0  0  0  0  0  0  0  0  0  0
   28.8649  -18.1545  -15.2374 C   0  0  0  0  0  0  0  0  0  0  0  0
   29.5389  -17.5678  -16.2964 C   0  0  0  0  0  0  0  0  0  0  0  0
   27.3720  -20.8604  -11.3933 N   0  0  0  0  0  0  0  0  0  0  0  0
   26.7706  -20.9650  -10.1127 C   0  0  1  0  0  0  0  0  0  0  0  0
   27.6202  -20.7902   -8.9295 C   0  0  0  0  0  0  0  0  0  0  0  0
   26.8974  -20.7626   -7.6469 C   0  0  0  0  0  0  0  0  0  0  0  0
   25.6105  -21.0961   -7.3037 C   0  0  0  0  0  0  0  0  0  0  0  0
   25.3975  -20.8810   -5.9730 N   0  0  0  0  0  0  0  0  0  0  0  0
   26.5219  -20.4133   -5.4421 C   0  0  0  0  0  0  0  0  0  0  0  0
   26.7874  -20.0486   -4.1347 C   0  0  0  0  0  0  0  0  0  0  0  0
   28.0454  -19.5759   -3.7933 C   0  0  0  0  0  0  0  0  0  0  0  0
   28.9842  -19.4915   -4.7892 C   0  0  0  0  0  0  0  0  0  0  0  0
   28.7171  -19.8583   -6.1026 C   0  0  0  0  0  0  0  0  0  0  0  0
   27.4670  -20.3264   -6.4375 C   0  0  0  0  0  0  0  0  0  0  0  0
   25.4811  -20.2307  -10.0614 C   0  0  0  0  0  0  0  0  0  0  0  0
   25.4372  -19.1288   -9.4829 O   0  0  0  0  0  0  0  0  0  0  0  0
   24.2732  -20.7064  -10.6344 N   0  0  0  0  0  0  0  0  0  0  0  0
   22.9898  -20.0541  -10.3081 C   0  0  0  0  0  0  0  0  0  0  0  0
   21.8882  -20.6559  -11.0582 C   0  0  0  0  0  0  0  0  0  0  0  0
   20.6063  -20.1701  -10.9204 O   0  0  0  0  0  0  0  0  0  0  0  0
   22.0976  -21.6130  -11.8293 O   0  0  0  0  0  0  0  0  0  0  0  0
  2  1  1  0
  3  2  2  0
  4  3  1  0
  5  4  2  0
  5 11  1  0
  6  5  1  0
  7  6  1  0
  7  8  1  6
  9 10  2  0
  9  7  1  0
 11 12  2  0
 12  2  1  0
 13  9  1  0
 14 13  1  0
 14 15  1  1
 16 15  1  0
 16 17  2  0
 18 17  1  0
 19 18  1  0
 20 19  2  0
 21 20  1  0
 22 21  2  0
 22 23  1  0
 23 24  2  0
 24 19  1  0
 24 16  1  0
 25 14  1  0
 26 25  2  0
 27 25  1  0
 28 27  1  0
 29 28  1  0
 29 30  1  0
 31 29  2  0
M  END
$$$$
