YWG.pdb
     RDKit          3D

 31 33  0  0  1  0  0  0  0  0999 V2000
   22.3134  -30.8523  -23.9687 O   0  0  0  0  0  0  0  0  0  0  0  0
   22.9908  -30.9874  -22.7448 C   0  0  0  0  0  0  0  0  0  0  0  0
   23.6231  -32.1775  -22.4340 C   0  0  0  0  0  0  0  0  0  0  0  0
   24.3100  -32.3725  -21.2364 C   0  0  0  0  0  0  0  0  0  0  0  0
   24.3671  -31.3476  -20.3217 C   0  0  0  0  0  0  0  0  0  0  0  0
   25.1052  -31.5546  -19.0404 C   0  0  0  0  0  0  0  0  0  0  0  0
   26.4315  -30.8253  -19.0604 C   0  0  2  0  0  0  0  0  0  0  0  0
   26.8376  -30.4638  -20.3833 N   0  0  0  0  0  0  0  0  0  0  0  0
   27.5228  -31.5961  -18.3879 C   0  0  0  0  0  0  0  0  0  0  0  0
   28.3272  -32.3004  -19.0421 O   0  0  0  0  0  0  0  0  0  0  0  0
   23.7382  -30.1539  -20.6239 C   0  0  0  0  0  0  0  0  0  0  0  0
   23.0562  -29.9629  -21.8148 C   0  0  0  0  0  0  0  0  0  0  0  0
   27.6899  -31.5514  -16.9573 N   0  0  0  0  0  0  0  0  0  0  0  0
   28.7122  -32.2081  -16.2251 C   0  0  1  0  0  0  0  0  0  0  0  0
   29.7450  -31.3867  -15.5840 C   0  0  0  0  0  0  0  0  0  0  0  0
   30.6667  -30.7136  -16.5144 C   0  0  0  0  0  0  0  0  0  0  0  0
   30.5728  -29.5405  -17.2217 C   0  0  0  0  0  0  0  0  0  0  0  0
   31.6934  -29.3433  -17.9751 N   0  0  0  0  0  0  0  0  0  0  0  0
   32.5164  -30.3662  -17.7722 C   0  0  0  0  0  0  0  0  0  0  0  0
   33.7645  -30.6072  -18.3171 C   0  0  0  0  0  0  0  0  0  0  0  0
   34.4595  -31.7545  -17.9659 C   0  0  0  0  0  0  0  0  0  0  0  0
   33.8633  -32.6115  -17.0770 C   0  0  0  0  0  0  0  0  0  0  0  0
   32.6093  -32.3687  -16.5296 C   0  0  0  0  0  0  0  0  0  0  0  0
   31.9224  -31.2293  -16.8812 C   0  0  0  0  0  0  0  0  0  0  0  0
   28.1538  -33.2815  -15.3643 C   0  0  0  0  0  0  0  0  0  0  0  0
   28.9317  -33.9679  -14.6754 O   0  0  0  0  0  0  0  0  0  0  0  0
   26.7711  -33.5863  -15.2717 N   0  0  0  0  0  0  0  0  0  0  0  0
   26.2960  -34.5899  -14.2990 C   0  0  0  0  0  0  0  0  0  0  0  0
   24.8374  -34.5730  -14.1956 C   0  0  0  0  0  0  0  0  0  0  0  0
   24.0954  -33.7122  -14.9746 O   0  0  0  0  0  0  0  0  0  0  0  0
   24.2514  -35.3364  -13.4030 O   0  0  0  0  0  0  0  0  0  0  0  0
  2  1  1  0
  3  2  2  0
  4  3  1  0
  5  4  2  0
  5 11  1  0
  6  5  1  0
  7  6  1  0
  7  8  1  6
  9 10  2  0
  9  7  1  0
 11 12  2  0
 12  2  1  0
 13  9  1  0
 14 13  1  0
 14 15  1  1
 16 15  1  0
 16 17  2  0
 18 17  1  0
 19 18  1  0
 20 19  2  0
 21 20  1  0
 22 21  2  0
 22 23  1  0
 23 24  2  0
 24 19  1  0
 24 16  1  0
 25 14  1  0
 26 25  2  0
 27 25  1  0
 28 27  1  0
 29 28  1  0
 29 30  1  0
 31 29  2  0
M  END
$$$$
