KDY.pdb
     RDKit          3D

 30 30  0  0  1  0  0  0  0  0999 V2000
   27.5119  -18.8798  -16.9358 N   0  0  0  0  0  0  0  0  0  0  0  0
   26.7078  -18.9714  -18.1143 C   0  0  1  0  0  0  0  0  0  0  0  0
   27.3654  -19.8779  -19.1514 C   0  0  0  0  0  0  0  0  0  0  0  0
   28.4849  -20.6199  -18.5003 C   0  0  0  0  0  0  0  0  0  0  0  0
   28.1659  -21.9882  -18.0419 C   0  0  0  0  0  0  0  0  0  0  0  0
   29.2279  -22.8083  -17.4343 C   0  0  0  0  0  0  0  0  0  0  0  0
   28.7556  -24.0374  -16.8968 N   0  0  0  0  0  0  0  0  0  0  0  0
   25.3622  -19.5065  -17.7928 C   0  0  0  0  0  0  0  0  0  0  0  0
   24.5089  -19.6822  -18.7061 O   0  0  0  0  0  0  0  0  0  0  0  0
   24.9901  -19.8369  -16.4587 N   0  0  0  0  0  0  0  0  0  0  0  0
   23.6958  -20.3837  -16.2066 C   0  0  1  0  0  0  0  0  0  0  0  0
   23.7791  -21.8916  -16.1411 C   0  0  0  0  0  0  0  0  0  0  0  0
   24.8396  -22.3629  -15.2161 C   0  0  0  0  0  0  0  0  0  0  0  0
   25.9578  -21.7622  -15.2059 O   0  0  0  0  0  0  0  0  0  0  0  0
   23.1148  -19.8699  -14.9359 C   0  0  0  0  0  0  0  0  0  0  0  0
   23.0725  -20.5533  -13.8815 O   0  0  0  0  0  0  0  0  0  0  0  0
   24.7109  -23.4250  -14.3445 O   0  0  0  0  0  0  0  0  0  0  0  0
   15.7869  -15.7492  -12.4568 O   0  0  0  0  0  0  0  0  0  0  0  0
   16.9771  -16.0666  -13.0527 C   0  0  0  0  0  0  0  0  0  0  0  0
   18.1760  -15.6868  -12.4635 C   0  0  0  0  0  0  0  0  0  0  0  0
   19.3679  -16.0167  -13.0805 C   0  0  0  0  0  0  0  0  0  0  0  0
   19.4013  -16.7127  -14.2663 C   0  0  0  0  0  0  0  0  0  0  0  0
   20.6696  -17.0549  -14.9243 C   0  0  0  0  0  0  0  0  0  0  0  0
   21.2865  -18.2649  -14.2922 C   0  0  2  0  0  0  0  0  0  0  0  0
   22.5902  -18.5643  -14.9125 N   0  0  0  0  0  0  0  0  0  0  0  0
   20.4520  -19.4771  -14.3571 C   0  0  0  0  0  0  0  0  0  0  0  0
   20.2878  -20.2471  -15.4945 O   0  0  0  0  0  0  0  0  0  0  0  0
   18.1931  -17.0777  -14.8296 C   0  0  0  0  0  0  0  0  0  0  0  0
   16.9867  -16.7640  -14.2391 C   0  0  0  0  0  0  0  0  0  0  0  0
   19.8412  -19.8541  -13.3303 O   0  0  0  0  0  0  0  0  0  0  0  0
  2  1  1  1
  2  8  1  0
  2  3  1  0
  4  3  1  0
  4  5  1  0
  6  5  1  0
  7  6  1  0
  8  9  2  0
 10 11  1  0
 10  8  1  0
 11 12  1  1
 13 12  1  0
 14 13  2  0
 15 16  2  0
 15 11  1  0
 17 13  1  0
 18 19  1  0
 19 29  2  0
 19 20  1  0
 20 21  2  0
 21 22  1  0
 22 23  1  0
 24 23  1  6
 24 26  1  0
 24 25  1  0
 25 15  1  0
 26 27  1  0
 28 22  2  0
 29 28  1  0
 30 26  2  0
M  END
$$$$
