KDY.pdb
     RDKit          3D

 30 30  0  0  1  0  0  0  0  0999 V2000
   17.3502  -12.0988  -18.4520 N   0  0  0  0  0  0  0  0  0  0  0  0
   18.3936  -12.2890  -17.4934 C   0  0  1  0  0  0  0  0  0  0  0  0
   19.3155  -13.4308  -17.9135 C   0  0  0  0  0  0  0  0  0  0  0  0
   18.5153  -14.4434  -18.6633 C   0  0  0  0  0  0  0  0  0  0  0  0
   19.2605  -15.6308  -19.1308 C   0  0  0  0  0  0  0  0  0  0  0  0
   18.5444  -16.6820  -19.8737 C   0  0  0  0  0  0  0  0  0  0  0  0
   19.3811  -17.7587  -20.2781 N   0  0  0  0  0  0  0  0  0  0  0  0
   19.1990  -11.0529  -17.3400 C   0  0  0  0  0  0  0  0  0  0  0  0
   20.1558  -11.0109  -16.5180 O   0  0  0  0  0  0  0  0  0  0  0  0
   18.9245   -9.8841  -18.1056 N   0  0  0  0  0  0  0  0  0  0  0  0
   19.7655   -8.7393  -17.9638 C   0  0  1  0  0  0  0  0  0  0  0  0
   19.5413   -7.7909  -19.1192 C   0  0  0  0  0  0  0  0  0  0  0  0
   20.4157   -6.5938  -19.0503 C   0  0  0  0  0  0  0  0  0  0  0  0
   19.9967   -5.5607  -18.4432 O   0  0  0  0  0  0  0  0  0  0  0  0
   19.5127   -8.0209  -16.6846 C   0  0  0  0  0  0  0  0  0  0  0  0
   18.3565   -7.8224  -16.2324 O   0  0  0  0  0  0  0  0  0  0  0  0
   21.6767   -6.5054  -19.6037 O   0  0  0  0  0  0  0  0  0  0  0  0
   20.1704   -5.3036   -8.5382 O   0  0  0  0  0  0  0  0  0  0  0  0
   20.4220   -5.8531   -9.7660 C   0  0  0  0  0  0  0  0  0  0  0  0
   19.7066   -6.9640  -10.1934 C   0  0  0  0  0  0  0  0  0  0  0  0
   19.9749   -7.5047  -11.4367 C   0  0  0  0  0  0  0  0  0  0  0  0
   20.9342   -6.9724  -12.2663 C   0  0  0  0  0  0  0  0  0  0  0  0
   21.2232   -7.5541  -13.5841 C   0  0  0  0  0  0  0  0  0  0  0  0
   20.4413   -6.8576  -14.6553 C   0  0  2  0  0  0  0  0  0  0  0  0
   20.6134   -7.5429  -15.9495 N   0  0  0  0  0  0  0  0  0  0  0  0
   20.7858   -5.4365  -14.8330 C   0  0  0  0  0  0  0  0  0  0  0  0
   20.1654   -4.3971  -14.1633 O   0  0  0  0  0  0  0  0  0  0  0  0
   21.6303   -5.8670  -11.8148 C   0  0  0  0  0  0  0  0  0  0  0  0
   21.3863   -5.3037  -10.5797 C   0  0  0  0  0  0  0  0  0  0  0  0
   21.6941   -5.1239  -15.6374 O   0  0  0  0  0  0  0  0  0  0  0  0
  2  1  1  6
  2  8  1  0
  2  3  1  0
  4  3  1  0
  4  5  1  0
  6  5  1  0
  7  6  1  0
  8  9  2  0
 10 11  1  0
 10  8  1  0
 11 12  1  6
 13 12  1  0
 14 13  2  0
 15 16  2  0
 15 11  1  0
 17 13  1  0
 18 19  1  0
 19 29  2  0
 19 20  1  0
 20 21  2  0
 21 22  1  0
 22 23  1  0
 24 23  1  1
 24 26  1  0
 24 25  1  0
 25 15  1  0
 26 27  1  0
 28 22  2  0
 29 28  1  0
 30 26  2  0
M  END
$$$$
