KDY.pdb
     RDKit          3D

 30 30  0  0  1  0  0  0  0  0999 V2000
   32.9275  -32.8109  -16.5012 N   0  0  0  0  0  0  0  0  0  0  0  0
   33.5043  -31.9490  -17.4852 C   0  0  1  0  0  0  0  0  0  0  0  0
   33.2444  -32.4806  -18.8922 C   0  0  0  0  0  0  0  0  0  0  0  0
   31.9680  -33.2543  -18.8855 C   0  0  0  0  0  0  0  0  0  0  0  0
   30.8787  -32.7009  -19.7168 C   0  0  0  0  0  0  0  0  0  0  0  0
   29.6869  -33.5252  -19.9812 C   0  0  0  0  0  0  0  0  0  0  0  0
   28.6575  -32.8264  -20.6703 N   0  0  0  0  0  0  0  0  0  0  0  0
   32.9447  -30.5795  -17.3781 C   0  0  0  0  0  0  0  0  0  0  0  0
   31.9834  -30.3407  -16.5959 O   0  0  0  0  0  0  0  0  0  0  0  0
   33.4661  -29.4988  -18.1448 N   0  0  0  0  0  0  0  0  0  0  0  0
   32.8861  -28.2011  -18.0126 C   0  0  1  0  0  0  0  0  0  0  0  0
   33.7616  -27.1751  -18.6951 C   0  0  0  0  0  0  0  0  0  0  0  0
   35.0304  -26.9338  -17.9642 C   0  0  0  0  0  0  0  0  0  0  0  0
   36.1190  -26.9026  -18.6162 O   0  0  0  0  0  0  0  0  0  0  0  0
   31.5179  -28.1433  -18.5966 C   0  0  0  0  0  0  0  0  0  0  0  0
   31.2918  -28.3252  -19.8199 O   0  0  0  0  0  0  0  0  0  0  0  0
   35.1304  -26.7357  -16.6022 O   0  0  0  0  0  0  0  0  0  0  0  0
   28.0229  -32.6516  -14.4003 O   0  0  0  0  0  0  0  0  0  0  0  0
   28.1478  -31.7815  -15.4490 C   0  0  0  0  0  0  0  0  0  0  0  0
   27.1393  -30.8661  -15.7205 C   0  0  0  0  0  0  0  0  0  0  0  0
   27.2837  -29.9954  -16.7841 C   0  0  0  0  0  0  0  0  0  0  0  0
   28.4018  -30.0095  -17.5849 C   0  0  0  0  0  0  0  0  0  0  0  0
   28.5492  -29.0882  -18.7199 C   0  0  0  0  0  0  0  0  0  0  0  0
   29.0543  -27.7550  -18.2599 C   0  0  2  0  0  0  0  0  0  0  0  0
   30.4308  -27.8735  -17.7447 N   0  0  0  0  0  0  0  0  0  0  0  0
   28.2246  -27.1145  -17.2249 C   0  0  0  0  0  0  0  0  0  0  0  0
   28.6355  -26.9024  -15.9212 O   0  0  0  0  0  0  0  0  0  0  0  0
   29.3892  -30.9308  -17.2911 C   0  0  0  0  0  0  0  0  0  0  0  0
   29.2756  -31.8131  -16.2371 C   0  0  0  0  0  0  0  0  0  0  0  0
   27.0692  -26.7300  -17.5195 O   0  0  0  0  0  0  0  0  0  0  0  0
  2  1  1  1
  2  8  1  0
  2  3  1  0
  4  3  1  0
  4  5  1  0
  6  5  1  0
  7  6  1  0
  8  9  2  0
 10 11  1  0
 10  8  1  0
 11 12  1  6
 13 12  1  0
 14 13  2  0
 15 16  2  0
 15 11  1  0
 17 13  1  0
 18 19  1  0
 19 29  2  0
 19 20  1  0
 20 21  2  0
 21 22  1  0
 22 23  1  0
 24 23  1  1
 24 26  1  0
 24 25  1  0
 25 15  1  0
 26 27  1  0
 28 22  2  0
 29 28  1  0
 30 26  2  0
M  END
$$$$
