KDY.pdb
     RDKit          3D

 30 30  0  0  1  0  0  0  0  0999 V2000
   22.7194  -12.9938  -20.1741 N   0  0  0  0  0  0  0  0  0  0  0  0
   21.7205  -11.9730  -20.2345 C   0  0  1  0  0  0  0  0  0  0  0  0
   20.4355  -12.4293  -19.5486 C   0  0  0  0  0  0  0  0  0  0  0  0
   20.0049  -13.7263  -20.1488 C   0  0  0  0  0  0  0  0  0  0  0  0
   19.6947  -14.8056  -19.1880 C   0  0  0  0  0  0  0  0  0  0  0  0
   19.2630  -16.1186  -19.6971 C   0  0  0  0  0  0  0  0  0  0  0  0
   19.0200  -17.0715  -18.6696 N   0  0  0  0  0  0  0  0  0  0  0  0
   22.1983  -10.7299  -19.5815 C   0  0  0  0  0  0  0  0  0  0  0  0
   22.7923  -10.7795  -18.4689 O   0  0  0  0  0  0  0  0  0  0  0  0
   22.0060   -9.4520  -20.1795 N   0  0  0  0  0  0  0  0  0  0  0  0
   22.4871   -8.2856  -19.5115 C   0  0  1  0  0  0  0  0  0  0  0  0
   22.4539   -7.1038  -20.4534 C   0  0  0  0  0  0  0  0  0  0  0  0
   23.2995   -7.3106  -21.6553 C   0  0  0  0  0  0  0  0  0  0  0  0
   24.4339   -7.8640  -21.5209 O   0  0  0  0  0  0  0  0  0  0  0  0
   21.6821   -7.9688  -18.3000 C   0  0  0  0  0  0  0  0  0  0  0  0
   20.4437   -8.1751  -18.2326 O   0  0  0  0  0  0  0  0  0  0  0  0
   22.9493   -6.9432  -22.9386 O   0  0  0  0  0  0  0  0  0  0  0  0
   19.5529   -6.9765   -9.9634 O   0  0  0  0  0  0  0  0  0  0  0  0
   20.2645   -7.1023  -11.1254 C   0  0  0  0  0  0  0  0  0  0  0  0
   20.9321   -6.0067  -11.6572 C   0  0  0  0  0  0  0  0  0  0  0  0
   21.6456   -6.1535  -12.8317 C   0  0  0  0  0  0  0  0  0  0  0  0
   21.7135   -7.3581  -13.4921 C   0  0  0  0  0  0  0  0  0  0  0  0
   22.4660   -7.5094  -14.7450 C   0  0  0  0  0  0  0  0  0  0  0  0
   21.6153   -7.1452  -15.9230 C   0  0  2  0  0  0  0  0  0  0  0  0
   22.3333   -7.4148  -17.1823 N   0  0  0  0  0  0  0  0  0  0  0  0
   21.1640   -5.7430  -15.9368 C   0  0  0  0  0  0  0  0  0  0  0  0
   19.9803   -5.3023  -15.3728 O   0  0  0  0  0  0  0  0  0  0  0  0
   21.0395   -8.4309  -12.9399 C   0  0  0  0  0  0  0  0  0  0  0  0
   20.3189   -8.3173  -11.7693 C   0  0  0  0  0  0  0  0  0  0  0  0
   21.8799   -4.8762  -16.4898 O   0  0  0  0  0  0  0  0  0  0  0  0
  2  1  1  1
  2  8  1  0
  2  3  1  0
  4  3  1  0
  4  5  1  0
  6  5  1  0
  7  6  1  0
  8  9  2  0
 10 11  1  0
 10  8  1  0
 11 12  1  6
 13 12  1  0
 14 13  2  0
 15 16  2  0
 15 11  1  0
 17 13  1  0
 18 19  1  0
 19 29  2  0
 19 20  1  0
 20 21  2  0
 21 22  1  0
 22 23  1  0
 24 23  1  1
 24 26  1  0
 24 25  1  0
 25 15  1  0
 26 27  1  0
 28 22  2  0
 29 28  1  0
 30 26  2  0
M  END
$$$$
