KDY.pdb
     RDKit          3D

 30 30  0  0  1  0  0  0  0  0999 V2000
   22.0193  -17.5356  -17.4054 N   0  0  0  0  0  0  0  0  0  0  0  0
   23.1637  -17.1765  -16.6274 C   0  0  1  0  0  0  0  0  0  0  0  0
   22.8227  -16.0612  -15.6427 C   0  0  0  0  0  0  0  0  0  0  0  0
   21.5312  -15.4359  -16.0532 C   0  0  0  0  0  0  0  0  0  0  0  0
   20.3121  -16.1952  -15.7048 C   0  0  0  0  0  0  0  0  0  0  0  0
   18.9927  -15.5872  -15.9482 C   0  0  0  0  0  0  0  0  0  0  0  0
   17.9062  -16.4231  -15.5693 N   0  0  0  0  0  0  0  0  0  0  0  0
   23.6738  -18.3460  -15.8710 C   0  0  0  0  0  0  0  0  0  0  0  0
   22.8752  -19.2107  -15.4152 O   0  0  0  0  0  0  0  0  0  0  0  0
   25.0656  -18.5322  -15.6352 N   0  0  0  0  0  0  0  0  0  0  0  0
   25.5177  -19.7399  -15.0226 C   0  0  1  0  0  0  0  0  0  0  0  0
   26.7027  -20.2894  -15.7834 C   0  0  0  0  0  0  0  0  0  0  0  0
   27.0063  -21.6968  -15.4237 C   0  0  0  0  0  0  0  0  0  0  0  0
   27.9858  -22.2771  -15.9850 O   0  0  0  0  0  0  0  0  0  0  0  0
   25.9041  -19.5291  -13.6004 C   0  0  0  0  0  0  0  0  0  0  0  0
   26.7513  -18.6707  -13.2453 O   0  0  0  0  0  0  0  0  0  0  0  0
   26.2970  -22.4474  -14.5084 O   0  0  0  0  0  0  0  0  0  0  0  0
   27.7045  -19.2982   -5.3207 O   0  0  0  0  0  0  0  0  0  0  0  0
   27.0779  -19.3442   -6.5364 C   0  0  0  0  0  0  0  0  0  0  0  0
   26.2591  -20.4184   -6.8594 C   0  0  0  0  0  0  0  0  0  0  0  0
   25.6347  -20.4470   -8.0921 C   0  0  0  0  0  0  0  0  0  0  0  0
   25.8018  -19.4383   -9.0121 C   0  0  0  0  0  0  0  0  0  0  0  0
   25.1434  -19.4752  -10.3250 C   0  0  0  0  0  0  0  0  0  0  0  0
   25.8503  -20.4204  -11.2475 C   0  0  2  0  0  0  0  0  0  0  0  0
   25.2963  -20.3237  -12.6106 N   0  0  0  0  0  0  0  0  0  0  0  0
   25.8027  -21.8311  -10.8260 C   0  0  0  0  0  0  0  0  0  0  0  0
   26.8787  -22.5202  -10.2958 O   0  0  0  0  0  0  0  0  0  0  0  0
   26.6221  -18.3820   -8.6635 C   0  0  0  0  0  0  0  0  0  0  0  0
   27.2592  -18.3236   -7.4416 C   0  0  0  0  0  0  0  0  0  0  0  0
   24.7312  -22.4691  -10.9468 O   0  0  0  0  0  0  0  0  0  0  0  0
  2  1  1  1
  2  8  1  0
  2  3  1  0
  4  3  1  0
  4  5  1  0
  6  5  1  0
  7  6  1  0
  8  9  2  0
 10 11  1  0
 10  8  1  0
 11 12  1  6
 13 12  1  0
 14 13  2  0
 15 16  2  0
 15 11  1  0
 17 13  1  0
 18 19  1  0
 19 29  2  0
 19 20  1  0
 20 21  2  0
 21 22  1  0
 22 23  1  0
 24 23  1  1
 24 26  1  0
 24 25  1  0
 25 15  1  0
 26 27  1  0
 28 22  2  0
 29 28  1  0
 30 26  2  0
M  END
$$$$
