KDY.pdb
     RDKit          3D

 30 30  0  0  1  0  0  0  0  0999 V2000
   17.3804  -13.9438  -16.8735 N   0  0  0  0  0  0  0  0  0  0  0  0
   18.7846  -13.8564  -16.6199 C   0  0  1  0  0  0  0  0  0  0  0  0
   19.5683  -14.7283  -17.5973 C   0  0  0  0  0  0  0  0  0  0  0  0
   19.8157  -16.0570  -16.9640 C   0  0  0  0  0  0  0  0  0  0  0  0
   18.6088  -16.8227  -16.5882 C   0  0  0  0  0  0  0  0  0  0  0  0
   18.7640  -18.1320  -15.9315 C   0  0  0  0  0  0  0  0  0  0  0  0
   17.5302  -18.8051  -15.7136 N   0  0  0  0  0  0  0  0  0  0  0  0
   19.2552  -12.4551  -16.7424 C   0  0  0  0  0  0  0  0  0  0  0  0
   20.4887  -12.1991  -16.8193 O   0  0  0  0  0  0  0  0  0  0  0  0
   18.3429  -11.3623  -16.7771 N   0  0  0  0  0  0  0  0  0  0  0  0
   18.8391  -10.0410  -16.9913 C   0  0  1  0  0  0  0  0  0  0  0  0
   17.7594   -9.1802  -17.6062 C   0  0  0  0  0  0  0  0  0  0  0  0
   17.4937   -9.5277  -19.0242 C   0  0  0  0  0  0  0  0  0  0  0  0
   18.4194   -9.3730  -19.8789 O   0  0  0  0  0  0  0  0  0  0  0  0
   19.3050   -9.4118  -15.7251 C   0  0  0  0  0  0  0  0  0  0  0  0
   18.7415   -9.6103  -14.6188 O   0  0  0  0  0  0  0  0  0  0  0  0
   16.2963  -10.0167  -19.5053 O   0  0  0  0  0  0  0  0  0  0  0  0
   25.9156   -9.1141  -18.2319 O   0  0  0  0  0  0  0  0  0  0  0  0
   25.0061   -8.9944  -17.2165 C   0  0  0  0  0  0  0  0  0  0  0  0
   24.3665  -10.1208  -16.7158 C   0  0  0  0  0  0  0  0  0  0  0  0
   23.4510   -9.9796  -15.6900 C   0  0  0  0  0  0  0  0  0  0  0  0
   23.1537   -8.7506  -15.1487 C   0  0  0  0  0  0  0  0  0  0  0  0
   22.1741   -8.6024  -14.0638 C   0  0  0  0  0  0  0  0  0  0  0  0
   20.9425   -7.9032  -14.5520 C   0  0  2  0  0  0  0  0  0  0  0  0
   20.4232   -8.5583  -15.7666 N   0  0  0  0  0  0  0  0  0  0  0  0
   21.1306   -6.4710  -14.8412 C   0  0  0  0  0  0  0  0  0  0  0  0
   21.0476   -5.9165  -16.1058 O   0  0  0  0  0  0  0  0  0  0  0  0
   23.8055   -7.6474  -15.6666 C   0  0  0  0  0  0  0  0  0  0  0  0
   24.7242   -7.7546  -16.6897 C   0  0  0  0  0  0  0  0  0  0  0  0
   21.3842   -5.6855  -13.8987 O   0  0  0  0  0  0  0  0  0  0  0  0
  2  1  1  6
  2  8  1  0
  2  3  1  0
  4  3  1  0
  4  5  1  0
  6  5  1  0
  7  6  1  0
  8  9  2  0
 10 11  1  0
 10  8  1  0
 11 12  1  1
 13 12  1  0
 14 13  2  0
 15 16  2  0
 15 11  1  0
 17 13  1  0
 18 19  1  0
 19 29  2  0
 19 20  1  0
 20 21  2  0
 21 22  1  0
 22 23  1  0
 24 23  1  6
 24 26  1  0
 24 25  1  0
 25 15  1  0
 26 27  1  0
 28 22  2  0
 29 28  1  0
 30 26  2  0
M  END
$$$$
