KDY.pdb
     RDKit          3D

 30 30  0  0  1  0  0  0  0  0999 V2000
   29.0199  -24.4250  -18.8987 N   0  0  0  0  0  0  0  0  0  0  0  0
   29.6374  -23.7702  -17.7880 C   0  0  1  0  0  0  0  0  0  0  0  0
   31.0052  -23.2151  -18.1767 C   0  0  0  0  0  0  0  0  0  0  0  0
   31.7843  -24.2905  -18.8579 C   0  0  0  0  0  0  0  0  0  0  0  0
   32.0198  -25.5135  -18.0624 C   0  0  0  0  0  0  0  0  0  0  0  0
   32.8371  -26.5969  -18.6350 C   0  0  0  0  0  0  0  0  0  0  0  0
   32.9803  -27.7157  -17.7685 N   0  0  0  0  0  0  0  0  0  0  0  0
   28.7896  -22.6572  -17.2955 C   0  0  0  0  0  0  0  0  0  0  0  0
   29.2518  -21.8149  -16.4770 O   0  0  0  0  0  0  0  0  0  0  0  0
   27.4404  -22.5017  -17.7235 N   0  0  0  0  0  0  0  0  0  0  0  0
   26.6558  -21.4327  -17.1948 C   0  0  1  0  0  0  0  0  0  0  0  0
   25.6008  -21.0251  -18.1977 C   0  0  0  0  0  0  0  0  0  0  0  0
   26.1686  -20.2828  -19.3505 C   0  0  0  0  0  0  0  0  0  0  0  0
   25.8817  -20.6621  -20.5274 O   0  0  0  0  0  0  0  0  0  0  0  0
   25.9950  -21.8101  -15.9153 C   0  0  0  0  0  0  0  0  0  0  0  0
   25.5857  -22.9750  -15.6784 O   0  0  0  0  0  0  0  0  0  0  0  0
   27.0030  -19.1883  -19.2499 O   0  0  0  0  0  0  0  0  0  0  0  0
   22.7575  -21.1321   -7.8122 O   0  0  0  0  0  0  0  0  0  0  0  0
   23.4241  -20.8807   -8.9805 C   0  0  0  0  0  0  0  0  0  0  0  0
   22.8087  -20.1567   -9.9934 C   0  0  0  0  0  0  0  0  0  0  0  0
   23.4982  -19.9129  -11.1662 C   0  0  0  0  0  0  0  0  0  0  0  0
   24.7813  -20.3687  -11.3601 C   0  0  0  0  0  0  0  0  0  0  0  0
   25.5090  -20.1151  -12.6110 C   0  0  0  0  0  0  0  0  0  0  0  0
   25.1191  -21.1077  -13.6630 C   0  0  2  0  0  0  0  0  0  0  0  0
   25.8204  -20.8223  -14.9283 N   0  0  0  0  0  0  0  0  0  0  0  0
   23.6729  -21.1670  -13.9369 C   0  0  0  0  0  0  0  0  0  0  0  0
   22.8013  -22.0475  -13.3216 O   0  0  0  0  0  0  0  0  0  0  0  0
   25.3686  -21.0861  -10.3351 C   0  0  0  0  0  0  0  0  0  0  0  0
   24.7076  -21.3462   -9.1528 C   0  0  0  0  0  0  0  0  0  0  0  0
   23.1775  -20.3812  -14.7776 O   0  0  0  0  0  0  0  0  0  0  0  0
  2  1  1  6
  2  8  1  0
  2  3  1  0
  4  3  1  0
  4  5  1  0
  6  5  1  0
  7  6  1  0
  8  9  2  0
 10 11  1  0
 10  8  1  0
 11 12  1  6
 13 12  1  0
 14 13  2  0
 15 16  2  0
 15 11  1  0
 17 13  1  0
 18 19  1  0
 19 29  2  0
 19 20  1  0
 20 21  2  0
 21 22  1  0
 22 23  1  0
 24 23  1  1
 24 26  1  0
 24 25  1  0
 25 15  1  0
 26 27  1  0
 28 22  2  0
 29 28  1  0
 30 26  2  0
M  END
$$$$
