KDY.pdb
     RDKit          3D

 30 30  0  0  1  0  0  0  0  0999 V2000
   23.4614  -20.2841  -21.7328 N   0  0  0  0  0  0  0  0  0  0  0  0
   23.7956  -21.1605  -20.6539 C   0  0  1  0  0  0  0  0  0  0  0  0
   25.2534  -21.6036  -20.7458 C   0  0  0  0  0  0  0  0  0  0  0  0
   25.4329  -22.4110  -21.9883 C   0  0  0  0  0  0  0  0  0  0  0  0
   25.1085  -21.7203  -23.2539 C   0  0  0  0  0  0  0  0  0  0  0  0
   25.2707  -22.4415  -24.5280 C   0  0  0  0  0  0  0  0  0  0  0  0
   26.6082  -22.4414  -25.0117 N   0  0  0  0  0  0  0  0  0  0  0  0
   23.5777  -20.4935  -19.3472 C   0  0  0  0  0  0  0  0  0  0  0  0
   23.8440  -21.0947  -18.2699 O   0  0  0  0  0  0  0  0  0  0  0  0
   23.0665  -19.1671  -19.2630 N   0  0  0  0  0  0  0  0  0  0  0  0
   22.9328  -18.5470  -17.9841 C   0  0  1  0  0  0  0  0  0  0  0  0
   22.7421  -17.0570  -18.1532 C   0  0  0  0  0  0  0  0  0  0  0  0
   22.6566  -16.3437  -16.8547 C   0  0  0  0  0  0  0  0  0  0  0  0
   22.7632  -17.0096  -15.7793 O   0  0  0  0  0  0  0  0  0  0  0  0
   21.7856  -19.1032  -17.2155 C   0  0  0  0  0  0  0  0  0  0  0  0
   20.6356  -19.2323  -17.7070 O   0  0  0  0  0  0  0  0  0  0  0  0
   22.4661  -14.9843  -16.7128 O   0  0  0  0  0  0  0  0  0  0  0  0
   16.2964  -23.3321  -12.2583 O   0  0  0  0  0  0  0  0  0  0  0  0
   17.3290  -22.8599  -13.0221 C   0  0  0  0  0  0  0  0  0  0  0  0
   17.1271  -21.7904  -13.8846 C   0  0  0  0  0  0  0  0  0  0  0  0
   18.1823  -21.3276  -14.6478 C   0  0  0  0  0  0  0  0  0  0  0  0
   19.4318  -21.8983  -14.5778 C   0  0  0  0  0  0  0  0  0  0  0  0
   20.5497  -21.4096  -15.3963 C   0  0  0  0  0  0  0  0  0  0  0  0
   20.8917  -19.9956  -15.0388 C   0  0  2  0  0  0  0  0  0  0  0  0
   21.9957  -19.5017  -15.8822 N   0  0  0  0  0  0  0  0  0  0  0  0
   21.2618  -19.7980  -13.6268 C   0  0  0  0  0  0  0  0  0  0  0  0
   20.3492  -19.6383  -12.5995 O   0  0  0  0  0  0  0  0  0  0  0  0
   19.6035  -22.9609  -13.7109 C   0  0  0  0  0  0  0  0  0  0  0  0
   18.5711  -23.4462  -12.9357 C   0  0  0  0  0  0  0  0  0  0  0  0
   22.4740  -19.7674  -13.3114 O   0  0  0  0  0  0  0  0  0  0  0  0
  2  1  1  6
  2  8  1  0
  2  3  1  0
  4  3  1  0
  4  5  1  0
  6  5  1  0
  7  6  1  0
  8  9  2  0
 10 11  1  0
 10  8  1  0
 11 12  1  6
 13 12  1  0
 14 13  2  0
 15 16  2  0
 15 11  1  0
 17 13  1  0
 18 19  1  0
 19 29  2  0
 19 20  1  0
 20 21  2  0
 21 22  1  0
 22 23  1  0
 24 23  1  1
 24 26  1  0
 24 25  1  0
 25 15  1  0
 26 27  1  0
 28 22  2  0
 29 28  1  0
 30 26  2  0
M  END
$$$$
