KDY.pdb
     RDKit          3D

 30 30  0  0  1  0  0  0  0  0999 V2000
   19.6983  -12.6540  -17.0595 N   0  0  0  0  0  0  0  0  0  0  0  0
   19.0003  -12.0872  -18.1710 C   0  0  1  0  0  0  0  0  0  0  0  0
   18.1774  -13.1498  -18.8946 C   0  0  0  0  0  0  0  0  0  0  0  0
   18.4921  -14.4848  -18.3059 C   0  0  0  0  0  0  0  0  0  0  0  0
   17.3988  -15.1228  -17.5432 C   0  0  0  0  0  0  0  0  0  0  0  0
   17.5739  -16.5006  -17.0525 C   0  0  0  0  0  0  0  0  0  0  0  0
   16.4648  -16.9786  -16.3014 N   0  0  0  0  0  0  0  0  0  0  0  0
   18.0954  -10.9999  -17.7250 C   0  0  0  0  0  0  0  0  0  0  0  0
   17.3471  -10.4106  -18.5532 O   0  0  0  0  0  0  0  0  0  0  0  0
   18.0395  -10.5875  -16.3632 N   0  0  0  0  0  0  0  0  0  0  0  0
   17.1500   -9.5372  -15.9845 C   0  0  1  0  0  0  0  0  0  0  0  0
   16.6976   -9.7372  -14.5561 C   0  0  0  0  0  0  0  0  0  0  0  0
   15.8036  -10.9116  -14.4019 C   0  0  0  0  0  0  0  0  0  0  0  0
   14.7245  -10.9544  -15.0690 O   0  0  0  0  0  0  0  0  0  0  0  0
   17.7871   -8.1978  -16.1132 C   0  0  0  0  0  0  0  0  0  0  0  0
   18.9770   -7.9746  -15.7739 O   0  0  0  0  0  0  0  0  0  0  0  0
   16.0511  -11.9878  -13.5744 O   0  0  0  0  0  0  0  0  0  0  0  0
   18.9678    0.1280  -18.5241 O   0  0  0  0  0  0  0  0  0  0  0  0
   18.4470   -1.1275  -18.3655 C   0  0  0  0  0  0  0  0  0  0  0  0
   17.4146   -1.3460  -17.4628 C   0  0  0  0  0  0  0  0  0  0  0  0
   16.9017   -2.6211  -17.3166 C   0  0  0  0  0  0  0  0  0  0  0  0
   17.3865   -3.6843  -18.0421 C   0  0  0  0  0  0  0  0  0  0  0  0
   16.8450   -5.0403  -17.8788 C   0  0  0  0  0  0  0  0  0  0  0  0
   17.6024   -5.7917  -16.8272 C   0  0  2  0  0  0  0  0  0  0  0  0
   17.0265   -7.1356  -16.6364 N   0  0  0  0  0  0  0  0  0  0  0  0
   17.6547   -5.1188  -15.5178 C   0  0  0  0  0  0  0  0  0  0  0  0
   18.6513   -4.2388  -15.1360 O   0  0  0  0  0  0  0  0  0  0  0  0
   18.4140   -3.4372  -18.9329 C   0  0  0  0  0  0  0  0  0  0  0  0
   18.9475   -2.1767  -19.1022 C   0  0  0  0  0  0  0  0  0  0  0  0
   16.7512   -5.3428  -14.6792 O   0  0  0  0  0  0  0  0  0  0  0  0
  2  1  1  1
  2  8  1  0
  2  3  1  0
  4  3  1  0
  4  5  1  0
  6  5  1  0
  7  6  1  0
  8  9  2  0
 10 11  1  0
 10  8  1  0
 11 12  1  1
 13 12  1  0
 14 13  2  0
 15 16  2  0
 15 11  1  0
 17 13  1  0
 18 19  1  0
 19 29  2  0
 19 20  1  0
 20 21  2  0
 21 22  1  0
 22 23  1  0
 24 23  1  6
 24 26  1  0
 24 25  1  0
 25 15  1  0
 26 27  1  0
 28 22  2  0
 29 28  1  0
 30 26  2  0
M  END
$$$$
