WHW.pdb
     RDKit          3D

 39 43  0  0  1  0  0  0  0  0999 V2000
    9.1258  -17.8771   19.2916 N   0  0  0  0  0  0  0  0  0  0  0  0
    8.9188  -16.9843   20.4117 C   0  0  1  0  0  0  0  0  0  0  0  0
    7.4565  -16.5246   20.3982 C   0  0  0  0  0  0  0  0  0  0  0  0
    7.4248  -15.1890   19.7629 C   0  0  0  0  0  0  0  0  0  0  0  0
    7.1653  -14.9578   18.4090 C   0  0  0  0  0  0  0  0  0  0  0  0
    7.2175  -13.6229   18.1812 N   0  0  0  0  0  0  0  0  0  0  0  0
    7.4978  -12.9782   19.3200 C   0  0  0  0  0  0  0  0  0  0  0  0
    7.6618  -11.6579   19.6424 C   0  0  0  0  0  0  0  0  0  0  0  0
    7.9543  -11.3017   20.9433 C   0  0  0  0  0  0  0  0  0  0  0  0
    8.0904  -12.2545   21.9545 C   0  0  0  0  0  0  0  0  0  0  0  0
    7.9207  -13.5765   21.6047 C   0  0  0  0  0  0  0  0  0  0  0  0
    7.6273  -13.9499   20.3058 C   0  0  0  0  0  0  0  0  0  0  0  0
    9.2236  -17.6924   21.6571 C   0  0  0  0  0  0  0  0  0  0  0  0
    8.5524  -18.7159   21.9472 O   0  0  0  0  0  0  0  0  0  0  0  0
   10.2429  -17.2670   22.5413 N   0  0  0  0  0  0  0  0  0  0  0  0
   10.6123  -17.9557   23.7688 C   0  0  1  0  0  0  0  0  0  0  0  0
   11.9781  -18.5467   23.7554 C   0  0  0  0  0  0  0  0  0  0  0  0
   12.1995  -19.6116   22.7277 C   0  0  0  0  0  0  0  0  0  0  0  0
   11.3391  -20.1750   21.8273 C   0  0  0  0  0  0  0  0  0  0  0  0
   11.9848  -21.1079   21.1136 N   0  0  0  0  0  0  0  0  0  0  0  0
   13.2481  -21.1443   21.5513 C   0  0  0  0  0  0  0  0  0  0  0  0
   13.3969  -20.2462   22.5277 N   0  0  0  0  0  0  0  0  0  0  0  0
   10.6085  -16.9214   24.8391 C   0  0  0  0  0  0  0  0  0  0  0  0
   11.0810  -15.8007   24.6261 O   0  0  0  0  0  0  0  0  0  0  0  0
   10.0592  -17.2543   26.0820 N   0  0  0  0  0  0  0  0  0  0  0  0
   10.2814  -16.3939   27.2497 C   0  0  1  0  0  0  0  0  0  0  0  0
    8.9456  -16.3120   27.9274 C   0  0  0  0  0  0  0  0  0  0  0  0
    7.9707  -15.5844   27.1191 C   0  0  0  0  0  0  0  0  0  0  0  0
    6.9785  -16.1486   26.3531 C   0  0  0  0  0  0  0  0  0  0  0  0
    6.2895  -15.1921   25.7155 N   0  0  0  0  0  0  0  0  0  0  0  0
    6.8235  -14.0079   26.0598 C   0  0  0  0  0  0  0  0  0  0  0  0
    6.5103  -12.7059   25.7229 C   0  0  0  0  0  0  0  0  0  0  0  0
    7.2026  -11.6396   26.2269 C   0  0  0  0  0  0  0  0  0  0  0  0
    8.2533  -11.8157   27.1013 C   0  0  0  0  0  0  0  0  0  0  0  0
    8.5693  -13.1085   27.4390 C   0  0  0  0  0  0  0  0  0  0  0  0
    7.8882  -14.2216   26.9462 C   0  0  0  0  0  0  0  0  0  0  0  0
   11.3984  -16.8743   28.0335 C   0  0  0  0  0  0  0  0  0  0  0  0
   11.8709  -18.0215   27.8603 O   0  0  0  0  0  0  0  0  0  0  0  0
   12.0274  -16.1084   29.0290 O   0  0  0  0  0  0  0  0  0  0  0  0
  2  3  1  0
  2  1  1  6
  4  3  1  0
  5  4  2  0
  6  5  1  0
  7  6  1  0
  7 12  2  0
  8  7  1  0
  9  8  2  0
  9 10  1  0
 10 11  2  0
 11 12  1  0
 12  4  1  0
 13  2  1  0
 13 14  2  0
 15 13  1  0
 16 15  1  0
 16 17  1  6
 18 17  1  0
 18 22  1  0
 19 18  2  0
 20 19  1  0
 20 21  1  0
 21 22  2  0
 23 16  1  0
 24 23  2  0
 25 23  1  0
 26 37  1  0
 26 25  1  0
 26 27  1  1
 28 36  1  0
 28 27  1  0
 29 28  2  0
 30 29  1  0
 30 31  1  0
 31 36  2  0
 32 31  1  0
 32 33  2  0
 33 34  1  0
 34 35  2  0
 36 35  1  0
 37 39  1  0
 38 37  2  0
M  END
$$$$
