WHW.pdb
     RDKit          3D

 39 43  0  0  1  0  0  0  0  0999 V2000
    6.8003  -18.3102   21.3520 N   0  0  0  0  0  0  0  0  0  0  0  0
    7.7781  -17.3512   21.8198 C   0  0  1  0  0  0  0  0  0  0  0  0
    7.0319  -16.1224   22.3518 C   0  0  0  0  0  0  0  0  0  0  0  0
    6.8470  -15.1969   21.2125 C   0  0  0  0  0  0  0  0  0  0  0  0
    5.6968  -15.1289   20.4213 C   0  0  0  0  0  0  0  0  0  0  0  0
    5.8784  -14.1744   19.4766 N   0  0  0  0  0  0  0  0  0  0  0  0
    7.0889  -13.6209   19.6168 C   0  0  0  0  0  0  0  0  0  0  0  0
    7.7612  -12.6365   18.9437 C   0  0  0  0  0  0  0  0  0  0  0  0
    9.0342  -12.2813   19.3417 C   0  0  0  0  0  0  0  0  0  0  0  0
    9.6674  -12.8998   20.4211 C   0  0  0  0  0  0  0  0  0  0  0  0
    8.9700  -13.8875   21.0822 C   0  0  0  0  0  0  0  0  0  0  0  0
    7.6938  -14.2551   20.6959 C   0  0  0  0  0  0  0  0  0  0  0  0
    8.5850  -17.9612   22.8790 C   0  0  0  0  0  0  0  0  0  0  0  0
    8.0041  -18.6475   23.7585 O   0  0  0  0  0  0  0  0  0  0  0  0
    9.9897  -17.8059   22.9468 N   0  0  0  0  0  0  0  0  0  0  0  0
   10.8295  -18.3387   24.0090 C   0  0  1  0  0  0  0  0  0  0  0  0
   12.2755  -18.4219   23.6668 C   0  0  0  0  0  0  0  0  0  0  0  0
   13.1400  -19.0556   24.7108 C   0  0  0  0  0  0  0  0  0  0  0  0
   14.0553  -18.5063   25.5648 C   0  0  0  0  0  0  0  0  0  0  0  0
   14.6008  -19.4714   26.3182 N   0  0  0  0  0  0  0  0  0  0  0  0
   14.0421  -20.6300   25.9519 C   0  0  0  0  0  0  0  0  0  0  0  0
   13.1560  -20.3985   24.9806 N   0  0  0  0  0  0  0  0  0  0  0  0
   10.7167  -17.3814   25.1431 C   0  0  0  0  0  0  0  0  0  0  0  0
   10.9730  -16.1849   24.9781 O   0  0  0  0  0  0  0  0  0  0  0  0
   10.3161  -17.8736   26.3900 N   0  0  0  0  0  0  0  0  0  0  0  0
   10.4658  -17.0542   27.5980 C   0  0  1  0  0  0  0  0  0  0  0  0
    9.0794  -16.9387   28.1591 C   0  0  0  0  0  0  0  0  0  0  0  0
    8.1944  -16.1913   27.2696 C   0  0  0  0  0  0  0  0  0  0  0  0
    7.2181  -16.7305   26.4659 C   0  0  0  0  0  0  0  0  0  0  0  0
    6.6209  -15.7635   25.7557 N   0  0  0  0  0  0  0  0  0  0  0  0
    7.1990  -14.5972   26.0899 C   0  0  0  0  0  0  0  0  0  0  0  0
    6.9782  -13.2941   25.6900 C   0  0  0  0  0  0  0  0  0  0  0  0
    7.6984  -12.2479   26.1970 C   0  0  0  0  0  0  0  0  0  0  0  0
    8.6856  -12.4464   27.1379 C   0  0  0  0  0  0  0  0  0  0  0  0
    8.9097  -13.7405   27.5385 C   0  0  0  0  0  0  0  0  0  0  0  0
    8.1975  -14.8336   27.0450 C   0  0  0  0  0  0  0  0  0  0  0  0
   11.4913  -17.5985   28.4610 C   0  0  0  0  0  0  0  0  0  0  0  0
   11.8664  -18.7892   28.3571 O   0  0  0  0  0  0  0  0  0  0  0  0
   12.1331  -16.8505   29.4619 O   0  0  0  0  0  0  0  0  0  0  0  0
  2  3  1  0
  2  1  1  1
  4  3  1  0
  5  4  2  0
  6  5  1  0
  7  6  1  0
  7 12  2  0
  8  7  1  0
  9  8  2  0
  9 10  1  0
 10 11  2  0
 11 12  1  0
 12  4  1  0
 13  2  1  0
 13 14  2  0
 15 13  1  0
 16 15  1  0
 16 17  1  6
 18 17  1  0
 18 22  1  0
 19 18  2  0
 20 19  1  0
 20 21  1  0
 21 22  2  0
 23 16  1  0
 24 23  2  0
 25 23  1  0
 26 37  1  0
 26 25  1  0
 26 27  1  1
 28 36  1  0
 28 27  1  0
 29 28  2  0
 30 29  1  0
 30 31  1  0
 31 36  2  0
 32 31  1  0
 32 33  2  0
 33 34  1  0
 34 35  2  0
 36 35  1  0
 37 39  1  0
 38 37  2  0
M  END
$$$$
