WHW.pdb
     RDKit          3D

 39 43  0  0  1  0  0  0  0  0999 V2000
    9.7226  -16.2130   21.0097 N   0  0  0  0  0  0  0  0  0  0  0  0
    8.7057  -15.8365   21.9681 C   0  0  1  0  0  0  0  0  0  0  0  0
    7.3345  -15.9803   21.2979 C   0  0  0  0  0  0  0  0  0  0  0  0
    7.3177  -15.0630   20.1373 C   0  0  0  0  0  0  0  0  0  0  0  0
    6.9168  -15.4200   18.8468 C   0  0  0  0  0  0  0  0  0  0  0  0
    7.0310  -14.3345   18.0434 N   0  0  0  0  0  0  0  0  0  0  0  0
    7.4857  -13.2926   18.7495 C   0  0  0  0  0  0  0  0  0  0  0  0
    7.7744  -11.9919   18.4348 C   0  0  0  0  0  0  0  0  0  0  0  0
    8.2410  -11.1377   19.4134 C   0  0  0  0  0  0  0  0  0  0  0  0
    8.4311  -11.5607   20.7301 C   0  0  0  0  0  0  0  0  0  0  0  0
    8.1334  -12.8742   21.0216 C   0  0  0  0  0  0  0  0  0  0  0  0
    7.6650  -13.7427   20.0526 C   0  0  0  0  0  0  0  0  0  0  0  0
    8.7991  -16.7097   23.1403 C   0  0  0  0  0  0  0  0  0  0  0  0
    7.8143  -16.7779   23.9199 O   0  0  0  0  0  0  0  0  0  0  0  0
    9.9538  -17.4761   23.4248 N   0  0  0  0  0  0  0  0  0  0  0  0
   10.1395  -18.2752   24.6266 C   0  0  1  0  0  0  0  0  0  0  0  0
   11.1457  -19.3636   24.4922 C   0  0  0  0  0  0  0  0  0  0  0  0
   11.2021  -20.3220   25.6400 C   0  0  0  0  0  0  0  0  0  0  0  0
   10.2292  -21.1031   26.1985 C   0  0  0  0  0  0  0  0  0  0  0  0
   10.7439  -21.7943   27.2251 N   0  0  0  0  0  0  0  0  0  0  0  0
   12.0350  -21.4604   27.3262 C   0  0  0  0  0  0  0  0  0  0  0  0
   12.3305  -20.5707   26.3757 N   0  0  0  0  0  0  0  0  0  0  0  0
   10.6588  -17.3438   25.6649 C   0  0  0  0  0  0  0  0  0  0  0  0
   11.6828  -16.6858   25.4576 O   0  0  0  0  0  0  0  0  0  0  0  0
    9.9587  -17.2378   26.8716 N   0  0  0  0  0  0  0  0  0  0  0  0
   10.5950  -16.6437   28.0528 C   0  0  1  0  0  0  0  0  0  0  0  0
    9.8149  -15.3906   28.3209 C   0  0  0  0  0  0  0  0  0  0  0  0
    8.7131  -15.2249   27.3768 C   0  0  0  0  0  0  0  0  0  0  0  0
    7.7735  -16.1772   27.0605 C   0  0  0  0  0  0  0  0  0  0  0  0
    6.9309  -15.7021   26.1330 N   0  0  0  0  0  0  0  0  0  0  0  0
    7.3124  -14.4468   25.8417 C   0  0  0  0  0  0  0  0  0  0  0  0
    6.8079  -13.4901   24.9832 C   0  0  0  0  0  0  0  0  0  0  0  0
    7.3697  -12.2483   24.8702 C   0  0  0  0  0  0  0  0  0  0  0  0
    8.4738  -11.8907   25.6136 C   0  0  0  0  0  0  0  0  0  0  0  0
    8.9798  -12.8386   26.4683 C   0  0  0  0  0  0  0  0  0  0  0  0
    8.4361  -14.1152   26.6114 C   0  0  0  0  0  0  0  0  0  0  0  0
   10.6902  -17.6118   29.1235 C   0  0  0  0  0  0  0  0  0  0  0  0
   10.0965  -18.7131   29.0614 O   0  0  0  0  0  0  0  0  0  0  0  0
   11.4398  -17.3974   30.2920 O   0  0  0  0  0  0  0  0  0  0  0  0
  2  3  1  0
  2  1  1  6
  4  3  1  0
  5  4  2  0
  6  5  1  0
  7  6  1  0
  7 12  2  0
  8  7  1  0
  9  8  2  0
  9 10  1  0
 10 11  2  0
 11 12  1  0
 12  4  1  0
 13  2  1  0
 13 14  2  0
 15 13  1  0
 16 15  1  0
 16 17  1  6
 18 17  1  0
 18 22  1  0
 19 18  2  0
 20 19  1  0
 20 21  1  0
 21 22  2  0
 23 16  1  0
 24 23  2  0
 25 23  1  0
 26 37  1  0
 26 25  1  0
 26 27  1  1
 28 36  1  0
 28 27  1  0
 29 28  2  0
 30 29  1  0
 30 31  1  0
 31 36  2  0
 32 31  1  0
 32 33  2  0
 33 34  1  0
 34 35  2  0
 36 35  1  0
 37 39  1  0
 38 37  2  0
M  END
$$$$
