WHW.pdb
     RDKit          3D

 39 43  0  0  1  0  0  0  0  0999 V2000
    5.7706  -17.9524   25.0372 N   0  0  0  0  0  0  0  0  0  0  0  0
    6.0241  -16.5905   24.6183 C   0  0  1  0  0  0  0  0  0  0  0  0
    6.6056  -15.8200   25.8092 C   0  0  0  0  0  0  0  0  0  0  0  0
    5.6401  -14.7529   26.1521 C   0  0  0  0  0  0  0  0  0  0  0  0
    4.3732  -14.9724   26.7003 C   0  0  0  0  0  0  0  0  0  0  0  0
    3.7679  -13.7735   26.8822 N   0  0  0  0  0  0  0  0  0  0  0  0
    4.5797  -12.7889   26.4792 C   0  0  0  0  0  0  0  0  0  0  0  0
    4.4652  -11.4251   26.4433 C   0  0  0  0  0  0  0  0  0  0  0  0
    5.5076  -10.6628   25.9562 C   0  0  0  0  0  0  0  0  0  0  0  0
    6.6898  -11.2428   25.4927 C   0  0  0  0  0  0  0  0  0  0  0  0
    6.7806  -12.6170   25.5392 C   0  0  0  0  0  0  0  0  0  0  0  0
    5.7452  -13.3951   26.0244 C   0  0  0  0  0  0  0  0  0  0  0  0
    6.9690  -16.5968   23.4993 C   0  0  0  0  0  0  0  0  0  0  0  0
    7.8505  -17.4933   23.4610 O   0  0  0  0  0  0  0  0  0  0  0  0
    6.9246  -15.6336   22.4639 N   0  0  0  0  0  0  0  0  0  0  0  0
    7.8813  -15.5513   21.3705 C   0  0  1  0  0  0  0  0  0  0  0  0
    7.6218  -14.4462   20.4080 C   0  0  0  0  0  0  0  0  0  0  0  0
    8.4925  -14.4461   19.1911 C   0  0  0  0  0  0  0  0  0  0  0  0
    9.3653  -13.5060   18.7189 C   0  0  0  0  0  0  0  0  0  0  0  0
    9.9160  -13.9395   17.5763 N   0  0  0  0  0  0  0  0  0  0  0  0
    9.4019  -15.1465   17.3161 C   0  0  0  0  0  0  0  0  0  0  0  0
    8.5387  -15.4696   18.2818 N   0  0  0  0  0  0  0  0  0  0  0  0
    9.2007  -15.2661   21.9976 C   0  0  0  0  0  0  0  0  0  0  0  0
    9.3351  -14.3033   22.7589 O   0  0  0  0  0  0  0  0  0  0  0  0
   10.2738  -16.1133   21.7008 N   0  0  0  0  0  0  0  0  0  0  0  0
   11.5731  -15.9283   22.3571 C   0  0  1  0  0  0  0  0  0  0  0  0
   11.5380  -16.8433   23.5453 C   0  0  0  0  0  0  0  0  0  0  0  0
   10.7687  -16.2722   24.6475 C   0  0  0  0  0  0  0  0  0  0  0  0
    9.4434  -15.9098   24.6016 C   0  0  0  0  0  0  0  0  0  0  0  0
    9.0683  -15.3873   25.7773 N   0  0  0  0  0  0  0  0  0  0  0  0
   10.1379  -15.4064   26.5907 C   0  0  0  0  0  0  0  0  0  0  0  0
   10.3247  -15.0144   27.9016 C   0  0  0  0  0  0  0  0  0  0  0  0
   11.5284  -15.1531   28.5357 C   0  0  0  0  0  0  0  0  0  0  0  0
   12.6198  -15.6947   27.8914 C   0  0  0  0  0  0  0  0  0  0  0  0
   12.4396  -16.0855   26.5875 C   0  0  0  0  0  0  0  0  0  0  0  0
   11.2288  -15.9600   25.9064 C   0  0  0  0  0  0  0  0  0  0  0  0
   12.6533  -16.1049   21.4111 C   0  0  0  0  0  0  0  0  0  0  0  0
   13.8258  -15.7625   21.6891 O   0  0  0  0  0  0  0  0  0  0  0  0
   12.4759  -16.6623   20.1340 O   0  0  0  0  0  0  0  0  0  0  0  0
  2  3  1  0
  2  1  1  1
  4  3  1  0
  5  4  2  0
  6  5  1  0
  7  6  1  0
  7 12  2  0
  8  7  1  0
  9  8  2  0
  9 10  1  0
 10 11  2  0
 11 12  1  0
 12  4  1  0
 13  2  1  0
 13 14  2  0
 15 13  1  0
 16 15  1  0
 16 17  1  6
 18 17  1  0
 18 22  1  0
 19 18  2  0
 20 19  1  0
 20 21  1  0
 21 22  2  0
 23 16  1  0
 24 23  2  0
 25 23  1  0
 26 37  1  0
 26 25  1  0
 26 27  1  1
 28 36  1  0
 28 27  1  0
 29 28  2  0
 30 29  1  0
 30 31  1  0
 31 36  2  0
 32 31  1  0
 32 33  2  0
 33 34  1  0
 34 35  2  0
 36 35  1  0
 37 39  1  0
 38 37  2  0
M  END
$$$$
