WHW.pdb
     RDKit          3D

 39 43  0  0  1  0  0  0  0  0999 V2000
   11.5395  -16.7292   19.1063 N   0  0  0  0  0  0  0  0  0  0  0  0
   10.2598  -16.6181   19.7731 C   0  0  1  0  0  0  0  0  0  0  0  0
    9.2002  -16.2568   18.7259 C   0  0  0  0  0  0  0  0  0  0  0  0
    8.7198  -14.8941   19.0433 C   0  0  0  0  0  0  0  0  0  0  0  0
    8.6617  -13.8380   18.1295 C   0  0  0  0  0  0  0  0  0  0  0  0
    8.1741  -12.7443   18.7641 N   0  0  0  0  0  0  0  0  0  0  0  0
    7.9137  -13.0396   20.0432 C   0  0  0  0  0  0  0  0  0  0  0  0
    7.4210  -12.3188   21.0977 C   0  0  0  0  0  0  0  0  0  0  0  0
    7.2641  -12.9248   22.3278 C   0  0  0  0  0  0  0  0  0  0  0  0
    7.5951  -14.2650   22.5357 C   0  0  0  0  0  0  0  0  0  0  0  0
    8.0890  -14.9688   21.4589 C   0  0  0  0  0  0  0  0  0  0  0  0
    8.2523  -14.3763   20.2199 C   0  0  0  0  0  0  0  0  0  0  0  0
    9.9357  -17.8951   20.4130 C   0  0  0  0  0  0  0  0  0  0  0  0
    9.4151  -18.8030   19.7151 O   0  0  0  0  0  0  0  0  0  0  0  0
   10.1871  -18.1420   21.7832 N   0  0  0  0  0  0  0  0  0  0  0  0
    9.2556  -17.8443   22.8608 C   0  0  1  0  0  0  0  0  0  0  0  0
    8.0182  -18.6712   22.8503 C   0  0  0  0  0  0  0  0  0  0  0  0
    7.0539  -18.3858   23.9583 C   0  0  0  0  0  0  0  0  0  0  0  0
    6.8826  -18.9940   25.1705 C   0  0  0  0  0  0  0  0  0  0  0  0
    5.8788  -18.4008   25.8316 N   0  0  0  0  0  0  0  0  0  0  0  0
    5.4089  -17.4210   25.0518 C   0  0  0  0  0  0  0  0  0  0  0  0
    6.1073  -17.3967   23.9144 N   0  0  0  0  0  0  0  0  0  0  0  0
    9.9709  -18.1680   24.1253 C   0  0  0  0  0  0  0  0  0  0  0  0
    9.3930  -18.7753   25.0318 O   0  0  0  0  0  0  0  0  0  0  0  0
   11.3049  -17.7665   24.2549 N   0  0  0  0  0  0  0  0  0  0  0  0
   11.6442  -16.5214   24.9532 C   0  0  1  0  0  0  0  0  0  0  0  0
   10.9454  -16.6198   26.2770 C   0  0  0  0  0  0  0  0  0  0  0  0
    9.6434  -15.9583   26.2539 C   0  0  0  0  0  0  0  0  0  0  0  0
    8.4475  -16.5463   25.9167 C   0  0  0  0  0  0  0  0  0  0  0  0
    7.4598  -15.6418   25.9671 N   0  0  0  0  0  0  0  0  0  0  0  0
    8.0013  -14.4682   26.3353 C   0  0  0  0  0  0  0  0  0  0  0  0
    7.4617  -13.2170   26.5588 C   0  0  0  0  0  0  0  0  0  0  0  0
    8.2289  -12.1563   26.9548 C   0  0  0  0  0  0  0  0  0  0  0  0
    9.5868  -12.2875   27.1508 C   0  0  0  0  0  0  0  0  0  0  0  0
   10.1285  -13.5295   26.9292 C   0  0  0  0  0  0  0  0  0  0  0  0
    9.3802  -14.6350   26.5245 C   0  0  0  0  0  0  0  0  0  0  0  0
   13.0763  -16.3179   24.9687 C   0  0  0  0  0  0  0  0  0  0  0  0
   13.5882  -15.3296   25.5437 O   0  0  0  0  0  0  0  0  0  0  0  0
   13.9859  -17.1937   24.3533 O   0  0  0  0  0  0  0  0  0  0  0  0
  2  3  1  0
  2  1  1  6
  4  3  1  0
  5  4  2  0
  6  5  1  0
  7  6  1  0
  7 12  2  0
  8  7  1  0
  9  8  2  0
  9 10  1  0
 10 11  2  0
 11 12  1  0
 12  4  1  0
 13  2  1  0
 13 14  2  0
 15 13  1  0
 16 15  1  0
 16 17  1  6
 18 17  1  0
 18 22  1  0
 19 18  2  0
 20 19  1  0
 20 21  1  0
 21 22  2  0
 23 16  1  0
 24 23  2  0
 25 23  1  0
 26 37  1  0
 26 25  1  0
 26 27  1  1
 28 36  1  0
 28 27  1  0
 29 28  2  0
 30 29  1  0
 30 31  1  0
 31 36  2  0
 32 31  1  0
 32 33  2  0
 33 34  1  0
 34 35  2  0
 36 35  1  0
 37 39  1  0
 38 37  2  0
M  END
$$$$
