WHW.pdb
     RDKit          3D

 39 43  0  0  1  0  0  0  0  0999 V2000
    9.7471  -16.7651   20.4935 N   0  0  0  0  0  0  0  0  0  0  0  0
    9.0330  -16.2069   21.6217 C   0  0  1  0  0  0  0  0  0  0  0  0
    7.5551  -16.0715   21.2378 C   0  0  0  0  0  0  0  0  0  0  0  0
    7.4853  -15.1363   20.0936 C   0  0  0  0  0  0  0  0  0  0  0  0
    7.0298  -15.4746   18.8162 C   0  0  0  0  0  0  0  0  0  0  0  0
    7.1060  -14.3763   18.0258 N   0  0  0  0  0  0  0  0  0  0  0  0
    7.5880  -13.3439   18.7278 C   0  0  0  0  0  0  0  0  0  0  0  0
    7.8592  -12.0375   18.4212 C   0  0  0  0  0  0  0  0  0  0  0  0
    8.3654  -11.1970   19.3920 C   0  0  0  0  0  0  0  0  0  0  0  0
    8.6137  -11.6398   20.6924 C   0  0  0  0  0  0  0  0  0  0  0  0
    8.3326  -12.9587   20.9759 C   0  0  0  0  0  0  0  0  0  0  0  0
    7.8250  -13.8137   20.0146 C   0  0  0  0  0  0  0  0  0  0  0  0
    9.1848  -17.0943   22.7769 C   0  0  0  0  0  0  0  0  0  0  0  0
    8.1496  -17.4914   23.3710 O   0  0  0  0  0  0  0  0  0  0  0  0
   10.4504  -17.5188   23.2459 N   0  0  0  0  0  0  0  0  0  0  0  0
   10.6641  -18.2995   24.4552 C   0  0  1  0  0  0  0  0  0  0  0  0
   11.7814  -19.2785   24.3660 C   0  0  0  0  0  0  0  0  0  0  0  0
   11.5401  -20.4362   23.4492 C   0  0  0  0  0  0  0  0  0  0  0  0
   10.4184  -20.8136   22.7652 C   0  0  0  0  0  0  0  0  0  0  0  0
   10.6702  -21.9350   22.0754 N   0  0  0  0  0  0  0  0  0  0  0  0
   11.9413  -22.2756   22.3140 C   0  0  0  0  0  0  0  0  0  0  0  0
   12.4837  -21.3808   23.1430 N   0  0  0  0  0  0  0  0  0  0  0  0
   11.0389  -17.3239   25.5149 C   0  0  0  0  0  0  0  0  0  0  0  0
   11.7805  -16.3719   25.2533 O   0  0  0  0  0  0  0  0  0  0  0  0
   10.5311  -17.5165   26.8043 N   0  0  0  0  0  0  0  0  0  0  0  0
   10.9352  -16.6333   27.9042 C   0  0  1  0  0  0  0  0  0  0  0  0
   10.4199  -15.2781   27.5188 C   0  0  0  0  0  0  0  0  0  0  0  0
    8.9988  -15.3130   27.1835 C   0  0  0  0  0  0  0  0  0  0  0  0
    8.2376  -16.4461   27.0207 C   0  0  0  0  0  0  0  0  0  0  0  0
    6.9844  -16.1135   26.6816 N   0  0  0  0  0  0  0  0  0  0  0  0
    6.9212  -14.7724   26.6226 C   0  0  0  0  0  0  0  0  0  0  0  0
    5.8928  -13.8948   26.3416 C   0  0  0  0  0  0  0  0  0  0  0  0
    6.0703  -12.5389   26.3620 C   0  0  0  0  0  0  0  0  0  0  0  0
    7.2930  -11.9806   26.6664 C   0  0  0  0  0  0  0  0  0  0  0  0
    8.3192  -12.8489   26.9460 C   0  0  0  0  0  0  0  0  0  0  0  0
    8.1783  -14.2366   26.9349 C   0  0  0  0  0  0  0  0  0  0  0  0
   10.5069  -17.1725   29.1764 C   0  0  0  0  0  0  0  0  0  0  0  0
    9.7754  -18.1874   29.2414 O   0  0  0  0  0  0  0  0  0  0  0  0
   10.8700  -16.6122   30.4124 O   0  0  0  0  0  0  0  0  0  0  0  0
  2  3  1  0
  2  1  1  6
  4  3  1  0
  5  4  2  0
  6  5  1  0
  7  6  1  0
  7 12  2  0
  8  7  1  0
  9  8  2  0
  9 10  1  0
 10 11  2  0
 11 12  1  0
 12  4  1  0
 13  2  1  0
 13 14  2  0
 15 13  1  0
 16 15  1  0
 16 17  1  6
 18 17  1  0
 18 22  1  0
 19 18  2  0
 20 19  1  0
 20 21  1  0
 21 22  2  0
 23 16  1  0
 24 23  2  0
 25 23  1  0
 26 37  1  0
 26 25  1  0
 26 27  1  6
 28 36  1  0
 28 27  1  0
 29 28  2  0
 30 29  1  0
 30 31  1  0
 31 36  2  0
 32 31  1  0
 32 33  2  0
 33 34  1  0
 34 35  2  0
 36 35  1  0
 37 39  1  0
 38 37  2  0
M  END
$$$$
