WHW.pdb
     RDKit          3D

 39 43  0  0  1  0  0  0  0  0999 V2000
    7.8136  -18.6763   20.8702 N   0  0  0  0  0  0  0  0  0  0  0  0
    8.2734  -17.3295   21.1330 C   0  0  1  0  0  0  0  0  0  0  0  0
    7.1144  -16.5353   21.7460 C   0  0  0  0  0  0  0  0  0  0  0  0
    6.8891  -15.3553   20.8826 C   0  0  0  0  0  0  0  0  0  0  0  0
    6.0191  -15.3242   19.7890 C   0  0  0  0  0  0  0  0  0  0  0  0
    6.0665  -14.0884   19.2346 N   0  0  0  0  0  0  0  0  0  0  0  0
    6.9237  -13.3180   19.9148 C   0  0  0  0  0  0  0  0  0  0  0  0
    7.3370  -12.0196   19.7820 C   0  0  0  0  0  0  0  0  0  0  0  0
    8.2598  -11.5005   20.6674 C   0  0  0  0  0  0  0  0  0  0  0  0
    8.7929  -12.2645   21.7071 C   0  0  0  0  0  0  0  0  0  0  0  0
    8.3611  -13.5683   21.8196 C   0  0  0  0  0  0  0  0  0  0  0  0
    7.4371  -14.1034   20.9406 C   0  0  0  0  0  0  0  0  0  0  0  0
    9.4089  -17.3779   22.0569 C   0  0  0  0  0  0  0  0  0  0  0  0
    9.5201  -18.3699   22.8223 O   0  0  0  0  0  0  0  0  0  0  0  0
   10.3811  -16.3519   22.1180 N   0  0  0  0  0  0  0  0  0  0  0  0
   11.5512  -16.3728   22.9827 C   0  0  1  0  0  0  0  0  0  0  0  0
   12.6196  -15.4118   22.5955 C   0  0  0  0  0  0  0  0  0  0  0  0
   13.0935  -15.5249   21.1806 C   0  0  0  0  0  0  0  0  0  0  0  0
   13.0831  -14.6146   20.1609 C   0  0  0  0  0  0  0  0  0  0  0  0
   13.6026  -15.1714   19.0579 N   0  0  0  0  0  0  0  0  0  0  0  0
   13.9432  -16.4277   19.3652 C   0  0  0  0  0  0  0  0  0  0  0  0
   13.6427  -16.6598   20.6450 N   0  0  0  0  0  0  0  0  0  0  0  0
   11.0755  -15.9572   24.3304 C   0  0  0  0  0  0  0  0  0  0  0  0
   11.0571  -14.7635   24.6455 O   0  0  0  0  0  0  0  0  0  0  0  0
   10.6545  -16.9505   25.2213 N   0  0  0  0  0  0  0  0  0  0  0  0
   10.3537  -16.6196   26.6188 C   0  0  1  0  0  0  0  0  0  0  0  0
    8.9667  -17.1429   26.8485 C   0  0  0  0  0  0  0  0  0  0  0  0
    7.9663  -16.3662   26.1213 C   0  0  0  0  0  0  0  0  0  0  0  0
    7.0551  -16.8675   25.2222 C   0  0  0  0  0  0  0  0  0  0  0  0
    6.3135  -15.8727   24.7156 N   0  0  0  0  0  0  0  0  0  0  0  0
    6.7328  -14.7261   25.2774 C   0  0  0  0  0  0  0  0  0  0  0  0
    6.3248  -13.4137   25.1433 C   0  0  0  0  0  0  0  0  0  0  0  0
    6.9053  -12.3977   25.8512 C   0  0  0  0  0  0  0  0  0  0  0  0
    7.9324  -12.6377   26.7382 C   0  0  0  0  0  0  0  0  0  0  0  0
    8.3424  -13.9410   26.8747 C   0  0  0  0  0  0  0  0  0  0  0  0
    7.7765  -15.0040   26.1708 C   0  0  0  0  0  0  0  0  0  0  0  0
   11.4007  -17.0989   27.4944 C   0  0  0  0  0  0  0  0  0  0  0  0
   11.3660  -16.8878   28.7287 O   0  0  0  0  0  0  0  0  0  0  0  0
   12.5147  -17.8234   27.0389 O   0  0  0  0  0  0  0  0  0  0  0  0
  2  3  1  0
  2  1  1  1
  4  3  1  0
  5  4  2  0
  6  5  1  0
  7  6  1  0
  7 12  2  0
  8  7  1  0
  9  8  2  0
  9 10  1  0
 10 11  2  0
 11 12  1  0
 12  4  1  0
 13  2  1  0
 13 14  2  0
 15 13  1  0
 16 15  1  0
 16 17  1  6
 18 17  1  0
 18 22  1  0
 19 18  2  0
 20 19  1  0
 20 21  1  0
 21 22  2  0
 23 16  1  0
 24 23  2  0
 25 23  1  0
 26 37  1  0
 26 25  1  0
 26 27  1  1
 28 36  1  0
 28 27  1  0
 29 28  2  0
 30 29  1  0
 30 31  1  0
 31 36  2  0
 32 31  1  0
 32 33  2  0
 33 34  1  0
 34 35  2  0
 36 35  1  0
 37 39  1  0
 38 37  2  0
M  END
$$$$
