WHW.pdb
     RDKit          3D

 39 43  0  0  1  0  0  0  0  0999 V2000
    8.9314  -18.0387   20.2538 N   0  0  0  0  0  0  0  0  0  0  0  0
    9.1968  -16.9316   21.1473 C   0  0  1  0  0  0  0  0  0  0  0  0
    7.8549  -16.3705   21.6315 C   0  0  0  0  0  0  0  0  0  0  0  0
    7.3494  -15.4717   20.5708 C   0  0  0  0  0  0  0  0  0  0  0  0
    6.4674  -15.8553   19.5565 C   0  0  0  0  0  0  0  0  0  0  0  0
    6.2229  -14.7807   18.7677 N   0  0  0  0  0  0  0  0  0  0  0  0
    6.9025  -13.7205   19.2209 C   0  0  0  0  0  0  0  0  0  0  0  0
    7.0109  -12.4203   18.8063 C   0  0  0  0  0  0  0  0  0  0  0  0
    7.8158  -11.5434   19.5050 C   0  0  0  0  0  0  0  0  0  0  0  0
    8.5324  -11.9427   20.6346 C   0  0  0  0  0  0  0  0  0  0  0  0
    8.4066  -13.2563   21.0316 C   0  0  0  0  0  0  0  0  0  0  0  0
    7.6043  -14.1474   20.3425 C   0  0  0  0  0  0  0  0  0  0  0  0
    9.9948  -17.4054   22.2804 C   0  0  0  0  0  0  0  0  0  0  0  0
    9.5560  -18.3638   22.9666 O   0  0  0  0  0  0  0  0  0  0  0  0
   11.2373  -16.8248   22.6282 N   0  0  0  0  0  0  0  0  0  0  0  0
   11.9870  -17.1390   23.8351 C   0  0  1  0  0  0  0  0  0  0  0  0
   13.4119  -16.7106   23.8031 C   0  0  0  0  0  0  0  0  0  0  0  0
   14.2167  -17.2645   22.6697 C   0  0  0  0  0  0  0  0  0  0  0  0
   14.0655  -18.4149   21.9470 C   0  0  0  0  0  0  0  0  0  0  0  0
   15.0413  -18.5008   21.0321 N   0  0  0  0  0  0  0  0  0  0  0  0
   15.8127  -17.4164   21.1656 C   0  0  0  0  0  0  0  0  0  0  0  0
   15.3296  -16.6568   22.1514 N   0  0  0  0  0  0  0  0  0  0  0  0
   11.3387  -16.3731   24.9344 C   0  0  0  0  0  0  0  0  0  0  0  0
   10.8220  -15.2744   24.7096 O   0  0  0  0  0  0  0  0  0  0  0  0
   11.3330  -16.9300   26.2178 N   0  0  0  0  0  0  0  0  0  0  0  0
   10.1091  -16.9246   27.0273 C   0  0  1  0  0  0  0  0  0  0  0  0
    9.0029  -17.2075   26.0543 C   0  0  0  0  0  0  0  0  0  0  0  0
    7.9681  -16.1776   26.0945 C   0  0  0  0  0  0  0  0  0  0  0  0
    6.6313  -16.3688   25.8370 C   0  0  0  0  0  0  0  0  0  0  0  0
    5.9741  -15.2044   25.9282 N   0  0  0  0  0  0  0  0  0  0  0  0
    6.8710  -14.2547   26.2441 C   0  0  0  0  0  0  0  0  0  0  0  0
    6.7562  -12.8983   26.4763 C   0  0  0  0  0  0  0  0  0  0  0  0
    7.8345  -12.1255   26.8087 C   0  0  0  0  0  0  0  0  0  0  0  0
    9.0956  -12.6682   26.9286 C   0  0  0  0  0  0  0  0  0  0  0  0
    9.2154  -14.0164   26.6980 C   0  0  0  0  0  0  0  0  0  0  0  0
    8.1408  -14.8377   26.3565 C   0  0  0  0  0  0  0  0  0  0  0  0
   10.2425  -17.8123   28.1616 C   0  0  0  0  0  0  0  0  0  0  0  0
    9.9270  -17.4455   29.3172 O   0  0  0  0  0  0  0  0  0  0  0  0
   10.7261  -19.1271   28.0587 O   0  0  0  0  0  0  0  0  0  0  0  0
  2  3  1  0
  2  1  1  6
  4  3  1  0
  5  4  2  0
  6  5  1  0
  7  6  1  0
  7 12  2  0
  8  7  1  0
  9  8  2  0
  9 10  1  0
 10 11  2  0
 11 12  1  0
 12  4  1  0
 13  2  1  0
 13 14  2  0
 15 13  1  0
 16 15  1  0
 16 17  1  6
 18 17  1  0
 18 22  1  0
 19 18  2  0
 20 19  1  0
 20 21  1  0
 21 22  2  0
 23 16  1  0
 24 23  2  0
 25 23  1  0
 26 37  1  0
 26 25  1  0
 26 27  1  6
 28 36  1  0
 28 27  1  0
 29 28  2  0
 30 29  1  0
 30 31  1  0
 31 36  2  0
 32 31  1  0
 32 33  2  0
 33 34  1  0
 34 35  2  0
 36 35  1  0
 37 39  1  0
 38 37  2  0
M  END
$$$$
