KAE.pdb
     RDKit          3D

 24 23  0  0  1  0  0  0  0  0999 V2000
    7.0938  -16.3234   20.6487 N   0  0  0  0  0  0  0  0  0  0  0  0
    8.2952  -15.5731   20.5605 C   0  0  1  0  0  0  0  0  0  0  0  0
    8.3413  -14.4674   19.5780 C   0  0  0  0  0  0  0  0  0  0  0  0
    7.9365  -14.7365   18.1889 C   0  0  0  0  0  0  0  0  0  0  0  0
    7.9606  -13.6290   17.2101 C   0  0  0  0  0  0  0  0  0  0  0  0
    7.4660  -14.0148   15.8266 C   0  0  0  0  0  0  0  0  0  0  0  0
    7.6032  -12.8469   14.9572 N   0  0  0  0  0  0  0  0  0  0  0  0
    8.8512  -15.1695   21.9026 C   0  0  0  0  0  0  0  0  0  0  0  0
    9.9923  -14.6484   21.9955 O   0  0  0  0  0  0  0  0  0  0  0  0
    7.6419  -14.2582   25.1607 C   0  0  0  0  0  0  0  0  0  0  0  0
    8.7011  -15.0291   24.4086 C   0  0  2  0  0  0  0  0  0  0  0  0
    8.1334  -15.3523   23.1125 N   0  0  0  0  0  0  0  0  0  0  0  0
    9.0422  -16.3078   25.0864 C   0  0  0  0  0  0  0  0  0  0  0  0
    8.1411  -17.1519   25.3203 O   0  0  0  0  0  0  0  0  0  0  0  0
   10.3741  -16.5977   25.4778 N   0  0  0  0  0  0  0  0  0  0  0  0
   10.8059  -17.8758   26.0234 C   0  0  1  0  0  0  0  0  0  0  0  0
   12.2216  -18.1147   25.6000 C   0  0  0  0  0  0  0  0  0  0  0  0
   12.3050  -18.2787   24.1224 C   0  0  0  0  0  0  0  0  0  0  0  0
   13.5080  -17.5959   23.6097 C   0  0  0  0  0  0  0  0  0  0  0  0
   13.6979  -17.4610   22.3849 O   0  0  0  0  0  0  0  0  0  0  0  0
   10.7463  -17.7620   27.5281 C   0  0  0  0  0  0  0  0  0  0  0  0
   10.4353  -16.6784   28.0374 O   0  0  0  0  0  0  0  0  0  0  0  0
   14.4292  -17.1030   24.5257 O   0  0  0  0  0  0  0  0  0  0  0  0
   11.0342  -18.8467   28.3047 O   0  0  0  0  0  0  0  0  0  0  0  0
  2  1  1  1
  3  2  1  0
  4  3  1  0
  5  4  1  0
  6  5  1  0
  7  6  1  0
  8  2  1  0
  8  9  2  0
 11 10  1  1
 11 12  1  0
 12  8  1  0
 13 11  1  0
 14 13  2  0
 15 13  1  0
 16 21  1  0
 16 15  1  0
 16 17  1  1
 18 17  1  0
 19 18  1  0
 20 19  2  0
 21 24  1  0
 22 21  2  0
 23 19  1  0
M  END
$$$$
