KAE.pdb
     RDKit          3D

 24 23  0  0  1  0  0  0  0  0999 V2000
    7.9282  -15.6298   15.6128 N   0  0  0  0  0  0  0  0  0  0  0  0
    7.4876  -16.2020   16.8345 C   0  0  1  0  0  0  0  0  0  0  0  0
    7.4290  -17.6784   16.9171 C   0  0  0  0  0  0  0  0  0  0  0  0
    7.0047  -18.4382   15.7303 C   0  0  0  0  0  0  0  0  0  0  0  0
    6.8923  -19.9090   15.8258 C   0  0  0  0  0  0  0  0  0  0  0  0
    6.5079  -20.5864   14.5216 C   0  0  0  0  0  0  0  0  0  0  0  0
    6.3467  -22.0156   14.7867 N   0  0  0  0  0  0  0  0  0  0  0  0
    8.1288  -15.5859   18.0522 C   0  0  0  0  0  0  0  0  0  0  0  0
    9.3782  -15.5977   18.1965 O   0  0  0  0  0  0  0  0  0  0  0  0
    6.8836  -13.7284   21.0459 C   0  0  0  0  0  0  0  0  0  0  0  0
    7.9966  -14.3611   20.2442 C   0  0  2  0  0  0  0  0  0  0  0  0
    7.3736  -14.9713   19.0839 N   0  0  0  0  0  0  0  0  0  0  0  0
    8.6872  -15.4351   21.0061 C   0  0  0  0  0  0  0  0  0  0  0  0
    8.2848  -16.6224   20.9185 O   0  0  0  0  0  0  0  0  0  0  0  0
    9.7997  -15.1458   21.8366 N   0  0  0  0  0  0  0  0  0  0  0  0
   10.5875  -16.1550   22.5284 C   0  0  1  0  0  0  0  0  0  0  0  0
   12.0330  -15.7821   22.4172 C   0  0  0  0  0  0  0  0  0  0  0  0
   12.8864  -16.7830   23.1152 C   0  0  0  0  0  0  0  0  0  0  0  0
   14.3069  -16.4055   22.9884 C   0  0  0  0  0  0  0  0  0  0  0  0
   14.8629  -16.3594   21.8735 O   0  0  0  0  0  0  0  0  0  0  0  0
   10.1739  -16.1262   23.9806 C   0  0  0  0  0  0  0  0  0  0  0  0
    9.5125  -15.1681   24.3986 O   0  0  0  0  0  0  0  0  0  0  0  0
   15.0153  -16.0999   24.1441 O   0  0  0  0  0  0  0  0  0  0  0  0
   10.5314  -17.1489   24.8106 O   0  0  0  0  0  0  0  0  0  0  0  0
  2  1  1  6
  3  2  1  0
  4  3  1  0
  5  4  1  0
  6  5  1  0
  7  6  1  0
  8  2  1  0
  8  9  2  0
 11 10  1  1
 11 12  1  0
 12  8  1  0
 13 11  1  0
 14 13  2  0
 15 13  1  0
 16 21  1  0
 16 15  1  0
 16 17  1  1
 18 17  1  0
 19 18  1  0
 20 19  2  0
 21 24  1  0
 22 21  2  0
 23 19  1  0
M  END
$$$$
