KAE.pdb
     RDKit          3D

 24 23  0  0  1  0  0  0  0  0999 V2000
    7.5620  -17.8513   19.8109 N   0  0  0  0  0  0  0  0  0  0  0  0
    8.6039  -17.0397   19.2911 C   0  0  1  0  0  0  0  0  0  0  0  0
    8.4648  -16.5550   17.8999 C   0  0  0  0  0  0  0  0  0  0  0  0
    7.7264  -17.3818   16.9319 C   0  0  0  0  0  0  0  0  0  0  0  0
    8.3884  -17.7641   15.6667 C   0  0  0  0  0  0  0  0  0  0  0  0
    7.5098  -18.5735   14.7283 C   0  0  0  0  0  0  0  0  0  0  0  0
    8.2864  -18.8659   13.5241 N   0  0  0  0  0  0  0  0  0  0  0  0
    9.0443  -15.9499   20.2354 C   0  0  0  0  0  0  0  0  0  0  0  0
   10.0518  -15.2429   19.9761 O   0  0  0  0  0  0  0  0  0  0  0  0
    7.5668  -14.1701   23.1082 C   0  0  0  0  0  0  0  0  0  0  0  0
    8.7966  -14.6248   22.3579 C   0  0  2  0  0  0  0  0  0  0  0  0
    8.3614  -15.6669   21.4462 N   0  0  0  0  0  0  0  0  0  0  0  0
    9.8147  -15.2136   23.2676 C   0  0  0  0  0  0  0  0  0  0  0  0
   10.2584  -14.5391   24.2306 O   0  0  0  0  0  0  0  0  0  0  0  0
   10.2999  -16.5315   23.0702 N   0  0  0  0  0  0  0  0  0  0  0  0
   11.3169  -17.1609   23.8992 C   0  0  1  0  0  0  0  0  0  0  0  0
   10.8073  -18.4991   24.3354 C   0  0  0  0  0  0  0  0  0  0  0  0
   10.8921  -19.4803   23.2187 C   0  0  0  0  0  0  0  0  0  0  0  0
   10.4720  -20.8136   23.6903 C   0  0  0  0  0  0  0  0  0  0  0  0
   11.1264  -21.8341   23.3995 O   0  0  0  0  0  0  0  0  0  0  0  0
   12.5423  -17.3491   23.0369 C   0  0  0  0  0  0  0  0  0  0  0  0
   12.4398  -17.2229   21.8106 O   0  0  0  0  0  0  0  0  0  0  0  0
    9.3259  -20.9078   24.4702 O   0  0  0  0  0  0  0  0  0  0  0  0
   13.7405  -17.6546   23.6143 O   0  0  0  0  0  0  0  0  0  0  0  0
  2  1  1  1
  3  2  1  0
  4  3  1  0
  5  4  1  0
  6  5  1  0
  7  6  1  0
  8  2  1  0
  8  9  2  0
 11 10  1  1
 11 12  1  0
 12  8  1  0
 13 11  1  0
 14 13  2  0
 15 13  1  0
 16 21  1  0
 16 15  1  0
 16 17  1  6
 18 17  1  0
 19 18  1  0
 20 19  2  0
 21 24  1  0
 22 21  2  0
 23 19  1  0
M  END
$$$$
