KAE.pdb
     RDKit          3D

 24 23  0  0  1  0  0  0  0  0999 V2000
   10.6592  -15.0288   16.4906 N   0  0  0  0  0  0  0  0  0  0  0  0
    9.6590  -15.6584   17.2764 C   0  0  1  0  0  0  0  0  0  0  0  0
    9.5889  -17.1361   17.2398 C   0  0  0  0  0  0  0  0  0  0  0  0
    9.8348  -17.8257   15.9631 C   0  0  0  0  0  0  0  0  0  0  0  0
    9.6640  -19.2926   15.8985 C   0  0  0  0  0  0  0  0  0  0  0  0
    9.9530  -19.8899   14.5321 C   0  0  0  0  0  0  0  0  0  0  0  0
    9.8031  -21.3411   14.6339 N   0  0  0  0  0  0  0  0  0  0  0  0
    9.5681  -15.1160   18.6803 C   0  0  0  0  0  0  0  0  0  0  0  0
   10.5563  -15.1721   19.4565 O   0  0  0  0  0  0  0  0  0  0  0  0
    6.9036  -13.4631   20.7150 C   0  0  0  0  0  0  0  0  0  0  0  0
    8.2858  -14.0536   20.5643 C   0  0  2  0  0  0  0  0  0  0  0  0
    8.3859  -14.5246   19.1950 N   0  0  0  0  0  0  0  0  0  0  0  0
    8.4907  -15.2211   21.4620 C   0  0  0  0  0  0  0  0  0  0  0  0
    8.2261  -16.3794   21.0527 O   0  0  0  0  0  0  0  0  0  0  0  0
    8.9826  -15.0540   22.7816 N   0  0  0  0  0  0  0  0  0  0  0  0
    9.2497  -16.1512   23.6994 C   0  0  1  0  0  0  0  0  0  0  0  0
   10.4798  -16.8659   23.2337 C   0  0  0  0  0  0  0  0  0  0  0  0
   11.6901  -16.0304   23.4672 C   0  0  0  0  0  0  0  0  0  0  0  0
   12.8856  -16.7261   22.9543 C   0  0  0  0  0  0  0  0  0  0  0  0
   14.0314  -16.2968   23.1936 O   0  0  0  0  0  0  0  0  0  0  0  0
    9.5081  -15.5442   25.0579 C   0  0  0  0  0  0  0  0  0  0  0  0
    9.7357  -16.2915   26.0170 O   0  0  0  0  0  0  0  0  0  0  0  0
   12.7065  -17.8763   22.1957 O   0  0  0  0  0  0  0  0  0  0  0  0
    9.4875  -14.1884   25.2127 O   0  0  0  0  0  0  0  0  0  0  0  0
  2  1  1  1
  3  2  1  0
  4  3  1  0
  5  4  1  0
  6  5  1  0
  7  6  1  0
  8  2  1  0
  8  9  2  0
 11 10  1  6
 11 12  1  0
 12  8  1  0
 13 11  1  0
 14 13  2  0
 15 13  1  0
 16 21  1  0
 16 15  1  0
 16 17  1  6
 18 17  1  0
 19 18  1  0
 20 19  2  0
 21 24  1  0
 22 21  2  0
 23 19  1  0
M  END
$$$$
