KAE.pdb
     RDKit          3D

 24 23  0  0  1  0  0  0  0  0999 V2000
    7.6186  -15.7054   18.7273 N   0  0  0  0  0  0  0  0  0  0  0  0
    8.5731  -14.6808   18.9580 C   0  0  1  0  0  0  0  0  0  0  0  0
    8.4819  -13.4602   18.1262 C   0  0  0  0  0  0  0  0  0  0  0  0
    8.7726  -13.5602   16.6870 C   0  0  0  0  0  0  0  0  0  0  0  0
    7.6707  -13.8828   15.7559 C   0  0  0  0  0  0  0  0  0  0  0  0
    8.0631  -13.8273   14.2895 C   0  0  0  0  0  0  0  0  0  0  0  0
    6.9122  -14.2613   13.4984 N   0  0  0  0  0  0  0  0  0  0  0  0
    8.7734  -14.3641   20.4185 C   0  0  0  0  0  0  0  0  0  0  0  0
    9.6895  -13.5853   20.7878 O   0  0  0  0  0  0  0  0  0  0  0  0
    6.8892  -14.6076   23.5356 C   0  0  0  0  0  0  0  0  0  0  0  0
    8.2306  -14.7119   22.8489 C   0  0  2  0  0  0  0  0  0  0  0  0
    7.9568  -14.9168   21.4383 N   0  0  0  0  0  0  0  0  0  0  0  0
    9.0123  -15.8800   23.3340 C   0  0  0  0  0  0  0  0  0  0  0  0
    8.6504  -17.0447   23.0310 O   0  0  0  0  0  0  0  0  0  0  0  0
   10.1676  -15.7065   24.1380 N   0  0  0  0  0  0  0  0  0  0  0  0
   11.0858  -16.7785   24.4916 C   0  0  1  0  0  0  0  0  0  0  0  0
   12.4844  -16.2934   24.2695 C   0  0  0  0  0  0  0  0  0  0  0  0
   13.4668  -17.3667   24.5860 C   0  0  0  0  0  0  0  0  0  0  0  0
   14.8395  -16.8633   24.3894 C   0  0  0  0  0  0  0  0  0  0  0  0
   15.0523  -15.6649   24.1191 O   0  0  0  0  0  0  0  0  0  0  0  0
   10.8855  -17.0721   25.9594 C   0  0  0  0  0  0  0  0  0  0  0  0
   10.3588  -16.2138   26.6779 O   0  0  0  0  0  0  0  0  0  0  0  0
   15.8955  -17.7577   24.5135 O   0  0  0  0  0  0  0  0  0  0  0  0
   11.2846  -18.2712   26.4745 O   0  0  0  0  0  0  0  0  0  0  0  0
  2  1  1  1
  3  2  1  0
  4  3  1  0
  5  4  1  0
  6  5  1  0
  7  6  1  0
  8  2  1  0
  8  9  2  0
 11 10  1  1
 11 12  1  0
 12  8  1  0
 13 11  1  0
 14 13  2  0
 15 13  1  0
 16 21  1  0
 16 15  1  0
 16 17  1  1
 18 17  1  0
 19 18  1  0
 20 19  2  0
 21 24  1  0
 22 21  2  0
 23 19  1  0
M  END
$$$$
