KAE.pdb
     RDKit          3D

 24 23  0  0  1  0  0  0  0  0999 V2000
    7.6621  -17.5697   17.7106 N   0  0  0  0  0  0  0  0  0  0  0  0
    7.0169  -17.2744   18.9397 C   0  0  1  0  0  0  0  0  0  0  0  0
    6.2949  -18.3751   19.6157 C   0  0  0  0  0  0  0  0  0  0  0  0
    5.7117  -19.4488   18.7955 C   0  0  0  0  0  0  0  0  0  0  0  0
    4.9176  -20.5043   19.4593 C   0  0  0  0  0  0  0  0  0  0  0  0
    4.4152  -21.5854   18.5179 C   0  0  0  0  0  0  0  0  0  0  0  0
    3.5408  -22.4759   19.2802 N   0  0  0  0  0  0  0  0  0  0  0  0
    7.8751  -16.4824   19.8935 C   0  0  0  0  0  0  0  0  0  0  0  0
    9.0613  -16.8278   20.1295 O   0  0  0  0  0  0  0  0  0  0  0  0
    7.4158  -13.3772   21.9204 C   0  0  0  0  0  0  0  0  0  0  0  0
    8.2186  -14.5905   21.5137 C   0  0  2  0  0  0  0  0  0  0  0  0
    7.4018  -15.3266   20.5662 N   0  0  0  0  0  0  0  0  0  0  0  0
    8.4928  -15.4862   22.6685 C   0  0  0  0  0  0  0  0  0  0  0  0
    7.5510  -16.1228   23.2042 O   0  0  0  0  0  0  0  0  0  0  0  0
    9.8057  -15.6388   23.1825 N   0  0  0  0  0  0  0  0  0  0  0  0
   10.1628  -16.5586   24.2521 C   0  0  1  0  0  0  0  0  0  0  0  0
   10.3167  -17.9270   23.6649 C   0  0  0  0  0  0  0  0  0  0  0  0
   11.4598  -17.9614   22.7113 C   0  0  0  0  0  0  0  0  0  0  0  0
   11.6073  -19.3197   22.1549 C   0  0  0  0  0  0  0  0  0  0  0  0
   10.8795  -20.2553   22.5414 O   0  0  0  0  0  0  0  0  0  0  0  0
   11.4899  -16.1015   24.8096 C   0  0  0  0  0  0  0  0  0  0  0  0
   12.1398  -15.2489   24.1925 O   0  0  0  0  0  0  0  0  0  0  0  0
   12.5789  -19.5348   21.1852 O   0  0  0  0  0  0  0  0  0  0  0  0
   11.9553  -16.6297   25.9787 O   0  0  0  0  0  0  0  0  0  0  0  0
  2  1  1  6
  3  2  1  0
  4  3  1  0
  5  4  1  0
  6  5  1  0
  7  6  1  0
  8  2  1  0
  8  9  2  0
 11 10  1  1
 11 12  1  0
 12  8  1  0
 13 11  1  0
 14 13  2  0
 15 13  1  0
 16 21  1  0
 16 15  1  0
 16 17  1  6
 18 17  1  0
 19 18  1  0
 20 19  2  0
 21 24  1  0
 22 21  2  0
 23 19  1  0
M  END
$$$$
