LGF.pdb
     RDKit          3D

 24 24  0  0  1  0  0  0  0  0999 V2000
    6.9767  -14.7624   19.4242 C   0  0  0  0  0  0  0  0  0  0  0  0
    7.5580  -13.8584   20.4899 C   0  0  2  0  0  0  0  0  0  0  0  0
    7.4628  -12.4015   20.0571 C   0  0  0  0  0  0  0  0  0  0  0  0
    9.0236  -14.2325   20.7431 C   0  0  0  0  0  0  0  0  0  0  0  0
    9.0191  -15.6069   21.3620 C   0  0  2  0  0  0  0  0  0  0  0  0
    8.0106  -15.6476   22.3989 N   0  0  0  0  0  0  0  0  0  0  0  0
   10.3311  -15.9825   21.9184 C   0  0  0  0  0  0  0  0  0  0  0  0
   11.3303  -16.0699   21.1666 O   0  0  0  0  0  0  0  0  0  0  0  0
   10.4362  -16.2440   23.3325 N   0  0  0  0  0  0  0  0  0  0  0  0
   11.7196  -16.5155   23.9124 C   0  0  0  0  0  0  0  0  0  0  0  0
   11.6988  -16.7751   25.3528 C   0  0  0  0  0  0  0  0  0  0  0  0
   12.8058  -16.7740   26.0099 O   0  0  0  0  0  0  0  0  0  0  0  0
   10.5645  -17.0398   26.1535 N   0  0  0  0  0  0  0  0  0  0  0  0
   10.6574  -17.3193   27.5863 C   0  0  1  0  0  0  0  0  0  0  0  0
    9.5701  -16.5462   28.2449 C   0  0  0  0  0  0  0  0  0  0  0  0
    9.4682  -15.1351   27.8908 C   0  0  0  0  0  0  0  0  0  0  0  0
   10.1804  -14.1201   28.4874 C   0  0  0  0  0  0  0  0  0  0  0  0
   10.0065  -12.8188   28.0692 C   0  0  0  0  0  0  0  0  0  0  0  0
    9.1230  -12.4973   27.0510 C   0  0  0  0  0  0  0  0  0  0  0  0
    8.4020  -13.5017   26.4430 C   0  0  0  0  0  0  0  0  0  0  0  0
    8.5899  -14.7817   26.8726 C   0  0  0  0  0  0  0  0  0  0  0  0
   10.5637  -18.7538   27.8710 C   0  0  0  0  0  0  0  0  0  0  0  0
   10.8065  -19.2775   29.1303 O   0  0  0  0  0  0  0  0  0  0  0  0
   10.2489  -19.5291   26.9207 O   0  0  0  0  0  0  0  0  0  0  0  0
  2  3  1  6
  2  1  1  0
  4  2  1  0
  5  4  1  0
  5  6  1  1
  7  5  1  0
  7  8  2  0
  9  7  1  0
 10  9  1  0
 11 10  1  0
 12 11  2  0
 13 11  1  0
 14 13  1  0
 14 22  1  0
 14 15  1  1
 16 15  1  0
 16 21  2  0
 17 16  1  0
 18 17  2  0
 18 19  1  0
 19 20  2  0
 20 21  1  0
 22 23  1  0
 24 22  2  0
M  END
$$$$
