LGF.pdb
     RDKit          3D

 24 24  0  0  1  0  0  0  0  0999 V2000
    7.0634  -14.6722   19.2317 C   0  0  0  0  0  0  0  0  0  0  0  0
    7.3324  -13.8082   20.4451 C   0  0  2  0  0  0  0  0  0  0  0  0
    7.0697  -12.3439   20.1204 C   0  0  0  0  0  0  0  0  0  0  0  0
    8.7866  -13.9894   20.8974 C   0  0  0  0  0  0  0  0  0  0  0  0
    8.9346  -15.4308   21.3128 C   0  0  2  0  0  0  0  0  0  0  0  0
    7.8965  -15.7489   22.2692 N   0  0  0  0  0  0  0  0  0  0  0  0
   10.2593  -15.7214   21.8896 C   0  0  0  0  0  0  0  0  0  0  0  0
   11.2660  -15.7931   21.1463 O   0  0  0  0  0  0  0  0  0  0  0  0
   10.3679  -15.9191   23.3139 N   0  0  0  0  0  0  0  0  0  0  0  0
   11.6610  -16.0774   23.9136 C   0  0  0  0  0  0  0  0  0  0  0  0
   11.6426  -16.3016   25.3600 C   0  0  0  0  0  0  0  0  0  0  0  0
   12.7507  -16.2855   26.0149 O   0  0  0  0  0  0  0  0  0  0  0  0
   10.5094  -16.5455   26.1689 N   0  0  0  0  0  0  0  0  0  0  0  0
   10.6057  -16.8026   27.6057 C   0  0  1  0  0  0  0  0  0  0  0  0
    9.4009  -16.1940   28.2315 C   0  0  0  0  0  0  0  0  0  0  0  0
    9.0458  -14.8505   27.7888 C   0  0  0  0  0  0  0  0  0  0  0  0
    8.0839  -14.5595   26.8489 C   0  0  0  0  0  0  0  0  0  0  0  0
    7.8281  -13.2492   26.5083 C   0  0  0  0  0  0  0  0  0  0  0  0
    8.5207  -12.2007   27.0926 C   0  0  0  0  0  0  0  0  0  0  0  0
    9.4871  -12.4746   28.0356 C   0  0  0  0  0  0  0  0  0  0  0  0
    9.7236  -13.7779   28.3573 C   0  0  0  0  0  0  0  0  0  0  0  0
   10.7152  -18.2342   27.8990 C   0  0  0  0  0  0  0  0  0  0  0  0
   10.5821  -19.2044   26.9190 O   0  0  0  0  0  0  0  0  0  0  0  0
   10.9392  -18.5805   29.0961 O   0  0  0  0  0  0  0  0  0  0  0  0
  2  3  1  6
  2  1  1  0
  4  2  1  0
  5  4  1  0
  5  6  1  1
  7  5  1  0
  7  8  2  0
  9  7  1  0
 10  9  1  0
 11 10  1  0
 12 11  2  0
 13 11  1  0
 14 13  1  0
 14 22  1  0
 14 15  1  1
 16 15  1  0
 16 21  2  0
 17 16  1  0
 18 17  2  0
 18 19  1  0
 19 20  2  0
 20 21  1  0
 22 23  1  0
 24 22  2  0
M  END
$$$$
