LGF.pdb
     RDKit          3D

 24 24  0  0  1  0  0  0  0  0999 V2000
    6.8939  -13.7089   26.2862 C   0  0  0  0  0  0  0  0  0  0  0  0
    7.7600  -13.3215   25.1068 C   0  0  2  0  0  0  0  0  0  0  0  0
    8.2381  -11.8830   25.2518 C   0  0  0  0  0  0  0  0  0  0  0  0
    6.9629  -13.4776   23.8058 C   0  0  0  0  0  0  0  0  0  0  0  0
    6.9668  -14.9468   23.4691 C   0  0  2  0  0  0  0  0  0  0  0  0
    6.6449  -15.6991   24.6625 N   0  0  0  0  0  0  0  0  0  0  0  0
    8.2572  -15.3991   22.9194 C   0  0  0  0  0  0  0  0  0  0  0  0
    8.7710  -14.7979   21.9470 O   0  0  0  0  0  0  0  0  0  0  0  0
    8.9071  -16.5372   23.5208 N   0  0  0  0  0  0  0  0  0  0  0  0
   10.2133  -16.9279   23.0757 C   0  0  0  0  0  0  0  0  0  0  0  0
   11.1521  -17.2613   24.1482 C   0  0  0  0  0  0  0  0  0  0  0  0
   12.3373  -17.6630   23.8467 O   0  0  0  0  0  0  0  0  0  0  0  0
   10.9125  -17.1954   25.5397 N   0  0  0  0  0  0  0  0  0  0  0  0
   11.9222  -17.5619   26.5327 C   0  0  1  0  0  0  0  0  0  0  0  0
   12.3060  -16.3082   27.2361 C   0  0  0  0  0  0  0  0  0  0  0  0
   11.2289  -15.5709   27.8866 C   0  0  0  0  0  0  0  0  0  0  0  0
   10.9733  -15.5794   29.2386 C   0  0  0  0  0  0  0  0  0  0  0  0
    9.9274  -14.8401   29.7463 C   0  0  0  0  0  0  0  0  0  0  0  0
    9.1135  -14.0772   28.9240 C   0  0  0  0  0  0  0  0  0  0  0  0
    9.3557  -14.0576   27.5678 C   0  0  0  0  0  0  0  0  0  0  0  0
   10.3956  -14.7963   27.0873 C   0  0  0  0  0  0  0  0  0  0  0  0
   11.4316  -18.5855   27.4595 C   0  0  0  0  0  0  0  0  0  0  0  0
   12.2128  -19.0938   28.4844 O   0  0  0  0  0  0  0  0  0  0  0  0
   10.2491  -19.0106   27.3041 O   0  0  0  0  0  0  0  0  0  0  0  0
  2  3  1  1
  2  1  1  0
  4  2  1  0
  5  4  1  0
  5  6  1  1
  7  5  1  0
  7  8  2  0
  9  7  1  0
 10  9  1  0
 11 10  1  0
 12 11  2  0
 13 11  1  0
 14 13  1  0
 14 22  1  0
 14 15  1  1
 16 15  1  0
 16 21  2  0
 17 16  1  0
 18 17  2  0
 18 19  1  0
 19 20  2  0
 20 21  1  0
 22 23  1  0
 24 22  2  0
M  END
$$$$
