LGF.pdb
     RDKit          3D

 24 24  0  0  1  0  0  0  0  0999 V2000
    6.4829  -13.9170   20.6893 C   0  0  0  0  0  0  0  0  0  0  0  0
    7.9604  -13.6415   20.8685 C   0  0  2  0  0  0  0  0  0  0  0  0
    8.3298  -12.3062   20.2366 C   0  0  0  0  0  0  0  0  0  0  0  0
    8.7788  -14.7675   20.2245 C   0  0  0  0  0  0  0  0  0  0  0  0
    8.6906  -15.9522   21.1522 C   0  0  2  0  0  0  0  0  0  0  0  0
    7.7734  -15.6360   22.2257 N   0  0  0  0  0  0  0  0  0  0  0  0
   10.0011  -16.3384   21.7047 C   0  0  0  0  0  0  0  0  0  0  0  0
   10.8971  -16.7790   20.9469 O   0  0  0  0  0  0  0  0  0  0  0  0
   10.2251  -16.1988   23.1223 N   0  0  0  0  0  0  0  0  0  0  0  0
   11.4855  -16.5878   23.6852 C   0  0  0  0  0  0  0  0  0  0  0  0
   11.6066  -16.3686   25.1274 C   0  0  0  0  0  0  0  0  0  0  0  0
   12.7701  -16.4121   25.6765 O   0  0  0  0  0  0  0  0  0  0  0  0
   10.5593  -16.1023   26.0385 N   0  0  0  0  0  0  0  0  0  0  0  0
   10.7966  -15.8264   27.4553 C   0  0  1  0  0  0  0  0  0  0  0  0
   10.4795  -14.3888   27.6707 C   0  0  0  0  0  0  0  0  0  0  0  0
    9.1910  -13.9243   27.1697 C   0  0  0  0  0  0  0  0  0  0  0  0
    8.6274  -12.7028   27.4593 C   0  0  0  0  0  0  0  0  0  0  0  0
    7.4023  -12.3660   26.9263 C   0  0  0  0  0  0  0  0  0  0  0  0
    6.7109  -13.2333   26.0954 C   0  0  0  0  0  0  0  0  0  0  0  0
    7.2611  -14.4603   25.7954 C   0  0  0  0  0  0  0  0  0  0  0  0
    8.4739  -14.7726   26.3335 C   0  0  0  0  0  0  0  0  0  0  0  0
   10.0038  -16.7015   28.3232 C   0  0  0  0  0  0  0  0  0  0  0  0
    9.1224  -17.6442   27.8199 O   0  0  0  0  0  0  0  0  0  0  0  0
   10.1406  -16.5786   29.5760 O   0  0  0  0  0  0  0  0  0  0  0  0
  2  3  1  6
  2  1  1  0
  4  2  1  0
  5  4  1  0
  5  6  1  1
  7  5  1  0
  7  8  2  0
  9  7  1  0
 10  9  1  0
 11 10  1  0
 12 11  2  0
 13 11  1  0
 14 13  1  0
 14 22  1  0
 14 15  1  6
 16 15  1  0
 16 21  2  0
 17 16  1  0
 18 17  2  0
 18 19  1  0
 19 20  2  0
 20 21  1  0
 22 23  1  0
 24 22  2  0
M  END
$$$$
