LGF.pdb
     RDKit          3D

 24 24  0  0  1  0  0  0  0  0999 V2000
    6.3947  -14.3623   20.2537 C   0  0  0  0  0  0  0  0  0  0  0  0
    7.7818  -13.7644   20.3506 C   0  0  2  0  0  0  0  0  0  0  0  0
    7.7886  -12.3499   19.7867 C   0  0  0  0  0  0  0  0  0  0  0  0
    8.7775  -14.6386   19.5782 C   0  0  0  0  0  0  0  0  0  0  0  0
    8.9618  -15.8997   20.3831 C   0  0  2  0  0  0  0  0  0  0  0  0
    7.7105  -16.2247   21.0328 N   0  0  0  0  0  0  0  0  0  0  0  0
   10.0356  -15.7806   21.3854 C   0  0  0  0  0  0  0  0  0  0  0  0
   11.1797  -15.4042   21.0385 O   0  0  0  0  0  0  0  0  0  0  0  0
    9.7414  -16.1041   22.7595 N   0  0  0  0  0  0  0  0  0  0  0  0
   10.7617  -15.9641   23.7576 C   0  0  0  0  0  0  0  0  0  0  0  0
   10.2945  -16.1123   25.1369 C   0  0  0  0  0  0  0  0  0  0  0  0
    9.1985  -16.7472   25.3668 O   0  0  0  0  0  0  0  0  0  0  0  0
   10.9227  -15.6242   26.3051 N   0  0  0  0  0  0  0  0  0  0  0  0
   10.3657  -15.8235   27.6430 C   0  0  1  0  0  0  0  0  0  0  0  0
    8.8864  -15.7403   27.5079 C   0  0  0  0  0  0  0  0  0  0  0  0
    8.3197  -14.4039   27.3674 C   0  0  0  0  0  0  0  0  0  0  0  0
    8.9534  -13.2376   27.7300 C   0  0  0  0  0  0  0  0  0  0  0  0
    8.3228  -12.0261   27.5486 C   0  0  0  0  0  0  0  0  0  0  0  0
    7.0509  -11.9462   27.0040 C   0  0  0  0  0  0  0  0  0  0  0  0
    6.4023  -13.1045   26.6355 C   0  0  0  0  0  0  0  0  0  0  0  0
    7.0449  -14.2917   26.8238 C   0  0  0  0  0  0  0  0  0  0  0  0
   10.7947  -17.0958   28.2301 C   0  0  0  0  0  0  0  0  0  0  0  0
   11.5902  -17.9986   27.5436 O   0  0  0  0  0  0  0  0  0  0  0  0
   10.4157  -17.3650   29.4079 O   0  0  0  0  0  0  0  0  0  0  0  0
  2  3  1  6
  2  1  1  0
  4  2  1  0
  5  4  1  0
  5  6  1  1
  7  5  1  0
  7  8  2  0
  9  7  1  0
 10  9  1  0
 11 10  1  0
 12 11  2  0
 13 11  1  0
 14 13  1  0
 14 22  1  0
 14 15  1  6
 16 15  1  0
 16 21  2  0
 17 16  1  0
 18 17  2  0
 18 19  1  0
 19 20  2  0
 20 21  1  0
 22 23  1  0
 24 22  2  0
M  END
$$$$
