LGF.pdb
     RDKit          3D

 24 24  0  0  1  0  0  0  0  0999 V2000
    7.0437  -14.4661   19.4743 C   0  0  0  0  0  0  0  0  0  0  0  0
    7.3537  -13.7151   20.7514 C   0  0  2  0  0  0  0  0  0  0  0  0
    7.0409  -12.2343   20.5832 C   0  0  0  0  0  0  0  0  0  0  0  0
    8.8329  -13.8979   21.1133 C   0  0  0  0  0  0  0  0  0  0  0  0
    9.0234  -15.3587   21.4320 C   0  0  2  0  0  0  0  0  0  0  0  0
    7.9218  -15.8028   22.2584 N   0  0  0  0  0  0  0  0  0  0  0  0
   10.3041  -15.6289   22.1093 C   0  0  0  0  0  0  0  0  0  0  0  0
   11.3731  -15.1790   21.6341 O   0  0  0  0  0  0  0  0  0  0  0  0
   10.2976  -16.4145   23.3185 N   0  0  0  0  0  0  0  0  0  0  0  0
   11.5297  -16.6741   24.0050 C   0  0  0  0  0  0  0  0  0  0  0  0
   11.4898  -16.4337   25.4483 C   0  0  0  0  0  0  0  0  0  0  0  0
   12.5840  -16.1753   26.0752 O   0  0  0  0  0  0  0  0  0  0  0  0
   10.3487  -16.4496   26.2823 N   0  0  0  0  0  0  0  0  0  0  0  0
   10.4269  -16.2608   27.7308 C   0  0  1  0  0  0  0  0  0  0  0  0
    9.1575  -15.6054   28.1464 C   0  0  0  0  0  0  0  0  0  0  0  0
    8.7810  -14.3972   27.4216 C   0  0  0  0  0  0  0  0  0  0  0  0
    9.2903  -13.1422   27.6645 C   0  0  0  0  0  0  0  0  0  0  0  0
    8.8637  -12.0687   26.9134 C   0  0  0  0  0  0  0  0  0  0  0  0
    7.9235  -12.2177   25.9061 C   0  0  0  0  0  0  0  0  0  0  0  0
    7.4036  -13.4676   25.6499 C   0  0  0  0  0  0  0  0  0  0  0  0
    7.8399  -14.5151   26.4050 C   0  0  0  0  0  0  0  0  0  0  0  0
   10.6504  -17.5258   28.4360 C   0  0  0  0  0  0  0  0  0  0  0  0
   10.9673  -17.5779   29.7835 O   0  0  0  0  0  0  0  0  0  0  0  0
   10.5467  -18.6011   27.7755 O   0  0  0  0  0  0  0  0  0  0  0  0
  2  3  1  6
  2  1  1  0
  4  2  1  0
  5  4  1  0
  5  6  1  1
  7  5  1  0
  7  8  2  0
  9  7  1  0
 10  9  1  0
 11 10  1  0
 12 11  2  0
 13 11  1  0
 14 13  1  0
 14 22  1  0
 14 15  1  1
 16 15  1  0
 16 21  2  0
 17 16  1  0
 18 17  2  0
 18 19  1  0
 19 20  2  0
 20 21  1  0
 22 23  1  0
 24 22  2  0
M  END
$$$$
