LGF.pdb
     RDKit          3D

 24 24  0  0  1  0  0  0  0  0999 V2000
    6.5256  -13.9811   20.8866 C   0  0  0  0  0  0  0  0  0  0  0  0
    7.8513  -13.7818   20.1838 C   0  0  2  0  0  0  0  0  0  0  0  0
    7.8537  -12.4624   19.4236 C   0  0  0  0  0  0  0  0  0  0  0  0
    8.1027  -14.9430   19.2140 C   0  0  0  0  0  0  0  0  0  0  0  0
    8.4089  -16.1537   20.0581 C   0  0  2  0  0  0  0  0  0  0  0  0
    7.2884  -16.4031   20.9389 N   0  0  0  0  0  0  0  0  0  0  0  0
    9.6453  -15.9982   20.8450 C   0  0  0  0  0  0  0  0  0  0  0  0
   10.7454  -15.8486   20.2632 O   0  0  0  0  0  0  0  0  0  0  0  0
    9.5596  -16.0220   22.2842 N   0  0  0  0  0  0  0  0  0  0  0  0
   10.7489  -15.8666   23.0704 C   0  0  0  0  0  0  0  0  0  0  0  0
   10.5439  -15.9582   24.5169 C   0  0  0  0  0  0  0  0  0  0  0  0
   11.5368  -15.7496   25.3091 O   0  0  0  0  0  0  0  0  0  0  0  0
    9.3372  -16.2609   25.1877 N   0  0  0  0  0  0  0  0  0  0  0  0
    9.2657  -16.4518   26.6363 C   0  0  1  0  0  0  0  0  0  0  0  0
    7.9546  -15.9033   27.0764 C   0  0  0  0  0  0  0  0  0  0  0  0
    7.7053  -14.4969   26.7817 C   0  0  0  0  0  0  0  0  0  0  0  0
    8.3917  -13.4420   27.3382 C   0  0  0  0  0  0  0  0  0  0  0  0
    8.0733  -12.1494   26.9832 C   0  0  0  0  0  0  0  0  0  0  0  0
    7.0679  -11.8761   26.0694 C   0  0  0  0  0  0  0  0  0  0  0  0
    6.3709  -12.9208   25.5028 C   0  0  0  0  0  0  0  0  0  0  0  0
    6.7026  -14.1913   25.8684 C   0  0  0  0  0  0  0  0  0  0  0  0
    9.4280  -17.8591   27.0112 C   0  0  0  0  0  0  0  0  0  0  0  0
    9.5571  -18.8673   26.0699 O   0  0  0  0  0  0  0  0  0  0  0  0
    9.4485  -18.1475   28.2439 O   0  0  0  0  0  0  0  0  0  0  0  0
  2  3  1  6
  2  1  1  0
  4  2  1  0
  5  4  1  0
  5  6  1  1
  7  5  1  0
  7  8  2  0
  9  7  1  0
 10  9  1  0
 11 10  1  0
 12 11  2  0
 13 11  1  0
 14 13  1  0
 14 22  1  0
 14 15  1  6
 16 15  1  0
 16 21  2  0
 17 16  1  0
 18 17  2  0
 18 19  1  0
 19 20  2  0
 20 21  1  0
 22 23  1  0
 24 22  2  0
M  END
$$$$
