YYK.pdb
     RDKit          3D

 34 35  0  0  1  0  0  0  0  0999 V2000
   10.4323  -18.7516   10.8241 O   0  0  0  0  0  0  0  0  0  0  0  0
   10.6035  -18.8051   12.2091 C   0  0  0  0  0  0  0  0  0  0  0  0
    9.5256  -19.0054   13.0476 C   0  0  0  0  0  0  0  0  0  0  0  0
    9.6758  -19.0610   14.4172 C   0  0  0  0  0  0  0  0  0  0  0  0
   10.9131  -18.9184   15.0087 C   0  0  0  0  0  0  0  0  0  0  0  0
   11.0637  -18.9805   16.4953 C   0  0  0  0  0  0  0  0  0  0  0  0
   11.7853  -20.2942   16.8218 C   0  0  2  0  0  0  0  0  0  0  0  0
   10.9245  -21.3910   16.4139 N   0  0  0  0  0  0  0  0  0  0  0  0
   11.9961  -20.3694   18.2998 C   0  0  0  0  0  0  0  0  0  0  0  0
   12.6681  -19.4618   18.8929 O   0  0  0  0  0  0  0  0  0  0  0  0
   11.9961  -18.7174   14.1702 C   0  0  0  0  0  0  0  0  0  0  0  0
   11.8443  -18.6617   12.7958 C   0  0  0  0  0  0  0  0  0  0  0  0
   11.7453  -22.4109   26.7982 O   0  0  0  0  0  0  0  0  0  0  0  0
   11.4691  -22.3697   25.4373 C   0  0  0  0  0  0  0  0  0  0  0  0
   11.5935  -23.5039   24.6633 C   0  0  0  0  0  0  0  0  0  0  0  0
   11.3139  -23.4567   23.2927 C   0  0  0  0  0  0  0  0  0  0  0  0
   10.9107  -22.3044   22.6635 C   0  0  0  0  0  0  0  0  0  0  0  0
   10.6042  -22.2009   21.2176 C   0  0  0  0  0  0  0  0  0  0  0  0
   11.7300  -21.5098   20.4614 C   0  0  2  0  0  0  0  0  0  0  0  0
   11.4616  -21.4349   19.0621 N   0  0  0  0  0  0  0  0  0  0  0  0
   12.9971  -22.1794   20.8224 C   0  0  0  0  0  0  0  0  0  0  0  0
   13.2659  -23.3424   20.3683 O   0  0  0  0  0  0  0  0  0  0  0  0
   10.7939  -21.1693   23.4775 C   0  0  0  0  0  0  0  0  0  0  0  0
   11.0655  -21.1997   24.8286 C   0  0  0  0  0  0  0  0  0  0  0  0
   13.9747  -21.6021   21.6642 N   0  0  0  0  0  0  0  0  0  0  0  0
   15.2307  -22.2773   21.9929 C   0  0  1  0  0  0  0  0  0  0  0  0
   16.3822  -21.4629   21.4746 C   0  0  0  0  0  0  0  0  0  0  0  0
   16.5952  -21.4559   20.0189 C   0  0  0  0  0  0  0  0  0  0  0  0
   17.7833  -20.6913   19.5645 C   0  0  0  0  0  0  0  0  0  0  0  0
   17.8889  -20.7756   18.0471 C   0  0  0  0  0  0  0  0  0  0  0  0
   19.0942  -20.0249   17.6643 N   0  0  0  0  0  0  0  0  0  0  0  0
   15.2408  -22.6562   23.3967 C   0  0  0  0  0  0  0  0  0  0  0  0
   15.1403  -23.9855   23.8567 O   0  0  0  0  0  0  0  0  0  0  0  0
   15.3451  -21.7819   24.3014 O   0  0  0  0  0  0  0  0  0  0  0  0
  2  1  1  0
  3  2  2  0
  4  3  1  0
  5  4  2  0
  5 11  1  0
  6  5  1  0
  7  8  1  1
  7  6  1  0
  9  7  1  0
  9 10  2  0
 11 12  2  0
 12  2  1  0
 14 24  2  0
 14 13  1  0
 15 14  1  0
 16 17  1  0
 16 15  2  0
 17 23  2  0
 18 17  1  0
 19 18  1  1
 19 20  1  0
 20  9  1  0
 21 19  1  0
 22 21  2  0
 23 24  1  0
 25 21  1  0
 26 25  1  0
 26 27  1  1
 27 28  1  0
 28 29  1  0
 29 30  1  0
 30 31  1  0
 32 26  1  0
 33 32  1  0
 34 32  2  0
M  END
$$$$
