YYK.pdb
     RDKit          3D

 34 35  0  0  1  0  0  0  0  0999 V2000
    6.6118  -13.6388   15.2104 O   0  0  0  0  0  0  0  0  0  0  0  0
    7.2208  -13.6406   16.4672 C   0  0  0  0  0  0  0  0  0  0  0  0
    8.3590  -14.3859   16.7003 C   0  0  0  0  0  0  0  0  0  0  0  0
    8.9736  -14.3998   17.9346 C   0  0  0  0  0  0  0  0  0  0  0  0
    8.4756  -13.6673   18.9913 C   0  0  0  0  0  0  0  0  0  0  0  0
    9.1509  -13.6901   20.3255 C   0  0  0  0  0  0  0  0  0  0  0  0
    8.9102  -15.0793   20.9300 C   0  0  2  0  0  0  0  0  0  0  0  0
    7.4758  -15.2683   21.0603 N   0  0  0  0  0  0  0  0  0  0  0  0
    9.5287  -15.1225   22.2902 C   0  0  0  0  0  0  0  0  0  0  0  0
   10.7912  -14.9929   22.4186 O   0  0  0  0  0  0  0  0  0  0  0  0
    7.3342  -12.9189   18.7604 C   0  0  0  0  0  0  0  0  0  0  0  0
    6.7180  -12.9056   17.5214 C   0  0  0  0  0  0  0  0  0  0  0  0
   11.0689  -15.1627   30.9099 O   0  0  0  0  0  0  0  0  0  0  0  0
   10.4524  -15.0644   29.6689 C   0  0  0  0  0  0  0  0  0  0  0  0
    9.7378  -16.1263   29.1563 C   0  0  0  0  0  0  0  0  0  0  0  0
    9.1187  -16.0218   27.9055 C   0  0  0  0  0  0  0  0  0  0  0  0
    9.1899  -14.8821   27.1425 C   0  0  0  0  0  0  0  0  0  0  0  0
    8.5549  -14.7208   25.8135 C   0  0  0  0  0  0  0  0  0  0  0  0
    9.3641  -15.4129   24.7259 C   0  0  2  0  0  0  0  0  0  0  0  0
    8.7373  -15.3058   23.4487 N   0  0  0  0  0  0  0  0  0  0  0  0
    9.6410  -16.7934   25.1752 C   0  0  0  0  0  0  0  0  0  0  0  0
    8.6930  -17.6434   25.2743 O   0  0  0  0  0  0  0  0  0  0  0  0
    9.9232  -13.8210   27.6911 C   0  0  0  0  0  0  0  0  0  0  0  0
   10.5386  -13.9085   28.9215 C   0  0  0  0  0  0  0  0  0  0  0  0
   10.9308  -17.2621   25.5132 N   0  0  0  0  0  0  0  0  0  0  0  0
   11.2143  -18.6744   25.7711 C   0  0  1  0  0  0  0  0  0  0  0  0
   11.6548  -19.3331   24.4944 C   0  0  0  0  0  0  0  0  0  0  0  0
   12.1168  -20.7269   24.5854 C   0  0  0  0  0  0  0  0  0  0  0  0
   12.6871  -21.2798   23.3318 C   0  0  0  0  0  0  0  0  0  0  0  0
   13.1086  -22.7254   23.5623 C   0  0  0  0  0  0  0  0  0  0  0  0
   13.5847  -23.2389   22.2691 N   0  0  0  0  0  0  0  0  0  0  0  0
   12.0723  -18.8059   26.9376 C   0  0  0  0  0  0  0  0  0  0  0  0
   12.0508  -19.9112   27.8133 O   0  0  0  0  0  0  0  0  0  0  0  0
   12.9075  -17.9056   27.2306 O   0  0  0  0  0  0  0  0  0  0  0  0
  2  1  1  0
  3  2  2  0
  4  3  1  0
  5  4  2  0
  5 11  1  0
  6  5  1  0
  7  8  1  1
  7  6  1  0
  9  7  1  0
  9 10  2  0
 11 12  2  0
 12  2  1  0
 14 24  2  0
 14 13  1  0
 15 14  1  0
 16 17  1  0
 16 15  2  0
 17 23  2  0
 18 17  1  0
 19 18  1  1
 19 20  1  0
 20  9  1  0
 21 19  1  0
 22 21  2  0
 23 24  1  0
 25 21  1  0
 26 25  1  0
 26 27  1  6
 27 28  1  0
 28 29  1  0
 29 30  1  0
 30 31  1  0
 32 26  1  0
 33 32  1  0
 34 32  2  0
M  END
$$$$
