YYK.pdb
     RDKit          3D

 34 35  0  0  1  0  0  0  0  0999 V2000
    6.6326  -14.0595   15.0426 O   0  0  0  0  0  0  0  0  0  0  0  0
    7.1679  -13.9719   16.3296 C   0  0  0  0  0  0  0  0  0  0  0  0
    6.6520  -13.0831   17.2510 C   0  0  0  0  0  0  0  0  0  0  0  0
    7.1678  -12.9830   18.5259 C   0  0  0  0  0  0  0  0  0  0  0  0
    8.2241  -13.7691   18.9352 C   0  0  0  0  0  0  0  0  0  0  0  0
    8.7751  -13.6516   20.3206 C   0  0  0  0  0  0  0  0  0  0  0  0
    8.8876  -15.0739   20.8841 C   0  0  2  0  0  0  0  0  0  0  0  0
    7.5488  -15.6326   20.9596 N   0  0  0  0  0  0  0  0  0  0  0  0
    9.4578  -14.9977   22.2639 C   0  0  0  0  0  0  0  0  0  0  0  0
   10.6827  -14.6822   22.4288 O   0  0  0  0  0  0  0  0  0  0  0  0
    8.7435  -14.6614   18.0132 C   0  0  0  0  0  0  0  0  0  0  0  0
    8.2252  -14.7611   16.7340 C   0  0  0  0  0  0  0  0  0  0  0  0
   10.6520  -15.2118   30.9524 O   0  0  0  0  0  0  0  0  0  0  0  0
   10.0809  -15.1097   29.6901 C   0  0  0  0  0  0  0  0  0  0  0  0
   10.1392  -13.9237   28.9894 C   0  0  0  0  0  0  0  0  0  0  0  0
    9.5620  -13.8265   27.7180 C   0  0  0  0  0  0  0  0  0  0  0  0
    8.9228  -14.8834   27.1176 C   0  0  0  0  0  0  0  0  0  0  0  0
    8.2951  -14.8324   25.7765 C   0  0  0  0  0  0  0  0  0  0  0  0
    9.2602  -15.2990   24.6958 C   0  0  2  0  0  0  0  0  0  0  0  0
    8.6613  -15.2704   23.4011 N   0  0  0  0  0  0  0  0  0  0  0  0
    9.8028  -16.6107   25.1074 C   0  0  0  0  0  0  0  0  0  0  0  0
    9.0180  -17.5465   25.4807 O   0  0  0  0  0  0  0  0  0  0  0  0
    8.8805  -16.0744   27.8554 C   0  0  0  0  0  0  0  0  0  0  0  0
    9.4441  -16.1860   29.1085 C   0  0  0  0  0  0  0  0  0  0  0  0
   11.1820  -16.9192   25.1147 N   0  0  0  0  0  0  0  0  0  0  0  0
   11.6937  -18.2359   25.4967 C   0  0  1  0  0  0  0  0  0  0  0  0
   12.5401  -18.7818   24.3816 C   0  0  0  0  0  0  0  0  0  0  0  0
   12.0686  -18.5485   23.0077 C   0  0  0  0  0  0  0  0  0  0  0  0
   12.8949  -19.1777   21.9476 C   0  0  0  0  0  0  0  0  0  0  0  0
   12.3378  -18.7997   20.5811 C   0  0  0  0  0  0  0  0  0  0  0  0
   13.2095  -19.4316   19.5791 N   0  0  0  0  0  0  0  0  0  0  0  0
   12.2748  -18.1781   26.8283 C   0  0  0  0  0  0  0  0  0  0  0  0
   12.4246  -16.9904   27.5737 O   0  0  0  0  0  0  0  0  0  0  0  0
   12.6855  -19.2259   27.4004 O   0  0  0  0  0  0  0  0  0  0  0  0
  2  1  1  0
  3  2  2  0
  4  3  1  0
  5  4  2  0
  5 11  1  0
  6  5  1  0
  7  8  1  1
  7  6  1  0
  9  7  1  0
  9 10  2  0
 11 12  2  0
 12  2  1  0
 14 24  2  0
 14 13  1  0
 15 14  1  0
 16 17  1  0
 16 15  2  0
 17 23  2  0
 18 17  1  0
 19 18  1  1
 19 20  1  0
 20  9  1  0
 21 19  1  0
 22 21  2  0
 23 24  1  0
 25 21  1  0
 26 25  1  0
 26 27  1  6
 27 28  1  0
 28 29  1  0
 29 30  1  0
 30 31  1  0
 32 26  1  0
 33 32  1  0
 34 32  2  0
M  END
$$$$
