YYK.pdb
     RDKit          3D

 34 35  0  0  1  0  0  0  0  0999 V2000
   -5.8501  -26.8730   19.2629 O   0  0  0  0  0  0  0  0  0  0  0  0
   -5.5336  -26.6269   20.6007 C   0  0  0  0  0  0  0  0  0  0  0  0
   -4.5215  -27.3251   21.2278 C   0  0  0  0  0  0  0  0  0  0  0  0
   -4.1953  -27.0954   22.5478 C   0  0  0  0  0  0  0  0  0  0  0  0
   -4.8685  -26.1556   23.2992 C   0  0  0  0  0  0  0  0  0  0  0  0
   -4.5058  -25.9152   24.7300 C   0  0  0  0  0  0  0  0  0  0  0  0
   -4.0669  -24.4499   24.8447 C   0  0  2  0  0  0  0  0  0  0  0  0
   -2.7646  -24.3220   24.2138 N   0  0  0  0  0  0  0  0  0  0  0  0
   -3.9385  -24.1012   26.2927 C   0  0  0  0  0  0  0  0  0  0  0  0
   -2.8706  -24.3960   26.9250 O   0  0  0  0  0  0  0  0  0  0  0  0
   -5.8841  -25.4538   22.6727 C   0  0  0  0  0  0  0  0  0  0  0  0
   -6.2108  -25.6850   21.3481 C   0  0  0  0  0  0  0  0  0  0  0  0
  -11.0374  -21.6033   27.7097 O   0  0  0  0  0  0  0  0  0  0  0  0
   -9.6693  -21.6470   27.9467 C   0  0  0  0  0  0  0  0  0  0  0  0
   -8.7743  -21.5282   26.9047 C   0  0  0  0  0  0  0  0  0  0  0  0
   -7.3969  -21.5730   27.1492 C   0  0  0  0  0  0  0  0  0  0  0  0
   -6.8787  -21.7340   28.4108 C   0  0  0  0  0  0  0  0  0  0  0  0
   -5.4314  -21.7893   28.7228 C   0  0  0  0  0  0  0  0  0  0  0  0
   -4.8410  -23.1475   28.3711 C   0  0  2  0  0  0  0  0  0  0  0  0
   -4.9849  -23.4454   26.9833 N   0  0  0  0  0  0  0  0  0  0  0  0
   -5.4225  -24.1472   29.2912 C   0  0  0  0  0  0  0  0  0  0  0  0
   -6.4425  -24.8315   28.9414 O   0  0  0  0  0  0  0  0  0  0  0  0
   -7.8140  -21.8518   29.4481 C   0  0  0  0  0  0  0  0  0  0  0  0
   -9.1735  -21.8096   29.2234 C   0  0  0  0  0  0  0  0  0  0  0  0
   -4.9095  -24.4153   30.5806 N   0  0  0  0  0  0  0  0  0  0  0  0
   -5.4659  -25.4517   31.4511 C   0  0  1  0  0  0  0  0  0  0  0  0
   -4.3621  -26.3666   31.9014 C   0  0  0  0  0  0  0  0  0  0  0  0
   -4.2662  -26.6400   33.3437 C   0  0  0  0  0  0  0  0  0  0  0  0
   -3.1693  -27.5602   33.7341 C   0  0  0  0  0  0  0  0  0  0  0  0
   -3.3155  -27.9259   35.2056 C   0  0  0  0  0  0  0  0  0  0  0  0
   -2.3344  -28.9872   35.4776 N   0  0  0  0  0  0  0  0  0  0  0  0
   -6.3091  -24.8475   32.4700 C   0  0  0  0  0  0  0  0  0  0  0  0
   -7.4714  -25.4510   32.9930 O   0  0  0  0  0  0  0  0  0  0  0  0
   -6.0293  -23.7149   32.9524 O   0  0  0  0  0  0  0  0  0  0  0  0
  2  1  1  0
  3  2  2  0
  4  3  1  0
  5  4  2  0
  5 11  1  0
  6  5  1  0
  7  8  1  6
  7  6  1  0
  9  7  1  0
  9 10  2  0
 11 12  2  0
 12  2  1  0
 14 24  2  0
 14 13  1  0
 15 14  1  0
 16 17  1  0
 16 15  2  0
 17 23  2  0
 18 17  1  0
 19 18  1  6
 19 20  1  0
 20  9  1  0
 21 19  1  0
 22 21  2  0
 23 24  1  0
 25 21  1  0
 26 25  1  0
 26 27  1  1
 27 28  1  0
 28 29  1  0
 29 30  1  0
 30 31  1  0
 32 26  1  0
 33 32  1  0
 34 32  2  0
M  END
$$$$
