YYK.pdb
     RDKit          3D

 34 35  0  0  1  0  0  0  0  0999 V2000
    7.3247  -13.7682   15.9667 O   0  0  0  0  0  0  0  0  0  0  0  0
    7.9465  -13.9232   17.2076 C   0  0  0  0  0  0  0  0  0  0  0  0
    8.7636  -15.0070   17.4585 C   0  0  0  0  0  0  0  0  0  0  0  0
    9.3857  -15.1762   18.6775 C   0  0  0  0  0  0  0  0  0  0  0  0
    9.2171  -14.2670   19.7003 C   0  0  0  0  0  0  0  0  0  0  0  0
    9.8969  -14.4611   21.0181 C   0  0  0  0  0  0  0  0  0  0  0  0
    9.1555  -15.5888   21.7472 C   0  0  2  0  0  0  0  0  0  0  0  0
    7.7595  -15.2044   21.8638 N   0  0  0  0  0  0  0  0  0  0  0  0
    9.7332  -15.7325   23.1184 C   0  0  0  0  0  0  0  0  0  0  0  0
   10.9496  -16.0889   23.2614 O   0  0  0  0  0  0  0  0  0  0  0  0
    8.3981  -13.1790   19.4514 C   0  0  0  0  0  0  0  0  0  0  0  0
    7.7743  -13.0100   18.2278 C   0  0  0  0  0  0  0  0  0  0  0  0
    4.8301  -11.3275   26.1845 O   0  0  0  0  0  0  0  0  0  0  0  0
    6.0139  -12.0537   26.2161 C   0  0  0  0  0  0  0  0  0  0  0  0
    6.3877  -12.7337   27.3557 C   0  0  0  0  0  0  0  0  0  0  0  0
    7.5816  -13.4638   27.3819 C   0  0  0  0  0  0  0  0  0  0  0  0
    8.4222  -13.5382   26.2985 C   0  0  0  0  0  0  0  0  0  0  0  0
    9.6959  -14.2948   26.2748 C   0  0  0  0  0  0  0  0  0  0  0  0
    9.5320  -15.6321   25.5666 C   0  0  2  0  0  0  0  0  0  0  0  0
    8.9532  -15.4795   24.2715 N   0  0  0  0  0  0  0  0  0  0  0  0
    8.8039  -16.5413   26.4763 C   0  0  0  0  0  0  0  0  0  0  0  0
    9.2267  -16.7417   27.6646 O   0  0  0  0  0  0  0  0  0  0  0  0
    8.0142  -12.8365   25.1558 C   0  0  0  0  0  0  0  0  0  0  0  0
    6.8414  -12.1130   25.1143 C   0  0  0  0  0  0  0  0  0  0  0  0
    7.6239  -17.2299   26.1145 N   0  0  0  0  0  0  0  0  0  0  0  0
    7.4137  -18.6466   26.4149 C   0  0  1  0  0  0  0  0  0  0  0  0
    6.8568  -19.3340   25.2004 C   0  0  0  0  0  0  0  0  0  0  0  0
    6.6190  -20.7824   25.3013 C   0  0  0  0  0  0  0  0  0  0  0  0
    6.1344  -21.4249   24.0544 C   0  0  0  0  0  0  0  0  0  0  0  0
    5.8052  -22.8859   24.3333 C   0  0  0  0  0  0  0  0  0  0  0  0
    5.1844  -23.4205   23.1119 N   0  0  0  0  0  0  0  0  0  0  0  0
    8.6057  -19.2081   27.0298 C   0  0  0  0  0  0  0  0  0  0  0  0
    9.8687  -19.2571   26.4044 O   0  0  0  0  0  0  0  0  0  0  0  0
    8.5646  -19.6940   28.1943 O   0  0  0  0  0  0  0  0  0  0  0  0
  2  1  1  0
  3  2  2  0
  4  3  1  0
  5  4  2  0
  5 11  1  0
  6  5  1  0
  7  8  1  1
  7  6  1  0
  9  7  1  0
  9 10  2  0
 11 12  2  0
 12  2  1  0
 14 24  2  0
 14 13  1  0
 15 14  1  0
 16 17  1  0
 16 15  2  0
 17 23  2  0
 18 17  1  0
 19 18  1  1
 19 20  1  0
 20  9  1  0
 21 19  1  0
 22 21  2  0
 23 24  1  0
 25 21  1  0
 26 25  1  0
 26 27  1  6
 27 28  1  0
 28 29  1  0
 29 30  1  0
 30 31  1  0
 32 26  1  0
 33 32  1  0
 34 32  2  0
M  END
$$$$
