HSA.pdb
     RDKit          3D

 22 22  0  0  1  0  0  0  0  0999 V2000
   18.8435  -11.8777  -16.4590 N   0  0  0  0  0  0  0  0  0  0  0  0
   19.0800  -10.5925  -17.0397 C   0  0  1  0  0  0  0  0  0  0  0  0
   17.8666  -10.2191  -17.8660 C   0  0  0  0  0  0  0  0  0  0  0  0
   17.8732  -11.1117  -19.0658 C   0  0  0  0  0  0  0  0  0  0  0  0
   18.8183  -11.0737  -20.0554 C   0  0  0  0  0  0  0  0  0  0  0  0
   18.4837  -12.0273  -20.9610 N   0  0  0  0  0  0  0  0  0  0  0  0
   17.3643  -12.6513  -20.5624 C   0  0  0  0  0  0  0  0  0  0  0  0
   17.0042  -12.0792  -19.4018 N   0  0  0  0  0  0  0  0  0  0  0  0
   19.2284   -9.5219  -16.0007 C   0  0  0  0  0  0  0  0  0  0  0  0
   18.3053   -9.3715  -15.1594 O   0  0  0  0  0  0  0  0  0  0  0  0
   21.8164   -8.8723  -13.2671 O   0  0  0  0  0  0  0  0  0  0  0  0
   21.8315   -7.8972  -14.2398 C   0  0  0  0  0  0  0  0  0  0  0  0
   20.4775   -7.6661  -14.8821 C   0  0  2  0  0  0  0  0  0  0  0  0
   20.3519   -8.6802  -15.9252 N   0  0  0  0  0  0  0  0  0  0  0  0
   20.3474   -6.3034  -15.4412 C   0  0  0  0  0  0  0  0  0  0  0  0
   20.8867   -5.9931  -16.5322 O   0  0  0  0  0  0  0  0  0  0  0  0
   18.3630   -3.2486  -14.6283 C   0  0  0  0  0  0  0  0  0  0  0  0
   19.4995   -3.9785  -15.3289 C   0  0  2  0  0  0  0  0  0  0  0  0
   19.5998   -5.3210  -14.7368 N   0  0  0  0  0  0  0  0  0  0  0  0
   20.7823   -3.2486  -15.1848 C   0  0  0  0  0  0  0  0  0  0  0  0
   21.8288   -3.6610  -14.3768 O   0  0  0  0  0  0  0  0  0  0  0  0
   20.9257   -2.1866  -15.8404 O   0  0  0  0  0  0  0  0  0  0  0  0
  2  1  1  1
  3  2  1  0
  4  3  1  0
  4  5  2  0
  6  5  1  0
  7  6  1  0
  8  7  2  0
  8  4  1  0
  9  2  1  0
  9 14  1  0
 10  9  2  0
 11 12  1  0
 13 14  1  0
 13 12  1  6
 13 15  1  0
 15 19  1  0
 15 16  2  0
 18 17  1  1
 18 20  1  0
 19 18  1  0
 20 21  1  0
 22 20  2  0
M  END
$$$$
