HSA.pdb
     RDKit          3D

 22 22  0  0  1  0  0  0  0  0999 V2000
   18.4778  -12.1854  -15.4498 N   0  0  0  0  0  0  0  0  0  0  0  0
   18.3011  -10.8004  -15.7587 C   0  0  1  0  0  0  0  0  0  0  0  0
   17.0174  -10.3326  -15.1046 C   0  0  0  0  0  0  0  0  0  0  0  0
   15.8933  -10.9222  -15.8951 C   0  0  0  0  0  0  0  0  0  0  0  0
   15.1097  -11.9621  -15.4722 C   0  0  0  0  0  0  0  0  0  0  0  0
   14.2093  -12.2071  -16.4574 N   0  0  0  0  0  0  0  0  0  0  0  0
   14.4119  -11.3532  -17.4728 C   0  0  0  0  0  0  0  0  0  0  0  0
   15.4454  -10.5744  -17.1127 N   0  0  0  0  0  0  0  0  0  0  0  0
   19.3979   -9.9506  -15.1906 C   0  0  0  0  0  0  0  0  0  0  0  0
   19.7000  -10.0944  -13.9780 O   0  0  0  0  0  0  0  0  0  0  0  0
   22.1303   -8.2999  -17.6451 O   0  0  0  0  0  0  0  0  0  0  0  0
   22.4053   -8.5491  -16.3187 C   0  0  0  0  0  0  0  0  0  0  0  0
   21.2348   -8.2659  -15.3972 C   0  0  2  0  0  0  0  0  0  0  0  0
   20.1023   -9.0019  -15.9521 N   0  0  0  0  0  0  0  0  0  0  0  0
   20.9374   -6.8210  -15.2965 C   0  0  0  0  0  0  0  0  0  0  0  0
   20.0874   -6.2776  -16.0445 O   0  0  0  0  0  0  0  0  0  0  0  0
   22.1703   -3.9643  -13.2036 C   0  0  0  0  0  0  0  0  0  0  0  0
   21.4027   -4.5717  -14.3685 C   0  0  2  0  0  0  0  0  0  0  0  0
   21.6220   -6.0256  -14.3378 N   0  0  0  0  0  0  0  0  0  0  0  0
   21.8477   -4.0052  -15.6647 C   0  0  0  0  0  0  0  0  0  0  0  0
   22.6489   -4.6739  -16.5752 O   0  0  0  0  0  0  0  0  0  0  0  0
   21.4712   -2.8418  -15.9525 O   0  0  0  0  0  0  0  0  0  0  0  0
  2  1  1  1
  3  2  1  0
  4  3  1  0
  4  5  2  0
  6  5  1  0
  7  6  1  0
  8  7  2  0
  8  4  1  0
  9  2  1  0
  9 14  1  0
 10  9  2  0
 11 12  1  0
 13 14  1  0
 13 12  1  6
 13 15  1  0
 15 19  1  0
 15 16  2  0
 18 17  1  1
 18 20  1  0
 19 18  1  0
 20 21  1  0
 22 20  2  0
M  END
$$$$
