HSA.pdb
     RDKit          3D

 22 22  0  0  1  0  0  0  0  0999 V2000
   28.4153  -30.7611  -16.7804 N   0  0  0  0  0  0  0  0  0  0  0  0
   27.2067  -31.1082  -16.0996 C   0  0  1  0  0  0  0  0  0  0  0  0
   26.2074  -31.5901  -17.1311 C   0  0  0  0  0  0  0  0  0  0  0  0
   25.6838  -30.3722  -17.8229 C   0  0  0  0  0  0  0  0  0  0  0  0
   24.9834  -29.3707  -17.2060 C   0  0  0  0  0  0  0  0  0  0  0  0
   24.6851  -28.4503  -18.1575 N   0  0  0  0  0  0  0  0  0  0  0  0
   25.1782  -28.8512  -19.3396 C   0  0  0  0  0  0  0  0  0  0  0  0
   25.7859  -30.0282  -19.1173 N   0  0  0  0  0  0  0  0  0  0  0  0
   27.4045  -32.2441  -15.1412 C   0  0  0  0  0  0  0  0  0  0  0  0
   28.3573  -33.0400  -15.3441 O   0  0  0  0  0  0  0  0  0  0  0  0
   24.7283  -32.7314  -12.1999 O   0  0  0  0  0  0  0  0  0  0  0  0
   25.9663  -33.2344  -11.8662 C   0  0  0  0  0  0  0  0  0  0  0  0
   26.8420  -33.5267  -13.0691 C   0  0  2  0  0  0  0  0  0  0  0  0
   26.5736  -32.4585  -14.0278 N   0  0  0  0  0  0  0  0  0  0  0  0
   26.5638  -34.8554  -13.6554 C   0  0  0  0  0  0  0  0  0  0  0  0
   25.6850  -35.0056  -14.5400 O   0  0  0  0  0  0  0  0  0  0  0  0
   27.9383  -38.3184  -13.2330 C   0  0  0  0  0  0  0  0  0  0  0  0
   26.9596  -37.2969  -13.7933 C   0  0  2  0  0  0  0  0  0  0  0  0
   27.3004  -35.9884  -13.2150 N   0  0  0  0  0  0  0  0  0  0  0  0
   25.5573  -37.6582  -13.4738 C   0  0  0  0  0  0  0  0  0  0  0  0
   24.7373  -38.4101  -14.2986 O   0  0  0  0  0  0  0  0  0  0  0  0
   25.0854  -37.2538  -12.3820 O   0  0  0  0  0  0  0  0  0  0  0  0
  2  1  1  6
  3  2  1  0
  4  3  1  0
  4  5  2  0
  6  5  1  0
  7  6  1  0
  8  7  2  0
  8  4  1  0
  9  2  1  0
  9 14  1  0
 10  9  2  0
 11 12  1  0
 13 14  1  0
 13 12  1  1
 13 15  1  0
 15 19  1  0
 15 16  2  0
 18 17  1  1
 18 20  1  0
 19 18  1  0
 20 21  1  0
 22 20  2  0
M  END
$$$$
