HSA.pdb
     RDKit          3D

 22 22  0  0  1  0  0  0  0  0999 V2000
   19.4692  -12.9242  -18.1677 N   0  0  0  0  0  0  0  0  0  0  0  0
   20.2070  -12.3311  -17.0959 C   0  0  1  0  0  0  0  0  0  0  0  0
   21.6420  -12.8068  -17.1927 C   0  0  0  0  0  0  0  0  0  0  0  0
   21.6448  -14.2467  -16.7894 C   0  0  0  0  0  0  0  0  0  0  0  0
   21.5571  -15.2970  -17.6630 C   0  0  0  0  0  0  0  0  0  0  0  0
   21.5918  -16.4336  -16.9226 N   0  0  0  0  0  0  0  0  0  0  0  0
   21.6980  -16.1187  -15.6222 C   0  0  0  0  0  0  0  0  0  0  0  0
   21.7291  -14.7774  -15.5583 N   0  0  0  0  0  0  0  0  0  0  0  0
   20.2505  -10.8360  -17.1997 C   0  0  0  0  0  0  0  0  0  0  0  0
   20.5742  -10.3211  -18.3009 O   0  0  0  0  0  0  0  0  0  0  0  0
   18.2023   -8.5527  -14.5927 O   0  0  0  0  0  0  0  0  0  0  0  0
   18.5680   -8.0727  -15.8307 C   0  0  0  0  0  0  0  0  0  0  0  0
   19.9433   -8.5333  -16.2732 C   0  0  2  0  0  0  0  0  0  0  0  0
   19.9458   -9.9857  -16.1225 N   0  0  0  0  0  0  0  0  0  0  0  0
   21.0251   -7.9104  -15.4806 C   0  0  0  0  0  0  0  0  0  0  0  0
   21.4013   -8.4063  -14.3898 O   0  0  0  0  0  0  0  0  0  0  0  0
   23.3731   -5.0294  -15.9593 C   0  0  0  0  0  0  0  0  0  0  0  0
   22.7694   -6.1795  -15.1670 C   0  0  2  0  0  0  0  0  0  0  0  0
   21.6559   -6.7285  -15.9554 N   0  0  0  0  0  0  0  0  0  0  0  0
   22.2933   -5.7297  -13.8365 C   0  0  0  0  0  0  0  0  0  0  0  0
   23.1035   -5.5970  -12.7211 O   0  0  0  0  0  0  0  0  0  0  0  0
   21.0741   -5.4516  -13.7170 O   0  0  0  0  0  0  0  0  0  0  0  0
  2  1  1  6
  3  2  1  0
  4  3  1  0
  4  5  2  0
  6  5  1  0
  7  6  1  0
  8  7  2  0
  8  4  1  0
  9  2  1  0
  9 14  1  0
 10  9  2  0
 11 12  1  0
 13 14  1  0
 13 12  1  1
 13 15  1  0
 15 19  1  0
 15 16  2  0
 18 17  1  6
 18 20  1  0
 19 18  1  0
 20 21  1  0
 22 20  2  0
M  END
$$$$
