HSA.pdb
     RDKit          3D

 22 22  0  0  1  0  0  0  0  0999 V2000
   43.3452  -13.0625   -9.3684 N   0  0  0  0  0  0  0  0  0  0  0  0
   43.0407  -11.8825   -8.6202 C   0  0  1  0  0  0  0  0  0  0  0  0
   44.0965  -10.8421   -8.9323 C   0  0  0  0  0  0  0  0  0  0  0  0
   45.1389  -10.9553   -7.8662 C   0  0  0  0  0  0  0  0  0  0  0  0
   45.1046  -11.8621   -6.8412 C   0  0  0  0  0  0  0  0  0  0  0  0
   46.2146  -11.6536   -6.0890 N   0  0  0  0  0  0  0  0  0  0  0  0
   46.9315  -10.6489   -6.6163 C   0  0  0  0  0  0  0  0  0  0  0  0
   46.2596  -10.2332   -7.7025 N   0  0  0  0  0  0  0  0  0  0  0  0
   41.7263  -11.2830   -9.0212 C   0  0  0  0  0  0  0  0  0  0  0  0
   41.3773  -11.3569  -10.2275 O   0  0  0  0  0  0  0  0  0  0  0  0
   37.4721   -9.5091   -7.5096 O   0  0  0  0  0  0  0  0  0  0  0  0
   38.7029  -10.0916   -7.3031 C   0  0  0  0  0  0  0  0  0  0  0  0
   39.5901  -10.0774   -8.5329 C   0  0  2  0  0  0  0  0  0  0  0  0
   40.8682  -10.6430   -8.1100 N   0  0  0  0  0  0  0  0  0  0  0  0
   39.7625   -8.7162   -9.0841 C   0  0  0  0  0  0  0  0  0  0  0  0
   40.6167   -7.9259   -8.6116 O   0  0  0  0  0  0  0  0  0  0  0  0
   38.3564   -6.7752  -11.9569 C   0  0  0  0  0  0  0  0  0  0  0  0
   39.1108   -6.9037  -10.6419 C   0  0  2  0  0  0  0  0  0  0  0  0
   38.9505   -8.2869  -10.1688 N   0  0  0  0  0  0  0  0  0  0  0  0
   38.6035   -5.9453   -9.6304 C   0  0  0  0  0  0  0  0  0  0  0  0
   39.0341   -4.6343   -9.5119 O   0  0  0  0  0  0  0  0  0  0  0  0
   37.7253   -6.3529   -8.8299 O   0  0  0  0  0  0  0  0  0  0  0  0
  2  1  1  6
  3  2  1  0
  4  3  1  0
  4  5  2  0
  6  5  1  0
  7  6  1  0
  8  7  2  0
  8  4  1  0
  9  2  1  0
  9 14  1  0
 10  9  2  0
 11 12  1  0
 13 14  1  0
 13 12  1  1
 13 15  1  0
 15 19  1  0
 15 16  2  0
 18 17  1  6
 18 20  1  0
 19 18  1  0
 20 21  1  0
 22 20  2  0
M  END
$$$$
