HSA.pdb
     RDKit          3D

 22 22  0  0  1  0  0  0  0  0999 V2000
   18.3899  -13.0091  -15.8558 N   0  0  0  0  0  0  0  0  0  0  0  0
   18.1946  -11.5993  -15.9945 C   0  0  1  0  0  0  0  0  0  0  0  0
   17.1063  -11.1778  -15.0288 C   0  0  0  0  0  0  0  0  0  0  0  0
   15.8306  -11.7725  -15.5339 C   0  0  0  0  0  0  0  0  0  0  0  0
   15.0732  -12.6821  -14.8460 C   0  0  0  0  0  0  0  0  0  0  0  0
   14.0037  -12.9795  -15.6264 N   0  0  0  0  0  0  0  0  0  0  0  0
   14.0768  -12.2837  -16.7717 C   0  0  0  0  0  0  0  0  0  0  0  0
   15.1999  -11.5506  -16.6989 N   0  0  0  0  0  0  0  0  0  0  0  0
   19.4184  -10.8198  -15.6171 C   0  0  0  0  0  0  0  0  0  0  0  0
   19.9163  -11.0017  -14.4762 O   0  0  0  0  0  0  0  0  0  0  0  0
   21.4197   -8.3868  -18.3635 O   0  0  0  0  0  0  0  0  0  0  0  0
   22.0687   -9.0005  -17.3151 C   0  0  0  0  0  0  0  0  0  0  0  0
   21.2109   -9.1360  -16.0720 C   0  0  2  0  0  0  0  0  0  0  0  0
   20.0330   -9.8961  -16.4804 N   0  0  0  0  0  0  0  0  0  0  0  0
   20.8321   -7.8233  -15.5064 C   0  0  0  0  0  0  0  0  0  0  0  0
   19.7697   -7.2484  -15.8502 O   0  0  0  0  0  0  0  0  0  0  0  0
   22.0473   -5.6181  -12.7617 C   0  0  0  0  0  0  0  0  0  0  0  0
   21.2897   -5.8667  -14.0576 C   0  0  2  0  0  0  0  0  0  0  0  0
   21.6807   -7.1942  -14.5554 N   0  0  0  0  0  0  0  0  0  0  0  0
   21.5877   -4.8231  -15.0681 C   0  0  0  0  0  0  0  0  0  0  0  0
   20.9861   -3.5761  -15.1035 O   0  0  0  0  0  0  0  0  0  0  0  0
   22.4427   -5.0913  -15.9486 O   0  0  0  0  0  0  0  0  0  0  0  0
  2  1  1  1
  3  2  1  0
  4  3  1  0
  4  5  2  0
  6  5  1  0
  7  6  1  0
  8  7  2  0
  8  4  1  0
  9  2  1  0
  9 14  1  0
 10  9  2  0
 11 12  1  0
 13 14  1  0
 13 12  1  6
 13 15  1  0
 15 19  1  0
 15 16  2  0
 18 17  1  1
 18 20  1  0
 19 18  1  0
 20 21  1  0
 22 20  2  0
M  END
$$$$
