HSA.pdb
     RDKit          3D

 22 22  0  0  1  0  0  0  0  0999 V2000
   34.3173  -28.4175  -18.4836 N   0  0  0  0  0  0  0  0  0  0  0  0
   35.4298  -29.1722  -17.9960 C   0  0  1  0  0  0  0  0  0  0  0  0
   35.3762  -29.1645  -16.4821 C   0  0  0  0  0  0  0  0  0  0  0  0
   36.0865  -27.9272  -16.0339 C   0  0  0  0  0  0  0  0  0  0  0  0
   36.7242  -27.0524  -16.8719 C   0  0  0  0  0  0  0  0  0  0  0  0
   37.2416  -26.0659  -16.0971 N   0  0  0  0  0  0  0  0  0  0  0  0
   36.9441  -26.3036  -14.8101 C   0  0  0  0  0  0  0  0  0  0  0  0
   36.2374  -27.4457  -14.7891 N   0  0  0  0  0  0  0  0  0  0  0  0
   35.3627  -30.6108  -18.4130 C   0  0  0  0  0  0  0  0  0  0  0  0
   34.2320  -31.1527  -18.5153 O   0  0  0  0  0  0  0  0  0  0  0  0
   37.3341  -33.9999  -21.0675 O   0  0  0  0  0  0  0  0  0  0  0  0
   37.3321  -32.7822  -20.4240 C   0  0  0  0  0  0  0  0  0  0  0  0
   36.4021  -32.7349  -19.2272 C   0  0  2  0  0  0  0  0  0  0  0  0
   36.5056  -31.3794  -18.6942 N   0  0  0  0  0  0  0  0  0  0  0  0
   36.7545  -33.7417  -18.2032 C   0  0  0  0  0  0  0  0  0  0  0  0
   37.5606  -33.4746  -17.2779 O   0  0  0  0  0  0  0  0  0  0  0  0
   35.6661  -37.2261  -17.3714 C   0  0  0  0  0  0  0  0  0  0  0  0
   36.5859  -36.0205  -17.2463 C   0  0  2  0  0  0  0  0  0  0  0  0
   36.1744  -35.0380  -18.2604 N   0  0  0  0  0  0  0  0  0  0  0  0
   38.0066  -36.4010  -17.4364 C   0  0  0  0  0  0  0  0  0  0  0  0
   38.8637  -36.7573  -16.4085 O   0  0  0  0  0  0  0  0  0  0  0  0
   38.4590  -36.3988  -18.6083 O   0  0  0  0  0  0  0  0  0  0  0  0
  2  1  1  6
  3  2  1  0
  4  3  1  0
  4  5  2  0
  6  5  1  0
  7  6  1  0
  8  7  2  0
  8  4  1  0
  9  2  1  0
  9 14  1  0
 10  9  2  0
 11 12  1  0
 13 14  1  0
 13 12  1  6
 13 15  1  0
 15 19  1  0
 15 16  2  0
 18 17  1  6
 18 20  1  0
 19 18  1  0
 20 21  1  0
 22 20  2  0
M  END
$$$$
