HSA.pdb
     RDKit          3D

 22 22  0  0  1  0  0  0  0  0999 V2000
   31.9045  -12.2387  -20.7138 N   0  0  0  0  0  0  0  0  0  0  0  0
   31.6244  -11.7629  -19.3947 C   0  0  1  0  0  0  0  0  0  0  0  0
   32.0160  -12.8462  -18.4109 C   0  0  0  0  0  0  0  0  0  0  0  0
   31.0151  -13.9467  -18.5636 C   0  0  0  0  0  0  0  0  0  0  0  0
   31.2593  -15.1344  -19.1992 C   0  0  0  0  0  0  0  0  0  0  0  0
   30.1172  -15.8639  -19.1303 N   0  0  0  0  0  0  0  0  0  0  0  0
   29.1778  -15.1655  -18.4736 C   0  0  0  0  0  0  0  0  0  0  0  0
   29.7434  -13.9955  -18.1340 N   0  0  0  0  0  0  0  0  0  0  0  0
   32.4440  -10.5577  -19.0432 C   0  0  0  0  0  0  0  0  0  0  0  0
   33.6901  -10.6122  -19.2069 O   0  0  0  0  0  0  0  0  0  0  0  0
   32.8508   -5.9526  -19.2879 O   0  0  0  0  0  0  0  0  0  0  0  0
   32.1920   -7.1605  -19.3511 C   0  0  0  0  0  0  0  0  0  0  0  0
   32.6886   -8.1713  -18.3357 C   0  0  2  0  0  0  0  0  0  0  0  0
   31.8823   -9.3715  -18.5396 N   0  0  0  0  0  0  0  0  0  0  0  0
   32.5706   -7.6759  -16.9475 C   0  0  0  0  0  0  0  0  0  0  0  0
   31.4669   -7.6751  -16.3482 O   0  0  0  0  0  0  0  0  0  0  0  0
   34.9136   -6.2966  -14.3694 C   0  0  0  0  0  0  0  0  0  0  0  0
   33.5348   -6.5651  -14.9542 C   0  0  2  0  0  0  0  0  0  0  0  0
   33.7230   -7.1900  -16.2722 N   0  0  0  0  0  0  0  0  0  0  0  0
   32.7462   -5.3154  -15.0783 C   0  0  0  0  0  0  0  0  0  0  0  0
   32.0975   -4.6935  -14.0245 O   0  0  0  0  0  0  0  0  0  0  0  0
   32.6634   -4.7888  -16.2159 O   0  0  0  0  0  0  0  0  0  0  0  0
  2  1  1  6
  3  2  1  0
  4  3  1  0
  4  5  2  0
  6  5  1  0
  7  6  1  0
  8  7  2  0
  8  4  1  0
  9  2  1  0
  9 14  1  0
 10  9  2  0
 11 12  1  0
 13 14  1  0
 13 12  1  6
 13 15  1  0
 15 19  1  0
 15 16  2  0
 18 17  1  6
 18 20  1  0
 19 18  1  0
 20 21  1  0
 22 20  2  0
M  END
$$$$
