HSA.pdb
     RDKit          3D

 22 22  0  0  1  0  0  0  0  0999 V2000
   17.4038  -11.6057  -15.7458 N   0  0  0  0  0  0  0  0  0  0  0  0
   17.3941  -10.2735  -16.2653 C   0  0  1  0  0  0  0  0  0  0  0  0
   16.3072   -9.4976  -15.5503 C   0  0  0  0  0  0  0  0  0  0  0  0
   15.0016  -10.0220  -16.0568 C   0  0  0  0  0  0  0  0  0  0  0  0
   14.1004  -10.7210  -15.2997 C   0  0  0  0  0  0  0  0  0  0  0  0
   13.0514  -11.0206  -16.1067 N   0  0  0  0  0  0  0  0  0  0  0  0
   13.2762  -10.5296  -17.3354 C   0  0  0  0  0  0  0  0  0  0  0  0
   14.4731   -9.9220  -17.2876 N   0  0  0  0  0  0  0  0  0  0  0  0
   18.6787   -9.5507  -15.9903 C   0  0  0  0  0  0  0  0  0  0  0  0
   19.2108   -9.6844  -14.8583 O   0  0  0  0  0  0  0  0  0  0  0  0
   22.3533   -7.0292  -17.9586 O   0  0  0  0  0  0  0  0  0  0  0  0
   21.1579   -7.7092  -18.0338 C   0  0  0  0  0  0  0  0  0  0  0  0
   20.6197   -8.1327  -16.6809 C   0  0  2  0  0  0  0  0  0  0  0  0
   19.3135   -8.7317  -16.9402 N   0  0  0  0  0  0  0  0  0  0  0  0
   20.5112   -6.9970  -15.7402 C   0  0  0  0  0  0  0  0  0  0  0  0
   19.5107   -6.2378  -15.7489 O   0  0  0  0  0  0  0  0  0  0  0  0
   22.1791   -5.8484  -12.6550 C   0  0  0  0  0  0  0  0  0  0  0  0
   21.4528   -5.5551  -13.9594 C   0  0  2  0  0  0  0  0  0  0  0  0
   21.5542   -6.7536  -14.8058 N   0  0  0  0  0  0  0  0  0  0  0  0
   22.0340   -4.3789  -14.6505 C   0  0  0  0  0  0  0  0  0  0  0  0
   21.8020   -3.0639  -14.2829 O   0  0  0  0  0  0  0  0  0  0  0  0
   22.7859   -4.5931  -15.6338 O   0  0  0  0  0  0  0  0  0  0  0  0
  2  1  1  1
  3  2  1  0
  4  3  1  0
  4  5  2  0
  6  5  1  0
  7  6  1  0
  8  7  2  0
  8  4  1  0
  9  2  1  0
  9 14  1  0
 10  9  2  0
 11 12  1  0
 13 14  1  0
 13 12  1  6
 13 15  1  0
 15 19  1  0
 15 16  2  0
 18 17  1  1
 18 20  1  0
 19 18  1  0
 20 21  1  0
 22 20  2  0
M  END
$$$$
