HSA.pdb
     RDKit          3D

 22 22  0  0  1  0  0  0  0  0999 V2000
   17.8682  -11.6227  -17.9432 N   0  0  0  0  0  0  0  0  0  0  0  0
   18.3816  -11.1273  -16.7039 C   0  0  1  0  0  0  0  0  0  0  0  0
   19.5414  -12.0089  -16.2891 C   0  0  0  0  0  0  0  0  0  0  0  0
   18.9678  -13.3545  -15.9781 C   0  0  0  0  0  0  0  0  0  0  0  0
   18.0733  -13.6024  -14.9719 C   0  0  0  0  0  0  0  0  0  0  0  0
   17.7926  -14.9295  -15.0080 N   0  0  0  0  0  0  0  0  0  0  0  0
   18.4841  -15.5073  -16.0027 C   0  0  0  0  0  0  0  0  0  0  0  0
   19.1976  -14.5301  -16.5858 N   0  0  0  0  0  0  0  0  0  0  0  0
   18.9330   -9.7393  -16.8356 C   0  0  0  0  0  0  0  0  0  0  0  0
   19.6205   -9.4617  -17.8519 O   0  0  0  0  0  0  0  0  0  0  0  0
   18.1339   -5.1526  -15.9116 O   0  0  0  0  0  0  0  0  0  0  0  0
   17.9007   -6.5059  -15.8057 C   0  0  0  0  0  0  0  0  0  0  0  0
   19.1209   -7.3531  -16.1104 C   0  0  2  0  0  0  0  0  0  0  0  0
   18.7159   -8.7361  -15.8750 N   0  0  0  0  0  0  0  0  0  0  0  0
   20.2825   -6.9849  -15.2729 C   0  0  0  0  0  0  0  0  0  0  0  0
   20.3885   -7.3946  -14.0904 O   0  0  0  0  0  0  0  0  0  0  0  0
   23.4617   -5.0697  -15.7831 C   0  0  0  0  0  0  0  0  0  0  0  0
   22.4296   -5.7967  -14.9338 C   0  0  2  0  0  0  0  0  0  0  0  0
   21.3022   -6.1523  -15.8088 N   0  0  0  0  0  0  0  0  0  0  0  0
   21.9668   -4.9542  -13.8046 C   0  0  0  0  0  0  0  0  0  0  0  0
   20.7687   -4.2597  -13.7884 O   0  0  0  0  0  0  0  0  0  0  0  0
   22.7134   -4.8671  -12.7980 O   0  0  0  0  0  0  0  0  0  0  0  0
  2  1  1  6
  3  2  1  0
  4  3  1  0
  4  5  2  0
  6  5  1  0
  7  6  1  0
  8  7  2  0
  8  4  1  0
  9  2  1  0
  9 14  1  0
 10  9  2  0
 11 12  1  0
 13 14  1  0
 13 12  1  1
 13 15  1  0
 15 19  1  0
 15 16  2  0
 18 17  1  6
 18 20  1  0
 19 18  1  0
 20 21  1  0
 22 20  2  0
M  END
$$$$
