HDW.pdb
     RDKit          3D

 33 35  0  0  1  0  0  0  0  0999 V2000
   19.2233  -20.1548  -17.8501 N   0  0  0  0  0  0  0  0  0  0  0  0
   20.2850  -19.1089  -17.9117 C   0  0  1  0  0  0  0  0  0  0  0  0
   20.0390  -18.2730  -16.6854 C   0  0  0  0  0  0  0  0  0  0  0  0
   18.9023  -17.3626  -16.7502 C   0  0  0  0  0  0  0  0  0  0  0  0
   19.1018  -15.9743  -16.8244 C   0  0  0  0  0  0  0  0  0  0  0  0
   17.9022  -15.3846  -16.8725 N   0  0  0  0  0  0  0  0  0  0  0  0
   16.9552  -16.3699  -16.8299 C   0  0  0  0  0  0  0  0  0  0  0  0
   17.5809  -17.5373  -16.7573 N   0  0  0  0  0  0  0  0  0  0  0  0
   21.5684  -19.8378  -17.7577 C   0  0  0  0  0  0  0  0  0  0  0  0
   21.5152  -20.9054  -17.0471 O   0  0  0  0  0  0  0  0  0  0  0  0
   22.8072  -19.4534  -18.3280 N   0  0  0  0  0  0  0  0  0  0  0  0
   23.9530  -20.3288  -18.0665 C   0  0  1  0  0  0  0  0  0  0  0  0
   24.7499  -20.3694  -19.3515 C   0  0  0  0  0  0  0  0  0  0  0  0
   26.0118  -21.1142  -19.2787 C   0  0  0  0  0  0  0  0  0  0  0  0
   26.1614  -22.3008  -18.9235 O   0  0  0  0  0  0  0  0  0  0  0  0
   24.7858  -19.8022  -16.9729 C   0  0  0  0  0  0  0  0  0  0  0  0
   24.5587  -18.6430  -16.5617 O   0  0  0  0  0  0  0  0  0  0  0  0
   27.1842  -20.3936  -19.6573 O   0  0  0  0  0  0  0  0  0  0  0  0
   25.8399  -20.5130  -16.3356 N   0  0  0  0  0  0  0  0  0  0  0  0
   26.4977  -20.1001  -15.1114 C   0  0  1  0  0  0  0  0  0  0  0  0
   25.5471  -19.6439  -14.0685 C   0  0  0  0  0  0  0  0  0  0  0  0
   26.0857  -19.2845  -12.7680 C   0  0  0  0  0  0  0  0  0  0  0  0
   26.9687  -18.2281  -12.5561 C   0  0  0  0  0  0  0  0  0  0  0  0
   27.2596  -18.1296  -11.2484 N   0  0  0  0  0  0  0  0  0  0  0  0
   26.5811  -19.1059  -10.6000 C   0  0  0  0  0  0  0  0  0  0  0  0
   26.5490  -19.4241   -9.2774 C   0  0  0  0  0  0  0  0  0  0  0  0
   25.7861  -20.4809   -8.8162 C   0  0  0  0  0  0  0  0  0  0  0  0
   25.0532  -21.2120   -9.7301 C   0  0  0  0  0  0  0  0  0  0  0  0
   25.0832  -20.8925  -11.0706 C   0  0  0  0  0  0  0  0  0  0  0  0
   25.8510  -19.8261  -11.5390 C   0  0  0  0  0  0  0  0  0  0  0  0
   27.6103  -20.9545  -14.7153 C   0  0  0  0  0  0  0  0  0  0  0  0
   28.8123  -20.3919  -14.3130 O   0  0  0  0  0  0  0  0  0  0  0  0
   27.5701  -22.2146  -14.7046 O   0  0  0  0  0  0  0  0  0  0  0  0
  2  1  1  1
  3  2  1  0
  3  4  1  0
  4  5  2  0
  5  6  1  0
  7  6  1  0
  8  4  1  0
  8  7  2  0
  9  2  1  0
  9 10  2  0
 11  9  1  0
 12 11  1  0
 12 13  1  6
 14 13  1  0
 15 14  2  0
 16 19  1  0
 16 12  1  0
 17 16  2  0
 18 14  1  0
 20 19  1  0
 20 31  1  0
 21 22  1  0
 20 21  1  1
 22 30  1  0
 22 23  2  0
 23 24  1  0
 25 26  2  0
 25 24  1  0
 27 26  1  0
 28 27  2  0
 29 28  1  0
 29 30  2  0
 30 25  1  0
 31 32  1  0
 33 31  2  0
M  END
$$$$
