HDW.pdb
     RDKit          3D

 33 35  0  0  1  0  0  0  0  0999 V2000
   26.6616  -18.8160  -17.8487 N   0  0  0  0  0  0  0  0  0  0  0  0
   26.7777  -18.3118  -16.4496 C   0  0  1  0  0  0  0  0  0  0  0  0
   27.5102  -17.0062  -16.5966 C   0  0  0  0  0  0  0  0  0  0  0  0
   28.7553  -17.0537  -17.3534 C   0  0  0  0  0  0  0  0  0  0  0  0
   29.9155  -17.6061  -16.7865 C   0  0  0  0  0  0  0  0  0  0  0  0
   30.8990  -17.5221  -17.6893 N   0  0  0  0  0  0  0  0  0  0  0  0
   30.3831  -16.9300  -18.8085 C   0  0  0  0  0  0  0  0  0  0  0  0
   29.1044  -16.6624  -18.5788 N   0  0  0  0  0  0  0  0  0  0  0  0
   25.3862  -18.0454  -16.0080 C   0  0  0  0  0  0  0  0  0  0  0  0
   25.2694  -17.4847  -14.8593 O   0  0  0  0  0  0  0  0  0  0  0  0
   24.2156  -18.3507  -16.7455 N   0  0  0  0  0  0  0  0  0  0  0  0
   22.9340  -18.1165  -16.0745 C   0  0  1  0  0  0  0  0  0  0  0  0
   21.9753  -17.6602  -17.1517 C   0  0  0  0  0  0  0  0  0  0  0  0
   22.2501  -16.3309  -17.7081 C   0  0  0  0  0  0  0  0  0  0  0  0
   22.1381  -15.2357  -17.1209 O   0  0  0  0  0  0  0  0  0  0  0  0
   22.4327  -19.3471  -15.4411 C   0  0  0  0  0  0  0  0  0  0  0  0
   22.9158  -20.4407  -15.8085 O   0  0  0  0  0  0  0  0  0  0  0  0
   22.6917  -16.3017  -19.0651 O   0  0  0  0  0  0  0  0  0  0  0  0
   21.4327  -19.3954  -14.4311 N   0  0  0  0  0  0  0  0  0  0  0  0
   20.9871  -20.6017  -13.7616 C   0  0  1  0  0  0  0  0  0  0  0  0
   22.1077  -21.4709  -13.3277 C   0  0  0  0  0  0  0  0  0  0  0  0
   22.7521  -21.1681  -12.0613 C   0  0  0  0  0  0  0  0  0  0  0  0
   22.0619  -20.9037  -10.8805 C   0  0  0  0  0  0  0  0  0  0  0  0
   22.9318  -20.6919   -9.8791 N   0  0  0  0  0  0  0  0  0  0  0  0
   24.1819  -20.8128  -10.3859 C   0  0  0  0  0  0  0  0  0  0  0  0
   25.3926  -20.6829   -9.7787 C   0  0  0  0  0  0  0  0  0  0  0  0
   26.5679  -20.8394  -10.4900 C   0  0  0  0  0  0  0  0  0  0  0  0
   26.4881  -21.1318  -11.8372 C   0  0  0  0  0  0  0  0  0  0  0  0
   25.2634  -21.2642  -12.4556 C   0  0  0  0  0  0  0  0  0  0  0  0
   24.0758  -21.1080  -11.7405 C   0  0  0  0  0  0  0  0  0  0  0  0
   19.8686  -20.3984  -12.8493 C   0  0  0  0  0  0  0  0  0  0  0  0
   19.1140  -21.4798  -12.4199 O   0  0  0  0  0  0  0  0  0  0  0  0
   19.5155  -19.2759  -12.3964 O   0  0  0  0  0  0  0  0  0  0  0  0
  2  1  1  6
  3  2  1  0
  3  4  1  0
  4  5  2  0
  5  6  1  0
  7  6  1  0
  8  4  1  0
  8  7  2  0
  9  2  1  0
  9 10  2  0
 11  9  1  0
 12 11  1  0
 12 13  1  6
 14 13  1  0
 15 14  2  0
 16 19  1  0
 16 12  1  0
 17 16  2  0
 18 14  1  0
 20 19  1  0
 20 31  1  0
 21 22  1  0
 20 21  1  1
 22 30  1  0
 22 23  2  0
 23 24  1  0
 25 26  2  0
 25 24  1  0
 27 26  1  0
 28 27  2  0
 29 28  1  0
 29 30  2  0
 30 25  1  0
 31 32  1  0
 33 31  2  0
M  END
$$$$
