HDW.pdb
     RDKit          3D

 33 35  0  0  1  0  0  0  0  0999 V2000
   24.4819  -17.1191  -17.2359 N   0  0  0  0  0  0  0  0  0  0  0  0
   24.0114  -17.6936  -15.9422 C   0  0  1  0  0  0  0  0  0  0  0  0
   22.5131  -17.7041  -16.0762 C   0  0  0  0  0  0  0  0  0  0  0  0
   21.8643  -16.3988  -16.0974 C   0  0  0  0  0  0  0  0  0  0  0  0
   20.9026  -16.0946  -17.0747 C   0  0  0  0  0  0  0  0  0  0  0  0
   20.4754  -14.8450  -16.8618 N   0  0  0  0  0  0  0  0  0  0  0  0
   21.1466  -14.3584  -15.7745 C   0  0  0  0  0  0  0  0  0  0  0  0
   21.9667  -15.3064  -15.3406 N   0  0  0  0  0  0  0  0  0  0  0  0
   24.5110  -19.0908  -15.9243 C   0  0  0  0  0  0  0  0  0  0  0  0
   24.6226  -19.6520  -17.0733 O   0  0  0  0  0  0  0  0  0  0  0  0
   24.8686  -19.8226  -14.7649 N   0  0  0  0  0  0  0  0  0  0  0  0
   25.4358  -21.1571  -14.9768 C   0  0  1  0  0  0  0  0  0  0  0  0
   26.7383  -20.9453  -15.7161 C   0  0  0  0  0  0  0  0  0  0  0  0
   27.9007  -21.6294  -15.1389 C   0  0  0  0  0  0  0  0  0  0  0  0
   28.0820  -22.8614  -15.0611 O   0  0  0  0  0  0  0  0  0  0  0  0
   25.6877  -21.8373  -13.6959 C   0  0  0  0  0  0  0  0  0  0  0  0
   26.7941  -22.3966  -13.5305 O   0  0  0  0  0  0  0  0  0  0  0  0
   28.9250  -20.7847  -14.6149 O   0  0  0  0  0  0  0  0  0  0  0  0
   24.7652  -21.9100  -12.6159 N   0  0  0  0  0  0  0  0  0  0  0  0
   25.0256  -21.4402  -11.2692 C   0  0  1  0  0  0  0  0  0  0  0  0
   26.0402  -20.3596  -11.2187 C   0  0  0  0  0  0  0  0  0  0  0  0
   27.2845  -20.6275  -10.5183 C   0  0  0  0  0  0  0  0  0  0  0  0
   28.4198  -21.1603  -11.1247 C   0  0  0  0  0  0  0  0  0  0  0  0
   29.4138  -21.2614  -10.2268 N   0  0  0  0  0  0  0  0  0  0  0  0
   28.9469  -20.8036   -9.0409 C   0  0  0  0  0  0  0  0  0  0  0  0
   29.5635  -20.7074   -7.8317 C   0  0  0  0  0  0  0  0  0  0  0  0
   28.8951  -20.2122   -6.7274 C   0  0  0  0  0  0  0  0  0  0  0  0
   27.5810  -19.8151   -6.8766 C   0  0  0  0  0  0  0  0  0  0  0  0
   26.9531  -19.9110   -8.1000 C   0  0  0  0  0  0  0  0  0  0  0  0
   27.6251  -20.4091   -9.2164 C   0  0  0  0  0  0  0  0  0  0  0  0
   23.8331  -21.3164  -10.4403 C   0  0  0  0  0  0  0  0  0  0  0  0
   23.7409  -22.0108   -9.2434 O   0  0  0  0  0  0  0  0  0  0  0  0
   22.8372  -20.5994  -10.7300 O   0  0  0  0  0  0  0  0  0  0  0  0
  2  1  1  6
  3  2  1  0
  3  4  1  0
  4  5  2  0
  5  6  1  0
  7  6  1  0
  8  4  1  0
  8  7  2  0
  9  2  1  0
  9 10  2  0
 11  9  1  0
 12 11  1  0
 12 13  1  1
 14 13  1  0
 15 14  2  0
 16 19  1  0
 16 12  1  0
 17 16  2  0
 18 14  1  0
 20 19  1  0
 20 31  1  0
 21 22  1  0
 20 21  1  6
 22 30  1  0
 22 23  2  0
 23 24  1  0
 25 26  2  0
 25 24  1  0
 27 26  1  0
 28 27  2  0
 29 28  1  0
 29 30  2  0
 30 25  1  0
 31 32  1  0
 33 31  2  0
M  END
$$$$
