HDW.pdb
     RDKit          3D

 33 35  0  0  1  0  0  0  0  0999 V2000
   27.9371  -20.4502  -15.9409 N   0  0  0  0  0  0  0  0  0  0  0  0
   27.8875  -21.4182  -14.8070 C   0  0  1  0  0  0  0  0  0  0  0  0
   29.3170  -21.5084  -14.3474 C   0  0  0  0  0  0  0  0  0  0  0  0
   30.0879  -22.6283  -14.8734 C   0  0  0  0  0  0  0  0  0  0  0  0
   29.5189  -23.5132  -15.8039 C   0  0  0  0  0  0  0  0  0  0  0  0
   30.4365  -24.4357  -16.1142 N   0  0  0  0  0  0  0  0  0  0  0  0
   31.5671  -24.1505  -15.4001 C   0  0  0  0  0  0  0  0  0  0  0  0
   31.3294  -23.0687  -14.6703 N   0  0  0  0  0  0  0  0  0  0  0  0
   27.0763  -20.7556  -13.7558 C   0  0  0  0  0  0  0  0  0  0  0  0
   27.0866  -19.4722  -13.7775 O   0  0  0  0  0  0  0  0  0  0  0  0
   26.3103  -21.4195  -12.7660 N   0  0  0  0  0  0  0  0  0  0  0  0
   25.3899  -20.5930  -11.9803 C   0  0  1  0  0  0  0  0  0  0  0  0
   24.1067  -20.5225  -12.7778 C   0  0  0  0  0  0  0  0  0  0  0  0
   22.9599  -19.9506  -12.0637 C   0  0  0  0  0  0  0  0  0  0  0  0
   21.8192  -20.4457  -11.9608 O   0  0  0  0  0  0  0  0  0  0  0  0
   25.1316  -21.1922  -10.6608 C   0  0  0  0  0  0  0  0  0  0  0  0
   24.9880  -22.4327  -10.5922 O   0  0  0  0  0  0  0  0  0  0  0  0
   23.1865  -18.6953  -11.4233 O   0  0  0  0  0  0  0  0  0  0  0  0
   25.0326  -20.4673   -9.4413 N   0  0  0  0  0  0  0  0  0  0  0  0
   24.6441  -21.0376   -8.1662 C   0  0  1  0  0  0  0  0  0  0  0  0
   25.2307  -20.3205   -7.0081 C   0  0  0  0  0  0  0  0  0  0  0  0
   26.5807  -19.8012   -7.1428 C   0  0  0  0  0  0  0  0  0  0  0  0
   27.0087  -19.0129   -8.2087 C   0  0  0  0  0  0  0  0  0  0  0  0
   28.2941  -18.6646   -8.0336 N   0  0  0  0  0  0  0  0  0  0  0  0
   28.7155  -19.2134   -6.8693 C   0  0  0  0  0  0  0  0  0  0  0  0
   29.9313  -19.1577   -6.2609 C   0  0  0  0  0  0  0  0  0  0  0  0
   30.1590  -19.8059   -5.0611 C   0  0  0  0  0  0  0  0  0  0  0  0
   29.1218  -20.5158   -4.4891 C   0  0  0  0  0  0  0  0  0  0  0  0
   27.8888  -20.5744   -5.1026 C   0  0  0  0  0  0  0  0  0  0  0  0
   27.6555  -19.9204   -6.3125 C   0  0  0  0  0  0  0  0  0  0  0  0
   23.2470  -21.4477   -8.0978 C   0  0  0  0  0  0  0  0  0  0  0  0
   22.8432  -22.3945   -7.1684 O   0  0  0  0  0  0  0  0  0  0  0  0
   22.3356  -20.9938   -8.8414 O   0  0  0  0  0  0  0  0  0  0  0  0
  2  1  1  6
  3  2  1  0
  3  4  1  0
  4  5  2  0
  5  6  1  0
  7  6  1  0
  8  4  1  0
  8  7  2  0
  9  2  1  0
  9 10  2  0
 11  9  1  0
 12 11  1  0
 12 13  1  6
 14 13  1  0
 15 14  2  0
 16 19  1  0
 16 12  1  0
 17 16  2  0
 18 14  1  0
 20 19  1  0
 20 31  1  0
 21 22  1  0
 20 21  1  1
 22 30  1  0
 22 23  2  0
 23 24  1  0
 25 26  2  0
 25 24  1  0
 27 26  1  0
 28 27  2  0
 29 28  1  0
 29 30  2  0
 30 25  1  0
 31 32  1  0
 33 31  2  0
M  END
$$$$
