HDW.pdb
     RDKit          3D

 33 35  0  0  1  0  0  0  0  0999 V2000
   28.9866  -18.7490  -18.6323 N   0  0  0  0  0  0  0  0  0  0  0  0
   29.7242  -18.8041  -17.3369 C   0  0  1  0  0  0  0  0  0  0  0  0
   30.5379  -17.5388  -17.3314 C   0  0  0  0  0  0  0  0  0  0  0  0
   31.6219  -17.4720  -18.3038 C   0  0  0  0  0  0  0  0  0  0  0  0
   32.6468  -18.4322  -18.2986 C   0  0  0  0  0  0  0  0  0  0  0  0
   33.4995  -18.1345  -19.2854 N   0  0  0  0  0  0  0  0  0  0  0  0
   33.0337  -17.0103  -19.9089 C   0  0  0  0  0  0  0  0  0  0  0  0
   31.9141  -16.6388  -19.3023 N   0  0  0  0  0  0  0  0  0  0  0  0
   28.6820  -18.7204  -16.2839 C   0  0  0  0  0  0  0  0  0  0  0  0
   28.5322  -17.5646  -15.7459 O   0  0  0  0  0  0  0  0  0  0  0  0
   27.8622  -19.7914  -15.8499 N   0  0  0  0  0  0  0  0  0  0  0  0
   26.8859  -19.4902  -14.7993 C   0  0  1  0  0  0  0  0  0  0  0  0
   25.5502  -19.3549  -15.4961 C   0  0  0  0  0  0  0  0  0  0  0  0
   24.3901  -19.2494  -14.6043 C   0  0  0  0  0  0  0  0  0  0  0  0
   23.4377  -20.0508  -14.5169 O   0  0  0  0  0  0  0  0  0  0  0  0
   26.8273  -20.5713  -13.8020 C   0  0  0  0  0  0  0  0  0  0  0  0
   26.8670  -21.7537  -14.2081 O   0  0  0  0  0  0  0  0  0  0  0  0
   24.3603  -18.1050  -13.7520 O   0  0  0  0  0  0  0  0  0  0  0  0
   26.7302  -20.3797  -12.3962 N   0  0  0  0  0  0  0  0  0  0  0  0
   26.4963  -21.4343  -11.4292 C   0  0  1  0  0  0  0  0  0  0  0  0
   27.4959  -21.4477  -10.3336 C   0  0  0  0  0  0  0  0  0  0  0  0
   27.2005  -20.6827   -9.1344 C   0  0  0  0  0  0  0  0  0  0  0  0
   26.0182  -19.9735   -8.9352 C   0  0  0  0  0  0  0  0  0  0  0  0
   26.0285  -19.3975   -7.7217 N   0  0  0  0  0  0  0  0  0  0  0  0
   27.2002  -19.7179   -7.1228 C   0  0  0  0  0  0  0  0  0  0  0  0
   27.6842  -19.3738   -5.8985 C   0  0  0  0  0  0  0  0  0  0  0  0
   28.9277  -19.8058   -5.4758 C   0  0  0  0  0  0  0  0  0  0  0  0
   29.6735  -20.5980   -6.3261 C   0  0  0  0  0  0  0  0  0  0  0  0
   29.1864  -20.9487   -7.5669 C   0  0  0  0  0  0  0  0  0  0  0  0
   27.9317  -20.5154   -7.9959 C   0  0  0  0  0  0  0  0  0  0  0  0
   25.0920  -21.6350  -11.0944 C   0  0  0  0  0  0  0  0  0  0  0  0
   24.6731  -22.8328  -10.5347 O   0  0  0  0  0  0  0  0  0  0  0  0
   24.1879  -20.7751  -11.2758 O   0  0  0  0  0  0  0  0  0  0  0  0
  2  1  1  6
  3  2  1  0
  3  4  1  0
  4  5  2  0
  5  6  1  0
  7  6  1  0
  8  4  1  0
  8  7  2  0
  9  2  1  0
  9 10  2  0
 11  9  1  0
 12 11  1  0
 12 13  1  6
 14 13  1  0
 15 14  2  0
 16 19  1  0
 16 12  1  0
 17 16  2  0
 18 14  1  0
 20 19  1  0
 20 31  1  0
 21 22  1  0
 20 21  1  1
 22 30  1  0
 22 23  2  0
 23 24  1  0
 25 26  2  0
 25 24  1  0
 27 26  1  0
 28 27  2  0
 29 28  1  0
 29 30  2  0
 30 25  1  0
 31 32  1  0
 33 31  2  0
M  END
$$$$
