HDW.pdb
     RDKit          3D

 33 35  0  0  1  0  0  0  0  0999 V2000
   28.9596  -18.8895  -17.6181 N   0  0  0  0  0  0  0  0  0  0  0  0
   28.9404  -17.8439  -16.5544 C   0  0  1  0  0  0  0  0  0  0  0  0
   28.8684  -16.5514  -17.3208 C   0  0  0  0  0  0  0  0  0  0  0  0
   29.9598  -16.3002  -18.2540 C   0  0  0  0  0  0  0  0  0  0  0  0
   31.2589  -16.0486  -17.7833 C   0  0  0  0  0  0  0  0  0  0  0  0
   32.0536  -15.8547  -18.8417 N   0  0  0  0  0  0  0  0  0  0  0  0
   31.2836  -15.9784  -19.9647 C   0  0  0  0  0  0  0  0  0  0  0  0
   30.0412  -16.2438  -19.5832 N   0  0  0  0  0  0  0  0  0  0  0  0
   27.6672  -18.0492  -15.8203 C   0  0  0  0  0  0  0  0  0  0  0  0
   27.3891  -17.1595  -14.9377 O   0  0  0  0  0  0  0  0  0  0  0  0
   26.7628  -19.1206  -16.0240 N   0  0  0  0  0  0  0  0  0  0  0  0
   25.5769  -19.1547  -15.1638 C   0  0  1  0  0  0  0  0  0  0  0  0
   24.3868  -19.2216  -16.0949 C   0  0  0  0  0  0  0  0  0  0  0  0
   23.0841  -19.3510  -15.4327 C   0  0  0  0  0  0  0  0  0  0  0  0
   22.5706  -20.3979  -14.9887 O   0  0  0  0  0  0  0  0  0  0  0  0
   25.5938  -20.3327  -14.2813 C   0  0  0  0  0  0  0  0  0  0  0  0
   26.2109  -21.3507  -14.6650 O   0  0  0  0  0  0  0  0  0  0  0  0
   22.3356  -18.1444  -15.2871 O   0  0  0  0  0  0  0  0  0  0  0  0
   24.9597  -20.4090  -13.0106 N   0  0  0  0  0  0  0  0  0  0  0  0
   24.9204  -21.5914  -12.1725 C   0  0  1  0  0  0  0  0  0  0  0  0
   26.1424  -21.7587  -11.3491 C   0  0  0  0  0  0  0  0  0  0  0  0
   26.2466  -20.9874  -10.1224 C   0  0  0  0  0  0  0  0  0  0  0  0
   25.1796  -20.3111   -9.5353 C   0  0  0  0  0  0  0  0  0  0  0  0
   25.5821  -19.7195   -8.3985 N   0  0  0  0  0  0  0  0  0  0  0  0
   26.8971  -19.9971   -8.2320 C   0  0  0  0  0  0  0  0  0  0  0  0
   27.7562  -19.6230   -7.2453 C   0  0  0  0  0  0  0  0  0  0  0  0
   29.0826  -20.0124   -7.2687 C   0  0  0  0  0  0  0  0  0  0  0  0
   29.5212  -20.7930   -8.3199 C   0  0  0  0  0  0  0  0  0  0  0  0
   28.6538  -21.1740   -9.3211 C   0  0  0  0  0  0  0  0  0  0  0  0
   27.3146  -20.7838   -9.2999 C   0  0  0  0  0  0  0  0  0  0  0  0
   23.6238  -21.8412  -11.5551 C   0  0  0  0  0  0  0  0  0  0  0  0
   22.6769  -20.8302  -11.4889 O   0  0  0  0  0  0  0  0  0  0  0  0
   23.2744  -22.9457  -11.0573 O   0  0  0  0  0  0  0  0  0  0  0  0
  2  1  1  6
  3  2  1  0
  3  4  1  0
  4  5  2  0
  5  6  1  0
  7  6  1  0
  8  4  1  0
  8  7  2  0
  9  2  1  0
  9 10  2  0
 11  9  1  0
 12 11  1  0
 12 13  1  6
 14 13  1  0
 15 14  2  0
 16 19  1  0
 16 12  1  0
 17 16  2  0
 18 14  1  0
 20 19  1  0
 20 31  1  0
 21 22  1  0
 20 21  1  1
 22 30  1  0
 22 23  2  0
 23 24  1  0
 25 26  2  0
 25 24  1  0
 27 26  1  0
 28 27  2  0
 29 28  1  0
 29 30  2  0
 30 25  1  0
 31 32  1  0
 33 31  2  0
M  END
$$$$
