HDW.pdb
     RDKit          3D

 33 35  0  0  1  0  0  0  0  0999 V2000
   28.3457  -16.3443  -18.1679 N   0  0  0  0  0  0  0  0  0  0  0  0
   28.6715  -17.7135  -17.6736 C   0  0  1  0  0  0  0  0  0  0  0  0
   30.0684  -17.5782  -17.1321 C   0  0  0  0  0  0  0  0  0  0  0  0
   31.1282  -17.4444  -18.1242 C   0  0  0  0  0  0  0  0  0  0  0  0
   31.5727  -18.5616  -18.8500 C   0  0  0  0  0  0  0  0  0  0  0  0
   32.5398  -18.1582  -19.6815 N   0  0  0  0  0  0  0  0  0  0  0  0
   32.7123  -16.8149  -19.4941 C   0  0  0  0  0  0  0  0  0  0  0  0
   31.8577  -16.4178  -18.5606 N   0  0  0  0  0  0  0  0  0  0  0  0
   27.7335  -17.9629  -16.5511 C   0  0  0  0  0  0  0  0  0  0  0  0
   27.8371  -17.1588  -15.5560 O   0  0  0  0  0  0  0  0  0  0  0  0
   26.7581  -18.9896  -16.5058 N   0  0  0  0  0  0  0  0  0  0  0  0
   25.8479  -18.9838  -15.3573 C   0  0  1  0  0  0  0  0  0  0  0  0
   24.4563  -18.8230  -15.9275 C   0  0  0  0  0  0  0  0  0  0  0  0
   23.3661  -18.9411  -14.9529 C   0  0  0  0  0  0  0  0  0  0  0  0
   22.3685  -19.6862  -15.0321 O   0  0  0  0  0  0  0  0  0  0  0  0
   25.9402  -20.2423  -14.5993 C   0  0  0  0  0  0  0  0  0  0  0  0
   26.0115  -21.3146  -15.2392 O   0  0  0  0  0  0  0  0  0  0  0  0
   23.4702  -18.1107  -13.7966 O   0  0  0  0  0  0  0  0  0  0  0  0
   25.9574  -20.3405  -13.1806 N   0  0  0  0  0  0  0  0  0  0  0  0
   25.8198  -21.5748  -12.4326 C   0  0  1  0  0  0  0  0  0  0  0  0
   26.8437  -21.7255  -11.3703 C   0  0  0  0  0  0  0  0  0  0  0  0
   26.6101  -21.0582  -10.1013 C   0  0  0  0  0  0  0  0  0  0  0  0
   25.3643  -20.5962   -9.6825 C   0  0  0  0  0  0  0  0  0  0  0  0
   25.4647  -20.0554   -8.4571 N   0  0  0  0  0  0  0  0  0  0  0  0
   26.7576  -20.1551   -8.0665 C   0  0  0  0  0  0  0  0  0  0  0  0
   27.3620  -19.7500   -6.9167 C   0  0  0  0  0  0  0  0  0  0  0  0
   28.7166  -19.9416   -6.7169 C   0  0  0  0  0  0  0  0  0  0  0  0
   29.4487  -20.5557   -7.7138 C   0  0  0  0  0  0  0  0  0  0  0  0
   28.8398  -20.9675   -8.8799 C   0  0  0  0  0  0  0  0  0  0  0  0
   27.4730  -20.7767   -9.0840 C   0  0  0  0  0  0  0  0  0  0  0  0
   24.4410  -21.9368  -12.1286 C   0  0  0  0  0  0  0  0  0  0  0  0
   24.0808  -23.2706  -12.0082 O   0  0  0  0  0  0  0  0  0  0  0  0
   23.5091  -21.1051  -11.9560 O   0  0  0  0  0  0  0  0  0  0  0  0
  2  1  1  1
  3  2  1  0
  3  4  1  0
  4  5  2  0
  5  6  1  0
  7  6  1  0
  8  4  1  0
  8  7  2  0
  9  2  1  0
  9 10  2  0
 11  9  1  0
 12 11  1  0
 12 13  1  6
 14 13  1  0
 15 14  2  0
 16 19  1  0
 16 12  1  0
 17 16  2  0
 18 14  1  0
 20 19  1  0
 20 31  1  0
 21 22  1  0
 20 21  1  1
 22 30  1  0
 22 23  2  0
 23 24  1  0
 25 26  2  0
 25 24  1  0
 27 26  1  0
 28 27  2  0
 29 28  1  0
 29 30  2  0
 30 25  1  0
 31 32  1  0
 33 31  2  0
M  END
$$$$
