HDW.pdb
     RDKit          3D

 33 35  0  0  1  0  0  0  0  0999 V2000
   28.2404  -20.2516  -19.0097 N   0  0  0  0  0  0  0  0  0  0  0  0
   28.6557  -20.8449  -17.7056 C   0  0  1  0  0  0  0  0  0  0  0  0
   29.9614  -20.1635  -17.3992 C   0  0  0  0  0  0  0  0  0  0  0  0
   31.1221  -20.6444  -18.1387 C   0  0  0  0  0  0  0  0  0  0  0  0
   31.4734  -22.0040  -18.1119 C   0  0  0  0  0  0  0  0  0  0  0  0
   32.5651  -22.1654  -18.8679 N   0  0  0  0  0  0  0  0  0  0  0  0
   32.9067  -20.9395  -19.3677 C   0  0  0  0  0  0  0  0  0  0  0  0
   32.0291  -20.0533  -18.9162 N   0  0  0  0  0  0  0  0  0  0  0  0
   27.6319  -20.4040  -16.7261 C   0  0  0  0  0  0  0  0  0  0  0  0
   27.4837  -19.1337  -16.6163 O   0  0  0  0  0  0  0  0  0  0  0  0
   26.8275  -21.2602  -15.9341 N   0  0  0  0  0  0  0  0  0  0  0  0
   25.7934  -20.6218  -15.1150 C   0  0  1  0  0  0  0  0  0  0  0  0
   24.4976  -20.7814  -15.8786 C   0  0  0  0  0  0  0  0  0  0  0  0
   23.3196  -20.1862  -15.2380 C   0  0  0  0  0  0  0  0  0  0  0  0
   23.3020  -19.4891  -14.2033 O   0  0  0  0  0  0  0  0  0  0  0  0
   25.6851  -21.2679  -13.7968 C   0  0  0  0  0  0  0  0  0  0  0  0
   26.2360  -22.3791  -13.6354 O   0  0  0  0  0  0  0  0  0  0  0  0
   22.0681  -20.4386  -15.8760 O   0  0  0  0  0  0  0  0  0  0  0  0
   24.9983  -20.7245  -12.6762 N   0  0  0  0  0  0  0  0  0  0  0  0
   24.8835  -21.3673  -11.3818 C   0  0  1  0  0  0  0  0  0  0  0  0
   26.1985  -21.6758  -10.7695 C   0  0  0  0  0  0  0  0  0  0  0  0
   26.6160  -20.8880   -9.6225 C   0  0  0  0  0  0  0  0  0  0  0  0
   25.7890  -19.9885   -8.9535 C   0  0  0  0  0  0  0  0  0  0  0  0
   26.4497  -19.4399   -7.9207 N   0  0  0  0  0  0  0  0  0  0  0  0
   27.6976  -19.9658   -7.9029 C   0  0  0  0  0  0  0  0  0  0  0  0
   28.7398  -19.7273   -7.0612 C   0  0  0  0  0  0  0  0  0  0  0  0
   29.9513  -20.3731   -7.2250 C   0  0  0  0  0  0  0  0  0  0  0  0
   30.0837  -21.2701   -8.2664 C   0  0  0  0  0  0  0  0  0  0  0  0
   29.0301  -21.5142   -9.1210 C   0  0  0  0  0  0  0  0  0  0  0  0
   27.8061  -20.8652   -8.9578 C   0  0  0  0  0  0  0  0  0  0  0  0
   23.8316  -20.8184  -10.5352 C   0  0  0  0  0  0  0  0  0  0  0  0
   23.4251  -21.5002   -9.3980 O   0  0  0  0  0  0  0  0  0  0  0  0
   23.2364  -19.7292  -10.7568 O   0  0  0  0  0  0  0  0  0  0  0  0
  2  1  1  6
  3  2  1  0
  3  4  1  0
  4  5  2  0
  5  6  1  0
  7  6  1  0
  8  4  1  0
  8  7  2  0
  9  2  1  0
  9 10  2  0
 11  9  1  0
 12 11  1  0
 12 13  1  6
 14 13  1  0
 15 14  2  0
 16 19  1  0
 16 12  1  0
 17 16  2  0
 18 14  1  0
 20 19  1  0
 20 31  1  0
 21 22  1  0
 20 21  1  1
 22 30  1  0
 22 23  2  0
 23 24  1  0
 25 26  2  0
 25 24  1  0
 27 26  1  0
 28 27  2  0
 29 28  1  0
 29 30  2  0
 30 25  1  0
 31 32  1  0
 33 31  2  0
M  END
$$$$
