HDW.pdb
     RDKit          3D

 33 35  0  0  1  0  0  0  0  0999 V2000
   22.1090  -20.1151  -15.6822 N   0  0  0  0  0  0  0  0  0  0  0  0
   23.3178  -20.7098  -15.0417 C   0  0  1  0  0  0  0  0  0  0  0  0
   24.4599  -19.9303  -15.6342 C   0  0  0  0  0  0  0  0  0  0  0  0
   25.6670  -20.6917  -15.9314 C   0  0  0  0  0  0  0  0  0  0  0  0
   26.3716  -21.3432  -14.9060 C   0  0  0  0  0  0  0  0  0  0  0  0
   27.4257  -21.9588  -15.4529 N   0  0  0  0  0  0  0  0  0  0  0  0
   27.3990  -21.7084  -16.7968 C   0  0  0  0  0  0  0  0  0  0  0  0
   26.3402  -20.9513  -17.0521 N   0  0  0  0  0  0  0  0  0  0  0  0
   23.2010  -20.3860  -13.5982 C   0  0  0  0  0  0  0  0  0  0  0  0
   23.1756  -19.1347  -13.3134 O   0  0  0  0  0  0  0  0  0  0  0  0
   23.1114  -21.3316  -12.5469 N   0  0  0  0  0  0  0  0  0  0  0  0
   23.3076  -20.8247  -11.1860 C   0  0  1  0  0  0  0  0  0  0  0  0
   22.5140  -21.7400  -10.2805 C   0  0  0  0  0  0  0  0  0  0  0  0
   22.3367  -21.2568   -8.9066 C   0  0  0  0  0  0  0  0  0  0  0  0
   22.6645  -20.1397   -8.4578 O   0  0  0  0  0  0  0  0  0  0  0  0
   24.7301  -20.8511  -10.8086 C   0  0  0  0  0  0  0  0  0  0  0  0
   25.2267  -21.9412  -10.4489 O   0  0  0  0  0  0  0  0  0  0  0  0
   21.7232  -22.1707   -7.9981 O   0  0  0  0  0  0  0  0  0  0  0  0
   25.5984  -19.7248  -10.8215 N   0  0  0  0  0  0  0  0  0  0  0  0
   26.9628  -19.7233  -10.3312 C   0  0  1  0  0  0  0  0  0  0  0  0
   27.0657  -19.3258   -8.9061 C   0  0  0  0  0  0  0  0  0  0  0  0
   27.9992  -20.0530   -8.0632 C   0  0  0  0  0  0  0  0  0  0  0  0
   28.8559  -21.0479   -8.5288 C   0  0  0  0  0  0  0  0  0  0  0  0
   29.6149  -21.5075   -7.5204 N   0  0  0  0  0  0  0  0  0  0  0  0
   29.2681  -20.8294   -6.4005 C   0  0  0  0  0  0  0  0  0  0  0  0
   29.7397  -20.9339   -5.1285 C   0  0  0  0  0  0  0  0  0  0  0  0
   29.2359  -20.1417   -4.1135 C   0  0  0  0  0  0  0  0  0  0  0  0
   28.2381  -19.2370   -4.4181 C   0  0  0  0  0  0  0  0  0  0  0  0
   27.7580  -19.1283   -5.7056 C   0  0  0  0  0  0  0  0  0  0  0  0
   28.2650  -19.9253   -6.7321 C   0  0  0  0  0  0  0  0  0  0  0  0
   27.7665  -20.8442  -10.8024 C   0  0  0  0  0  0  0  0  0  0  0  0
   29.1136  -20.9197  -10.4814 O   0  0  0  0  0  0  0  0  0  0  0  0
   27.3218  -21.7924  -11.5046 O   0  0  0  0  0  0  0  0  0  0  0  0
  2  1  1  6
  3  2  1  0
  3  4  1  0
  4  5  2  0
  5  6  1  0
  7  6  1  0
  8  4  1  0
  8  7  2  0
  9  2  1  0
  9 10  2  0
 11  9  1  0
 12 11  1  0
 12 13  1  1
 14 13  1  0
 15 14  2  0
 16 19  1  0
 16 12  1  0
 17 16  2  0
 18 14  1  0
 20 19  1  0
 20 31  1  0
 21 22  1  0
 20 21  1  1
 22 30  1  0
 22 23  2  0
 23 24  1  0
 25 26  2  0
 25 24  1  0
 27 26  1  0
 28 27  2  0
 29 28  1  0
 29 30  2  0
 30 25  1  0
 31 32  1  0
 33 31  2  0
M  END
$$$$
