MGA.pdb
     RDKit          3D

 18 17  0  0  1  0  0  0  0  0999 V2000
    6.1035  -10.5681   25.4508 C   0  0  0  0  0  0  0  0  0  0  0  0
    5.5411  -12.0767   26.2219 S   0  0  0  0  0  0  0  0  0  0  0  0
    5.8258  -13.5560   25.3145 C   0  0  0  0  0  0  0  0  0  0  0  0
    7.1018  -14.3022   25.4747 C   0  0  0  0  0  0  0  0  0  0  0  0
    7.6516  -14.9017   24.2493 C   0  0  2  0  0  0  0  0  0  0  0  0
    6.9164  -16.0938   23.9041 N   0  0  0  0  0  0  0  0  0  0  0  0
    9.0859  -15.2692   24.3482 C   0  0  0  0  0  0  0  0  0  0  0  0
    9.9834  -14.3896   24.3315 O   0  0  0  0  0  0  0  0  0  0  0  0
    9.5396  -16.6228   24.4673 N   0  0  0  0  0  0  0  0  0  0  0  0
   10.9223  -16.9855   24.5061 C   0  0  0  0  0  0  0  0  0  0  0  0
   11.5587  -16.7353   25.8235 C   0  0  0  0  0  0  0  0  0  0  0  0
   12.7614  -16.9742   26.0470 O   0  0  0  0  0  0  0  0  0  0  0  0
   10.6240  -14.6867   28.7018 C   0  0  0  0  0  0  0  0  0  0  0  0
   11.2365  -15.9734   28.1783 C   0  0  2  0  0  0  0  0  0  0  0  0
   10.7243  -16.1998   26.8454 N   0  0  0  0  0  0  0  0  0  0  0  0
   10.8708  -17.1282   29.0152 C   0  0  0  0  0  0  0  0  0  0  0  0
   11.3357  -17.3253   30.1670 O   0  0  0  0  0  0  0  0  0  0  0  0
    9.9670  -18.0580   28.5221 O   0  0  0  0  0  0  0  0  0  0  0  0
  2  1  1  0
  3  2  1  0
  4  3  1  0
  5  4  1  0
  5  6  1  1
  7  8  2  0
  7  5  1  0
  9  7  1  0
 10 11  1  0
 10  9  1  0
 11 15  1  0
 12 11  2  0
 14 13  1  1
 14 16  1  0
 15 14  1  0
 16 17  2  0
 16 18  1  0
M  END
$$$$
