MGA.pdb
     RDKit          3D

 18 17  0  0  1  0  0  0  0  0999 V2000
    6.5220  -11.1515   26.3218 C   0  0  0  0  0  0  0  0  0  0  0  0
    5.8283  -12.7839   26.1204 S   0  0  0  0  0  0  0  0  0  0  0  0
    6.6849  -13.8521   25.0167 C   0  0  0  0  0  0  0  0  0  0  0  0
    7.4870  -13.2904   23.8979 C   0  0  0  0  0  0  0  0  0  0  0  0
    8.1883  -14.2720   23.0566 C   0  0  2  0  0  0  0  0  0  0  0  0
    7.2709  -15.2911   22.6088 N   0  0  0  0  0  0  0  0  0  0  0  0
    9.3196  -14.9506   23.7363 C   0  0  0  0  0  0  0  0  0  0  0  0
   10.1949  -14.2922   24.3526 O   0  0  0  0  0  0  0  0  0  0  0  0
    9.4905  -16.3729   23.7384 N   0  0  0  0  0  0  0  0  0  0  0  0
    9.4152  -17.1697   24.9234 C   0  0  0  0  0  0  0  0  0  0  0  0
   10.4194  -16.7930   25.9496 C   0  0  0  0  0  0  0  0  0  0  0  0
   11.6014  -17.1866   25.9120 O   0  0  0  0  0  0  0  0  0  0  0  0
   10.2144  -14.4699   28.8753 C   0  0  0  0  0  0  0  0  0  0  0  0
   10.8319  -15.6337   28.1210 C   0  0  2  0  0  0  0  0  0  0  0  0
    9.9709  -15.9457   27.0023 N   0  0  0  0  0  0  0  0  0  0  0  0
   10.9406  -16.8330   28.9680 C   0  0  0  0  0  0  0  0  0  0  0  0
   10.2296  -17.8587   28.8132 O   0  0  0  0  0  0  0  0  0  0  0  0
   11.8716  -16.8490   29.9965 O   0  0  0  0  0  0  0  0  0  0  0  0
  2  1  1  0
  3  2  1  0
  4  3  1  0
  5  4  1  0
  5  6  1  1
  7  8  2  0
  7  5  1  0
  9  7  1  0
 10 11  1  0
 10  9  1  0
 11 15  1  0
 12 11  2  0
 14 13  1  1
 14 16  1  0
 15 14  1  0
 16 17  2  0
 16 18  1  0
M  END
$$$$
