MGA.pdb
     RDKit          3D

 18 17  0  0  1  0  0  0  0  0999 V2000
    7.2974  -11.6110   19.0291 C   0  0  0  0  0  0  0  0  0  0  0  0
    8.2411  -12.9208   19.7910 S   0  0  0  0  0  0  0  0  0  0  0  0
    7.3057  -14.2407   20.4808 C   0  0  0  0  0  0  0  0  0  0  0  0
    7.9914  -15.3841   21.1391 C   0  0  0  0  0  0  0  0  0  0  0  0
    7.1123  -16.4197   21.7029 C   0  0  2  0  0  0  0  0  0  0  0  0
    5.7812  -16.2928   21.1617 N   0  0  0  0  0  0  0  0  0  0  0  0
    7.0034  -16.3790   23.1823 C   0  0  0  0  0  0  0  0  0  0  0  0
    6.1603  -15.6402   23.7505 O   0  0  0  0  0  0  0  0  0  0  0  0
    7.8332  -17.1617   24.0489 N   0  0  0  0  0  0  0  0  0  0  0  0
    7.8669  -16.9894   25.4681 C   0  0  0  0  0  0  0  0  0  0  0  0
    9.0484  -16.2243   25.9393 C   0  0  0  0  0  0  0  0  0  0  0  0
   10.1737  -16.3318   25.4144 O   0  0  0  0  0  0  0  0  0  0  0  0
    9.4209  -13.3869   28.2973 C   0  0  0  0  0  0  0  0  0  0  0  0
    9.9545  -14.6549   27.6554 C   0  0  2  0  0  0  0  0  0  0  0  0
    8.8427  -15.3431   27.0385 N   0  0  0  0  0  0  0  0  0  0  0  0
   10.5585  -15.5549   28.6518 C   0  0  0  0  0  0  0  0  0  0  0  0
   10.0331  -16.6372   29.0182 O   0  0  0  0  0  0  0  0  0  0  0  0
   11.7715  -15.2053   29.2273 O   0  0  0  0  0  0  0  0  0  0  0  0
  2  1  1  0
  3  2  1  0
  4  3  1  0
  5  4  1  0
  5  6  1  6
  7  8  2  0
  7  5  1  0
  9  7  1  0
 10 11  1  0
 10  9  1  0
 11 15  1  0
 12 11  2  0
 14 13  1  1
 14 16  1  0
 15 14  1  0
 16 17  2  0
 16 18  1  0
M  END
$$$$
