MGA.pdb
     RDKit          3D

 18 17  0  0  1  0  0  0  0  0999 V2000
    6.6276  -11.0826   26.6766 C   0  0  0  0  0  0  0  0  0  0  0  0
    5.9151  -12.6317   26.1482 S   0  0  0  0  0  0  0  0  0  0  0  0
    6.7367  -13.4425   24.8213 C   0  0  0  0  0  0  0  0  0  0  0  0
    6.2847  -14.7833   24.3645 C   0  0  0  0  0  0  0  0  0  0  0  0
    7.1676  -15.9083   24.7082 C   0  0  2  0  0  0  0  0  0  0  0  0
    7.5130  -15.8617   26.1080 N   0  0  0  0  0  0  0  0  0  0  0  0
    8.4322  -15.9419   23.9324 C   0  0  0  0  0  0  0  0  0  0  0  0
    8.6245  -16.8086   23.0429 O   0  0  0  0  0  0  0  0  0  0  0  0
    9.5000  -15.0093   24.1377 N   0  0  0  0  0  0  0  0  0  0  0  0
   10.8816  -15.3698   24.0587 C   0  0  0  0  0  0  0  0  0  0  0  0
   11.4757  -15.7122   25.3752 C   0  0  0  0  0  0  0  0  0  0  0  0
   12.6488  -16.1141   25.5009 O   0  0  0  0  0  0  0  0  0  0  0  0
   10.6040  -14.5059   28.6669 C   0  0  0  0  0  0  0  0  0  0  0  0
   11.1767  -15.6518   27.8523 C   0  0  2  0  0  0  0  0  0  0  0  0
   10.6357  -15.5606   26.5147 N   0  0  0  0  0  0  0  0  0  0  0  0
   10.7992  -16.9591   28.4145 C   0  0  0  0  0  0  0  0  0  0  0  0
   10.0000  -17.7513   27.8530 O   0  0  0  0  0  0  0  0  0  0  0  0
   11.3446  -17.3533   29.6277 O   0  0  0  0  0  0  0  0  0  0  0  0
  2  1  1  0
  3  2  1  0
  4  3  1  0
  5  4  1  0
  5  6  1  1
  7  8  2  0
  7  5  1  0
  9  7  1  0
 10 11  1  0
 10  9  1  0
 11 15  1  0
 12 11  2  0
 14 13  1  1
 14 16  1  0
 15 14  1  0
 16 17  2  0
 16 18  1  0
M  END
$$$$
