MGA.pdb
     RDKit          3D

 18 17  0  0  1  0  0  0  0  0999 V2000
    6.9519  -10.8138   27.7601 C   0  0  0  0  0  0  0  0  0  0  0  0
    6.1038  -12.1753   26.9768 S   0  0  0  0  0  0  0  0  0  0  0  0
    7.1199  -13.5058   26.4381 C   0  0  0  0  0  0  0  0  0  0  0  0
    6.5092  -14.7294   25.8544 C   0  0  0  0  0  0  0  0  0  0  0  0
    7.4531  -15.7566   25.3884 C   0  0  2  0  0  0  0  0  0  0  0  0
    8.7665  -15.5104   25.9316 N   0  0  0  0  0  0  0  0  0  0  0  0
    7.5825  -15.8320   23.9120 C   0  0  0  0  0  0  0  0  0  0  0  0
    6.7295  -16.4386   23.2163 O   0  0  0  0  0  0  0  0  0  0  0  0
    8.6649  -15.2318   23.1906 N   0  0  0  0  0  0  0  0  0  0  0  0
    8.8212  -15.3457   21.7737 C   0  0  0  0  0  0  0  0  0  0  0  0
   10.0094  -16.1413   21.3757 C   0  0  0  0  0  0  0  0  0  0  0  0
   10.3113  -16.3514   20.1848 O   0  0  0  0  0  0  0  0  0  0  0  0
   13.2047  -16.6803   22.5121 C   0  0  0  0  0  0  0  0  0  0  0  0
   11.9689  -17.4820   22.1448 C   0  0  2  0  0  0  0  0  0  0  0  0
   10.8092  -16.6671   22.4297 N   0  0  0  0  0  0  0  0  0  0  0  0
   11.8694  -18.7191   22.9369 C   0  0  0  0  0  0  0  0  0  0  0  0
   11.0138  -18.8970   23.8413 O   0  0  0  0  0  0  0  0  0  0  0  0
   12.7592  -19.7532   22.6854 O   0  0  0  0  0  0  0  0  0  0  0  0
  2  1  1  0
  3  2  1  0
  4  3  1  0
  5  4  1  0
  5  6  1  1
  7  8  2  0
  7  5  1  0
  9  7  1  0
 10 11  1  0
 10  9  1  0
 11 15  1  0
 12 11  2  0
 14 13  1  1
 14 16  1  0
 15 14  1  0
 16 17  2  0
 16 18  1  0
M  END
$$$$
