MGA.pdb
     RDKit          3D

 18 17  0  0  1  0  0  0  0  0999 V2000
    6.6751  -10.8596   26.4986 C   0  0  0  0  0  0  0  0  0  0  0  0
    5.4765  -12.1615   26.2639 S   0  0  0  0  0  0  0  0  0  0  0  0
    6.0635  -13.6103   25.4580 C   0  0  0  0  0  0  0  0  0  0  0  0
    7.2111  -13.5336   24.5158 C   0  0  0  0  0  0  0  0  0  0  0  0
    7.5548  -14.7839   23.8217 C   0  0  2  0  0  0  0  0  0  0  0  0
    6.8151  -15.8867   24.3852 N   0  0  0  0  0  0  0  0  0  0  0  0
    8.9965  -15.1306   23.8812 C   0  0  0  0  0  0  0  0  0  0  0  0
    9.8751  -14.3188   23.4959 O   0  0  0  0  0  0  0  0  0  0  0  0
    9.4786  -16.3873   24.3715 N   0  0  0  0  0  0  0  0  0  0  0  0
   10.8606  -16.7545   24.3614 C   0  0  0  0  0  0  0  0  0  0  0  0
   11.5392  -16.5250   25.6615 C   0  0  0  0  0  0  0  0  0  0  0  0
   12.7243  -16.8501   25.8696 O   0  0  0  0  0  0  0  0  0  0  0  0
   10.6826  -14.4452   28.5840 C   0  0  0  0  0  0  0  0  0  0  0  0
   11.3178  -15.6968   28.0055 C   0  0  2  0  0  0  0  0  0  0  0  0
   10.7673  -15.9054   26.6850 N   0  0  0  0  0  0  0  0  0  0  0  0
   11.0189  -16.8844   28.8227 C   0  0  0  0  0  0  0  0  0  0  0  0
   10.2367  -17.7990   28.4577 O   0  0  0  0  0  0  0  0  0  0  0  0
   11.6236  -17.0171   30.0643 O   0  0  0  0  0  0  0  0  0  0  0  0
  2  1  1  0
  3  2  1  0
  4  3  1  0
  5  4  1  0
  5  6  1  1
  7  8  2  0
  7  5  1  0
  9  7  1  0
 10 11  1  0
 10  9  1  0
 11 15  1  0
 12 11  2  0
 14 13  1  1
 14 16  1  0
 15 14  1  0
 16 17  2  0
 16 18  1  0
M  END
$$$$
