MGA.pdb
     RDKit          3D

 18 17  0  0  1  0  0  0  0  0999 V2000
    6.0115  -11.1679   26.0320 C   0  0  0  0  0  0  0  0  0  0  0  0
    6.4317  -12.6700   26.9002 S   0  0  0  0  0  0  0  0  0  0  0  0
    6.3017  -14.1571   25.9704 C   0  0  0  0  0  0  0  0  0  0  0  0
    6.4834  -14.1392   24.4948 C   0  0  0  0  0  0  0  0  0  0  0  0
    7.0531  -15.3600   23.9046 C   0  0  2  0  0  0  0  0  0  0  0  0
    6.6538  -16.5166   24.6686 N   0  0  0  0  0  0  0  0  0  0  0  0
    8.5351  -15.3589   23.8291 C   0  0  0  0  0  0  0  0  0  0  0  0
    9.1559  -14.4133   23.2815 O   0  0  0  0  0  0  0  0  0  0  0  0
    9.3457  -16.4124   24.3633 N   0  0  0  0  0  0  0  0  0  0  0  0
   10.7736  -16.4185   24.2864 C   0  0  0  0  0  0  0  0  0  0  0  0
   11.4331  -16.1115   25.5803 C   0  0  0  0  0  0  0  0  0  0  0  0
   12.6389  -16.3440   25.7938 O   0  0  0  0  0  0  0  0  0  0  0  0
   10.5318  -13.9484   28.3919 C   0  0  0  0  0  0  0  0  0  0  0  0
   11.1527  -15.2450   27.9040 C   0  0  2  0  0  0  0  0  0  0  0  0
   10.6177  -15.5279   26.5910 N   0  0  0  0  0  0  0  0  0  0  0  0
   10.8207  -16.3728   28.7902 C   0  0  0  0  0  0  0  0  0  0  0  0
   11.2575  -16.4847   29.9642 O   0  0  0  0  0  0  0  0  0  0  0  0
    9.9831  -17.3742   28.3209 O   0  0  0  0  0  0  0  0  0  0  0  0
  2  1  1  0
  3  2  1  0
  4  3  1  0
  5  4  1  0
  5  6  1  1
  7  8  2  0
  7  5  1  0
  9  7  1  0
 10 11  1  0
 10  9  1  0
 11 15  1  0
 12 11  2  0
 14 13  1  1
 14 16  1  0
 15 14  1  0
 16 17  2  0
 16 18  1  0
M  END
$$$$
