EVN.pdb
     RDKit          3D

 25 24  0  0  1  0  0  0  0  0999 V2000
   19.3162  -13.4734  -16.6196 N   0  0  0  0  0  0  0  0  0  0  0  0
   19.5730  -12.1177  -17.1300 C   0  0  1  0  0  0  0  0  0  0  0  0
   18.3051  -11.5413  -17.6906 C   0  0  0  0  0  0  0  0  0  0  0  0
   17.4688  -12.5591  -18.4168 C   0  0  0  0  0  0  0  0  0  0  0  0
   16.2548  -11.8998  -19.0033 C   0  0  0  0  0  0  0  0  0  0  0  0
   16.1060  -10.6606  -18.8987 O   0  0  0  0  0  0  0  0  0  0  0  0
   20.0456  -11.3305  -15.9732 C   0  0  0  0  0  0  0  0  0  0  0  0
   19.5184  -11.4289  -14.8372 O   0  0  0  0  0  0  0  0  0  0  0  0
   15.3267  -12.6735  -19.6463 O   0  0  0  0  0  0  0  0  0  0  0  0
   23.1359  -11.5337  -14.2845 C   0  0  0  0  0  0  0  0  0  0  0  0
   23.0347  -10.1003  -14.7024 C   0  0  1  0  0  0  0  0  0  0  0  0
   23.9686   -9.8102  -15.8279 C   0  0  0  0  0  0  0  0  0  0  0  0
   21.6137   -9.6413  -14.9332 C   0  0  2  0  0  0  0  0  0  0  0  0
   21.1452  -10.4051  -16.1014 N   0  0  0  0  0  0  0  0  0  0  0  0
   21.4902   -8.2119  -15.2658 C   0  0  0  0  0  0  0  0  0  0  0  0
   21.7665   -7.7865  -16.4415 O   0  0  0  0  0  0  0  0  0  0  0  0
   20.6975   -2.9653  -15.3299 N   0  0  0  0  0  0  0  0  0  0  0  0
   19.5913   -3.7952  -15.0139 C   0  0  0  0  0  0  0  0  0  0  0  0
   18.4729   -3.2241  -15.0151 O   0  0  0  0  0  0  0  0  0  0  0  0
   19.6620   -5.2145  -14.6993 C   0  0  0  0  0  0  0  0  0  0  0  0
   21.0550   -5.7890  -14.7028 C   0  0  2  0  0  0  0  0  0  0  0  0
   21.0711   -7.1985  -14.3627 N   0  0  0  0  0  0  0  0  0  0  0  0
   21.9918   -5.0064  -13.8678 C   0  0  0  0  0  0  0  0  0  0  0  0
   22.6032   -5.5599  -12.7640 O   0  0  0  0  0  0  0  0  0  0  0  0
   22.2357   -3.8190  -14.1667 O   0  0  0  0  0  0  0  0  0  0  0  0
  2  1  1  1
  2  3  1  0
  4  3  1  0
  5  9  1  0
  5  4  1  0
  6  5  2  0
  7  2  1  0
  7  8  2  0
 11 10  1  6
 11 13  1  0
 12 11  1  0
 13 14  1  6
 14  7  1  0
 15 16  2  0
 15 13  1  0
 18 19  2  0
 18 17  1  0
 20 18  1  0
 21 22  1  0
 21 20  1  1
 22 15  1  0
 23 21  1  0
 24 23  1  0
 25 23  2  0
M  END
$$$$
