EVN.pdb
     RDKit          3D

 25 24  0  0  1  0  0  0  0  0999 V2000
   19.1430  -13.0749  -16.5624 N   0  0  0  0  0  0  0  0  0  0  0  0
   19.2766  -11.6918  -17.0456 C   0  0  1  0  0  0  0  0  0  0  0  0
   17.9201  -11.1402  -17.3772 C   0  0  0  0  0  0  0  0  0  0  0  0
   16.8085  -11.8323  -16.6369 C   0  0  0  0  0  0  0  0  0  0  0  0
   15.4988  -11.1641  -16.9385 C   0  0  0  0  0  0  0  0  0  0  0  0
   14.7677  -10.7721  -16.0000 O   0  0  0  0  0  0  0  0  0  0  0  0
   19.9002  -10.9339  -15.9419 C   0  0  0  0  0  0  0  0  0  0  0  0
   19.4841  -11.0108  -14.7591 O   0  0  0  0  0  0  0  0  0  0  0  0
   15.1270  -10.9953  -18.2448 O   0  0  0  0  0  0  0  0  0  0  0  0
   23.1965  -11.3160  -14.6405 C   0  0  0  0  0  0  0  0  0  0  0  0
   23.0927   -9.8754  -15.0324 C   0  0  1  0  0  0  0  0  0  0  0  0
   23.8693   -9.6084  -16.2768 C   0  0  0  0  0  0  0  0  0  0  0  0
   21.6721   -9.3613  -15.0581 C   0  0  2  0  0  0  0  0  0  0  0  0
   21.0265  -10.0637  -16.1794 N   0  0  0  0  0  0  0  0  0  0  0  0
   21.5602   -7.9169  -15.3230 C   0  0  0  0  0  0  0  0  0  0  0  0
   21.5472   -7.4699  -16.5228 O   0  0  0  0  0  0  0  0  0  0  0  0
   19.1170   -2.6468  -14.7055 N   0  0  0  0  0  0  0  0  0  0  0  0
   20.0191   -3.5677  -15.2977 C   0  0  0  0  0  0  0  0  0  0  0  0
   20.8130   -3.0778  -16.1382 O   0  0  0  0  0  0  0  0  0  0  0  0
   20.0846   -4.9924  -15.0072 C   0  0  0  0  0  0  0  0  0  0  0  0
   21.4537   -5.4923  -14.6252 C   0  0  2  0  0  0  0  0  0  0  0  0
   21.4590   -6.9109  -14.3250 N   0  0  0  0  0  0  0  0  0  0  0  0
   22.0653   -4.6938  -13.5409 C   0  0  0  0  0  0  0  0  0  0  0  0
   22.4735   -3.3944  -13.7494 O   0  0  0  0  0  0  0  0  0  0  0  0
   22.2163   -5.2050  -12.4119 O   0  0  0  0  0  0  0  0  0  0  0  0
  2  1  1  1
  2  3  1  0
  4  3  1  0
  5  9  1  0
  5  4  1  0
  6  5  2  0
  7  2  1  0
  7  8  2  0
 11 10  1  6
 11 13  1  0
 12 11  1  0
 13 14  1  6
 14  7  1  0
 15 16  2  0
 15 13  1  0
 18 19  2  0
 18 17  1  0
 20 18  1  0
 21 22  1  0
 21 20  1  1
 22 15  1  0
 23 21  1  0
 24 23  1  0
 25 23  2  0
M  END
$$$$
