EVN.pdb
     RDKit          3D

 25 24  0  0  1  0  0  0  0  0999 V2000
   19.3164  -13.2021  -16.9753 N   0  0  0  0  0  0  0  0  0  0  0  0
   19.7357  -11.8424  -17.3488 C   0  0  1  0  0  0  0  0  0  0  0  0
   18.5774  -11.1069  -17.9583 C   0  0  0  0  0  0  0  0  0  0  0  0
   18.1323  -11.6966  -19.2686 C   0  0  0  0  0  0  0  0  0  0  0  0
   16.9421  -10.9455  -19.7902 C   0  0  0  0  0  0  0  0  0  0  0  0
   16.9762  -10.4405  -20.9359 O   0  0  0  0  0  0  0  0  0  0  0  0
   20.1740  -11.1936  -16.0964 C   0  0  0  0  0  0  0  0  0  0  0  0
   19.5190  -11.2898  -15.0288 O   0  0  0  0  0  0  0  0  0  0  0  0
   15.8340  -10.8267  -18.9957 O   0  0  0  0  0  0  0  0  0  0  0  0
   23.2237  -11.5076  -14.0473 C   0  0  0  0  0  0  0  0  0  0  0  0
   23.1319  -10.0773  -14.4778 C   0  0  1  0  0  0  0  0  0  0  0  0
   24.1571   -9.7705  -15.5161 C   0  0  0  0  0  0  0  0  0  0  0  0
   21.7286   -9.6475  -14.8369 C   0  0  2  0  0  0  0  0  0  0  0  0
   21.3868  -10.4134  -16.0468 N   0  0  0  0  0  0  0  0  0  0  0  0
   21.6049   -8.2189  -15.1730 C   0  0  0  0  0  0  0  0  0  0  0  0
   21.8145   -7.8061  -16.3668 O   0  0  0  0  0  0  0  0  0  0  0  0
   20.7602   -2.9838  -15.2652 N   0  0  0  0  0  0  0  0  0  0  0  0
   19.7057   -3.9308  -15.3245 C   0  0  0  0  0  0  0  0  0  0  0  0
   18.5879   -3.4703  -15.6638 O   0  0  0  0  0  0  0  0  0  0  0  0
   19.8274   -5.3507  -15.0290 C   0  0  0  0  0  0  0  0  0  0  0  0
   21.2077   -5.7888  -14.6128 C   0  0  2  0  0  0  0  0  0  0  0  0
   21.2561   -7.1930  -14.2543 N   0  0  0  0  0  0  0  0  0  0  0  0
   21.7803   -4.9267  -13.5563 C   0  0  0  0  0  0  0  0  0  0  0  0
   22.1730   -3.6327  -13.8206 O   0  0  0  0  0  0  0  0  0  0  0  0
   21.9118   -5.3780  -12.3997 O   0  0  0  0  0  0  0  0  0  0  0  0
  2  1  1  1
  2  3  1  0
  4  3  1  0
  5  9  1  0
  5  4  1  0
  6  5  2  0
  7  2  1  0
  7  8  2  0
 11 10  1  6
 11 13  1  0
 12 11  1  0
 13 14  1  6
 14  7  1  0
 15 16  2  0
 15 13  1  0
 18 19  2  0
 18 17  1  0
 20 18  1  0
 21 22  1  0
 21 20  1  1
 22 15  1  0
 23 21  1  0
 24 23  1  0
 25 23  2  0
M  END
$$$$
