EVN.pdb
     RDKit          3D

 25 24  0  0  1  0  0  0  0  0999 V2000
   22.7469  -20.9556  -14.5491 N   0  0  0  0  0  0  0  0  0  0  0  0
   21.4348  -21.4387  -14.0919 C   0  0  1  0  0  0  0  0  0  0  0  0
   21.1515  -22.7816  -14.7007 C   0  0  0  0  0  0  0  0  0  0  0  0
   20.8975  -22.7123  -16.1817 C   0  0  0  0  0  0  0  0  0  0  0  0
   20.5200  -24.0692  -16.7004 C   0  0  0  0  0  0  0  0  0  0  0  0
   21.1891  -24.5938  -17.6201 O   0  0  0  0  0  0  0  0  0  0  0  0
   21.5265  -21.5338  -12.6208 C   0  0  0  0  0  0  0  0  0  0  0  0
   22.6158  -21.7421  -12.0309 O   0  0  0  0  0  0  0  0  0  0  0  0
   19.4425  -24.7112  -16.1526 O   0  0  0  0  0  0  0  0  0  0  0  0
   21.1916  -19.0728  -10.0505 C   0  0  0  0  0  0  0  0  0  0  0  0
   20.1111  -20.0839   -9.8271 C   0  0  1  0  0  0  0  0  0  0  0  0
   18.7985  -19.5719  -10.3151 C   0  0  0  0  0  0  0  0  0  0  0  0
   20.4692  -21.4648  -10.3249 C   0  0  2  0  0  0  0  0  0  0  0  0
   20.3550  -21.3895  -11.7908 N   0  0  0  0  0  0  0  0  0  0  0  0
   19.5542  -22.5246   -9.8679 C   0  0  0  0  0  0  0  0  0  0  0  0
   18.6296  -22.9675  -10.6348 O   0  0  0  0  0  0  0  0  0  0  0  0
   16.9595  -26.2688   -7.0886 N   0  0  0  0  0  0  0  0  0  0  0  0
   18.0975  -25.8017   -6.3821 C   0  0  0  0  0  0  0  0  0  0  0  0
   18.3069  -26.3546   -5.2742 O   0  0  0  0  0  0  0  0  0  0  0  0
   19.0073  -24.7613   -6.8383 C   0  0  0  0  0  0  0  0  0  0  0  0
   18.6247  -24.1241   -8.1491 C   0  0  2  0  0  0  0  0  0  0  0  0
   19.5960  -23.1412   -8.5888 N   0  0  0  0  0  0  0  0  0  0  0  0
   17.2508  -23.5771   -8.1324 C   0  0  0  0  0  0  0  0  0  0  0  0
   16.1622  -24.3617   -8.4452 O   0  0  0  0  0  0  0  0  0  0  0  0
   17.0702  -22.3795   -7.8290 O   0  0  0  0  0  0  0  0  0  0  0  0
  2  1  1  6
  2  3  1  0
  4  3  1  0
  5  9  1  0
  5  4  1  0
  6  5  2  0
  7  2  1  0
  7  8  2  0
 11 10  1  6
 11 13  1  0
 12 11  1  0
 13 14  1  6
 14  7  1  0
 15 16  2  0
 15 13  1  0
 18 19  2  0
 18 17  1  0
 20 18  1  0
 21 22  1  0
 21 20  1  1
 22 15  1  0
 23 21  1  0
 24 23  1  0
 25 23  2  0
M  END
$$$$
