EVN.pdb
     RDKit          3D

 25 24  0  0  1  0  0  0  0  0999 V2000
   19.8477  -13.2210  -17.2936 N   0  0  0  0  0  0  0  0  0  0  0  0
   20.1111  -11.8373  -17.7181 C   0  0  1  0  0  0  0  0  0  0  0  0
   18.9099  -11.2926  -18.4356 C   0  0  0  0  0  0  0  0  0  0  0  0
   18.7097  -11.9067  -19.7941 C   0  0  0  0  0  0  0  0  0  0  0  0
   17.4704  -11.3485  -20.4307 C   0  0  0  0  0  0  0  0  0  0  0  0
   16.3508  -11.8330  -20.1468 O   0  0  0  0  0  0  0  0  0  0  0  0
   20.3782  -11.0762  -16.4809 C   0  0  0  0  0  0  0  0  0  0  0  0
   19.6794  -11.2153  -15.4463 O   0  0  0  0  0  0  0  0  0  0  0  0
   17.5904  -10.3121  -21.3164 O   0  0  0  0  0  0  0  0  0  0  0  0
   23.1451  -11.3725  -14.3534 C   0  0  0  0  0  0  0  0  0  0  0  0
   23.1250   -9.9238  -14.7282 C   0  0  1  0  0  0  0  0  0  0  0  0
   24.2174   -9.6120  -15.6939 C   0  0  0  0  0  0  0  0  0  0  0  0
   21.7593   -9.4312  -15.1468 C   0  0  2  0  0  0  0  0  0  0  0  0
   21.4655  -10.1304  -16.4086 N   0  0  0  0  0  0  0  0  0  0  0  0
   21.7003   -7.9857  -15.4227 C   0  0  0  0  0  0  0  0  0  0  0  0
   22.3424   -7.4800  -16.4082 O   0  0  0  0  0  0  0  0  0  0  0  0
   20.6675   -2.7511  -15.3918 N   0  0  0  0  0  0  0  0  0  0  0  0
   19.6648   -3.5034  -14.7278 C   0  0  0  0  0  0  0  0  0  0  0  0
   18.6880   -2.8392  -14.3015 O   0  0  0  0  0  0  0  0  0  0  0  0
   19.6903   -4.9429  -14.5144 C   0  0  0  0  0  0  0  0  0  0  0  0
   20.9689   -5.6174  -14.9397 C   0  0  2  0  0  0  0  0  0  0  0  0
   20.9601   -7.0408  -14.6628 N   0  0  0  0  0  0  0  0  0  0  0  0
   22.1696   -4.9527  -14.3886 C   0  0  0  0  0  0  0  0  0  0  0  0
   22.5987   -5.1976  -13.1024 O   0  0  0  0  0  0  0  0  0  0  0  0
   22.8099   -4.1522  -15.1013 O   0  0  0  0  0  0  0  0  0  0  0  0
  2  1  1  1
  2  3  1  0
  4  3  1  0
  5  9  1  0
  5  4  1  0
  6  5  2  0
  7  2  1  0
  7  8  2  0
 11 10  1  6
 11 13  1  0
 12 11  1  0
 13 14  1  6
 14  7  1  0
 15 16  2  0
 15 13  1  0
 18 19  2  0
 18 17  1  0
 20 18  1  0
 21 22  1  0
 21 20  1  1
 22 15  1  0
 23 21  1  0
 24 23  1  0
 25 23  2  0
M  END
$$$$
