EVN.pdb
     RDKit          3D

 25 24  0  0  1  0  0  0  0  0999 V2000
   22.9377  -18.3198  -15.1742 N   0  0  0  0  0  0  0  0  0  0  0  0
   22.1176  -17.1897  -15.6374 C   0  0  1  0  0  0  0  0  0  0  0  0
   20.6918  -17.3942  -15.2138 C   0  0  0  0  0  0  0  0  0  0  0  0
   20.3450  -18.8424  -15.0013 C   0  0  0  0  0  0  0  0  0  0  0  0
   18.8791  -18.9805  -14.7104 C   0  0  0  0  0  0  0  0  0  0  0  0
   18.1505  -17.9621  -14.6796 O   0  0  0  0  0  0  0  0  0  0  0  0
   22.6900  -15.9850  -15.0030 C   0  0  0  0  0  0  0  0  0  0  0  0
   23.0236  -15.9613  -13.7922 O   0  0  0  0  0  0  0  0  0  0  0  0
   18.3639  -20.2279  -14.4827 O   0  0  0  0  0  0  0  0  0  0  0  0
   25.7819  -14.6082  -15.2389 C   0  0  0  0  0  0  0  0  0  0  0  0
   24.8866  -13.4921  -15.6774 C   0  0  1  0  0  0  0  0  0  0  0  0
   24.9466  -13.3160  -17.1568 C   0  0  0  0  0  0  0  0  0  0  0  0
   23.4879  -13.5881  -15.1141 C   0  0  2  0  0  0  0  0  0  0  0  0
   22.8922  -14.7712  -15.7567 N   0  0  0  0  0  0  0  0  0  0  0  0
   22.6295  -12.4355  -15.4365 C   0  0  0  0  0  0  0  0  0  0  0  0
   21.8822  -12.4456  -16.4760 O   0  0  0  0  0  0  0  0  0  0  0  0
   20.9356   -6.7878  -14.2146 N   0  0  0  0  0  0  0  0  0  0  0  0
   20.4973   -8.1317  -14.0960 C   0  0  0  0  0  0  0  0  0  0  0  0
   19.2654   -8.3121  -14.2597 O   0  0  0  0  0  0  0  0  0  0  0  0
   21.3490   -9.2761  -13.8074 C   0  0  0  0  0  0  0  0  0  0  0  0
   21.6510  -10.1493  -14.9978 C   0  0  2  0  0  0  0  0  0  0  0  0
   22.5412  -11.2449  -14.6665 N   0  0  0  0  0  0  0  0  0  0  0  0
   22.1351   -9.3735  -16.1601 C   0  0  0  0  0  0  0  0  0  0  0  0
   21.2585   -8.7829  -17.0440 O   0  0  0  0  0  0  0  0  0  0  0  0
   23.3632   -9.2492  -16.3470 O   0  0  0  0  0  0  0  0  0  0  0  0
  2  1  1  1
  2  3  1  0
  4  3  1  0
  5  9  1  0
  5  4  1  0
  6  5  2  0
  7  2  1  0
  7  8  2  0
 11 10  1  6
 11 13  1  0
 12 11  1  0
 13 14  1  6
 14  7  1  0
 15 16  2  0
 15 13  1  0
 18 19  2  0
 18 17  1  0
 20 18  1  0
 21 22  1  0
 21 20  1  1
 22 15  1  0
 23 21  1  0
 24 23  1  0
 25 23  2  0
M  END
$$$$
