EVN.pdb
     RDKit          3D

 25 24  0  0  1  0  0  0  0  0999 V2000
   16.4275  -11.9862  -15.6602 N   0  0  0  0  0  0  0  0  0  0  0  0
   17.8731  -11.7276  -15.5746 C   0  0  1  0  0  0  0  0  0  0  0  0
   18.6211  -12.7913  -16.3252 C   0  0  0  0  0  0  0  0  0  0  0  0
   18.4912  -14.1527  -15.6988 C   0  0  0  0  0  0  0  0  0  0  0  0
   19.1409  -15.1836  -16.5749 C   0  0  0  0  0  0  0  0  0  0  0  0
   19.6945  -14.8351  -17.6431 O   0  0  0  0  0  0  0  0  0  0  0  0
   18.0857  -10.4002  -16.1862 C   0  0  0  0  0  0  0  0  0  0  0  0
   17.3825   -9.9830  -17.1399 O   0  0  0  0  0  0  0  0  0  0  0  0
   19.1148  -16.4953  -16.1851 O   0  0  0  0  0  0  0  0  0  0  0  0
   16.7612   -7.9643  -16.4316 C   0  0  0  0  0  0  0  0  0  0  0  0
   18.0201   -7.4217  -15.8312 C   0  0  1  0  0  0  0  0  0  0  0  0
   17.8791   -7.2694  -14.3547 C   0  0  0  0  0  0  0  0  0  0  0  0
   19.2617   -8.1632  -16.2688 C   0  0  2  0  0  0  0  0  0  0  0  0
   19.1219   -9.5172  -15.7079 N   0  0  0  0  0  0  0  0  0  0  0  0
   20.5160   -7.5983  -15.7428 C   0  0  0  0  0  0  0  0  0  0  0  0
   20.9112   -7.8723  -14.5562 O   0  0  0  0  0  0  0  0  0  0  0  0
   25.5175   -4.1400  -16.9710 N   0  0  0  0  0  0  0  0  0  0  0  0
   24.8750   -5.3173  -16.5091 C   0  0  0  0  0  0  0  0  0  0  0  0
   25.4802   -5.9396  -15.6017 O   0  0  0  0  0  0  0  0  0  0  0  0
   23.6058   -5.8351  -16.9986 C   0  0  0  0  0  0  0  0  0  0  0  0
   22.6319   -6.2313  -15.9192 C   0  0  2  0  0  0  0  0  0  0  0  0
   21.3824   -6.7302  -16.4599 N   0  0  0  0  0  0  0  0  0  0  0  0
   22.4168   -5.1546  -14.9284 C   0  0  0  0  0  0  0  0  0  0  0  0
   23.1085   -5.1271  -13.7370 O   0  0  0  0  0  0  0  0  0  0  0  0
   21.5919   -4.2501  -15.1737 O   0  0  0  0  0  0  0  0  0  0  0  0
  2  1  1  6
  2  3  1  0
  4  3  1  0
  5  9  1  0
  5  4  1  0
  6  5  2  0
  7  2  1  0
  7  8  2  0
 11 10  1  1
 11 13  1  0
 12 11  1  0
 13 14  1  1
 14  7  1  0
 15 16  2  0
 15 13  1  0
 18 19  2  0
 18 17  1  0
 20 18  1  0
 21 22  1  0
 21 20  1  6
 22 15  1  0
 23 21  1  0
 24 23  1  0
 25 23  2  0
M  END
$$$$
