EVN.pdb
     RDKit          3D

 25 24  0  0  1  0  0  0  0  0999 V2000
   13.5663  -11.2792  -11.0501 N   0  0  0  0  0  0  0  0  0  0  0  0
   14.9504  -10.7818  -11.0146 C   0  0  1  0  0  0  0  0  0  0  0  0
   15.7066  -11.3098  -12.1993 C   0  0  0  0  0  0  0  0  0  0  0  0
   15.8849  -12.8030  -12.1634 C   0  0  0  0  0  0  0  0  0  0  0  0
   16.5071  -13.2753  -13.4450 C   0  0  0  0  0  0  0  0  0  0  0  0
   16.8049  -14.4837  -13.5856 O   0  0  0  0  0  0  0  0  0  0  0  0
   14.8545   -9.3088  -11.0622 C   0  0  0  0  0  0  0  0  0  0  0  0
   14.0293   -8.7159  -11.8009 O   0  0  0  0  0  0  0  0  0  0  0  0
   16.7384  -12.3674  -14.4427 O   0  0  0  0  0  0  0  0  0  0  0  0
   13.5446   -6.9232   -8.9402 C   0  0  0  0  0  0  0  0  0  0  0  0
   14.9960   -6.5728   -9.0417 C   0  0  1  0  0  0  0  0  0  0  0  0
   15.7309   -7.0033   -7.8179 C   0  0  0  0  0  0  0  0  0  0  0  0
   15.6302   -7.0128  -10.3406 C   0  0  2  0  0  0  0  0  0  0  0  0
   15.7146   -8.4800  -10.2526 N   0  0  0  0  0  0  0  0  0  0  0  0
   16.9982   -6.5064  -10.5434 C   0  0  0  0  0  0  0  0  0  0  0  0
   17.9727   -6.9531   -9.8434 O   0  0  0  0  0  0  0  0  0  0  0  0
   21.9876   -5.8648  -12.0177 N   0  0  0  0  0  0  0  0  0  0  0  0
   20.8372   -6.2108  -12.7721 C   0  0  0  0  0  0  0  0  0  0  0  0
   21.0133   -6.2968  -14.0124 O   0  0  0  0  0  0  0  0  0  0  0  0
   19.5124   -6.4640  -12.2250 C   0  0  0  0  0  0  0  0  0  0  0  0
   18.7450   -5.2253  -11.8412 C   0  0  2  0  0  0  0  0  0  0  0  0
   17.3679   -5.5157  -11.4921 N   0  0  0  0  0  0  0  0  0  0  0  0
   18.8455   -4.1589  -12.8610 C   0  0  0  0  0  0  0  0  0  0  0  0
   19.9342   -3.3160  -12.9128 O   0  0  0  0  0  0  0  0  0  0  0  0
   17.9263   -4.0170  -13.6938 O   0  0  0  0  0  0  0  0  0  0  0  0
  2  1  1  6
  2  3  1  0
  4  3  1  0
  5  9  1  0
  5  4  1  0
  6  5  2  0
  7  2  1  0
  7  8  2  0
 11 10  1  1
 11 13  1  0
 12 11  1  0
 13 14  1  1
 14  7  1  0
 15 16  2  0
 15 13  1  0
 18 19  2  0
 18 17  1  0
 20 18  1  0
 21 22  1  0
 21 20  1  6
 22 15  1  0
 23 21  1  0
 24 23  1  0
 25 23  2  0
M  END
$$$$
