EVN.pdb
     RDKit          3D

 25 24  0  0  1  0  0  0  0  0999 V2000
   17.7696  -12.5639  -16.4218 N   0  0  0  0  0  0  0  0  0  0  0  0
   18.4575  -11.3998  -17.0015 C   0  0  1  0  0  0  0  0  0  0  0  0
   17.4471  -10.3612  -17.3948 C   0  0  0  0  0  0  0  0  0  0  0  0
   16.6819  -10.7280  -18.6368 C   0  0  0  0  0  0  0  0  0  0  0  0
   17.5260  -10.4749  -19.8517 C   0  0  0  0  0  0  0  0  0  0  0  0
   18.1390  -11.4231  -20.3941 O   0  0  0  0  0  0  0  0  0  0  0  0
   19.3555  -10.8906  -15.9453 C   0  0  0  0  0  0  0  0  0  0  0  0
   19.0397  -10.9155  -14.7297 O   0  0  0  0  0  0  0  0  0  0  0  0
   17.6093   -9.2015  -20.3465 O   0  0  0  0  0  0  0  0  0  0  0  0
   23.3537  -10.3540  -16.8525 C   0  0  0  0  0  0  0  0  0  0  0  0
   22.8649  -10.4966  -15.4453 C   0  0  1  0  0  0  0  0  0  0  0  0
   23.9298  -10.1145  -14.4741 C   0  0  0  0  0  0  0  0  0  0  0  0
   21.5293   -9.8328  -15.2038 C   0  0  2  0  0  0  0  0  0  0  0  0
   20.6480  -10.3371  -16.2699 N   0  0  0  0  0  0  0  0  0  0  0  0
   21.5584   -8.3647  -15.3171 C   0  0  0  0  0  0  0  0  0  0  0  0
   21.4581   -7.7935  -16.4586 O   0  0  0  0  0  0  0  0  0  0  0  0
   21.0438   -3.1768  -14.6360 N   0  0  0  0  0  0  0  0  0  0  0  0
   20.0636   -4.1499  -14.9593 C   0  0  0  0  0  0  0  0  0  0  0  0
   18.9623   -3.6934  -15.3536 O   0  0  0  0  0  0  0  0  0  0  0  0
   20.2417   -5.5916  -14.8684 C   0  0  0  0  0  0  0  0  0  0  0  0
   21.5939   -6.0260  -14.3651 C   0  0  2  0  0  0  0  0  0  0  0  0
   21.6938   -7.4659  -14.2253 N   0  0  0  0  0  0  0  0  0  0  0  0
   21.9906   -5.3199  -13.1277 C   0  0  0  0  0  0  0  0  0  0  0  0
   22.2795   -3.9726  -13.1315 O   0  0  0  0  0  0  0  0  0  0  0  0
   22.0661   -5.9550  -12.0555 O   0  0  0  0  0  0  0  0  0  0  0  0
  2  1  1  1
  2  3  1  0
  4  3  1  0
  5  9  1  0
  5  4  1  0
  6  5  2  0
  7  2  1  0
  7  8  2  0
 11 10  1  6
 11 13  1  0
 12 11  1  0
 13 14  1  6
 14  7  1  0
 15 16  2  0
 15 13  1  0
 18 19  2  0
 18 17  1  0
 20 18  1  0
 21 22  1  0
 21 20  1  1
 22 15  1  0
 23 21  1  0
 24 23  1  0
 25 23  2  0
M  END
$$$$
