EVN.pdb
     RDKit          3D

 25 24  0  0  1  0  0  0  0  0999 V2000
   13.2033  -12.1464  -11.9992 N   0  0  0  0  0  0  0  0  0  0  0  0
   14.6093  -11.7182  -11.9366 C   0  0  1  0  0  0  0  0  0  0  0  0
   15.3163  -12.1225  -13.1979 C   0  0  0  0  0  0  0  0  0  0  0  0
   15.5694  -13.6030  -13.2797 C   0  0  0  0  0  0  0  0  0  0  0  0
   16.3223  -13.9250  -14.5375 C   0  0  0  0  0  0  0  0  0  0  0  0
   15.7046  -14.3378  -15.5460 O   0  0  0  0  0  0  0  0  0  0  0  0
   14.5808  -10.2484  -11.7943 C   0  0  0  0  0  0  0  0  0  0  0  0
   13.9244   -9.5137  -12.5737 O   0  0  0  0  0  0  0  0  0  0  0  0
   17.6807  -13.7594  -14.5568 O   0  0  0  0  0  0  0  0  0  0  0  0
   13.0082   -8.1463   -9.6152 C   0  0  0  0  0  0  0  0  0  0  0  0
   14.4548   -7.8124   -9.4266 C   0  0  1  0  0  0  0  0  0  0  0  0
   14.9681   -8.3866   -8.1499 C   0  0  0  0  0  0  0  0  0  0  0  0
   15.3043   -8.1193  -10.6378 C   0  0  2  0  0  0  0  0  0  0  0  0
   15.3142   -9.5878  -10.7417 N   0  0  0  0  0  0  0  0  0  0  0  0
   16.7046   -7.6790  -10.5172 C   0  0  0  0  0  0  0  0  0  0  0  0
   17.5318   -8.3202   -9.7797 O   0  0  0  0  0  0  0  0  0  0  0  0
   21.9347   -6.4085  -11.2362 N   0  0  0  0  0  0  0  0  0  0  0  0
   20.8714   -5.8105  -11.9602 C   0  0  0  0  0  0  0  0  0  0  0  0
   21.1457   -4.7172  -12.5136 O   0  0  0  0  0  0  0  0  0  0  0  0
   19.5306   -6.3591  -12.1001 C   0  0  0  0  0  0  0  0  0  0  0  0
   18.6145   -6.0811  -10.9365 C   0  0  2  0  0  0  0  0  0  0  0  0
   17.2631   -6.5500  -11.1741 N   0  0  0  0  0  0  0  0  0  0  0  0
   18.6440   -4.6624  -10.5197 C   0  0  0  0  0  0  0  0  0  0  0  0
   17.6592   -3.7801  -10.9072 O   0  0  0  0  0  0  0  0  0  0  0  0
   19.5795   -4.2527   -9.8016 O   0  0  0  0  0  0  0  0  0  0  0  0
  2  1  1  6
  2  3  1  0
  4  3  1  0
  5  9  1  0
  5  4  1  0
  6  5  2  0
  7  2  1  0
  7  8  2  0
 11 10  1  6
 11 13  1  0
 12 11  1  0
 13 14  1  1
 14  7  1  0
 15 16  2  0
 15 13  1  0
 18 19  2  0
 18 17  1  0
 20 18  1  0
 21 22  1  0
 21 20  1  6
 22 15  1  0
 23 21  1  0
 24 23  1  0
 25 23  2  0
M  END
$$$$
