EVN.pdb
     RDKit          3D

 25 24  0  0  1  0  0  0  0  0999 V2000
   20.3096  -14.9351  -17.8492 N   0  0  0  0  0  0  0  0  0  0  0  0
   20.5951  -13.5690  -18.3147 C   0  0  1  0  0  0  0  0  0  0  0  0
   19.5176  -13.1229  -19.2603 C   0  0  0  0  0  0  0  0  0  0  0  0
   19.5243  -13.8834  -20.5581 C   0  0  0  0  0  0  0  0  0  0  0  0
   18.4046  -13.4069  -21.4366 C   0  0  0  0  0  0  0  0  0  0  0  0
   17.6172  -12.5259  -21.0209 O   0  0  0  0  0  0  0  0  0  0  0  0
   20.6193  -12.7236  -17.1039 C   0  0  0  0  0  0  0  0  0  0  0  0
   19.8019  -12.8797  -16.1629 O   0  0  0  0  0  0  0  0  0  0  0  0
   18.2657  -13.9498  -22.6852 O   0  0  0  0  0  0  0  0  0  0  0  0
   23.1230  -12.5011  -14.6216 C   0  0  0  0  0  0  0  0  0  0  0  0
   22.9452  -11.0909  -15.0901 C   0  0  1  0  0  0  0  0  0  0  0  0
   24.1153  -10.6522  -15.9034 C   0  0  0  0  0  0  0  0  0  0  0  0
   21.6030  -10.8380  -15.7362 C   0  0  2  0  0  0  0  0  0  0  0  0
   21.5944  -11.6712  -16.9499 N   0  0  0  0  0  0  0  0  0  0  0  0
   21.3934   -9.4433  -16.1605 C   0  0  0  0  0  0  0  0  0  0  0  0
   22.0170   -8.9652  -17.1714 O   0  0  0  0  0  0  0  0  0  0  0  0
   19.6505   -4.4109  -16.6788 N   0  0  0  0  0  0  0  0  0  0  0  0
   18.6709   -5.4363  -16.6484 C   0  0  0  0  0  0  0  0  0  0  0  0
   17.5134   -5.0844  -16.9848 O   0  0  0  0  0  0  0  0  0  0  0  0
   18.9081   -6.8208  -16.2672 C   0  0  0  0  0  0  0  0  0  0  0  0
   20.3481   -7.1523  -15.9722 C   0  0  2  0  0  0  0  0  0  0  0  0
   20.5187   -8.5213  -15.5257 N   0  0  0  0  0  0  0  0  0  0  0  0
   20.9727   -6.1845  -15.0445 C   0  0  0  0  0  0  0  0  0  0  0  0
   21.3295   -4.9201  -15.4598 O   0  0  0  0  0  0  0  0  0  0  0  0
   21.1823   -6.5172  -13.8595 O   0  0  0  0  0  0  0  0  0  0  0  0
  2  1  1  1
  2  3  1  0
  4  3  1  0
  5  9  1  0
  5  4  1  0
  6  5  2  0
  7  2  1  0
  7  8  2  0
 11 10  1  6
 11 13  1  0
 12 11  1  0
 13 14  1  6
 14  7  1  0
 15 16  2  0
 15 13  1  0
 18 19  2  0
 18 17  1  0
 20 18  1  0
 21 22  1  0
 21 20  1  1
 22 15  1  0
 23 21  1  0
 24 23  1  0
 25 23  2  0
M  END
$$$$
