LVG.pdb
     RDKit          3D

 20 19  0  0  1  0  0  0  0  0999 V2000
   22.0344  -23.7010  -13.3364 C   0  0  0  0  0  0  0  0  0  0  0  0
   23.5324  -23.6119  -13.0310 C   0  0  1  0  0  0  0  0  0  0  0  0
   24.2537  -24.3921  -14.1027 C   0  0  0  0  0  0  0  0  0  0  0  0
   23.8871  -22.1407  -13.0835 C   0  0  0  0  0  0  0  0  0  0  0  0
   25.3918  -21.9363  -13.0096 C   0  0  2  0  0  0  0  0  0  0  0  0
   25.9012  -22.2216  -11.7044 N   0  0  0  0  0  0  0  0  0  0  0  0
   25.7253  -20.5898  -13.4916 C   0  0  0  0  0  0  0  0  0  0  0  0
   25.5077  -19.6144  -12.7246 O   0  0  0  0  0  0  0  0  0  0  0  0
   28.4104  -17.7816  -16.5313 C   0  0  0  0  0  0  0  0  0  0  0  0
   27.8647  -19.0579  -16.0005 C   0  0  2  0  0  0  0  0  0  0  0  0
   27.7678  -20.0362  -17.1614 C   0  0  0  0  0  0  0  0  0  0  0  0
   26.5910  -18.9675  -15.2320 C   0  0  2  0  0  0  0  0  0  0  0  0
   26.2795  -20.3258  -14.7743 N   0  0  0  0  0  0  0  0  0  0  0  0
   25.4315  -18.4651  -15.9685 C   0  0  0  0  0  0  0  0  0  0  0  0
   25.4004  -17.2496  -16.3798 O   0  0  0  0  0  0  0  0  0  0  0  0
   24.2758  -19.2262  -16.2927 N   0  0  0  0  0  0  0  0  0  0  0  0
   23.1781  -18.6385  -17.0788 C   0  0  0  0  0  0  0  0  0  0  0  0
   22.0590  -18.3346  -16.1668 C   0  0  0  0  0  0  0  0  0  0  0  0
   21.6154  -19.1918  -15.3610 O   0  0  0  0  0  0  0  0  0  0  0  0
   21.4577  -17.0746  -16.1751 O   0  0  0  0  0  0  0  0  0  0  0  0
  2  1  1  6
  3  2  1  0
  4  2  1  0
  5  7  1  0
  5  4  1  0
  5  6  1  1
  7  8  2  0
 10  9  1  6
 10 11  1  0
 10 12  1  0
 12 14  1  0
 13  7  1  0
 12 13  1  6
 14 15  2  0
 16 14  1  0
 16 17  1  0
 18 17  1  0
 18 20  1  0
 19 18  2  0
M  END
$$$$
