LVG.pdb
     RDKit          3D

 20 19  0  0  1  0  0  0  0  0999 V2000
   16.0353  -11.8080  -18.4101 C   0  0  0  0  0  0  0  0  0  0  0  0
   17.3903  -12.4894  -18.1979 C   0  0  1  0  0  0  0  0  0  0  0  0
   18.1738  -12.3331  -19.4783 C   0  0  0  0  0  0  0  0  0  0  0  0
   18.0546  -11.7593  -17.0495 C   0  0  0  0  0  0  0  0  0  0  0  0
   19.4325  -12.3326  -16.7590 C   0  0  2  0  0  0  0  0  0  0  0  0
   19.3583  -13.6903  -16.3169 N   0  0  0  0  0  0  0  0  0  0  0  0
   20.1426  -11.4469  -15.8274 C   0  0  0  0  0  0  0  0  0  0  0  0
   19.7313  -11.3843  -14.6384 O   0  0  0  0  0  0  0  0  0  0  0  0
   24.1518  -10.3655  -16.4075 C   0  0  0  0  0  0  0  0  0  0  0  0
   23.3711  -10.3452  -15.1431 C   0  0  2  0  0  0  0  0  0  0  0  0
   23.4154  -11.7459  -14.5513 C   0  0  0  0  0  0  0  0  0  0  0  0
   21.9817   -9.8132  -15.2283 C   0  0  2  0  0  0  0  0  0  0  0  0
   21.2673  -10.6569  -16.1923 N   0  0  0  0  0  0  0  0  0  0  0  0
   21.8525   -8.4235  -15.6660 C   0  0  0  0  0  0  0  0  0  0  0  0
   21.9287   -8.1255  -16.9121 O   0  0  0  0  0  0  0  0  0  0  0  0
   21.6391   -7.3118  -14.8066 N   0  0  0  0  0  0  0  0  0  0  0  0
   21.7473   -5.9327  -15.3114 C   0  0  0  0  0  0  0  0  0  0  0  0
   21.3163   -5.0084  -14.2455 C   0  0  0  0  0  0  0  0  0  0  0  0
   20.8242   -5.4301  -13.1680 O   0  0  0  0  0  0  0  0  0  0  0  0
   21.4449   -3.6276  -14.4074 O   0  0  0  0  0  0  0  0  0  0  0  0
  2  1  1  6
  3  2  1  0
  4  2  1  0
  5  7  1  0
  5  4  1  0
  5  6  1  1
  7  8  2  0
 10  9  1  6
 10 11  1  0
 10 12  1  0
 12 14  1  0
 13  7  1  0
 12 13  1  6
 14 15  2  0
 16 14  1  0
 16 17  1  0
 18 17  1  0
 18 20  1  0
 19 18  2  0
M  END
$$$$
