LVG.pdb
     RDKit          3D

 20 19  0  0  1  0  0  0  0  0999 V2000
   17.0801  -17.3209  -18.2492 C   0  0  0  0  0  0  0  0  0  0  0  0
   17.6568  -16.6178  -17.0169 C   0  0  1  0  0  0  0  0  0  0  0  0
   18.7999  -17.4651  -16.5137 C   0  0  0  0  0  0  0  0  0  0  0  0
   18.1388  -15.2628  -17.4910 C   0  0  0  0  0  0  0  0  0  0  0  0
   18.7101  -14.4503  -16.3399 C   0  0  2  0  0  0  0  0  0  0  0  0
   17.7529  -14.2703  -15.2930 N   0  0  0  0  0  0  0  0  0  0  0  0
   19.2613  -13.1916  -16.8578 C   0  0  0  0  0  0  0  0  0  0  0  0
   20.2054  -13.2552  -17.6895 O   0  0  0  0  0  0  0  0  0  0  0  0
   18.6225   -8.6060  -18.2540 C   0  0  0  0  0  0  0  0  0  0  0  0
   18.2908   -9.9543  -17.7242 C   0  0  2  0  0  0  0  0  0  0  0  0
   17.0244   -9.8239  -16.8917 C   0  0  0  0  0  0  0  0  0  0  0  0
   19.3760  -10.6659  -16.9915 C   0  0  2  0  0  0  0  0  0  0  0  0
   18.7894  -11.9064  -16.4734 N   0  0  0  0  0  0  0  0  0  0  0  0
   19.9693   -9.9453  -15.8653 C   0  0  0  0  0  0  0  0  0  0  0  0
   19.3663   -9.9006  -14.7331 O   0  0  0  0  0  0  0  0  0  0  0  0
   21.2109   -9.2544  -15.8990 N   0  0  0  0  0  0  0  0  0  0  0  0
   21.7894   -8.6766  -14.6744 C   0  0  0  0  0  0  0  0  0  0  0  0
   21.3135   -7.2865  -14.5420 C   0  0  0  0  0  0  0  0  0  0  0  0
   20.5760   -6.7578  -15.4123 O   0  0  0  0  0  0  0  0  0  0  0  0
   21.6733   -6.5146  -13.4357 O   0  0  0  0  0  0  0  0  0  0  0  0
  2  1  1  6
  3  2  1  0
  4  2  1  0
  5  7  1  0
  5  4  1  0
  5  6  1  1
  7  8  2  0
 10  9  1  1
 10 11  1  0
 10 12  1  0
 12 14  1  0
 13  7  1  0
 12 13  1  1
 14 15  2  0
 16 14  1  0
 16 17  1  0
 18 17  1  0
 18 20  1  0
 19 18  2  0
M  END
$$$$
