LVG.pdb
     RDKit          3D

 20 19  0  0  1  0  0  0  0  0999 V2000
   28.5939  -12.2559  -16.9040 C   0  0  0  0  0  0  0  0  0  0  0  0
   27.2316  -12.8401  -16.5188 C   0  0  1  0  0  0  0  0  0  0  0  0
   27.2250  -13.0058  -15.0187 C   0  0  0  0  0  0  0  0  0  0  0  0
   26.1968  -11.8303  -16.9690 C   0  0  0  0  0  0  0  0  0  0  0  0
   24.7870  -12.3609  -16.7631 C   0  0  2  0  0  0  0  0  0  0  0  0
   24.6479  -13.6975  -17.2517 N   0  0  0  0  0  0  0  0  0  0  0  0
   23.8217  -11.4178  -17.3421 C   0  0  0  0  0  0  0  0  0  0  0  0
   23.8505  -11.2292  -18.5873 O   0  0  0  0  0  0  0  0  0  0  0  0
   20.2004  -10.6825  -15.3696 C   0  0  0  0  0  0  0  0  0  0  0  0
   20.5012  -10.5937  -16.8222 C   0  0  2  0  0  0  0  0  0  0  0  0
   20.3921  -11.9957  -17.4023 C   0  0  0  0  0  0  0  0  0  0  0  0
   21.7804   -9.9271  -17.1965 C   0  0  2  0  0  0  0  0  0  0  0  0
   22.8572  -10.7065  -16.5766 N   0  0  0  0  0  0  0  0  0  0  0  0
   21.9287   -8.5365  -16.7678 C   0  0  0  0  0  0  0  0  0  0  0  0
   21.1496   -7.6277  -17.2308 O   0  0  0  0  0  0  0  0  0  0  0  0
   22.8980   -8.0652  -15.8412 N   0  0  0  0  0  0  0  0  0  0  0  0
   22.9445   -6.6463  -15.4503 C   0  0  0  0  0  0  0  0  0  0  0  0
   22.2235   -6.4882  -14.1730 C   0  0  0  0  0  0  0  0  0  0  0  0
   21.5990   -7.4445  -13.6472 O   0  0  0  0  0  0  0  0  0  0  0  0
   22.2159   -5.2603  -13.5085 O   0  0  0  0  0  0  0  0  0  0  0  0
  2  1  1  1
  3  2  1  0
  4  2  1  0
  5  7  1  0
  5  4  1  0
  5  6  1  6
  7  8  2  0
 10  9  1  1
 10 11  1  0
 10 12  1  0
 12 14  1  0
 13  7  1  0
 12 13  1  1
 14 15  2  0
 16 14  1  0
 16 17  1  0
 18 17  1  0
 18 20  1  0
 19 18  2  0
M  END
$$$$
