LVG.pdb
     RDKit          3D

 20 19  0  0  1  0  0  0  0  0999 V2000
   28.7868  -18.3968   -5.0535 C   0  0  0  0  0  0  0  0  0  0  0  0
   28.2961  -19.6847   -5.7213 C   0  0  1  0  0  0  0  0  0  0  0  0
   27.4552  -20.4209   -4.7072 C   0  0  0  0  0  0  0  0  0  0  0  0
   27.4715  -19.2530   -6.9158 C   0  0  0  0  0  0  0  0  0  0  0  0
   27.1486  -20.4354   -7.8154 C   0  0  2  0  0  0  0  0  0  0  0  0
   28.3101  -21.2215   -8.0936 N   0  0  0  0  0  0  0  0  0  0  0  0
   26.4576  -19.9574   -9.0197 C   0  0  0  0  0  0  0  0  0  0  0  0
   26.7666  -18.8220   -9.4696 O   0  0  0  0  0  0  0  0  0  0  0  0
   25.2702  -22.6634  -11.9260 C   0  0  0  0  0  0  0  0  0  0  0  0
   25.6179  -21.2212  -12.0147 C   0  0  2  0  0  0  0  0  0  0  0  0
   27.1344  -21.1092  -11.9750 C   0  0  0  0  0  0  0  0  0  0  0  0
   24.9601  -20.3172  -11.0293 C   0  0  2  0  0  0  0  0  0  0  0  0
   25.4603  -20.7037   -9.7057 N   0  0  0  0  0  0  0  0  0  0  0  0
   23.4988  -20.3667  -10.9889 C   0  0  0  0  0  0  0  0  0  0  0  0
   22.8979  -21.1245  -10.1451 O   0  0  0  0  0  0  0  0  0  0  0  0
   22.6315  -19.6212  -11.8328 N   0  0  0  0  0  0  0  0  0  0  0  0
   21.1710  -19.6736  -11.6532 C   0  0  0  0  0  0  0  0  0  0  0  0
   20.6212  -20.6842  -12.5765 C   0  0  0  0  0  0  0  0  0  0  0  0
   21.3688  -21.4683  -13.2148 O   0  0  0  0  0  0  0  0  0  0  0  0
   19.2428  -20.7974  -12.7674 O   0  0  0  0  0  0  0  0  0  0  0  0
  2  1  1  1
  3  2  1  0
  4  2  1  0
  5  7  1  0
  5  4  1  0
  5  6  1  6
  7  8  2  0
 10  9  1  1
 10 11  1  0
 10 12  1  0
 12 14  1  0
 13  7  1  0
 12 13  1  1
 14 15  2  0
 16 14  1  0
 16 17  1  0
 18 17  1  0
 18 20  1  0
 19 18  2  0
M  END
$$$$
