LVG.pdb
     RDKit          3D

 20 19  0  0  1  0  0  0  0  0999 V2000
   28.2707  -12.1430  -16.3537 C   0  0  0  0  0  0  0  0  0  0  0  0
   26.8405  -12.6791  -16.4659 C   0  0  1  0  0  0  0  0  0  0  0  0
   26.5235  -13.3801  -15.1675 C   0  0  0  0  0  0  0  0  0  0  0  0
   25.9519  -11.4708  -16.6742 C   0  0  0  0  0  0  0  0  0  0  0  0
   24.4898  -11.8758  -16.7729 C   0  0  2  0  0  0  0  0  0  0  0  0
   24.2799  -12.8564  -17.7922 N   0  0  0  0  0  0  0  0  0  0  0  0
   23.6606  -10.6742  -16.9309 C   0  0  0  0  0  0  0  0  0  0  0  0
   23.6688  -10.0902  -18.0471 O   0  0  0  0  0  0  0  0  0  0  0  0
   19.5148   -8.4223  -16.0687 C   0  0  0  0  0  0  0  0  0  0  0  0
   20.5810   -9.4571  -16.0347 C   0  0  2  0  0  0  0  0  0  0  0  0
   20.3349  -10.3330  -14.8156 C   0  0  0  0  0  0  0  0  0  0  0  0
   21.9864   -8.9657  -16.1011 C   0  0  2  0  0  0  0  0  0  0  0  0
   22.8497  -10.1335  -15.8954 N   0  0  0  0  0  0  0  0  0  0  0  0
   22.3591   -7.9525  -15.1142 C   0  0  0  0  0  0  0  0  0  0  0  0
   22.5114   -8.2728  -13.8807 O   0  0  0  0  0  0  0  0  0  0  0  0
   22.5823   -6.5778  -15.3976 N   0  0  0  0  0  0  0  0  0  0  0  0
   22.8946   -5.6236  -14.3205 C   0  0  0  0  0  0  0  0  0  0  0  0
   21.6525   -4.9257  -13.9379 C   0  0  0  0  0  0  0  0  0  0  0  0
   20.5437   -5.2288  -14.4476 O   0  0  0  0  0  0  0  0  0  0  0  0
   21.6763   -3.9004  -12.9906 O   0  0  0  0  0  0  0  0  0  0  0  0
  2  1  1  1
  3  2  1  0
  4  2  1  0
  5  7  1  0
  5  4  1  0
  5  6  1  6
  7  8  2  0
 10  9  1  1
 10 11  1  0
 10 12  1  0
 12 14  1  0
 13  7  1  0
 12 13  1  1
 14 15  2  0
 16 14  1  0
 16 17  1  0
 18 17  1  0
 18 20  1  0
 19 18  2  0
M  END
$$$$
