LNM.pdb
     RDKit          3D

 25 24  0  0  1  0  0  0  0  0999 V2000
    8.9880  -13.7835   18.3601 C   0  0  0  0  0  0  0  0  0  0  0  0
    7.8857  -13.4538   19.3460 C   0  0  2  0  0  0  0  0  0  0  0  0
    7.7700  -11.9566   19.5606 C   0  0  0  0  0  0  0  0  0  0  0  0
    7.9417  -14.2248   20.6069 C   0  0  0  0  0  0  0  0  0  0  0  0
    8.1150  -15.6951   20.5093 C   0  0  2  0  0  0  0  0  0  0  0  0
    7.0959  -16.4286   19.8811 N   0  0  0  0  0  0  0  0  0  0  0  0
    8.4813  -16.3475   21.7986 C   0  0  0  0  0  0  0  0  0  0  0  0
    7.5006  -16.7881   22.5062 O   0  0  0  0  0  0  0  0  0  0  0  0
   11.6106  -19.7695   24.7773 N   0  0  0  0  0  0  0  0  0  0  0  0
   12.1163  -18.4803   24.3313 C   0  0  0  0  0  0  0  0  0  0  0  0
   13.1129  -18.0848   24.9476 O   0  0  0  0  0  0  0  0  0  0  0  0
   11.4616  -17.7700   23.2500 C   0  0  0  0  0  0  0  0  0  0  0  0
   10.1286  -17.1134   23.5394 C   0  0  2  0  0  0  0  0  0  0  0  0
    9.8083  -16.4845   22.2330 N   0  0  0  0  0  0  0  0  0  0  0  0
   10.1886  -16.0595   24.5574 C   0  0  0  0  0  0  0  0  0  0  0  0
   11.0758  -15.1324   24.3797 O   0  0  0  0  0  0  0  0  0  0  0  0
    6.7732  -11.2024   27.2600 C   0  0  0  0  0  0  0  0  0  0  0  0
    6.2167  -12.8663   26.8060 S   0  0  0  0  0  0  0  0  0  0  0  0
    7.6606  -13.7510   26.1585 C   0  0  0  0  0  0  0  0  0  0  0  0
    8.4811  -14.3613   27.2416 C   0  0  0  0  0  0  0  0  0  0  0  0
    9.8037  -14.9384   26.7816 C   0  0  2  0  0  0  0  0  0  0  0  0
    9.4237  -15.8840   25.7103 N   0  0  0  0  0  0  0  0  0  0  0  0
   10.4437  -15.6287   27.8990 C   0  0  0  0  0  0  0  0  0  0  0  0
   10.3600  -16.8937   28.0486 O   0  0  0  0  0  0  0  0  0  0  0  0
   11.1821  -14.9642   28.8680 O   0  0  0  0  0  0  0  0  0  0  0  0
  2  1  1  1
  3  2  1  0
  4  2  1  0
  5  4  1  0
  5  6  1  1
  7  8  2  0
  7  5  1  0
 10  9  1  0
 10 12  1  0
 11 10  2  0
 13 12  1  6
 13 14  1  0
 14  7  1  0
 15 16  2  0
 15 13  1  0
 17 18  1  0
 19 20  1  0
 19 18  1  0
 21 22  1  0
 21 20  1  1
 22 15  1  0
 23 21  1  0
 24 23  2  0
 25 23  1  0
M  END
$$$$
