LNM.pdb
     RDKit          3D

 25 24  0  0  1  0  0  0  0  0999 V2000
    9.4803  -13.0351   19.1125 C   0  0  0  0  0  0  0  0  0  0  0  0
    8.0251  -13.4571   19.1056 C   0  0  2  0  0  0  0  0  0  0  0  0
    7.1210  -12.3064   18.7063 C   0  0  0  0  0  0  0  0  0  0  0  0
    7.5835  -14.1514   20.3346 C   0  0  0  0  0  0  0  0  0  0  0  0
    8.4422  -15.2427   20.8569 C   0  0  2  0  0  0  0  0  0  0  0  0
    8.6762  -16.3431   20.0169 N   0  0  0  0  0  0  0  0  0  0  0  0
    8.0532  -15.7211   22.2141 C   0  0  0  0  0  0  0  0  0  0  0  0
    7.5219  -14.8428   22.9907 O   0  0  0  0  0  0  0  0  0  0  0  0
    6.4422  -20.7590   25.0363 N   0  0  0  0  0  0  0  0  0  0  0  0
    7.5385  -19.8032   24.9992 C   0  0  0  0  0  0  0  0  0  0  0  0
    8.2136  -19.7641   26.0347 O   0  0  0  0  0  0  0  0  0  0  0  0
    7.7668  -18.9947   23.8175 C   0  0  0  0  0  0  0  0  0  0  0  0
    7.8045  -17.4907   23.9854 C   0  0  2  0  0  0  0  0  0  0  0  0
    8.2444  -17.0443   22.6393 N   0  0  0  0  0  0  0  0  0  0  0  0
    8.7844  -17.0224   24.9708 C   0  0  0  0  0  0  0  0  0  0  0  0
   10.0114  -16.9257   24.5666 O   0  0  0  0  0  0  0  0  0  0  0  0
    6.3055  -12.2567   27.7795 C   0  0  0  0  0  0  0  0  0  0  0  0
    8.0060  -11.7289   27.4414 S   0  0  0  0  0  0  0  0  0  0  0  0
    9.0640  -13.1877   27.6390 C   0  0  0  0  0  0  0  0  0  0  0  0
    8.4956  -14.3919   26.9715 C   0  0  0  0  0  0  0  0  0  0  0  0
    9.4167  -15.5940   26.9486 C   0  0  2  0  0  0  0  0  0  0  0  0
    8.6063  -16.6485   26.3025 N   0  0  0  0  0  0  0  0  0  0  0  0
    9.7693  -15.9577   28.3190 C   0  0  0  0  0  0  0  0  0  0  0  0
   10.5435  -15.2349   29.0318 O   0  0  0  0  0  0  0  0  0  0  0  0
    9.2914  -17.1041   28.9380 O   0  0  0  0  0  0  0  0  0  0  0  0
  2  1  1  1
  3  2  1  0
  4  2  1  0
  5  4  1  0
  5  6  1  6
  7  8  2  0
  7  5  1  0
 10  9  1  0
 10 12  1  0
 11 10  2  0
 13 12  1  6
 13 14  1  0
 14  7  1  0
 15 16  2  0
 15 13  1  0
 17 18  1  0
 19 20  1  0
 19 18  1  0
 21 22  1  0
 21 20  1  1
 22 15  1  0
 23 21  1  0
 24 23  2  0
 25 23  1  0
M  END
$$$$
