LNM.pdb
     RDKit          3D

 25 24  0  0  1  0  0  0  0  0999 V2000
    9.4777  -13.0356   18.4389 C   0  0  0  0  0  0  0  0  0  0  0  0
    8.0370  -13.2390   18.8617 C   0  0  2  0  0  0  0  0  0  0  0  0
    7.4164  -11.9407   19.3413 C   0  0  0  0  0  0  0  0  0  0  0  0
    7.8261  -14.3693   19.7920 C   0  0  0  0  0  0  0  0  0  0  0  0
    8.4733  -15.6633   19.4634 C   0  0  2  0  0  0  0  0  0  0  0  0
    7.9351  -16.4070   18.4011 N   0  0  0  0  0  0  0  0  0  0  0  0
    8.6825  -16.5511   20.6424 C   0  0  0  0  0  0  0  0  0  0  0  0
    7.6753  -17.2729   20.9905 O   0  0  0  0  0  0  0  0  0  0  0  0
   12.8553  -18.5050   20.4787 N   0  0  0  0  0  0  0  0  0  0  0  0
   11.9295  -18.8376   21.5507 C   0  0  0  0  0  0  0  0  0  0  0  0
   11.5613  -20.0181   21.5558 O   0  0  0  0  0  0  0  0  0  0  0  0
   11.5129  -17.8242   22.5004 C   0  0  0  0  0  0  0  0  0  0  0  0
   10.0435  -17.4637   22.5517 C   0  0  2  0  0  0  0  0  0  0  0  0
    9.8959  -16.6127   21.3439 N   0  0  0  0  0  0  0  0  0  0  0  0
    9.6619  -16.6711   23.7250 C   0  0  0  0  0  0  0  0  0  0  0  0
    9.9836  -15.4164   23.7060 O   0  0  0  0  0  0  0  0  0  0  0  0
    7.0216  -11.8478   27.7323 C   0  0  0  0  0  0  0  0  0  0  0  0
    7.6145  -12.7834   26.2978 S   0  0  0  0  0  0  0  0  0  0  0  0
    6.7980  -14.4014   26.3448 C   0  0  0  0  0  0  0  0  0  0  0  0
    7.4189  -15.3745   25.4034 C   0  0  0  0  0  0  0  0  0  0  0  0
    8.6317  -16.0969   25.9523 C   0  0  2  0  0  0  0  0  0  0  0  0
    8.9868  -17.0548   24.8835 N   0  0  0  0  0  0  0  0  0  0  0  0
    8.2643  -16.7876   27.1863 C   0  0  0  0  0  0  0  0  0  0  0  0
    8.1687  -16.1733   28.3013 O   0  0  0  0  0  0  0  0  0  0  0  0
    7.9950  -18.1480   27.2333 O   0  0  0  0  0  0  0  0  0  0  0  0
  2  1  1  1
  3  2  1  0
  4  2  1  0
  5  4  1  0
  5  6  1  6
  7  8  2  0
  7  5  1  0
 10  9  1  0
 10 12  1  0
 11 10  2  0
 13 12  1  1
 13 14  1  0
 14  7  1  0
 15 16  2  0
 15 13  1  0
 17 18  1  0
 19 20  1  0
 19 18  1  0
 21 22  1  0
 21 20  1  6
 22 15  1  0
 23 21  1  0
 24 23  2  0
 25 23  1  0
M  END
$$$$
