LNM.pdb
     RDKit          3D

 25 24  0  0  1  0  0  0  0  0999 V2000
    6.9198  -13.6704   20.6712 C   0  0  0  0  0  0  0  0  0  0  0  0
    8.1383  -13.6899   19.7709 C   0  0  2  0  0  0  0  0  0  0  0  0
    8.4331  -12.3096   19.2151 C   0  0  0  0  0  0  0  0  0  0  0  0
    8.1183  -14.7471   18.7368 C   0  0  0  0  0  0  0  0  0  0  0  0
    7.8467  -16.1377   19.1769 C   0  0  2  0  0  0  0  0  0  0  0  0
    6.5722  -16.4173   19.6952 N   0  0  0  0  0  0  0  0  0  0  0  0
    8.8904  -16.7006   20.0801 C   0  0  0  0  0  0  0  0  0  0  0  0
    9.5676  -17.6898   19.6116 O   0  0  0  0  0  0  0  0  0  0  0  0
   12.5147  -17.1883   19.2634 N   0  0  0  0  0  0  0  0  0  0  0  0
   12.1080  -17.4234   20.6405 C   0  0  0  0  0  0  0  0  0  0  0  0
   12.3672  -18.5575   21.0600 O   0  0  0  0  0  0  0  0  0  0  0  0
   11.4580  -16.3748   21.4023 C   0  0  0  0  0  0  0  0  0  0  0  0
   10.2310  -16.7428   22.2089 C   0  0  2  0  0  0  0  0  0  0  0  0
    9.1370  -16.1971   21.3662 N   0  0  0  0  0  0  0  0  0  0  0  0
   10.1648  -16.1002   23.5255 C   0  0  0  0  0  0  0  0  0  0  0  0
   10.8743  -15.0278   23.6828 O   0  0  0  0  0  0  0  0  0  0  0  0
    6.8528  -11.3911   27.1860 C   0  0  0  0  0  0  0  0  0  0  0  0
    6.4403  -13.1536   27.0965 S   0  0  0  0  0  0  0  0  0  0  0  0
    8.0046  -14.0685   27.1500 C   0  0  0  0  0  0  0  0  0  0  0  0
    8.2215  -14.8878   25.9251 C   0  0  0  0  0  0  0  0  0  0  0  0
    9.5053  -15.6915   25.9234 C   0  0  2  0  0  0  0  0  0  0  0  0
    9.4401  -16.4595   24.6616 N   0  0  0  0  0  0  0  0  0  0  0  0
    9.5218  -16.5768   27.0856 C   0  0  0  0  0  0  0  0  0  0  0  0
    9.2484  -17.8202   26.9915 O   0  0  0  0  0  0  0  0  0  0  0  0
    9.8340  -16.1330   28.3628 O   0  0  0  0  0  0  0  0  0  0  0  0
  2  1  1  6
  3  2  1  0
  4  2  1  0
  5  4  1  0
  5  6  1  1
  7  8  2  0
  7  5  1  0
 10  9  1  0
 10 12  1  0
 11 10  2  0
 13 12  1  6
 13 14  1  0
 14  7  1  0
 15 16  2  0
 15 13  1  0
 17 18  1  0
 19 20  1  0
 19 18  1  0
 21 22  1  0
 21 20  1  1
 22 15  1  0
 23 21  1  0
 24 23  2  0
 25 23  1  0
M  END
$$$$
