LNM.pdb
     RDKit          3D

 25 24  0  0  1  0  0  0  0  0999 V2000
    9.0827  -12.2160   18.5139 C   0  0  0  0  0  0  0  0  0  0  0  0
    7.9101  -13.1683   18.6315 C   0  0  2  0  0  0  0  0  0  0  0  0
    6.5934  -12.4487   18.4094 C   0  0  0  0  0  0  0  0  0  0  0  0
    7.9225  -14.0068   19.8498 C   0  0  0  0  0  0  0  0  0  0  0  0
    9.1992  -14.6652   20.2212 C   0  0  2  0  0  0  0  0  0  0  0  0
    9.9059  -15.3302   19.2064 N   0  0  0  0  0  0  0  0  0  0  0  0
    9.0998  -15.5431   21.4217 C   0  0  0  0  0  0  0  0  0  0  0  0
    8.0804  -15.3451   22.1822 O   0  0  0  0  0  0  0  0  0  0  0  0
   10.1228  -20.6147   23.6739 N   0  0  0  0  0  0  0  0  0  0  0  0
   11.1000  -19.5385   23.6122 C   0  0  0  0  0  0  0  0  0  0  0  0
   12.0172  -19.6374   24.4357 O   0  0  0  0  0  0  0  0  0  0  0  0
   10.9533  -18.4696   22.6435 C   0  0  0  0  0  0  0  0  0  0  0  0
    9.8703  -17.4397   22.8846 C   0  0  2  0  0  0  0  0  0  0  0  0
   10.0480  -16.5323   21.7228 N   0  0  0  0  0  0  0  0  0  0  0  0
   10.0494  -16.6586   24.1128 C   0  0  0  0  0  0  0  0  0  0  0  0
   11.2396  -16.1999   24.3391 O   0  0  0  0  0  0  0  0  0  0  0  0
    6.3666  -11.1912   25.9267 C   0  0  0  0  0  0  0  0  0  0  0  0
    6.4413  -12.8427   26.6692 S   0  0  0  0  0  0  0  0  0  0  0  0
    8.0412  -13.5603   26.2084 C   0  0  0  0  0  0  0  0  0  0  0  0
    8.2337  -14.9230   26.7781 C   0  0  0  0  0  0  0  0  0  0  0  0
    9.5088  -15.6144   26.3420 C   0  0  2  0  0  0  0  0  0  0  0  0
    9.1240  -16.3145   25.0979 N   0  0  0  0  0  0  0  0  0  0  0  0
    9.9245  -16.5577   27.3774 C   0  0  0  0  0  0  0  0  0  0  0  0
   10.5711  -16.1828   28.4124 O   0  0  0  0  0  0  0  0  0  0  0  0
    9.6478  -17.9158   27.3103 O   0  0  0  0  0  0  0  0  0  0  0  0
  2  1  1  1
  3  2  1  0
  4  2  1  0
  5  4  1  0
  5  6  1  6
  7  8  2  0
  7  5  1  0
 10  9  1  0
 10 12  1  0
 11 10  2  0
 13 12  1  6
 13 14  1  0
 14  7  1  0
 15 16  2  0
 15 13  1  0
 17 18  1  0
 19 20  1  0
 19 18  1  0
 21 22  1  0
 21 20  1  1
 22 15  1  0
 23 21  1  0
 24 23  2  0
 25 23  1  0
M  END
$$$$
