LNM.pdb
     RDKit          3D

 25 24  0  0  1  0  0  0  0  0999 V2000
    9.6423  -12.8556   18.9844 C   0  0  0  0  0  0  0  0  0  0  0  0
    8.2194  -13.3629   19.1011 C   0  0  2  0  0  0  0  0  0  0  0  0
    7.2363  -12.2157   19.2373 C   0  0  0  0  0  0  0  0  0  0  0  0
    8.0287  -14.4226   20.1150 C   0  0  0  0  0  0  0  0  0  0  0  0
    9.0428  -15.5036   20.1822 C   0  0  2  0  0  0  0  0  0  0  0  0
    9.0157  -16.4826   19.1761 N   0  0  0  0  0  0  0  0  0  0  0  0
    9.1404  -16.1588   21.5176 C   0  0  0  0  0  0  0  0  0  0  0  0
    8.0593  -16.1795   22.2158 O   0  0  0  0  0  0  0  0  0  0  0  0
   12.3970  -19.4457   21.1474 N   0  0  0  0  0  0  0  0  0  0  0  0
   11.5640  -19.3862   22.3388 C   0  0  0  0  0  0  0  0  0  0  0  0
   10.8430  -20.3771   22.5044 O   0  0  0  0  0  0  0  0  0  0  0  0
   11.6216  -18.2338   23.2169 C   0  0  0  0  0  0  0  0  0  0  0  0
   10.3818  -17.3736   23.3379 C   0  0  2  0  0  0  0  0  0  0  0  0
   10.3283  -16.7260   22.0029 N   0  0  0  0  0  0  0  0  0  0  0  0
   10.4783  -16.3238   24.3574 C   0  0  0  0  0  0  0  0  0  0  0  0
   11.4801  -15.5087   24.2563 O   0  0  0  0  0  0  0  0  0  0  0  0
    6.1172  -12.5642   26.2541 C   0  0  0  0  0  0  0  0  0  0  0  0
    7.5144  -11.7098   27.0302 S   0  0  0  0  0  0  0  0  0  0  0  0
    8.7866  -12.9597   27.3560 C   0  0  0  0  0  0  0  0  0  0  0  0
    8.8029  -14.0315   26.3217 C   0  0  0  0  0  0  0  0  0  0  0  0
    9.9565  -15.0055   26.4411 C   0  0  2  0  0  0  0  0  0  0  0  0
    9.6441  -16.0483   25.4405 N   0  0  0  0  0  0  0  0  0  0  0  0
    9.9846  -15.5566   27.7939 C   0  0  0  0  0  0  0  0  0  0  0  0
    9.5160  -16.7135   28.0618 O   0  0  0  0  0  0  0  0  0  0  0  0
   10.5186  -14.8681   28.8739 O   0  0  0  0  0  0  0  0  0  0  0  0
  2  1  1  1
  3  2  1  0
  4  2  1  0
  5  4  1  0
  5  6  1  6
  7  8  2  0
  7  5  1  0
 10  9  1  0
 10 12  1  0
 11 10  2  0
 13 12  1  6
 13 14  1  0
 14  7  1  0
 15 16  2  0
 15 13  1  0
 17 18  1  0
 19 20  1  0
 19 18  1  0
 21 22  1  0
 21 20  1  1
 22 15  1  0
 23 21  1  0
 24 23  2  0
 25 23  1  0
M  END
$$$$
