LNM.pdb
     RDKit          3D

 25 24  0  0  1  0  0  0  0  0999 V2000
    7.6706  -12.4120   20.6681 C   0  0  0  0  0  0  0  0  0  0  0  0
    8.1887  -13.6545   19.9729 C   0  0  2  0  0  0  0  0  0  0  0  0
    8.0466  -13.5413   18.4669 C   0  0  0  0  0  0  0  0  0  0  0  0
    7.6631  -14.9249   20.5181 C   0  0  0  0  0  0  0  0  0  0  0  0
    7.7613  -15.1401   21.9828 C   0  0  2  0  0  0  0  0  0  0  0  0
    8.2361  -14.0752   22.7650 N   0  0  0  0  0  0  0  0  0  0  0  0
    8.4680  -16.3963   22.3633 C   0  0  0  0  0  0  0  0  0  0  0  0
    8.0182  -17.4791   21.8325 O   0  0  0  0  0  0  0  0  0  0  0  0
   13.1792  -17.4152   22.0242 N   0  0  0  0  0  0  0  0  0  0  0  0
   11.7740  -17.3145   21.6607 C   0  0  0  0  0  0  0  0  0  0  0  0
   11.5342  -16.4714   20.7883 O   0  0  0  0  0  0  0  0  0  0  0  0
   10.7876  -18.1602   22.3044 C   0  0  0  0  0  0  0  0  0  0  0  0
   10.2127  -17.6970   23.6260 C   0  0  2  0  0  0  0  0  0  0  0  0
    9.5600  -16.4193   23.2438 N   0  0  0  0  0  0  0  0  0  0  0  0
   11.2219  -17.4120   24.6512 C   0  0  0  0  0  0  0  0  0  0  0  0
   11.9719  -18.4029   25.0169 O   0  0  0  0  0  0  0  0  0  0  0  0
    8.0968  -12.3510   28.1221 C   0  0  0  0  0  0  0  0  0  0  0  0
    9.6650  -13.1308   28.5882 S   0  0  0  0  0  0  0  0  0  0  0  0
    9.5248  -14.8914   28.1786 C   0  0  0  0  0  0  0  0  0  0  0  0
   10.0150  -15.1920   26.8046 C   0  0  0  0  0  0  0  0  0  0  0  0
   11.2795  -16.0243   26.7543 C   0  0  2  0  0  0  0  0  0  0  0  0
   11.5183  -16.2179   25.3080 N   0  0  0  0  0  0  0  0  0  0  0  0
   11.0459  -17.2981   27.4309 C   0  0  0  0  0  0  0  0  0  0  0  0
   10.1354  -18.1079   27.0504 O   0  0  0  0  0  0  0  0  0  0  0  0
   11.7910  -17.7146   28.5249 O   0  0  0  0  0  0  0  0  0  0  0  0
  2  1  1  1
  3  2  1  0
  4  2  1  0
  5  4  1  0
  5  6  1  1
  7  8  2  0
  7  5  1  0
 10  9  1  0
 10 12  1  0
 11 10  2  0
 13 12  1  6
 13 14  1  0
 14  7  1  0
 15 16  2  0
 15 13  1  0
 17 18  1  0
 19 20  1  0
 19 18  1  0
 21 22  1  0
 21 20  1  6
 22 15  1  0
 23 21  1  0
 24 23  2  0
 25 23  1  0
M  END
$$$$
