LNM.pdb
     RDKit          3D

 25 24  0  0  1  0  0  0  0  0999 V2000
    9.6059  -13.1083   19.1646 C   0  0  0  0  0  0  0  0  0  0  0  0
    8.1030  -13.2650   19.2757 C   0  0  2  0  0  0  0  0  0  0  0  0
    7.4304  -11.9334   19.5503 C   0  0  0  0  0  0  0  0  0  0  0  0
    7.6660  -14.3428   20.1894 C   0  0  0  0  0  0  0  0  0  0  0  0
    8.2934  -15.6780   20.0313 C   0  0  2  0  0  0  0  0  0  0  0  0
    7.7909  -16.5160   19.0230 N   0  0  0  0  0  0  0  0  0  0  0  0
    8.4161  -16.4429   21.3048 C   0  0  0  0  0  0  0  0  0  0  0  0
    7.3189  -16.9077   21.7913 O   0  0  0  0  0  0  0  0  0  0  0  0
   12.7918  -19.2039   24.4829 N   0  0  0  0  0  0  0  0  0  0  0  0
   11.3758  -18.9158   24.3128 C   0  0  0  0  0  0  0  0  0  0  0  0
   10.6607  -19.3196   25.2374 O   0  0  0  0  0  0  0  0  0  0  0  0
   10.9072  -18.2112   23.1354 C   0  0  0  0  0  0  0  0  0  0  0  0
    9.7079  -17.2998   23.2866 C   0  0  2  0  0  0  0  0  0  0  0  0
    9.6435  -16.6561   21.9501 N   0  0  0  0  0  0  0  0  0  0  0  0
    9.8766  -16.2507   24.2973 C   0  0  0  0  0  0  0  0  0  0  0  0
   10.8632  -15.4298   24.1209 O   0  0  0  0  0  0  0  0  0  0  0  0
    6.1791  -12.1298   25.9452 C   0  0  0  0  0  0  0  0  0  0  0  0
    7.1253  -11.7590   27.4457 S   0  0  0  0  0  0  0  0  0  0  0  0
    8.5118  -12.9258   27.5010 C   0  0  0  0  0  0  0  0  0  0  0  0
    8.4058  -13.9785   26.4526 C   0  0  0  0  0  0  0  0  0  0  0  0
    9.5413  -14.9808   26.4484 C   0  0  2  0  0  0  0  0  0  0  0  0
    9.1265  -15.9812   25.4417 N   0  0  0  0  0  0  0  0  0  0  0  0
    9.6616  -15.5791   27.7758 C   0  0  0  0  0  0  0  0  0  0  0  0
    9.1848  -16.7330   28.0424 O   0  0  0  0  0  0  0  0  0  0  0  0
   10.2977  -14.9417   28.8316 O   0  0  0  0  0  0  0  0  0  0  0  0
  2  1  1  1
  3  2  1  0
  4  2  1  0
  5  4  1  0
  5  6  1  6
  7  8  2  0
  7  5  1  0
 10  9  1  0
 10 12  1  0
 11 10  2  0
 13 12  1  6
 13 14  1  0
 14  7  1  0
 15 16  2  0
 15 13  1  0
 17 18  1  0
 19 20  1  0
 19 18  1  0
 21 22  1  0
 21 20  1  1
 22 15  1  0
 23 21  1  0
 24 23  2  0
 25 23  1  0
M  END
$$$$
