FFL.pdb
     RDKit          3D

 31 32  0  0  1  0  0  0  0  0999 V2000
   25.7757  -20.6098  -18.4120 N   0  0  0  0  0  0  0  0  0  0  0  0
   25.5517  -19.6130  -17.3614 C   0  0  1  0  0  0  0  0  0  0  0  0
   24.1153  -19.1631  -17.5042 C   0  0  0  0  0  0  0  0  0  0  0  0
   24.0748  -18.0830  -18.5043 C   0  0  0  0  0  0  0  0  0  0  0  0
   23.5305  -18.3249  -19.7402 C   0  0  0  0  0  0  0  0  0  0  0  0
   23.4720  -17.3335  -20.7142 C   0  0  0  0  0  0  0  0  0  0  0  0
   23.9794  -16.0982  -20.3970 C   0  0  0  0  0  0  0  0  0  0  0  0
   24.5284  -15.8273  -19.1727 C   0  0  0  0  0  0  0  0  0  0  0  0
   24.5698  -16.8377  -18.2279 C   0  0  0  0  0  0  0  0  0  0  0  0
   25.7537  -20.2662  -16.0241 C   0  0  0  0  0  0  0  0  0  0  0  0
   25.3047  -21.4132  -15.7664 O   0  0  0  0  0  0  0  0  0  0  0  0
   26.4682  -19.5985  -14.9954 N   0  0  0  0  0  0  0  0  0  0  0  0
   26.5896  -20.1132  -13.6382 C   0  0  1  0  0  0  0  0  0  0  0  0
   27.6621  -19.4249  -12.8744 C   0  0  0  0  0  0  0  0  0  0  0  0
   27.8079  -19.8886  -11.4864 C   0  0  0  0  0  0  0  0  0  0  0  0
   28.5443  -20.9764  -11.0749 C   0  0  0  0  0  0  0  0  0  0  0  0
   28.6411  -21.3559   -9.7409 C   0  0  0  0  0  0  0  0  0  0  0  0
   27.9863  -20.6349   -8.7758 C   0  0  0  0  0  0  0  0  0  0  0  0
   27.2362  -19.5353   -9.1513 C   0  0  0  0  0  0  0  0  0  0  0  0
   27.1581  -19.1822  -10.4803 C   0  0  0  0  0  0  0  0  0  0  0  0
   25.3085  -20.0431  -12.9131 C   0  0  0  0  0  0  0  0  0  0  0  0
   24.7025  -18.9514  -12.8612 O   0  0  0  0  0  0  0  0  0  0  0  0
   21.1210  -19.7085  -12.9023 C   0  0  0  0  0  0  0  0  0  0  0  0
   21.7189  -21.0165  -13.3155 C   0  0  2  0  0  0  0  0  0  0  0  0
   20.6422  -21.8868  -13.9798 C   0  0  0  0  0  0  0  0  0  0  0  0
   22.3198  -21.7263  -12.1452 C   0  0  0  0  0  0  0  0  0  0  0  0
   23.5331  -21.1024  -11.5721 C   0  0  2  0  0  0  0  0  0  0  0  0
   24.7550  -21.2129  -12.2699 N   0  0  0  0  0  0  0  0  0  0  0  0
   23.7577  -21.5158  -10.1411 C   0  0  0  0  0  0  0  0  0  0  0  0
   22.8236  -21.1050   -9.2255 O   0  0  0  0  0  0  0  0  0  0  0  0
   24.7606  -22.2056   -9.8183 O   0  0  0  0  0  0  0  0  0  0  0  0
  2  1  1  6
  2 10  1  0
  3  2  1  0
  3  4  1  0
  4  5  2  0
  5  6  1  0
  7  6  2  0
  8  7  1  0
  9  4  1  0
  9  8  2  0
 10 11  2  0
 12 13  1  0
 12 10  1  0
 13 21  1  0
 13 14  1  1
 15 14  1  0
 16 15  2  0
 17 16  1  0
 18 19  1  0
 18 17  2  0
 19 20  2  0
 20 15  1  0
 21 22  2  0
 21 28  1  0
 24 23  1  1
 24 26  1  0
 25 24  1  0
 27 26  1  6
 27 29  1  0
 28 27  1  0
 29 31  2  0
 29 30  1  0
M  END
$$$$
