FFL.pdb
     RDKit          3D

 31 32  0  0  1  0  0  0  0  0999 V2000
   37.6682  -23.6864    5.0821 N   0  0  0  0  0  0  0  0  0  0  0  0
   36.4863  -23.1874    5.7905 C   0  0  1  0  0  0  0  0  0  0  0  0
   35.3003  -23.4976    4.9056 C   0  0  0  0  0  0  0  0  0  0  0  0
   34.3005  -22.4334    5.0963 C   0  0  0  0  0  0  0  0  0  0  0  0
   34.4796  -21.2187    4.4843 C   0  0  0  0  0  0  0  0  0  0  0  0
   33.5603  -20.1861    4.6374 C   0  0  0  0  0  0  0  0  0  0  0  0
   32.4616  -20.4231    5.4253 C   0  0  0  0  0  0  0  0  0  0  0  0
   32.2560  -21.6244    6.0484 C   0  0  0  0  0  0  0  0  0  0  0  0
   33.1916  -22.6292    5.8736 C   0  0  0  0  0  0  0  0  0  0  0  0
   36.3586  -23.9212    7.0948 C   0  0  0  0  0  0  0  0  0  0  0  0
   36.8589  -25.0624    7.2709 O   0  0  0  0  0  0  0  0  0  0  0  0
   35.6589  -23.3399    8.1843 N   0  0  0  0  0  0  0  0  0  0  0  0
   35.6476  -23.9077    9.5256 C   0  0  1  0  0  0  0  0  0  0  0  0
   35.7769  -22.8634   10.5746 C   0  0  0  0  0  0  0  0  0  0  0  0
   34.6476  -21.9232   10.6331 C   0  0  0  0  0  0  0  0  0  0  0  0
   33.4769  -22.1146   11.3313 C   0  0  0  0  0  0  0  0  0  0  0  0
   32.4495  -21.1780   11.3452 C   0  0  0  0  0  0  0  0  0  0  0  0
   32.5820  -20.0076   10.6433 C   0  0  0  0  0  0  0  0  0  0  0  0
   33.7445  -19.7798    9.9294 C   0  0  0  0  0  0  0  0  0  0  0  0
   34.7460  -20.7254    9.9337 C   0  0  0  0  0  0  0  0  0  0  0  0
   34.4477  -24.7313    9.7577 C   0  0  0  0  0  0  0  0  0  0  0  0
   33.4114  -24.4874    9.1032 O   0  0  0  0  0  0  0  0  0  0  0  0
   33.7932  -28.7823    8.8566 C   0  0  0  0  0  0  0  0  0  0  0  0
   34.3422  -28.8046   10.2484 C   0  0  2  0  0  0  0  0  0  0  0  0
   34.4967  -30.2588   10.7167 C   0  0  0  0  0  0  0  0  0  0  0  0
   33.4622  -28.0416   11.1854 C   0  0  0  0  0  0  0  0  0  0  0  0
   33.3060  -26.6007   10.8867 C   0  0  2  0  0  0  0  0  0  0  0  0
   34.4609  -25.8056   10.7243 N   0  0  0  0  0  0  0  0  0  0  0  0
   32.3863  -25.9182   11.8651 C   0  0  0  0  0  0  0  0  0  0  0  0
   32.8548  -24.7749   12.4591 O   0  0  0  0  0  0  0  0  0  0  0  0
   31.2449  -26.3885   12.1141 O   0  0  0  0  0  0  0  0  0  0  0  0
  2  1  1  6
  2 10  1  0
  3  2  1  0
  3  4  1  0
  4  5  2  0
  5  6  1  0
  7  6  2  0
  8  7  1  0
  9  4  1  0
  9  8  2  0
 10 11  2  0
 12 13  1  0
 12 10  1  0
 13 21  1  0
 13 14  1  1
 15 14  1  0
 16 15  2  0
 17 16  1  0
 18 19  1  0
 18 17  2  0
 19 20  2  0
 20 15  1  0
 21 22  2  0
 21 28  1  0
 24 23  1  6
 24 26  1  0
 25 24  1  0
 27 26  1  1
 27 29  1  0
 28 27  1  0
 29 31  2  0
 29 30  1  0
M  END
$$$$
