FFL.pdb
     RDKit          3D

 31 32  0  0  1  0  0  0  0  0999 V2000
   28.4131  -20.7125  -14.7157 N   0  0  0  0  0  0  0  0  0  0  0  0
   27.3245  -19.8425  -14.2623 C   0  0  1  0  0  0  0  0  0  0  0  0
   26.6893  -19.2737  -15.5109 C   0  0  0  0  0  0  0  0  0  0  0  0
   27.5610  -18.1992  -16.0151 C   0  0  0  0  0  0  0  0  0  0  0  0
   27.5634  -16.9791  -15.3877 C   0  0  0  0  0  0  0  0  0  0  0  0
   28.3710  -15.9368  -15.8307 C   0  0  0  0  0  0  0  0  0  0  0  0
   29.1701  -16.1697  -16.9221 C   0  0  0  0  0  0  0  0  0  0  0  0
   29.1890  -17.3762  -17.5685 C   0  0  0  0  0  0  0  0  0  0  0  0
   28.3723  -18.3906  -17.1001 C   0  0  0  0  0  0  0  0  0  0  0  0
   26.3234  -20.6722  -13.5104 C   0  0  0  0  0  0  0  0  0  0  0  0
   26.1532  -21.8953  -13.7526 O   0  0  0  0  0  0  0  0  0  0  0  0
   25.5275  -20.0921  -12.4884 N   0  0  0  0  0  0  0  0  0  0  0  0
   24.5687  -20.8463  -11.6923 C   0  0  1  0  0  0  0  0  0  0  0  0
   24.4579  -20.3207  -10.3071 C   0  0  0  0  0  0  0  0  0  0  0  0
   25.6810  -20.4708   -9.5045 C   0  0  0  0  0  0  0  0  0  0  0  0
   26.0369  -19.6913   -8.4272 C   0  0  0  0  0  0  0  0  0  0  0  0
   27.2107  -19.8932   -7.7099 C   0  0  0  0  0  0  0  0  0  0  0  0
   28.0663  -20.9027   -8.0691 C   0  0  0  0  0  0  0  0  0  0  0  0
   27.7423  -21.7068   -9.1467 C   0  0  0  0  0  0  0  0  0  0  0  0
   26.5727  -21.4839   -9.8391 C   0  0  0  0  0  0  0  0  0  0  0  0
   23.2444  -20.8942  -12.3372 C   0  0  0  0  0  0  0  0  0  0  0  0
   22.8017  -19.8623  -12.8858 O   0  0  0  0  0  0  0  0  0  0  0  0
   21.1822  -22.3632  -16.0689 C   0  0  0  0  0  0  0  0  0  0  0  0
   21.5772  -23.4434  -15.1117 C   0  0  2  0  0  0  0  0  0  0  0  0
   21.2996  -24.8158  -15.7424 C   0  0  0  0  0  0  0  0  0  0  0  0
   20.8483  -23.3044  -13.8141 C   0  0  0  0  0  0  0  0  0  0  0  0
   21.2149  -22.1266  -12.9969 C   0  0  2  0  0  0  0  0  0  0  0  0
   22.4641  -22.1106  -12.3399 N   0  0  0  0  0  0  0  0  0  0  0  0
   20.1424  -21.7765  -11.9987 C   0  0  0  0  0  0  0  0  0  0  0  0
   18.8806  -21.5716  -12.4941 O   0  0  0  0  0  0  0  0  0  0  0  0
   20.4090  -21.6808  -10.7716 O   0  0  0  0  0  0  0  0  0  0  0  0
  2  1  1  6
  2 10  1  0
  3  2  1  0
  3  4  1  0
  4  5  2  0
  5  6  1  0
  7  6  2  0
  8  7  1  0
  9  4  1  0
  9  8  2  0
 10 11  2  0
 12 13  1  0
 12 10  1  0
 13 21  1  0
 13 14  1  1
 15 14  1  0
 16 15  2  0
 17 16  1  0
 18 19  1  0
 18 17  2  0
 19 20  2  0
 20 15  1  0
 21 22  2  0
 21 28  1  0
 24 23  1  6
 24 26  1  0
 25 24  1  0
 27 26  1  1
 27 29  1  0
 28 27  1  0
 29 31  2  0
 29 30  1  0
M  END
$$$$
