FFL.pdb
     RDKit          3D

 31 32  0  0  1  0  0  0  0  0999 V2000
   44.4855  -12.3481   -8.7488 N   0  0  0  0  0  0  0  0  0  0  0  0
   43.6323  -12.1647   -7.5716 C   0  0  1  0  0  0  0  0  0  0  0  0
   44.5515  -11.7583   -6.4420 C   0  0  0  0  0  0  0  0  0  0  0  0
   45.5082  -12.8550   -6.2177 C   0  0  0  0  0  0  0  0  0  0  0  0
   46.8550  -12.6034   -6.2883 C   0  0  0  0  0  0  0  0  0  0  0  0
   47.7932  -13.6098   -6.0833 C   0  0  0  0  0  0  0  0  0  0  0  0
   47.3251  -14.8701   -5.8065 C   0  0  0  0  0  0  0  0  0  0  0  0
   45.9877  -15.1513   -5.7298 C   0  0  0  0  0  0  0  0  0  0  0  0
   45.0827  -14.1254   -5.9394 C   0  0  0  0  0  0  0  0  0  0  0  0
   42.6492  -11.0646   -7.8534 C   0  0  0  0  0  0  0  0  0  0  0  0
   42.8687  -10.1785   -8.7195 O   0  0  0  0  0  0  0  0  0  0  0  0
   41.4244  -10.9912   -7.1400 N   0  0  0  0  0  0  0  0  0  0  0  0
   40.4679   -9.9040   -7.2974 C   0  0  1  0  0  0  0  0  0  0  0  0
   39.0740  -10.3444   -7.0315 C   0  0  0  0  0  0  0  0  0  0  0  0
   38.0901   -9.2518   -7.0049 C   0  0  0  0  0  0  0  0  0  0  0  0
   37.5355   -8.6961   -5.8742 C   0  0  0  0  0  0  0  0  0  0  0  0
   36.6107   -7.6592   -5.9238 C   0  0  0  0  0  0  0  0  0  0  0  0
   36.2177   -7.1509   -7.1351 C   0  0  0  0  0  0  0  0  0  0  0  0
   36.7534   -7.6841   -8.2934 C   0  0  0  0  0  0  0  0  0  0  0  0
   37.6679   -8.7110   -8.2144 C   0  0  0  0  0  0  0  0  0  0  0  0
   40.8166   -8.7463   -6.4546 C   0  0  0  0  0  0  0  0  0  0  0  0
   41.0485   -8.9306   -5.2405 O   0  0  0  0  0  0  0  0  0  0  0  0
   44.5009   -4.3152   -5.9862 C   0  0  0  0  0  0  0  0  0  0  0  0
   43.2959   -4.9524   -5.3689 C   0  0  2  0  0  0  0  0  0  0  0  0
   43.6110   -5.3516   -3.9200 C   0  0  0  0  0  0  0  0  0  0  0  0
   42.8541   -6.1429   -6.1575 C   0  0  0  0  0  0  0  0  0  0  0  0
   41.3920   -6.3614   -6.2221 C   0  0  2  0  0  0  0  0  0  0  0  0
   40.8913   -7.4163   -7.0151 N   0  0  0  0  0  0  0  0  0  0  0  0
   40.6481   -5.1000   -6.5749 C   0  0  0  0  0  0  0  0  0  0  0  0
   40.5476   -4.1472   -5.5942 O   0  0  0  0  0  0  0  0  0  0  0  0
   40.1485   -4.9441   -7.7203 O   0  0  0  0  0  0  0  0  0  0  0  0
  2  1  1  6
  2 10  1  0
  3  2  1  0
  3  4  1  0
  4  5  2  0
  5  6  1  0
  7  6  2  0
  8  7  1  0
  9  4  1  0
  9  8  2  0
 10 11  2  0
 12 13  1  0
 12 10  1  0
 13 21  1  0
 13 14  1  1
 15 14  1  0
 16 15  2  0
 17 16  1  0
 18 19  1  0
 18 17  2  0
 19 20  2  0
 20 15  1  0
 21 22  2  0
 21 28  1  0
 24 23  1  6
 24 26  1  0
 25 24  1  0
 27 26  1  6
 27 29  1  0
 28 27  1  0
 29 31  2  0
 29 30  1  0
M  END
$$$$
