FFL.pdb
     RDKit          3D

 31 32  0  0  1  0  0  0  0  0999 V2000
   19.3906  -14.5761   11.7227 N   0  0  0  0  0  0  0  0  0  0  0  0
   18.7439  -15.7492   11.1284 C   0  0  1  0  0  0  0  0  0  0  0  0
   17.4972  -15.2417   10.4398 C   0  0  0  0  0  0  0  0  0  0  0  0
   16.4450  -15.0903   11.4587 C   0  0  0  0  0  0  0  0  0  0  0  0
   15.4363  -14.1818   11.2603 C   0  0  0  0  0  0  0  0  0  0  0  0
   14.4226  -14.0065   12.1967 C   0  0  0  0  0  0  0  0  0  0  0  0
   14.4645  -14.7764   13.3323 C   0  0  0  0  0  0  0  0  0  0  0  0
   15.4580  -15.6907   13.5578 C   0  0  0  0  0  0  0  0  0  0  0  0
   16.4502  -15.8384   12.6043 C   0  0  0  0  0  0  0  0  0  0  0  0
   19.6761  -16.3558   10.1189 C   0  0  0  0  0  0  0  0  0  0  0  0
   19.3353  -17.3258    9.3932 O   0  0  0  0  0  0  0  0  0  0  0  0
   20.9896  -15.8449    9.9512 N   0  0  0  0  0  0  0  0  0  0  0  0
   21.9342  -16.3652    8.9720 C   0  0  1  0  0  0  0  0  0  0  0  0
   22.4363  -15.3032    8.0623 C   0  0  0  0  0  0  0  0  0  0  0  0
   21.4139  -14.3318    7.6455 C   0  0  0  0  0  0  0  0  0  0  0  0
   21.4200  -12.9852    7.9309 C   0  0  0  0  0  0  0  0  0  0  0  0
   20.4190  -12.1221    7.4997 C   0  0  0  0  0  0  0  0  0  0  0  0
   19.3716  -12.6059    6.7587 C   0  0  0  0  0  0  0  0  0  0  0  0
   19.3312  -13.9539    6.4522 C   0  0  0  0  0  0  0  0  0  0  0  0
   20.3367  -14.7859    6.8925 C   0  0  0  0  0  0  0  0  0  0  0  0
   23.0563  -17.0684    9.6188 C   0  0  0  0  0  0  0  0  0  0  0  0
   23.9315  -17.5985    8.9013 O   0  0  0  0  0  0  0  0  0  0  0  0
   26.6709  -15.6100   11.1494 C   0  0  0  0  0  0  0  0  0  0  0  0
   25.4695  -15.6843   12.0384 C   0  0  2  0  0  0  0  0  0  0  0  0
   25.6771  -14.7771   13.2598 C   0  0  0  0  0  0  0  0  0  0  0  0
   25.2050  -17.0914   12.4679 C   0  0  0  0  0  0  0  0  0  0  0  0
   24.2338  -17.8413   11.6409 C   0  0  2  0  0  0  0  0  0  0  0  0
   23.1507  -17.1483   11.0587 N   0  0  0  0  0  0  0  0  0  0  0  0
   23.6990  -19.0531   12.3584 C   0  0  0  0  0  0  0  0  0  0  0  0
   24.6225  -19.8923   12.9264 O   0  0  0  0  0  0  0  0  0  0  0  0
   22.4603  -19.2700   12.4241 O   0  0  0  0  0  0  0  0  0  0  0  0
  2  1  1  6
  2 10  1  0
  3  2  1  0
  3  4  1  0
  4  5  2  0
  5  6  1  0
  7  6  2  0
  8  7  1  0
  9  4  1  0
  9  8  2  0
 10 11  2  0
 12 13  1  0
 12 10  1  0
 13 21  1  0
 13 14  1  1
 15 14  1  0
 16 15  2  0
 17 16  1  0
 18 19  1  0
 18 17  2  0
 19 20  2  0
 20 15  1  0
 21 22  2  0
 21 28  1  0
 24 23  1  6
 24 26  1  0
 25 24  1  0
 27 26  1  1
 27 29  1  0
 28 27  1  0
 29 31  2  0
 29 30  1  0
M  END
$$$$
