FFL.pdb
     RDKit          3D

 31 32  0  0  1  0  0  0  0  0999 V2000
   34.8564  -36.0810  -13.7866 N   0  0  0  0  0  0  0  0  0  0  0  0
   34.6822  -34.8878  -12.9539 C   0  0  1  0  0  0  0  0  0  0  0  0
   33.4650  -34.1702  -13.4920 C   0  0  0  0  0  0  0  0  0  0  0  0
   33.8466  -33.5105  -14.7520 C   0  0  0  0  0  0  0  0  0  0  0  0
   33.1174  -33.7497  -15.8892 C   0  0  0  0  0  0  0  0  0  0  0  0
   33.4429  -33.1477  -17.1003 C   0  0  0  0  0  0  0  0  0  0  0  0
   34.5235  -32.3016  -17.1208 C   0  0  0  0  0  0  0  0  0  0  0  0
   35.2697  -32.0436  -16.0026 C   0  0  0  0  0  0  0  0  0  0  0  0
   34.9168  -32.6602  -14.8149 C   0  0  0  0  0  0  0  0  0  0  0  0
   34.4378  -35.3190  -11.5360 C   0  0  0  0  0  0  0  0  0  0  0  0
   33.8721  -36.4080  -11.2572 O   0  0  0  0  0  0  0  0  0  0  0  0
   34.8441  -34.4980  -10.4519 N   0  0  0  0  0  0  0  0  0  0  0  0
   34.5647  -34.8135   -9.0575 C   0  0  1  0  0  0  0  0  0  0  0  0
   35.6896  -34.4351   -8.1638 C   0  0  0  0  0  0  0  0  0  0  0  0
   35.4433  -34.6988   -6.7381 C   0  0  0  0  0  0  0  0  0  0  0  0
   34.8223  -33.8426   -5.8573 C   0  0  0  0  0  0  0  0  0  0  0  0
   34.6188  -34.1602   -4.5191 C   0  0  0  0  0  0  0  0  0  0  0  0
   35.0445  -35.3687   -4.0310 C   0  0  0  0  0  0  0  0  0  0  0  0
   35.6730  -36.2554   -4.8864 C   0  0  0  0  0  0  0  0  0  0  0  0
   35.8612  -35.9143   -6.2075 C   0  0  0  0  0  0  0  0  0  0  0  0
   33.3076  -34.1944   -8.6010 C   0  0  0  0  0  0  0  0  0  0  0  0
   33.1079  -32.9843   -8.8410 O   0  0  0  0  0  0  0  0  0  0  0  0
   27.4992  -34.5969   -8.7816 C   0  0  0  0  0  0  0  0  0  0  0  0
   28.6331  -33.9884   -8.0180 C   0  0  2  0  0  0  0  0  0  0  0  0
   28.5733  -32.4589   -8.1409 C   0  0  0  0  0  0  0  0  0  0  0  0
   29.9482  -34.5038   -8.5071 C   0  0  0  0  0  0  0  0  0  0  0  0
   31.0796  -34.3697   -7.5628 C   0  0  2  0  0  0  0  0  0  0  0  0
   32.3168  -34.9669   -7.8868 N   0  0  0  0  0  0  0  0  0  0  0  0
   30.6991  -34.7806   -6.1645 C   0  0  0  0  0  0  0  0  0  0  0  0
   31.3503  -35.8677   -5.6413 O   0  0  0  0  0  0  0  0  0  0  0  0
   29.8228  -34.1452   -5.5207 O   0  0  0  0  0  0  0  0  0  0  0  0
  2  1  1  6
  2 10  1  0
  3  2  1  0
  3  4  1  0
  4  5  2  0
  5  6  1  0
  7  6  2  0
  8  7  1  0
  9  4  1  0
  9  8  2  0
 10 11  2  0
 12 13  1  0
 12 10  1  0
 13 21  1  0
 13 14  1  1
 15 14  1  0
 16 15  2  0
 17 16  1  0
 18 19  1  0
 18 17  2  0
 19 20  2  0
 20 15  1  0
 21 22  2  0
 21 28  1  0
 24 23  1  6
 24 26  1  0
 25 24  1  0
 27 26  1  6
 27 29  1  0
 28 27  1  0
 29 31  2  0
 29 30  1  0
M  END
$$$$
