FFL.pdb
     RDKit          3D

 31 32  0  0  1  0  0  0  0  0999 V2000
   19.4782   -7.6278  -16.8442 N   0  0  0  0  0  0  0  0  0  0  0  0
   19.2319   -6.2937  -16.2901 C   0  0  1  0  0  0  0  0  0  0  0  0
   18.1255   -5.6871  -17.1232 C   0  0  0  0  0  0  0  0  0  0  0  0
   18.7057   -5.2603  -18.4076 C   0  0  0  0  0  0  0  0  0  0  0  0
   18.5089   -6.0278  -19.5276 C   0  0  0  0  0  0  0  0  0  0  0  0
   19.0389   -5.6620  -20.7606 C   0  0  0  0  0  0  0  0  0  0  0  0
   19.7693   -4.5015  -20.8208 C   0  0  0  0  0  0  0  0  0  0  0  0
   19.9824   -3.7154  -19.7206 C   0  0  0  0  0  0  0  0  0  0  0  0
   19.4401   -4.1104  -18.5102 C   0  0  0  0  0  0  0  0  0  0  0  0
   18.7802   -6.4378  -14.8649 C   0  0  0  0  0  0  0  0  0  0  0  0
   17.9830   -7.3427  -14.5052 O   0  0  0  0  0  0  0  0  0  0  0  0
   19.2465   -5.5436  -13.8662 N   0  0  0  0  0  0  0  0  0  0  0  0
   18.8826   -5.6506  -12.4598 C   0  0  1  0  0  0  0  0  0  0  0  0
   20.0139   -6.1322  -11.6259 C   0  0  0  0  0  0  0  0  0  0  0  0
   20.9088   -7.0778  -12.3099 C   0  0  0  0  0  0  0  0  0  0  0  0
   21.7695   -6.7698  -13.3389 C   0  0  0  0  0  0  0  0  0  0  0  0
   22.5923   -7.7169  -13.9381 C   0  0  0  0  0  0  0  0  0  0  0  0
   22.5648   -9.0178  -13.5058 C   0  0  0  0  0  0  0  0  0  0  0  0
   21.7122   -9.3652  -12.4736 C   0  0  0  0  0  0  0  0  0  0  0  0
   20.9083   -8.4060  -11.8985 C   0  0  0  0  0  0  0  0  0  0  0  0
   18.3560   -4.3778  -11.9358 C   0  0  0  0  0  0  0  0  0  0  0  0
   19.0127   -3.3306  -12.1197 O   0  0  0  0  0  0  0  0  0  0  0  0
   15.8413   -1.3617  -12.9584 C   0  0  0  0  0  0  0  0  0  0  0  0
   14.9535   -2.4087  -12.3628 C   0  0  2  0  0  0  0  0  0  0  0  0
   13.4857   -1.9819  -12.5090 C   0  0  0  0  0  0  0  0  0  0  0  0
   15.2911   -2.6455  -10.9260 C   0  0  0  0  0  0  0  0  0  0  0  0
   16.6707   -3.1102  -10.6607 C   0  0  2  0  0  0  0  0  0  0  0  0
   17.1014   -4.3325  -11.2200 N   0  0  0  0  0  0  0  0  0  0  0  0
   16.9909   -3.1158   -9.1888 C   0  0  0  0  0  0  0  0  0  0  0  0
   16.8289   -1.9319   -8.5167 O   0  0  0  0  0  0  0  0  0  0  0  0
   17.3872   -4.1663   -8.6184 O   0  0  0  0  0  0  0  0  0  0  0  0
  2  1  1  6
  2 10  1  0
  3  2  1  0
  3  4  1  0
  4  5  2  0
  5  6  1  0
  7  6  2  0
  8  7  1  0
  9  4  1  0
  9  8  2  0
 10 11  2  0
 12 13  1  0
 12 10  1  0
 13 21  1  0
 13 14  1  1
 15 14  1  0
 16 15  2  0
 17 16  1  0
 18 19  1  0
 18 17  2  0
 19 20  2  0
 20 15  1  0
 21 22  2  0
 21 28  1  0
 24 23  1  1
 24 26  1  0
 25 24  1  0
 27 26  1  1
 27 29  1  0
 28 27  1  0
 29 31  2  0
 29 30  1  0
M  END
$$$$
