FFL.pdb
     RDKit          3D

 31 32  0  0  1  0  0  0  0  0999 V2000
   17.8890  -12.8406    4.5215 N   0  0  0  0  0  0  0  0  0  0  0  0
   17.2477  -14.1231    4.2192 C   0  0  1  0  0  0  0  0  0  0  0  0
   17.8868  -14.6257    2.9444 C   0  0  0  0  0  0  0  0  0  0  0  0
   17.2170  -15.8808    2.5645 C   0  0  0  0  0  0  0  0  0  0  0  0
   17.9516  -17.0345    2.4572 C   0  0  0  0  0  0  0  0  0  0  0  0
   17.3593  -18.2417    2.1010 C   0  0  0  0  0  0  0  0  0  0  0  0
   16.0082  -18.2413    1.8590 C   0  0  0  0  0  0  0  0  0  0  0  0
   15.2495  -17.1063    1.9581 C   0  0  0  0  0  0  0  0  0  0  0  0
   15.8723  -15.9231    2.3148 C   0  0  0  0  0  0  0  0  0  0  0  0
   17.5254  -15.0796    5.3435 C   0  0  0  0  0  0  0  0  0  0  0  0
   18.6696  -15.1960    5.8541 O   0  0  0  0  0  0  0  0  0  0  0  0
   16.4890  -15.8930    5.8714 N   0  0  0  0  0  0  0  0  0  0  0  0
   16.6792  -16.8136    6.9841 C   0  0  1  0  0  0  0  0  0  0  0  0
   15.6562  -16.6254    8.0450 C   0  0  0  0  0  0  0  0  0  0  0  0
   15.7971  -17.5390    9.1887 C   0  0  0  0  0  0  0  0  0  0  0  0
   16.6812  -17.3898   10.2332 C   0  0  0  0  0  0  0  0  0  0  0  0
   16.7574  -18.2937   11.2869 C   0  0  0  0  0  0  0  0  0  0  0  0
   15.9299  -19.3867   11.3112 C   0  0  0  0  0  0  0  0  0  0  0  0
   15.0283  -19.5702   10.2785 C   0  0  0  0  0  0  0  0  0  0  0  0
   14.9746  -18.6586    9.2475 C   0  0  0  0  0  0  0  0  0  0  0  0
   16.7062  -18.2159    6.5314 C   0  0  0  0  0  0  0  0  0  0  0  0
   15.9196  -18.5750    5.6292 O   0  0  0  0  0  0  0  0  0  0  0  0
   19.8684  -22.5848    4.3852 C   0  0  0  0  0  0  0  0  0  0  0  0
   18.5527  -22.1892    4.9781 C   0  0  2  0  0  0  0  0  0  0  0  0
   17.4456  -22.3507    3.9263 C   0  0  0  0  0  0  0  0  0  0  0  0
   18.5932  -20.7842    5.4868 C   0  0  0  0  0  0  0  0  0  0  0  0
   17.6727  -20.4816    6.6053 C   0  0  2  0  0  0  0  0  0  0  0  0
   17.6244  -19.1666    7.1160 N   0  0  0  0  0  0  0  0  0  0  0  0
   17.8492  -21.4378    7.7557 C   0  0  0  0  0  0  0  0  0  0  0  0
   17.1372  -22.6081    7.7011 O   0  0  0  0  0  0  0  0  0  0  0  0
   18.6179  -21.1602    8.7138 O   0  0  0  0  0  0  0  0  0  0  0  0
  2  1  1  1
  2 10  1  0
  3  2  1  0
  3  4  1  0
  4  5  2  0
  5  6  1  0
  7  6  2  0
  8  7  1  0
  9  4  1  0
  9  8  2  0
 10 11  2  0
 12 13  1  0
 12 10  1  0
 13 21  1  0
 13 14  1  1
 15 14  1  0
 16 15  2  0
 17 16  1  0
 18 19  1  0
 18 17  2  0
 19 20  2  0
 20 15  1  0
 21 22  2  0
 21 28  1  0
 24 23  1  6
 24 26  1  0
 25 24  1  0
 27 26  1  6
 27 29  1  0
 28 27  1  0
 29 31  2  0
 29 30  1  0
M  END
$$$$
