HET.pdb
     RDKit          3D

 27 27  0  0  1  0  0  0  0  0999 V2000
    8.6045  -17.3850   16.6327 N   0  0  0  0  0  0  0  0  0  0  0  0
    8.9101  -16.2145   17.4098 C   0  0  1  0  0  0  0  0  0  0  0  0
    7.8765  -15.1351   17.3024 C   0  0  0  0  0  0  0  0  0  0  0  0
    7.8612  -14.6319   15.9140 C   0  0  0  0  0  0  0  0  0  0  0  0
    8.5103  -13.4799   15.4689 C   0  0  0  0  0  0  0  0  0  0  0  0
    8.2615  -13.3598   14.1590 N   0  0  0  0  0  0  0  0  0  0  0  0
    7.4908  -14.3829   13.7797 C   0  0  0  0  0  0  0  0  0  0  0  0
    7.2463  -15.1557   14.8407 N   0  0  0  0  0  0  0  0  0  0  0  0
    9.1350  -16.6296   18.8235 C   0  0  0  0  0  0  0  0  0  0  0  0
    8.1930  -17.0504   19.5541 O   0  0  0  0  0  0  0  0  0  0  0  0
   10.4281  -16.5765   19.4370 N   0  0  0  0  0  0  0  0  0  0  0  0
   10.6333  -17.0552   20.7733 C   0  0  1  0  0  0  0  0  0  0  0  0
   11.9639  -17.6771   21.0326 C   0  0  0  0  0  0  0  0  0  0  0  0
   12.2264  -18.2454   22.3690 C   0  0  0  0  0  0  0  0  0  0  0  0
   12.6681  -19.6437   22.4392 C   0  0  0  0  0  0  0  0  0  0  0  0
   13.5689  -20.0314   21.6482 O   0  0  0  0  0  0  0  0  0  0  0  0
   10.3543  -15.9844   21.7857 C   0  0  0  0  0  0  0  0  0  0  0  0
   10.9930  -14.9015   21.8015 O   0  0  0  0  0  0  0  0  0  0  0  0
   12.1539  -20.5706   23.3263 O   0  0  0  0  0  0  0  0  0  0  0  0
    7.4964  -13.8530   22.4832 C   0  0  0  0  0  0  0  0  0  0  0  0
    7.7411  -14.6787   23.7157 C   0  0  1  0  0  0  0  0  0  0  0  0
    6.8471  -15.7483   23.6979 O   0  0  0  0  0  0  0  0  0  0  0  0
    9.1742  -15.1708   23.8005 C   0  0  2  0  0  0  0  0  0  0  0  0
    9.3453  -16.1706   22.7661 N   0  0  0  0  0  0  0  0  0  0  0  0
    9.3621  -15.7334   25.1563 C   0  0  0  0  0  0  0  0  0  0  0  0
    9.2819  -14.9249   26.2774 O   0  0  0  0  0  0  0  0  0  0  0  0
    9.5988  -16.9515   25.3396 O   0  0  0  0  0  0  0  0  0  0  0  0
  2  1  1  6
  2  3  1  0
  4  3  1  0
  4  8  1  0
  5  6  1  0
  5  4  2  0
  6  7  1  0
  7  8  2  0
  9  2  1  0
  9 10  2  0
 11  9  1  0
 12 11  1  0
 12 13  1  6
 14 13  1  0
 15 14  1  0
 16 15  2  0
 17 12  1  0
 17 18  2  0
 19 15  1  0
 21 20  1  6
 21 23  1  0
 22 21  1  0
 23 24  1  6
 23 25  1  0
 24 17  1  0
 25 26  1  0
 27 25  2  0
M  END
$$$$
