HET.pdb
     RDKit          3D

 27 27  0  0  1  0  0  0  0  0999 V2000
   10.1223  -15.9433   17.7064 N   0  0  0  0  0  0  0  0  0  0  0  0
    9.1671  -15.2581   18.5344 C   0  0  1  0  0  0  0  0  0  0  0  0
    7.7813  -15.2406   17.9648 C   0  0  0  0  0  0  0  0  0  0  0  0
    7.8405  -14.6938   16.5943 C   0  0  0  0  0  0  0  0  0  0  0  0
    8.3069  -13.4235   16.2546 C   0  0  0  0  0  0  0  0  0  0  0  0
    8.2023  -13.2996   14.9257 N   0  0  0  0  0  0  0  0  0  0  0  0
    7.6942  -14.4332   14.4343 C   0  0  0  0  0  0  0  0  0  0  0  0
    7.4738  -15.2802   15.4427 N   0  0  0  0  0  0  0  0  0  0  0  0
    9.2003  -15.8628   19.8963 C   0  0  0  0  0  0  0  0  0  0  0  0
    8.1628  -15.9522   20.6131 O   0  0  0  0  0  0  0  0  0  0  0  0
   10.4064  -16.3772   20.4725 N   0  0  0  0  0  0  0  0  0  0  0  0
   10.4117  -16.9534   21.7860 C   0  0  1  0  0  0  0  0  0  0  0  0
   11.6128  -17.7720   22.1203 C   0  0  0  0  0  0  0  0  0  0  0  0
   11.6794  -18.4140   23.4474 C   0  0  0  0  0  0  0  0  0  0  0  0
   12.8865  -19.1842   23.7711 C   0  0  0  0  0  0  0  0  0  0  0  0
   12.7611  -20.3993   24.0798 O   0  0  0  0  0  0  0  0  0  0  0  0
   10.1834  -15.9114   22.8402 C   0  0  0  0  0  0  0  0  0  0  0  0
   11.0034  -14.9799   23.0432 O   0  0  0  0  0  0  0  0  0  0  0  0
   14.1638  -18.6563   23.7584 O   0  0  0  0  0  0  0  0  0  0  0  0
    7.4144  -13.4460   23.4381 C   0  0  0  0  0  0  0  0  0  0  0  0
    7.5076  -14.3756   24.6162 C   0  0  1  0  0  0  0  0  0  0  0  0
    6.5207  -15.3494   24.4711 O   0  0  0  0  0  0  0  0  0  0  0  0
    8.8812  -15.0093   24.7387 C   0  0  2  0  0  0  0  0  0  0  0  0
    9.0166  -15.9519   23.6469 N   0  0  0  0  0  0  0  0  0  0  0  0
    8.9379  -15.6741   26.0596 C   0  0  0  0  0  0  0  0  0  0  0  0
    8.8992  -14.9337   27.2289 O   0  0  0  0  0  0  0  0  0  0  0  0
    9.0224  -16.9208   26.1691 O   0  0  0  0  0  0  0  0  0  0  0  0
  2  1  1  6
  2  3  1  0
  4  3  1  0
  4  8  1  0
  5  6  1  0
  5  4  2  0
  6  7  1  0
  7  8  2  0
  9  2  1  0
  9 10  2  0
 11  9  1  0
 12 11  1  0
 12 13  1  1
 14 13  1  0
 15 14  1  0
 16 15  2  0
 17 12  1  0
 17 18  2  0
 19 15  1  0
 21 20  1  6
 21 23  1  0
 22 21  1  0
 23 24  1  6
 23 25  1  0
 24 17  1  0
 25 26  1  0
 27 25  2  0
M  END
$$$$
