HET.pdb
     RDKit          3D

 27 27  0  0  1  0  0  0  0  0999 V2000
    9.4453  -17.2723   17.4332 N   0  0  0  0  0  0  0  0  0  0  0  0
    9.7953  -16.2701   18.4031 C   0  0  1  0  0  0  0  0  0  0  0  0
    8.6468  -15.3958   18.8051 C   0  0  0  0  0  0  0  0  0  0  0  0
    8.1841  -14.6481   17.6187 C   0  0  0  0  0  0  0  0  0  0  0  0
    8.4081  -13.2909   17.3856 C   0  0  0  0  0  0  0  0  0  0  0  0
    7.8379  -12.9854   16.2135 N   0  0  0  0  0  0  0  0  0  0  0  0
    7.2750  -14.0904   15.7168 C   0  0  0  0  0  0  0  0  0  0  0  0
    7.4829  -15.0998   16.5658 N   0  0  0  0  0  0  0  0  0  0  0  0
   10.4181  -16.9442   19.5775 C   0  0  0  0  0  0  0  0  0  0  0  0
    9.8497  -17.9005   20.1779 O   0  0  0  0  0  0  0  0  0  0  0  0
   11.6942  -16.5496   20.0945 N   0  0  0  0  0  0  0  0  0  0  0  0
   12.2787  -17.2249   21.2167 C   0  0  1  0  0  0  0  0  0  0  0  0
   13.7697  -17.2543   21.2398 C   0  0  0  0  0  0  0  0  0  0  0  0
   14.4770  -17.9348   20.1377 C   0  0  0  0  0  0  0  0  0  0  0  0
   15.9447  -17.9389   20.1709 C   0  0  0  0  0  0  0  0  0  0  0  0
   16.5484  -19.0294   19.9869 O   0  0  0  0  0  0  0  0  0  0  0  0
   11.7496  -16.6878   22.5132 C   0  0  0  0  0  0  0  0  0  0  0  0
   11.4727  -15.4707   22.6653 O   0  0  0  0  0  0  0  0  0  0  0  0
   16.7136  -16.8121   20.3930 O   0  0  0  0  0  0  0  0  0  0  0  0
    9.6138  -15.4266   23.4621 C   0  0  0  0  0  0  0  0  0  0  0  0
    9.5854  -16.5141   24.5002 C   0  0  1  0  0  0  0  0  0  0  0  0
    8.7834  -17.5463   24.0158 O   0  0  0  0  0  0  0  0  0  0  0  0
   10.9757  -17.0201   24.8380 C   0  0  2  0  0  0  0  0  0  0  0  0
   11.5448  -17.5549   23.6177 N   0  0  0  0  0  0  0  0  0  0  0  0
   10.8200  -18.0572   25.8820 C   0  0  0  0  0  0  0  0  0  0  0  0
   10.9916  -19.3979   25.5816 O   0  0  0  0  0  0  0  0  0  0  0  0
   10.5298  -17.7644   27.0667 O   0  0  0  0  0  0  0  0  0  0  0  0
  2  1  1  6
  2  3  1  0
  4  3  1  0
  4  8  1  0
  5  6  1  0
  5  4  2  0
  6  7  1  0
  7  8  2  0
  9  2  1  0
  9 10  2  0
 11  9  1  0
 12 11  1  0
 12 13  1  1
 14 13  1  0
 15 14  1  0
 16 15  2  0
 17 12  1  0
 17 18  2  0
 19 15  1  0
 21 20  1  6
 21 23  1  0
 22 21  1  0
 23 24  1  6
 23 25  1  0
 24 17  1  0
 25 26  1  0
 27 25  2  0
M  END
$$$$
