HET.pdb
     RDKit          3D

 27 27  0  0  1  0  0  0  0  0999 V2000
    8.5621  -16.5511   19.6885 N   0  0  0  0  0  0  0  0  0  0  0  0
    8.2963  -15.3341   20.4066 C   0  0  1  0  0  0  0  0  0  0  0  0
    7.1579  -14.5398   19.8423 C   0  0  0  0  0  0  0  0  0  0  0  0
    7.4701  -14.1968   18.4403 C   0  0  0  0  0  0  0  0  0  0  0  0
    8.3431  -13.1868   18.0347 C   0  0  0  0  0  0  0  0  0  0  0  0
    8.3607  -13.1852   16.6961 N   0  0  0  0  0  0  0  0  0  0  0  0
    7.5404  -14.1459   16.2615 C   0  0  0  0  0  0  0  0  0  0  0  0
    6.9990  -14.7608   17.3159 N   0  0  0  0  0  0  0  0  0  0  0  0
    8.0820  -15.6685   21.8431 C   0  0  0  0  0  0  0  0  0  0  0  0
    6.9240  -15.7741   22.3390 O   0  0  0  0  0  0  0  0  0  0  0  0
    9.1725  -15.8896   22.7450 N   0  0  0  0  0  0  0  0  0  0  0  0
    8.9393  -16.2050   24.1246 C   0  0  1  0  0  0  0  0  0  0  0  0
    9.7388  -17.3425   24.6645 C   0  0  0  0  0  0  0  0  0  0  0  0
    9.5753  -17.7054   26.0856 C   0  0  0  0  0  0  0  0  0  0  0  0
   10.4113  -18.7916   26.6112 C   0  0  0  0  0  0  0  0  0  0  0  0
   11.2203  -19.3608   25.8308 O   0  0  0  0  0  0  0  0  0  0  0  0
    9.1024  -14.9955   24.9963 C   0  0  0  0  0  0  0  0  0  0  0  0
   10.1562  -14.3095   24.9913 O   0  0  0  0  0  0  0  0  0  0  0  0
   10.3672  -19.2336   27.9200 O   0  0  0  0  0  0  0  0  0  0  0  0
    6.7353  -11.8824   25.6787 C   0  0  0  0  0  0  0  0  0  0  0  0
    6.9948  -12.7185   26.9011 C   0  0  1  0  0  0  0  0  0  0  0  0
    5.9059  -13.5715   27.0744 O   0  0  0  0  0  0  0  0  0  0  0  0
    8.2883  -13.5049   26.7933 C   0  0  2  0  0  0  0  0  0  0  0  0
    8.0536  -14.5892   25.8615 N   0  0  0  0  0  0  0  0  0  0  0  0
    8.6136  -13.9967   28.1506 C   0  0  0  0  0  0  0  0  0  0  0  0
    8.8965  -13.1117   29.1772 O   0  0  0  0  0  0  0  0  0  0  0  0
    8.6449  -15.2214   28.4201 O   0  0  0  0  0  0  0  0  0  0  0  0
  2  1  1  6
  2  3  1  0
  4  3  1  0
  4  8  1  0
  5  6  1  0
  5  4  2  0
  6  7  1  0
  7  8  2  0
  9  2  1  0
  9 10  2  0
 11  9  1  0
 12 11  1  0
 12 13  1  1
 14 13  1  0
 15 14  1  0
 16 15  2  0
 17 12  1  0
 17 18  2  0
 19 15  1  0
 21 20  1  6
 21 23  1  0
 22 21  1  0
 23 24  1  6
 23 25  1  0
 24 17  1  0
 25 26  1  0
 27 25  2  0
M  END
$$$$
