HET.pdb
     RDKit          3D

 27 27  0  0  1  0  0  0  0  0999 V2000
   10.1031  -15.7701   20.1535 N   0  0  0  0  0  0  0  0  0  0  0  0
    8.8298  -15.2497   20.5721 C   0  0  1  0  0  0  0  0  0  0  0  0
    7.6819  -15.7238   19.7338 C   0  0  0  0  0  0  0  0  0  0  0  0
    7.6865  -14.9766   18.4601 C   0  0  0  0  0  0  0  0  0  0  0  0
    8.6489  -15.1018   17.4577 C   0  0  0  0  0  0  0  0  0  0  0  0
    8.3094  -14.2659   16.4686 N   0  0  0  0  0  0  0  0  0  0  0  0
    7.1849  -13.6342   16.8165 C   0  0  0  0  0  0  0  0  0  0  0  0
    6.8048  -14.0625   18.0228 N   0  0  0  0  0  0  0  0  0  0  0  0
    8.6360  -15.5738   22.0139 C   0  0  0  0  0  0  0  0  0  0  0  0
    7.5497  -15.3307   22.6132 O   0  0  0  0  0  0  0  0  0  0  0  0
    9.6661  -16.1785   22.8042 N   0  0  0  0  0  0  0  0  0  0  0  0
    9.4377  -16.5257   24.1770 C   0  0  1  0  0  0  0  0  0  0  0  0
   10.3064  -17.6122   24.7149 C   0  0  0  0  0  0  0  0  0  0  0  0
   10.3287  -18.9087   24.0103 C   0  0  0  0  0  0  0  0  0  0  0  0
   11.0480  -20.0179   24.6487 C   0  0  0  0  0  0  0  0  0  0  0  0
   12.1270  -19.7696   25.2499 O   0  0  0  0  0  0  0  0  0  0  0  0
    9.5065  -15.3184   25.0642 C   0  0  0  0  0  0  0  0  0  0  0  0
   10.5603  -14.6437   25.1885 O   0  0  0  0  0  0  0  0  0  0  0  0
   10.6125  -21.3296   24.6323 O   0  0  0  0  0  0  0  0  0  0  0  0
    7.0202  -12.2706   25.2203 C   0  0  0  0  0  0  0  0  0  0  0  0
    7.1513  -12.9832   26.5378 C   0  0  1  0  0  0  0  0  0  0  0  0
    6.0660  -13.8488   26.6653 O   0  0  0  0  0  0  0  0  0  0  0  0
    8.4633  -13.7372   26.6533 C   0  0  2  0  0  0  0  0  0  0  0  0
    8.3648  -14.9012   25.7964 N   0  0  0  0  0  0  0  0  0  0  0  0
    8.6302  -14.1054   28.0769 C   0  0  0  0  0  0  0  0  0  0  0  0
    8.8418  -13.1344   29.0409 O   0  0  0  0  0  0  0  0  0  0  0  0
    8.5868  -15.2989   28.4605 O   0  0  0  0  0  0  0  0  0  0  0  0
  2  1  1  6
  2  3  1  0
  4  3  1  0
  4  8  1  0
  5  6  1  0
  5  4  2  0
  6  7  1  0
  7  8  2  0
  9  2  1  0
  9 10  2  0
 11  9  1  0
 12 11  1  0
 12 13  1  1
 14 13  1  0
 15 14  1  0
 16 15  2  0
 17 12  1  0
 17 18  2  0
 19 15  1  0
 21 20  1  6
 21 23  1  0
 22 21  1  0
 23 24  1  6
 23 25  1  0
 24 17  1  0
 25 26  1  0
 27 25  2  0
M  END
$$$$
