HET.pdb
     RDKit          3D

 27 27  0  0  1  0  0  0  0  0999 V2000
    8.0723  -17.1020   20.3125 N   0  0  0  0  0  0  0  0  0  0  0  0
    8.6549  -16.0660   21.1217 C   0  0  1  0  0  0  0  0  0  0  0  0
    7.7846  -14.8546   21.2650 C   0  0  0  0  0  0  0  0  0  0  0  0
    7.8056  -14.1044   19.9932 C   0  0  0  0  0  0  0  0  0  0  0  0
    7.4204  -14.6136   18.7527 C   0  0  0  0  0  0  0  0  0  0  0  0
    7.5808  -13.6374   17.8507 N   0  0  0  0  0  0  0  0  0  0  0  0
    8.0459  -12.5540   18.4789 C   0  0  0  0  0  0  0  0  0  0  0  0
    8.1833  -12.8336   19.7773 N   0  0  0  0  0  0  0  0  0  0  0  0
    9.0205  -16.6470   22.4445 C   0  0  0  0  0  0  0  0  0  0  0  0
    8.2413  -17.4182   23.0739 O   0  0  0  0  0  0  0  0  0  0  0  0
   10.2732  -16.3670   23.0799 N   0  0  0  0  0  0  0  0  0  0  0  0
   10.5927  -16.9227   24.3630 C   0  0  1  0  0  0  0  0  0  0  0  0
   11.7921  -17.8086   24.3955 C   0  0  0  0  0  0  0  0  0  0  0  0
   12.1428  -18.4714   25.6666 C   0  0  0  0  0  0  0  0  0  0  0  0
   13.3248  -19.3421   25.6765 C   0  0  0  0  0  0  0  0  0  0  0  0
   14.3113  -19.0105   26.3866 O   0  0  0  0  0  0  0  0  0  0  0  0
   10.7083  -15.8531   25.4078 C   0  0  0  0  0  0  0  0  0  0  0  0
   11.5591  -14.9310   25.3241 O   0  0  0  0  0  0  0  0  0  0  0  0
   13.4250  -20.5136   24.9499 O   0  0  0  0  0  0  0  0  0  0  0  0
    8.3380  -13.2349   26.5012 C   0  0  0  0  0  0  0  0  0  0  0  0
    8.6376  -14.1355   27.6674 C   0  0  1  0  0  0  0  0  0  0  0  0
    7.6120  -15.0755   27.7558 O   0  0  0  0  0  0  0  0  0  0  0  0
    9.9875  -14.8161   27.5336 C   0  0  2  0  0  0  0  0  0  0  0  0
    9.8455  -15.8556   26.5345 N   0  0  0  0  0  0  0  0  0  0  0  0
   10.3323  -15.3648   28.8640 C   0  0  0  0  0  0  0  0  0  0  0  0
   10.5787  -14.5242   29.9362 O   0  0  0  0  0  0  0  0  0  0  0  0
   10.4137  -16.5997   29.0689 O   0  0  0  0  0  0  0  0  0  0  0  0
  2  1  1  6
  2  3  1  0
  4  3  1  0
  4  8  1  0
  5  6  1  0
  5  4  2  0
  6  7  1  0
  7  8  2  0
  9  2  1  0
  9 10  2  0
 11  9  1  0
 12 11  1  0
 12 13  1  6
 14 13  1  0
 15 14  1  0
 16 15  2  0
 17 12  1  0
 17 18  2  0
 19 15  1  0
 21 20  1  6
 21 23  1  0
 22 21  1  0
 23 24  1  6
 23 25  1  0
 24 17  1  0
 25 26  1  0
 27 25  2  0
M  END
$$$$
