HET.pdb
     RDKit          3D

 27 27  0  0  1  0  0  0  0  0999 V2000
   10.0608  -17.8353   16.0787 N   0  0  0  0  0  0  0  0  0  0  0  0
   10.6515  -16.7108   16.7523 C   0  0  1  0  0  0  0  0  0  0  0  0
    9.6471  -15.7473   17.3073 C   0  0  0  0  0  0  0  0  0  0  0  0
    8.9261  -15.1165   16.1835 C   0  0  0  0  0  0  0  0  0  0  0  0
    7.6055  -15.3857   15.8229 C   0  0  0  0  0  0  0  0  0  0  0  0
    7.3153  -14.6219   14.7623 N   0  0  0  0  0  0  0  0  0  0  0  0
    8.3949  -13.8973   14.4555 C   0  0  0  0  0  0  0  0  0  0  0  0
    9.3728  -14.1946   15.3146 N   0  0  0  0  0  0  0  0  0  0  0  0
   11.5737  -17.2206   17.8064 C   0  0  0  0  0  0  0  0  0  0  0  0
   11.2983  -18.2425   18.4978 O   0  0  0  0  0  0  0  0  0  0  0  0
   12.8235  -16.5848   18.0981 N   0  0  0  0  0  0  0  0  0  0  0  0
   13.6464  -17.0337   19.1837 C   0  0  1  0  0  0  0  0  0  0  0  0
   15.1022  -16.7394   19.0468 C   0  0  0  0  0  0  0  0  0  0  0  0
   16.0270  -17.2761   20.0639 C   0  0  0  0  0  0  0  0  0  0  0  0
   17.4489  -16.9328   19.9395 C   0  0  0  0  0  0  0  0  0  0  0  0
   18.3040  -17.7242   20.4192 O   0  0  0  0  0  0  0  0  0  0  0  0
   13.1360  -16.5290   20.5005 C   0  0  0  0  0  0  0  0  0  0  0  0
   13.1197  -15.3036   20.7820 O   0  0  0  0  0  0  0  0  0  0  0  0
   17.9138  -15.7860   19.3237 O   0  0  0  0  0  0  0  0  0  0  0  0
   10.3982  -17.3048   24.4650 C   0  0  0  0  0  0  0  0  0  0  0  0
   10.9410  -17.7067   23.1216 C   0  0  1  0  0  0  0  0  0  0  0  0
    9.9320  -17.5161   22.1787 O   0  0  0  0  0  0  0  0  0  0  0  0
   12.1865  -16.9237   22.7492 C   0  0  2  0  0  0  0  0  0  0  0  0
   12.6505  -17.4375   21.4766 N   0  0  0  0  0  0  0  0  0  0  0  0
   13.1744  -17.1368   23.8302 C   0  0  0  0  0  0  0  0  0  0  0  0
   14.3097  -17.8992   23.6138 O   0  0  0  0  0  0  0  0  0  0  0  0
   13.0225  -16.6400   24.9720 O   0  0  0  0  0  0  0  0  0  0  0  0
  2  1  1  1
  2  3  1  0
  4  3  1  0
  4  8  1  0
  5  6  1  0
  5  4  2  0
  6  7  1  0
  7  8  2  0
  9  2  1  0
  9 10  2  0
 11  9  1  0
 12 11  1  0
 12 13  1  6
 14 13  1  0
 15 14  1  0
 16 15  2  0
 17 12  1  0
 17 18  2  0
 19 15  1  0
 21 20  1  1
 21 23  1  0
 22 21  1  0
 23 24  1  6
 23 25  1  0
 24 17  1  0
 25 26  1  0
 27 25  2  0
M  END
$$$$
