HET.pdb
     RDKit          3D

 27 27  0  0  1  0  0  0  0  0999 V2000
    8.9898  -16.3742   19.9435 N   0  0  0  0  0  0  0  0  0  0  0  0
    8.6939  -15.2390   20.7748 C   0  0  1  0  0  0  0  0  0  0  0  0
    7.4269  -14.5328   20.3989 C   0  0  0  0  0  0  0  0  0  0  0  0
    7.5317  -14.0901   18.9939 C   0  0  0  0  0  0  0  0  0  0  0  0
    8.1390  -12.9091   18.5660 C   0  0  0  0  0  0  0  0  0  0  0  0
    8.0322  -12.8632   17.2323 N   0  0  0  0  0  0  0  0  0  0  0  0
    7.3885  -13.9595   16.8220 C   0  0  0  0  0  0  0  0  0  0  0  0
    7.0837  -14.7051   17.8870 N   0  0  0  0  0  0  0  0  0  0  0  0
    8.6808  -15.6838   22.1973 C   0  0  0  0  0  0  0  0  0  0  0  0
    7.6020  -15.8583   22.8329 O   0  0  0  0  0  0  0  0  0  0  0  0
    9.8864  -15.9393   22.9270 N   0  0  0  0  0  0  0  0  0  0  0  0
    9.8461  -16.3946   24.2865 C   0  0  1  0  0  0  0  0  0  0  0  0
   10.8892  -17.3941   24.6574 C   0  0  0  0  0  0  0  0  0  0  0  0
   11.1352  -18.5263   23.7434 C   0  0  0  0  0  0  0  0  0  0  0  0
   12.2414  -19.4351   24.0681 C   0  0  0  0  0  0  0  0  0  0  0  0
   13.1107  -19.6655   23.1856 O   0  0  0  0  0  0  0  0  0  0  0  0
    9.8636  -15.2441   25.2484 C   0  0  0  0  0  0  0  0  0  0  0  0
   10.7586  -14.3616   25.2132 O   0  0  0  0  0  0  0  0  0  0  0  0
   12.3916  -20.0598   25.2919 O   0  0  0  0  0  0  0  0  0  0  0  0
    7.2469  -12.6075   25.8335 C   0  0  0  0  0  0  0  0  0  0  0  0
    7.5032  -13.3568   27.1116 C   0  0  1  0  0  0  0  0  0  0  0  0
    6.5096  -14.3253   27.2457 O   0  0  0  0  0  0  0  0  0  0  0  0
    8.8832  -13.9878   27.1390 C   0  0  2  0  0  0  0  0  0  0  0  0
    8.8534  -15.1214   26.2374 N   0  0  0  0  0  0  0  0  0  0  0  0
    9.1488  -14.3940   28.5369 C   0  0  0  0  0  0  0  0  0  0  0  0
    9.2752  -13.4471   29.5392 O   0  0  0  0  0  0  0  0  0  0  0  0
    9.2682  -15.5991   28.8638 O   0  0  0  0  0  0  0  0  0  0  0  0
  2  1  1  6
  2  3  1  0
  4  3  1  0
  4  8  1  0
  5  6  1  0
  5  4  2  0
  6  7  1  0
  7  8  2  0
  9  2  1  0
  9 10  2  0
 11  9  1  0
 12 11  1  0
 12 13  1  1
 14 13  1  0
 15 14  1  0
 16 15  2  0
 17 12  1  0
 17 18  2  0
 19 15  1  0
 21 20  1  6
 21 23  1  0
 22 21  1  0
 23 24  1  6
 23 25  1  0
 24 17  1  0
 25 26  1  0
 27 25  2  0
M  END
$$$$
