QPF.pdb
     RDKit          3D

 28 29  0  0  1  0  0  0  0  0999 V2000
   27.6330  -16.5005  -15.6581 N   0  0  0  0  0  0  0  0  0  0  0  0
   27.0373  -16.0380  -16.8808 C   0  0  0  0  0  0  0  0  0  0  0  0
   27.8202  -15.4647  -17.6767 O   0  0  0  0  0  0  0  0  0  0  0  0
   25.6055  -16.2673  -17.0911 C   0  0  0  0  0  0  0  0  0  0  0  0
   25.0976  -17.5876  -16.6248 C   0  0  0  0  0  0  0  0  0  0  0  0
   25.4454  -18.7580  -17.5049 C   0  0  2  0  0  0  0  0  0  0  0  0
   24.5174  -18.7586  -18.6199 N   0  0  0  0  0  0  0  0  0  0  0  0
   25.5372  -20.0423  -16.8096 C   0  0  0  0  0  0  0  0  0  0  0  0
   24.5052  -20.7988  -16.9354 O   0  0  0  0  0  0  0  0  0  0  0  0
   26.5991  -20.5344  -16.0367 N   0  0  0  0  0  0  0  0  0  0  0  0
   27.8458  -19.9651  -15.5852 C   0  0  0  0  0  0  0  0  0  0  0  0
   28.8285  -21.0753  -15.9991 C   0  0  0  0  0  0  0  0  0  0  0  0
   28.0852  -22.2663  -15.3788 C   0  0  0  0  0  0  0  0  0  0  0  0
   26.6267  -21.8989  -15.4798 C   0  0  1  0  0  0  0  0  0  0  0  0
   26.0187  -21.8636  -14.1261 C   0  0  0  0  0  0  0  0  0  0  0  0
   26.0112  -22.8884  -13.3977 O   0  0  0  0  0  0  0  0  0  0  0  0
   25.4282  -20.6843  -13.6079 N   0  0  0  0  0  0  0  0  0  0  0  0
   24.8763  -20.6883  -12.2440 C   0  0  1  0  0  0  0  0  0  0  0  0
   25.6834  -19.7410  -11.3950 C   0  0  0  0  0  0  0  0  0  0  0  0
   27.0967  -20.1284  -11.3141 C   0  0  0  0  0  0  0  0  0  0  0  0
   27.5891  -20.9734  -10.3516 C   0  0  0  0  0  0  0  0  0  0  0  0
   28.9374  -21.3372  -10.2881 C   0  0  0  0  0  0  0  0  0  0  0  0
   29.7837  -20.8144  -11.2383 C   0  0  0  0  0  0  0  0  0  0  0  0
   29.2995  -19.9713  -12.2003 C   0  0  0  0  0  0  0  0  0  0  0  0
   27.9751  -19.6217  -12.2528 C   0  0  0  0  0  0  0  0  0  0  0  0
   23.4410  -20.3604  -12.2879 C   0  0  0  0  0  0  0  0  0  0  0  0
   22.7260  -20.4463  -11.2637 O   0  0  0  0  0  0  0  0  0  0  0  0
   22.8321  -19.9445  -13.4682 O   0  0  0  0  0  0  0  0  0  0  0  0
  2  1  1  0
  2  3  2  0
  4  5  1  0
  4  2  1  0
  5  6  1  0
  6  7  1  6
  8  6  1  0
  8 10  1  0
  9  8  2  0
 10 14  1  0
 10 11  1  0
 12 11  1  0
 13 14  1  0
 13 12  1  0
 14 15  1  1
 16 15  2  0
 17 15  1  0
 18 17  1  0
 18 26  1  0
 19 20  1  0
 18 19  1  1
 20 25  2  0
 21 22  2  0
 21 20  1  0
 22 23  1  0
 23 24  2  0
 25 24  1  0
 26 28  1  0
 27 26  2  0
M  END
$$$$
