QPF.pdb
     RDKit          3D

 28 29  0  0  1  0  0  0  0  0999 V2000
   12.2061  -25.7817   -4.6879 N   0  0  0  0  0  0  0  0  0  0  0  0
   11.2418  -25.2015   -5.5808 C   0  0  0  0  0  0  0  0  0  0  0  0
   10.1574  -24.8576   -5.0508 O   0  0  0  0  0  0  0  0  0  0  0  0
   11.5944  -25.0635   -6.9962 C   0  0  0  0  0  0  0  0  0  0  0  0
   12.9683  -25.5123   -7.3562 C   0  0  0  0  0  0  0  0  0  0  0  0
   13.9243  -24.4144   -7.7383 C   0  0  2  0  0  0  0  0  0  0  0  0
   15.1229  -25.0404   -8.2633 N   0  0  0  0  0  0  0  0  0  0  0  0
   14.1816  -23.4312   -6.6855 C   0  0  0  0  0  0  0  0  0  0  0  0
   15.2177  -23.6727   -5.9635 O   0  0  0  0  0  0  0  0  0  0  0  0
   13.4439  -22.2787   -6.3781 N   0  0  0  0  0  0  0  0  0  0  0  0
   12.2720  -21.6664   -6.9559 C   0  0  0  0  0  0  0  0  0  0  0  0
   12.7580  -20.2135   -7.1052 C   0  0  0  0  0  0  0  0  0  0  0  0
   13.2894  -20.0141   -5.6791 C   0  0  0  0  0  0  0  0  0  0  0  0
   13.7852  -21.3758   -5.2641 C   0  0  1  0  0  0  0  0  0  0  0  0
   13.0578  -21.8318   -4.0531 C   0  0  0  0  0  0  0  0  0  0  0  0
   11.9920  -22.4912   -4.1534 O   0  0  0  0  0  0  0  0  0  0  0  0
   13.5324  -21.5435   -2.7494 N   0  0  0  0  0  0  0  0  0  0  0  0
   12.8021  -22.0595   -1.5810 C   0  0  1  0  0  0  0  0  0  0  0  0
   12.7380  -23.5616   -1.6780 C   0  0  0  0  0  0  0  0  0  0  0  0
   14.0412  -24.1934   -1.4402 C   0  0  0  0  0  0  0  0  0  0  0  0
   14.8830  -24.5807   -2.4522 C   0  0  0  0  0  0  0  0  0  0  0  0
   16.1236  -25.1784   -2.2117 C   0  0  0  0  0  0  0  0  0  0  0  0
   16.4923  -25.3756   -0.9010 C   0  0  0  0  0  0  0  0  0  0  0  0
   15.6578  -24.9921    0.1125 C   0  0  0  0  0  0  0  0  0  0  0  0
   14.4434  -24.4067   -0.1356 C   0  0  0  0  0  0  0  0  0  0  0  0
   13.4396  -21.5773   -0.3438 C   0  0  0  0  0  0  0  0  0  0  0  0
   14.5571  -21.0133   -0.3692 O   0  0  0  0  0  0  0  0  0  0  0  0
   12.8215  -21.7321    0.8934 O   0  0  0  0  0  0  0  0  0  0  0  0
  2  1  1  0
  2  3  2  0
  4  5  1  0
  4  2  1  0
  5  6  1  0
  6  7  1  1
  8  6  1  0
  8 10  1  0
  9  8  2  0
 10 14  1  0
 10 11  1  0
 12 11  1  0
 13 14  1  0
 13 12  1  0
 14 15  1  1
 16 15  2  0
 17 15  1  0
 18 17  1  0
 18 26  1  0
 19 20  1  0
 18 19  1  1
 20 25  2  0
 21 22  2  0
 21 20  1  0
 22 23  1  0
 23 24  2  0
 25 24  1  0
 26 28  1  0
 27 26  2  0
M  END
$$$$
