QPF.pdb
     RDKit          3D

 28 29  0  0  1  0  0  0  0  0999 V2000
   26.8157  -26.2083  -15.9311 N   0  0  0  0  0  0  0  0  0  0  0  0
   25.5581  -26.0191  -16.5992 C   0  0  0  0  0  0  0  0  0  0  0  0
   25.2482  -26.9123  -17.4245 O   0  0  0  0  0  0  0  0  0  0  0  0
   24.7641  -24.8322  -16.2711 C   0  0  0  0  0  0  0  0  0  0  0  0
   25.2898  -24.0054  -15.1491 C   0  0  0  0  0  0  0  0  0  0  0  0
   25.8272  -22.6554  -15.5416 C   0  0  2  0  0  0  0  0  0  0  0  0
   26.9723  -22.8740  -16.4049 N   0  0  0  0  0  0  0  0  0  0  0  0
   26.0931  -21.7519  -14.4218 C   0  0  0  0  0  0  0  0  0  0  0  0
   27.3253  -21.6890  -14.0602 O   0  0  0  0  0  0  0  0  0  0  0  0
   25.1780  -20.9620  -13.7105 N   0  0  0  0  0  0  0  0  0  0  0  0
   23.7385  -20.8616  -13.7161 C   0  0  0  0  0  0  0  0  0  0  0  0
   23.5631  -19.3379  -13.8481 C   0  0  0  0  0  0  0  0  0  0  0  0
   24.5088  -18.9112  -12.7170 C   0  0  0  0  0  0  0  0  0  0  0  0
   25.5846  -19.9670  -12.7019 C   0  0  1  0  0  0  0  0  0  0  0  0
   25.6209  -20.6336  -11.3760 C   0  0  0  0  0  0  0  0  0  0  0  0
   24.8545  -21.5965  -11.1192 O   0  0  0  0  0  0  0  0  0  0  0  0
   26.5124  -20.2133  -10.3579 N   0  0  0  0  0  0  0  0  0  0  0  0
   26.6524  -21.0221   -9.1368 C   0  0  1  0  0  0  0  0  0  0  0  0
   28.0244  -20.7898   -8.5598 C   0  0  0  0  0  0  0  0  0  0  0  0
   27.9735  -20.2392   -7.2003 C   0  0  0  0  0  0  0  0  0  0  0  0
   27.6868  -18.9241   -6.9337 C   0  0  0  0  0  0  0  0  0  0  0  0
   27.6380  -18.4132   -5.6334 C   0  0  0  0  0  0  0  0  0  0  0  0
   27.8911  -19.2825   -4.5976 C   0  0  0  0  0  0  0  0  0  0  0  0
   28.1778  -20.5946   -4.8563 C   0  0  0  0  0  0  0  0  0  0  0  0
   28.2227  -21.0843   -6.1359 C   0  0  0  0  0  0  0  0  0  0  0  0
   25.5599  -20.7032   -8.2017 C   0  0  0  0  0  0  0  0  0  0  0  0
   24.9474  -19.6134   -8.2696 O   0  0  0  0  0  0  0  0  0  0  0  0
   25.1724  -21.6019   -7.2122 O   0  0  0  0  0  0  0  0  0  0  0  0
  2  1  1  0
  2  3  2  0
  4  5  1  0
  4  2  1  0
  5  6  1  0
  6  7  1  1
  8  6  1  0
  8 10  1  0
  9  8  2  0
 10 14  1  0
 10 11  1  0
 12 11  1  0
 13 14  1  0
 13 12  1  0
 14 15  1  1
 16 15  2  0
 17 15  1  0
 18 17  1  0
 18 26  1  0
 19 20  1  0
 18 19  1  1
 20 25  2  0
 21 22  2  0
 21 20  1  0
 22 23  1  0
 23 24  2  0
 25 24  1  0
 26 28  1  0
 27 26  2  0
M  END
$$$$
