QPF.pdb
     RDKit          3D

 28 29  0  0  1  0  0  0  0  0999 V2000
   24.1297  -17.7512  -15.6891 N   0  0  0  0  0  0  0  0  0  0  0  0
   23.4208  -16.6585  -15.0831 C   0  0  0  0  0  0  0  0  0  0  0  0
   22.4364  -16.9830  -14.3755 O   0  0  0  0  0  0  0  0  0  0  0  0
   23.8925  -15.2943  -15.3345 C   0  0  0  0  0  0  0  0  0  0  0  0
   25.0147  -15.1784  -16.3071 C   0  0  0  0  0  0  0  0  0  0  0  0
   24.6485  -14.5944  -17.6451 C   0  0  2  0  0  0  0  0  0  0  0  0
   25.8485  -14.5805  -18.4601 N   0  0  0  0  0  0  0  0  0  0  0  0
   23.9588  -13.3053  -17.5837 C   0  0  0  0  0  0  0  0  0  0  0  0
   24.7339  -12.2802  -17.5466 O   0  0  0  0  0  0  0  0  0  0  0  0
   22.5776  -13.0626  -17.5609 N   0  0  0  0  0  0  0  0  0  0  0  0
   21.4203  -13.9195  -17.4698 C   0  0  0  0  0  0  0  0  0  0  0  0
   20.5765  -13.3781  -18.6380 C   0  0  0  0  0  0  0  0  0  0  0  0
   20.6446  -11.8865  -18.2827 C   0  0  0  0  0  0  0  0  0  0  0  0
   21.9950  -11.7107  -17.6361 C   0  0  1  0  0  0  0  0  0  0  0  0
   21.8310  -11.1948  -16.2539 C   0  0  0  0  0  0  0  0  0  0  0  0
   21.5588  -11.9733  -15.3050 O   0  0  0  0  0  0  0  0  0  0  0  0
   21.9731   -9.8171  -15.9540 N   0  0  0  0  0  0  0  0  0  0  0  0
   21.8223   -9.3581  -14.5643 C   0  0  1  0  0  0  0  0  0  0  0  0
   23.1805   -8.9834  -14.0308 C   0  0  0  0  0  0  0  0  0  0  0  0
   23.8185   -7.9233  -14.8203 C   0  0  0  0  0  0  0  0  0  0  0  0
   24.7351   -8.1736  -15.8102 C   0  0  0  0  0  0  0  0  0  0  0  0
   25.3328   -7.1544  -16.5573 C   0  0  0  0  0  0  0  0  0  0  0  0
   24.9717   -5.8583  -16.2701 C   0  0  0  0  0  0  0  0  0  0  0  0
   24.0588   -5.6019  -15.2845 C   0  0  0  0  0  0  0  0  0  0  0  0
   23.4791   -6.6098  -14.5583 C   0  0  0  0  0  0  0  0  0  0  0  0
   20.8448   -8.2576  -14.5078 C   0  0  0  0  0  0  0  0  0  0  0  0
   20.4366   -7.8103  -13.4120 O   0  0  0  0  0  0  0  0  0  0  0  0
   20.3430   -7.6787  -15.6696 O   0  0  0  0  0  0  0  0  0  0  0  0
  2  1  1  0
  2  3  2  0
  4  5  1  0
  4  2  1  0
  5  6  1  0
  6  7  1  6
  8  6  1  0
  8 10  1  0
  9  8  2  0
 10 14  1  0
 10 11  1  0
 12 11  1  0
 13 14  1  0
 13 12  1  0
 14 15  1  1
 16 15  2  0
 17 15  1  0
 18 17  1  0
 18 26  1  0
 19 20  1  0
 18 19  1  6
 20 25  2  0
 21 22  2  0
 21 20  1  0
 22 23  1  0
 23 24  2  0
 25 24  1  0
 26 28  1  0
 27 26  2  0
M  END
$$$$
