QPF.pdb
     RDKit          3D

 28 29  0  0  1  0  0  0  0  0999 V2000
   23.8824  -20.3978  -17.8826 N   0  0  0  0  0  0  0  0  0  0  0  0
   22.9227  -19.3517  -17.6630 C   0  0  0  0  0  0  0  0  0  0  0  0
   23.0185  -18.3644  -18.4320 O   0  0  0  0  0  0  0  0  0  0  0  0
   21.9395  -19.5192  -16.5897 C   0  0  0  0  0  0  0  0  0  0  0  0
   21.0735  -20.7258  -16.7031 C   0  0  0  0  0  0  0  0  0  0  0  0
   20.7675  -21.4223  -15.4044 C   0  0  2  0  0  0  0  0  0  0  0  0
   19.5821  -20.8020  -14.8436 N   0  0  0  0  0  0  0  0  0  0  0  0
   21.8920  -21.5025  -14.4716 C   0  0  0  0  0  0  0  0  0  0  0  0
   21.8246  -20.6936  -13.4745 O   0  0  0  0  0  0  0  0  0  0  0  0
   23.0132  -22.3426  -14.5374 N   0  0  0  0  0  0  0  0  0  0  0  0
   23.5111  -23.2575  -15.5360 C   0  0  0  0  0  0  0  0  0  0  0  0
   23.7570  -24.5088  -14.6738 C   0  0  0  0  0  0  0  0  0  0  0  0
   24.5669  -23.8445  -13.5520 C   0  0  0  0  0  0  0  0  0  0  0  0
   24.0064  -22.4486  -13.4534 C   0  0  1  0  0  0  0  0  0  0  0  0
   25.0792  -21.4536  -13.7034 C   0  0  0  0  0  0  0  0  0  0  0  0
   25.3161  -21.0423  -14.8677 O   0  0  0  0  0  0  0  0  0  0  0  0
   25.8706  -20.9342  -12.6490 N   0  0  0  0  0  0  0  0  0  0  0  0
   26.9619  -19.9961  -12.9552 C   0  0  1  0  0  0  0  0  0  0  0  0
   27.1415  -19.0670  -11.7830 C   0  0  0  0  0  0  0  0  0  0  0  0
   27.3164  -19.7901  -10.5179 C   0  0  0  0  0  0  0  0  0  0  0  0
   28.5455  -20.1337  -10.0138 C   0  0  0  0  0  0  0  0  0  0  0  0
   28.6981  -20.8195   -8.8054 C   0  0  0  0  0  0  0  0  0  0  0  0
   27.5567  -21.1522   -8.1131 C   0  0  0  0  0  0  0  0  0  0  0  0
   26.3285  -20.8130   -8.6100 C   0  0  0  0  0  0  0  0  0  0  0  0
   26.1911  -20.1401   -9.7964 C   0  0  0  0  0  0  0  0  0  0  0  0
   28.1805  -20.7476  -13.3014 C   0  0  0  0  0  0  0  0  0  0  0  0
   28.2708  -21.9751  -13.0723 O   0  0  0  0  0  0  0  0  0  0  0  0
   29.2713  -20.1187  -13.8944 O   0  0  0  0  0  0  0  0  0  0  0  0
  2  1  1  0
  2  3  2  0
  4  5  1  0
  4  2  1  0
  5  6  1  0
  6  7  1  1
  8  6  1  0
  8 10  1  0
  9  8  2  0
 10 14  1  0
 10 11  1  0
 12 11  1  0
 13 14  1  0
 13 12  1  0
 14 15  1  6
 16 15  2  0
 17 15  1  0
 18 17  1  0
 18 26  1  0
 19 20  1  0
 18 19  1  1
 20 25  2  0
 21 22  2  0
 21 20  1  0
 22 23  1  0
 23 24  2  0
 25 24  1  0
 26 28  1  0
 27 26  2  0
M  END
$$$$
