QPF.pdb
     RDKit          3D

 28 29  0  0  1  0  0  0  0  0999 V2000
   27.3281  -11.1907  -16.4992 N   0  0  0  0  0  0  0  0  0  0  0  0
   26.8635  -12.5272  -16.2510 C   0  0  0  0  0  0  0  0  0  0  0  0
   27.7548  -13.4104  -16.2277 O   0  0  0  0  0  0  0  0  0  0  0  0
   25.4279  -12.7422  -16.0516 C   0  0  0  0  0  0  0  0  0  0  0  0
   24.5867  -11.5144  -16.1102 C   0  0  0  0  0  0  0  0  0  0  0  0
   23.1144  -11.7321  -15.8855 C   0  0  2  0  0  0  0  0  0  0  0  0
   22.6466  -12.6499  -16.9069 N   0  0  0  0  0  0  0  0  0  0  0  0
   22.3219  -10.5063  -15.7824 C   0  0  0  0  0  0  0  0  0  0  0  0
   21.7248  -10.1572  -16.8662 O   0  0  0  0  0  0  0  0  0  0  0  0
   22.1416   -9.6838  -14.6607 N   0  0  0  0  0  0  0  0  0  0  0  0
   22.6403   -9.7269  -13.3074 C   0  0  0  0  0  0  0  0  0  0  0  0
   21.3308   -9.5451  -12.5188 C   0  0  0  0  0  0  0  0  0  0  0  0
   20.7984   -8.3124  -13.2622 C   0  0  0  0  0  0  0  0  0  0  0  0
   21.2995   -8.4741  -14.6746 C   0  0  1  0  0  0  0  0  0  0  0  0
   22.1512   -7.3160  -15.0452 C   0  0  0  0  0  0  0  0  0  0  0  0
   23.4016   -7.3737  -14.9275 O   0  0  0  0  0  0  0  0  0  0  0  0
   21.5923   -6.1118  -15.5407 N   0  0  0  0  0  0  0  0  0  0  0  0
   22.4816   -5.0090  -15.9379 C   0  0  1  0  0  0  0  0  0  0  0  0
   22.6668   -5.0541  -17.4323 C   0  0  0  0  0  0  0  0  0  0  0  0
   21.4246   -4.7653  -18.1588 C   0  0  0  0  0  0  0  0  0  0  0  0
   20.5582   -5.7418  -18.5812 C   0  0  0  0  0  0  0  0  0  0  0  0
   19.3762   -5.4527  -19.2693 C   0  0  0  0  0  0  0  0  0  0  0  0
   19.0929   -4.1302  -19.5210 C   0  0  0  0  0  0  0  0  0  0  0  0
   19.9524   -3.1518  -19.1029 C   0  0  0  0  0  0  0  0  0  0  0  0
   21.1087   -3.4475  -18.4287 C   0  0  0  0  0  0  0  0  0  0  0  0
   21.9351   -3.7304  -15.4519 C   0  0  0  0  0  0  0  0  0  0  0  0
   22.5575   -2.6566  -15.6159 O   0  0  0  0  0  0  0  0  0  0  0  0
   20.7095   -3.6734  -14.7949 O   0  0  0  0  0  0  0  0  0  0  0  0
  2  1  1  0
  2  3  2  0
  4  5  1  0
  4  2  1  0
  5  6  1  0
  6  7  1  6
  8  6  1  0
  8 10  1  0
  9  8  2  0
 10 14  1  0
 10 11  1  0
 12 11  1  0
 13 14  1  0
 13 12  1  0
 14 15  1  1
 16 15  2  0
 17 15  1  0
 18 17  1  0
 18 26  1  0
 19 20  1  0
 18 19  1  6
 20 25  2  0
 21 22  2  0
 21 20  1  0
 22 23  1  0
 23 24  2  0
 25 24  1  0
 26 28  1  0
 27 26  2  0
M  END
$$$$
