QPF.pdb
     RDKit          3D

 28 29  0  0  1  0  0  0  0  0999 V2000
   24.4660  -11.1717  -22.2540 N   0  0  0  0  0  0  0  0  0  0  0  0
   24.0300  -10.2341  -21.2568 C   0  0  0  0  0  0  0  0  0  0  0  0
   24.0218   -9.0318  -21.6166 O   0  0  0  0  0  0  0  0  0  0  0  0
   23.6422  -10.7449  -19.9394 C   0  0  0  0  0  0  0  0  0  0  0  0
   23.6218  -12.2289  -19.8133 C   0  0  0  0  0  0  0  0  0  0  0  0
   24.3763  -12.7849  -18.6356 C   0  0  2  0  0  0  0  0  0  0  0  0
   24.1013  -14.2078  -18.5715 N   0  0  0  0  0  0  0  0  0  0  0  0
   24.1493  -12.0800  -17.3735 C   0  0  0  0  0  0  0  0  0  0  0  0
   23.0891  -12.4366  -16.7396 O   0  0  0  0  0  0  0  0  0  0  0  0
   24.9381  -11.0798  -16.7865 N   0  0  0  0  0  0  0  0  0  0  0  0
   26.1615  -10.4225  -17.1780 C   0  0  0  0  0  0  0  0  0  0  0  0
   26.9818  -10.5599  -15.8826 C   0  0  0  0  0  0  0  0  0  0  0  0
   25.9283  -10.0294  -14.9006 C   0  0  0  0  0  0  0  0  0  0  0  0
   24.6081  -10.4450  -15.4978 C   0  0  1  0  0  0  0  0  0  0  0  0
   23.7746   -9.2465  -15.7669 C   0  0  0  0  0  0  0  0  0  0  0  0
   24.0995   -8.4251  -16.6617 O   0  0  0  0  0  0  0  0  0  0  0  0
   22.5919   -8.9842  -15.0319 N   0  0  0  0  0  0  0  0  0  0  0  0
   21.7797   -7.8026  -15.3618 C   0  0  1  0  0  0  0  0  0  0  0  0
   20.7897   -8.1822  -16.4320 C   0  0  0  0  0  0  0  0  0  0  0  0
   19.9066   -9.2774  -16.0139 C   0  0  0  0  0  0  0  0  0  0  0  0
   20.1476  -10.5934  -16.3186 C   0  0  0  0  0  0  0  0  0  0  0  0
   19.2999  -11.6275  -15.9109 C   0  0  0  0  0  0  0  0  0  0  0  0
   18.1872  -11.2872  -15.1769 C   0  0  0  0  0  0  0  0  0  0  0  0
   17.9410   -9.9773  -14.8699 C   0  0  0  0  0  0  0  0  0  0  0  0
   18.7797   -8.9716  -15.2751 C   0  0  0  0  0  0  0  0  0  0  0  0
   21.1499   -7.2755  -14.1391 C   0  0  0  0  0  0  0  0  0  0  0  0
   20.4934   -6.2095  -14.1572 O   0  0  0  0  0  0  0  0  0  0  0  0
   21.2632   -7.9442  -12.9238 O   0  0  0  0  0  0  0  0  0  0  0  0
  2  1  1  0
  2  3  2  0
  4  5  1  0
  4  2  1  0
  5  6  1  0
  6  7  1  1
  8  6  1  0
  8 10  1  0
  9  8  2  0
 10 14  1  0
 10 11  1  0
 12 11  1  0
 13 14  1  0
 13 12  1  0
 14 15  1  6
 16 15  2  0
 17 15  1  0
 18 17  1  0
 18 26  1  0
 19 20  1  0
 18 19  1  6
 20 25  2  0
 21 22  2  0
 21 20  1  0
 22 23  1  0
 23 24  2  0
 25 24  1  0
 26 28  1  0
 27 26  2  0
M  END
$$$$
