YCS.pdb
     RDKit          3D

 25 25  0  0  1  0  0  0  0  0999 V2000
    7.2142  -13.8764   15.8752 O   0  0  0  0  0  0  0  0  0  0  0  0
    7.5457  -13.9969   17.2152 C   0  0  0  0  0  0  0  0  0  0  0  0
    6.9514  -13.1460   18.1231 C   0  0  0  0  0  0  0  0  0  0  0  0
    7.2759  -13.2595   19.4588 C   0  0  0  0  0  0  0  0  0  0  0  0
    8.1831  -14.2048   19.9173 C   0  0  0  0  0  0  0  0  0  0  0  0
    8.4991  -14.2868   21.3666 C   0  0  0  0  0  0  0  0  0  0  0  0
    8.2387  -15.6926   21.8124 C   0  0  2  0  0  0  0  0  0  0  0  0
    6.9146  -15.7673   22.3800 N   0  0  0  0  0  0  0  0  0  0  0  0
    9.2749  -16.1849   22.7650 C   0  0  0  0  0  0  0  0  0  0  0  0
    9.3472  -15.7004   23.9230 O   0  0  0  0  0  0  0  0  0  0  0  0
    8.7763  -15.0580   18.9906 C   0  0  0  0  0  0  0  0  0  0  0  0
    8.4584  -14.9530   17.6503 C   0  0  0  0  0  0  0  0  0  0  0  0
   10.2128  -17.2016   22.4259 N   0  0  0  0  0  0  0  0  0  0  0  0
   11.3032  -17.5768   23.2915 C   0  0  1  0  0  0  0  0  0  0  0  0
   11.2901  -19.0488   23.6262 C   0  0  0  0  0  0  0  0  0  0  0  0
    9.8434  -19.5615   24.5441 S   0  0  0  0  0  0  0  0  0  0  0  0
   12.6251  -17.2174   22.7285 C   0  0  0  0  0  0  0  0  0  0  0  0
   12.7887  -16.7225   21.5829 O   0  0  0  0  0  0  0  0  0  0  0  0
   16.2900  -14.8830   23.1400 O   0  0  0  0  0  0  0  0  0  0  0  0
   15.0465  -15.4381   23.3263 C   0  0  0  0  0  0  0  0  0  0  0  0
   15.0895  -16.9668   23.1971 C   0  0  2  0  0  0  0  0  0  0  0  0
   13.7753  -17.4414   23.5209 N   0  0  0  0  0  0  0  0  0  0  0  0
   16.0365  -17.4387   24.2322 C   0  0  0  0  0  0  0  0  0  0  0  0
   17.2286  -17.6715   23.9207 O   0  0  0  0  0  0  0  0  0  0  0  0
   15.6731  -17.6444   25.5630 O   0  0  0  0  0  0  0  0  0  0  0  0
  2  3  2  0
  2  1  1  0
  4  3  1  0
  5  4  2  0
  6  7  1  0
  6  5  1  0
  7  8  1  1
  9 13  1  0
  9  7  1  0
 10  9  2  0
 11  5  1  0
 11 12  2  0
 12  2  1  0
 14 13  1  0
 14 15  1  6
 16 15  1  0
 17 14  1  0
 18 17  2  0
 19 20  1  0
 21 20  1  1
 21 23  1  0
 21 22  1  0
 22 17  1  0
 23 25  1  0
 24 23  2  0
M  END
$$$$
