YCS.pdb
     RDKit          3D

 25 25  0  0  1  0  0  0  0  0999 V2000
    5.3643  -10.7711   28.1408 O   0  0  0  0  0  0  0  0  0  0  0  0
    6.1044  -11.7240   27.4593 C   0  0  0  0  0  0  0  0  0  0  0  0
    5.7755  -12.0057   26.1501 C   0  0  0  0  0  0  0  0  0  0  0  0
    6.5074  -12.9530   25.4650 C   0  0  0  0  0  0  0  0  0  0  0  0
    7.5655  -13.6318   26.0534 C   0  0  0  0  0  0  0  0  0  0  0  0
    8.3229  -14.6435   25.2726 C   0  0  0  0  0  0  0  0  0  0  0  0
    7.3440  -15.6587   24.7686 C   0  0  2  0  0  0  0  0  0  0  0  0
    7.0941  -16.6265   25.8089 N   0  0  0  0  0  0  0  0  0  0  0  0
    7.8034  -16.3106   23.5088 C   0  0  0  0  0  0  0  0  0  0  0  0
    8.3181  -17.4572   23.5440 O   0  0  0  0  0  0  0  0  0  0  0  0
    7.8876  -13.3382   27.3758 C   0  0  0  0  0  0  0  0  0  0  0  0
    7.1611  -12.3912   28.0714 C   0  0  0  0  0  0  0  0  0  0  0  0
    7.6881  -15.6887   22.2327 N   0  0  0  0  0  0  0  0  0  0  0  0
    8.3333  -16.2065   21.0518 C   0  0  1  0  0  0  0  0  0  0  0  0
    8.1082  -15.3298   19.8436 C   0  0  0  0  0  0  0  0  0  0  0  0
    8.6901  -16.0538   18.3153 S   0  0  0  0  0  0  0  0  0  0  0  0
    9.7880  -16.4092   21.2418 C   0  0  0  0  0  0  0  0  0  0  0  0
   10.5714  -15.5187   21.6629 O   0  0  0  0  0  0  0  0  0  0  0  0
   10.8236  -20.2225   21.2398 O   0  0  0  0  0  0  0  0  0  0  0  0
   11.8109  -19.3820   21.6954 C   0  0  0  0  0  0  0  0  0  0  0  0
   11.7284  -18.0041   21.0246 C   0  0  2  0  0  0  0  0  0  0  0  0
   10.3348  -17.6768   20.9333 N   0  0  0  0  0  0  0  0  0  0  0  0
   12.2681  -18.1811   19.6577 C   0  0  0  0  0  0  0  0  0  0  0  0
   11.4835  -18.1971   18.6797 O   0  0  0  0  0  0  0  0  0  0  0  0
   13.6277  -18.3346   19.3873 O   0  0  0  0  0  0  0  0  0  0  0  0
  2  3  2  0
  2  1  1  0
  4  3  1  0
  5  4  2  0
  6  7  1  0
  6  5  1  0
  7  8  1  1
  9 13  1  0
  9  7  1  0
 10  9  2  0
 11  5  1  0
 11 12  2  0
 12  2  1  0
 14 13  1  0
 14 15  1  6
 16 15  1  0
 17 14  1  0
 18 17  2  0
 19 20  1  0
 21 20  1  1
 21 23  1  0
 21 22  1  0
 22 17  1  0
 23 25  1  0
 24 23  2  0
M  END
$$$$
