YCS.pdb
     RDKit          3D

 25 25  0  0  1  0  0  0  0  0999 V2000
   10.2981  -14.3050   30.8295 O   0  0  0  0  0  0  0  0  0  0  0  0
   10.1087  -14.6162   29.4925 C   0  0  0  0  0  0  0  0  0  0  0  0
    9.5728  -13.6571   28.6592 C   0  0  0  0  0  0  0  0  0  0  0  0
    9.3812  -13.9590   27.3271 C   0  0  0  0  0  0  0  0  0  0  0  0
    9.7114  -15.1996   26.7994 C   0  0  0  0  0  0  0  0  0  0  0  0
    9.4854  -15.4755   25.3573 C   0  0  0  0  0  0  0  0  0  0  0  0
    8.0669  -15.9273   25.1950 C   0  0  2  0  0  0  0  0  0  0  0  0
    7.8656  -17.1287   25.9679 N   0  0  0  0  0  0  0  0  0  0  0  0
    7.6962  -16.1242   23.7643 C   0  0  0  0  0  0  0  0  0  0  0  0
    7.6999  -17.2784   23.2656 O   0  0  0  0  0  0  0  0  0  0  0  0
   10.2516  -16.1594   27.6512 C   0  0  0  0  0  0  0  0  0  0  0  0
   10.4479  -15.8676   28.9872 C   0  0  0  0  0  0  0  0  0  0  0  0
    7.3280  -15.0473   22.9081 N   0  0  0  0  0  0  0  0  0  0  0  0
    7.5881  -15.0546   21.4899 C   0  0  1  0  0  0  0  0  0  0  0  0
    7.3220  -13.7132   20.8506 C   0  0  0  0  0  0  0  0  0  0  0  0
    7.5946  -13.6958   19.0831 S   0  0  0  0  0  0  0  0  0  0  0  0
    8.9691  -15.4820   21.1678 C   0  0  0  0  0  0  0  0  0  0  0  0
    9.9996  -14.9608   21.6682 O   0  0  0  0  0  0  0  0  0  0  0  0
    9.5340  -19.1205   20.5011 O   0  0  0  0  0  0  0  0  0  0  0  0
   10.6724  -18.3511   20.4692 C   0  0  0  0  0  0  0  0  0  0  0  0
   10.4202  -17.0044   19.7777 C   0  0  2  0  0  0  0  0  0  0  0  0
    9.1462  -16.5382   20.2435 N   0  0  0  0  0  0  0  0  0  0  0  0
   10.3211  -17.2994   18.3306 C   0  0  0  0  0  0  0  0  0  0  0  0
    9.2203  -17.1643   17.7453 O   0  0  0  0  0  0  0  0  0  0  0  0
   11.4035  -17.7282   17.5627 O   0  0  0  0  0  0  0  0  0  0  0  0
  2  3  2  0
  2  1  1  0
  4  3  1  0
  5  4  2  0
  6  7  1  0
  6  5  1  0
  7  8  1  1
  9 13  1  0
  9  7  1  0
 10  9  2  0
 11  5  1  0
 11 12  2  0
 12  2  1  0
 14 13  1  0
 14 15  1  1
 16 15  1  0
 17 14  1  0
 18 17  2  0
 19 20  1  0
 21 20  1  1
 21 23  1  0
 21 22  1  0
 22 17  1  0
 23 25  1  0
 24 23  2  0
M  END
$$$$
