YCS.pdb
     RDKit          3D

 25 25  0  0  1  0  0  0  0  0999 V2000
    5.3046  -10.6584   28.0998 O   0  0  0  0  0  0  0  0  0  0  0  0
    6.0452  -11.6685   27.5069 C   0  0  0  0  0  0  0  0  0  0  0  0
    5.9306  -11.8620   26.1465 C   0  0  0  0  0  0  0  0  0  0  0  0
    6.6644  -12.8652   25.5488 C   0  0  0  0  0  0  0  0  0  0  0  0
    7.5154  -13.6866   26.2754 C   0  0  0  0  0  0  0  0  0  0  0  0
    8.2844  -14.7534   25.5846 C   0  0  0  0  0  0  0  0  0  0  0  0
    7.3096  -15.6052   24.8316 C   0  0  2  0  0  0  0  0  0  0  0  0
    6.7445  -16.5801   25.7325 N   0  0  0  0  0  0  0  0  0  0  0  0
    7.9270  -16.2511   23.6380 C   0  0  0  0  0  0  0  0  0  0  0  0
    8.3162  -17.4452   23.6984 O   0  0  0  0  0  0  0  0  0  0  0  0
    7.6223  -13.4810   27.6484 C   0  0  0  0  0  0  0  0  0  0  0  0
    6.8918  -12.4789   28.2572 C   0  0  0  0  0  0  0  0  0  0  0  0
    8.1050  -15.5712   22.3993 N   0  0  0  0  0  0  0  0  0  0  0  0
    8.6496  -16.2131   21.2287 C   0  0  1  0  0  0  0  0  0  0  0  0
    8.2424  -15.5190   19.9515 C   0  0  0  0  0  0  0  0  0  0  0  0
    6.4726  -15.3387   19.7675 S   0  0  0  0  0  0  0  0  0  0  0  0
   10.1261  -16.3205   21.2747 C   0  0  0  0  0  0  0  0  0  0  0  0
   10.8948  -15.3440   21.4729 O   0  0  0  0  0  0  0  0  0  0  0  0
   11.1986  -20.0729   21.3283 O   0  0  0  0  0  0  0  0  0  0  0  0
   12.2716  -19.2907   21.6832 C   0  0  0  0  0  0  0  0  0  0  0  0
   12.1206  -17.8579   21.1544 C   0  0  2  0  0  0  0  0  0  0  0  0
   10.7124  -17.5939   21.0854 N   0  0  0  0  0  0  0  0  0  0  0  0
   12.6727  -17.8679   19.7811 C   0  0  0  0  0  0  0  0  0  0  0  0
   11.9019  -17.7209   18.8030 O   0  0  0  0  0  0  0  0  0  0  0  0
   14.0294  -18.0350   19.5045 O   0  0  0  0  0  0  0  0  0  0  0  0
  2  3  2  0
  2  1  1  0
  4  3  1  0
  5  4  2  0
  6  7  1  0
  6  5  1  0
  7  8  1  1
  9 13  1  0
  9  7  1  0
 10  9  2  0
 11  5  1  0
 11 12  2  0
 12  2  1  0
 14 13  1  0
 14 15  1  6
 16 15  1  0
 17 14  1  0
 18 17  2  0
 19 20  1  0
 21 20  1  6
 21 23  1  0
 21 22  1  0
 22 17  1  0
 23 25  1  0
 24 23  2  0
M  END
$$$$
