YCS.pdb
     RDKit          3D

 25 25  0  0  1  0  0  0  0  0999 V2000
   10.5565  -13.8969   30.7368 O   0  0  0  0  0  0  0  0  0  0  0  0
   10.2079  -14.6614   29.6349 C   0  0  0  0  0  0  0  0  0  0  0  0
   10.9017  -15.8282   29.3926 C   0  0  0  0  0  0  0  0  0  0  0  0
   10.5608  -16.5948   28.2978 C   0  0  0  0  0  0  0  0  0  0  0  0
    9.5401  -16.2273   27.4320 C   0  0  0  0  0  0  0  0  0  0  0  0
    9.2112  -17.0876   26.2664 C   0  0  0  0  0  0  0  0  0  0  0  0
    7.9308  -16.5852   25.6740 C   0  0  2  0  0  0  0  0  0  0  0  0
    6.8264  -17.2933   26.2741 N   0  0  0  0  0  0  0  0  0  0  0  0
    7.9136  -16.6962   24.1873 C   0  0  0  0  0  0  0  0  0  0  0  0
    7.5696  -17.7746   23.6399 O   0  0  0  0  0  0  0  0  0  0  0  0
    8.8472  -15.0469   27.6875 C   0  0  0  0  0  0  0  0  0  0  0  0
    9.1804  -14.2715   28.7813 C   0  0  0  0  0  0  0  0  0  0  0  0
    8.2752  -15.6183   23.3296 N   0  0  0  0  0  0  0  0  0  0  0  0
    8.4007  -15.7669   21.9009 C   0  0  1  0  0  0  0  0  0  0  0  0
    8.0944  -14.4868   21.1615 C   0  0  0  0  0  0  0  0  0  0  0  0
    6.6839  -13.6025   21.8148 S   0  0  0  0  0  0  0  0  0  0  0  0
    9.7392  -16.2546   21.4958 C   0  0  0  0  0  0  0  0  0  0  0  0
   10.7971  -16.0106   22.1324 O   0  0  0  0  0  0  0  0  0  0  0  0
   11.7613  -19.1456   18.1088 O   0  0  0  0  0  0  0  0  0  0  0  0
   10.7029  -18.4000   18.5703 C   0  0  0  0  0  0  0  0  0  0  0  0
   11.0129  -17.7703   19.9350 C   0  0  2  0  0  0  0  0  0  0  0  0
    9.8405  -17.0417   20.3248 N   0  0  0  0  0  0  0  0  0  0  0  0
   12.1160  -16.8112   19.7023 C   0  0  0  0  0  0  0  0  0  0  0  0
   11.8661  -15.5841   19.6374 O   0  0  0  0  0  0  0  0  0  0  0  0
   13.4465  -17.2002   19.5475 O   0  0  0  0  0  0  0  0  0  0  0  0
  2  3  2  0
  2  1  1  0
  4  3  1  0
  5  4  2  0
  6  7  1  0
  6  5  1  0
  7  8  1  1
  9 13  1  0
  9  7  1  0
 10  9  2  0
 11  5  1  0
 11 12  2  0
 12  2  1  0
 14 13  1  0
 14 15  1  6
 16 15  1  0
 17 14  1  0
 18 17  2  0
 19 20  1  0
 21 20  1  6
 21 23  1  0
 21 22  1  0
 22 17  1  0
 23 25  1  0
 24 23  2  0
M  END
$$$$
