YCS.pdb
     RDKit          3D

 25 25  0  0  1  0  0  0  0  0999 V2000
    9.1950  -19.5718   30.3026 O   0  0  0  0  0  0  0  0  0  0  0  0
    8.6807  -19.6598   29.0189 C   0  0  0  0  0  0  0  0  0  0  0  0
    9.3080  -18.9659   28.0057 C   0  0  0  0  0  0  0  0  0  0  0  0
    8.8023  -19.0482   26.7251 C   0  0  0  0  0  0  0  0  0  0  0  0
    7.6806  -19.8087   26.4250 C   0  0  0  0  0  0  0  0  0  0  0  0
    7.1750  -19.8647   25.0292 C   0  0  0  0  0  0  0  0  0  0  0  0
    6.0289  -18.9071   24.9193 C   0  0  2  0  0  0  0  0  0  0  0  0
    4.9353  -19.5597   24.2416 N   0  0  0  0  0  0  0  0  0  0  0  0
    6.4166  -17.6364   24.2424 C   0  0  0  0  0  0  0  0  0  0  0  0
    6.4420  -17.5736   22.9868 O   0  0  0  0  0  0  0  0  0  0  0  0
    7.0564  -20.5046   27.4568 C   0  0  0  0  0  0  0  0  0  0  0  0
    7.5545  -20.4292   28.7432 C   0  0  0  0  0  0  0  0  0  0  0  0
    6.7693  -16.4575   24.9595 N   0  0  0  0  0  0  0  0  0  0  0  0
    7.4213  -15.3320   24.3372 C   0  0  1  0  0  0  0  0  0  0  0  0
    7.4475  -14.1168   25.2325 C   0  0  0  0  0  0  0  0  0  0  0  0
    5.8459  -13.6854   25.9012 S   0  0  0  0  0  0  0  0  0  0  0  0
    8.8017  -15.6450   23.9011 C   0  0  0  0  0  0  0  0  0  0  0  0
    9.6629  -16.1930   24.6373 O   0  0  0  0  0  0  0  0  0  0  0  0
    9.2899  -15.4915   19.7705 O   0  0  0  0  0  0  0  0  0  0  0  0
   10.3841  -15.1567   20.5318 C   0  0  0  0  0  0  0  0  0  0  0  0
   10.3364  -15.8310   21.9096 C   0  0  2  0  0  0  0  0  0  0  0  0
    9.1800  -15.3104   22.5797 N   0  0  0  0  0  0  0  0  0  0  0  0
   11.5489  -15.3794   22.6286 C   0  0  0  0  0  0  0  0  0  0  0  0
   11.4308  -14.6858   23.6665 O   0  0  0  0  0  0  0  0  0  0  0  0
   12.8436  -15.6867   22.2107 O   0  0  0  0  0  0  0  0  0  0  0  0
  2  3  2  0
  2  1  1  0
  4  3  1  0
  5  4  2  0
  6  7  1  0
  6  5  1  0
  7  8  1  6
  9 13  1  0
  9  7  1  0
 10  9  2  0
 11  5  1  0
 11 12  2  0
 12  2  1  0
 14 13  1  0
 14 15  1  1
 16 15  1  0
 17 14  1  0
 18 17  2  0
 19 20  1  0
 21 20  1  6
 21 23  1  0
 21 22  1  0
 22 17  1  0
 23 25  1  0
 24 23  2  0
M  END
$$$$
