YCS.pdb
     RDKit          3D

 25 25  0  0  1  0  0  0  0  0999 V2000
    8.4398  -11.5742   18.3193 O   0  0  0  0  0  0  0  0  0  0  0  0
    8.2561  -12.5619   19.2737 C   0  0  0  0  0  0  0  0  0  0  0  0
    9.3627  -13.0740   19.9176 C   0  0  0  0  0  0  0  0  0  0  0  0
    9.1883  -14.0575   20.8688 C   0  0  0  0  0  0  0  0  0  0  0  0
    7.9321  -14.5477   21.1979 C   0  0  0  0  0  0  0  0  0  0  0  0
    7.7972  -15.6077   22.2298 C   0  0  0  0  0  0  0  0  0  0  0  0
    7.8846  -16.9331   21.5380 C   0  0  2  0  0  0  0  0  0  0  0  0
    6.5510  -17.4420   21.3287 N   0  0  0  0  0  0  0  0  0  0  0  0
    8.7344  -17.9053   22.2835 C   0  0  0  0  0  0  0  0  0  0  0  0
    8.2228  -18.6456   23.1615 O   0  0  0  0  0  0  0  0  0  0  0  0
    6.8228  -14.0223   20.5406 C   0  0  0  0  0  0  0  0  0  0  0  0
    6.9860  -13.0370   19.5861 C   0  0  0  0  0  0  0  0  0  0  0  0
   10.1322  -18.0452   22.0491 N   0  0  0  0  0  0  0  0  0  0  0  0
   10.9296  -19.0693   22.6773 C   0  0  1  0  0  0  0  0  0  0  0  0
   11.9927  -19.6155   21.7551 C   0  0  0  0  0  0  0  0  0  0  0  0
   13.0475  -18.3541   21.0519 S   0  0  0  0  0  0  0  0  0  0  0  0
   11.5653  -18.6047   23.9317 C   0  0  0  0  0  0  0  0  0  0  0  0
   12.0165  -17.4421   24.1009 O   0  0  0  0  0  0  0  0  0  0  0  0
   12.2945  -20.0413   28.5217 O   0  0  0  0  0  0  0  0  0  0  0  0
   11.6778  -20.1597   27.2991 C   0  0  0  0  0  0  0  0  0  0  0  0
   12.3106  -19.2257   26.2587 C   0  0  2  0  0  0  0  0  0  0  0  0
   11.6744  -19.5177   25.0068 N   0  0  0  0  0  0  0  0  0  0  0  0
   13.7361  -19.6149   26.1724 C   0  0  0  0  0  0  0  0  0  0  0  0
   14.1216  -20.3484   25.2312 O   0  0  0  0  0  0  0  0  0  0  0  0
   14.6970  -19.2050   27.0964 O   0  0  0  0  0  0  0  0  0  0  0  0
  2  3  2  0
  2  1  1  0
  4  3  1  0
  5  4  2  0
  6  7  1  0
  6  5  1  0
  7  8  1  1
  9 13  1  0
  9  7  1  0
 10  9  2  0
 11  5  1  0
 11 12  2  0
 12  2  1  0
 14 13  1  0
 14 15  1  6
 16 15  1  0
 17 14  1  0
 18 17  2  0
 19 20  1  0
 21 20  1  1
 21 23  1  0
 21 22  1  0
 22 17  1  0
 23 25  1  0
 24 23  2  0
M  END
$$$$
