YCS.pdb
     RDKit          3D

 25 25  0  0  1  0  0  0  0  0999 V2000
    6.2468  -10.3101   27.0375 O   0  0  0  0  0  0  0  0  0  0  0  0
    6.6953  -11.5901   26.7534 C   0  0  0  0  0  0  0  0  0  0  0  0
    7.3839  -11.8045   25.5780 C   0  0  0  0  0  0  0  0  0  0  0  0
    7.8337  -13.0756   25.2879 C   0  0  0  0  0  0  0  0  0  0  0  0
    7.6142  -14.1464   26.1435 C   0  0  0  0  0  0  0  0  0  0  0  0
    8.1192  -15.4968   25.7853 C   0  0  0  0  0  0  0  0  0  0  0  0
    7.1841  -16.0806   24.7716 C   0  0  2  0  0  0  0  0  0  0  0  0
    6.3584  -17.0748   25.4125 N   0  0  0  0  0  0  0  0  0  0  0  0
    7.9056  -16.6405   23.5930 C   0  0  0  0  0  0  0  0  0  0  0  0
    8.4547  -17.7691   23.6681 O   0  0  0  0  0  0  0  0  0  0  0  0
    6.9177  -13.9168   27.3271 C   0  0  0  0  0  0  0  0  0  0  0  0
    6.4627  -12.6475   27.6276 C   0  0  0  0  0  0  0  0  0  0  0  0
    8.0098  -15.9481   22.3528 N   0  0  0  0  0  0  0  0  0  0  0  0
    8.8737  -16.3868   21.2850 C   0  0  1  0  0  0  0  0  0  0  0  0
    8.8464  -15.4490   20.1023 C   0  0  0  0  0  0  0  0  0  0  0  0
    7.2119  -15.2075   19.4177 S   0  0  0  0  0  0  0  0  0  0  0  0
   10.2751  -16.5714   21.7274 C   0  0  0  0  0  0  0  0  0  0  0  0
   10.8840  -15.7691   22.4821 O   0  0  0  0  0  0  0  0  0  0  0  0
   13.5580  -20.0918   22.1206 O   0  0  0  0  0  0  0  0  0  0  0  0
   12.3390  -19.6221   21.6934 C   0  0  0  0  0  0  0  0  0  0  0  0
   12.2886  -18.0884   21.7183 C   0  0  2  0  0  0  0  0  0  0  0  0
   10.9754  -17.7155   21.2782 N   0  0  0  0  0  0  0  0  0  0  0  0
   13.2766  -17.6300   20.7160 C   0  0  0  0  0  0  0  0  0  0  0  0
   14.4865  -17.5437   21.0338 O   0  0  0  0  0  0  0  0  0  0  0  0
   12.9337  -17.2806   19.4100 O   0  0  0  0  0  0  0  0  0  0  0  0
  2  3  2  0
  2  1  1  0
  4  3  1  0
  5  4  2  0
  6  7  1  0
  6  5  1  0
  7  8  1  1
  9 13  1  0
  9  7  1  0
 10  9  2  0
 11  5  1  0
 11 12  2  0
 12  2  1  0
 14 13  1  0
 14 15  1  6
 16 15  1  0
 17 14  1  0
 18 17  2  0
 19 20  1  0
 21 20  1  6
 21 23  1  0
 21 22  1  0
 22 17  1  0
 23 25  1  0
 24 23  2  0
M  END
$$$$
