SFW.pdb
     RDKit          3D

 32 34  0  0  1  0  0  0  0  0999 V2000
   10.1887  -19.7878   19.3265 O   0  0  0  0  0  0  0  0  0  0  0  0
    8.9670  -19.3683   18.7884 C   0  0  0  0  0  0  0  0  0  0  0  0
    9.0446  -17.9536   18.3135 C   0  0  2  0  0  0  0  0  0  0  0  0
   10.1268  -17.7923   17.3866 N   0  0  0  0  0  0  0  0  0  0  0  0
    9.1681  -17.0481   19.4896 C   0  0  0  0  0  0  0  0  0  0  0  0
   10.3041  -16.5586   19.7340 O   0  0  0  0  0  0  0  0  0  0  0  0
    8.1023  -16.7060   20.3414 N   0  0  0  0  0  0  0  0  0  0  0  0
    8.2261  -15.8862   21.5297 C   0  0  1  0  0  0  0  0  0  0  0  0
    6.9973  -15.9052   22.3737 C   0  0  0  0  0  0  0  0  0  0  0  0
    6.9487  -14.9407   23.4615 C   0  0  0  0  0  0  0  0  0  0  0  0
    6.4905  -15.3019   24.7073 C   0  0  0  0  0  0  0  0  0  0  0  0
    6.4439  -14.3669   25.7487 C   0  0  0  0  0  0  0  0  0  0  0  0
    6.8583  -13.0688   25.5371 C   0  0  0  0  0  0  0  0  0  0  0  0
    7.3169  -12.7039   24.2929 C   0  0  0  0  0  0  0  0  0  0  0  0
    7.3580  -13.6443   23.2653 C   0  0  0  0  0  0  0  0  0  0  0  0
    9.4859  -16.1257   22.2598 C   0  0  0  0  0  0  0  0  0  0  0  0
   10.4562  -15.3044   22.1616 O   0  0  0  0  0  0  0  0  0  0  0  0
    9.6839  -17.2555   23.0952 N   0  0  0  0  0  0  0  0  0  0  0  0
   10.4882  -17.1214   24.3377 C   0  0  1  0  0  0  0  0  0  0  0  0
    9.7485  -16.1370   25.2071 C   0  0  0  0  0  0  0  0  0  0  0  0
   10.2141  -15.9669   26.5710 C   0  0  0  0  0  0  0  0  0  0  0  0
   10.6788  -16.9988   27.3766 C   0  0  0  0  0  0  0  0  0  0  0  0
   10.9829  -16.4776   28.5590 N   0  0  0  0  0  0  0  0  0  0  0  0
   10.7420  -15.1581   28.5682 C   0  0  0  0  0  0  0  0  0  0  0  0
   10.9047  -14.1688   29.5375 C   0  0  0  0  0  0  0  0  0  0  0  0
   10.5945  -12.8603   29.2823 C   0  0  0  0  0  0  0  0  0  0  0  0
   10.1095  -12.5052   28.0407 C   0  0  0  0  0  0  0  0  0  0  0  0
    9.9495  -13.4759   27.0910 C   0  0  0  0  0  0  0  0  0  0  0  0
   10.2563  -14.8016   27.3300 C   0  0  0  0  0  0  0  0  0  0  0  0
   10.5635  -18.4322   24.9651 C   0  0  0  0  0  0  0  0  0  0  0  0
    9.5762  -19.2049   24.9332 O   0  0  0  0  0  0  0  0  0  0  0  0
   11.6884  -18.9274   25.6223 O   0  0  0  0  0  0  0  0  0  0  0  0
  2  1  1  0
  3  2  1  0
  3  4  1  6
  5  3  1  0
  5  6  2  0
  7  5  1  0
  8  7  1  0
  8  9  1  1
 10  9  1  0
 10 15  1  0
 11 10  2  0
 12 11  1  0
 12 13  2  0
 13 14  1  0
 14 15  2  0
 16  8  1  0
 17 16  2  0
 18 16  1  0
 19 20  1  1
 19 18  1  0
 21 20  1  0
 22 21  2  0
 23 24  1  0
 23 22  1  0
 24 29  2  0
 25 26  2  0
 25 24  1  0
 26 27  1  0
 27 28  2  0
 29 28  1  0
 29 21  1  0
 30 32  1  0
 30 19  1  0
 31 30  2  0
M  END
$$$$
