SFW.pdb
     RDKit          3D

 32 34  0  0  1  0  0  0  0  0999 V2000
    7.5761  -19.9805   24.6630 O   0  0  0  0  0  0  0  0  0  0  0  0
    6.3767  -20.2098   23.9796 C   0  0  0  0  0  0  0  0  0  0  0  0
    6.5956  -20.2400   22.5017 C   0  0  2  0  0  0  0  0  0  0  0  0
    7.3175  -21.4200   22.1238 N   0  0  0  0  0  0  0  0  0  0  0  0
    7.2938  -18.9924   22.0843 C   0  0  0  0  0  0  0  0  0  0  0  0
    8.5457  -19.0423   21.9426 O   0  0  0  0  0  0  0  0  0  0  0  0
    6.6478  -17.7672   21.8392 N   0  0  0  0  0  0  0  0  0  0  0  0
    7.3241  -16.4969   21.6708 C   0  0  1  0  0  0  0  0  0  0  0  0
    6.4627  -15.4664   21.0237 C   0  0  0  0  0  0  0  0  0  0  0  0
    7.1311  -14.2503   20.5877 C   0  0  0  0  0  0  0  0  0  0  0  0
    7.0975  -13.1101   21.3566 C   0  0  0  0  0  0  0  0  0  0  0  0
    7.7409  -11.9422   20.9287 C   0  0  0  0  0  0  0  0  0  0  0  0
    8.4181  -11.9213   19.7277 C   0  0  0  0  0  0  0  0  0  0  0  0
    8.4538  -13.0594   18.9562 C   0  0  0  0  0  0  0  0  0  0  0  0
    7.8092  -14.2147   19.3938 C   0  0  0  0  0  0  0  0  0  0  0  0
    8.0138  -16.0504   22.8966 C   0  0  0  0  0  0  0  0  0  0  0  0
    7.4531  -15.2240   23.6893 O   0  0  0  0  0  0  0  0  0  0  0  0
    9.3085  -16.5066   23.2562 N   0  0  0  0  0  0  0  0  0  0  0  0
   10.1253  -15.7220   24.2184 C   0  0  1  0  0  0  0  0  0  0  0  0
    9.5058  -15.9518   25.5732 C   0  0  0  0  0  0  0  0  0  0  0  0
    8.2320  -15.3115   25.8439 C   0  0  0  0  0  0  0  0  0  0  0  0
    7.0037  -15.9593   25.8062 C   0  0  0  0  0  0  0  0  0  0  0  0
    6.0670  -15.0569   26.0718 N   0  0  0  0  0  0  0  0  0  0  0  0
    6.6190  -13.8527   26.2821 C   0  0  0  0  0  0  0  0  0  0  0  0
    6.0852  -12.6055   26.6049 C   0  0  0  0  0  0  0  0  0  0  0  0
    6.8865  -11.5111   26.7893 C   0  0  0  0  0  0  0  0  0  0  0  0
    8.2534  -11.6377   26.6545 C   0  0  0  0  0  0  0  0  0  0  0  0
    8.7761  -12.8607   26.3372 C   0  0  0  0  0  0  0  0  0  0  0  0
    7.9838  -13.9762   26.1465 C   0  0  0  0  0  0  0  0  0  0  0  0
   11.4884  -16.2288   24.1648 C   0  0  0  0  0  0  0  0  0  0  0  0
   11.7563  -17.2489   23.4863 O   0  0  0  0  0  0  0  0  0  0  0  0
   12.5702  -15.6506   24.8266 O   0  0  0  0  0  0  0  0  0  0  0  0
  2  1  1  0
  3  2  1  0
  3  4  1  1
  5  3  1  0
  5  6  2  0
  7  5  1  0
  8  7  1  0
  8  9  1  1
 10  9  1  0
 10 15  1  0
 11 10  2  0
 12 11  1  0
 12 13  2  0
 13 14  1  0
 14 15  2  0
 16  8  1  0
 17 16  2  0
 18 16  1  0
 19 20  1  1
 19 18  1  0
 21 20  1  0
 22 21  2  0
 23 24  1  0
 23 22  1  0
 24 29  2  0
 25 26  2  0
 25 24  1  0
 26 27  1  0
 27 28  2  0
 29 28  1  0
 29 21  1  0
 30 32  1  0
 30 19  1  0
 31 30  2  0
M  END
$$$$
