SFW.pdb
     RDKit          3D

 32 34  0  0  1  0  0  0  0  0999 V2000
    7.2594  -20.9731   24.6053 O   0  0  0  0  0  0  0  0  0  0  0  0
    6.1925  -20.3514   23.9468 C   0  0  0  0  0  0  0  0  0  0  0  0
    6.3716  -20.4014   22.4641 C   0  0  2  0  0  0  0  0  0  0  0  0
    7.0965  -21.5789   22.0840 N   0  0  0  0  0  0  0  0  0  0  0  0
    7.0438  -19.1526   22.0094 C   0  0  0  0  0  0  0  0  0  0  0  0
    8.2618  -19.2264   21.6918 O   0  0  0  0  0  0  0  0  0  0  0  0
    6.4086  -17.9013   21.9122 N   0  0  0  0  0  0  0  0  0  0  0  0
    7.0954  -16.6398   21.7214 C   0  0  1  0  0  0  0  0  0  0  0  0
    6.2416  -15.6131   21.0583 C   0  0  0  0  0  0  0  0  0  0  0  0
    6.9142  -14.3974   20.6277 C   0  0  0  0  0  0  0  0  0  0  0  0
    7.6759  -14.3781   19.4824 C   0  0  0  0  0  0  0  0  0  0  0  0
    8.3229  -13.2045   19.0759 C   0  0  0  0  0  0  0  0  0  0  0  0
    8.2036  -12.0506   19.8213 C   0  0  0  0  0  0  0  0  0  0  0  0
    7.4429  -12.0660   20.9671 C   0  0  0  0  0  0  0  0  0  0  0  0
    6.8045  -13.2406   21.3602 C   0  0  0  0  0  0  0  0  0  0  0  0
    7.7909  -16.1787   22.9384 C   0  0  0  0  0  0  0  0  0  0  0  0
    7.2344  -15.3420   23.7233 O   0  0  0  0  0  0  0  0  0  0  0  0
    9.0868  -16.6313   23.2979 N   0  0  0  0  0  0  0  0  0  0  0  0
    9.9401  -15.7960   24.1826 C   0  0  1  0  0  0  0  0  0  0  0  0
    9.3254  -15.8838   25.5561 C   0  0  0  0  0  0  0  0  0  0  0  0
    8.0805  -15.1721   25.7789 C   0  0  0  0  0  0  0  0  0  0  0  0
    6.8218  -15.7579   25.7321 C   0  0  0  0  0  0  0  0  0  0  0  0
    5.9270  -14.8018   25.9498 N   0  0  0  0  0  0  0  0  0  0  0  0
    6.5352  -13.6211   26.1374 C   0  0  0  0  0  0  0  0  0  0  0  0
    6.0591  -12.3394   26.4114 C   0  0  0  0  0  0  0  0  0  0  0  0
    6.9112  -11.2818   26.5821 C   0  0  0  0  0  0  0  0  0  0  0  0
    8.2725  -11.4812   26.4823 C   0  0  0  0  0  0  0  0  0  0  0  0
    8.7385  -12.7381   26.2128 C   0  0  0  0  0  0  0  0  0  0  0  0
    7.8945  -13.8175   26.0366 C   0  0  0  0  0  0  0  0  0  0  0  0
   11.2836  -16.3548   24.1653 C   0  0  0  0  0  0  0  0  0  0  0  0
   12.1993  -15.8176   24.8331 O   0  0  0  0  0  0  0  0  0  0  0  0
   11.6563  -17.4876   23.4440 O   0  0  0  0  0  0  0  0  0  0  0  0
  2  1  1  0
  3  2  1  0
  3  4  1  1
  5  3  1  0
  5  6  2  0
  7  5  1  0
  8  7  1  0
  8  9  1  1
 10  9  1  0
 10 15  1  0
 11 10  2  0
 12 11  1  0
 12 13  2  0
 13 14  1  0
 14 15  2  0
 16  8  1  0
 17 16  2  0
 18 16  1  0
 19 20  1  1
 19 18  1  0
 21 20  1  0
 22 21  2  0
 23 24  1  0
 23 22  1  0
 24 29  2  0
 25 26  2  0
 25 24  1  0
 26 27  1  0
 27 28  2  0
 29 28  1  0
 29 21  1  0
 30 32  1  0
 30 19  1  0
 31 30  2  0
M  END
$$$$
