SFW.pdb
     RDKit          3D

 32 34  0  0  1  0  0  0  0  0999 V2000
   10.3752  -19.3534   22.3713 O   0  0  0  0  0  0  0  0  0  0  0  0
    9.3864  -19.4041   21.3824 C   0  0  0  0  0  0  0  0  0  0  0  0
    9.4923  -18.2381   20.4539 C   0  0  2  0  0  0  0  0  0  0  0  0
   10.5416  -18.4486   19.4992 N   0  0  0  0  0  0  0  0  0  0  0  0
    9.6930  -16.9951   21.2494 C   0  0  0  0  0  0  0  0  0  0  0  0
   10.8258  -16.4439   21.1972 O   0  0  0  0  0  0  0  0  0  0  0  0
    8.7030  -16.3996   22.0517 N   0  0  0  0  0  0  0  0  0  0  0  0
    8.8609  -15.1478   22.7641 C   0  0  1  0  0  0  0  0  0  0  0  0
    7.7186  -14.2141   22.5492 C   0  0  0  0  0  0  0  0  0  0  0  0
    7.5542  -13.6983   21.1991 C   0  0  0  0  0  0  0  0  0  0  0  0
    8.1761  -12.5362   20.8053 C   0  0  0  0  0  0  0  0  0  0  0  0
    8.0106  -12.0442   19.5046 C   0  0  0  0  0  0  0  0  0  0  0  0
    7.2198  -12.7212   18.6003 C   0  0  0  0  0  0  0  0  0  0  0  0
    6.5963  -13.8834   18.9905 C   0  0  0  0  0  0  0  0  0  0  0  0
    6.7695  -14.3618   20.2878 C   0  0  0  0  0  0  0  0  0  0  0  0
    9.2512  -15.3387   24.1743 C   0  0  0  0  0  0  0  0  0  0  0  0
    9.0450  -14.4186   25.0325 O   0  0  0  0  0  0  0  0  0  0  0  0
    9.8615  -16.5301   24.6454 N   0  0  0  0  0  0  0  0  0  0  0  0
   10.2393  -16.6479   26.0779 C   0  0  1  0  0  0  0  0  0  0  0  0
    8.9446  -16.7688   26.8403 C   0  0  0  0  0  0  0  0  0  0  0  0
    7.9208  -15.7731   26.5828 C   0  0  0  0  0  0  0  0  0  0  0  0
    6.7733  -16.0020   25.8342 C   0  0  0  0  0  0  0  0  0  0  0  0
    6.0934  -14.8628   25.7853 N   0  0  0  0  0  0  0  0  0  0  0  0
    6.7363  -13.9009   26.4638 C   0  0  0  0  0  0  0  0  0  0  0  0
    6.4427  -12.5629   26.7245 C   0  0  0  0  0  0  0  0  0  0  0  0
    7.2758  -11.7822   27.4796 C   0  0  0  0  0  0  0  0  0  0  0  0
    8.4334  -12.3248   27.9976 C   0  0  0  0  0  0  0  0  0  0  0  0
    8.7211  -13.6367   27.7409 C   0  0  0  0  0  0  0  0  0  0  0  0
    7.8934  -14.4400   26.9806 C   0  0  0  0  0  0  0  0  0  0  0  0
   11.0574  -17.8420   26.2277 C   0  0  0  0  0  0  0  0  0  0  0  0
   11.2689  -18.5898   25.2433 O   0  0  0  0  0  0  0  0  0  0  0  0
   11.6570  -18.2413   27.4208 O   0  0  0  0  0  0  0  0  0  0  0  0
  2  1  1  0
  3  2  1  0
  3  4  1  6
  5  3  1  0
  5  6  2  0
  7  5  1  0
  8  7  1  0
  8  9  1  1
 10  9  1  0
 10 15  1  0
 11 10  2  0
 12 11  1  0
 12 13  2  0
 13 14  1  0
 14 15  2  0
 16  8  1  0
 17 16  2  0
 18 16  1  0
 19 20  1  1
 19 18  1  0
 21 20  1  0
 22 21  2  0
 23 24  1  0
 23 22  1  0
 24 29  2  0
 25 26  2  0
 25 24  1  0
 26 27  1  0
 27 28  2  0
 29 28  1  0
 29 21  1  0
 30 32  1  0
 30 19  1  0
 31 30  2  0
M  END
$$$$
