SFW.pdb
     RDKit          3D

 32 34  0  0  1  0  0  0  0  0999 V2000
   10.6644  -19.4007   19.2400 O   0  0  0  0  0  0  0  0  0  0  0  0
    9.5679  -18.8189   18.5939 C   0  0  0  0  0  0  0  0  0  0  0  0
    9.7315  -17.3378   18.4827 C   0  0  2  0  0  0  0  0  0  0  0  0
   10.9284  -17.0163   17.7611 N   0  0  0  0  0  0  0  0  0  0  0  0
    9.7160  -16.7394   19.8465 C   0  0  0  0  0  0  0  0  0  0  0  0
   10.8149  -16.3507   20.3272 O   0  0  0  0  0  0  0  0  0  0  0  0
    8.5578  -16.5809   20.6288 N   0  0  0  0  0  0  0  0  0  0  0  0
    8.5401  -16.0595   21.9806 C   0  0  1  0  0  0  0  0  0  0  0  0
    7.2173  -15.4858   22.3599 C   0  0  0  0  0  0  0  0  0  0  0  0
    7.1426  -14.8488   23.6655 C   0  0  0  0  0  0  0  0  0  0  0  0
    6.8557  -15.5808   24.7943 C   0  0  0  0  0  0  0  0  0  0  0  0
    6.7825  -14.9599   26.0474 C   0  0  0  0  0  0  0  0  0  0  0  0
    6.9979  -13.6030   26.1650 C   0  0  0  0  0  0  0  0  0  0  0  0
    7.2849  -12.8678   25.0385 C   0  0  0  0  0  0  0  0  0  0  0  0
    7.3547  -13.4982   23.7977 C   0  0  0  0  0  0  0  0  0  0  0  0
    9.1151  -16.9990   22.9625 C   0  0  0  0  0  0  0  0  0  0  0  0
    8.9192  -18.2537   22.8483 O   0  0  0  0  0  0  0  0  0  0  0  0
    9.9027  -16.5703   24.0624 N   0  0  0  0  0  0  0  0  0  0  0  0
   10.6913  -17.5644   24.8359 C   0  0  1  0  0  0  0  0  0  0  0  0
   11.6846  -16.7689   25.6437 C   0  0  0  0  0  0  0  0  0  0  0  0
   11.2440  -16.2537   26.9268 C   0  0  0  0  0  0  0  0  0  0  0  0
   11.2727  -16.9742   28.1142 C   0  0  0  0  0  0  0  0  0  0  0  0
   10.7656  -16.1990   29.0651 N   0  0  0  0  0  0  0  0  0  0  0  0
   10.4075  -15.0086   28.5615 C   0  0  0  0  0  0  0  0  0  0  0  0
    9.8545  -13.8624   29.1318 C   0  0  0  0  0  0  0  0  0  0  0  0
    9.5959  -12.7454   28.3841 C   0  0  0  0  0  0  0  0  0  0  0  0
    9.8864  -12.7465   27.0356 C   0  0  0  0  0  0  0  0  0  0  0  0
   10.4279  -13.8709   26.4769 C   0  0  0  0  0  0  0  0  0  0  0  0
   10.6953  -15.0079   27.2148 C   0  0  0  0  0  0  0  0  0  0  0  0
    9.7710  -18.2941   25.6951 C   0  0  0  0  0  0  0  0  0  0  0  0
    8.5737  -17.9328   25.7885 O   0  0  0  0  0  0  0  0  0  0  0  0
   10.1183  -19.4117   26.4520 O   0  0  0  0  0  0  0  0  0  0  0  0
  2  1  1  0
  3  2  1  0
  3  4  1  1
  5  3  1  0
  5  6  2  0
  7  5  1  0
  8  7  1  0
  8  9  1  1
 10  9  1  0
 10 15  1  0
 11 10  2  0
 12 11  1  0
 12 13  2  0
 13 14  1  0
 14 15  2  0
 16  8  1  0
 17 16  2  0
 18 16  1  0
 19 20  1  1
 19 18  1  0
 21 20  1  0
 22 21  2  0
 23 24  1  0
 23 22  1  0
 24 29  2  0
 25 26  2  0
 25 24  1  0
 26 27  1  0
 27 28  2  0
 29 28  1  0
 29 21  1  0
 30 32  1  0
 30 19  1  0
 31 30  2  0
M  END
$$$$
