SFW.pdb
     RDKit          3D

 32 34  0  0  1  0  0  0  0  0999 V2000
    9.7677  -19.5792   19.7517 O   0  0  0  0  0  0  0  0  0  0  0  0
    8.6267  -19.1984   19.0367 C   0  0  0  0  0  0  0  0  0  0  0  0
    8.7388  -17.7888   18.5537 C   0  0  2  0  0  0  0  0  0  0  0  0
    9.7762  -17.6746   17.5703 N   0  0  0  0  0  0  0  0  0  0  0  0
    8.9626  -16.8881   19.7186 C   0  0  0  0  0  0  0  0  0  0  0  0
   10.1061  -16.3727   19.8480 O   0  0  0  0  0  0  0  0  0  0  0  0
    7.9834  -16.5774   20.6794 N   0  0  0  0  0  0  0  0  0  0  0  0
    8.1829  -15.6823   21.8012 C   0  0  1  0  0  0  0  0  0  0  0  0
    7.0212  -15.6612   22.7355 C   0  0  0  0  0  0  0  0  0  0  0  0
    7.0502  -14.6447   23.7755 C   0  0  0  0  0  0  0  0  0  0  0  0
    7.4757  -13.3653   23.5026 C   0  0  0  0  0  0  0  0  0  0  0  0
    7.5036  -12.3929   24.5100 C   0  0  0  0  0  0  0  0  0  0  0  0
    7.1034  -12.7073   25.7915 C   0  0  0  0  0  0  0  0  0  0  0  0
    6.6774  -13.9855   26.0682 C   0  0  0  0  0  0  0  0  0  0  0  0
    6.6547  -14.9435   25.0565 C   0  0  0  0  0  0  0  0  0  0  0  0
    9.4975  -15.8607   22.4473 C   0  0  0  0  0  0  0  0  0  0  0  0
   10.3623  -14.9241   22.4229 O   0  0  0  0  0  0  0  0  0  0  0  0
    9.8648  -17.0555   23.1191 N   0  0  0  0  0  0  0  0  0  0  0  0
   10.5717  -16.9796   24.4241 C   0  0  1  0  0  0  0  0  0  0  0  0
    9.6028  -16.3389   25.3847 C   0  0  0  0  0  0  0  0  0  0  0  0
    9.9808  -16.2923   26.7850 C   0  0  0  0  0  0  0  0  0  0  0  0
   10.3021  -17.4070   27.5492 C   0  0  0  0  0  0  0  0  0  0  0  0
   10.5607  -16.9864   28.7815 N   0  0  0  0  0  0  0  0  0  0  0  0
   10.4260  -15.6544   28.8627 C   0  0  0  0  0  0  0  0  0  0  0  0
   10.5968  -14.7433   29.9045 C   0  0  0  0  0  0  0  0  0  0  0  0
   10.4113  -13.4001   29.7171 C   0  0  0  0  0  0  0  0  0  0  0  0
   10.0473  -12.9303   28.4723 C   0  0  0  0  0  0  0  0  0  0  0  0
    9.8792  -13.8242   27.4514 C   0  0  0  0  0  0  0  0  0  0  0  0
   10.0610  -15.1832   27.6213 C   0  0  0  0  0  0  0  0  0  0  0  0
   10.9047  -18.3363   24.8316 C   0  0  0  0  0  0  0  0  0  0  0  0
   11.8591  -18.5426   25.6187 O   0  0  0  0  0  0  0  0  0  0  0  0
   10.2222  -19.4756   24.4090 O   0  0  0  0  0  0  0  0  0  0  0  0
  2  1  1  0
  3  2  1  0
  3  4  1  6
  5  3  1  0
  5  6  2  0
  7  5  1  0
  8  7  1  0
  8  9  1  1
 10  9  1  0
 10 15  1  0
 11 10  2  0
 12 11  1  0
 12 13  2  0
 13 14  1  0
 14 15  2  0
 16  8  1  0
 17 16  2  0
 18 16  1  0
 19 20  1  1
 19 18  1  0
 21 20  1  0
 22 21  2  0
 23 24  1  0
 23 22  1  0
 24 29  2  0
 25 26  2  0
 25 24  1  0
 26 27  1  0
 27 28  2  0
 29 28  1  0
 29 21  1  0
 30 32  1  0
 30 19  1  0
 31 30  2  0
M  END
$$$$
