SFW.pdb
     RDKit          3D

 32 34  0  0  1  0  0  0  0  0999 V2000
   10.7876  -18.8066   19.4605 O   0  0  0  0  0  0  0  0  0  0  0  0
    9.9373  -17.9864   18.7105 C   0  0  0  0  0  0  0  0  0  0  0  0
   10.3077  -16.5464   18.8597 C   0  0  2  0  0  0  0  0  0  0  0  0
   11.6669  -16.3318   18.4559 N   0  0  0  0  0  0  0  0  0  0  0  0
   10.0618  -16.1204   20.2655 C   0  0  0  0  0  0  0  0  0  0  0  0
   11.0511  -16.0816   21.0463 O   0  0  0  0  0  0  0  0  0  0  0  0
    8.8013  -15.7602   20.7751 N   0  0  0  0  0  0  0  0  0  0  0  0
    8.5226  -15.4875   22.1706 C   0  0  1  0  0  0  0  0  0  0  0  0
    7.2116  -14.8074   22.3745 C   0  0  0  0  0  0  0  0  0  0  0  0
    6.8699  -14.4665   23.7467 C   0  0  0  0  0  0  0  0  0  0  0  0
    6.2618  -15.3830   24.5728 C   0  0  0  0  0  0  0  0  0  0  0  0
    5.9332  -15.0463   25.8919 C   0  0  0  0  0  0  0  0  0  0  0  0
    6.2164  -13.7881   26.3798 C   0  0  0  0  0  0  0  0  0  0  0  0
    6.8243  -12.8690   25.5567 C   0  0  0  0  0  0  0  0  0  0  0  0
    7.1459  -13.2171   24.2462 C   0  0  0  0  0  0  0  0  0  0  0  0
    8.7581  -16.6571   23.0390 C   0  0  0  0  0  0  0  0  0  0  0  0
    8.3153  -17.8065   22.7096 O   0  0  0  0  0  0  0  0  0  0  0  0
    9.4763  -16.5722   24.2599 N   0  0  0  0  0  0  0  0  0  0  0  0
   10.0937  -17.7940   24.8382 C   0  0  1  0  0  0  0  0  0  0  0  0
   11.2763  -17.3204   25.6439 C   0  0  0  0  0  0  0  0  0  0  0  0
   11.0074  -16.7171   26.9360 C   0  0  0  0  0  0  0  0  0  0  0  0
   10.6562  -17.4278   28.0768 C   0  0  0  0  0  0  0  0  0  0  0  0
   10.4569  -16.5482   29.0509 N   0  0  0  0  0  0  0  0  0  0  0  0
   10.6603  -15.2991   28.6066 C   0  0  0  0  0  0  0  0  0  0  0  0
   10.5984  -14.0493   29.2220 C   0  0  0  0  0  0  0  0  0  0  0  0
   10.8775  -12.8992   28.5342 C   0  0  0  0  0  0  0  0  0  0  0  0
   11.2284  -12.9708   27.2021 C   0  0  0  0  0  0  0  0  0  0  0  0
   11.2881  -14.1965   26.5990 C   0  0  0  0  0  0  0  0  0  0  0  0
   11.0094  -15.3679   27.2763 C   0  0  0  0  0  0  0  0  0  0  0  0
    9.1001  -18.4400   25.6827 C   0  0  0  0  0  0  0  0  0  0  0  0
    9.3584  -19.5353   26.2364 O   0  0  0  0  0  0  0  0  0  0  0  0
    7.8332  -17.9220   25.9456 O   0  0  0  0  0  0  0  0  0  0  0  0
  2  1  1  0
  3  2  1  0
  3  4  1  1
  5  3  1  0
  5  6  2  0
  7  5  1  0
  8  7  1  0
  8  9  1  6
 10  9  1  0
 10 15  1  0
 11 10  2  0
 12 11  1  0
 12 13  2  0
 13 14  1  0
 14 15  2  0
 16  8  1  0
 17 16  2  0
 18 16  1  0
 19 20  1  1
 19 18  1  0
 21 20  1  0
 22 21  2  0
 23 24  1  0
 23 22  1  0
 24 29  2  0
 25 26  2  0
 25 24  1  0
 26 27  1  0
 27 28  2  0
 29 28  1  0
 29 21  1  0
 30 32  1  0
 30 19  1  0
 31 30  2  0
M  END
$$$$
