SFW.pdb
     RDKit          3D

 32 34  0  0  1  0  0  0  0  0999 V2000
   10.6603  -19.1616   19.4430 O   0  0  0  0  0  0  0  0  0  0  0  0
    9.7866  -18.3788   18.6802 C   0  0  0  0  0  0  0  0  0  0  0  0
   10.2188  -16.9484   18.6642 C   0  0  2  0  0  0  0  0  0  0  0  0
   11.5329  -16.8259   18.1034 N   0  0  0  0  0  0  0  0  0  0  0  0
   10.1404  -16.3975   20.0457 C   0  0  0  0  0  0  0  0  0  0  0  0
   11.2180  -16.2764   20.6891 O   0  0  0  0  0  0  0  0  0  0  0  0
    8.9454  -16.0053   20.6756 N   0  0  0  0  0  0  0  0  0  0  0  0
    8.8333  -15.6252   22.0693 C   0  0  1  0  0  0  0  0  0  0  0  0
    7.5486  -14.9340   22.3768 C   0  0  0  0  0  0  0  0  0  0  0  0
    7.4355  -14.3459   23.7024 C   0  0  0  0  0  0  0  0  0  0  0  0
    7.7754  -13.0315   23.9245 C   0  0  0  0  0  0  0  0  0  0  0  0
    7.6667  -12.4733   25.2043 C   0  0  0  0  0  0  0  0  0  0  0  0
    7.2160  -13.2370   26.2603 C   0  0  0  0  0  0  0  0  0  0  0  0
    6.8753  -14.5515   26.0420 C   0  0  0  0  0  0  0  0  0  0  0  0
    6.9883  -15.0945   24.7636 C   0  0  0  0  0  0  0  0  0  0  0  0
    9.1850  -16.7230   22.9905 C   0  0  0  0  0  0  0  0  0  0  0  0
    8.9652  -17.9359   22.6646 O   0  0  0  0  0  0  0  0  0  0  0  0
    9.7764  -16.4972   24.2605 N   0  0  0  0  0  0  0  0  0  0  0  0
   10.5159  -17.5958   24.9348 C   0  0  1  0  0  0  0  0  0  0  0  0
   11.4618  -16.9284   25.9003 C   0  0  0  0  0  0  0  0  0  0  0  0
   10.9783  -16.6775   27.2453 C   0  0  0  0  0  0  0  0  0  0  0  0
   11.2206  -17.5054   28.3342 C   0  0  0  0  0  0  0  0  0  0  0  0
   10.5995  -16.9794   29.3829 N   0  0  0  0  0  0  0  0  0  0  0  0
    9.9643  -15.8499   29.0367 C   0  0  0  0  0  0  0  0  0  0  0  0
    9.1989  -14.9313   29.7543 C   0  0  0  0  0  0  0  0  0  0  0  0
    8.6655  -13.8223   29.1549 C   0  0  0  0  0  0  0  0  0  0  0  0
    8.8862  -13.6021   27.8112 C   0  0  0  0  0  0  0  0  0  0  0  0
    9.6362  -14.5036   27.1079 C   0  0  0  0  0  0  0  0  0  0  0  0
   10.1819  -15.6288   27.6950 C   0  0  0  0  0  0  0  0  0  0  0  0
    9.5450  -18.4266   25.6311 C   0  0  0  0  0  0  0  0  0  0  0  0
    8.3356  -18.0958   25.6586 O   0  0  0  0  0  0  0  0  0  0  0  0
    9.8550  -19.6126   26.2943 O   0  0  0  0  0  0  0  0  0  0  0  0
  2  1  1  0
  3  2  1  0
  3  4  1  1
  5  3  1  0
  5  6  2  0
  7  5  1  0
  8  7  1  0
  8  9  1  1
 10  9  1  0
 10 15  1  0
 11 10  2  0
 12 11  1  0
 12 13  2  0
 13 14  1  0
 14 15  2  0
 16  8  1  0
 17 16  2  0
 18 16  1  0
 19 20  1  1
 19 18  1  0
 21 20  1  0
 22 21  2  0
 23 24  1  0
 23 22  1  0
 24 29  2  0
 25 26  2  0
 25 24  1  0
 26 27  1  0
 27 28  2  0
 29 28  1  0
 29 21  1  0
 30 32  1  0
 30 19  1  0
 31 30  2  0
M  END
$$$$
