SFW.pdb
     RDKit          3D

 32 34  0  0  1  0  0  0  0  0999 V2000
    9.1241  -19.6095   22.2136 O   0  0  0  0  0  0  0  0  0  0  0  0
    8.0789  -19.2541   21.3538 C   0  0  0  0  0  0  0  0  0  0  0  0
    8.5474  -18.3045   20.2995 C   0  0  2  0  0  0  0  0  0  0  0  0
    9.2953  -18.9995   19.2924 N   0  0  0  0  0  0  0  0  0  0  0  0
    9.3364  -17.2143   20.9377 C   0  0  0  0  0  0  0  0  0  0  0  0
   10.5657  -17.1459   20.6659 O   0  0  0  0  0  0  0  0  0  0  0  0
    8.7992  -16.2602   21.8207 N   0  0  0  0  0  0  0  0  0  0  0  0
    9.5547  -15.1882   22.4366 C   0  0  1  0  0  0  0  0  0  0  0  0
    8.8353  -13.8828   22.4032 C   0  0  0  0  0  0  0  0  0  0  0  0
    8.2294  -13.5142   21.1332 C   0  0  0  0  0  0  0  0  0  0  0  0
    8.9143  -12.7484   20.2185 C   0  0  0  0  0  0  0  0  0  0  0  0
    8.3230  -12.3950   18.9992 C   0  0  0  0  0  0  0  0  0  0  0  0
    7.0431  -12.8120   18.7001 C   0  0  0  0  0  0  0  0  0  0  0  0
    6.3552  -13.5778   19.6123 C   0  0  0  0  0  0  0  0  0  0  0  0
    6.9553  -13.9222   20.8218 C   0  0  0  0  0  0  0  0  0  0  0  0
   10.1053  -15.5614   23.7538 C   0  0  0  0  0  0  0  0  0  0  0  0
   11.0227  -14.8593   24.2935 O   0  0  0  0  0  0  0  0  0  0  0  0
    9.6542  -16.6944   24.4793 N   0  0  0  0  0  0  0  0  0  0  0  0
   10.1424  -16.9252   25.8638 C   0  0  1  0  0  0  0  0  0  0  0  0
    8.9106  -17.0386   26.7251 C   0  0  0  0  0  0  0  0  0  0  0  0
    7.8297  -16.1036   26.4736 C   0  0  0  0  0  0  0  0  0  0  0  0
    6.5854  -16.4590   25.9685 C   0  0  0  0  0  0  0  0  0  0  0  0
    5.8727  -15.3464   25.8404 N   0  0  0  0  0  0  0  0  0  0  0  0
    6.5860  -14.2818   26.2364 C   0  0  0  0  0  0  0  0  0  0  0  0
    6.2976  -12.9196   26.3141 C   0  0  0  0  0  0  0  0  0  0  0  0
    7.2161  -12.0201   26.7842 C   0  0  0  0  0  0  0  0  0  0  0  0
    8.4568  -12.4641   27.1919 C   0  0  0  0  0  0  0  0  0  0  0  0
    8.7392  -13.7998   27.1147 C   0  0  0  0  0  0  0  0  0  0  0  0
    7.8258  -14.7225   26.6426 C   0  0  0  0  0  0  0  0  0  0  0  0
   10.9086  -18.1624   25.8672 C   0  0  0  0  0  0  0  0  0  0  0  0
   11.5049  -18.5326   26.9066 O   0  0  0  0  0  0  0  0  0  0  0  0
   11.0385  -19.0113   24.7696 O   0  0  0  0  0  0  0  0  0  0  0  0
  2  1  1  0
  3  2  1  0
  3  4  1  6
  5  3  1  0
  5  6  2  0
  7  5  1  0
  8  7  1  0
  8  9  1  1
 10  9  1  0
 10 15  1  0
 11 10  2  0
 12 11  1  0
 12 13  2  0
 13 14  1  0
 14 15  2  0
 16  8  1  0
 17 16  2  0
 18 16  1  0
 19 20  1  1
 19 18  1  0
 21 20  1  0
 22 21  2  0
 23 24  1  0
 23 22  1  0
 24 29  2  0
 25 26  2  0
 25 24  1  0
 26 27  1  0
 27 28  2  0
 29 28  1  0
 29 21  1  0
 30 32  1  0
 30 19  1  0
 31 30  2  0
M  END
$$$$
