AIW.pdb
     RDKit          3D

 28 29  0  0  1  0  0  0  0  0999 V2000
    4.8760  -18.4818   22.7036 C   0  0  0  0  0  0  0  0  0  0  0  0
    5.2656  -18.1313   21.2836 C   0  0  2  0  0  0  0  0  0  0  0  0
    5.1709  -19.2457   20.3907 N   0  0  0  0  0  0  0  0  0  0  0  0
    6.6466  -17.5645   21.3344 C   0  0  0  0  0  0  0  0  0  0  0  0
    7.6400  -18.3367   21.3523 O   0  0  0  0  0  0  0  0  0  0  0  0
    7.5353  -12.0568   20.3582 C   0  0  0  0  0  0  0  0  0  0  0  0
    7.5053  -13.3465   21.1142 C   0  0  0  0  0  0  0  0  0  0  0  0
    8.3286  -14.4468   20.4642 C   0  0  2  0  0  0  0  0  0  0  0  0
    7.8309  -14.7283   19.0790 C   0  0  0  0  0  0  0  0  0  0  0  0
    8.2909  -15.6809   21.3099 C   0  0  2  0  0  0  0  0  0  0  0  0
    6.8951  -16.1788   21.3640 N   0  0  0  0  0  0  0  0  0  0  0  0
    8.6444  -15.4627   22.7256 C   0  0  0  0  0  0  0  0  0  0  0  0
    8.1037  -14.5060   23.3726 O   0  0  0  0  0  0  0  0  0  0  0  0
    9.5441  -16.2132   23.4999 N   0  0  0  0  0  0  0  0  0  0  0  0
   10.0941  -15.7325   24.7098 C   0  0  1  0  0  0  0  0  0  0  0  0
    9.4084  -16.0778   25.9629 C   0  0  0  0  0  0  0  0  0  0  0  0
    8.0930  -15.4034   26.0426 C   0  0  0  0  0  0  0  0  0  0  0  0
    6.8594  -15.9996   25.8584 C   0  0  0  0  0  0  0  0  0  0  0  0
    5.8597  -15.1367   25.9788 N   0  0  0  0  0  0  0  0  0  0  0  0
    6.4181  -13.9406   26.2477 C   0  0  0  0  0  0  0  0  0  0  0  0
    5.8730  -12.7068   26.4655 C   0  0  0  0  0  0  0  0  0  0  0  0
    6.7060  -11.6293   26.7243 C   0  0  0  0  0  0  0  0  0  0  0  0
    8.0751  -11.7810   26.7657 C   0  0  0  0  0  0  0  0  0  0  0  0
    8.6472  -13.0350   26.5453 C   0  0  0  0  0  0  0  0  0  0  0  0
    7.8098  -14.0762   26.2935 C   0  0  0  0  0  0  0  0  0  0  0  0
   11.5127  -16.1504   24.7770 C   0  0  0  0  0  0  0  0  0  0  0  0
   12.3942  -15.8159   25.7940 O   0  0  0  0  0  0  0  0  0  0  0  0
   11.9836  -16.8600   23.8596 O   0  0  0  0  0  0  0  0  0  0  0  0
  2  1  1  1
  3  2  1  0
  4 11  1  0
  4  2  1  0
  5  4  2  0
  6  7  1  0
  7  8  1  0
  8  9  1  6
 10 11  1  1
 10  8  1  0
 12 10  1  0
 13 12  2  0
 14 12  1  0
 15 16  1  1
 15 14  1  0
 17 16  1  0
 18 17  2  0
 19 18  1  0
 20 19  1  0
 20 25  2  0
 21 20  1  0
 22 21  2  0
 22 23  1  0
 23 24  2  0
 24 25  1  0
 25 17  1  0
 26 15  1  0
 27 26  1  0
 28 26  2  0
M  END
$$$$
