AIW.pdb
     RDKit          3D

 28 29  0  0  1  0  0  0  0  0999 V2000
    7.3404  -20.0901   20.8448 C   0  0  0  0  0  0  0  0  0  0  0  0
    7.2900  -18.9608   19.8381 C   0  0  2  0  0  0  0  0  0  0  0  0
    7.4846  -19.4074   18.4925 N   0  0  0  0  0  0  0  0  0  0  0  0
    8.3147  -17.9566   20.2534 C   0  0  0  0  0  0  0  0  0  0  0  0
    9.5368  -18.1992   20.0765 O   0  0  0  0  0  0  0  0  0  0  0  0
    6.9454  -12.6044   20.8067 C   0  0  0  0  0  0  0  0  0  0  0  0
    7.3888  -13.9375   21.3189 C   0  0  0  0  0  0  0  0  0  0  0  0
    8.6920  -14.4185   20.7016 C   0  0  2  0  0  0  0  0  0  0  0  0
    8.5913  -14.4366   19.2065 C   0  0  0  0  0  0  0  0  0  0  0  0
    9.0401  -15.7734   21.2333 C   0  0  2  0  0  0  0  0  0  0  0  0
    7.9717  -16.7261   20.8457 N   0  0  0  0  0  0  0  0  0  0  0  0
    9.0762  -15.8614   22.7056 C   0  0  0  0  0  0  0  0  0  0  0  0
    8.2287  -16.5924   23.3168 O   0  0  0  0  0  0  0  0  0  0  0  0
    9.9729  -15.2146   23.5715 N   0  0  0  0  0  0  0  0  0  0  0  0
   10.0773  -15.5395   24.9430 C   0  0  1  0  0  0  0  0  0  0  0  0
    8.9436  -16.2284   25.5755 C   0  0  0  0  0  0  0  0  0  0  0  0
    7.7842  -15.3173   25.7055 C   0  0  0  0  0  0  0  0  0  0  0  0
    6.4670  -15.6299   25.4252 C   0  0  0  0  0  0  0  0  0  0  0  0
    5.6520  -14.6032   25.6248 N   0  0  0  0  0  0  0  0  0  0  0  0
    6.4218  -13.5807   26.0452 C   0  0  0  0  0  0  0  0  0  0  0  0
    6.1204  -12.2948   26.3952 C   0  0  0  0  0  0  0  0  0  0  0  0
    7.1364  -11.4417   26.7976 C   0  0  0  0  0  0  0  0  0  0  0  0
    8.4458  -11.8683   26.8507 C   0  0  0  0  0  0  0  0  0  0  0  0
    8.7697  -13.1790   26.4963 C   0  0  0  0  0  0  0  0  0  0  0  0
    7.7563  -13.9966   26.1051 C   0  0  0  0  0  0  0  0  0  0  0  0
   11.3200  -16.3180   25.1457 C   0  0  0  0  0  0  0  0  0  0  0  0
   12.2182  -16.6593   24.1456 O   0  0  0  0  0  0  0  0  0  0  0  0
   11.6104  -16.7144   26.2970 O   0  0  0  0  0  0  0  0  0  0  0  0
  2  1  1  1
  3  2  1  0
  4 11  1  0
  4  2  1  0
  5  4  2  0
  6  7  1  0
  7  8  1  0
  8  9  1  6
 10 11  1  1
 10  8  1  0
 12 10  1  0
 13 12  2  0
 14 12  1  0
 15 16  1  6
 15 14  1  0
 17 16  1  0
 18 17  2  0
 19 18  1  0
 20 19  1  0
 20 25  2  0
 21 20  1  0
 22 21  2  0
 22 23  1  0
 23 24  2  0
 24 25  1  0
 25 17  1  0
 26 15  1  0
 27 26  1  0
 28 26  2  0
M  END
$$$$
