AIW.pdb
     RDKit          3D

 28 29  0  0  1  0  0  0  0  0999 V2000
    4.6593  -18.4322   22.2984 C   0  0  0  0  0  0  0  0  0  0  0  0
    5.0560  -17.8868   20.9433 C   0  0  2  0  0  0  0  0  0  0  0  0
    5.0615  -18.8887   19.9214 N   0  0  0  0  0  0  0  0  0  0  0  0
    6.3917  -17.2382   21.1050 C   0  0  0  0  0  0  0  0  0  0  0  0
    7.4284  -17.9482   21.1734 O   0  0  0  0  0  0  0  0  0  0  0  0
    7.2353  -12.4653   18.8629 C   0  0  0  0  0  0  0  0  0  0  0  0
    7.4047  -13.8444   19.4155 C   0  0  0  0  0  0  0  0  0  0  0  0
    7.9047  -13.8625   20.8510 C   0  0  2  0  0  0  0  0  0  0  0  0
    9.2725  -13.2567   20.9397 C   0  0  0  0  0  0  0  0  0  0  0  0
    7.9026  -15.2641   21.3755 C   0  0  2  0  0  0  0  0  0  0  0  0
    6.5496  -15.8413   21.1864 N   0  0  0  0  0  0  0  0  0  0  0  0
    8.1346  -15.3734   22.8284 C   0  0  0  0  0  0  0  0  0  0  0  0
    7.4578  -14.6520   23.6333 O   0  0  0  0  0  0  0  0  0  0  0  0
    9.0496  -16.2166   23.4794 N   0  0  0  0  0  0  0  0  0  0  0  0
    9.7877  -15.8098   24.6139 C   0  0  1  0  0  0  0  0  0  0  0  0
    9.2049  -16.0584   25.9399 C   0  0  0  0  0  0  0  0  0  0  0  0
    7.9251  -15.3305   26.0938 C   0  0  0  0  0  0  0  0  0  0  0  0
    6.6607  -15.8575   25.9066 C   0  0  0  0  0  0  0  0  0  0  0  0
    5.7060  -14.9587   26.1041 N   0  0  0  0  0  0  0  0  0  0  0  0
    6.3263  -13.8078   26.4289 C   0  0  0  0  0  0  0  0  0  0  0  0
    5.8452  -12.5658   26.7337 C   0  0  0  0  0  0  0  0  0  0  0  0
    6.7339  -11.5452   27.0343 C   0  0  0  0  0  0  0  0  0  0  0  0
    8.0950  -11.7616   27.0310 C   0  0  0  0  0  0  0  0  0  0  0  0
    8.6019  -13.0248   26.7217 C   0  0  0  0  0  0  0  0  0  0  0  0
    7.7107  -14.0094   26.4304 C   0  0  0  0  0  0  0  0  0  0  0  0
   11.1381  -16.4111   24.5334 C   0  0  0  0  0  0  0  0  0  0  0  0
   12.1686  -16.1780   25.4317 O   0  0  0  0  0  0  0  0  0  0  0  0
   11.4021  -17.1938   23.5929 O   0  0  0  0  0  0  0  0  0  0  0  0
  2  1  1  1
  3  2  1  0
  4 11  1  0
  4  2  1  0
  5  4  2  0
  6  7  1  0
  7  8  1  0
  8  9  1  6
 10 11  1  1
 10  8  1  0
 12 10  1  0
 13 12  2  0
 14 12  1  0
 15 16  1  1
 15 14  1  0
 17 16  1  0
 18 17  2  0
 19 18  1  0
 20 19  1  0
 20 25  2  0
 21 20  1  0
 22 21  2  0
 22 23  1  0
 23 24  2  0
 24 25  1  0
 25 17  1  0
 26 15  1  0
 27 26  1  0
 28 26  2  0
M  END
$$$$
