AIW.pdb
     RDKit          3D

 28 29  0  0  1  0  0  0  0  0999 V2000
   10.9076  -19.1339   19.8608 C   0  0  0  0  0  0  0  0  0  0  0  0
   10.8588  -17.7931   19.1600 C   0  0  2  0  0  0  0  0  0  0  0  0
   12.0269  -17.5342   18.3748 N   0  0  0  0  0  0  0  0  0  0  0  0
   10.6447  -16.7553   20.2126 C   0  0  0  0  0  0  0  0  0  0  0  0
   11.6341  -16.1738   20.7289 O   0  0  0  0  0  0  0  0  0  0  0  0
    6.8241  -13.0338   19.7361 C   0  0  0  0  0  0  0  0  0  0  0  0
    8.0722  -13.7700   20.1052 C   0  0  0  0  0  0  0  0  0  0  0  0
    7.9449  -14.5661   21.3941 C   0  0  2  0  0  0  0  0  0  0  0  0
    7.5916  -13.6640   22.5374 C   0  0  0  0  0  0  0  0  0  0  0  0
    9.2174  -15.3052   21.6662 C   0  0  2  0  0  0  0  0  0  0  0  0
    9.3623  -16.3889   20.6642 N   0  0  0  0  0  0  0  0  0  0  0  0
    9.2485  -16.0128   22.9604 C   0  0  0  0  0  0  0  0  0  0  0  0
    8.7278  -17.1727   23.0602 O   0  0  0  0  0  0  0  0  0  0  0  0
    9.8106  -15.5552   24.1632 N   0  0  0  0  0  0  0  0  0  0  0  0
    9.8570  -16.3468   25.3331 C   0  0  1  0  0  0  0  0  0  0  0  0
    9.4107  -15.7383   26.5942 C   0  0  0  0  0  0  0  0  0  0  0  0
    8.1021  -15.0692   26.4181 C   0  0  0  0  0  0  0  0  0  0  0  0
    6.9111  -15.6851   26.0811 C   0  0  0  0  0  0  0  0  0  0  0  0
    5.9083  -14.8230   25.9825 N   0  0  0  0  0  0  0  0  0  0  0  0
    6.4215  -13.6076   26.2549 C   0  0  0  0  0  0  0  0  0  0  0  0
    5.8535  -12.3657   26.2992 C   0  0  0  0  0  0  0  0  0  0  0  0
    6.6389  -11.2674   26.6134 C   0  0  0  0  0  0  0  0  0  0  0  0
    7.9835  -11.4065   26.8820 C   0  0  0  0  0  0  0  0  0  0  0  0
    8.5784  -12.6685   26.8408 C   0  0  0  0  0  0  0  0  0  0  0  0
    7.7877  -13.7301   26.5303 C   0  0  0  0  0  0  0  0  0  0  0  0
    9.1068  -17.5979   25.0811 C   0  0  0  0  0  0  0  0  0  0  0  0
    8.2896  -17.8295   23.9848 O   0  0  0  0  0  0  0  0  0  0  0  0
    9.1950  -18.5380   25.9029 O   0  0  0  0  0  0  0  0  0  0  0  0
  2  1  1  1
  3  2  1  0
  4 11  1  0
  4  2  1  0
  5  4  2  0
  6  7  1  0
  7  8  1  0
  8  9  1  1
 10 11  1  6
 10  8  1  0
 12 10  1  0
 13 12  2  0
 14 12  1  0
 15 16  1  1
 15 14  1  0
 17 16  1  0
 18 17  2  0
 19 18  1  0
 20 19  1  0
 20 25  2  0
 21 20  1  0
 22 21  2  0
 22 23  1  0
 23 24  2  0
 24 25  1  0
 25 17  1  0
 26 15  1  0
 27 26  1  0
 28 26  2  0
M  END
$$$$
