AIW.pdb
     RDKit          3D

 28 29  0  0  1  0  0  0  0  0999 V2000
    7.7849  -19.9014   21.2985 C   0  0  0  0  0  0  0  0  0  0  0  0
    7.7705  -18.9586   20.1144 C   0  0  2  0  0  0  0  0  0  0  0  0
    8.2443  -19.5713   18.9111 N   0  0  0  0  0  0  0  0  0  0  0  0
    8.5803  -17.7628   20.4957 C   0  0  0  0  0  0  0  0  0  0  0  0
    9.8259  -17.7673   20.3172 O   0  0  0  0  0  0  0  0  0  0  0  0
    6.7033  -12.7001   19.7127 C   0  0  0  0  0  0  0  0  0  0  0  0
    7.6373  -13.8608   19.8405 C   0  0  0  0  0  0  0  0  0  0  0  0
    7.9911  -14.1955   21.2805 C   0  0  2  0  0  0  0  0  0  0  0  0
    8.6727  -13.0345   21.9387 C   0  0  0  0  0  0  0  0  0  0  0  0
    8.8515  -15.4192   21.3243 C   0  0  2  0  0  0  0  0  0  0  0  0
    8.0045  -16.6068   21.0569 N   0  0  0  0  0  0  0  0  0  0  0  0
    9.4485  -15.6997   22.6441 C   0  0  0  0  0  0  0  0  0  0  0  0
   10.5244  -15.1091   22.9903 O   0  0  0  0  0  0  0  0  0  0  0  0
    8.9596  -16.5762   23.6264 N   0  0  0  0  0  0  0  0  0  0  0  0
    9.5606  -16.7073   24.8987 C   0  0  1  0  0  0  0  0  0  0  0  0
    9.5261  -15.5466   25.7994 C   0  0  0  0  0  0  0  0  0  0  0  0
    8.1410  -15.0490   25.9587 C   0  0  0  0  0  0  0  0  0  0  0  0
    6.9854  -15.7903   25.7968 C   0  0  0  0  0  0  0  0  0  0  0  0
    5.8913  -15.0672   25.9928 N   0  0  0  0  0  0  0  0  0  0  0  0
    6.3058  -13.8207   26.2911 C   0  0  0  0  0  0  0  0  0  0  0  0
    5.6197  -12.6756   26.5827 C   0  0  0  0  0  0  0  0  0  0  0  0
    6.3209  -11.5112   26.8552 C   0  0  0  0  0  0  0  0  0  0  0  0
    7.6987  -11.4884   26.8372 C   0  0  0  0  0  0  0  0  0  0  0  0
    8.4139  -12.6500   26.5411 C   0  0  0  0  0  0  0  0  0  0  0  0
    7.7042  -13.7792   26.2773 C   0  0  0  0  0  0  0  0  0  0  0  0
    8.9759  -17.8887   25.5725 C   0  0  0  0  0  0  0  0  0  0  0  0
    9.4351  -18.4362   26.7611 O   0  0  0  0  0  0  0  0  0  0  0  0
    7.9907  -18.4610   25.0541 O   0  0  0  0  0  0  0  0  0  0  0  0
  2  1  1  1
  3  2  1  0
  4 11  1  0
  4  2  1  0
  5  4  2  0
  6  7  1  0
  7  8  1  0
  8  9  1  6
 10 11  1  1
 10  8  1  0
 12 10  1  0
 13 12  2  0
 14 12  1  0
 15 16  1  1
 15 14  1  0
 17 16  1  0
 18 17  2  0
 19 18  1  0
 20 19  1  0
 20 25  2  0
 21 20  1  0
 22 21  2  0
 22 23  1  0
 23 24  2  0
 24 25  1  0
 25 17  1  0
 26 15  1  0
 27 26  1  0
 28 26  2  0
M  END
$$$$
