AIW.pdb
     RDKit          3D

 28 29  0  0  1  0  0  0  0  0999 V2000
   12.7150  -18.3185   19.6467 C   0  0  0  0  0  0  0  0  0  0  0  0
   11.3265  -18.6847   19.1682 C   0  0  2  0  0  0  0  0  0  0  0  0
   11.0129  -18.1213   17.8906 N   0  0  0  0  0  0  0  0  0  0  0  0
   10.3679  -18.2493   20.2278 C   0  0  0  0  0  0  0  0  0  0  0  0
    9.9434  -17.0648   20.2395 O   0  0  0  0  0  0  0  0  0  0  0  0
    6.6400  -21.8359   21.7024 C   0  0  0  0  0  0  0  0  0  0  0  0
    7.2685  -20.5159   21.3888 C   0  0  0  0  0  0  0  0  0  0  0  0
    8.0432  -19.9236   22.5549 C   0  0  2  0  0  0  0  0  0  0  0  0
    7.1213  -19.6082   23.6935 C   0  0  0  0  0  0  0  0  0  0  0  0
    8.7840  -18.7021   22.1089 C   0  0  2  0  0  0  0  0  0  0  0  0
    9.9073  -19.1189   21.2349 N   0  0  0  0  0  0  0  0  0  0  0  0
    9.4409  -17.9541   23.1978 C   0  0  0  0  0  0  0  0  0  0  0  0
   10.5804  -18.3323   23.6275 O   0  0  0  0  0  0  0  0  0  0  0  0
    8.9528  -16.8145   23.8577 N   0  0  0  0  0  0  0  0  0  0  0  0
    9.7149  -16.0992   24.8090 C   0  0  1  0  0  0  0  0  0  0  0  0
    9.5308  -14.6431   24.8844 C   0  0  0  0  0  0  0  0  0  0  0  0
    8.1490  -14.3112   25.2990 C   0  0  0  0  0  0  0  0  0  0  0  0
    7.0678  -15.1727   25.2936 C   0  0  0  0  0  0  0  0  0  0  0  0
    5.9534  -14.5852   25.7075 N   0  0  0  0  0  0  0  0  0  0  0  0
    6.2788  -13.3106   25.9977 C   0  0  0  0  0  0  0  0  0  0  0  0
    5.5358  -12.2612   26.4599 C   0  0  0  0  0  0  0  0  0  0  0  0
    6.1463  -11.0348   26.6725 C   0  0  0  0  0  0  0  0  0  0  0  0
    7.4902  -10.8556   26.4257 C   0  0  0  0  0  0  0  0  0  0  0  0
    8.2627  -11.9179   25.9534 C   0  0  0  0  0  0  0  0  0  0  0  0
    7.6416  -13.1107   25.7526 C   0  0  0  0  0  0  0  0  0  0  0  0
    9.4916  -16.7076   26.1399 C   0  0  0  0  0  0  0  0  0  0  0  0
   10.3244  -16.5501   27.2376 O   0  0  0  0  0  0  0  0  0  0  0  0
    8.4825  -17.4260   26.3206 O   0  0  0  0  0  0  0  0  0  0  0  0
  2  1  1  1
  3  2  1  0
  4 11  1  0
  4  2  1  0
  5  4  2  0
  6  7  1  0
  7  8  1  0
  8  9  1  1
 10 11  1  6
 10  8  1  0
 12 10  1  0
 13 12  2  0
 14 12  1  0
 15 16  1  1
 15 14  1  0
 17 16  1  0
 18 17  2  0
 19 18  1  0
 20 19  1  0
 20 25  2  0
 21 20  1  0
 22 21  2  0
 22 23  1  0
 23 24  2  0
 24 25  1  0
 25 17  1  0
 26 15  1  0
 27 26  1  0
 28 26  2  0
M  END
$$$$
