CRI.pdb
     RDKit          3D

 26 25  0  0  1  0  0  0  0  0999 V2000
    7.7352  -14.8107   17.6985 N   0  0  0  0  0  0  0  0  0  0  0  0
    8.3753  -14.2836   18.8747 C   0  0  1  0  0  0  0  0  0  0  0  0
    8.0325  -12.7887   18.9349 C   0  0  0  0  0  0  0  0  0  0  0  0
    8.6417  -12.0471   20.4560 S   0  0  0  0  0  0  0  0  0  0  0  0
    7.8418  -14.9429   20.0865 C   0  0  0  0  0  0  0  0  0  0  0  0
    6.6227  -15.1297   20.3198 O   0  0  0  0  0  0  0  0  0  0  0  0
   10.3499  -20.4870   21.0873 N   0  0  0  0  0  0  0  0  0  0  0  0
   10.9760  -20.3576   22.3489 C   0  0  0  0  0  0  0  0  0  0  0  0
   12.2185  -20.6710   22.4699 N   0  0  0  0  0  0  0  0  0  0  0  0
   10.2063  -19.8802   23.4579 N   0  0  0  0  0  0  0  0  0  0  0  0
    8.7972  -19.6889   23.2643 C   0  0  0  0  0  0  0  0  0  0  0  0
    8.3507  -18.2596   23.4184 C   0  0  0  0  0  0  0  0  0  0  0  0
    8.7141  -17.4935   22.1910 C   0  0  0  0  0  0  0  0  0  0  0  0
    8.3561  -16.0240   22.2886 C   0  0  2  0  0  0  0  0  0  0  0  0
    8.7657  -15.3998   21.0598 N   0  0  0  0  0  0  0  0  0  0  0  0
    8.8989  -15.3828   23.4845 C   0  0  0  0  0  0  0  0  0  0  0  0
   10.1277  -15.1214   23.6309 O   0  0  0  0  0  0  0  0  0  0  0  0
   12.6621  -20.5962   23.4058 C   0  0  0  0  0  0  0  0  0  0  0  0
    5.8415  -11.7578   25.9478 C   0  0  0  0  0  0  0  0  0  0  0  0
    7.0304  -12.4742   25.3562 C   0  0  2  0  0  0  0  0  0  0  0  0
    7.4810  -13.5394   26.3272 C   0  0  0  0  0  0  0  0  0  0  0  0
    7.9125  -12.8231   27.6053 C   0  0  2  0  0  0  0  0  0  0  0  0
    8.5850  -14.4067   25.7867 N   0  0  0  0  0  0  0  0  0  0  0  0
    8.0433  -15.0175   24.5603 C   0  0  0  0  0  0  0  0  0  0  0  0
    8.9840  -15.4546   26.7510 O   0  0  0  0  0  0  0  0  0  0  0  0
   10.0969  -15.3017   27.5537 O   0  0  0  0  0  0  0  0  0  0  0  0
  2  1  1  6
  3  2  1  0
  3  4  1  0
  5  2  1  0
  5  6  2  0
  7  8  1  0
  8  9  2  0
  8 10  1  0
 10 11  1  0
 12 11  1  0
 13 12  1  0
 14 13  1  6
 14 15  1  0
 15  5  1  0
 16 14  1  0
 17 16  2  0
 19 18  1  0
 20 19  1  0
 20 22  1  0
 20 21  1  1
 22 23  1  6
 22 24  1  0
 23 16  1  0
 24 25  1  0
 26 24  2  0
M  END
$$$$
