CRI.pdb
     RDKit          3D

 26 25  0  0  1  0  0  0  0  0999 V2000
    7.8389  -15.0968   17.6491 N   0  0  0  0  0  0  0  0  0  0  0  0
    8.4716  -14.6212   18.8510 C   0  0  1  0  0  0  0  0  0  0  0  0
    8.4221  -13.0879   18.8022 C   0  0  0  0  0  0  0  0  0  0  0  0
    9.1884  -12.3701   20.2625 S   0  0  0  0  0  0  0  0  0  0  0  0
    7.7235  -15.0834   20.0403 C   0  0  0  0  0  0  0  0  0  0  0  0
    6.4760  -15.0242   20.1668 O   0  0  0  0  0  0  0  0  0  0  0  0
    8.9663  -20.0497   25.7812 N   0  0  0  0  0  0  0  0  0  0  0  0
    7.6022  -20.4026   25.9038 C   0  0  0  0  0  0  0  0  0  0  0  0
    7.1727  -20.8769   27.0206 N   0  0  0  0  0  0  0  0  0  0  0  0
    6.7365  -20.2209   24.7778 N   0  0  0  0  0  0  0  0  0  0  0  0
    7.2806  -19.5951   23.6066 C   0  0  0  0  0  0  0  0  0  0  0  0
    7.3124  -18.0917   23.6796 C   0  0  0  0  0  0  0  0  0  0  0  0
    7.8642  -17.5469   22.4052 C   0  0  0  0  0  0  0  0  0  0  0  0
    7.8448  -16.0322   22.3571 C   0  0  2  0  0  0  0  0  0  0  0  0
    8.4593  -15.6340   21.1197 N   0  0  0  0  0  0  0  0  0  0  0  0
    8.4460  -15.4162   23.5382 C   0  0  0  0  0  0  0  0  0  0  0  0
    9.6899  -15.4291   23.7667 O   0  0  0  0  0  0  0  0  0  0  0  0
    6.1524  -21.0304   27.1370 C   0  0  0  0  0  0  0  0  0  0  0  0
    5.6048  -11.4112   25.8825 C   0  0  0  0  0  0  0  0  0  0  0  0
    6.7687  -12.1720   25.2969 C   0  0  2  0  0  0  0  0  0  0  0  0
    7.1787  -13.2485   26.2734 C   0  0  0  0  0  0  0  0  0  0  0  0
    7.6732  -12.5415   27.5337 C   0  0  2  0  0  0  0  0  0  0  0  0
    8.2229  -14.1819   25.7242 N   0  0  0  0  0  0  0  0  0  0  0  0
    7.6336  -14.7600   24.5039 C   0  0  0  0  0  0  0  0  0  0  0  0
    8.5666  -15.2510   26.6865 O   0  0  0  0  0  0  0  0  0  0  0  0
    9.6989  -15.1692   27.4722 O   0  0  0  0  0  0  0  0  0  0  0  0
  2  1  1  6
  3  2  1  0
  3  4  1  0
  5  2  1  0
  5  6  2  0
  7  8  1  0
  8  9  2  0
  8 10  1  0
 10 11  1  0
 12 11  1  0
 13 12  1  0
 14 13  1  1
 14 15  1  0
 15  5  1  0
 16 14  1  0
 17 16  2  0
 19 18  1  0
 20 19  1  0
 20 22  1  0
 20 21  1  1
 22 23  1  6
 22 24  1  0
 23 16  1  0
 24 25  1  0
 26 24  2  0
M  END
$$$$
