CRI.pdb
     RDKit          3D

 26 25  0  0  1  0  0  0  0  0999 V2000
    4.6232  -12.9524   26.5836 N   0  0  0  0  0  0  0  0  0  0  0  0
    5.7772  -12.6662   25.7728 C   0  0  1  0  0  0  0  0  0  0  0  0
    6.6693  -11.7201   26.5881 C   0  0  0  0  0  0  0  0  0  0  0  0
    6.0515  -10.0323   26.5216 S   0  0  0  0  0  0  0  0  0  0  0  0
    6.5298  -13.9093   25.4970 C   0  0  0  0  0  0  0  0  0  0  0  0
    6.6906  -14.8441   26.3192 O   0  0  0  0  0  0  0  0  0  0  0  0
    7.5143  -18.1057   18.7537 N   0  0  0  0  0  0  0  0  0  0  0  0
    8.8546  -18.4048   19.0927 C   0  0  0  0  0  0  0  0  0  0  0  0
    9.3370  -19.5595   18.7919 N   0  0  0  0  0  0  0  0  0  0  0  0
    9.6374  -17.4106   19.7626 N   0  0  0  0  0  0  0  0  0  0  0  0
    8.9481  -16.2995   20.3542 C   0  0  0  0  0  0  0  0  0  0  0  0
    8.8295  -16.3854   21.8525 C   0  0  0  0  0  0  0  0  0  0  0  0
    8.0735  -15.2022   22.3567 C   0  0  0  0  0  0  0  0  0  0  0  0
    7.9326  -15.1951   23.8657 C   0  0  2  0  0  0  0  0  0  0  0  0
    7.1149  -14.0653   24.2152 N   0  0  0  0  0  0  0  0  0  0  0  0
    9.2188  -15.2283   24.5589 C   0  0  0  0  0  0  0  0  0  0  0  0
    9.9260  -14.1978   24.7526 O   0  0  0  0  0  0  0  0  0  0  0  0
   10.3272  -19.7628   19.0295 C   0  0  0  0  0  0  0  0  0  0  0  0
    9.2237  -13.9203   28.4854 C   0  0  0  0  0  0  0  0  0  0  0  0
    9.8972  -14.3920   27.2203 C   0  0  2  0  0  0  0  0  0  0  0  0
   10.1263  -15.8810   27.3249 C   0  0  0  0  0  0  0  0  0  0  0  0
   10.9751  -16.1142   28.5731 C   0  0  2  0  0  0  0  0  0  0  0  0
   10.7775  -16.4687   26.1028 N   0  0  0  0  0  0  0  0  0  0  0  0
    9.7401  -16.4544   25.0567 C   0  0  0  0  0  0  0  0  0  0  0  0
   11.2498  -17.8498   26.3409 O   0  0  0  0  0  0  0  0  0  0  0  0
   12.5696  -18.1109   26.6510 O   0  0  0  0  0  0  0  0  0  0  0  0
  2  1  1  1
  3  2  1  0
  3  4  1  0
  5  2  1  0
  5  6  2  0
  7  8  1  0
  8  9  2  0
  8 10  1  0
 10 11  1  0
 12 11  1  0
 13 12  1  0
 14 13  1  6
 14 15  1  0
 15  5  1  0
 16 14  1  0
 17 16  2  0
 19 18  1  0
 20 19  1  0
 20 22  1  0
 20 21  1  6
 22 23  1  6
 22 24  1  0
 23 16  1  0
 24 25  1  0
 26 24  2  0
M  END
$$$$
