CRI.pdb
     RDKit          3D

 26 25  0  0  1  0  0  0  0  0999 V2000
    7.1410  -15.2099   18.2389 N   0  0  0  0  0  0  0  0  0  0  0  0
    7.9703  -14.6977   19.2977 C   0  0  1  0  0  0  0  0  0  0  0  0
    7.8485  -13.1683   19.2571 C   0  0  0  0  0  0  0  0  0  0  0  0
    8.9904  -12.4609   18.0610 S   0  0  0  0  0  0  0  0  0  0  0  0
    7.4819  -15.1789   20.6083 C   0  0  0  0  0  0  0  0  0  0  0  0
    6.2758  -15.2054   20.9551 O   0  0  0  0  0  0  0  0  0  0  0  0
    6.0523  -20.4807   25.0315 N   0  0  0  0  0  0  0  0  0  0  0  0
    7.2053  -20.6818   25.8257 C   0  0  0  0  0  0  0  0  0  0  0  0
    7.0679  -21.0065   27.0636 N   0  0  0  0  0  0  0  0  0  0  0  0
    8.4954  -20.5175   25.2268 N   0  0  0  0  0  0  0  0  0  0  0  0
    8.5739  -19.7963   23.9886 C   0  0  0  0  0  0  0  0  0  0  0  0
    8.2111  -18.3402   24.1089 C   0  0  0  0  0  0  0  0  0  0  0  0
    8.3734  -17.6794   22.7813 C   0  0  0  0  0  0  0  0  0  0  0  0
    8.0688  -16.1953   22.8230 C   0  0  2  0  0  0  0  0  0  0  0  0
    8.4368  -15.6454   21.5466 N   0  0  0  0  0  0  0  0  0  0  0  0
    8.6910  -15.5169   23.9582 C   0  0  0  0  0  0  0  0  0  0  0  0
    9.9401  -15.3477   24.0618 O   0  0  0  0  0  0  0  0  0  0  0  0
    7.9201  -21.1897   27.6279 C   0  0  0  0  0  0  0  0  0  0  0  0
    5.7411  -11.6749   26.2123 C   0  0  0  0  0  0  0  0  0  0  0  0
    6.8958  -12.4451   25.6207 C   0  0  2  0  0  0  0  0  0  0  0  0
    7.4472  -13.3713   26.6783 C   0  0  0  0  0  0  0  0  0  0  0  0
    7.9829  -12.4909   27.8056 C   0  0  2  0  0  0  0  0  0  0  0  0
    8.5094  -14.3009   26.1582 N   0  0  0  0  0  0  0  0  0  0  0  0
    7.8946  -15.0063   25.0202 C   0  0  0  0  0  0  0  0  0  0  0  0
    8.9471  -15.2679   27.1879 O   0  0  0  0  0  0  0  0  0  0  0  0
   10.0382  -15.0101   27.9936 O   0  0  0  0  0  0  0  0  0  0  0  0
  2  1  1  6
  3  2  1  0
  3  4  1  0
  5  2  1  0
  5  6  2  0
  7  8  1  0
  8  9  2  0
  8 10  1  0
 10 11  1  0
 12 11  1  0
 13 12  1  0
 14 13  1  6
 14 15  1  0
 15  5  1  0
 16 14  1  0
 17 16  2  0
 19 18  1  0
 20 19  1  0
 20 22  1  0
 20 21  1  1
 22 23  1  6
 22 24  1  0
 23 16  1  0
 24 25  1  0
 26 24  2  0
M  END
$$$$
