CRI.pdb
     RDKit          3D

 26 25  0  0  1  0  0  0  0  0999 V2000
    9.1425  -19.5754   21.4878 N   0  0  0  0  0  0  0  0  0  0  0  0
    8.2814  -18.4417   21.6983 C   0  0  1  0  0  0  0  0  0  0  0  0
    7.4608  -18.7357   22.9616 C   0  0  0  0  0  0  0  0  0  0  0  0
    8.5178  -18.8141   24.4147 S   0  0  0  0  0  0  0  0  0  0  0  0
    9.0871  -17.2228   21.9278 C   0  0  0  0  0  0  0  0  0  0  0  0
   10.2976  -17.2190   22.2601 O   0  0  0  0  0  0  0  0  0  0  0  0
    8.6681  -13.1337   16.2007 N   0  0  0  0  0  0  0  0  0  0  0  0
    7.6156  -13.9868   16.6070 C   0  0  0  0  0  0  0  0  0  0  0  0
    7.3384  -15.0254   15.8992 N   0  0  0  0  0  0  0  0  0  0  0  0
    6.8873  -13.6684   17.7980 N   0  0  0  0  0  0  0  0  0  0  0  0
    7.6295  -13.2026   18.9345 C   0  0  0  0  0  0  0  0  0  0  0  0
    8.0240  -14.2948   19.8925 C   0  0  0  0  0  0  0  0  0  0  0  0
    8.6646  -13.6888   21.0958 C   0  0  0  0  0  0  0  0  0  0  0  0
    9.0900  -14.7236   22.1183 C   0  0  2  0  0  0  0  0  0  0  0  0
    8.4559  -15.9641   21.7630 N   0  0  0  0  0  0  0  0  0  0  0  0
    8.8339  -14.3043   23.4947 C   0  0  0  0  0  0  0  0  0  0  0  0
    8.7223  -13.0922   23.8383 O   0  0  0  0  0  0  0  0  0  0  0  0
    6.5359  -15.6207   16.1814 C   0  0  0  0  0  0  0  0  0  0  0  0
    6.0854  -12.0049   25.5544 C   0  0  0  0  0  0  0  0  0  0  0  0
    7.3841  -12.7381   25.3253 C   0  0  2  0  0  0  0  0  0  0  0  0
    7.3175  -14.0672   26.0393 C   0  0  0  0  0  0  0  0  0  0  0  0
    6.9559  -13.7735   27.4939 C   0  0  2  0  0  0  0  0  0  0  0  0
    8.5934  -14.8581   25.9416 N   0  0  0  0  0  0  0  0  0  0  0  0
    8.6965  -15.2692   24.5306 C   0  0  0  0  0  0  0  0  0  0  0  0
    8.5742  -16.0450   26.8237 O   0  0  0  0  0  0  0  0  0  0  0  0
    9.1403  -16.0098   28.0825 O   0  0  0  0  0  0  0  0  0  0  0  0
  2  1  1  1
  3  2  1  0
  3  4  1  0
  5  2  1  0
  5  6  2  0
  7  8  1  0
  8  9  2  0
  8 10  1  0
 10 11  1  0
 12 11  1  0
 13 12  1  0
 14 13  1  6
 14 15  1  0
 15  5  1  0
 16 14  1  0
 17 16  2  0
 19 18  1  0
 20 19  1  0
 20 22  1  0
 20 21  1  6
 22 23  1  1
 22 24  1  0
 23 16  1  0
 24 25  1  0
 26 24  2  0
M  END
$$$$
