CRI.pdb
     RDKit          3D

 26 25  0  0  1  0  0  0  0  0999 V2000
    8.2601  -14.6426   17.7297 N   0  0  0  0  0  0  0  0  0  0  0  0
    8.6853  -14.0607   18.9754 C   0  0  1  0  0  0  0  0  0  0  0  0
    8.0987  -12.6433   19.0268 C   0  0  0  0  0  0  0  0  0  0  0  0
    8.5530  -11.8112   20.5552 S   0  0  0  0  0  0  0  0  0  0  0  0
    8.1487  -14.8388   20.1131 C   0  0  0  0  0  0  0  0  0  0  0  0
    6.9535  -15.2052   20.2272 O   0  0  0  0  0  0  0  0  0  0  0  0
   12.0227  -18.0376   19.3521 N   0  0  0  0  0  0  0  0  0  0  0  0
   11.2329  -19.0767   18.8071 C   0  0  0  0  0  0  0  0  0  0  0  0
   11.4263  -19.4408   17.5879 N   0  0  0  0  0  0  0  0  0  0  0  0
   10.2381  -19.6947   19.6309 N   0  0  0  0  0  0  0  0  0  0  0  0
   10.0084  -19.1418   20.9352 C   0  0  0  0  0  0  0  0  0  0  0  0
    9.5739  -17.7005   20.9168 C   0  0  0  0  0  0  0  0  0  0  0  0
    9.1796  -17.2859   22.2945 C   0  0  0  0  0  0  0  0  0  0  0  0
    8.6099  -15.8824   22.3448 C   0  0  2  0  0  0  0  0  0  0  0  0
    9.0403  -15.2014   21.1539 N   0  0  0  0  0  0  0  0  0  0  0  0
    8.9423  -15.1757   23.5801 C   0  0  0  0  0  0  0  0  0  0  0  0
    9.9840  -14.4709   23.7140 O   0  0  0  0  0  0  0  0  0  0  0  0
   10.8959  -20.2546   17.2210 C   0  0  0  0  0  0  0  0  0  0  0  0
    5.2836  -12.4975   26.1748 C   0  0  0  0  0  0  0  0  0  0  0  0
    6.6109  -12.9433   25.6125 C   0  0  2  0  0  0  0  0  0  0  0  0
    7.1813  -14.0100   26.5166 C   0  0  0  0  0  0  0  0  0  0  0  0
    7.4009  -13.3645   27.8833 C   0  0  2  0  0  0  0  0  0  0  0  0
    8.4516  -14.6187   25.9886 N   0  0  0  0  0  0  0  0  0  0  0  0
    8.0840  -15.2547   24.7115 C   0  0  0  0  0  0  0  0  0  0  0  0
    9.0108  -15.6212   26.9210 O   0  0  0  0  0  0  0  0  0  0  0  0
    9.9360  -15.2662   27.8824 O   0  0  0  0  0  0  0  0  0  0  0  0
  2  1  1  6
  3  2  1  0
  3  4  1  0
  5  2  1  0
  5  6  2  0
  7  8  1  0
  8  9  2  0
  8 10  1  0
 10 11  1  0
 12 11  1  0
 13 12  1  0
 14 13  1  1
 14 15  1  0
 15  5  1  0
 16 14  1  0
 17 16  2  0
 19 18  1  0
 20 19  1  0
 20 22  1  0
 20 21  1  6
 22 23  1  6
 22 24  1  0
 23 16  1  0
 24 25  1  0
 26 24  2  0
M  END
$$$$
