RTD.pdb
     RDKit          3D

 27 26  0  0  1  0  0  0  0  0999 V2000
    7.7851  -17.2301    0.2402 N   0  0  0  0  0  0  0  0  0  0  0  0
    8.8513  -16.4466   -0.3009 C   0  0  0  0  0  0  0  0  0  0  0  0
    8.7352  -15.1613   -0.2549 N   0  0  0  0  0  0  0  0  0  0  0  0
   10.0050  -17.0411   -0.8725 N   0  0  0  0  0  0  0  0  0  0  0  0
   10.7894  -18.0331   -0.2186 C   0  0  0  0  0  0  0  0  0  0  0  0
   10.9660  -17.8414    1.2451 C   0  0  0  0  0  0  0  0  0  0  0  0
   11.7542  -18.8546    1.9747 C   0  0  0  0  0  0  0  0  0  0  0  0
   12.8940  -19.4661    1.2232 C   0  0  2  0  0  0  0  0  0  0  0  0
   12.3920  -20.1959    0.0952 N   0  0  0  0  0  0  0  0  0  0  0  0
   13.7348  -20.3534    2.0542 C   0  0  0  0  0  0  0  0  0  0  0  0
   14.1769  -21.4420    1.5757 O   0  0  0  0  0  0  0  0  0  0  0  0
    9.4617  -14.5343   -0.6113 C   0  0  0  0  0  0  0  0  0  0  0  0
   16.3316  -20.4912    1.7349 C   0  0  2  0  0  0  0  0  0  0  0  0
   16.4604  -20.1498    3.2021 O   0  0  0  0  0  0  0  0  0  0  0  0
   16.4632  -18.7425    3.3571 C   0  0  2  0  0  0  0  0  0  0  0  0
   15.2925  -20.6638    4.0233 N   0  0  0  0  0  0  0  0  0  0  0  0
   14.1055  -20.0793    3.3988 C   0  0  0  0  0  0  0  0  0  0  0  0
   15.3917  -20.3315    5.4454 O   0  0  0  0  0  0  0  0  0  0  0  0
   15.1963  -19.1495    5.8300 N   0  0  0  0  0  0  0  0  0  0  0  0
   15.7054  -21.2892    6.4612 C   0  0  1  0  0  0  0  0  0  0  0  0
   15.8418  -20.9609    7.8651 C   0  0  0  0  0  0  0  0  0  0  0  0
   15.7981  -22.2244    8.6876 C   0  0  0  0  0  0  0  0  0  0  0  0
   14.5675  -23.0019    8.5285 O   0  0  0  0  0  0  0  0  0  0  0  0
   13.4883  -22.3491    8.3477 C   0  0  0  0  0  0  0  0  0  0  0  0
   17.0553  -20.1741    8.1269 O   0  0  0  0  0  0  0  0  0  0  0  0
   17.2643  -19.6318    9.3768 O   0  0  0  0  0  0  0  0  0  0  0  0
   14.4420  -24.3669    8.5512 O   0  0  0  0  0  0  0  0  0  0  0  0
  2  1  1  0
  3  2  2  0
  4  2  1  0
  5  4  1  0
  6  5  1  0
  7  6  1  0
  8 10  1  0
  8  7  1  0
  8  9  1  6
 10 11  2  0
 13 12  1  6
 13 14  1  0
 15 13  1  0
 16 10  1  0
 15 16  1  1
 17 19  1  0
 17 15  1  0
 18 17  2  0
 20 21  1  1
 20 19  1  0
 21 22  1  0
 22 26  1  0
 22 23  2  0
 24 20  1  0
 24 25  1  0
 27 24  2  0
M  END
$$$$
