RTD.pdb
     RDKit          3D

 27 26  0  0  1  0  0  0  0  0999 V2000
   40.5362   -9.5425   -6.6591 N   0  0  0  0  0  0  0  0  0  0  0  0
   39.6560  -10.6042   -7.0351 C   0  0  0  0  0  0  0  0  0  0  0  0
   38.6182  -10.8142   -6.2957 N   0  0  0  0  0  0  0  0  0  0  0  0
   39.8962  -11.4102   -8.1770 N   0  0  0  0  0  0  0  0  0  0  0  0
   41.0737  -11.3228   -8.9725 C   0  0  0  0  0  0  0  0  0  0  0  0
   41.2024  -10.0839   -9.7842 C   0  0  0  0  0  0  0  0  0  0  0  0
   40.2843   -9.9210  -10.9290 C   0  0  0  0  0  0  0  0  0  0  0  0
   40.3804   -8.6242  -11.6686 C   0  0  2  0  0  0  0  0  0  0  0  0
   40.0670   -7.5397  -10.7839 N   0  0  0  0  0  0  0  0  0  0  0  0
   39.5062   -8.5624  -12.8588 C   0  0  0  0  0  0  0  0  0  0  0  0
   39.6961   -9.3571  -13.8293 O   0  0  0  0  0  0  0  0  0  0  0  0
   37.9088  -11.5121   -6.5360 C   0  0  0  0  0  0  0  0  0  0  0  0
   35.9181   -9.1291  -13.2040 C   0  0  2  0  0  0  0  0  0  0  0  0
   36.1874   -7.7519  -13.7669 O   0  0  0  0  0  0  0  0  0  0  0  0
   35.9878   -6.7842  -12.7529 C   0  0  2  0  0  0  0  0  0  0  0  0
   37.6213   -7.5853  -14.2347 N   0  0  0  0  0  0  0  0  0  0  0  0
   38.4265   -7.6510  -13.0149 C   0  0  0  0  0  0  0  0  0  0  0  0
   37.8478   -6.3479  -14.9831 O   0  0  0  0  0  0  0  0  0  0  0  0
   38.7949   -5.5840  -14.6630 N   0  0  0  0  0  0  0  0  0  0  0  0
   37.0405   -5.9341  -16.0896 C   0  0  1  0  0  0  0  0  0  0  0  0
   37.3139   -4.7610  -16.8937 C   0  0  0  0  0  0  0  0  0  0  0  0
   38.6857   -4.8774  -17.5099 C   0  0  0  0  0  0  0  0  0  0  0  0
   39.0710   -3.7325  -18.3374 O   0  0  0  0  0  0  0  0  0  0  0  0
   38.8795   -3.8337  -19.5930 C   0  0  0  0  0  0  0  0  0  0  0  0
   36.2718   -4.5372  -17.9057 O   0  0  0  0  0  0  0  0  0  0  0  0
   35.7872   -3.2649  -18.1209 O   0  0  0  0  0  0  0  0  0  0  0  0
   39.6197   -2.5506  -17.9114 O   0  0  0  0  0  0  0  0  0  0  0  0
  2  1  1  0
  3  2  2  0
  4  2  1  0
  5  4  1  0
  6  5  1  0
  7  6  1  0
  8 10  1  0
  8  7  1  0
  8  9  1  1
 10 11  2  0
 13 12  1  6
 13 14  1  0
 15 13  1  0
 16 10  1  0
 15 16  1  6
 17 19  1  0
 17 15  1  0
 18 17  2  0
 20 21  1  1
 20 19  1  0
 21 22  1  0
 22 26  1  0
 22 23  2  0
 24 20  1  0
 24 25  1  0
 27 24  2  0
M  END
$$$$
