RTD.pdb
     RDKit          3D

 27 26  0  0  1  0  0  0  0  0999 V2000
   25.9716  -20.3747   -7.6984 N   0  0  0  0  0  0  0  0  0  0  0  0
   25.0949  -21.0068   -8.6338 C   0  0  0  0  0  0  0  0  0  0  0  0
   23.8241  -20.8476   -8.4680 N   0  0  0  0  0  0  0  0  0  0  0  0
   25.5838  -21.7859   -9.7133 N   0  0  0  0  0  0  0  0  0  0  0  0
   26.8149  -21.5279  -10.3802 C   0  0  0  0  0  0  0  0  0  0  0  0
   27.0163  -20.1229  -10.8227 C   0  0  0  0  0  0  0  0  0  0  0  0
   27.4639  -19.9038  -12.2125 C   0  0  0  0  0  0  0  0  0  0  0  0
   26.4249  -20.0851  -13.2734 C   0  0  2  0  0  0  0  0  0  0  0  0
   26.6317  -21.3368  -13.9424 N   0  0  0  0  0  0  0  0  0  0  0  0
   26.4031  -18.9897  -14.2655 C   0  0  0  0  0  0  0  0  0  0  0  0
   27.2708  -18.0657  -14.2117 O   0  0  0  0  0  0  0  0  0  0  0  0
   23.1337  -21.2951   -9.0771 C   0  0  0  0  0  0  0  0  0  0  0  0
   28.0260  -18.3037  -16.0340 C   0  0  2  0  0  0  0  0  0  0  0  0
   26.9054  -18.1550  -17.0379 O   0  0  0  0  0  0  0  0  0  0  0  0
   26.7506  -19.3687  -17.7503 C   0  0  2  0  0  0  0  0  0  0  0  0
   25.5672  -17.8776  -16.3785 N   0  0  0  0  0  0  0  0  0  0  0  0
   25.4540  -18.8790  -15.3178 C   0  0  0  0  0  0  0  0  0  0  0  0
   24.4394  -17.9265  -17.3103 O   0  0  0  0  0  0  0  0  0  0  0  0
   24.2584  -18.9460  -18.0253 N   0  0  0  0  0  0  0  0  0  0  0  0
   23.4980  -16.8608  -17.4690 C   0  0  1  0  0  0  0  0  0  0  0  0
   22.0932  -16.9687  -17.1340 C   0  0  0  0  0  0  0  0  0  0  0  0
   21.9454  -17.5454  -15.7482 C   0  0  0  0  0  0  0  0  0  0  0  0
   21.2869  -18.8527  -15.7092 O   0  0  0  0  0  0  0  0  0  0  0  0
   20.9619  -19.3720  -16.8265 C   0  0  0  0  0  0  0  0  0  0  0  0
   21.3980  -15.6811  -17.2726 O   0  0  0  0  0  0  0  0  0  0  0  0
   20.2007  -15.6183  -17.9527 O   0  0  0  0  0  0  0  0  0  0  0  0
   20.9771  -19.5906  -14.5962 O   0  0  0  0  0  0  0  0  0  0  0  0
  2  1  1  0
  3  2  2  0
  4  2  1  0
  5  4  1  0
  6  5  1  0
  7  6  1  0
  8 10  1  0
  8  7  1  0
  8  9  1  6
 10 11  2  0
 13 12  1  6
 13 14  1  0
 15 13  1  0
 16 10  1  0
 15 16  1  6
 17 19  1  0
 17 15  1  0
 18 17  2  0
 20 21  1  6
 20 19  1  0
 21 22  1  0
 22 26  1  0
 22 23  2  0
 24 20  1  0
 24 25  1  0
 27 24  2  0
M  END
$$$$
