RTD.pdb
     RDKit          3D

 27 26  0  0  1  0  0  0  0  0999 V2000
   21.7703  -21.6508   -7.1781 N   0  0  0  0  0  0  0  0  0  0  0  0
   20.6181  -21.6074   -8.0230 C   0  0  0  0  0  0  0  0  0  0  0  0
   19.4717  -21.8689   -7.4891 N   0  0  0  0  0  0  0  0  0  0  0  0
   20.7097  -21.2901   -9.4022 N   0  0  0  0  0  0  0  0  0  0  0  0
   21.9370  -21.0206  -10.0715 C   0  0  0  0  0  0  0  0  0  0  0  0
   23.1019  -20.7625   -9.1843 C   0  0  0  0  0  0  0  0  0  0  0  0
   24.3926  -20.4488   -9.8288 C   0  0  0  0  0  0  0  0  0  0  0  0
   24.6128  -21.0453  -11.1829 C   0  0  2  0  0  0  0  0  0  0  0  0
   25.5864  -22.0948  -11.0954 N   0  0  0  0  0  0  0  0  0  0  0  0
   25.0381  -20.0569  -12.1963 C   0  0  0  0  0  0  0  0  0  0  0  0
   24.3412  -19.0170  -12.4021 O   0  0  0  0  0  0  0  0  0  0  0  0
   18.5977  -21.8172   -8.0196 C   0  0  0  0  0  0  0  0  0  0  0  0
   28.8804  -19.4919  -13.4577 C   0  0  2  0  0  0  0  0  0  0  0  0
   27.8817  -19.6570  -14.5807 O   0  0  0  0  0  0  0  0  0  0  0  0
   27.8606  -21.0112  -14.9933 C   0  0  2  0  0  0  0  0  0  0  0  0
   26.4648  -19.3229  -14.1524 N   0  0  0  0  0  0  0  0  0  0  0  0
   26.2095  -20.1774  -12.9925 C   0  0  0  0  0  0  0  0  0  0  0  0
   25.4760  -19.5183  -15.2138 O   0  0  0  0  0  0  0  0  0  0  0  0
   24.4081  -20.1381  -14.9720 N   0  0  0  0  0  0  0  0  0  0  0  0
   25.6455  -19.0370  -16.5506 C   0  0  1  0  0  0  0  0  0  0  0  0
   24.5870  -18.4281  -17.3292 C   0  0  0  0  0  0  0  0  0  0  0  0
   23.9962  -17.2707  -16.5635 C   0  0  0  0  0  0  0  0  0  0  0  0
   22.5322  -17.2411  -16.5555 O   0  0  0  0  0  0  0  0  0  0  0  0
   21.9299  -18.1688  -17.1881 C   0  0  0  0  0  0  0  0  0  0  0  0
   25.0525  -18.0262  -18.6641 O   0  0  0  0  0  0  0  0  0  0  0  0
   24.4259  -18.5230  -19.7869 O   0  0  0  0  0  0  0  0  0  0  0  0
   21.7262  -16.3200  -15.9380 O   0  0  0  0  0  0  0  0  0  0  0  0
  2  1  1  0
  3  2  2  0
  4  2  1  0
  5  4  1  0
  6  5  1  0
  7  6  1  0
  8 10  1  0
  8  7  1  0
  8  9  1  1
 10 11  2  0
 13 12  1  6
 13 14  1  0
 15 13  1  0
 16 10  1  0
 15 16  1  6
 17 19  1  0
 17 15  1  0
 18 17  2  0
 20 21  1  6
 20 19  1  0
 21 22  1  0
 22 26  1  0
 22 23  2  0
 24 20  1  0
 24 25  1  0
 27 24  2  0
M  END
$$$$
