RTD.pdb
     RDKit          3D

 27 26  0  0  1  0  0  0  0  0999 V2000
   31.1915  -21.4435   -9.2135 N   0  0  0  0  0  0  0  0  0  0  0  0
   31.4688  -22.3252  -10.3039 C   0  0  0  0  0  0  0  0  0  0  0  0
   32.6102  -22.9291  -10.3124 N   0  0  0  0  0  0  0  0  0  0  0  0
   30.5360  -22.5429  -11.3497 N   0  0  0  0  0  0  0  0  0  0  0  0
   29.8109  -21.4995  -11.9920 C   0  0  0  0  0  0  0  0  0  0  0  0
   28.8750  -20.7441  -11.1180 C   0  0  0  0  0  0  0  0  0  0  0  0
   27.4322  -21.0206  -11.2652 C   0  0  0  0  0  0  0  0  0  0  0  0
   26.9250  -21.1344  -12.6679 C   0  0  2  0  0  0  0  0  0  0  0  0
   27.8960  -20.5982  -13.5771 N   0  0  0  0  0  0  0  0  0  0  0  0
   25.6250  -20.4628  -12.8772 C   0  0  0  0  0  0  0  0  0  0  0  0
   25.5398  -19.2002  -12.7875 O   0  0  0  0  0  0  0  0  0  0  0  0
   32.8979  -23.5422  -11.0802 C   0  0  0  0  0  0  0  0  0  0  0  0
   23.9430  -20.3667  -15.9119 C   0  0  1  0  0  0  0  0  0  0  0  0
   23.5313  -19.5572  -14.7031 O   0  0  0  0  0  0  0  0  0  0  0  0
   22.3651  -18.8157  -15.0110 C   0  0  1  0  0  0  0  0  0  0  0  0
   23.1765  -20.4292  -13.5129 N   0  0  0  0  0  0  0  0  0  0  0  0
   24.4126  -21.1390  -13.1830 C   0  0  0  0  0  0  0  0  0  0  0  0
   22.0643  -21.3441  -13.7745 O   0  0  0  0  0  0  0  0  0  0  0  0
   22.2448  -22.5877  -13.7103 N   0  0  0  0  0  0  0  0  0  0  0  0
   20.7433  -20.9077  -14.1086 C   0  0  1  0  0  0  0  0  0  0  0  0
   19.5693  -21.7514  -14.0242 C   0  0  0  0  0  0  0  0  0  0  0  0
   19.4136  -22.2638  -12.6142 C   0  0  0  0  0  0  0  0  0  0  0  0
   18.3503  -23.2571  -12.4505 O   0  0  0  0  0  0  0  0  0  0  0  0
   17.7426  -23.6353  -13.5046 C   0  0  0  0  0  0  0  0  0  0  0  0
   18.3624  -21.0572  -14.4952 O   0  0  0  0  0  0  0  0  0  0  0  0
   17.3990  -21.7539  -15.1926 O   0  0  0  0  0  0  0  0  0  0  0  0
   17.9294  -23.8339  -11.2802 O   0  0  0  0  0  0  0  0  0  0  0  0
  2  1  1  0
  3  2  2  0
  4  2  1  0
  5  4  1  0
  6  5  1  0
  7  6  1  0
  8 10  1  0
  8  7  1  0
  8  9  1  6
 10 11  2  0
 13 12  1  6
 13 14  1  0
 15 13  1  0
 16 10  1  0
 15 16  1  1
 17 19  1  0
 17 15  1  0
 18 17  2  0
 20 21  1  6
 20 19  1  0
 21 22  1  0
 22 26  1  0
 22 23  2  0
 24 20  1  0
 24 25  1  0
 27 24  2  0
M  END
$$$$
