RTD.pdb
     RDKit          3D

 27 26  0  0  1  0  0  0  0  0999 V2000
   15.8821  -26.6185  -10.3507 N   0  0  0  0  0  0  0  0  0  0  0  0
   15.1205  -25.8929  -11.3185 C   0  0  0  0  0  0  0  0  0  0  0  0
   13.8492  -25.7813  -11.1213 N   0  0  0  0  0  0  0  0  0  0  0  0
   15.7215  -25.3081  -12.4623 N   0  0  0  0  0  0  0  0  0  0  0  0
   17.0699  -24.8528  -12.5010 C   0  0  0  0  0  0  0  0  0  0  0  0
   17.5206  -24.0969  -11.3027 C   0  0  0  0  0  0  0  0  0  0  0  0
   18.8934  -23.5536  -11.3166 C   0  0  0  0  0  0  0  0  0  0  0  0
   19.5130  -23.3686  -12.6656 C   0  0  2  0  0  0  0  0  0  0  0  0
   20.3700  -24.4804  -12.9595 N   0  0  0  0  0  0  0  0  0  0  0  0
   20.2739  -22.1079  -12.7929 C   0  0  0  0  0  0  0  0  0  0  0  0
   20.9493  -21.6709  -11.8119 O   0  0  0  0  0  0  0  0  0  0  0  0
   13.2405  -25.2645  -11.7620 C   0  0  0  0  0  0  0  0  0  0  0  0
   22.9764  -21.6887  -15.0456 C   0  0  2  0  0  0  0  0  0  0  0  0
   22.6053  -20.7242  -13.9421 O   0  0  0  0  0  0  0  0  0  0  0  0
   23.4853  -19.6155  -13.9735 C   0  0  1  0  0  0  0  0  0  0  0  0
   21.2068  -20.1594  -14.1096 N   0  0  0  0  0  0  0  0  0  0  0  0
   20.3152  -21.3109  -13.9692 C   0  0  0  0  0  0  0  0  0  0  0  0
   21.0120  -19.4585  -15.3797 O   0  0  0  0  0  0  0  0  0  0  0  0
   20.8109  -20.1136  -16.4350 N   0  0  0  0  0  0  0  0  0  0  0  0
   21.0347  -18.0336  -15.5081 C   0  0  1  0  0  0  0  0  0  0  0  0
   20.6199  -17.3241  -16.7006 C   0  0  0  0  0  0  0  0  0  0  0  0
   19.9887  -16.0098  -16.3146 C   0  0  0  0  0  0  0  0  0  0  0  0
   18.5910  -16.1165  -15.8914 O   0  0  0  0  0  0  0  0  0  0  0  0
   18.0437  -17.2636  -15.9813 C   0  0  0  0  0  0  0  0  0  0  0  0
   21.7320  -17.1458  -17.6448 O   0  0  0  0  0  0  0  0  0  0  0  0
   21.4764  -16.7324  -18.9347 O   0  0  0  0  0  0  0  0  0  0  0  0
   17.7950  -15.1127  -15.4033 O   0  0  0  0  0  0  0  0  0  0  0  0
  2  1  1  0
  3  2  2  0
  4  2  1  0
  5  4  1  0
  6  5  1  0
  7  6  1  0
  8 10  1  0
  8  7  1  0
  8  9  1  1
 10 11  2  0
 13 12  1  1
 13 14  1  0
 15 13  1  0
 16 10  1  0
 15 16  1  1
 17 19  1  0
 17 15  1  0
 18 17  2  0
 20 21  1  6
 20 19  1  0
 21 22  1  0
 22 26  1  0
 22 23  2  0
 24 20  1  0
 24 25  1  0
 27 24  2  0
M  END
$$$$
