RTD.pdb
     RDKit          3D

 27 26  0  0  1  0  0  0  0  0999 V2000
   30.7826   -9.6870  -17.6987 N   0  0  0  0  0  0  0  0  0  0  0  0
   30.1123  -10.2882  -18.8089 C   0  0  0  0  0  0  0  0  0  0  0  0
   30.8354  -10.6936  -19.7991 N   0  0  0  0  0  0  0  0  0  0  0  0
   28.7030  -10.4434  -18.8410 N   0  0  0  0  0  0  0  0  0  0  0  0
   27.8413  -10.0618  -17.7739 C   0  0  0  0  0  0  0  0  0  0  0  0
   27.7612  -11.0262  -16.6452 C   0  0  0  0  0  0  0  0  0  0  0  0
   26.8943  -10.6694  -15.5045 C   0  0  0  0  0  0  0  0  0  0  0  0
   25.4216  -10.7992  -15.7329 C   0  0  2  0  0  0  0  0  0  0  0  0
   25.1747  -11.1507  -17.1013 N   0  0  0  0  0  0  0  0  0  0  0  0
   24.6655   -9.5763  -15.3903 C   0  0  0  0  0  0  0  0  0  0  0  0
   24.7300   -9.0964  -14.2177 O   0  0  0  0  0  0  0  0  0  0  0  0
   30.4244  -11.0848  -20.6512 C   0  0  0  0  0  0  0  0  0  0  0  0
   24.9727   -6.2340  -16.4467 C   0  0  2  0  0  0  0  0  0  0  0  0
   23.5222   -6.5586  -16.7234 O   0  0  0  0  0  0  0  0  0  0  0  0
   23.3796   -6.9497  -18.0766 C   0  0  2  0  0  0  0  0  0  0  0  0
   23.0180   -7.7228  -15.8909 N   0  0  0  0  0  0  0  0  0  0  0  0
   23.8385   -8.8630  -16.3001 C   0  0  0  0  0  0  0  0  0  0  0  0
   21.5869   -7.9803  -16.0594 O   0  0  0  0  0  0  0  0  0  0  0  0
   21.2014   -8.9810  -16.7174 N   0  0  0  0  0  0  0  0  0  0  0  0
   20.5633   -7.1456  -15.5091 C   0  0  1  0  0  0  0  0  0  0  0  0
   19.1467   -7.3605  -15.7204 C   0  0  0  0  0  0  0  0  0  0  0  0
   18.7553   -8.7173  -15.1906 C   0  0  0  0  0  0  0  0  0  0  0  0
   17.3297   -9.0246  -15.3218 O   0  0  0  0  0  0  0  0  0  0  0  0
   16.6922   -8.4331  -16.2531 C   0  0  0  0  0  0  0  0  0  0  0  0
   18.3371   -6.2841  -15.1321 O   0  0  0  0  0  0  0  0  0  0  0  0
   16.9777   -6.2474  -15.3574 O   0  0  0  0  0  0  0  0  0  0  0  0
   16.5940   -9.8858  -14.5495 O   0  0  0  0  0  0  0  0  0  0  0  0
  2  1  1  0
  3  2  2  0
  4  2  1  0
  5  4  1  0
  6  5  1  0
  7  6  1  0
  8 10  1  0
  8  7  1  0
  8  9  1  6
 10 11  2  0
 13 12  1  6
 13 14  1  0
 15 13  1  0
 16 10  1  0
 15 16  1  1
 17 19  1  0
 17 15  1  0
 18 17  2  0
 20 21  1  6
 20 19  1  0
 21 22  1  0
 22 26  1  0
 22 23  2  0
 24 20  1  0
 24 25  1  0
 27 24  2  0
M  END
$$$$
