RTD.pdb
     RDKit          3D

 27 26  0  0  1  0  0  0  0  0999 V2000
   32.8535  -25.1185  -15.8378 N   0  0  0  0  0  0  0  0  0  0  0  0
   32.5230  -24.7514  -17.1792 C   0  0  0  0  0  0  0  0  0  0  0  0
   33.3086  -25.1524  -18.1225 N   0  0  0  0  0  0  0  0  0  0  0  0
   31.3764  -23.9746  -17.4845 N   0  0  0  0  0  0  0  0  0  0  0  0
   30.4107  -23.5769  -16.5170 C   0  0  0  0  0  0  0  0  0  0  0  0
   29.5010  -24.6545  -16.0460 C   0  0  0  0  0  0  0  0  0  0  0  0
   28.1942  -24.7860  -16.7204 C   0  0  0  0  0  0  0  0  0  0  0  0
   27.2516  -25.7899  -16.1359 C   0  0  2  0  0  0  0  0  0  0  0  0
   27.7020  -27.1148  -16.4503 N   0  0  0  0  0  0  0  0  0  0  0  0
   25.8563  -25.6186  -16.5924 C   0  0  0  0  0  0  0  0  0  0  0  0
   25.5786  -25.6867  -17.8284 O   0  0  0  0  0  0  0  0  0  0  0  0
   33.1575  -24.9003  -19.1031 C   0  0  0  0  0  0  0  0  0  0  0  0
   21.1603  -26.3495  -15.8299 C   0  0  2  0  0  0  0  0  0  0  0  0
   22.6641  -26.4794  -15.7435 O   0  0  0  0  0  0  0  0  0  0  0  0
   23.0927  -27.5311  -16.5888 C   0  0  1  0  0  0  0  0  0  0  0  0
   23.3837  -25.2319  -16.2218 N   0  0  0  0  0  0  0  0  0  0  0  0
   24.7539  -25.3740  -15.7289 C   0  0  0  0  0  0  0  0  0  0  0  0
   22.7567  -23.9898  -15.7674 O   0  0  0  0  0  0  0  0  0  0  0  0
   22.9008  -23.6120  -14.5759 N   0  0  0  0  0  0  0  0  0  0  0  0
   21.9661  -23.1481  -16.6123 C   0  0  1  0  0  0  0  0  0  0  0  0
   21.3390  -21.9203  -16.1688 C   0  0  0  0  0  0  0  0  0  0  0  0
   21.4398  -20.8787  -17.2550 C   0  0  0  0  0  0  0  0  0  0  0  0
   20.7698  -19.6156  -16.9393 O   0  0  0  0  0  0  0  0  0  0  0  0
   20.8138  -18.6989  -17.8233 C   0  0  0  0  0  0  0  0  0  0  0  0
   19.9497  -22.1395  -15.7421 O   0  0  0  0  0  0  0  0  0  0  0  0
   19.5006  -21.5894  -14.5607 O   0  0  0  0  0  0  0  0  0  0  0  0
   20.0922  -19.3028  -15.7893 O   0  0  0  0  0  0  0  0  0  0  0  0
  2  1  1  0
  3  2  2  0
  4  2  1  0
  5  4  1  0
  6  5  1  0
  7  6  1  0
  8 10  1  0
  8  7  1  0
  8  9  1  6
 10 11  2  0
 13 12  1  1
 13 14  1  0
 15 13  1  0
 16 10  1  0
 15 16  1  1
 17 19  1  0
 17 15  1  0
 18 17  2  0
 20 21  1  1
 20 19  1  0
 21 22  1  0
 22 26  1  0
 22 23  2  0
 24 20  1  0
 24 25  1  0
 27 24  2  0
M  END
$$$$
