VTG.pdb
     RDKit          3D

 19 18  0  0  1  0  0  0  0  0999 V2000
   17.9128  -11.1389  -18.1130 C   0  0  0  0  0  0  0  0  0  0  0  0
   17.5742  -11.8859  -16.8789 C   0  0  2  0  0  0  0  0  0  0  0  0
   16.1933  -12.4887  -17.0285 C   0  0  0  0  0  0  0  0  0  0  0  0
   17.7363  -11.1257  -15.6046 C   0  0  2  0  0  0  0  0  0  0  0  0
   16.6663  -10.1184  -15.5655 N   0  0  0  0  0  0  0  0  0  0  0  0
   19.0398  -10.4793  -15.4310 C   0  0  0  0  0  0  0  0  0  0  0  0
   20.0580  -11.1883  -15.2372 O   0  0  0  0  0  0  0  0  0  0  0  0
   21.4617  -10.3620  -16.6325 C   0  0  0  0  0  0  0  0  0  0  0  0
   21.3689   -8.8845  -16.4640 C   0  0  1  0  0  0  0  0  0  0  0  0
   20.6951   -8.3862  -17.5998 O   0  0  0  0  0  0  0  0  0  0  0  0
   20.5583   -8.4550  -15.2302 C   0  0  2  0  0  0  0  0  0  0  0  0
   19.2428   -9.0752  -15.4665 N   0  0  0  0  0  0  0  0  0  0  0  0
   20.4403   -7.0009  -15.1241 C   0  0  0  0  0  0  0  0  0  0  0  0
   19.6326   -6.3753  -15.8588 O   0  0  0  0  0  0  0  0  0  0  0  0
   21.2123   -6.2526  -14.2082 N   0  0  0  0  0  0  0  0  0  0  0  0
   21.0756   -4.7846  -14.1456 C   0  0  0  0  0  0  0  0  0  0  0  0
   21.9485   -4.2679  -13.0865 C   0  0  0  0  0  0  0  0  0  0  0  0
   22.4529   -5.1004  -12.2777 O   0  0  0  0  0  0  0  0  0  0  0  0
   22.2455   -2.9176  -12.9307 O   0  0  0  0  0  0  0  0  0  0  0  0
  2  1  1  6
  3  2  1  0
  4  5  1  6
  4  2  1  0
  6  4  1  0
  6  7  2  0
  9  8  1  6
  9 10  1  0
  9 11  1  0
 11 12  1  6
 11 13  1  0
 12  6  1  0
 13 14  2  0
 13 15  1  0
 15 16  1  0
 17 19  1  0
 17 16  1  0
 18 17  2  0
M  END
$$$$
