VTG.pdb
     RDKit          3D

 19 18  0  0  1  0  0  0  0  0999 V2000
   19.9094  -12.2181  -16.2147 C   0  0  0  0  0  0  0  0  0  0  0  0
   18.5782  -11.6048  -15.9967 C   0  0  2  0  0  0  0  0  0  0  0  0
   17.6344  -12.0707  -17.0851 C   0  0  0  0  0  0  0  0  0  0  0  0
   18.5757  -10.1217  -15.8275 C   0  0  2  0  0  0  0  0  0  0  0  0
   18.7859   -9.5364  -17.1595 N   0  0  0  0  0  0  0  0  0  0  0  0
   19.5751   -9.6041  -14.8892 C   0  0  0  0  0  0  0  0  0  0  0  0
   19.4497   -9.8420  -13.6625 O   0  0  0  0  0  0  0  0  0  0  0  0
   22.9121  -10.4510  -14.1848 C   0  0  0  0  0  0  0  0  0  0  0  0
   22.9506   -9.0174  -14.5887 C   0  0  1  0  0  0  0  0  0  0  0  0
   23.1426   -8.9928  -15.9868 O   0  0  0  0  0  0  0  0  0  0  0  0
   21.6451   -8.2598  -14.2961 C   0  0  2  0  0  0  0  0  0  0  0  0
   20.7035   -8.8339  -15.2732 N   0  0  0  0  0  0  0  0  0  0  0  0
   21.7868   -6.8170  -14.4905 C   0  0  0  0  0  0  0  0  0  0  0  0
   21.4752   -6.2923  -15.5911 O   0  0  0  0  0  0  0  0  0  0  0  0
   22.2684   -5.9683  -13.4695 N   0  0  0  0  0  0  0  0  0  0  0  0
   22.4247   -4.5219  -13.7169 C   0  0  0  0  0  0  0  0  0  0  0  0
   21.1817   -3.8367  -13.3478 C   0  0  0  0  0  0  0  0  0  0  0  0
   20.1947   -4.5490  -13.0013 O   0  0  0  0  0  0  0  0  0  0  0  0
   21.0381   -2.4529  -13.3604 O   0  0  0  0  0  0  0  0  0  0  0  0
  2  1  1  6
  3  2  1  0
  4  5  1  6
  4  2  1  0
  6  4  1  0
  6  7  2  0
  9  8  1  6
  9 10  1  0
  9 11  1  0
 11 12  1  6
 11 13  1  0
 12  6  1  0
 13 14  2  0
 13 15  1  0
 15 16  1  0
 17 19  1  0
 17 16  1  0
 18 17  2  0
M  END
$$$$
