VTG.pdb
     RDKit          3D

 19 18  0  0  1  0  0  0  0  0999 V2000
   17.3522  -12.0134  -15.8643 C   0  0  0  0  0  0  0  0  0  0  0  0
   18.1763  -12.1218  -17.0910 C   0  0  2  0  0  0  0  0  0  0  0  0
   17.4789  -13.0352  -18.0767 C   0  0  0  0  0  0  0  0  0  0  0  0
   19.6053  -12.4933  -16.8724 C   0  0  2  0  0  0  0  0  0  0  0  0
   19.6203  -13.8841  -16.3965 N   0  0  0  0  0  0  0  0  0  0  0  0
   20.3316  -11.6343  -15.9333 C   0  0  0  0  0  0  0  0  0  0  0  0
   20.1513  -11.7803  -14.6991 O   0  0  0  0  0  0  0  0  0  0  0  0
   23.8237  -11.5039  -15.4654 C   0  0  0  0  0  0  0  0  0  0  0  0
   23.4435  -10.0776  -15.6683 C   0  0  1  0  0  0  0  0  0  0  0  0
   23.6421   -9.7935  -17.0365 O   0  0  0  0  0  0  0  0  0  0  0  0
   21.9680   -9.7826  -15.3526 C   0  0  2  0  0  0  0  0  0  0  0  0
   21.2474  -10.6233  -16.3246 N   0  0  0  0  0  0  0  0  0  0  0  0
   21.6349   -8.3699  -15.5335 C   0  0  0  0  0  0  0  0  0  0  0  0
   21.0259   -7.9897  -16.5671 O   0  0  0  0  0  0  0  0  0  0  0  0
   21.9749   -7.3921  -14.5727 N   0  0  0  0  0  0  0  0  0  0  0  0
   21.6454   -5.9730  -14.8072 C   0  0  0  0  0  0  0  0  0  0  0  0
   22.0090   -5.1949  -13.6184 C   0  0  0  0  0  0  0  0  0  0  0  0
   22.4038   -5.8278  -12.5960 O   0  0  0  0  0  0  0  0  0  0  0  0
   21.9410   -3.8065  -13.5625 O   0  0  0  0  0  0  0  0  0  0  0  0
  2  1  1  1
  3  2  1  0
  4  5  1  1
  4  2  1  0
  6  4  1  0
  6  7  2  0
  9  8  1  6
  9 10  1  0
  9 11  1  0
 11 12  1  6
 11 13  1  0
 12  6  1  0
 13 14  2  0
 13 15  1  0
 15 16  1  0
 17 19  1  0
 17 16  1  0
 18 17  2  0
M  END
$$$$
