VTG.pdb
     RDKit          3D

 19 18  0  0  1  0  0  0  0  0999 V2000
   19.4523  -12.4913  -18.8572 C   0  0  0  0  0  0  0  0  0  0  0  0
   19.6197  -13.2256  -17.5810 C   0  0  2  0  0  0  0  0  0  0  0  0
   18.4538  -14.1744  -17.3994 C   0  0  0  0  0  0  0  0  0  0  0  0
   19.8630  -12.3747  -16.3791 C   0  0  2  0  0  0  0  0  0  0  0  0
   18.5663  -11.8048  -15.9858 N   0  0  0  0  0  0  0  0  0  0  0  0
   20.8449  -11.3035  -16.5676 C   0  0  0  0  0  0  0  0  0  0  0  0
   22.0542  -11.5986  -16.7331 O   0  0  0  0  0  0  0  0  0  0  0  0
   21.4013   -9.0280  -19.2242 C   0  0  0  0  0  0  0  0  0  0  0  0
   21.1719   -8.1775  -18.0225 C   0  0  1  0  0  0  0  0  0  0  0  0
   19.7880   -7.9040  -17.9749 O   0  0  0  0  0  0  0  0  0  0  0  0
   21.5445   -8.8669  -16.6998 C   0  0  2  0  0  0  0  0  0  0  0  0
   20.5228   -9.9215  -16.5772 N   0  0  0  0  0  0  0  0  0  0  0  0
   21.4890   -7.9491  -15.5623 C   0  0  0  0  0  0  0  0  0  0  0  0
   20.4249   -7.8207  -14.9029 O   0  0  0  0  0  0  0  0  0  0  0  0
   22.6072   -7.1843  -15.1628 N   0  0  0  0  0  0  0  0  0  0  0  0
   22.5322   -6.3276  -13.9637 C   0  0  0  0  0  0  0  0  0  0  0  0
   21.9092   -5.0505  -14.3267 C   0  0  0  0  0  0  0  0  0  0  0  0
   21.4986   -4.9103  -15.5156 O   0  0  0  0  0  0  0  0  0  0  0  0
   21.7500   -3.9957  -13.4336 O   0  0  0  0  0  0  0  0  0  0  0  0
  2  1  1  6
  3  2  1  0
  4  5  1  6
  4  2  1  0
  6  4  1  0
  6  7  2  0
  9  8  1  6
  9 10  1  0
  9 11  1  0
 11 12  1  1
 11 13  1  0
 12  6  1  0
 13 14  2  0
 13 15  1  0
 15 16  1  0
 17 19  1  0
 17 16  1  0
 18 17  2  0
M  END
$$$$
