VTG.pdb
     RDKit          3D

 19 18  0  0  1  0  0  0  0  0999 V2000
   28.4111  -11.1538  -18.3395 C   0  0  0  0  0  0  0  0  0  0  0  0
   28.3341  -11.7223  -16.9733 C   0  0  2  0  0  0  0  0  0  0  0  0
   28.4791  -13.2273  -17.0546 C   0  0  0  0  0  0  0  0  0  0  0  0
   27.1496  -11.3000  -16.1691 C   0  0  2  0  0  0  0  0  0  0  0  0
   25.9792  -11.9877  -16.7332 N   0  0  0  0  0  0  0  0  0  0  0  0
   26.9113   -9.8547  -16.1303 C   0  0  0  0  0  0  0  0  0  0  0  0
   27.7522   -9.1065  -15.5736 O   0  0  0  0  0  0  0  0  0  0  0  0
   26.6708   -7.4857  -18.8192 C   0  0  0  0  0  0  0  0  0  0  0  0
   25.4101   -7.3254  -18.0414 C   0  0  1  0  0  0  0  0  0  0  0  0
   24.4458   -8.1554  -18.6526 O   0  0  0  0  0  0  0  0  0  0  0  0
   25.5300   -7.7719  -16.5751 C   0  0  2  0  0  0  0  0  0  0  0  0
   25.7713   -9.2209  -16.6894 N   0  0  0  0  0  0  0  0  0  0  0  0
   24.3111   -7.5023  -15.8129 C   0  0  0  0  0  0  0  0  0  0  0  0
   23.4829   -8.4244  -15.5950 O   0  0  0  0  0  0  0  0  0  0  0  0
   24.0193   -6.2201  -15.2976 N   0  0  0  0  0  0  0  0  0  0  0  0
   22.8169   -6.0078  -14.4687 C   0  0  0  0  0  0  0  0  0  0  0  0
   21.7056   -5.5996  -15.3342 C   0  0  0  0  0  0  0  0  0  0  0  0
   21.9089   -5.5708  -16.5830 O   0  0  0  0  0  0  0  0  0  0  0  0
   20.4497   -5.2460  -14.8511 O   0  0  0  0  0  0  0  0  0  0  0  0
  2  1  1  6
  3  2  1  0
  4  5  1  6
  4  2  1  0
  6  4  1  0
  6  7  2  0
  9  8  1  6
  9 10  1  0
  9 11  1  0
 11 12  1  6
 11 13  1  0
 12  6  1  0
 13 14  2  0
 13 15  1  0
 15 16  1  0
 17 19  1  0
 17 16  1  0
 18 17  2  0
M  END
$$$$
