VTG.pdb
     RDKit          3D

 19 18  0  0  1  0  0  0  0  0999 V2000
   19.2041  -10.4012  -14.4559 C   0  0  0  0  0  0  0  0  0  0  0  0
   18.5984  -10.4095  -15.8082 C   0  0  2  0  0  0  0  0  0  0  0  0
   17.5256  -11.4765  -15.8634 C   0  0  0  0  0  0  0  0  0  0  0  0
   19.5640  -10.5036  -16.9425 C   0  0  2  0  0  0  0  0  0  0  0  0
   20.1505  -11.8509  -16.8974 N   0  0  0  0  0  0  0  0  0  0  0  0
   20.6261   -9.4941  -16.9368 C   0  0  0  0  0  0  0  0  0  0  0  0
   21.8107   -9.8476  -16.7163 O   0  0  0  0  0  0  0  0  0  0  0  0
   22.2330   -5.0679  -18.3253 C   0  0  0  0  0  0  0  0  0  0  0  0
   21.2424   -6.1763  -18.2248 C   0  0  1  0  0  0  0  0  0  0  0  0
   21.3885   -6.9604  -19.3893 O   0  0  0  0  0  0  0  0  0  0  0  0
   21.4755   -7.1034  -17.0207 C   0  0  2  0  0  0  0  0  0  0  0  0
   20.4102   -8.1107  -17.1678 N   0  0  0  0  0  0  0  0  0  0  0  0
   21.3553   -6.3963  -15.7460 C   0  0  0  0  0  0  0  0  0  0  0  0
   20.2264   -6.0270  -15.3301 O   0  0  0  0  0  0  0  0  0  0  0  0
   22.4801   -6.1055  -14.9428 N   0  0  0  0  0  0  0  0  0  0  0  0
   22.3099   -5.4329  -13.6404 C   0  0  0  0  0  0  0  0  0  0  0  0
   22.0491   -4.0079  -13.8686 C   0  0  0  0  0  0  0  0  0  0  0  0
   21.9385   -3.2578  -12.8554 O   0  0  0  0  0  0  0  0  0  0  0  0
   21.9187   -3.4473  -15.1352 O   0  0  0  0  0  0  0  0  0  0  0  0
  2  1  1  1
  3  2  1  0
  4  5  1  1
  4  2  1  0
  6  4  1  0
  6  7  2  0
  9  8  1  6
  9 10  1  0
  9 11  1  0
 11 12  1  1
 11 13  1  0
 12  6  1  0
 13 14  2  0
 13 15  1  0
 15 16  1  0
 17 19  1  0
 17 16  1  0
 18 17  2  0
M  END
$$$$
