VTG.pdb
     RDKit          3D

 19 18  0  0  1  0  0  0  0  0999 V2000
   18.9882  -12.2071  -17.9434 C   0  0  0  0  0  0  0  0  0  0  0  0
   18.5312  -12.5333  -16.5721 C   0  0  2  0  0  0  0  0  0  0  0  0
   17.1058  -13.0404  -16.6330 C   0  0  0  0  0  0  0  0  0  0  0  0
   18.7152  -11.4510  -15.5608 C   0  0  2  0  0  0  0  0  0  0  0  0
   17.5988  -10.5097  -15.7300 N   0  0  0  0  0  0  0  0  0  0  0  0
   19.9912  -10.7356  -15.6449 C   0  0  0  0  0  0  0  0  0  0  0  0
   21.0560  -11.3405  -15.3666 O   0  0  0  0  0  0  0  0  0  0  0  0
   22.9369   -7.4482  -17.5298 C   0  0  0  0  0  0  0  0  0  0  0  0
   21.6813   -8.2342  -17.3702 C   0  0  1  0  0  0  0  0  0  0  0  0
   21.8532   -9.4297  -18.1007 O   0  0  0  0  0  0  0  0  0  0  0  0
   21.3832   -8.6301  -15.9148 C   0  0  2  0  0  0  0  0  0  0  0  0
   20.1169   -9.3748  -16.0274 N   0  0  0  0  0  0  0  0  0  0  0  0
   21.2298   -7.4646  -15.0444 C   0  0  0  0  0  0  0  0  0  0  0  0
   20.1958   -6.7510  -15.1172 O   0  0  0  0  0  0  0  0  0  0  0  0
   22.2166   -7.0995  -14.1022 N   0  0  0  0  0  0  0  0  0  0  0  0
   22.0379   -5.8964  -13.2666 C   0  0  0  0  0  0  0  0  0  0  0  0
   22.3496   -4.7077  -14.0670 C   0  0  0  0  0  0  0  0  0  0  0  0
   22.7874   -4.8842  -15.2412 O   0  0  0  0  0  0  0  0  0  0  0  0
   22.1881   -3.4071  -13.6001 O   0  0  0  0  0  0  0  0  0  0  0  0
  2  1  1  6
  3  2  1  0
  4  5  1  6
  4  2  1  0
  6  4  1  0
  6  7  2  0
  9  8  1  1
  9 10  1  0
  9 11  1  0
 11 12  1  6
 11 13  1  0
 12  6  1  0
 13 14  2  0
 13 15  1  0
 15 16  1  0
 17 19  1  0
 17 16  1  0
 18 17  2  0
M  END
$$$$
