VTG.pdb
     RDKit          3D

 19 18  0  0  1  0  0  0  0  0999 V2000
   18.5337  -10.2248  -17.8635 C   0  0  0  0  0  0  0  0  0  0  0  0
   18.6249  -11.2975  -16.8452 C   0  0  2  0  0  0  0  0  0  0  0  0
   17.3753  -12.1499  -16.9111 C   0  0  0  0  0  0  0  0  0  0  0  0
   18.9385  -10.8406  -15.4592 C   0  0  2  0  0  0  0  0  0  0  0  0
   17.7897  -10.0483  -14.9971 N   0  0  0  0  0  0  0  0  0  0  0  0
   20.1712  -10.0591  -15.3292 C   0  0  0  0  0  0  0  0  0  0  0  0
   21.2756  -10.6061  -15.5703 O   0  0  0  0  0  0  0  0  0  0  0  0
   22.3050   -9.2607  -16.7774 C   0  0  0  0  0  0  0  0  0  0  0  0
   22.0407   -7.9117  -16.2026 C   0  0  1  0  0  0  0  0  0  0  0  0
   21.0663   -7.3031  -17.0226 O   0  0  0  0  0  0  0  0  0  0  0  0
   21.4724   -7.9512  -14.7746 C   0  0  2  0  0  0  0  0  0  0  0  0
   20.2112   -8.6947  -14.9411 N   0  0  0  0  0  0  0  0  0  0  0  0
   21.2245   -6.6123  -14.2402 C   0  0  0  0  0  0  0  0  0  0  0  0
   20.1353   -6.0276  -14.4757 O   0  0  0  0  0  0  0  0  0  0  0  0
   22.1788   -5.9335  -13.4507 N   0  0  0  0  0  0  0  0  0  0  0  0
   21.8694   -4.6043  -12.8895 C   0  0  0  0  0  0  0  0  0  0  0  0
   22.0248   -3.5935  -13.9406 C   0  0  0  0  0  0  0  0  0  0  0  0
   22.4385   -3.9776  -15.0733 O   0  0  0  0  0  0  0  0  0  0  0  0
   21.7414   -2.2444  -13.7527 O   0  0  0  0  0  0  0  0  0  0  0  0
  2  1  1  6
  3  2  1  0
  4  5  1  6
  4  2  1  0
  6  4  1  0
  6  7  2  0
  9  8  1  6
  9 10  1  0
  9 11  1  0
 11 12  1  6
 11 13  1  0
 12  6  1  0
 13 14  2  0
 13 15  1  0
 15 16  1  0
 17 19  1  0
 17 16  1  0
 18 17  2  0
M  END
$$$$
