YMK.pdb
     RDKit          3D

 30 30  0  0  1  0  0  0  0  0999 V2000
   16.0064  -23.3958  -12.2145 O   0  0  0  0  0  0  0  0  0  0  0  0
   17.2810  -22.9909  -12.5229 C   0  0  0  0  0  0  0  0  0  0  0  0
   17.4483  -21.7921  -13.1610 C   0  0  0  0  0  0  0  0  0  0  0  0
   18.7462  -21.3945  -13.4671 C   0  0  0  0  0  0  0  0  0  0  0  0
   19.8320  -22.1654  -13.1475 C   0  0  0  0  0  0  0  0  0  0  0  0
   21.1939  -21.7313  -13.4759 C   0  0  0  0  0  0  0  0  0  0  0  0
   21.7940  -21.0893  -12.2499 C   0  0  2  0  0  0  0  0  0  0  0  0
   21.0907  -19.9261  -11.8203 N   0  0  0  0  0  0  0  0  0  0  0  0
   23.2495  -20.8101  -12.5025 C   0  0  0  0  0  0  0  0  0  0  0  0
   23.5749  -19.7033  -13.0081 O   0  0  0  0  0  0  0  0  0  0  0  0
   19.6257  -23.3602  -12.5085 C   0  0  0  0  0  0  0  0  0  0  0  0
   18.3554  -23.8086  -12.1781 C   0  0  0  0  0  0  0  0  0  0  0  0
   26.5296  -19.6255   -7.2356 C   0  0  0  0  0  0  0  0  0  0  0  0
   26.8819  -20.8658   -8.4709 S   0  0  0  0  0  0  0  0  0  0  0  0
   26.0680  -20.5550  -10.0465 C   0  0  0  0  0  0  0  0  0  0  0  0
   26.3538  -21.5269  -11.1110 C   0  0  0  0  0  0  0  0  0  0  0  0
   25.7070  -21.4231  -12.4249 C   0  0  2  0  0  0  0  0  0  0  0  0
   24.2663  -21.7230  -12.2026 N   0  0  0  0  0  0  0  0  0  0  0  0
   26.2224  -22.1692  -13.5539 C   0  0  0  0  0  0  0  0  0  0  0  0
   26.2095  -23.3998  -13.7230 O   0  0  0  0  0  0  0  0  0  0  0  0
   26.8297  -21.4239  -14.6256 N   0  0  0  0  0  0  0  0  0  0  0  0
   27.3055  -22.1152  -15.8386 C   0  0  1  0  0  0  0  0  0  0  0  0
   26.2236  -21.9091  -16.8904 C   0  0  0  0  0  0  0  0  0  0  0  0
   25.5172  -23.1524  -17.2899 C   0  0  0  0  0  0  0  0  0  0  0  0
   24.5577  -22.8717  -18.4142 C   0  0  0  0  0  0  0  0  0  0  0  0
   23.7860  -24.0861  -18.8170 C   0  0  0  0  0  0  0  0  0  0  0  0
   22.7866  -23.7299  -19.8245 N   0  0  0  0  0  0  0  0  0  0  0  0
   28.5779  -21.5114  -16.2906 C   0  0  0  0  0  0  0  0  0  0  0  0
   29.6221  -22.3349  -16.6971 O   0  0  0  0  0  0  0  0  0  0  0  0
   28.7967  -20.2803  -16.3378 O   0  0  0  0  0  0  0  0  0  0  0  0
  2  1  1  0
  3  2  2  0
  4  3  1  0
  5  4  2  0
  5 11  1  0
  6  7  1  0
  6  5  1  0
  7  8  1  6
  9  7  1  0
 10  9  2  0
 11 12  2  0
 12  2  1  0
 14 13  1  0
 14 15  1  0
 16 15  1  0
 17 16  1  1
 17 18  1  0
 18  9  1  0
 19 21  1  0
 19 17  1  0
 20 19  2  0
 22 21  1  0
 22 28  1  0
 22 23  1  6
 24 25  1  0
 24 23  1  0
 25 26  1  0
 27 26  1  0
 28 29  1  0
 30 28  2  0
M  END
$$$$
