YMK.pdb
     RDKit          3D

 30 30  0  0  1  0  0  0  0  0999 V2000
   15.9777  -23.9076  -12.2922 O   0  0  0  0  0  0  0  0  0  0  0  0
   17.2533  -23.4521  -12.5136 C   0  0  0  0  0  0  0  0  0  0  0  0
   17.5707  -22.9800  -13.7582 C   0  0  0  0  0  0  0  0  0  0  0  0
   18.8676  -22.5213  -13.9679 C   0  0  0  0  0  0  0  0  0  0  0  0
   19.8081  -22.5346  -12.9727 C   0  0  0  0  0  0  0  0  0  0  0  0
   21.1705  -22.0461  -13.2096 C   0  0  0  0  0  0  0  0  0  0  0  0
   21.3930  -20.8287  -12.3471 C   0  0  2  0  0  0  0  0  0  0  0  0
   20.6134  -19.7040  -12.7466 N   0  0  0  0  0  0  0  0  0  0  0  0
   22.8626  -20.5143  -12.3085 C   0  0  0  0  0  0  0  0  0  0  0  0
   23.3131  -19.6295  -13.0835 O   0  0  0  0  0  0  0  0  0  0  0  0
   19.4539  -23.0147  -11.7388 C   0  0  0  0  0  0  0  0  0  0  0  0
   18.1768  -23.4851  -11.4706 C   0  0  0  0  0  0  0  0  0  0  0  0
   27.0313  -19.4335   -7.6113 C   0  0  0  0  0  0  0  0  0  0  0  0
   27.6053  -21.0284   -8.1728 S   0  0  0  0  0  0  0  0  0  0  0  0
   27.1810  -21.3764   -9.8875 C   0  0  0  0  0  0  0  0  0  0  0  0
   25.7436  -21.4148  -10.1903 C   0  0  0  0  0  0  0  0  0  0  0  0
   25.2197  -20.8686  -11.4484 C   0  0  2  0  0  0  0  0  0  0  0  0
   23.7600  -21.1587  -11.4502 N   0  0  0  0  0  0  0  0  0  0  0  0
   25.8221  -21.2383  -12.7123 C   0  0  0  0  0  0  0  0  0  0  0  0
   25.7714  -22.3385  -13.2869 O   0  0  0  0  0  0  0  0  0  0  0  0
   26.5777  -20.2319  -13.4114 N   0  0  0  0  0  0  0  0  0  0  0  0
   27.2958  -20.5683  -14.6552 C   0  0  1  0  0  0  0  0  0  0  0  0
   27.8709  -19.2575  -15.1751 C   0  0  0  0  0  0  0  0  0  0  0  0
   27.1109  -18.6637  -16.3039 C   0  0  0  0  0  0  0  0  0  0  0  0
   27.7110  -17.3428  -16.7023 C   0  0  0  0  0  0  0  0  0  0  0  0
   26.9154  -16.6562  -17.7644 C   0  0  0  0  0  0  0  0  0  0  0  0
   27.4699  -15.3270  -18.0216 N   0  0  0  0  0  0  0  0  0  0  0  0
   28.3869  -21.5222  -14.3594 C   0  0  0  0  0  0  0  0  0  0  0  0
   28.5813  -22.6213  -15.1889 O   0  0  0  0  0  0  0  0  0  0  0  0
   29.1735  -21.4159  -13.3921 O   0  0  0  0  0  0  0  0  0  0  0  0
  2  1  1  0
  3  2  2  0
  4  3  1  0
  5  4  2  0
  5 11  1  0
  6  7  1  0
  6  5  1  0
  7  8  1  6
  9  7  1  0
 10  9  2  0
 11 12  2  0
 12  2  1  0
 14 13  1  0
 14 15  1  0
 16 15  1  0
 17 16  1  1
 17 18  1  0
 18  9  1  0
 19 21  1  0
 19 17  1  0
 20 19  2  0
 22 21  1  0
 22 28  1  0
 22 23  1  1
 24 25  1  0
 24 23  1  0
 25 26  1  0
 27 26  1  0
 28 29  1  0
 30 28  2  0
M  END
$$$$
