YMK.pdb
     RDKit          3D

 30 30  0  0  1  0  0  0  0  0999 V2000
   15.7193  -12.6048  -22.6512 O   0  0  0  0  0  0  0  0  0  0  0  0
   16.3466  -11.9607  -21.6142 C   0  0  0  0  0  0  0  0  0  0  0  0
   15.5945  -11.5643  -20.5420 C   0  0  0  0  0  0  0  0  0  0  0  0
   16.2441  -10.9127  -19.4980 C   0  0  0  0  0  0  0  0  0  0  0  0
   17.5911  -10.6680  -19.5264 C   0  0  0  0  0  0  0  0  0  0  0  0
   18.2610   -9.9812  -18.4171 C   0  0  0  0  0  0  0  0  0  0  0  0
   18.8368  -11.0253  -17.4932 C   0  0  2  0  0  0  0  0  0  0  0  0
   17.8438  -11.7455  -16.7669 N   0  0  0  0  0  0  0  0  0  0  0  0
   19.8445  -10.3775  -16.5849 C   0  0  0  0  0  0  0  0  0  0  0  0
   19.4451   -9.8616  -15.5074 O   0  0  0  0  0  0  0  0  0  0  0  0
   18.3121  -11.0796  -20.6169 C   0  0  0  0  0  0  0  0  0  0  0  0
   17.7194  -11.7334  -21.6871 C   0  0  0  0  0  0  0  0  0  0  0  0
   27.4562  -10.2309  -16.2700 C   0  0  0  0  0  0  0  0  0  0  0  0
   26.0764  -11.1681  -15.6324 S   0  0  0  0  0  0  0  0  0  0  0  0
   24.6251  -10.1587  -15.2911 C   0  0  0  0  0  0  0  0  0  0  0  0
   23.4122  -10.5179  -16.0388 C   0  0  0  0  0  0  0  0  0  0  0  0
   22.2028   -9.6889  -15.9637 C   0  0  2  0  0  0  0  0  0  0  0  0
   21.2113  -10.3186  -16.8778 N   0  0  0  0  0  0  0  0  0  0  0  0
   22.2808   -8.2608  -16.1900 C   0  0  0  0  0  0  0  0  0  0  0  0
   22.6315   -7.6721  -17.2262 O   0  0  0  0  0  0  0  0  0  0  0  0
   21.9152   -7.3915  -15.1022 N   0  0  0  0  0  0  0  0  0  0  0  0
   22.0305   -5.9280  -15.2458 C   0  0  1  0  0  0  0  0  0  0  0  0
   20.6059   -5.3906  -15.2211 C   0  0  0  0  0  0  0  0  0  0  0  0
   19.8717   -5.5511  -16.5016 C   0  0  0  0  0  0  0  0  0  0  0  0
   18.4682   -5.0252  -16.3704 C   0  0  0  0  0  0  0  0  0  0  0  0
   17.6573   -5.2607  -17.6030 C   0  0  0  0  0  0  0  0  0  0  0  0
   16.2628   -4.8900  -17.3605 N   0  0  0  0  0  0  0  0  0  0  0  0
   22.8041   -5.3746  -14.1130 C   0  0  0  0  0  0  0  0  0  0  0  0
   23.1985   -6.2135  -13.0764 O   0  0  0  0  0  0  0  0  0  0  0  0
   23.1423   -4.1743  -14.0096 O   0  0  0  0  0  0  0  0  0  0  0  0
  2  1  1  0
  3  2  2  0
  4  3  1  0
  5  4  2  0
  5 11  1  0
  6  7  1  0
  6  5  1  0
  7  8  1  1
  9  7  1  0
 10  9  2  0
 11 12  2  0
 12  2  1  0
 14 13  1  0
 14 15  1  0
 16 15  1  0
 17 16  1  6
 17 18  1  0
 18  9  1  0
 19 21  1  0
 19 17  1  0
 20 19  2  0
 22 21  1  0
 22 28  1  0
 22 23  1  1
 24 25  1  0
 24 23  1  0
 25 26  1  0
 27 26  1  0
 28 29  1  0
 30 28  2  0
M  END
$$$$
