YMK.pdb
     RDKit          3D

 30 30  0  0  1  0  0  0  0  0999 V2000
   28.8778  -16.9067  -19.8895 O   0  0  0  0  0  0  0  0  0  0  0  0
   28.8483  -17.6194  -18.7169 C   0  0  0  0  0  0  0  0  0  0  0  0
   29.0943  -16.9575  -17.5448 C   0  0  0  0  0  0  0  0  0  0  0  0
   29.0608  -17.6929  -16.3639 C   0  0  0  0  0  0  0  0  0  0  0  0
   28.7922  -19.0356  -16.3568 C   0  0  0  0  0  0  0  0  0  0  0  0
   28.7592  -19.7962  -15.1032 C   0  0  0  0  0  0  0  0  0  0  0  0
   27.3370  -19.8189  -14.6012 C   0  0  2  0  0  0  0  0  0  0  0  0
   26.7857  -18.5183  -14.4085 N   0  0  0  0  0  0  0  0  0  0  0  0
   27.2685  -20.6537  -13.3528 C   0  0  0  0  0  0  0  0  0  0  0  0
   27.5431  -21.8806  -13.4290 O   0  0  0  0  0  0  0  0  0  0  0  0
   28.5507  -19.6650  -17.5501 C   0  0  0  0  0  0  0  0  0  0  0  0
   28.5706  -18.9843  -18.7586 C   0  0  0  0  0  0  0  0  0  0  0  0
   27.7496  -20.0842   -7.1230 C   0  0  0  0  0  0  0  0  0  0  0  0
   26.0843  -20.7285   -7.1108 S   0  0  0  0  0  0  0  0  0  0  0  0
   25.4137  -21.0039   -8.7588 C   0  0  0  0  0  0  0  0  0  0  0  0
   26.2763  -20.5863   -9.8728 C   0  0  0  0  0  0  0  0  0  0  0  0
   25.8327  -20.7210  -11.2659 C   0  0  2  0  0  0  0  0  0  0  0  0
   26.9133  -20.1334  -12.1036 N   0  0  0  0  0  0  0  0  0  0  0  0
   24.5350  -20.2221  -11.6709 C   0  0  0  0  0  0  0  0  0  0  0  0
   24.2391  -19.0682  -12.0231 O   0  0  0  0  0  0  0  0  0  0  0  0
   23.4347  -21.1504  -11.6759 N   0  0  0  0  0  0  0  0  0  0  0  0
   22.1309  -20.7586  -12.2438 C   0  0  1  0  0  0  0  0  0  0  0  0
   21.8481  -21.7478  -13.3666 C   0  0  0  0  0  0  0  0  0  0  0  0
   20.5100  -21.5944  -13.9913 C   0  0  0  0  0  0  0  0  0  0  0  0
   20.3148  -22.6235  -15.0714 C   0  0  0  0  0  0  0  0  0  0  0  0
   18.9799  -22.5055  -15.7319 C   0  0  0  0  0  0  0  0  0  0  0  0
   18.8040  -23.5908  -16.6973 N   0  0  0  0  0  0  0  0  0  0  0  0
   21.0839  -20.8552  -11.2034 C   0  0  0  0  0  0  0  0  0  0  0  0
   21.3005  -21.6507  -10.0835 O   0  0  0  0  0  0  0  0  0  0  0  0
   19.9845  -20.2597  -11.2520 O   0  0  0  0  0  0  0  0  0  0  0  0
  2  1  1  0
  3  2  2  0
  4  3  1  0
  5  4  2  0
  5 11  1  0
  6  7  1  0
  6  5  1  0
  7  8  1  1
  9  7  1  0
 10  9  2  0
 11 12  2  0
 12  2  1  0
 14 13  1  0
 14 15  1  0
 16 15  1  0
 17 16  1  1
 17 18  1  0
 18  9  1  0
 19 21  1  0
 19 17  1  0
 20 19  2  0
 22 21  1  0
 22 28  1  0
 22 23  1  6
 24 25  1  0
 24 23  1  0
 25 26  1  0
 27 26  1  0
 28 29  1  0
 30 28  2  0
M  END
$$$$
