EGT.pdb
     RDKit          3D

 21 20  0  0  1  0  0  0  0  0999 V2000
    8.8721  -19.6545   24.2361 N   0  0  0  0  0  0  0  0  0  0  0  0
    7.9833  -18.6053   23.6621 C   0  0  1  0  0  0  0  0  0  0  0  0
    6.8695  -18.4078   24.6339 C   0  0  0  0  0  0  0  0  0  0  0  0
    6.0690  -19.6483   24.8488 C   0  0  0  0  0  0  0  0  0  0  0  0
    6.7242  -20.5298   25.8283 C   0  0  0  0  0  0  0  0  0  0  0  0
    6.9291  -20.1446   26.9931 O   0  0  0  0  0  0  0  0  0  0  0  0
    8.7725  -17.3583   23.5285 C   0  0  0  0  0  0  0  0  0  0  0  0
    8.2922  -16.2984   23.0397 O   0  0  0  0  0  0  0  0  0  0  0  0
    7.1426  -21.8239   25.5041 O   0  0  0  0  0  0  0  0  0  0  0  0
   10.1373  -17.3836   23.9817 N   0  0  0  0  0  0  0  0  0  0  0  0
   10.8825  -16.1644   23.8514 C   0  0  0  0  0  0  0  0  0  0  0  0
   11.0611  -15.4819   25.1803 C   0  0  0  0  0  0  0  0  0  0  0  0
   11.8605  -14.5024   25.2771 O   0  0  0  0  0  0  0  0  0  0  0  0
    9.1202  -13.3655   27.2203 C   0  0  0  0  0  0  0  0  0  0  0  0
    9.2140  -14.6501   27.9982 C   0  0  1  0  0  0  0  0  0  0  0  0
    8.0962  -15.4355   27.7851 O   0  0  0  0  0  0  0  0  0  0  0  0
   10.4882  -15.3919   27.5722 C   0  0  2  0  0  0  0  0  0  0  0  0
   10.3175  -15.9722   26.2768 N   0  0  0  0  0  0  0  0  0  0  0  0
   10.7413  -16.4474   28.5969 C   0  0  0  0  0  0  0  0  0  0  0  0
   10.6453  -17.6503   28.3141 O   0  0  0  0  0  0  0  0  0  0  0  0
   11.0853  -16.0641   29.8697 O   0  0  0  0  0  0  0  0  0  0  0  0
  2  1  1  1
  3  2  1  0
  4  5  1  0
  4  3  1  0
  5  6  2  0
  7 10  1  0
  7  2  1  0
  8  7  2  0
  9  5  1  0
 11 12  1  0
 11 10  1  0
 12 18  1  0
 13 12  2  0
 15 16  1  0
 15 14  1  6
 17 15  1  0
 17 18  1  6
 19 17  1  0
 19 21  1  0
 20 19  2  0
M  END
$$$$
