EGT.pdb
     RDKit          3D

 21 20  0  0  1  0  0  0  0  0999 V2000
    8.3527  -17.9209   22.8841 N   0  0  0  0  0  0  0  0  0  0  0  0
    8.0683  -17.5888   21.4596 C   0  0  1  0  0  0  0  0  0  0  0  0
    6.7905  -18.2718   21.1066 C   0  0  0  0  0  0  0  0  0  0  0  0
    6.5197  -19.4612   21.9655 C   0  0  0  0  0  0  0  0  0  0  0  0
    5.0900  -19.8088   21.9410 C   0  0  0  0  0  0  0  0  0  0  0  0
    4.3570  -19.5543   22.9132 O   0  0  0  0  0  0  0  0  0  0  0  0
    7.9087  -16.1194   21.3541 C   0  0  0  0  0  0  0  0  0  0  0  0
    7.7120  -15.5337   20.2534 O   0  0  0  0  0  0  0  0  0  0  0  0
    4.4930  -20.4327   20.8414 O   0  0  0  0  0  0  0  0  0  0  0  0
    7.9848  -15.3535   22.5691 N   0  0  0  0  0  0  0  0  0  0  0  0
    7.7067  -13.9497   22.4648 C   0  0  0  0  0  0  0  0  0  0  0  0
    7.9271  -13.2444   23.7754 C   0  0  0  0  0  0  0  0  0  0  0  0
    7.6943  -12.0010   23.8625 O   0  0  0  0  0  0  0  0  0  0  0  0
    6.5622  -11.9489   25.8444 C   0  0  0  0  0  0  0  0  0  0  0  0
    7.1514  -13.0255   26.7149 C   0  0  1  0  0  0  0  0  0  0  0  0
    6.3168  -14.1268   26.7657 O   0  0  0  0  0  0  0  0  0  0  0  0
    8.5275  -13.4123   26.1562 C   0  0  2  0  0  0  0  0  0  0  0  0
    8.3908  -14.0130   24.8662 N   0  0  0  0  0  0  0  0  0  0  0  0
    9.1377  -14.3700   27.1251 C   0  0  0  0  0  0  0  0  0  0  0  0
    9.4570  -14.0091   28.2670 O   0  0  0  0  0  0  0  0  0  0  0  0
    9.3425  -15.6691   26.7305 O   0  0  0  0  0  0  0  0  0  0  0  0
  2  1  1  1
  3  2  1  0
  4  5  1  0
  4  3  1  0
  5  6  2  0
  7 10  1  0
  7  2  1  0
  8  7  2  0
  9  5  1  0
 11 12  1  0
 11 10  1  0
 12 18  1  0
 13 12  2  0
 15 16  1  0
 15 14  1  6
 17 15  1  0
 17 18  1  6
 19 17  1  0
 19 21  1  0
 20 19  2  0
M  END
$$$$
