EGT.pdb
     RDKit          3D

 21 20  0  0  1  0  0  0  0  0999 V2000
    8.4761  -13.2438   17.6994 N   0  0  0  0  0  0  0  0  0  0  0  0
    9.0833  -14.0730   18.7783 C   0  0  1  0  0  0  0  0  0  0  0  0
   10.5571  -13.8563   18.7081 C   0  0  0  0  0  0  0  0  0  0  0  0
   11.3144  -14.7661   19.6161 C   0  0  0  0  0  0  0  0  0  0  0  0
   12.7576  -14.4855   19.5520 C   0  0  0  0  0  0  0  0  0  0  0  0
   13.4386  -14.8740   18.5863 O   0  0  0  0  0  0  0  0  0  0  0  0
    8.5571  -13.5923   20.0774 C   0  0  0  0  0  0  0  0  0  0  0  0
    8.8300  -12.4506   20.5414 O   0  0  0  0  0  0  0  0  0  0  0  0
   13.4253  -13.7794   20.5571 O   0  0  0  0  0  0  0  0  0  0  0  0
    7.7037  -14.4813   20.8190 N   0  0  0  0  0  0  0  0  0  0  0  0
    7.2345  -14.0125   22.0914 C   0  0  0  0  0  0  0  0  0  0  0  0
    7.5696  -14.9798   23.1939 C   0  0  0  0  0  0  0  0  0  0  0  0
    6.7384  -15.1696   24.1324 O   0  0  0  0  0  0  0  0  0  0  0  0
    8.2885  -18.5408   22.6825 C   0  0  0  0  0  0  0  0  0  0  0  0
    9.5150  -17.9659   23.3377 C   0  0  1  0  0  0  0  0  0  0  0  0
   10.5005  -17.7160   22.4006 O   0  0  0  0  0  0  0  0  0  0  0  0
    9.1228  -16.6757   24.0706 C   0  0  2  0  0  0  0  0  0  0  0  0
    8.8154  -15.6428   23.1312 N   0  0  0  0  0  0  0  0  0  0  0  0
   10.2852  -16.2883   24.9232 C   0  0  0  0  0  0  0  0  0  0  0  0
   10.9068  -15.2357   24.7184 O   0  0  0  0  0  0  0  0  0  0  0  0
   10.6603  -17.1218   25.9478 O   0  0  0  0  0  0  0  0  0  0  0  0
  2  1  1  6
  3  2  1  0
  4  5  1  0
  4  3  1  0
  5  6  2  0
  7 10  1  0
  7  2  1  0
  8  7  2  0
  9  5  1  0
 11 12  1  0
 11 10  1  0
 12 18  1  0
 13 12  2  0
 15 16  1  0
 15 14  1  6
 17 15  1  0
 17 18  1  6
 19 17  1  0
 19 21  1  0
 20 19  2  0
M  END
$$$$
