EGT.pdb
     RDKit          3D

 21 20  0  0  1  0  0  0  0  0999 V2000
    9.4237  -16.1171   19.9412 N   0  0  0  0  0  0  0  0  0  0  0  0
    7.9446  -15.9527   19.8663 C   0  0  1  0  0  0  0  0  0  0  0  0
    7.4150  -17.1517   19.1553 C   0  0  0  0  0  0  0  0  0  0  0  0
    8.3768  -18.2923   19.1594 C   0  0  0  0  0  0  0  0  0  0  0  0
    8.4994  -18.8772   17.8146 C   0  0  0  0  0  0  0  0  0  0  0  0
    7.9674  -19.9688   17.5451 O   0  0  0  0  0  0  0  0  0  0  0  0
    7.4178  -15.9049   21.2505 C   0  0  0  0  0  0  0  0  0  0  0  0
    6.2134  -15.6312   21.5108 O   0  0  0  0  0  0  0  0  0  0  0  0
    9.2088  -18.2456   16.7886 O   0  0  0  0  0  0  0  0  0  0  0  0
    8.3359  -16.1856   22.3214 N   0  0  0  0  0  0  0  0  0  0  0  0
    7.8020  -16.1553   23.6529 C   0  0  0  0  0  0  0  0  0  0  0  0
    8.3332  -14.9844   24.4341 C   0  0  0  0  0  0  0  0  0  0  0  0
    9.3897  -14.4013   24.0448 O   0  0  0  0  0  0  0  0  0  0  0  0
    6.5316  -11.7479   25.5288 C   0  0  0  0  0  0  0  0  0  0  0  0
    6.9143  -12.5570   26.7383 C   0  0  1  0  0  0  0  0  0  0  0  0
    5.8377  -13.2940   27.1963 O   0  0  0  0  0  0  0  0  0  0  0  0
    8.0835  -13.4784   26.3646 C   0  0  2  0  0  0  0  0  0  0  0  0
    7.6183  -14.5822   25.5842 N   0  0  0  0  0  0  0  0  0  0  0  0
    8.6913  -13.9516   27.6432 C   0  0  0  0  0  0  0  0  0  0  0  0
    8.7120  -15.1560   27.9350 O   0  0  0  0  0  0  0  0  0  0  0  0
    9.2327  -13.0256   28.5003 O   0  0  0  0  0  0  0  0  0  0  0  0
  2  1  1  1
  3  2  1  0
  4  5  1  0
  4  3  1  0
  5  6  2  0
  7 10  1  0
  7  2  1  0
  8  7  2  0
  9  5  1  0
 11 12  1  0
 11 10  1  0
 12 18  1  0
 13 12  2  0
 15 16  1  0
 15 14  1  6
 17 15  1  0
 17 18  1  1
 19 17  1  0
 19 21  1  0
 20 19  2  0
M  END
$$$$
