EGT.pdb
     RDKit          3D

 21 20  0  0  1  0  0  0  0  0999 V2000
    9.7209  -16.0516   20.2170 N   0  0  0  0  0  0  0  0  0  0  0  0
    8.2661  -16.0550   19.8949 C   0  0  1  0  0  0  0  0  0  0  0  0
    7.9588  -17.3928   19.3120 C   0  0  0  0  0  0  0  0  0  0  0  0
    9.1772  -18.0946   18.8131 C   0  0  0  0  0  0  0  0  0  0  0  0
    9.3348  -19.4007   19.4726 C   0  0  0  0  0  0  0  0  0  0  0  0
    8.5623  -19.7508   20.3825 O   0  0  0  0  0  0  0  0  0  0  0  0
    7.5160  -15.8633   21.1584 C   0  0  0  0  0  0  0  0  0  0  0  0
    6.2635  -15.7103   21.1894 O   0  0  0  0  0  0  0  0  0  0  0  0
   10.3444  -20.2994   19.1154 O   0  0  0  0  0  0  0  0  0  0  0  0
    8.2688  -15.8555   22.3838 N   0  0  0  0  0  0  0  0  0  0  0  0
    7.5182  -15.7365   23.6008 C   0  0  0  0  0  0  0  0  0  0  0  0
    8.0531  -14.6340   24.4737 C   0  0  0  0  0  0  0  0  0  0  0  0
    9.2416  -14.2253   24.3060 O   0  0  0  0  0  0  0  0  0  0  0  0
    5.9568  -11.3792   25.7747 C   0  0  0  0  0  0  0  0  0  0  0  0
    6.4874  -12.2512   26.8802 C   0  0  1  0  0  0  0  0  0  0  0  0
    5.4953  -13.0804   27.3700 O   0  0  0  0  0  0  0  0  0  0  0  0
    7.6636  -13.0739   26.3370 C   0  0  2  0  0  0  0  0  0  0  0  0
    7.1920  -14.0963   25.4561 N   0  0  0  0  0  0  0  0  0  0  0  0
    8.3602  -13.6691   27.5155 C   0  0  0  0  0  0  0  0  0  0  0  0
    8.4241  -14.8974   27.6683 O   0  0  0  0  0  0  0  0  0  0  0  0
    8.9352  -12.8292   28.4371 O   0  0  0  0  0  0  0  0  0  0  0  0
  2  1  1  1
  3  2  1  0
  4  5  1  0
  4  3  1  0
  5  6  2  0
  7 10  1  0
  7  2  1  0
  8  7  2  0
  9  5  1  0
 11 12  1  0
 11 10  1  0
 12 18  1  0
 13 12  2  0
 15 16  1  0
 15 14  1  6
 17 15  1  0
 17 18  1  6
 19 17  1  0
 19 21  1  0
 20 19  2  0
M  END
$$$$
