EGT.pdb
     RDKit          3D

 21 20  0  0  1  0  0  0  0  0999 V2000
    3.5602  -17.8611   21.9005 N   0  0  0  0  0  0  0  0  0  0  0  0
    4.8519  -18.5795   21.7115 C   0  0  1  0  0  0  0  0  0  0  0  0
    4.7313  -19.3523   20.4418 C   0  0  0  0  0  0  0  0  0  0  0  0
    3.3162  -19.6826   20.1036 C   0  0  0  0  0  0  0  0  0  0  0  0
    3.0387  -21.1066   20.3503 C   0  0  0  0  0  0  0  0  0  0  0  0
    3.9130  -21.8512   20.8281 O   0  0  0  0  0  0  0  0  0  0  0  0
    5.9271  -17.5668   21.5935 C   0  0  0  0  0  0  0  0  0  0  0  0
    7.1459  -17.8777   21.4883 O   0  0  0  0  0  0  0  0  0  0  0  0
    1.7983  -21.6849   20.0647 O   0  0  0  0  0  0  0  0  0  0  0  0
    5.5396  -16.1818   21.6014 N   0  0  0  0  0  0  0  0  0  0  0  0
    6.5888  -15.2178   21.4311 C   0  0  0  0  0  0  0  0  0  0  0  0
    7.2502  -14.8846   22.7407 C   0  0  0  0  0  0  0  0  0  0  0  0
    6.8145  -13.9146   23.4315 O   0  0  0  0  0  0  0  0  0  0  0  0
    7.1596  -15.3245   25.8407 C   0  0  0  0  0  0  0  0  0  0  0  0
    8.4896  -15.9697   25.5601 C   0  0  1  0  0  0  0  0  0  0  0  0
    8.3459  -17.3337   25.3847 O   0  0  0  0  0  0  0  0  0  0  0  0
    9.0966  -15.3222   24.3080 C   0  0  2  0  0  0  0  0  0  0  0  0
    8.3440  -15.6810   23.1467 N   0  0  0  0  0  0  0  0  0  0  0  0
   10.5023  -15.8130   24.2015 C   0  0  0  0  0  0  0  0  0  0  0  0
   10.8461  -16.5771   23.2881 O   0  0  0  0  0  0  0  0  0  0  0  0
   11.4186  -15.4026   25.1381 O   0  0  0  0  0  0  0  0  0  0  0  0
  2  1  1  6
  3  2  1  0
  4  5  1  0
  4  3  1  0
  5  6  2  0
  7 10  1  0
  7  2  1  0
  8  7  2  0
  9  5  1  0
 11 12  1  0
 11 10  1  0
 12 18  1  0
 13 12  2  0
 15 16  1  0
 15 14  1  6
 17 15  1  0
 17 18  1  6
 19 17  1  0
 19 21  1  0
 20 19  2  0
M  END
$$$$
