EGT.pdb
     RDKit          3D

 21 20  0  0  1  0  0  0  0  0999 V2000
   11.3802  -16.8016   20.4334 N   0  0  0  0  0  0  0  0  0  0  0  0
   10.0232  -17.4100   20.3401 C   0  0  1  0  0  0  0  0  0  0  0  0
   10.2212  -18.8544   20.0262 C   0  0  0  0  0  0  0  0  0  0  0  0
   11.4463  -19.1015   19.2113 C   0  0  0  0  0  0  0  0  0  0  0  0
   11.6024  -20.5364   18.9245 C   0  0  0  0  0  0  0  0  0  0  0  0
   12.6920  -20.9919   18.5340 O   0  0  0  0  0  0  0  0  0  0  0  0
    9.3612  -17.2591   21.6571 C   0  0  0  0  0  0  0  0  0  0  0  0
    8.1443  -17.5380   21.8428 O   0  0  0  0  0  0  0  0  0  0  0  0
   10.5507  -21.4455   19.0739 O   0  0  0  0  0  0  0  0  0  0  0  0
   10.1595  -16.7739   22.7507 N   0  0  0  0  0  0  0  0  0  0  0  0
    9.5388  -16.7574   24.0443 C   0  0  0  0  0  0  0  0  0  0  0  0
   10.4762  -16.2368   25.0997 C   0  0  0  0  0  0  0  0  0  0  0  0
   11.6198  -15.8058   24.7619 O   0  0  0  0  0  0  0  0  0  0  0  0
    8.7846  -14.3004   28.1378 C   0  0  0  0  0  0  0  0  0  0  0  0
   10.2161  -14.1723   27.6924 C   0  0  1  0  0  0  0  0  0  0  0  0
   10.9657  -13.4974   28.6382 O   0  0  0  0  0  0  0  0  0  0  0  0
   10.7843  -15.5774   27.4508 C   0  0  2  0  0  0  0  0  0  0  0  0
   10.0312  -16.2525   26.4404 N   0  0  0  0  0  0  0  0  0  0  0  0
   10.7044  -16.3090   28.7495 C   0  0  0  0  0  0  0  0  0  0  0  0
    9.8762  -17.2144   28.9243 O   0  0  0  0  0  0  0  0  0  0  0  0
   11.5694  -15.9622   29.7579 O   0  0  0  0  0  0  0  0  0  0  0  0
  2  1  1  1
  3  2  1  0
  4  5  1  0
  4  3  1  0
  5  6  2  0
  7 10  1  0
  7  2  1  0
  8  7  2  0
  9  5  1  0
 11 12  1  0
 11 10  1  0
 12 18  1  0
 13 12  2  0
 15 16  1  0
 15 14  1  1
 17 15  1  0
 17 18  1  6
 19 17  1  0
 19 21  1  0
 20 19  2  0
M  END
$$$$
