WWA.pdb
     RDKit          3D

 34 37  0  0  1  0  0  0  0  0999 V2000
    8.9761  -17.6971   21.9027 N   0  0  0  0  0  0  0  0  0  0  0  0
    8.9587  -16.3124   22.2559 C   0  0  1  0  0  0  0  0  0  0  0  0
    7.6805  -15.6066   22.0075 C   0  0  0  0  0  0  0  0  0  0  0  0
    7.4439  -15.2270   20.6201 C   0  0  0  0  0  0  0  0  0  0  0  0
    6.8291  -15.9418   19.6192 C   0  0  0  0  0  0  0  0  0  0  0  0
    6.8291  -15.2215   18.4773 N   0  0  0  0  0  0  0  0  0  0  0  0
    7.4285  -14.0587   18.7140 C   0  0  0  0  0  0  0  0  0  0  0  0
    7.6726  -12.9984   17.8676 C   0  0  0  0  0  0  0  0  0  0  0  0
    8.3268  -11.8821   18.3570 C   0  0  0  0  0  0  0  0  0  0  0  0
    8.7356  -11.8166   19.6749 C   0  0  0  0  0  0  0  0  0  0  0  0
    8.4709  -12.9026   20.4911 C   0  0  0  0  0  0  0  0  0  0  0  0
    7.8217  -14.0330   20.0396 C   0  0  0  0  0  0  0  0  0  0  0  0
    9.3999  -16.1768   23.6655 C   0  0  0  0  0  0  0  0  0  0  0  0
    9.9971  -15.1240   24.0443 O   0  0  0  0  0  0  0  0  0  0  0  0
    9.1998  -17.1673   24.6559 N   0  0  0  0  0  0  0  0  0  0  0  0
    9.7386  -17.0444   25.9795 C   0  0  1  0  0  0  0  0  0  0  0  0
    8.7376  -16.7140   27.0272 C   0  0  0  0  0  0  0  0  0  0  0  0
    7.7193  -15.7154   26.6644 C   0  0  0  0  0  0  0  0  0  0  0  0
    6.4549  -16.0055   26.1389 C   0  0  0  0  0  0  0  0  0  0  0  0
    5.7979  -14.8556   25.9085 N   0  0  0  0  0  0  0  0  0  0  0  0
    6.5802  -13.8074   26.2628 C   0  0  0  0  0  0  0  0  0  0  0  0
    6.4229  -12.4489   26.2532 C   0  0  0  0  0  0  0  0  0  0  0  0
    7.4334  -11.6370   26.7031 C   0  0  0  0  0  0  0  0  0  0  0  0
    8.6097  -12.1408   27.1677 C   0  0  0  0  0  0  0  0  0  0  0  0
    8.7732  -13.4961   27.1793 C   0  0  0  0  0  0  0  0  0  0  0  0
    7.7609  -14.3420   26.7271 C   0  0  0  0  0  0  0  0  0  0  0  0
   10.5671  -18.2407   26.3429 C   0  0  0  0  0  0  0  0  0  0  0  0
   10.0392  -19.3402   26.6527 O   0  0  0  0  0  0  0  0  0  0  0  0
   14.2330  -19.1047   26.2319 C   0  0  0  0  0  0  0  0  0  0  0  0
   12.7994  -19.3155   26.7091 C   0  0  2  0  0  0  0  0  0  0  0  0
   11.9896  -18.1784   26.3501 N   0  0  0  0  0  0  0  0  0  0  0  0
   12.7799  -19.6103   28.1431 C   0  0  0  0  0  0  0  0  0  0  0  0
   12.1549  -18.8678   28.9390 O   0  0  0  0  0  0  0  0  0  0  0  0
   13.4410  -20.7064   28.6726 O   0  0  0  0  0  0  0  0  0  0  0  0
  2  3  1  0
  2  1  1  1
  3  4  1  0
  4  5  2  0
  6  5  1  0
  7  6  1  0
  8  7  2  0
  9  8  1  0
 10  9  2  0
 10 11  1  0
 11 12  2  0
 12  7  1  0
 12  4  1  0
 13 15  1  0
 13  2  1  0
 14 13  2  0
 16 17  1  1
 16 15  1  0
 17 18  1  0
 18 19  2  0
 19 20  1  0
 21 20  1  0
 22 21  2  0
 23 22  1  0
 24 25  1  0
 24 23  2  0
 25 26  2  0
 26 18  1  0
 26 21  1  0
 27 16  1  0
 28 27  2  0
 30 29  1  1
 30 31  1  0
 31 27  1  0
 32 30  1  0
 32 34  1  0
 33 32  2  0
M  END
$$$$
