WWA.pdb
     RDKit          3D

 34 37  0  0  1  0  0  0  0  0999 V2000
    8.9565  -17.2851   22.4611 N   0  0  0  0  0  0  0  0  0  0  0  0
    9.3367  -15.9237   22.6717 C   0  0  1  0  0  0  0  0  0  0  0  0
    8.2481  -14.9288   22.5350 C   0  0  0  0  0  0  0  0  0  0  0  0
    7.6981  -14.7954   21.1917 C   0  0  0  0  0  0  0  0  0  0  0  0
    6.8129  -15.6156   20.5327 C   0  0  0  0  0  0  0  0  0  0  0  0
    6.5729  -15.1290   19.2964 N   0  0  0  0  0  0  0  0  0  0  0  0
    7.2807  -14.0148   19.1386 C   0  0  0  0  0  0  0  0  0  0  0  0
    7.3704  -13.1671   18.0554 C   0  0  0  0  0  0  0  0  0  0  0  0
    8.1910  -12.0562   18.1349 C   0  0  0  0  0  0  0  0  0  0  0  0
    8.9168  -11.7872   19.2790 C   0  0  0  0  0  0  0  0  0  0  0  0
    8.7983  -12.6635   20.3437 C   0  0  0  0  0  0  0  0  0  0  0  0
    7.9910  -13.7814   20.3021 C   0  0  0  0  0  0  0  0  0  0  0  0
   10.0190  -15.8193   23.9846 C   0  0  0  0  0  0  0  0  0  0  0  0
   10.6759  -14.7743   24.2763 O   0  0  0  0  0  0  0  0  0  0  0  0
    9.9938  -16.8324   24.9721 N   0  0  0  0  0  0  0  0  0  0  0  0
   10.5020  -16.6213   26.2966 C   0  0  1  0  0  0  0  0  0  0  0  0
    9.8554  -15.5068   27.0375 C   0  0  0  0  0  0  0  0  0  0  0  0
    8.5001  -15.1340   26.6019 C   0  0  0  0  0  0  0  0  0  0  0  0
    7.4937  -16.0345   26.2339 C   0  0  0  0  0  0  0  0  0  0  0  0
    6.3957  -15.3472   25.8750 N   0  0  0  0  0  0  0  0  0  0  0  0
    6.6341  -14.0183   25.9912 C   0  0  0  0  0  0  0  0  0  0  0  0
    5.8922  -12.8899   25.7755 C   0  0  0  0  0  0  0  0  0  0  0  0
    6.4400  -11.6530   26.0055 C   0  0  0  0  0  0  0  0  0  0  0  0
    7.7184  -11.5022   26.4487 C   0  0  0  0  0  0  0  0  0  0  0  0
    8.4644  -12.6249   26.6654 C   0  0  0  0  0  0  0  0  0  0  0  0
    7.9301  -13.8928   26.4388 C   0  0  0  0  0  0  0  0  0  0  0  0
   10.5119  -17.8970   27.0853 C   0  0  0  0  0  0  0  0  0  0  0  0
   10.8199  -17.9169   28.3053 O   0  0  0  0  0  0  0  0  0  0  0  0
   10.3439  -21.5190   26.0152 C   0  0  0  0  0  0  0  0  0  0  0  0
   10.6478  -20.3965   27.0027 C   0  0  2  0  0  0  0  0  0  0  0  0
   10.1703  -19.1404   26.4814 N   0  0  0  0  0  0  0  0  0  0  0  0
   12.0745  -20.3818   27.3313 C   0  0  0  0  0  0  0  0  0  0  0  0
   12.8996  -19.8233   26.5680 O   0  0  0  0  0  0  0  0  0  0  0  0
   12.5650  -20.9752   28.4829 O   0  0  0  0  0  0  0  0  0  0  0  0
  2  3  1  0
  2  1  1  1
  3  4  1  0
  4  5  2  0
  6  5  1  0
  7  6  1  0
  8  7  2  0
  9  8  1  0
 10  9  2  0
 10 11  1  0
 11 12  2  0
 12  7  1  0
 12  4  1  0
 13 15  1  0
 13  2  1  0
 14 13  2  0
 16 17  1  1
 16 15  1  0
 17 18  1  0
 18 19  2  0
 19 20  1  0
 21 20  1  0
 22 21  2  0
 23 22  1  0
 24 25  1  0
 24 23  2  0
 25 26  2  0
 26 18  1  0
 26 21  1  0
 27 16  1  0
 28 27  2  0
 30 29  1  6
 30 31  1  0
 31 27  1  0
 32 30  1  0
 32 34  1  0
 33 32  2  0
M  END
$$$$
