WWA.pdb
     RDKit          3D

 34 37  0  0  1  0  0  0  0  0999 V2000
   10.9380  -17.6927   25.4899 N   0  0  0  0  0  0  0  0  0  0  0  0
    9.6122  -18.2238   25.5410 C   0  0  1  0  0  0  0  0  0  0  0  0
    8.8426  -17.9017   26.7648 C   0  0  0  0  0  0  0  0  0  0  0  0
    9.6382  -17.4127   27.8841 C   0  0  0  0  0  0  0  0  0  0  0  0
   10.2016  -18.1191   28.9205 C   0  0  0  0  0  0  0  0  0  0  0  0
   10.8509  -17.2742   29.7495 N   0  0  0  0  0  0  0  0  0  0  0  0
   10.7217  -16.0388   29.2758 C   0  0  0  0  0  0  0  0  0  0  0  0
   11.2018  -14.8449   29.7699 C   0  0  0  0  0  0  0  0  0  0  0  0
   10.9268  -13.6735   29.0874 C   0  0  0  0  0  0  0  0  0  0  0  0
   10.1819  -13.6850   27.9241 C   0  0  0  0  0  0  0  0  0  0  0  0
    9.7187  -14.9047   27.4622 C   0  0  0  0  0  0  0  0  0  0  0  0
    9.9719  -16.0934   28.1150 C   0  0  0  0  0  0  0  0  0  0  0  0
    8.8901  -17.8164   24.3110 C   0  0  0  0  0  0  0  0  0  0  0  0
    7.9382  -18.5288   23.8695 O   0  0  0  0  0  0  0  0  0  0  0  0
    9.1928  -16.6531   23.5645 N   0  0  0  0  0  0  0  0  0  0  0  0
    8.5760  -16.3746   22.3000 C   0  0  1  0  0  0  0  0  0  0  0  0
    7.6005  -15.2535   22.3206 C   0  0  0  0  0  0  0  0  0  0  0  0
    6.9209  -15.0038   23.6018 C   0  0  0  0  0  0  0  0  0  0  0  0
    6.0405  -15.8887   24.2349 C   0  0  0  0  0  0  0  0  0  0  0  0
    5.5941  -15.3291   25.3727 N   0  0  0  0  0  0  0  0  0  0  0  0
    6.1468  -14.1008   25.5213 C   0  0  0  0  0  0  0  0  0  0  0  0
    6.0587  -13.1196   26.4699 C   0  0  0  0  0  0  0  0  0  0  0  0
    6.7775  -11.9596   26.3273 C   0  0  0  0  0  0  0  0  0  0  0  0
    7.5912  -11.7429   25.2575 C   0  0  0  0  0  0  0  0  0  0  0  0
    7.6830  -12.7183   24.3068 C   0  0  0  0  0  0  0  0  0  0  0  0
    6.9621  -13.9058   24.4292 C   0  0  0  0  0  0  0  0  0  0  0  0
    9.6020  -16.2147   21.2176 C   0  0  0  0  0  0  0  0  0  0  0  0
    9.2752  -16.1262   20.0057 O   0  0  0  0  0  0  0  0  0  0  0  0
   12.8948  -14.8442   20.7702 C   0  0  0  0  0  0  0  0  0  0  0  0
   11.9923  -16.0419   20.4901 C   0  0  2  0  0  0  0  0  0  0  0  0
   10.9918  -16.1554   21.5215 N   0  0  0  0  0  0  0  0  0  0  0  0
   12.7950  -17.2553   20.3264 C   0  0  0  0  0  0  0  0  0  0  0  0
   13.7085  -17.3052   19.4671 O   0  0  0  0  0  0  0  0  0  0  0  0
   12.5823  -18.3823   21.1033 O   0  0  0  0  0  0  0  0  0  0  0  0
  2  3  1  0
  2  1  1  1
  3  4  1  0
  4  5  2  0
  6  5  1  0
  7  6  1  0
  8  7  2  0
  9  8  1  0
 10  9  2  0
 10 11  1  0
 11 12  2  0
 12  7  1  0
 12  4  1  0
 13 15  1  0
 13  2  1  0
 14 13  2  0
 16 17  1  1
 16 15  1  0
 17 18  1  0
 18 19  2  0
 19 20  1  0
 21 20  1  0
 22 21  2  0
 23 22  1  0
 24 25  1  0
 24 23  2  0
 25 26  2  0
 26 18  1  0
 26 21  1  0
 27 16  1  0
 28 27  2  0
 30 29  1  1
 30 31  1  0
 31 27  1  0
 32 30  1  0
 32 34  1  0
 33 32  2  0
M  END
$$$$
