WWA.pdb
     RDKit          3D

 34 37  0  0  1  0  0  0  0  0999 V2000
    9.0077  -16.9602   22.0577 N   0  0  0  0  0  0  0  0  0  0  0  0
    9.3609  -15.6358   22.4621 C   0  0  1  0  0  0  0  0  0  0  0  0
    8.3052  -14.6119   22.2856 C   0  0  0  0  0  0  0  0  0  0  0  0
    7.7379  -14.5343   20.9451 C   0  0  0  0  0  0  0  0  0  0  0  0
    6.6578  -15.2048   20.4214 C   0  0  0  0  0  0  0  0  0  0  0  0
    6.4780  -14.8453   19.1325 N   0  0  0  0  0  0  0  0  0  0  0  0
    7.4147  -13.9592   18.8089 C   0  0  0  0  0  0  0  0  0  0  0  0
    7.6456  -13.3086   17.6158 C   0  0  0  0  0  0  0  0  0  0  0  0
    8.7024  -12.4204   17.5258 C   0  0  0  0  0  0  0  0  0  0  0  0
    9.5238  -12.1784   18.6098 C   0  0  0  0  0  0  0  0  0  0  0  0
    9.2574  -12.8523   19.7890 C   0  0  0  0  0  0  0  0  0  0  0  0
    8.2137  -13.7453   19.9172 C   0  0  0  0  0  0  0  0  0  0  0  0
    9.8571  -15.6826   23.8591 C   0  0  0  0  0  0  0  0  0  0  0  0
   10.5902  -14.7477   24.3031 O   0  0  0  0  0  0  0  0  0  0  0  0
    9.5663  -16.7279   24.7673 N   0  0  0  0  0  0  0  0  0  0  0  0
   10.0414  -16.7187   26.1206 C   0  0  1  0  0  0  0  0  0  0  0  0
    8.9748  -16.6169   27.1506 C   0  0  0  0  0  0  0  0  0  0  0  0
    7.8398  -15.7370   26.8292 C   0  0  0  0  0  0  0  0  0  0  0  0
    6.6129  -16.1602   26.3051 C   0  0  0  0  0  0  0  0  0  0  0  0
    5.8201  -15.0909   26.1180 N   0  0  0  0  0  0  0  0  0  0  0  0
    6.4755  -13.9680   26.4997 C   0  0  0  0  0  0  0  0  0  0  0  0
    6.1565  -12.6386   26.5358 C   0  0  0  0  0  0  0  0  0  0  0  0
    7.0679  -11.7257   27.0035 C   0  0  0  0  0  0  0  0  0  0  0  0
    8.3017  -12.0989   27.4415 C   0  0  0  0  0  0  0  0  0  0  0  0
    8.6265  -13.4244   27.4074 C   0  0  0  0  0  0  0  0  0  0  0  0
    7.7174  -14.3712   26.9364 C   0  0  0  0  0  0  0  0  0  0  0  0
   10.9718  -17.8666   26.3784 C   0  0  0  0  0  0  0  0  0  0  0  0
   11.4943  -18.0524   27.5079 O   0  0  0  0  0  0  0  0  0  0  0  0
   11.9441  -20.9885   24.5253 C   0  0  0  0  0  0  0  0  0  0  0  0
   12.1711  -19.9188   25.5891 C   0  0  2  0  0  0  0  0  0  0  0  0
   11.3002  -18.7953   25.3502 N   0  0  0  0  0  0  0  0  0  0  0  0
   13.5872  -19.5515   25.6457 C   0  0  0  0  0  0  0  0  0  0  0  0
   13.9541  -18.3806   25.3818 O   0  0  0  0  0  0  0  0  0  0  0  0
   14.5667  -20.4690   25.9888 O   0  0  0  0  0  0  0  0  0  0  0  0
  2  3  1  0
  2  1  1  1
  3  4  1  0
  4  5  2  0
  6  5  1  0
  7  6  1  0
  8  7  2  0
  9  8  1  0
 10  9  2  0
 10 11  1  0
 11 12  2  0
 12  7  1  0
 12  4  1  0
 13 15  1  0
 13  2  1  0
 14 13  2  0
 16 17  1  1
 16 15  1  0
 17 18  1  0
 18 19  2  0
 19 20  1  0
 21 20  1  0
 22 21  2  0
 23 22  1  0
 24 25  1  0
 24 23  2  0
 25 26  2  0
 26 18  1  0
 26 21  1  0
 27 16  1  0
 28 27  2  0
 30 29  1  6
 30 31  1  0
 31 27  1  0
 32 30  1  0
 32 34  1  0
 33 32  2  0
M  END
$$$$
