HNT.pdb
     RDKit          3D

 26 26  0  0  1  0  0  0  0  0999 V2000
    9.4966  -15.8405   20.0009 N   0  0  0  0  0  0  0  0  0  0  0  0
    8.6456  -14.9776   20.7579 C   0  0  1  0  0  0  0  0  0  0  0  0
    7.2883  -14.7524   20.1351 C   0  0  0  0  0  0  0  0  0  0  0  0
    7.4920  -14.3943   18.7186 C   0  0  0  0  0  0  0  0  0  0  0  0
    8.0318  -13.2222   18.2445 C   0  0  0  0  0  0  0  0  0  0  0  0
    8.0428  -13.2849   16.9128 N   0  0  0  0  0  0  0  0  0  0  0  0
    7.5256  -14.4621   16.5429 C   0  0  0  0  0  0  0  0  0  0  0  0
    7.1861  -15.1461   17.6520 N   0  0  0  0  0  0  0  0  0  0  0  0
    8.4709  -15.4342   22.1896 C   0  0  0  0  0  0  0  0  0  0  0  0
    7.3296  -15.3186   22.6520 O   0  0  0  0  0  0  0  0  0  0  0  0
    9.6512  -19.0174   26.4710 N   0  0  0  0  0  0  0  0  0  0  0  0
   10.5546  -18.1079   25.8878 C   0  0  0  0  0  0  0  0  0  0  0  0
   11.5050  -17.6705   26.6150 O   0  0  0  0  0  0  0  0  0  0  0  0
   10.3669  -17.7125   24.4992 C   0  0  0  0  0  0  0  0  0  0  0  0
    9.5672  -16.4420   24.2826 C   0  0  2  0  0  0  0  0  0  0  0  0
    9.5274  -15.9512   22.9393 N   0  0  0  0  0  0  0  0  0  0  0  0
    9.9021  -15.4619   25.3158 C   0  0  0  0  0  0  0  0  0  0  0  0
   11.0130  -14.8346   25.2840 O   0  0  0  0  0  0  0  0  0  0  0  0
    8.2035  -12.2275   26.4606 C   0  0  0  0  0  0  0  0  0  0  0  0
    8.2946  -13.1888   27.6301 C   0  0  1  0  0  0  0  0  0  0  0  0
    7.0855  -13.8564   27.7638 O   0  0  0  0  0  0  0  0  0  0  0  0
    9.4424  -14.1517   27.3945 C   0  0  2  0  0  0  0  0  0  0  0  0
    9.0396  -15.1402   26.4038 N   0  0  0  0  0  0  0  0  0  0  0  0
    9.7517  -14.8040   28.6850 C   0  0  0  0  0  0  0  0  0  0  0  0
   10.1993  -14.1134   29.7982 O   0  0  0  0  0  0  0  0  0  0  0  0
    9.6011  -16.0466   28.7775 O   0  0  0  0  0  0  0  0  0  0  0  0
  2  3  1  0
  2  9  1  0
  2  1  1  6
  4  5  2  0
  4  3  1  0
  6  5  1  0
  7  8  2  0
  7  6  1  0
  8  4  1  0
  9 16  1  0
 10  9  2  0
 12 14  1  0
 12 11  1  0
 13 12  2  0
 15 14  1  6
 16 15  1  0
 17 23  1  0
 17 15  1  0
 18 17  2  0
 20 19  1  6
 20 22  1  0
 21 20  1  0
 22 24  1  0
 22 23  1  6
 24 25  1  0
 26 24  2  0
M  END
$$$$
