HNT.pdb
     RDKit          3D

 26 26  0  0  1  0  0  0  0  0999 V2000
    8.4874  -17.4936   17.9075 N   0  0  0  0  0  0  0  0  0  0  0  0
    8.9945  -16.7060   18.9865 C   0  0  1  0  0  0  0  0  0  0  0  0
    8.0985  -15.5565   19.3824 C   0  0  0  0  0  0  0  0  0  0  0  0
    8.0310  -14.6201   18.2444 C   0  0  0  0  0  0  0  0  0  0  0  0
    8.6850  -14.7513   17.0423 C   0  0  0  0  0  0  0  0  0  0  0  0
    8.3656  -13.7014   16.2850 N   0  0  0  0  0  0  0  0  0  0  0  0
    7.5314  -12.9197   16.9801 C   0  0  0  0  0  0  0  0  0  0  0  0
    7.3243  -13.4829   18.1856 N   0  0  0  0  0  0  0  0  0  0  0  0
    9.3226  -17.5310   20.2116 C   0  0  0  0  0  0  0  0  0  0  0  0
    8.5581  -18.4761   20.4399 O   0  0  0  0  0  0  0  0  0  0  0  0
   13.9899  -18.9795   23.9097 N   0  0  0  0  0  0  0  0  0  0  0  0
   12.6614  -19.1082   23.4604 C   0  0  0  0  0  0  0  0  0  0  0  0
   11.8705  -19.8283   24.1528 O   0  0  0  0  0  0  0  0  0  0  0  0
   12.2543  -18.4227   22.2421 C   0  0  0  0  0  0  0  0  0  0  0  0
   10.8505  -17.8485   22.2518 C   0  0  2  0  0  0  0  0  0  0  0  0
   10.4149  -17.2446   21.0301 N   0  0  0  0  0  0  0  0  0  0  0  0
   10.6440  -17.0614   23.4677 C   0  0  0  0  0  0  0  0  0  0  0  0
   11.4191  -16.0891   23.7545 O   0  0  0  0  0  0  0  0  0  0  0  0
    7.9289  -14.7957   24.7673 C   0  0  0  0  0  0  0  0  0  0  0  0
    8.0770  -15.9645   25.7225 C   0  0  1  0  0  0  0  0  0  0  0  0
    7.1230  -16.9244   25.4160 O   0  0  0  0  0  0  0  0  0  0  0  0
    9.4842  -16.5198   25.6148 C   0  0  2  0  0  0  0  0  0  0  0  0
    9.5926  -17.3108   24.3968 N   0  0  0  0  0  0  0  0  0  0  0  0
    9.7255  -17.3621   26.8059 C   0  0  0  0  0  0  0  0  0  0  0  0
    9.7108  -16.8711   28.1002 O   0  0  0  0  0  0  0  0  0  0  0  0
    9.9552  -18.5843   26.6367 O   0  0  0  0  0  0  0  0  0  0  0  0
  2  3  1  0
  2  9  1  0
  2  1  1  6
  4  5  2  0
  4  3  1  0
  6  5  1  0
  7  8  2  0
  7  6  1  0
  8  4  1  0
  9 16  1  0
 10  9  2  0
 12 14  1  0
 12 11  1  0
 13 12  2  0
 15 14  1  6
 16 15  1  0
 17 23  1  0
 17 15  1  0
 18 17  2  0
 20 19  1  6
 20 22  1  0
 21 20  1  0
 22 24  1  0
 22 23  1  6
 24 25  1  0
 26 24  2  0
M  END
$$$$
