HNT.pdb
     RDKit          3D

 26 26  0  0  1  0  0  0  0  0999 V2000
   10.1152  -15.6248   16.6878 N   0  0  0  0  0  0  0  0  0  0  0  0
   10.6709  -14.8105   17.7222 C   0  0  1  0  0  0  0  0  0  0  0  0
    9.7197  -14.5300   18.8613 C   0  0  0  0  0  0  0  0  0  0  0  0
    8.6295  -13.6810   18.3445 C   0  0  0  0  0  0  0  0  0  0  0  0
    8.4603  -13.2767   17.0415 C   0  0  0  0  0  0  0  0  0  0  0  0
    7.3619  -12.5231   16.9853 N   0  0  0  0  0  0  0  0  0  0  0  0
    6.8414  -12.4460   18.2154 C   0  0  0  0  0  0  0  0  0  0  0  0
    7.6195  -13.1574   19.0530 N   0  0  0  0  0  0  0  0  0  0  0  0
   11.9651  -15.3659   18.2748 C   0  0  0  0  0  0  0  0  0  0  0  0
   11.9430  -16.5625   18.5871 O   0  0  0  0  0  0  0  0  0  0  0  0
   17.7609  -14.9880   18.5543 N   0  0  0  0  0  0  0  0  0  0  0  0
   16.7972  -14.2488   19.2671 C   0  0  0  0  0  0  0  0  0  0  0  0
   17.0977  -13.8667   20.4449 O   0  0  0  0  0  0  0  0  0  0  0  0
   15.5175  -13.9568   18.6370 C   0  0  0  0  0  0  0  0  0  0  0  0
   14.3738  -14.8763   19.0205 C   0  0  2  0  0  0  0  0  0  0  0  0
   13.1080  -14.5803   18.4229 N   0  0  0  0  0  0  0  0  0  0  0  0
   14.3683  -15.0849   20.4686 C   0  0  0  0  0  0  0  0  0  0  0  0
   14.2663  -14.0966   21.2695 O   0  0  0  0  0  0  0  0  0  0  0  0
   13.3103  -18.7163   22.0842 C   0  0  0  0  0  0  0  0  0  0  0  0
   13.1476  -17.4022   22.8237 C   0  0  1  0  0  0  0  0  0  0  0  0
   13.0315  -17.6577   24.1826 O   0  0  0  0  0  0  0  0  0  0  0  0
   14.3367  -16.5107   22.5216 C   0  0  2  0  0  0  0  0  0  0  0  0
   14.4716  -16.3688   21.0785 N   0  0  0  0  0  0  0  0  0  0  0  0
   15.5370  -17.1555   23.0959 C   0  0  0  0  0  0  0  0  0  0  0  0
   15.7266  -17.3359   24.4554 O   0  0  0  0  0  0  0  0  0  0  0  0
   16.4301  -17.5607   22.3126 O   0  0  0  0  0  0  0  0  0  0  0  0
  2  3  1  0
  2  9  1  0
  2  1  1  6
  4  5  2  0
  4  3  1  0
  6  5  1  0
  7  8  2  0
  7  6  1  0
  8  4  1  0
  9 16  1  0
 10  9  2  0
 12 14  1  0
 12 11  1  0
 13 12  2  0
 15 14  1  1
 16 15  1  0
 17 23  1  0
 17 15  1  0
 18 17  2  0
 20 19  1  6
 20 22  1  0
 21 20  1  0
 22 24  1  0
 22 23  1  6
 24 25  1  0
 26 24  2  0
M  END
$$$$
