HNT.pdb
     RDKit          3D

 26 26  0  0  1  0  0  0  0  0999 V2000
   10.0507  -17.8235   16.3657 N   0  0  0  0  0  0  0  0  0  0  0  0
    9.6634  -16.7969   17.2811 C   0  0  1  0  0  0  0  0  0  0  0  0
    8.2323  -16.3406   17.1232 C   0  0  0  0  0  0  0  0  0  0  0  0
    8.0766  -15.7964   15.7608 C   0  0  0  0  0  0  0  0  0  0  0  0
    7.1141  -16.1535   14.8465 C   0  0  0  0  0  0  0  0  0  0  0  0
    7.3145  -15.4380   13.7396 N   0  0  0  0  0  0  0  0  0  0  0  0
    8.3738  -14.6450   13.9373 C   0  0  0  0  0  0  0  0  0  0  0  0
    8.8442  -14.8639   15.1799 N   0  0  0  0  0  0  0  0  0  0  0  0
    9.9132  -17.1733   18.7250 C   0  0  0  0  0  0  0  0  0  0  0  0
    8.9260  -17.5786   19.3502 O   0  0  0  0  0  0  0  0  0  0  0  0
   14.5510  -18.8772   19.1450 N   0  0  0  0  0  0  0  0  0  0  0  0
   13.4241  -18.9636   19.9852 C   0  0  0  0  0  0  0  0  0  0  0  0
   12.7807  -20.0634   19.9999 O   0  0  0  0  0  0  0  0  0  0  0  0
   13.0479  -17.8098   20.7895 C   0  0  0  0  0  0  0  0  0  0  0  0
   11.6087  -17.3528   20.6462 C   0  0  2  0  0  0  0  0  0  0  0  0
   11.1738  -17.0699   19.3128 N   0  0  0  0  0  0  0  0  0  0  0  0
   11.3092  -16.3321   21.6506 C   0  0  0  0  0  0  0  0  0  0  0  0
   12.1136  -15.3629   21.8554 O   0  0  0  0  0  0  0  0  0  0  0  0
    8.1483  -14.1210   22.0633 C   0  0  0  0  0  0  0  0  0  0  0  0
    8.4149  -14.8834   23.3470 C   0  0  1  0  0  0  0  0  0  0  0  0
    7.5928  -16.0005   23.3901 O   0  0  0  0  0  0  0  0  0  0  0  0
    9.8815  -15.2654   23.4035 C   0  0  2  0  0  0  0  0  0  0  0  0
   10.1311  -16.3397   22.4525 N   0  0  0  0  0  0  0  0  0  0  0  0
   10.1751  -15.7118   24.7822 C   0  0  0  0  0  0  0  0  0  0  0  0
   10.1157  -14.8731   25.8820 O   0  0  0  0  0  0  0  0  0  0  0  0
   10.4944  -16.9115   24.9665 O   0  0  0  0  0  0  0  0  0  0  0  0
  2  3  1  0
  2  9  1  0
  2  1  1  6
  4  5  2  0
  4  3  1  0
  6  5  1  0
  7  8  2  0
  7  6  1  0
  8  4  1  0
  9 16  1  0
 10  9  2  0
 12 14  1  0
 12 11  1  0
 13 12  2  0
 15 14  1  6
 16 15  1  0
 17 23  1  0
 17 15  1  0
 18 17  2  0
 20 19  1  6
 20 22  1  0
 21 20  1  0
 22 24  1  0
 22 23  1  6
 24 25  1  0
 26 24  2  0
M  END
$$$$
