HNT.pdb
     RDKit          3D

 26 26  0  0  1  0  0  0  0  0999 V2000
    9.1417  -15.6594   20.0156 N   0  0  0  0  0  0  0  0  0  0  0  0
    8.1296  -14.7363   20.4223 C   0  0  1  0  0  0  0  0  0  0  0  0
    6.9332  -14.6912   19.5017 C   0  0  0  0  0  0  0  0  0  0  0  0
    7.4258  -14.4890   18.1259 C   0  0  0  0  0  0  0  0  0  0  0  0
    8.1141  -13.3939   17.6602 C   0  0  0  0  0  0  0  0  0  0  0  0
    8.3771  -13.5937   16.3686 N   0  0  0  0  0  0  0  0  0  0  0  0
    7.8728  -14.7816   16.0155 C   0  0  0  0  0  0  0  0  0  0  0  0
    7.2872  -15.3340   17.0949 N   0  0  0  0  0  0  0  0  0  0  0  0
    7.6613  -14.9672   21.8423 C   0  0  0  0  0  0  0  0  0  0  0  0
    6.7006  -14.2787   22.2069 O   0  0  0  0  0  0  0  0  0  0  0  0
    6.7124  -18.6697   26.1046 N   0  0  0  0  0  0  0  0  0  0  0  0
    7.9541  -18.1008   25.7614 C   0  0  0  0  0  0  0  0  0  0  0  0
    8.8058  -17.9340   26.6942 O   0  0  0  0  0  0  0  0  0  0  0  0
    8.2079  -17.7331   24.3757 C   0  0  0  0  0  0  0  0  0  0  0  0
    7.9712  -16.2751   24.0312 C   0  0  2  0  0  0  0  0  0  0  0  0
    8.2728  -15.8950   22.6852 N   0  0  0  0  0  0  0  0  0  0  0  0
    8.5264  -15.4202   25.0806 C   0  0  0  0  0  0  0  0  0  0  0  0
    9.7853  -15.2312   25.1698 O   0  0  0  0  0  0  0  0  0  0  0  0
    7.3735  -11.7773   26.2233 C   0  0  0  0  0  0  0  0  0  0  0  0
    7.4068  -12.7528   27.3841 C   0  0  1  0  0  0  0  0  0  0  0  0
    6.1199  -13.2107   27.6288 O   0  0  0  0  0  0  0  0  0  0  0  0
    8.3518  -13.8911   27.0505 C   0  0  2  0  0  0  0  0  0  0  0  0
    7.7288  -14.7513   26.0540 N   0  0  0  0  0  0  0  0  0  0  0  0
    8.6077  -14.6411   28.2988 C   0  0  0  0  0  0  0  0  0  0  0  0
    9.2300  -14.0874   29.4047 O   0  0  0  0  0  0  0  0  0  0  0  0
    8.2427  -15.8402   28.3609 O   0  0  0  0  0  0  0  0  0  0  0  0
  2  3  1  0
  2  9  1  0
  2  1  1  6
  4  5  2  0
  4  3  1  0
  6  5  1  0
  7  8  2  0
  7  6  1  0
  8  4  1  0
  9 16  1  0
 10  9  2  0
 12 14  1  0
 12 11  1  0
 13 12  2  0
 15 14  1  1
 16 15  1  0
 17 23  1  0
 17 15  1  0
 18 17  2  0
 20 19  1  6
 20 22  1  0
 21 20  1  0
 22 24  1  0
 22 23  1  6
 24 25  1  0
 26 24  2  0
M  END
$$$$
