HNT.pdb
     RDKit          3D

 26 26  0  0  1  0  0  0  0  0999 V2000
    9.7872  -15.4137   19.8505 N   0  0  0  0  0  0  0  0  0  0  0  0
    8.5443  -14.8641   20.2920 C   0  0  1  0  0  0  0  0  0  0  0  0
    7.3617  -15.2546   19.4375 C   0  0  0  0  0  0  0  0  0  0  0  0
    7.5000  -14.5783   18.1337 C   0  0  0  0  0  0  0  0  0  0  0  0
    8.5545  -13.7934   17.7315 C   0  0  0  0  0  0  0  0  0  0  0  0
    8.3009  -13.3689   16.4934 N   0  0  0  0  0  0  0  0  0  0  0  0
    7.1190  -13.8665   16.1120 C   0  0  0  0  0  0  0  0  0  0  0  0
    6.6246  -14.6107   17.1194 N   0  0  0  0  0  0  0  0  0  0  0  0
    8.2434  -15.1821   21.7401 C   0  0  0  0  0  0  0  0  0  0  0  0
    7.2315  -14.6449   22.2062 O   0  0  0  0  0  0  0  0  0  0  0  0
    9.0572  -19.5579   23.3045 N   0  0  0  0  0  0  0  0  0  0  0  0
   10.0691  -18.5816   23.3833 C   0  0  0  0  0  0  0  0  0  0  0  0
   11.0743  -18.7086   22.6106 O   0  0  0  0  0  0  0  0  0  0  0  0
    9.9256  -17.4850   24.3302 C   0  0  0  0  0  0  0  0  0  0  0  0
    9.0125  -16.3562   23.8914 C   0  0  2  0  0  0  0  0  0  0  0  0
    9.0539  -16.0253   22.5000 N   0  0  0  0  0  0  0  0  0  0  0  0
    9.1268  -15.2340   24.8230 C   0  0  0  0  0  0  0  0  0  0  0  0
   10.1982  -14.5434   24.8838 O   0  0  0  0  0  0  0  0  0  0  0  0
    6.8133  -12.1526   25.2520 C   0  0  0  0  0  0  0  0  0  0  0  0
    6.9616  -12.8734   26.5782 C   0  0  1  0  0  0  0  0  0  0  0  0
    5.8552  -13.6864   26.7787 O   0  0  0  0  0  0  0  0  0  0  0  0
    8.2497  -13.6738   26.5681 C   0  0  2  0  0  0  0  0  0  0  0  0
    8.0820  -14.8360   25.7067 N   0  0  0  0  0  0  0  0  0  0  0  0
    8.5278  -14.0922   27.9588 C   0  0  0  0  0  0  0  0  0  0  0  0
    8.8070  -13.2000   28.9799 O   0  0  0  0  0  0  0  0  0  0  0  0
    8.5099  -15.3177   28.2289 O   0  0  0  0  0  0  0  0  0  0  0  0
  2  3  1  0
  2  9  1  0
  2  1  1  6
  4  5  2  0
  4  3  1  0
  6  5  1  0
  7  8  2  0
  7  6  1  0
  8  4  1  0
  9 16  1  0
 10  9  2  0
 12 14  1  0
 12 11  1  0
 13 12  2  0
 15 14  1  1
 16 15  1  0
 17 23  1  0
 17 15  1  0
 18 17  2  0
 20 19  1  6
 20 22  1  0
 21 20  1  0
 22 24  1  0
 22 23  1  6
 24 25  1  0
 26 24  2  0
M  END
$$$$
