HNT.pdb
     RDKit          3D

 26 26  0  0  1  0  0  0  0  0999 V2000
    6.9122  -17.3362   19.9393 N   0  0  0  0  0  0  0  0  0  0  0  0
    7.4379  -16.1733   20.5819 C   0  0  1  0  0  0  0  0  0  0  0  0
    6.6708  -14.9068   20.2839 C   0  0  0  0  0  0  0  0  0  0  0  0
    7.5943  -13.9589   19.6320 C   0  0  0  0  0  0  0  0  0  0  0  0
    7.5651  -13.5700   18.3137 C   0  0  0  0  0  0  0  0  0  0  0  0
    8.5626  -12.7072   18.1185 N   0  0  0  0  0  0  0  0  0  0  0  0
    9.2127  -12.5469   19.2769 C   0  0  0  0  0  0  0  0  0  0  0  0
    8.6188  -13.3159   20.2092 N   0  0  0  0  0  0  0  0  0  0  0  0
    7.5690  -16.3394   22.0799 C   0  0  0  0  0  0  0  0  0  0  0  0
    6.5132  -16.5501   22.6888 O   0  0  0  0  0  0  0  0  0  0  0  0
    9.9893  -19.6638   24.0254 N   0  0  0  0  0  0  0  0  0  0  0  0
   10.5433  -18.4500   23.5748 C   0  0  0  0  0  0  0  0  0  0  0  0
   11.1641  -18.4607   22.4621 O   0  0  0  0  0  0  0  0  0  0  0  0
   10.3852  -17.2523   24.3873 C   0  0  0  0  0  0  0  0  0  0  0  0
    9.1388  -16.4334   24.1109 C   0  0  2  0  0  0  0  0  0  0  0  0
    8.7994  -16.2597   22.7319 N   0  0  0  0  0  0  0  0  0  0  0  0
    9.1502  -15.2200   24.9282 C   0  0  0  0  0  0  0  0  0  0  0  0
    9.9663  -14.2718   24.6763 O   0  0  0  0  0  0  0  0  0  0  0  0
    6.5968  -12.4802   25.7048 C   0  0  0  0  0  0  0  0  0  0  0  0
    6.9853  -13.1935   26.9856 C   0  0  1  0  0  0  0  0  0  0  0  0
    6.0392  -14.1690   27.2663 O   0  0  0  0  0  0  0  0  0  0  0  0
    8.3710  -13.7881   26.8233 C   0  0  2  0  0  0  0  0  0  0  0  0
    8.2766  -15.0084   26.0341 N   0  0  0  0  0  0  0  0  0  0  0  0
    8.8935  -14.0814   28.1751 C   0  0  0  0  0  0  0  0  0  0  0  0
    9.1067  -13.1076   29.1358 O   0  0  0  0  0  0  0  0  0  0  0  0
    9.1573  -15.2729   28.4681 O   0  0  0  0  0  0  0  0  0  0  0  0
  2  3  1  0
  2  9  1  0
  2  1  1  1
  4  5  2  0
  4  3  1  0
  6  5  1  0
  7  8  2  0
  7  6  1  0
  8  4  1  0
  9 16  1  0
 10  9  2  0
 12 14  1  0
 12 11  1  0
 13 12  2  0
 15 14  1  6
 16 15  1  0
 17 23  1  0
 17 15  1  0
 18 17  2  0
 20 19  1  6
 20 22  1  0
 21 20  1  0
 22 24  1  0
 22 23  1  6
 24 25  1  0
 26 24  2  0
M  END
$$$$
