PLP.pdb
     RDKit          3D

 23 24  0  0  1  0  0  0  0  0999 V2000
   27.7345  -17.9013  -16.1334 N   0  0  0  0  0  0  0  0  0  0  0  0
   28.6922  -17.2951  -17.0436 C   0  0  0  0  0  0  0  0  0  0  0  0
   29.8190  -18.2901  -17.2016 C   0  0  0  0  0  0  0  0  0  0  0  0
   29.3435  -19.5109  -16.4348 C   0  0  0  0  0  0  0  0  0  0  0  0
   27.8569  -19.2965  -16.4242 C   0  0  1  0  0  0  0  0  0  0  0  0
   27.1577  -20.1589  -15.4407 C   0  0  0  0  0  0  0  0  0  0  0  0
   26.9332  -21.3591  -15.7446 O   0  0  0  0  0  0  0  0  0  0  0  0
   26.6974  -21.6301   -9.6885 C   0  0  0  0  0  0  0  0  0  0  0  0
   25.8541  -20.9959  -10.7191 C   0  0  1  0  0  0  0  0  0  0  0  0
   24.8945  -20.0496   -9.9698 C   0  0  0  0  0  0  0  0  0  0  0  0
   26.4488  -20.3521  -11.8890 C   0  0  0  0  0  0  0  0  0  0  0  0
   25.9553  -20.5785  -13.2702 C   0  0  2  0  0  0  0  0  0  0  0  0
   26.7327  -19.6995  -14.1831 N   0  0  0  0  0  0  0  0  0  0  0  0
   24.5283  -20.5053  -13.4915 C   0  0  0  0  0  0  0  0  0  0  0  0
   23.9211  -19.3788  -13.3359 O   0  0  0  0  0  0  0  0  0  0  0  0
   23.6407  -21.5583  -13.8804 N   0  0  0  0  0  0  0  0  0  0  0  0
   23.9612  -22.9273  -14.0597 C   0  0  0  0  0  0  0  0  0  0  0  0
   22.6134  -23.6344  -14.1657 C   0  0  0  0  0  0  0  0  0  0  0  0
   21.7586  -22.5969  -14.8661 C   0  0  0  0  0  0  0  0  0  0  0  0
   22.2148  -21.3314  -14.1673 C   0  0  1  0  0  0  0  0  0  0  0  0
   21.4445  -21.1967  -12.9196 C   0  0  0  0  0  0  0  0  0  0  0  0
   21.9870  -21.6310  -11.7342 O   0  0  0  0  0  0  0  0  0  0  0  0
   20.3083  -20.6928  -12.9349 O   0  0  0  0  0  0  0  0  0  0  0  0
  2  3  1  0
  2  1  1  0
  3  4  1  0
  5  4  1  0
  5  1  1  0
  5  6  1  1
  6  7  2  0
  9  8  1  1
  9 10  1  0
 11  9  1  0
 12 11  1  1
 12 14  1  0
 13  6  1  0
 13 12  1  0
 14 15  2  0
 16 14  1  0
 16 17  1  0
 17 18  1  0
 19 18  1  0
 20 16  1  0
 20 19  1  0
 21 22  1  0
 20 21  1  1
 23 21  2  0
M  END
$$$$
