PLP.pdb
     RDKit          3D

 23 24  0  0  1  0  0  0  0  0999 V2000
   26.9612  -19.4719  -12.5864 N   0  0  0  0  0  0  0  0  0  0  0  0
   27.3261  -19.5019  -13.9932 C   0  0  0  0  0  0  0  0  0  0  0  0
   28.1175  -20.7727  -14.2013 C   0  0  0  0  0  0  0  0  0  0  0  0
   28.0368  -21.4813  -12.8613 C   0  0  0  0  0  0  0  0  0  0  0  0
   26.8062  -20.8576  -12.2674 C   0  0  1  0  0  0  0  0  0  0  0  0
   26.6791  -21.1081  -10.8110 C   0  0  0  0  0  0  0  0  0  0  0  0
   26.3342  -22.2550  -10.4251 O   0  0  0  0  0  0  0  0  0  0  0  0
   29.0478  -18.9950   -5.5175 C   0  0  0  0  0  0  0  0  0  0  0  0
   28.0242  -19.7963   -6.2144 C   0  0  1  0  0  0  0  0  0  0  0  0
   26.7105  -19.5928   -5.4330 C   0  0  0  0  0  0  0  0  0  0  0  0
   27.8231  -19.6731   -7.6571 C   0  0  0  0  0  0  0  0  0  0  0  0
   26.7750  -20.4252   -8.3908 C   0  0  2  0  0  0  0  0  0  0  0  0
   26.9259  -20.1245   -9.8390 N   0  0  0  0  0  0  0  0  0  0  0  0
   25.4119  -20.3009   -7.9249 C   0  0  0  0  0  0  0  0  0  0  0  0
   24.7440  -19.2334   -8.2009 O   0  0  0  0  0  0  0  0  0  0  0  0
   24.6518  -21.2416   -7.1598 N   0  0  0  0  0  0  0  0  0  0  0  0
   25.1206  -22.4382   -6.5618 C   0  0  0  0  0  0  0  0  0  0  0  0
   23.9938  -22.8789   -5.6324 C   0  0  0  0  0  0  0  0  0  0  0  0
   22.7583  -22.4287   -6.3865 C   0  0  0  0  0  0  0  0  0  0  0  0
   23.2126  -21.0761   -6.8983 C   0  0  1  0  0  0  0  0  0  0  0  0
   22.9845  -20.0856   -5.8329 C   0  0  0  0  0  0  0  0  0  0  0  0
   24.0382  -19.6637   -5.0584 O   0  0  0  0  0  0  0  0  0  0  0  0
   21.8451  -19.6310   -5.6322 O   0  0  0  0  0  0  0  0  0  0  0  0
  2  3  1  0
  2  1  1  0
  3  4  1  0
  5  4  1  0
  5  1  1  0
  5  6  1  1
  6  7  2  0
  9  8  1  1
  9 10  1  0
 11  9  1  0
 12 11  1  1
 12 14  1  0
 13  6  1  0
 13 12  1  0
 14 15  2  0
 16 14  1  0
 16 17  1  0
 17 18  1  0
 19 18  1  0
 20 16  1  0
 20 19  1  0
 21 22  1  0
 20 21  1  1
 23 21  2  0
M  END
$$$$
