PLP.pdb
     RDKit          3D

 23 24  0  0  1  0  0  0  0  0999 V2000
   27.7363  -18.0469  -16.2424 N   0  0  0  0  0  0  0  0  0  0  0  0
   28.6966  -17.4958  -17.1844 C   0  0  0  0  0  0  0  0  0  0  0  0
   29.7418  -18.5656  -17.4027 C   0  0  0  0  0  0  0  0  0  0  0  0
   29.2122  -19.7616  -16.6324 C   0  0  0  0  0  0  0  0  0  0  0  0
   27.7464  -19.4424  -16.5562 C   0  0  1  0  0  0  0  0  0  0  0  0
   27.0284  -20.2685  -15.5553 C   0  0  0  0  0  0  0  0  0  0  0  0
   26.8633  -21.4932  -15.7923 O   0  0  0  0  0  0  0  0  0  0  0  0
   26.4865  -20.8573   -9.5336 C   0  0  0  0  0  0  0  0  0  0  0  0
   25.8412  -21.0510  -10.8456 C   0  0  1  0  0  0  0  0  0  0  0  0
   24.3382  -20.7802  -10.6319 C   0  0  0  0  0  0  0  0  0  0  0  0
   26.3492  -20.3822  -12.0421 C   0  0  0  0  0  0  0  0  0  0  0  0
   25.7851  -20.6146  -13.3950 C   0  0  2  0  0  0  0  0  0  0  0  0
   26.5223  -19.7486  -14.3525 N   0  0  0  0  0  0  0  0  0  0  0  0
   24.3493  -20.5315  -13.5448 C   0  0  0  0  0  0  0  0  0  0  0  0
   23.7568  -19.4040  -13.3462 O   0  0  0  0  0  0  0  0  0  0  0  0
   23.4377  -21.5753  -13.9019 N   0  0  0  0  0  0  0  0  0  0  0  0
   23.7228  -22.9585  -14.0221 C   0  0  0  0  0  0  0  0  0  0  0  0
   22.3575  -23.6329  -14.1161 C   0  0  0  0  0  0  0  0  0  0  0  0
   21.5391  -22.6021  -14.8680 C   0  0  0  0  0  0  0  0  0  0  0  0
   22.0218  -21.3220  -14.2151 C   0  0  1  0  0  0  0  0  0  0  0  0
   21.2416  -21.1164  -12.9834 C   0  0  0  0  0  0  0  0  0  0  0  0
   19.9906  -20.5525  -13.0559 O   0  0  0  0  0  0  0  0  0  0  0  0
   21.7095  -21.4501  -11.8811 O   0  0  0  0  0  0  0  0  0  0  0  0
  2  3  1  0
  2  1  1  0
  3  4  1  0
  5  4  1  0
  5  1  1  0
  5  6  1  1
  6  7  2  0
  9  8  1  1
  9 10  1  0
 11  9  1  0
 12 11  1  1
 12 14  1  0
 13  6  1  0
 13 12  1  0
 14 15  2  0
 16 14  1  0
 16 17  1  0
 17 18  1  0
 19 18  1  0
 20 16  1  0
 20 19  1  0
 21 22  1  0
 20 21  1  1
 23 21  2  0
M  END
$$$$
