PLP.pdb
     RDKit          3D

 23 24  0  0  1  0  0  0  0  0999 V2000
   28.7761  -19.2039  -16.7344 N   0  0  0  0  0  0  0  0  0  0  0  0
   29.0221  -18.0166  -17.5364 C   0  0  0  0  0  0  0  0  0  0  0  0
   27.9247  -17.0354  -17.1932 C   0  0  0  0  0  0  0  0  0  0  0  0
   27.1632  -17.7124  -16.0680 C   0  0  0  0  0  0  0  0  0  0  0  0
   28.1951  -18.6686  -15.5420 C   0  0  1  0  0  0  0  0  0  0  0  0
   27.6174  -19.7105  -14.6584 C   0  0  0  0  0  0  0  0  0  0  0  0
   27.4338  -20.8636  -15.1273 O   0  0  0  0  0  0  0  0  0  0  0  0
   25.9893  -20.6299   -8.6857 C   0  0  0  0  0  0  0  0  0  0  0  0
   25.8184  -20.9299  -10.1196 C   0  0  1  0  0  0  0  0  0  0  0  0
   24.3002  -20.9036  -10.3885 C   0  0  0  0  0  0  0  0  0  0  0  0
   26.5637  -20.1929  -11.1385 C   0  0  0  0  0  0  0  0  0  0  0  0
   26.3510  -20.3929  -12.5936 C   0  0  2  0  0  0  0  0  0  0  0  0
   27.2645  -19.4717  -13.3198 N   0  0  0  0  0  0  0  0  0  0  0  0
   24.9916  -20.3464  -13.0839 C   0  0  0  0  0  0  0  0  0  0  0  0
   24.3419  -19.2337  -13.0424 O   0  0  0  0  0  0  0  0  0  0  0  0
   24.2174  -21.4136  -13.6405 N   0  0  0  0  0  0  0  0  0  0  0  0
   24.5687  -22.7854  -13.7029 C   0  0  0  0  0  0  0  0  0  0  0  0
   23.2817  -23.5013  -14.1013 C   0  0  0  0  0  0  0  0  0  0  0  0
   22.6157  -22.4870  -15.0097 C   0  0  0  0  0  0  0  0  0  0  0  0
   22.8983  -21.2011  -14.2583 C   0  0  1  0  0  0  0  0  0  0  0  0
   21.8583  -21.0368  -13.2290 C   0  0  0  0  0  0  0  0  0  0  0  0
   20.6267  -20.5378  -13.5789 O   0  0  0  0  0  0  0  0  0  0  0  0
   22.0899  -21.3470  -12.0477 O   0  0  0  0  0  0  0  0  0  0  0  0
  2  3  1  0
  2  1  1  0
  3  4  1  0
  5  4  1  0
  5  1  1  0
  5  6  1  6
  6  7  2  0
  9  8  1  1
  9 10  1  0
 11  9  1  0
 12 11  1  1
 12 14  1  0
 13  6  1  0
 13 12  1  0
 14 15  2  0
 16 14  1  0
 16 17  1  0
 17 18  1  0
 19 18  1  0
 20 16  1  0
 20 19  1  0
 21 22  1  0
 20 21  1  1
 23 21  2  0
M  END
$$$$
