PLP.pdb
     RDKit          3D

 23 24  0  0  1  0  0  0  0  0999 V2000
   25.5939  -19.6506  -11.8470 N   0  0  0  0  0  0  0  0  0  0  0  0
   25.5203  -19.5898  -13.2976 C   0  0  0  0  0  0  0  0  0  0  0  0
   26.6609  -20.4340  -13.8181 C   0  0  0  0  0  0  0  0  0  0  0  0
   27.2602  -21.0549  -12.5693 C   0  0  0  0  0  0  0  0  0  0  0  0
   26.1093  -20.9634  -11.6085 C   0  0  1  0  0  0  0  0  0  0  0  0
   26.5170  -21.1807  -10.1991 C   0  0  0  0  0  0  0  0  0  0  0  0
   26.8403  -22.3418   -9.8379 O   0  0  0  0  0  0  0  0  0  0  0  0
   29.6109  -19.7929   -5.6064 C   0  0  0  0  0  0  0  0  0  0  0  0
   28.3053  -19.2286   -5.9969 C   0  0  1  0  0  0  0  0  0  0  0  0
   28.2965  -17.7713   -5.4925 C   0  0  0  0  0  0  0  0  0  0  0  0
   27.8203  -19.3307   -7.3721 C   0  0  0  0  0  0  0  0  0  0  0  0
   26.9358  -20.4291   -7.8342 C   0  0  2  0  0  0  0  0  0  0  0  0
   26.5599  -20.1502   -9.2453 N   0  0  0  0  0  0  0  0  0  0  0  0
   25.8034  -20.7713   -7.0028 C   0  0  0  0  0  0  0  0  0  0  0  0
   24.6785  -20.1692   -7.1871 O   0  0  0  0  0  0  0  0  0  0  0  0
   25.7438  -21.7347   -5.9462 N   0  0  0  0  0  0  0  0  0  0  0  0
   26.8275  -22.4446   -5.3713 C   0  0  0  0  0  0  0  0  0  0  0  0
   26.2517  -23.0856   -4.1122 C   0  0  0  0  0  0  0  0  0  0  0  0
   24.8257  -23.3888   -4.5272 C   0  0  0  0  0  0  0  0  0  0  0  0
   24.4808  -22.1335   -5.3037 C   0  0  1  0  0  0  0  0  0  0  0  0
   24.0365  -21.1105   -4.3424 C   0  0  0  0  0  0  0  0  0  0  0  0
   22.7758  -21.1868   -3.8009 O   0  0  0  0  0  0  0  0  0  0  0  0
   24.7957  -20.1807   -4.0197 O   0  0  0  0  0  0  0  0  0  0  0  0
  2  3  1  0
  2  1  1  0
  3  4  1  0
  5  4  1  0
  5  1  1  0
  5  6  1  1
  6  7  2  0
  9  8  1  6
  9 10  1  0
 11  9  1  0
 12 11  1  1
 12 14  1  0
 13  6  1  0
 13 12  1  0
 14 15  2  0
 16 14  1  0
 16 17  1  0
 17 18  1  0
 19 18  1  0
 20 16  1  0
 20 19  1  0
 21 22  1  0
 20 21  1  1
 23 21  2  0
M  END
$$$$
