PLP.pdb
     RDKit          3D

 23 24  0  0  1  0  0  0  0  0999 V2000
   27.4512  -19.4391  -12.1773 N   0  0  0  0  0  0  0  0  0  0  0  0
   27.7476  -19.4690  -13.6001 C   0  0  0  0  0  0  0  0  0  0  0  0
   28.4399  -20.7865  -13.8638 C   0  0  0  0  0  0  0  0  0  0  0  0
   28.3733  -21.5114  -12.5317 C   0  0  0  0  0  0  0  0  0  0  0  0
   27.2171  -20.8165  -11.8711 C   0  0  1  0  0  0  0  0  0  0  0  0
   27.1410  -21.0834  -10.4141 C   0  0  0  0  0  0  0  0  0  0  0  0
   26.7621  -22.2198  -10.0291 O   0  0  0  0  0  0  0  0  0  0  0  0
   29.3909  -20.6510   -5.1642 C   0  0  0  0  0  0  0  0  0  0  0  0
   28.4306  -19.7188   -5.7841 C   0  0  1  0  0  0  0  0  0  0  0  0
   28.7005  -18.3379   -5.1531 C   0  0  0  0  0  0  0  0  0  0  0  0
   28.2913  -19.6348   -7.2367 C   0  0  0  0  0  0  0  0  0  0  0  0
   27.2749  -20.4069   -7.9939 C   0  0  2  0  0  0  0  0  0  0  0  0
   27.4722  -20.1264   -9.4406 N   0  0  0  0  0  0  0  0  0  0  0  0
   25.8958  -20.2874   -7.5762 C   0  0  0  0  0  0  0  0  0  0  0  0
   25.2133  -19.2543   -7.9351 O   0  0  0  0  0  0  0  0  0  0  0  0
   25.1335  -21.1989   -6.7786 N   0  0  0  0  0  0  0  0  0  0  0  0
   25.5894  -22.3971   -6.1739 C   0  0  0  0  0  0  0  0  0  0  0  0
   24.4760  -22.7978   -5.2108 C   0  0  0  0  0  0  0  0  0  0  0  0
   23.2330  -22.3303   -5.9415 C   0  0  0  0  0  0  0  0  0  0  0  0
   23.7053  -20.9963   -6.4848 C   0  0  1  0  0  0  0  0  0  0  0  0
   23.5261  -19.9851   -5.4296 C   0  0  0  0  0  0  0  0  0  0  0  0
   22.2685  -19.5055   -5.1526 O   0  0  0  0  0  0  0  0  0  0  0  0
   24.5057  -19.5650   -4.7901 O   0  0  0  0  0  0  0  0  0  0  0  0
  2  3  1  0
  2  1  1  0
  3  4  1  0
  5  4  1  0
  5  1  1  0
  5  6  1  1
  6  7  2  0
  9  8  1  6
  9 10  1  0
 11  9  1  0
 12 11  1  1
 12 14  1  0
 13  6  1  0
 13 12  1  0
 14 15  2  0
 16 14  1  0
 16 17  1  0
 17 18  1  0
 19 18  1  0
 20 16  1  0
 20 19  1  0
 21 22  1  0
 20 21  1  1
 23 21  2  0
M  END
$$$$
