PLP.pdb
     RDKit          3D

 23 24  0  0  1  0  0  0  0  0999 V2000
   26.2021  -21.4098  -12.5363 N   0  0  0  0  0  0  0  0  0  0  0  0
   25.5057  -20.9086  -13.7098 C   0  0  0  0  0  0  0  0  0  0  0  0
   24.2754  -20.1924  -13.2019 C   0  0  0  0  0  0  0  0  0  0  0  0
   24.4275  -20.2232  -11.6918 C   0  0  0  0  0  0  0  0  0  0  0  0
   25.9091  -20.4211  -11.5450 C   0  0  1  0  0  0  0  0  0  0  0  0
   26.3019  -20.8361  -10.1762 C   0  0  0  0  0  0  0  0  0  0  0  0
   26.1900  -22.0486   -9.8592 O   0  0  0  0  0  0  0  0  0  0  0  0
   29.3187  -20.4287   -5.3061 C   0  0  0  0  0  0  0  0  0  0  0  0
   28.2136  -19.5394   -5.7102 C   0  0  1  0  0  0  0  0  0  0  0  0
   28.4999  -18.1713   -5.0589 C   0  0  0  0  0  0  0  0  0  0  0  0
   27.8296  -19.4033   -7.1140 C   0  0  0  0  0  0  0  0  0  0  0  0
   26.8737  -20.3226   -7.7799 C   0  0  2  0  0  0  0  0  0  0  0  0
   26.7939  -19.9387   -9.2140 N   0  0  0  0  0  0  0  0  0  0  0  0
   25.5760  -20.4977   -7.1668 C   0  0  0  0  0  0  0  0  0  0  0  0
   24.6364  -19.6528   -7.4223 O   0  0  0  0  0  0  0  0  0  0  0  0
   25.1569  -21.5293   -6.2678 N   0  0  0  0  0  0  0  0  0  0  0  0
   25.9445  -22.5890   -5.7521 C   0  0  0  0  0  0  0  0  0  0  0  0
   25.1039  -23.1915   -4.6304 C   0  0  0  0  0  0  0  0  0  0  0  0
   23.6924  -23.0149   -5.1540 C   0  0  0  0  0  0  0  0  0  0  0  0
   23.7812  -21.6252   -5.7529 C   0  0  1  0  0  0  0  0  0  0  0  0
   23.5566  -20.6487   -4.6739 C   0  0  0  0  0  0  0  0  0  0  0  0
   24.6293  -20.0114   -4.0982 O   0  0  0  0  0  0  0  0  0  0  0  0
   22.4033  -20.3996   -4.2829 O   0  0  0  0  0  0  0  0  0  0  0  0
  2  3  1  0
  2  1  1  0
  3  4  1  0
  5  4  1  0
  5  1  1  0
  5  6  1  1
  6  7  2  0
  9  8  1  6
  9 10  1  0
 11  9  1  0
 12 11  1  1
 12 14  1  0
 13  6  1  0
 13 12  1  0
 14 15  2  0
 16 14  1  0
 16 17  1  0
 17 18  1  0
 19 18  1  0
 20 16  1  0
 20 19  1  0
 21 22  1  0
 20 21  1  1
 23 21  2  0
M  END
$$$$
