PLP.pdb
     RDKit          3D

 23 24  0  0  1  0  0  0  0  0999 V2000
   31.4872  -21.2000   -9.8738 N   0  0  0  0  0  0  0  0  0  0  0  0
   32.8001  -21.7585  -10.1519 C   0  0  0  0  0  0  0  0  0  0  0  0
   32.9775  -22.9229   -9.2047 C   0  0  0  0  0  0  0  0  0  0  0  0
   31.6357  -23.0363   -8.5041 C   0  0  0  0  0  0  0  0  0  0  0  0
   30.7284  -22.3479   -9.4833 C   0  0  1  0  0  0  0  0  0  0  0  0
   29.4088  -22.0020   -8.9010 C   0  0  0  0  0  0  0  0  0  0  0  0
   28.5747  -22.9244   -8.7094 O   0  0  0  0  0  0  0  0  0  0  0  0
   28.7306  -18.2623   -4.8826 C   0  0  0  0  0  0  0  0  0  0  0  0
   28.5537  -19.4142   -5.7866 C   0  0  1  0  0  0  0  0  0  0  0  0
   28.0036  -20.5639   -4.9186 C   0  0  0  0  0  0  0  0  0  0  0  0
   27.8178  -19.2813   -7.0426 C   0  0  0  0  0  0  0  0  0  0  0  0
   27.6886  -20.3898   -8.0210 C   0  0  2  0  0  0  0  0  0  0  0  0
   29.0442  -20.6911   -8.5519 N   0  0  0  0  0  0  0  0  0  0  0  0
   26.6906  -20.2538   -9.0584 C   0  0  0  0  0  0  0  0  0  0  0  0
   26.9059  -19.4483  -10.0416 O   0  0  0  0  0  0  0  0  0  0  0  0
   25.4281  -20.9199   -9.1608 N   0  0  0  0  0  0  0  0  0  0  0  0
   24.8434  -21.7988   -8.2149 C   0  0  0  0  0  0  0  0  0  0  0  0
   23.3987  -21.9654   -8.6762 C   0  0  0  0  0  0  0  0  0  0  0  0
   23.5306  -21.8914  -10.1844 C   0  0  0  0  0  0  0  0  0  0  0  0
   24.5438  -20.7732  -10.3284 C   0  0  1  0  0  0  0  0  0  0  0  0
   23.8191  -19.4924  -10.2789 C   0  0  0  0  0  0  0  0  0  0  0  0
   23.1197  -19.0626  -11.3808 O   0  0  0  0  0  0  0  0  0  0  0  0
   23.8378  -18.8003   -9.2464 O   0  0  0  0  0  0  0  0  0  0  0  0
  2  3  1  0
  2  1  1  0
  3  4  1  0
  5  4  1  0
  5  1  1  0
  5  6  1  1
  6  7  2  0
  9  8  1  1
  9 10  1  0
 11  9  1  0
 12 11  1  6
 12 14  1  0
 13  6  1  0
 13 12  1  0
 14 15  2  0
 16 14  1  0
 16 17  1  0
 17 18  1  0
 19 18  1  0
 20 16  1  0
 20 19  1  0
 21 22  1  0
 20 21  1  1
 23 21  2  0
M  END
$$$$
