HWF.pdb
     RDKit          3D

 36 39  0  0  1  0  0  0  0  0999 V2000
   24.4519  -18.1242  -22.2859 N   0  0  0  0  0  0  0  0  0  0  0  0
   23.0803  -18.6723  -22.1450 C   0  0  1  0  0  0  0  0  0  0  0  0
   23.1846  -20.1218  -22.5412 C   0  0  0  0  0  0  0  0  0  0  0  0
   23.2923  -20.3275  -23.9908 C   0  0  0  0  0  0  0  0  0  0  0  0
   23.9580  -21.4144  -24.5347 C   0  0  0  0  0  0  0  0  0  0  0  0
   23.8964  -21.3468  -25.8757 N   0  0  0  0  0  0  0  0  0  0  0  0
   23.2071  -20.2415  -26.1599 C   0  0  0  0  0  0  0  0  0  0  0  0
   22.8344  -19.6131  -25.0258 N   0  0  0  0  0  0  0  0  0  0  0  0
   22.6562  -18.5049  -20.7209 C   0  0  0  0  0  0  0  0  0  0  0  0
   23.4494  -18.2534  -19.8098 O   0  0  0  0  0  0  0  0  0  0  0  0
   21.2710  -18.6311  -20.3207 N   0  0  0  0  0  0  0  0  0  0  0  0
   20.8555  -18.4524  -18.9661 C   0  0  1  0  0  0  0  0  0  0  0  0
   21.0889  -17.0719  -18.4757 C   0  0  0  0  0  0  0  0  0  0  0  0
   20.7173  -15.9888  -19.4124 C   0  0  0  0  0  0  0  0  0  0  0  0
   19.4027  -15.5577  -19.6551 C   0  0  0  0  0  0  0  0  0  0  0  0
   19.4274  -14.5472  -20.5344 N   0  0  0  0  0  0  0  0  0  0  0  0
   20.6979  -14.2694  -20.9033 C   0  0  0  0  0  0  0  0  0  0  0  0
   21.2410  -13.3386  -21.7763 C   0  0  0  0  0  0  0  0  0  0  0  0
   22.5999  -13.2732  -21.9823 C   0  0  0  0  0  0  0  0  0  0  0  0
   23.3800  -14.1689  -21.2847 C   0  0  0  0  0  0  0  0  0  0  0  0
   22.8379  -15.1023  -20.4089 C   0  0  0  0  0  0  0  0  0  0  0  0
   21.4906  -15.1673  -20.2039 C   0  0  0  0  0  0  0  0  0  0  0  0
   19.4494  -18.9039  -18.7425 C   0  0  0  0  0  0  0  0  0  0  0  0
   18.5554  -18.6509  -19.5852 O   0  0  0  0  0  0  0  0  0  0  0  0
   19.0730  -19.6296  -17.5809 N   0  0  0  0  0  0  0  0  0  0  0  0
   17.7274  -19.9718  -17.2455 C   0  0  1  0  0  0  0  0  0  0  0  0
   17.2802  -21.3378  -17.7934 C   0  0  0  0  0  0  0  0  0  0  0  0
   15.8997  -21.6351  -17.3910 C   0  0  0  0  0  0  0  0  0  0  0  0
   14.8372  -21.0945  -18.0511 C   0  0  0  0  0  0  0  0  0  0  0  0
   13.5144  -21.3582  -17.6659 C   0  0  0  0  0  0  0  0  0  0  0  0
   13.2766  -22.1861  -16.5924 C   0  0  0  0  0  0  0  0  0  0  0  0
   14.3187  -22.7464  -15.9075 C   0  0  0  0  0  0  0  0  0  0  0  0
   15.6037  -22.4663  -16.3116 C   0  0  0  0  0  0  0  0  0  0  0  0
   17.3849  -19.7812  -15.8414 C   0  0  0  0  0  0  0  0  0  0  0  0
   18.2651  -19.8765  -14.9271 O   0  0  0  0  0  0  0  0  0  0  0  0
   16.0952  -19.4891  -15.4287 O   0  0  0  0  0  0  0  0  0  0  0  0
  2  1  1  1
  3  2  1  0
  4  5  2  0
  4  3  1  0
  6  5  1  0
  7  8  2  0
  7  6  1  0
  8  4  1  0
  9  2  1  0
 10  9  2  0
 11  9  1  0
 12 13  1  6
 12 11  1  0
 13 14  1  0
 14 22  1  0
 14 15  2  0
 15 16  1  0
 17 16  1  0
 17 18  2  0
 19 18  1  0
 20 19  2  0
 21 20  1  0
 21 22  2  0
 22 17  1  0
 23 12  1  0
 24 23  2  0
 25 23  1  0
 26 25  1  0
 26 27  1  1
 27 28  1  0
 28 33  1  0
 29 28  2  0
 29 30  1  0
 30 31  2  0
 31 32  1  0
 33 32  2  0
 34 36  1  0
 34 26  1  0
 35 34  2  0
M  END
$$$$
