HWF.pdb
     RDKit          3D

 36 39  0  0  1  0  0  0  0  0999 V2000
   28.2344  -21.6638  -15.6187 N   0  0  0  0  0  0  0  0  0  0  0  0
   27.9742  -20.4998  -14.7360 C   0  0  1  0  0  0  0  0  0  0  0  0
   27.1252  -19.5598  -15.5511 C   0  0  0  0  0  0  0  0  0  0  0  0
   27.8571  -18.9049  -16.6422 C   0  0  0  0  0  0  0  0  0  0  0  0
   28.8794  -17.9997  -16.4062 C   0  0  0  0  0  0  0  0  0  0  0  0
   29.3660  -17.5636  -17.5807 N   0  0  0  0  0  0  0  0  0  0  0  0
   28.6615  -18.1843  -18.5273 C   0  0  0  0  0  0  0  0  0  0  0  0
   27.7424  -19.0011  -17.9722 N   0  0  0  0  0  0  0  0  0  0  0  0
   27.2620  -20.9909  -13.5163 C   0  0  0  0  0  0  0  0  0  0  0  0
   26.2301  -21.6652  -13.5678 O   0  0  0  0  0  0  0  0  0  0  0  0
   27.7468  -20.6988  -12.1842 N   0  0  0  0  0  0  0  0  0  0  0  0
   27.0295  -21.0942  -11.0143 C   0  0  1  0  0  0  0  0  0  0  0  0
   27.8325  -20.9456   -9.7758 C   0  0  0  0  0  0  0  0  0  0  0  0
   27.0579  -20.8437   -8.5195 C   0  0  0  0  0  0  0  0  0  0  0  0
   25.7465  -21.3168   -8.3483 C   0  0  0  0  0  0  0  0  0  0  0  0
   25.3582  -21.0871   -7.0867 N   0  0  0  0  0  0  0  0  0  0  0  0
   26.3439  -20.4787   -6.3897 C   0  0  0  0  0  0  0  0  0  0  0  0
   26.4315  -20.0340   -5.0790 C   0  0  0  0  0  0  0  0  0  0  0  0
   27.5743  -19.4234   -4.6158 C   0  0  0  0  0  0  0  0  0  0  0  0
   28.6112  -19.2800   -5.5113 C   0  0  0  0  0  0  0  0  0  0  0  0
   28.5256  -19.7253   -6.8252 C   0  0  0  0  0  0  0  0  0  0  0  0
   27.3929  -20.3313   -7.2848 C   0  0  0  0  0  0  0  0  0  0  0  0
   25.6999  -20.4214  -10.9128 C   0  0  0  0  0  0  0  0  0  0  0  0
   25.6226  -19.1893  -10.6907 O   0  0  0  0  0  0  0  0  0  0  0  0
   24.4844  -21.1411  -11.0622 N   0  0  0  0  0  0  0  0  0  0  0  0
   23.1922  -20.5358  -11.1240 C   0  0  1  0  0  0  0  0  0  0  0  0
   22.5727  -20.5392  -12.5321 C   0  0  0  0  0  0  0  0  0  0  0  0
   22.9206  -19.3114  -13.2584 C   0  0  0  0  0  0  0  0  0  0  0  0
   22.0764  -18.2421  -13.2876 C   0  0  0  0  0  0  0  0  0  0  0  0
   22.3906  -17.0700  -13.9914 C   0  0  0  0  0  0  0  0  0  0  0  0
   23.5839  -16.9917  -14.6729 C   0  0  0  0  0  0  0  0  0  0  0  0
   24.4550  -18.0452  -14.6647 C   0  0  0  0  0  0  0  0  0  0  0  0
   24.1154  -19.1799  -13.9647 C   0  0  0  0  0  0  0  0  0  0  0  0
   22.2636  -20.9810  -10.0921 C   0  0  0  0  0  0  0  0  0  0  0  0
   21.2495  -20.2831   -9.7693 O   0  0  0  0  0  0  0  0  0  0  0  0
   22.4323  -22.1762   -9.4124 O   0  0  0  0  0  0  0  0  0  0  0  0
  2  1  1  6
  3  2  1  0
  4  5  2  0
  4  3  1  0
  6  5  1  0
  7  8  2  0
  7  6  1  0
  8  4  1  0
  9  2  1  0
 10  9  2  0
 11  9  1  0
 12 13  1  1
 12 11  1  0
 13 14  1  0
 14 22  1  0
 14 15  2  0
 15 16  1  0
 17 16  1  0
 17 18  2  0
 19 18  1  0
 20 19  2  0
 21 20  1  0
 21 22  2  0
 22 17  1  0
 23 12  1  0
 24 23  2  0
 25 23  1  0
 26 25  1  0
 26 27  1  6
 27 28  1  0
 28 33  1  0
 29 28  2  0
 29 30  1  0
 30 31  2  0
 31 32  1  0
 33 32  2  0
 34 36  1  0
 34 26  1  0
 35 34  2  0
M  END
$$$$
