HWF.pdb
     RDKit          3D

 36 39  0  0  1  0  0  0  0  0999 V2000
   25.2907  -21.4219  -13.7692 N   0  0  0  0  0  0  0  0  0  0  0  0
   24.7689  -20.4885  -12.7405 C   0  0  1  0  0  0  0  0  0  0  0  0
   23.2687  -20.5867  -12.8334 C   0  0  0  0  0  0  0  0  0  0  0  0
   22.7170  -19.9972  -14.0595 C   0  0  0  0  0  0  0  0  0  0  0  0
   22.7263  -18.6309  -14.2906 C   0  0  0  0  0  0  0  0  0  0  0  0
   22.1618  -18.3788  -15.4840 N   0  0  0  0  0  0  0  0  0  0  0  0
   21.8090  -19.5630  -15.9848 C   0  0  0  0  0  0  0  0  0  0  0  0
   22.1397  -20.5539  -15.1310 N   0  0  0  0  0  0  0  0  0  0  0  0
   25.2826  -20.9306  -11.4076 C   0  0  0  0  0  0  0  0  0  0  0  0
   24.9533  -21.9970  -10.8817 O   0  0  0  0  0  0  0  0  0  0  0  0
   26.2084  -20.1217  -10.6438 N   0  0  0  0  0  0  0  0  0  0  0  0
   26.6166  -20.4817   -9.3234 C   0  0  1  0  0  0  0  0  0  0  0  0
   27.8550  -19.7837   -8.8993 C   0  0  0  0  0  0  0  0  0  0  0  0
   28.3854  -20.1706   -7.5736 C   0  0  0  0  0  0  0  0  0  0  0  0
   28.8367  -21.4576   -7.2377 C   0  0  0  0  0  0  0  0  0  0  0  0
   29.2727  -21.4531   -5.9708 N   0  0  0  0  0  0  0  0  0  0  0  0
   29.1391  -20.2228   -5.4269 C   0  0  0  0  0  0  0  0  0  0  0  0
   29.4312  -19.7141   -4.1702 C   0  0  0  0  0  0  0  0  0  0  0  0
   29.1812  -18.3953   -3.8671 C   0  0  0  0  0  0  0  0  0  0  0  0
   28.6334  -17.6194   -4.8649 C   0  0  0  0  0  0  0  0  0  0  0  0
   28.3402  -18.1272   -6.1252 C   0  0  0  0  0  0  0  0  0  0  0  0
   28.5884  -19.4346   -6.4263 C   0  0  0  0  0  0  0  0  0  0  0  0
   25.5116  -20.3310   -8.3299 C   0  0  0  0  0  0  0  0  0  0  0  0
   24.6993  -19.3792   -8.4173 O   0  0  0  0  0  0  0  0  0  0  0  0
   25.3381  -21.2485   -7.2596 N   0  0  0  0  0  0  0  0  0  0  0  0
   24.3096  -21.1508   -6.2733 C   0  0  1  0  0  0  0  0  0  0  0  0
   23.6412  -22.4954   -5.9393 C   0  0  0  0  0  0  0  0  0  0  0  0
   24.5807  -23.3881   -5.2489 C   0  0  0  0  0  0  0  0  0  0  0  0
   25.0653  -24.5099   -5.8519 C   0  0  0  0  0  0  0  0  0  0  0  0
   25.9505  -25.3788   -5.1967 C   0  0  0  0  0  0  0  0  0  0  0  0
   26.3448  -25.0952   -3.9088 C   0  0  0  0  0  0  0  0  0  0  0  0
   25.8788  -23.9779   -3.2735 C   0  0  0  0  0  0  0  0  0  0  0  0
   25.0115  -23.1475   -3.9450 C   0  0  0  0  0  0  0  0  0  0  0  0
   24.6770  -20.3869   -5.0872 C   0  0  0  0  0  0  0  0  0  0  0  0
   25.8957  -20.1677   -4.7930 O   0  0  0  0  0  0  0  0  0  0  0  0
   23.7294  -19.8629   -4.2233 O   0  0  0  0  0  0  0  0  0  0  0  0
  2  1  1  6
  3  2  1  0
  4  5  2  0
  4  3  1  0
  6  5  1  0
  7  8  2  0
  7  6  1  0
  8  4  1  0
  9  2  1  0
 10  9  2  0
 11  9  1  0
 12 13  1  1
 12 11  1  0
 13 14  1  0
 14 22  1  0
 14 15  2  0
 15 16  1  0
 17 16  1  0
 17 18  2  0
 19 18  1  0
 20 19  2  0
 21 20  1  0
 21 22  2  0
 22 17  1  0
 23 12  1  0
 24 23  2  0
 25 23  1  0
 26 25  1  0
 26 27  1  1
 27 28  1  0
 28 33  1  0
 29 28  2  0
 29 30  1  0
 30 31  2  0
 31 32  1  0
 33 32  2  0
 34 36  1  0
 34 26  1  0
 35 34  2  0
M  END
$$$$
