HWF.pdb
     RDKit          3D

 36 39  0  0  1  0  0  0  0  0999 V2000
   28.2768  -21.1972  -16.9449 N   0  0  0  0  0  0  0  0  0  0  0  0
   28.0378  -20.2233  -15.8513 C   0  0  1  0  0  0  0  0  0  0  0  0
   27.2121  -19.1238  -16.4663 C   0  0  0  0  0  0  0  0  0  0  0  0
   27.9420  -18.3287  -17.4614 C   0  0  0  0  0  0  0  0  0  0  0  0
   28.9145  -17.4092  -17.1025 C   0  0  0  0  0  0  0  0  0  0  0  0
   29.4118  -16.8336  -18.2106 N   0  0  0  0  0  0  0  0  0  0  0  0
   28.7625  -17.3834  -19.2371 C   0  0  0  0  0  0  0  0  0  0  0  0
   27.8676  -18.2922  -18.7973 N   0  0  0  0  0  0  0  0  0  0  0  0
   27.3106  -20.9282  -14.7512 C   0  0  0  0  0  0  0  0  0  0  0  0
   26.3430  -21.6669  -14.9522 O   0  0  0  0  0  0  0  0  0  0  0  0
   27.7030  -20.7825  -13.3657 N   0  0  0  0  0  0  0  0  0  0  0  0
   27.0886  -21.5389  -12.3217 C   0  0  1  0  0  0  0  0  0  0  0  0
   27.9129  -21.5836  -11.0891 C   0  0  0  0  0  0  0  0  0  0  0  0
   27.3590  -20.8621   -9.9225 C   0  0  0  0  0  0  0  0  0  0  0  0
   26.0992  -20.2418   -9.8906 C   0  0  0  0  0  0  0  0  0  0  0  0
   25.9039  -19.7068   -8.6778 N   0  0  0  0  0  0  0  0  0  0  0  0
   26.9725  -19.9330   -7.8813 C   0  0  0  0  0  0  0  0  0  0  0  0
   27.2574  -19.5843   -6.5695 C   0  0  0  0  0  0  0  0  0  0  0  0
   28.4533  -19.9394   -5.9887 C   0  0  0  0  0  0  0  0  0  0  0  0
   29.3388  -20.6495   -6.7693 C   0  0  0  0  0  0  0  0  0  0  0  0
   29.0551  -21.0002   -8.0840 C   0  0  0  0  0  0  0  0  0  0  0  0
   27.8693  -20.6489   -8.6602 C   0  0  0  0  0  0  0  0  0  0  0  0
   25.6881  -21.0954  -12.0520 C   0  0  0  0  0  0  0  0  0  0  0  0
   25.4399  -19.8984  -11.7710 O   0  0  0  0  0  0  0  0  0  0  0  0
   24.5944  -22.0002  -12.1027 N   0  0  0  0  0  0  0  0  0  0  0  0
   23.2221  -21.6100  -12.0353 C   0  0  1  0  0  0  0  0  0  0  0  0
   22.8770  -20.7687  -10.7945 C   0  0  0  0  0  0  0  0  0  0  0  0
   21.4504  -20.4216  -10.7794 C   0  0  0  0  0  0  0  0  0  0  0  0
   20.9943  -19.2737  -11.3549 C   0  0  0  0  0  0  0  0  0  0  0  0
   19.6362  -18.9235  -11.3326 C   0  0  0  0  0  0  0  0  0  0  0  0
   18.7340  -19.7591  -10.7143 C   0  0  0  0  0  0  0  0  0  0  0  0
   19.1564  -20.9192  -10.1272 C   0  0  0  0  0  0  0  0  0  0  0  0
   20.4956  -21.2321  -10.1669 C   0  0  0  0  0  0  0  0  0  0  0  0
   22.6896  -21.0482  -13.2706 C   0  0  0  0  0  0  0  0  0  0  0  0
   23.1756  -19.9868  -13.7777 O   0  0  0  0  0  0  0  0  0  0  0  0
   21.6357  -21.6324  -13.9538 O   0  0  0  0  0  0  0  0  0  0  0  0
  2  1  1  6
  3  2  1  0
  4  5  2  0
  4  3  1  0
  6  5  1  0
  7  8  2  0
  7  6  1  0
  8  4  1  0
  9  2  1  0
 10  9  2  0
 11  9  1  0
 12 13  1  1
 12 11  1  0
 13 14  1  0
 14 22  1  0
 14 15  2  0
 15 16  1  0
 17 16  1  0
 17 18  2  0
 19 18  1  0
 20 19  2  0
 21 20  1  0
 21 22  2  0
 22 17  1  0
 23 12  1  0
 24 23  2  0
 25 23  1  0
 26 25  1  0
 26 27  1  1
 27 28  1  0
 28 33  1  0
 29 28  2  0
 29 30  1  0
 30 31  2  0
 31 32  1  0
 33 32  2  0
 34 36  1  0
 34 26  1  0
 35 34  2  0
M  END
$$$$
