HWF.pdb
     RDKit          3D

 36 39  0  0  1  0  0  0  0  0999 V2000
   18.0049   -1.1881  -17.7392 N   0  0  0  0  0  0  0  0  0  0  0  0
   18.4330   -2.5834  -18.0069 C   0  0  1  0  0  0  0  0  0  0  0  0
   18.9736   -2.5746  -19.4128 C   0  0  0  0  0  0  0  0  0  0  0  0
   17.9300   -2.4943  -20.4421 C   0  0  0  0  0  0  0  0  0  0  0  0
   16.7479   -3.2119  -20.3524 C   0  0  0  0  0  0  0  0  0  0  0  0
   15.9843   -2.9452  -21.4258 N   0  0  0  0  0  0  0  0  0  0  0  0
   16.6765   -2.0801  -22.1675 C   0  0  0  0  0  0  0  0  0  0  0  0
   17.8590   -1.7977  -21.5828 N   0  0  0  0  0  0  0  0  0  0  0  0
   19.4777   -2.9505  -17.0020 C   0  0  0  0  0  0  0  0  0  0  0  0
   20.0487   -2.1176  -16.2930 O   0  0  0  0  0  0  0  0  0  0  0  0
   19.8880   -4.3236  -16.7996 N   0  0  0  0  0  0  0  0  0  0  0  0
   20.4819   -4.7635  -15.5776 C   0  0  1  0  0  0  0  0  0  0  0  0
   19.7022   -4.3523  -14.3844 C   0  0  0  0  0  0  0  0  0  0  0  0
   20.1560   -4.9214  -13.0964 C   0  0  0  0  0  0  0  0  0  0  0  0
   21.3237   -5.6831  -12.9261 C   0  0  0  0  0  0  0  0  0  0  0  0
   21.4462   -6.0159  -11.6341 N   0  0  0  0  0  0  0  0  0  0  0  0
   20.4157   -5.5168  -10.9153 C   0  0  0  0  0  0  0  0  0  0  0  0
   20.0865   -5.5885   -9.5700 C   0  0  0  0  0  0  0  0  0  0  0  0
   18.9469   -4.9854   -9.0893 C   0  0  0  0  0  0  0  0  0  0  0  0
   18.1626   -4.3166  -10.0032 C   0  0  0  0  0  0  0  0  0  0  0  0
   18.4909   -4.2433  -11.3518 C   0  0  0  0  0  0  0  0  0  0  0  0
   19.6211   -4.8406  -11.8289 C   0  0  0  0  0  0  0  0  0  0  0  0
   20.7747   -6.2281  -15.5871 C   0  0  0  0  0  0  0  0  0  0  0  0
   19.8912   -7.0541  -15.9194 O   0  0  0  0  0  0  0  0  0  0  0  0
   22.0501   -6.7380  -15.2252 N   0  0  0  0  0  0  0  0  0  0  0  0
   22.3819   -8.1268  -15.1892 C   0  0  1  0  0  0  0  0  0  0  0  0
   23.8720   -8.4148  -15.4405 C   0  0  0  0  0  0  0  0  0  0  0  0
   24.1106   -9.8582  -15.5667 C   0  0  0  0  0  0  0  0  0  0  0  0
   24.6133  -10.5865  -14.5306 C   0  0  0  0  0  0  0  0  0  0  0  0
   24.8607  -11.9626  -14.6445 C   0  0  0  0  0  0  0  0  0  0  0  0
   24.5893  -12.6007  -15.8335 C   0  0  0  0  0  0  0  0  0  0  0  0
   24.0837  -11.9012  -16.8936 C   0  0  0  0  0  0  0  0  0  0  0  0
   23.8534  -10.5526  -16.7479 C   0  0  0  0  0  0  0  0  0  0  0  0
   21.8479   -8.8487  -14.0408 C   0  0  0  0  0  0  0  0  0  0  0  0
   22.0876   -8.4676  -12.8503 O   0  0  0  0  0  0  0  0  0  0  0  0
   21.0581   -9.9781  -14.1803 O   0  0  0  0  0  0  0  0  0  0  0  0
  2  1  1  1
  3  2  1  0
  4  5  2  0
  4  3  1  0
  6  5  1  0
  7  8  2  0
  7  6  1  0
  8  4  1  0
  9  2  1  0
 10  9  2  0
 11  9  1  0
 12 13  1  1
 12 11  1  0
 13 14  1  0
 14 22  1  0
 14 15  2  0
 15 16  1  0
 17 16  1  0
 17 18  2  0
 19 18  1  0
 20 19  2  0
 21 20  1  0
 21 22  2  0
 22 17  1  0
 23 12  1  0
 24 23  2  0
 25 23  1  0
 26 25  1  0
 26 27  1  1
 27 28  1  0
 28 33  1  0
 29 28  2  0
 29 30  1  0
 30 31  2  0
 31 32  1  0
 33 32  2  0
 34 36  1  0
 34 26  1  0
 35 34  2  0
M  END
$$$$
