HWF.pdb
     RDKit          3D

 36 39  0  0  1  0  0  0  0  0999 V2000
   14.7334  -19.9470    2.6885 N   0  0  0  0  0  0  0  0  0  0  0  0
   14.9600  -18.6623    3.3955 C   0  0  1  0  0  0  0  0  0  0  0  0
   13.9457  -18.6325    4.5087 C   0  0  0  0  0  0  0  0  0  0  0  0
   12.5645  -18.4672    4.0396 C   0  0  0  0  0  0  0  0  0  0  0  0
   11.5653  -19.3753    4.3515 C   0  0  0  0  0  0  0  0  0  0  0  0
   10.4104  -18.9734    3.7937 N   0  0  0  0  0  0  0  0  0  0  0  0
   10.6853  -17.8394    3.1486 C   0  0  0  0  0  0  0  0  0  0  0  0
   11.9885  -17.5204    3.2892 N   0  0  0  0  0  0  0  0  0  0  0  0
   16.3640  -18.6556    3.9100 C   0  0  0  0  0  0  0  0  0  0  0  0
   16.9380  -19.6732    4.3068 O   0  0  0  0  0  0  0  0  0  0  0  0
   17.1435  -17.4378    3.9755 N   0  0  0  0  0  0  0  0  0  0  0  0
   18.4600  -17.4109    4.5283 C   0  0  1  0  0  0  0  0  0  0  0  0
   19.3200  -16.3767    3.9025 C   0  0  0  0  0  0  0  0  0  0  0  0
   19.0767  -14.9871    4.3480 C   0  0  0  0  0  0  0  0  0  0  0  0
   18.0268  -14.1735    3.8914 C   0  0  0  0  0  0  0  0  0  0  0  0
   18.0849  -12.9899    4.5167 N   0  0  0  0  0  0  0  0  0  0  0  0
   19.1262  -12.9585    5.3781 C   0  0  0  0  0  0  0  0  0  0  0  0
   19.6073  -11.9804    6.2357 C   0  0  0  0  0  0  0  0  0  0  0  0
   20.7187  -12.2089    7.0141 C   0  0  0  0  0  0  0  0  0  0  0  0
   21.3185  -13.4435    6.8973 C   0  0  0  0  0  0  0  0  0  0  0  0
   20.8377  -14.4253    6.0388 C   0  0  0  0  0  0  0  0  0  0  0  0
   19.7355  -14.1994    5.2671 C   0  0  0  0  0  0  0  0  0  0  0  0
   18.4448  -17.3106    6.0184 C   0  0  0  0  0  0  0  0  0  0  0  0
   17.4990  -16.7379    6.6106 O   0  0  0  0  0  0  0  0  0  0  0  0
   19.4879  -17.8537    6.8150 N   0  0  0  0  0  0  0  0  0  0  0  0
   19.5033  -17.8367    8.2431 C   0  0  1  0  0  0  0  0  0  0  0  0
   18.6292  -18.9274    8.8855 C   0  0  0  0  0  0  0  0  0  0  0  0
   19.2042  -20.2591    8.6571 C   0  0  0  0  0  0  0  0  0  0  0  0
   18.6952  -21.0980    7.7116 C   0  0  0  0  0  0  0  0  0  0  0  0
   19.2256  -22.3785    7.4955 C   0  0  0  0  0  0  0  0  0  0  0  0
   20.2907  -22.8048    8.2560 C   0  0  0  0  0  0  0  0  0  0  0  0
   20.8270  -21.9891    9.2130 C   0  0  0  0  0  0  0  0  0  0  0  0
   20.2822  -20.7395    9.3993 C   0  0  0  0  0  0  0  0  0  0  0  0
   20.8329  -17.7504    8.8346 C   0  0  0  0  0  0  0  0  0  0  0  0
   21.8793  -17.9715    8.1446 O   0  0  0  0  0  0  0  0  0  0  0  0
   21.0290  -17.4265   10.1671 O   0  0  0  0  0  0  0  0  0  0  0  0
  2  1  1  1
  3  2  1  0
  4  5  2  0
  4  3  1  0
  6  5  1  0
  7  8  2  0
  7  6  1  0
  8  4  1  0
  9  2  1  0
 10  9  2  0
 11  9  1  0
 12 13  1  6
 12 11  1  0
 13 14  1  0
 14 22  1  0
 14 15  2  0
 15 16  1  0
 17 16  1  0
 17 18  2  0
 19 18  1  0
 20 19  2  0
 21 20  1  0
 21 22  2  0
 22 17  1  0
 23 12  1  0
 24 23  2  0
 25 23  1  0
 26 25  1  0
 26 27  1  1
 27 28  1  0
 28 33  1  0
 29 28  2  0
 29 30  1  0
 30 31  2  0
 31 32  1  0
 33 32  2  0
 34 36  1  0
 34 26  1  0
 35 34  2  0
M  END
$$$$
