HWF.pdb
     RDKit          3D

 36 39  0  0  1  0  0  0  0  0999 V2000
   28.1287  -21.7176  -15.6650 N   0  0  0  0  0  0  0  0  0  0  0  0
   27.9424  -20.5698  -14.7434 C   0  0  1  0  0  0  0  0  0  0  0  0
   27.0600  -19.5993  -15.4840 C   0  0  0  0  0  0  0  0  0  0  0  0
   27.7487  -18.8916  -16.5703 C   0  0  0  0  0  0  0  0  0  0  0  0
   28.9027  -18.1549  -16.3563 C   0  0  0  0  0  0  0  0  0  0  0  0
   29.3113  -17.6219  -17.5205 N   0  0  0  0  0  0  0  0  0  0  0  0
   28.4304  -18.0188  -18.4393 C   0  0  0  0  0  0  0  0  0  0  0  0
   27.4768  -18.7897  -17.8768 N   0  0  0  0  0  0  0  0  0  0  0  0
   27.2991  -21.0771  -13.4924 C   0  0  0  0  0  0  0  0  0  0  0  0
   26.2653  -21.7505  -13.4952 O   0  0  0  0  0  0  0  0  0  0  0  0
   27.8579  -20.8031  -12.1857 N   0  0  0  0  0  0  0  0  0  0  0  0
   27.1320  -21.0610  -10.9832 C   0  0  1  0  0  0  0  0  0  0  0  0
   27.9065  -20.7184   -9.7652 C   0  0  0  0  0  0  0  0  0  0  0  0
   27.1345  -20.6881   -8.5036 C   0  0  0  0  0  0  0  0  0  0  0  0
   25.8512  -21.2346   -8.3383 C   0  0  0  0  0  0  0  0  0  0  0  0
   25.4581  -21.0563   -7.0699 N   0  0  0  0  0  0  0  0  0  0  0  0
   26.4137  -20.4128   -6.3626 C   0  0  0  0  0  0  0  0  0  0  0  0
   26.4846  -19.9955   -5.0419 C   0  0  0  0  0  0  0  0  0  0  0  0
   27.5957  -19.3360   -4.5688 C   0  0  0  0  0  0  0  0  0  0  0  0
   28.6186  -19.1160   -5.4649 C   0  0  0  0  0  0  0  0  0  0  0  0
   28.5497  -19.5336   -6.7889 C   0  0  0  0  0  0  0  0  0  0  0  0
   27.4484  -20.1881   -7.2583 C   0  0  0  0  0  0  0  0  0  0  0  0
   25.7797  -20.4269  -10.9928 C   0  0  0  0  0  0  0  0  0  0  0  0
   25.6595  -19.1783  -10.9909 O   0  0  0  0  0  0  0  0  0  0  0  0
   24.5901  -21.2029  -11.0048 N   0  0  0  0  0  0  0  0  0  0  0  0
   23.2732  -20.6575  -11.0968 C   0  0  1  0  0  0  0  0  0  0  0  0
   22.6643  -20.7420  -12.5069 C   0  0  0  0  0  0  0  0  0  0  0  0
   22.9200  -19.5082  -13.2608 C   0  0  0  0  0  0  0  0  0  0  0  0
   23.9771  -19.4057  -14.1146 C   0  0  0  0  0  0  0  0  0  0  0  0
   24.2409  -18.2270  -14.8279 C   0  0  0  0  0  0  0  0  0  0  0  0
   23.4118  -17.1403  -14.6656 C   0  0  0  0  0  0  0  0  0  0  0  0
   22.3415  -17.2081  -13.8178 C   0  0  0  0  0  0  0  0  0  0  0  0
   22.1120  -18.3792  -13.1332 C   0  0  0  0  0  0  0  0  0  0  0  0
   22.3578  -21.1028  -10.0533 C   0  0  0  0  0  0  0  0  0  0  0  0
   22.5356  -22.2060   -9.4443 O   0  0  0  0  0  0  0  0  0  0  0  0
   21.2546  -20.3573   -9.6710 O   0  0  0  0  0  0  0  0  0  0  0  0
  2  1  1  6
  3  2  1  0
  4  5  2  0
  4  3  1  0
  6  5  1  0
  7  8  2  0
  7  6  1  0
  8  4  1  0
  9  2  1  0
 10  9  2  0
 11  9  1  0
 12 13  1  1
 12 11  1  0
 13 14  1  0
 14 22  1  0
 14 15  2  0
 15 16  1  0
 17 16  1  0
 17 18  2  0
 19 18  1  0
 20 19  2  0
 21 20  1  0
 21 22  2  0
 22 17  1  0
 23 12  1  0
 24 23  2  0
 25 23  1  0
 26 25  1  0
 26 27  1  6
 27 28  1  0
 28 33  1  0
 29 28  2  0
 29 30  1  0
 30 31  2  0
 31 32  1  0
 33 32  2  0
 34 36  1  0
 34 26  1  0
 35 34  2  0
M  END
$$$$
