HWF.pdb
     RDKit          3D

 36 39  0  0  1  0  0  0  0  0999 V2000
   28.0137  -19.7704  -19.2443 N   0  0  0  0  0  0  0  0  0  0  0  0
   27.1169  -20.6829  -18.4929 C   0  0  1  0  0  0  0  0  0  0  0  0
   27.7909  -22.0295  -18.5311 C   0  0  0  0  0  0  0  0  0  0  0  0
   27.7173  -22.6853  -19.8424 C   0  0  0  0  0  0  0  0  0  0  0  0
   26.7984  -23.6855  -20.1171 C   0  0  0  0  0  0  0  0  0  0  0  0
   26.9576  -24.0982  -21.3863 N   0  0  0  0  0  0  0  0  0  0  0  0
   27.9543  -23.3701  -21.8905 C   0  0  0  0  0  0  0  0  0  0  0  0
   28.4247  -22.5088  -20.9648 N   0  0  0  0  0  0  0  0  0  0  0  0
   26.9810  -20.1584  -17.0991 C   0  0  0  0  0  0  0  0  0  0  0  0
   27.9434  -20.0095  -16.3416 O   0  0  0  0  0  0  0  0  0  0  0  0
   25.6943  -19.7906  -16.5478 N   0  0  0  0  0  0  0  0  0  0  0  0
   25.5571  -19.2840  -15.2196 C   0  0  1  0  0  0  0  0  0  0  0  0
   24.8158  -17.9999  -15.1730 C   0  0  0  0  0  0  0  0  0  0  0  0
   25.6418  -16.7793  -15.3013 C   0  0  0  0  0  0  0  0  0  0  0  0
   25.4878  -15.6238  -14.5177 C   0  0  0  0  0  0  0  0  0  0  0  0
   26.4124  -14.7232  -14.8771 N   0  0  0  0  0  0  0  0  0  0  0  0
   27.1895  -15.2108  -15.8700 C   0  0  0  0  0  0  0  0  0  0  0  0
   28.2564  -14.6764  -16.5769 C   0  0  0  0  0  0  0  0  0  0  0  0
   28.8780  -15.3989  -17.5694 C   0  0  0  0  0  0  0  0  0  0  0  0
   28.3904  -16.6628  -17.8190 C   0  0  0  0  0  0  0  0  0  0  0  0
   27.3215  -17.2004  -17.1115 C   0  0  0  0  0  0  0  0  0  0  0  0
   26.7052  -16.4846  -16.1269 C   0  0  0  0  0  0  0  0  0  0  0  0
   24.9909  -20.3005  -14.2832 C   0  0  0  0  0  0  0  0  0  0  0  0
   23.9216  -20.8962  -14.5573 O   0  0  0  0  0  0  0  0  0  0  0  0
   25.6330  -20.6297  -13.0597 N   0  0  0  0  0  0  0  0  0  0  0  0
   25.1119  -21.5482  -12.0980 C   0  0  1  0  0  0  0  0  0  0  0  0
   26.1711  -22.0953  -11.1258 C   0  0  0  0  0  0  0  0  0  0  0  0
   26.3431  -21.1936   -9.9797 C   0  0  0  0  0  0  0  0  0  0  0  0
   25.8762  -21.5231   -8.7427 C   0  0  0  0  0  0  0  0  0  0  0  0
   26.0202  -20.6631   -7.6439 C   0  0  0  0  0  0  0  0  0  0  0  0
   26.6506  -19.4513   -7.8137 C   0  0  0  0  0  0  0  0  0  0  0  0
   27.1320  -19.0886   -9.0407 C   0  0  0  0  0  0  0  0  0  0  0  0
   26.9734  -19.9557  -10.0971 C   0  0  0  0  0  0  0  0  0  0  0  0
   23.8990  -21.0992  -11.4253 C   0  0  0  0  0  0  0  0  0  0  0  0
   23.6860  -19.8648  -11.2000 O   0  0  0  0  0  0  0  0  0  0  0  0
   22.9211  -21.9824  -10.9981 O   0  0  0  0  0  0  0  0  0  0  0  0
  2  1  1  6
  3  2  1  0
  4  5  2  0
  4  3  1  0
  6  5  1  0
  7  8  2  0
  7  6  1  0
  8  4  1  0
  9  2  1  0
 10  9  2  0
 11  9  1  0
 12 13  1  6
 12 11  1  0
 13 14  1  0
 14 22  1  0
 14 15  2  0
 15 16  1  0
 17 16  1  0
 17 18  2  0
 19 18  1  0
 20 19  2  0
 21 20  1  0
 21 22  2  0
 22 17  1  0
 23 12  1  0
 24 23  2  0
 25 23  1  0
 26 25  1  0
 26 27  1  1
 27 28  1  0
 28 33  1  0
 29 28  2  0
 29 30  1  0
 30 31  2  0
 31 32  1  0
 33 32  2  0
 34 36  1  0
 34 26  1  0
 35 34  2  0
M  END
$$$$
