HWF.pdb
     RDKit          3D

 36 39  0  0  1  0  0  0  0  0999 V2000
   28.0055  -20.8396  -16.9410 N   0  0  0  0  0  0  0  0  0  0  0  0
   28.0704  -21.7274  -15.7538 C   0  0  1  0  0  0  0  0  0  0  0  0
   29.4320  -22.3694  -15.8067 C   0  0  0  0  0  0  0  0  0  0  0  0
   29.5940  -23.3100  -16.9221 C   0  0  0  0  0  0  0  0  0  0  0  0
   29.9453  -22.8915  -18.1956 C   0  0  0  0  0  0  0  0  0  0  0  0
   30.0222  -23.9593  -19.0082 N   0  0  0  0  0  0  0  0  0  0  0  0
   29.7252  -25.0195  -18.2563 C   0  0  0  0  0  0  0  0  0  0  0  0
   29.4631  -24.6404  -16.9884 N   0  0  0  0  0  0  0  0  0  0  0  0
   27.8903  -20.8844  -14.5319 C   0  0  0  0  0  0  0  0  0  0  0  0
   28.6867  -20.0013  -14.2027 O   0  0  0  0  0  0  0  0  0  0  0  0
   26.7561  -21.0577  -13.6497 N   0  0  0  0  0  0  0  0  0  0  0  0
   26.5518  -20.2252  -12.5074 C   0  0  1  0  0  0  0  0  0  0  0  0
   25.4329  -19.2688  -12.6918 C   0  0  0  0  0  0  0  0  0  0  0  0
   25.6318  -18.2462  -13.7422 C   0  0  0  0  0  0  0  0  0  0  0  0
   26.6024  -17.2320  -13.6969 C   0  0  0  0  0  0  0  0  0  0  0  0
   26.5246  -16.4997  -14.8163 N   0  0  0  0  0  0  0  0  0  0  0  0
   25.5455  -16.9672  -15.6226 C   0  0  0  0  0  0  0  0  0  0  0  0
   25.0735  -16.5596  -16.8614 C   0  0  0  0  0  0  0  0  0  0  0  0
   24.0327  -17.2206  -17.4724 C   0  0  0  0  0  0  0  0  0  0  0  0
   23.4932  -18.2931  -16.7970 C   0  0  0  0  0  0  0  0  0  0  0  0
   23.9650  -18.7035  -15.5556 C   0  0  0  0  0  0  0  0  0  0  0  0
   24.9973  -18.0488  -14.9496 C   0  0  0  0  0  0  0  0  0  0  0  0
   26.4199  -21.0170  -11.2479 C   0  0  0  0  0  0  0  0  0  0  0  0
   25.8512  -22.1350  -11.2527 O   0  0  0  0  0  0  0  0  0  0  0  0
   26.9274  -20.5417  -10.0093 N   0  0  0  0  0  0  0  0  0  0  0  0
   26.8710  -21.2708   -8.7824 C   0  0  1  0  0  0  0  0  0  0  0  0
   28.1720  -21.2089   -7.9641 C   0  0  0  0  0  0  0  0  0  0  0  0
   28.0107  -20.3392   -6.7920 C   0  0  0  0  0  0  0  0  0  0  0  0
   27.6777  -19.0246   -6.9256 C   0  0  0  0  0  0  0  0  0  0  0  0
   27.5366  -18.1802   -5.8145 C   0  0  0  0  0  0  0  0  0  0  0  0
   27.7382  -18.6881   -4.5511 C   0  0  0  0  0  0  0  0  0  0  0  0
   28.0726  -20.0025   -4.3799 C   0  0  0  0  0  0  0  0  0  0  0  0
   28.2033  -20.8028   -5.4914 C   0  0  0  0  0  0  0  0  0  0  0  0
   25.6806  -21.0171   -7.9800 C   0  0  0  0  0  0  0  0  0  0  0  0
   25.3501  -21.7901   -7.0244 O   0  0  0  0  0  0  0  0  0  0  0  0
   24.8515  -19.9317   -8.2111 O   0  0  0  0  0  0  0  0  0  0  0  0
  2  1  1  6
  3  2  1  0
  4  5  2  0
  4  3  1  0
  6  5  1  0
  7  8  2  0
  7  6  1  0
  8  4  1  0
  9  2  1  0
 10  9  2  0
 11  9  1  0
 12 13  1  6
 12 11  1  0
 13 14  1  0
 14 22  1  0
 14 15  2  0
 15 16  1  0
 17 16  1  0
 17 18  2  0
 19 18  1  0
 20 19  2  0
 21 20  1  0
 21 22  2  0
 22 17  1  0
 23 12  1  0
 24 23  2  0
 25 23  1  0
 26 25  1  0
 26 27  1  1
 27 28  1  0
 28 33  1  0
 29 28  2  0
 29 30  1  0
 30 31  2  0
 31 32  1  0
 33 32  2  0
 34 36  1  0
 34 26  1  0
 35 34  2  0
M  END
$$$$
