HWF.pdb
     RDKit          3D

 36 39  0  0  1  0  0  0  0  0999 V2000
   28.2428  -20.9668  -14.8604 N   0  0  0  0  0  0  0  0  0  0  0  0
   28.2783  -20.2744  -13.5485 C   0  0  1  0  0  0  0  0  0  0  0  0
   27.9980  -18.8258  -13.8515 C   0  0  0  0  0  0  0  0  0  0  0  0
   28.0726  -18.5004  -15.2810 C   0  0  0  0  0  0  0  0  0  0  0  0
   29.1739  -17.8705  -15.8383 C   0  0  0  0  0  0  0  0  0  0  0  0
   28.9687  -17.7006  -17.1557 N   0  0  0  0  0  0  0  0  0  0  0  0
   27.7653  -18.2140  -17.4126 C   0  0  0  0  0  0  0  0  0  0  0  0
   27.2101  -18.7027  -16.2843 N   0  0  0  0  0  0  0  0  0  0  0  0
   27.2291  -20.8819  -12.6732 C   0  0  0  0  0  0  0  0  0  0  0  0
   26.2103  -21.4162  -13.1192 O   0  0  0  0  0  0  0  0  0  0  0  0
   27.3472  -20.8779  -11.2307 N   0  0  0  0  0  0  0  0  0  0  0  0
   26.3468  -21.4509  -10.3880 C   0  0  1  0  0  0  0  0  0  0  0  0
   26.9005  -21.9548   -9.1073 C   0  0  0  0  0  0  0  0  0  0  0  0
   27.2491  -20.9196   -8.1096 C   0  0  0  0  0  0  0  0  0  0  0  0
   26.8278  -19.5809   -8.1661 C   0  0  0  0  0  0  0  0  0  0  0  0
   27.2999  -18.9266   -7.0964 N   0  0  0  0  0  0  0  0  0  0  0  0
   28.0244  -19.7570   -6.3134 C   0  0  0  0  0  0  0  0  0  0  0  0
   28.7134  -19.5653   -5.1251 C   0  0  0  0  0  0  0  0  0  0  0  0
   29.3936  -20.6021   -4.5286 C   0  0  0  0  0  0  0  0  0  0  0  0
   29.3534  -21.8226   -5.1662 C   0  0  0  0  0  0  0  0  0  0  0  0
   28.6631  -22.0169   -6.3569 C   0  0  0  0  0  0  0  0  0  0  0  0
   27.9881  -20.9894   -6.9485 C   0  0  0  0  0  0  0  0  0  0  0  0
   25.1874  -20.5319  -10.1825 C   0  0  0  0  0  0  0  0  0  0  0  0
   25.3701  -19.3408   -9.8344 O   0  0  0  0  0  0  0  0  0  0  0  0
   23.8477  -20.9647  -10.3713 N   0  0  0  0  0  0  0  0  0  0  0  0
   22.9647  -20.4421  -11.3648 C   0  0  1  0  0  0  0  0  0  0  0  0
   23.5946  -20.3449  -12.7649 C   0  0  0  0  0  0  0  0  0  0  0  0
   22.6443  -19.7716  -13.7263 C   0  0  0  0  0  0  0  0  0  0  0  0
   21.9561  -20.5605  -14.5986 C   0  0  0  0  0  0  0  0  0  0  0  0
   21.0579  -20.0229  -15.5324 C   0  0  0  0  0  0  0  0  0  0  0  0
   20.8614  -18.6612  -15.5729 C   0  0  0  0  0  0  0  0  0  0  0  0
   21.5346  -17.8398  -14.7121 C   0  0  0  0  0  0  0  0  0  0  0  0
   22.4086  -18.4001  -13.8092 C   0  0  0  0  0  0  0  0  0  0  0  0
   21.6388  -21.0481  -11.3775 C   0  0  0  0  0  0  0  0  0  0  0  0
   21.4737  -22.2710  -11.6888 O   0  0  0  0  0  0  0  0  0  0  0  0
   20.4969  -20.3335  -11.0547 O   0  0  0  0  0  0  0  0  0  0  0  0
  2  1  1  6
  3  2  1  0
  4  5  2  0
  4  3  1  0
  6  5  1  0
  7  8  2  0
  7  6  1  0
  8  4  1  0
  9  2  1  0
 10  9  2  0
 11  9  1  0
 12 13  1  1
 12 11  1  0
 13 14  1  0
 14 22  1  0
 14 15  2  0
 15 16  1  0
 17 16  1  0
 17 18  2  0
 19 18  1  0
 20 19  2  0
 21 20  1  0
 21 22  2  0
 22 17  1  0
 23 12  1  0
 24 23  2  0
 25 23  1  0
 26 25  1  0
 26 27  1  6
 27 28  1  0
 28 33  1  0
 29 28  2  0
 29 30  1  0
 30 31  2  0
 31 32  1  0
 33 32  2  0
 34 36  1  0
 34 26  1  0
 35 34  2  0
M  END
$$$$
