HFI.pdb
     RDKit          3D

 30 31  0  0  1  0  0  0  0  0999 V2000
   26.7747  -22.5439  -13.7990 N   0  0  0  0  0  0  0  0  0  0  0  0
   26.2230  -21.2819  -13.3557 C   0  0  1  0  0  0  0  0  0  0  0  0
   25.0573  -20.9456  -14.2330 C   0  0  0  0  0  0  0  0  0  0  0  0
   25.5483  -20.1461  -15.3823 C   0  0  0  0  0  0  0  0  0  0  0  0
   26.0356  -20.5659  -16.6007 C   0  0  0  0  0  0  0  0  0  0  0  0
   26.3777  -19.5198  -17.3695 N   0  0  0  0  0  0  0  0  0  0  0  0
   26.1108  -18.4164  -16.6461 C   0  0  0  0  0  0  0  0  0  0  0  0
   25.6098  -18.7850  -15.4450 N   0  0  0  0  0  0  0  0  0  0  0  0
   25.8524  -21.3953  -11.9265 C   0  0  0  0  0  0  0  0  0  0  0  0
   25.4807  -22.5069  -11.4470 O   0  0  0  0  0  0  0  0  0  0  0  0
   25.8931  -20.2887  -11.0370 N   0  0  0  0  0  0  0  0  0  0  0  0
   25.5686  -20.4826   -9.6389 C   0  0  1  0  0  0  0  0  0  0  0  0
   26.0972  -19.2950   -8.8755 C   0  0  0  0  0  0  0  0  0  0  0  0
   26.5546  -19.6082   -7.5292 C   0  0  0  0  0  0  0  0  0  0  0  0
   25.8609  -20.4618   -6.7025 C   0  0  0  0  0  0  0  0  0  0  0  0
   26.3651  -20.7047   -5.4395 C   0  0  0  0  0  0  0  0  0  0  0  0
   27.5288  -20.1264   -4.9832 C   0  0  0  0  0  0  0  0  0  0  0  0
   28.2089  -19.2819   -5.8100 C   0  0  0  0  0  0  0  0  0  0  0  0
   27.7203  -19.0273   -7.0755 C   0  0  0  0  0  0  0  0  0  0  0  0
   24.0697  -20.4309   -9.5191 C   0  0  0  0  0  0  0  0  0  0  0  0
   23.3639  -19.7575  -10.3228 O   0  0  0  0  0  0  0  0  0  0  0  0
   19.5957  -23.7701   -6.8765 C   0  0  0  0  0  0  0  0  0  0  0  0
   19.9561  -22.5756   -7.7322 C   0  0  0  0  0  0  0  0  0  0  0  0
   21.4572  -22.3966   -7.6450 C   0  0  2  0  0  0  0  0  0  0  0  0
   21.8549  -22.0342   -6.2463 C   0  0  0  0  0  0  0  0  0  0  0  0
   21.9417  -21.3056   -8.5735 C   0  0  2  0  0  0  0  0  0  0  0  0
   23.3757  -21.1331   -8.5015 N   0  0  0  0  0  0  0  0  0  0  0  0
   21.3122  -20.0448   -8.1187 C   0  0  0  0  0  0  0  0  0  0  0  0
   20.1069  -19.7623   -8.3521 O   0  0  0  0  0  0  0  0  0  0  0  0
   22.0793  -19.1368   -7.4064 O   0  0  0  0  0  0  0  0  0  0  0  0
  2  3  1  0
  2  1  1  6
  3  4  1  0
  4  8  1  0
  5  6  1  0
  5  4  2  0
  6  7  1  0
  7  8  2  0
  9  2  1  0
  9 10  2  0
 11  9  1  0
 12 11  1  0
 12 20  1  0
 12 13  1  1
 14 19  1  0
 14 13  1  0
 15 14  2  0
 16 17  2  0
 16 15  1  0
 17 18  1  0
 18 19  2  0
 20 27  1  0
 21 20  2  0
 23 22  1  0
 24 23  1  0
 24 26  1  0
 24 25  1  1
 26 28  1  0
 26 27  1  1
 28 29  2  0
 28 30  1  0
M  END
$$$$
