HFI.pdb
     RDKit          3D

 30 31  0  0  1  0  0  0  0  0999 V2000
   28.5522  -21.1402  -14.5670 N   0  0  0  0  0  0  0  0  0  0  0  0
   27.6906  -20.1166  -14.0161 C   0  0  1  0  0  0  0  0  0  0  0  0
   27.0191  -19.4079  -15.1512 C   0  0  0  0  0  0  0  0  0  0  0  0
   28.0372  -18.6058  -15.8735 C   0  0  0  0  0  0  0  0  0  0  0  0
   28.7629  -17.5158  -15.4455 C   0  0  0  0  0  0  0  0  0  0  0  0
   29.5864  -17.0759  -16.4102 N   0  0  0  0  0  0  0  0  0  0  0  0
   29.3936  -17.8847  -17.4689 C   0  0  0  0  0  0  0  0  0  0  0  0
   28.4600  -18.8113  -17.1538 N   0  0  0  0  0  0  0  0  0  0  0  0
   26.7289  -20.7488  -13.0843 C   0  0  0  0  0  0  0  0  0  0  0  0
   26.2466  -21.8917  -13.3390 O   0  0  0  0  0  0  0  0  0  0  0  0
   26.3055  -20.1216  -11.8823 N   0  0  0  0  0  0  0  0  0  0  0  0
   25.2813  -20.7472  -11.0716 C   0  0  1  0  0  0  0  0  0  0  0  0
   25.3102  -20.0963   -9.7121 C   0  0  0  0  0  0  0  0  0  0  0  0
   26.5855  -20.2187   -9.0203 C   0  0  0  0  0  0  0  0  0  0  0  0
   26.9998  -19.2989   -8.0845 C   0  0  0  0  0  0  0  0  0  0  0  0
   28.2245  -19.4903   -7.4750 C   0  0  0  0  0  0  0  0  0  0  0  0
   29.0385  -20.5616   -7.7694 C   0  0  0  0  0  0  0  0  0  0  0  0
   28.6190  -21.4675   -8.6980 C   0  0  0  0  0  0  0  0  0  0  0  0
   27.3981  -21.2926   -9.3175 C   0  0  0  0  0  0  0  0  0  0  0  0
   23.9528  -20.3936  -11.6830 C   0  0  0  0  0  0  0  0  0  0  0  0
   23.7720  -19.2978  -12.2863 O   0  0  0  0  0  0  0  0  0  0  0  0
   20.5806  -22.2629  -15.8314 C   0  0  0  0  0  0  0  0  0  0  0  0
   20.3812  -21.6258  -14.4738 C   0  0  0  0  0  0  0  0  0  0  0  0
   21.6669  -21.8132  -13.6961 C   0  0  2  0  0  0  0  0  0  0  0  0
   21.8608  -23.2601  -13.3573 C   0  0  0  0  0  0  0  0  0  0  0  0
   21.6575  -21.0215  -12.4076 C   0  0  2  0  0  0  0  0  0  0  0  0
   22.8401  -21.2696  -11.6131 N   0  0  0  0  0  0  0  0  0  0  0  0
   20.4858  -21.4839  -11.6291 C   0  0  0  0  0  0  0  0  0  0  0  0
   20.5889  -22.2425  -10.6286 O   0  0  0  0  0  0  0  0  0  0  0  0
   19.2225  -21.0656  -12.0157 O   0  0  0  0  0  0  0  0  0  0  0  0
  2  3  1  0
  2  1  1  6
  3  4  1  0
  4  8  1  0
  5  6  1  0
  5  4  2  0
  6  7  1  0
  7  8  2  0
  9  2  1  0
  9 10  2  0
 11  9  1  0
 12 11  1  0
 12 20  1  0
 12 13  1  1
 14 19  1  0
 14 13  1  0
 15 14  2  0
 16 17  2  0
 16 15  1  0
 17 18  1  0
 18 19  2  0
 20 27  1  0
 21 20  2  0
 23 22  1  0
 24 23  1  0
 24 26  1  0
 24 25  1  1
 26 28  1  0
 26 27  1  1
 28 29  2  0
 28 30  1  0
M  END
$$$$
