HFI.pdb
     RDKit          3D

 30 31  0  0  1  0  0  0  0  0999 V2000
   26.3057  -20.3606  -14.2687 N   0  0  0  0  0  0  0  0  0  0  0  0
   25.4930  -20.5550  -13.0875 C   0  0  1  0  0  0  0  0  0  0  0  0
   24.8790  -21.9185  -13.1599 C   0  0  0  0  0  0  0  0  0  0  0  0
   23.8100  -21.8994  -14.1886 C   0  0  0  0  0  0  0  0  0  0  0  0
   23.4229  -20.8835  -15.0350 C   0  0  0  0  0  0  0  0  0  0  0  0
   22.4067  -21.2722  -15.8216 N   0  0  0  0  0  0  0  0  0  0  0  0
   22.1337  -22.5463  -15.4835 C   0  0  0  0  0  0  0  0  0  0  0  0
   22.9760  -22.9331  -14.4984 N   0  0  0  0  0  0  0  0  0  0  0  0
   26.3391  -20.3691  -11.8865 C   0  0  0  0  0  0  0  0  0  0  0  0
   27.5590  -20.7082  -11.9032 O   0  0  0  0  0  0  0  0  0  0  0  0
   25.8391  -19.8131  -10.6789 N   0  0  0  0  0  0  0  0  0  0  0  0
   26.7324  -19.6248   -9.5545 C   0  0  1  0  0  0  0  0  0  0  0  0
   25.9926  -18.8313   -8.5077 C   0  0  0  0  0  0  0  0  0  0  0  0
   26.7341  -18.6433   -7.2689 C   0  0  0  0  0  0  0  0  0  0  0  0
   26.4650  -19.3795   -6.1380 C   0  0  0  0  0  0  0  0  0  0  0  0
   27.2163  -19.1375   -5.0043 C   0  0  0  0  0  0  0  0  0  0  0  0
   28.2173  -18.1922   -4.9675 C   0  0  0  0  0  0  0  0  0  0  0  0
   28.4762  -17.4678   -6.0933 C   0  0  0  0  0  0  0  0  0  0  0  0
   27.7357  -17.6959   -7.2355 C   0  0  0  0  0  0  0  0  0  0  0  0
   26.9868  -20.9820   -8.9568 C   0  0  0  0  0  0  0  0  0  0  0  0
   26.0860  -21.8676   -8.9171 O   0  0  0  0  0  0  0  0  0  0  0  0
   32.2015  -22.9628   -7.6885 C   0  0  0  0  0  0  0  0  0  0  0  0
   30.8283  -22.8422   -8.3119 C   0  0  0  0  0  0  0  0  0  0  0  0
   29.8273  -22.7481   -7.1796 C   0  0  2  0  0  0  0  0  0  0  0  0
   29.8764  -23.9890   -6.3407 C   0  0  0  0  0  0  0  0  0  0  0  0
   28.4162  -22.5815   -7.6975 C   0  0  2  0  0  0  0  0  0  0  0  0
   28.2465  -21.3344   -8.4096 N   0  0  0  0  0  0  0  0  0  0  0  0
   27.5263  -22.5502   -6.5144 C   0  0  0  0  0  0  0  0  0  0  0  0
   26.9943  -21.4902   -6.0899 O   0  0  0  0  0  0  0  0  0  0  0  0
   27.2667  -23.7356   -5.8451 O   0  0  0  0  0  0  0  0  0  0  0  0
  2  3  1  0
  2  1  1  6
  3  4  1  0
  4  8  1  0
  5  6  1  0
  5  4  2  0
  6  7  1  0
  7  8  2  0
  9  2  1  0
  9 10  2  0
 11  9  1  0
 12 11  1  0
 12 20  1  0
 12 13  1  1
 14 19  1  0
 14 13  1  0
 15 14  2  0
 16 17  2  0
 16 15  1  0
 17 18  1  0
 18 19  2  0
 20 27  1  0
 21 20  2  0
 23 22  1  0
 24 23  1  0
 24 26  1  0
 24 25  1  6
 26 28  1  0
 26 27  1  1
 28 29  2  0
 28 30  1  0
M  END
$$$$
