HFI.pdb
     RDKit          3D

 30 31  0  0  1  0  0  0  0  0999 V2000
   23.9260  -21.3187  -15.7179 N   0  0  0  0  0  0  0  0  0  0  0  0
   23.6461  -20.9109  -14.3582 C   0  0  1  0  0  0  0  0  0  0  0  0
   22.4149  -21.6277  -13.8976 C   0  0  0  0  0  0  0  0  0  0  0  0
   21.2469  -21.0716  -14.6242 C   0  0  0  0  0  0  0  0  0  0  0  0
   20.4950  -21.6277  -15.6360 C   0  0  0  0  0  0  0  0  0  0  0  0
   19.5176  -20.7935  -16.0247 N   0  0  0  0  0  0  0  0  0  0  0  0
   19.6363  -19.6912  -15.2613 C   0  0  0  0  0  0  0  0  0  0  0  0
   20.6778  -19.8503  -14.4129 N   0  0  0  0  0  0  0  0  0  0  0  0
   24.8289  -21.2020  -13.5163 C   0  0  0  0  0  0  0  0  0  0  0  0
   25.5402  -22.2251  -13.7421 O   0  0  0  0  0  0  0  0  0  0  0  0
   25.2203  -20.3684  -12.4350 N   0  0  0  0  0  0  0  0  0  0  0  0
   26.4958  -20.5907  -11.7858 C   0  0  1  0  0  0  0  0  0  0  0  0
   27.3090  -19.3292  -11.9265 C   0  0  0  0  0  0  0  0  0  0  0  0
   27.7397  -19.0472  -13.2885 C   0  0  0  0  0  0  0  0  0  0  0  0
   27.2463  -17.9806  -14.0043 C   0  0  0  0  0  0  0  0  0  0  0  0
   27.7086  -17.7850  -15.2912 C   0  0  0  0  0  0  0  0  0  0  0  0
   28.6390  -18.6141  -15.8776 C   0  0  0  0  0  0  0  0  0  0  0  0
   29.1218  -19.6682  -15.1601 C   0  0  0  0  0  0  0  0  0  0  0  0
   28.6714  -19.8795  -13.8726 C   0  0  0  0  0  0  0  0  0  0  0  0
   26.2231  -20.7577  -10.3155 C   0  0  0  0  0  0  0  0  0  0  0  0
   25.0446  -20.7902   -9.8600 O   0  0  0  0  0  0  0  0  0  0  0  0
   28.9798  -19.6653   -4.9549 C   0  0  0  0  0  0  0  0  0  0  0  0
   27.8368  -20.3620   -5.6598 C   0  0  0  0  0  0  0  0  0  0  0  0
   28.1067  -20.2758   -7.1473 C   0  0  2  0  0  0  0  0  0  0  0  0
   28.2481  -18.8437   -7.5657 C   0  0  0  0  0  0  0  0  0  0  0  0
   26.9869  -20.8965   -7.9523 C   0  0  2  0  0  0  0  0  0  0  0  0
   27.2718  -20.8868   -9.3700 N   0  0  0  0  0  0  0  0  0  0  0  0
   25.7843  -20.0622   -7.7280 C   0  0  0  0  0  0  0  0  0  0  0  0
   24.9496  -20.3016   -6.8153 O   0  0  0  0  0  0  0  0  0  0  0  0
   25.5664  -18.9722   -8.5555 O   0  0  0  0  0  0  0  0  0  0  0  0
  2  3  1  0
  2  1  1  6
  3  4  1  0
  4  8  1  0
  5  6  1  0
  5  4  2  0
  6  7  1  0
  7  8  2  0
  9  2  1  0
  9 10  2  0
 11  9  1  0
 12 11  1  0
 12 20  1  0
 12 13  1  1
 14 19  1  0
 14 13  1  0
 15 14  2  0
 16 17  2  0
 16 15  1  0
 17 18  1  0
 18 19  2  0
 20 27  1  0
 21 20  2  0
 23 22  1  0
 24 23  1  0
 24 26  1  0
 24 25  1  6
 26 28  1  0
 26 27  1  6
 28 29  2  0
 28 30  1  0
M  END
$$$$
