HFI.pdb
     RDKit          3D

 30 31  0  0  1  0  0  0  0  0999 V2000
   28.2854  -21.2970  -18.0587 N   0  0  0  0  0  0  0  0  0  0  0  0
   27.6005  -20.2063  -17.3993 C   0  0  1  0  0  0  0  0  0  0  0  0
   26.6442  -19.5945  -18.3755 C   0  0  0  0  0  0  0  0  0  0  0  0
   27.4256  -18.8811  -19.4157 C   0  0  0  0  0  0  0  0  0  0  0  0
   27.5735  -19.1681  -20.7551 C   0  0  0  0  0  0  0  0  0  0  0  0
   28.3707  -18.2701  -21.3554 N   0  0  0  0  0  0  0  0  0  0  0  0
   28.7414  -17.3966  -20.4007 C   0  0  0  0  0  0  0  0  0  0  0  0
   28.1755  -17.7577  -19.2264 N   0  0  0  0  0  0  0  0  0  0  0  0
   26.9291  -20.7245  -16.1855 C   0  0  0  0  0  0  0  0  0  0  0  0
   26.3260  -21.8377  -16.2125 O   0  0  0  0  0  0  0  0  0  0  0  0
   26.9256  -20.0171  -14.9539 N   0  0  0  0  0  0  0  0  0  0  0  0
   26.2484  -20.5834  -13.8057 C   0  0  1  0  0  0  0  0  0  0  0  0
   26.8637  -19.9833  -12.5672 C   0  0  0  0  0  0  0  0  0  0  0  0
   26.1939  -20.3558  -11.3293 C   0  0  0  0  0  0  0  0  0  0  0  0
   25.0121  -19.7721  -10.9342 C   0  0  0  0  0  0  0  0  0  0  0  0
   24.4432  -20.1841   -9.7449 C   0  0  0  0  0  0  0  0  0  0  0  0
   25.0136  -21.1513   -8.9473 C   0  0  0  0  0  0  0  0  0  0  0  0
   26.1846  -21.7237   -9.3474 C   0  0  0  0  0  0  0  0  0  0  0  0
   26.7678  -21.3247  -10.5330 C   0  0  0  0  0  0  0  0  0  0  0  0
   24.8237  -20.1016  -13.8476 C   0  0  0  0  0  0  0  0  0  0  0  0
   24.5425  -18.8767  -13.9822 O   0  0  0  0  0  0  0  0  0  0  0  0
   21.5089  -21.2758  -17.4484 C   0  0  0  0  0  0  0  0  0  0  0  0
   22.2592  -20.5992  -16.3223 C   0  0  0  0  0  0  0  0  0  0  0  0
   21.6412  -21.0712  -15.0230 C   0  0  2  0  0  0  0  0  0  0  0  0
   20.2071  -20.6428  -14.9461 C   0  0  0  0  0  0  0  0  0  0  0  0
   22.3696  -20.5069  -13.8237 C   0  0  2  0  0  0  0  0  0  0  0  0
   23.7281  -20.9950  -13.7386 N   0  0  0  0  0  0  0  0  0  0  0  0
   21.6448  -20.9779  -12.6214 C   0  0  0  0  0  0  0  0  0  0  0  0
   20.8308  -20.2534  -11.9893 O   0  0  0  0  0  0  0  0  0  0  0  0
   21.8700  -22.2690  -12.1714 O   0  0  0  0  0  0  0  0  0  0  0  0
  2  3  1  0
  2  1  1  6
  3  4  1  0
  4  8  1  0
  5  6  1  0
  5  4  2  0
  6  7  1  0
  7  8  2  0
  9  2  1  0
  9 10  2  0
 11  9  1  0
 12 11  1  0
 12 20  1  0
 12 13  1  1
 14 19  1  0
 14 13  1  0
 15 14  2  0
 16 17  2  0
 16 15  1  0
 17 18  1  0
 18 19  2  0
 20 27  1  0
 21 20  2  0
 23 22  1  0
 24 23  1  0
 24 26  1  0
 24 25  1  6
 26 28  1  0
 26 27  1  1
 28 29  2  0
 28 30  1  0
M  END
$$$$
