HFI.pdb
     RDKit          3D

 30 31  0  0  1  0  0  0  0  0999 V2000
   27.9518  -21.1060  -14.9458 N   0  0  0  0  0  0  0  0  0  0  0  0
   27.1636  -20.0714  -14.3120 C   0  0  1  0  0  0  0  0  0  0  0  0
   26.5762  -19.2065  -15.3837 C   0  0  0  0  0  0  0  0  0  0  0  0
   27.6364  -18.3011  -15.8916 C   0  0  0  0  0  0  0  0  0  0  0  0
   28.9518  -18.1813  -15.4998 C   0  0  0  0  0  0  0  0  0  0  0  0
   29.5836  -17.2368  -16.2147 N   0  0  0  0  0  0  0  0  0  0  0  0
   28.6734  -16.7418  -17.0741 C   0  0  0  0  0  0  0  0  0  0  0  0
   27.4949  -17.3786  -16.8861 N   0  0  0  0  0  0  0  0  0  0  0  0
   26.1340  -20.7071  -13.4584 C   0  0  0  0  0  0  0  0  0  0  0  0
   25.7457  -21.8889  -13.6951 O   0  0  0  0  0  0  0  0  0  0  0  0
   25.5403  -20.0405  -12.3535 N   0  0  0  0  0  0  0  0  0  0  0  0
   24.5329  -20.7201  -11.5655 C   0  0  1  0  0  0  0  0  0  0  0  0
   24.4692  -20.0442  -10.2195 C   0  0  0  0  0  0  0  0  0  0  0  0
   25.6737  -20.2013   -9.4168 C   0  0  0  0  0  0  0  0  0  0  0  0
   26.2230  -19.1550   -8.7118 C   0  0  0  0  0  0  0  0  0  0  0  0
   27.3676  -19.3904   -7.9752 C   0  0  0  0  0  0  0  0  0  0  0  0
   27.9729  -20.6264   -7.9226 C   0  0  0  0  0  0  0  0  0  0  0  0
   27.4210  -21.6567   -8.6247 C   0  0  0  0  0  0  0  0  0  0  0  0
   26.2773  -21.4403   -9.3664 C   0  0  0  0  0  0  0  0  0  0  0  0
   23.2059  -20.4696  -12.2291 C   0  0  0  0  0  0  0  0  0  0  0  0
   22.9059  -19.3372  -12.7036 O   0  0  0  0  0  0  0  0  0  0  0  0
   18.7328  -23.5068  -15.1140 C   0  0  0  0  0  0  0  0  0  0  0  0
   19.1499  -22.2165  -14.4432 C   0  0  0  0  0  0  0  0  0  0  0  0
   20.4591  -22.4832  -13.7305 C   0  0  2  0  0  0  0  0  0  0  0  0
   20.2729  -23.5392  -12.6836 C   0  0  0  0  0  0  0  0  0  0  0  0
   20.9895  -21.2369  -13.0577 C   0  0  2  0  0  0  0  0  0  0  0  0
   22.2280  -21.4886  -12.3549 N   0  0  0  0  0  0  0  0  0  0  0  0
   19.9782  -20.8266  -12.0569 C   0  0  0  0  0  0  0  0  0  0  0  0
   20.1123  -21.0456  -10.8236 O   0  0  0  0  0  0  0  0  0  0  0  0
   18.8361  -20.1744  -12.4934 O   0  0  0  0  0  0  0  0  0  0  0  0
  2  3  1  0
  2  1  1  6
  3  4  1  0
  4  8  1  0
  5  6  1  0
  5  4  2  0
  6  7  1  0
  7  8  2  0
  9  2  1  0
  9 10  2  0
 11  9  1  0
 12 11  1  0
 12 20  1  0
 12 13  1  1
 14 19  1  0
 14 13  1  0
 15 14  2  0
 16 17  2  0
 16 15  1  0
 17 18  1  0
 18 19  2  0
 20 27  1  0
 21 20  2  0
 23 22  1  0
 24 23  1  0
 24 26  1  0
 24 25  1  1
 26 28  1  0
 26 27  1  1
 28 29  2  0
 28 30  1  0
M  END
$$$$
