HFI.pdb
     RDKit          3D

 30 31  0  0  1  0  0  0  0  0999 V2000
   26.4205  -20.8743  -13.1880 N   0  0  0  0  0  0  0  0  0  0  0  0
   25.6044  -20.6452  -12.0154 C   0  0  1  0  0  0  0  0  0  0  0  0
   24.6038  -21.7546  -11.9165 C   0  0  0  0  0  0  0  0  0  0  0  0
   23.5457  -21.5261  -12.9312 C   0  0  0  0  0  0  0  0  0  0  0  0
   23.3326  -22.1587  -14.1365 C   0  0  0  0  0  0  0  0  0  0  0  0
   22.2584  -21.6528  -14.7631 N   0  0  0  0  0  0  0  0  0  0  0  0
   21.7728  -20.6877  -13.9602 C   0  0  0  0  0  0  0  0  0  0  0  0
   22.5437  -20.6042  -12.8520 N   0  0  0  0  0  0  0  0  0  0  0  0
   26.4842  -20.5576  -10.8276 C   0  0  0  0  0  0  0  0  0  0  0  0
   27.5365  -21.2585  -10.7563 O   0  0  0  0  0  0  0  0  0  0  0  0
   26.2015  -19.7023   -9.7295 N   0  0  0  0  0  0  0  0  0  0  0  0
   27.1683  -19.5691   -8.6593 C   0  0  1  0  0  0  0  0  0  0  0  0
   26.9655  -18.2180   -8.0223 C   0  0  0  0  0  0  0  0  0  0  0  0
   27.7710  -17.9948   -6.8301 C   0  0  0  0  0  0  0  0  0  0  0  0
   27.2060  -17.8495   -5.5839 C   0  0  0  0  0  0  0  0  0  0  0  0
   28.0431  -17.6408   -4.5051 C   0  0  0  0  0  0  0  0  0  0  0  0
   29.4128  -17.5737   -4.6331 C   0  0  0  0  0  0  0  0  0  0  0  0
   29.9630  -17.7189   -5.8722 C   0  0  0  0  0  0  0  0  0  0  0  0
   29.1422  -17.9282   -6.9619 C   0  0  0  0  0  0  0  0  0  0  0  0
   26.8148  -20.5894   -7.6114 C   0  0  0  0  0  0  0  0  0  0  0  0
   25.6970  -21.1791   -7.6118 O   0  0  0  0  0  0  0  0  0  0  0  0
   30.7800  -22.8440   -4.1949 C   0  0  0  0  0  0  0  0  0  0  0  0
   29.6959  -22.7859   -5.2486 C   0  0  0  0  0  0  0  0  0  0  0  0
   28.4693  -22.1808   -4.5987 C   0  0  2  0  0  0  0  0  0  0  0  0
   27.9497  -23.0901   -3.5267 C   0  0  0  0  0  0  0  0  0  0  0  0
   27.3630  -21.9526   -5.6043 C   0  0  2  0  0  0  0  0  0  0  0  0
   27.7156  -20.9394   -6.5739 N   0  0  0  0  0  0  0  0  0  0  0  0
   26.1892  -21.4626   -4.8462 C   0  0  0  0  0  0  0  0  0  0  0  0
   25.9835  -20.2397   -4.6245 O   0  0  0  0  0  0  0  0  0  0  0  0
   25.2780  -22.3863   -4.3595 O   0  0  0  0  0  0  0  0  0  0  0  0
  2  3  1  0
  2  1  1  6
  3  4  1  0
  4  8  1  0
  5  6  1  0
  5  4  2  0
  6  7  1  0
  7  8  2  0
  9  2  1  0
  9 10  2  0
 11  9  1  0
 12 11  1  0
 12 20  1  0
 12 13  1  1
 14 19  1  0
 14 13  1  0
 15 14  2  0
 16 17  2  0
 16 15  1  0
 17 18  1  0
 18 19  2  0
 20 27  1  0
 21 20  2  0
 23 22  1  0
 24 23  1  0
 24 26  1  0
 24 25  1  1
 26 28  1  0
 26 27  1  6
 28 29  2  0
 28 30  1  0
M  END
$$$$
