CAD.pdb
     RDKit          3D

 20 19  0  0  1  0  0  0  0  0999 V2000
    7.8079  -16.9103   15.4352 N   0  0  0  0  0  0  0  0  0  0  0  0
    7.5141  -16.4643   16.7464 C   0  0  1  0  0  0  0  0  0  0  0  0
    7.3336  -17.6987   17.6248 C   0  0  0  0  0  0  0  0  0  0  0  0
    6.8338  -17.1731   19.2863 S   0  0  0  0  0  0  0  0  0  0  0  0
    8.4067  -15.4829   17.3471 C   0  0  0  0  0  0  0  0  0  0  0  0
    9.6591  -15.5999   17.1157 O   0  0  0  0  0  0  0  0  0  0  0  0
    8.3834  -12.4887   19.6349 C   0  0  0  0  0  0  0  0  0  0  0  0
    9.0569  -13.4930   18.7084 C   0  0  2  0  0  0  0  0  0  0  0  0
    8.0598  -14.3876   18.1756 N   0  0  0  0  0  0  0  0  0  0  0  0
   10.1458  -14.2218   19.4066 C   0  0  0  0  0  0  0  0  0  0  0  0
   11.1859  -14.4881   18.7560 O   0  0  0  0  0  0  0  0  0  0  0  0
   10.0776  -14.6318   20.7580 N   0  0  0  0  0  0  0  0  0  0  0  0
   11.1185  -15.2719   21.4900 C   0  0  1  0  0  0  0  0  0  0  0  0
   12.4099  -14.5099   21.5654 C   0  0  0  0  0  0  0  0  0  0  0  0
   13.5312  -15.1939   20.8813 C   0  0  0  0  0  0  0  0  0  0  0  0
   13.2541  -16.0105   19.9651 O   0  0  0  0  0  0  0  0  0  0  0  0
   10.7158  -15.6731   22.8579 C   0  0  0  0  0  0  0  0  0  0  0  0
    9.6376  -15.3274   23.3778 O   0  0  0  0  0  0  0  0  0  0  0  0
   14.8603  -14.9758   21.2032 O   0  0  0  0  0  0  0  0  0  0  0  0
   11.6106  -16.4831   23.5834 O   0  0  0  0  0  0  0  0  0  0  0  0
  2  5  1  0
  2  1  1  6
  3  2  1  0
  4  3  1  0
  5  6  2  0
  8  7  1  1
  8 10  1  0
  9  8  1  0
  9  5  1  0
 10 11  2  0
 12 13  1  0
 12 10  1  0
 13 17  1  0
 13 14  1  1
 15 14  1  0
 16 15  2  0
 17 18  2  0
 17 20  1  0
 19 15  1  0
M  END
$$$$
