CAD.pdb
     RDKit          3D

 20 19  0  0  1  0  0  0  0  0999 V2000
    8.4016  -13.6642   16.1132 N   0  0  0  0  0  0  0  0  0  0  0  0
    7.9063  -14.5290   17.1190 C   0  0  1  0  0  0  0  0  0  0  0  0
    8.0905  -15.9619   16.6283 C   0  0  0  0  0  0  0  0  0  0  0  0
    6.6072  -16.4692   15.7177 S   0  0  0  0  0  0  0  0  0  0  0  0
    8.3950  -14.3419   18.4780 C   0  0  0  0  0  0  0  0  0  0  0  0
    9.6611  -14.2946   18.6520 O   0  0  0  0  0  0  0  0  0  0  0  0
    7.2041  -13.4590   21.9223 C   0  0  0  0  0  0  0  0  0  0  0  0
    8.2518  -13.9741   20.9437 C   0  0  2  0  0  0  0  0  0  0  0  0
    7.6311  -14.2021   19.6627 N   0  0  0  0  0  0  0  0  0  0  0  0
    8.9212  -15.1923   21.4653 C   0  0  0  0  0  0  0  0  0  0  0  0
    8.4531  -16.3085   21.1317 O   0  0  0  0  0  0  0  0  0  0  0  0
   10.0519  -15.1666   22.3137 N   0  0  0  0  0  0  0  0  0  0  0  0
   10.6757  -16.3007   22.9084 C   0  0  1  0  0  0  0  0  0  0  0  0
   12.0946  -16.0915   23.3521 C   0  0  0  0  0  0  0  0  0  0  0  0
   13.0496  -15.9928   22.2246 C   0  0  0  0  0  0  0  0  0  0  0  0
   12.5918  -15.7176   21.0853 O   0  0  0  0  0  0  0  0  0  0  0  0
    9.9006  -16.8783   24.0308 C   0  0  0  0  0  0  0  0  0  0  0  0
    9.9356  -18.0874   24.3296 O   0  0  0  0  0  0  0  0  0  0  0  0
   14.4130  -16.1886   22.3680 O   0  0  0  0  0  0  0  0  0  0  0  0
    9.0947  -15.9990   24.7794 O   0  0  0  0  0  0  0  0  0  0  0  0
  2  5  1  0
  2  1  1  6
  3  2  1  0
  4  3  1  0
  5  6  2  0
  8  7  1  1
  8 10  1  0
  9  8  1  0
  9  5  1  0
 10 11  2  0
 12 13  1  0
 12 10  1  0
 13 17  1  0
 13 14  1  1
 15 14  1  0
 16 15  2  0
 17 18  2  0
 17 20  1  0
 19 15  1  0
M  END
$$$$
