CAD.pdb
     RDKit          3D

 20 19  0  0  1  0  0  0  0  0999 V2000
    7.8888  -15.5229   15.8587 N   0  0  0  0  0  0  0  0  0  0  0  0
    7.1663  -15.5289   17.0763 C   0  0  1  0  0  0  0  0  0  0  0  0
    6.5454  -16.9132   17.2384 C   0  0  0  0  0  0  0  0  0  0  0  0
    7.8441  -18.0931   17.6941 S   0  0  0  0  0  0  0  0  0  0  0  0
    7.8577  -15.0878   18.2796 C   0  0  0  0  0  0  0  0  0  0  0  0
    9.1359  -15.1307   18.2791 O   0  0  0  0  0  0  0  0  0  0  0  0
    7.2100  -13.4952   21.6271 C   0  0  0  0  0  0  0  0  0  0  0  0
    8.0976  -14.1719   20.5904 C   0  0  2  0  0  0  0  0  0  0  0  0
    7.2843  -14.6050   19.4816 N   0  0  0  0  0  0  0  0  0  0  0  0
    8.8668  -15.2912   21.1901 C   0  0  0  0  0  0  0  0  0  0  0  0
    8.4392  -16.4585   21.0149 O   0  0  0  0  0  0  0  0  0  0  0  0
   10.0495  -15.1174   21.9452 N   0  0  0  0  0  0  0  0  0  0  0  0
   10.8375  -16.1586   22.5142 C   0  0  1  0  0  0  0  0  0  0  0  0
   12.3193  -15.9170   22.5063 C   0  0  0  0  0  0  0  0  0  0  0  0
   13.1015  -17.0753   22.9959 C   0  0  0  0  0  0  0  0  0  0  0  0
   13.6049  -17.0040   24.1468 O   0  0  0  0  0  0  0  0  0  0  0  0
   10.4182  -16.5327   23.8848 C   0  0  0  0  0  0  0  0  0  0  0  0
   10.8768  -17.5206   24.4899 O   0  0  0  0  0  0  0  0  0  0  0  0
   13.3014  -18.2240   22.2486 O   0  0  0  0  0  0  0  0  0  0  0  0
    9.4555  -15.7177   24.5110 O   0  0  0  0  0  0  0  0  0  0  0  0
  2  5  1  0
  2  1  1  6
  3  2  1  0
  4  3  1  0
  5  6  2  0
  8  7  1  1
  8 10  1  0
  9  8  1  0
  9  5  1  0
 10 11  2  0
 12 13  1  0
 12 10  1  0
 13 17  1  0
 13 14  1  1
 15 14  1  0
 16 15  2  0
 17 18  2  0
 17 20  1  0
 19 15  1  0
M  END
$$$$
