CAD.pdb
     RDKit          3D

 20 19  0  0  1  0  0  0  0  0999 V2000
    8.1576  -16.7973   16.5616 N   0  0  0  0  0  0  0  0  0  0  0  0
    7.3295  -16.3194   17.6059 C   0  0  1  0  0  0  0  0  0  0  0  0
    6.2955  -17.4001   17.9071 C   0  0  0  0  0  0  0  0  0  0  0  0
    6.9975  -18.5735   19.0974 S   0  0  0  0  0  0  0  0  0  0  0  0
    7.9754  -15.8196   18.8115 C   0  0  0  0  0  0  0  0  0  0  0  0
    9.1499  -16.2504   19.0776 O   0  0  0  0  0  0  0  0  0  0  0  0
    7.4465  -13.3849   21.6391 C   0  0  0  0  0  0  0  0  0  0  0  0
    8.2440  -14.4291   20.8683 C   0  0  2  0  0  0  0  0  0  0  0  0
    7.4592  -14.8948   19.7522 N   0  0  0  0  0  0  0  0  0  0  0  0
    8.6706  -15.5413   21.7544 C   0  0  0  0  0  0  0  0  0  0  0  0
    7.7984  -16.3644   22.1258 O   0  0  0  0  0  0  0  0  0  0  0  0
    9.9989  -15.7250   22.2026 N   0  0  0  0  0  0  0  0  0  0  0  0
   10.4597  -16.7827   23.0380 C   0  0  1  0  0  0  0  0  0  0  0  0
   10.9366  -18.0085   22.3142 C   0  0  0  0  0  0  0  0  0  0  0  0
   10.4968  -19.2704   22.9523 C   0  0  0  0  0  0  0  0  0  0  0  0
    9.8958  -19.1964   24.0552 O   0  0  0  0  0  0  0  0  0  0  0  0
   11.4992  -16.3595   24.0047 C   0  0  0  0  0  0  0  0  0  0  0  0
   11.8803  -17.0762   24.9499 O   0  0  0  0  0  0  0  0  0  0  0  0
   10.7162  -20.5181   22.3929 O   0  0  0  0  0  0  0  0  0  0  0  0
   12.0676  -15.0836   23.8249 O   0  0  0  0  0  0  0  0  0  0  0  0
  2  5  1  0
  2  1  1  6
  3  2  1  0
  4  3  1  0
  5  6  2  0
  8  7  1  1
  8 10  1  0
  9  8  1  0
  9  5  1  0
 10 11  2  0
 12 13  1  0
 12 10  1  0
 13 17  1  0
 13 14  1  6
 15 14  1  0
 16 15  2  0
 17 18  2  0
 17 20  1  0
 19 15  1  0
M  END
$$$$
