CAD.pdb
     RDKit          3D

 20 19  0  0  1  0  0  0  0  0999 V2000
    5.3039  -13.0456   26.8314 N   0  0  0  0  0  0  0  0  0  0  0  0
    6.0669  -12.6218   25.7165 C   0  0  1  0  0  0  0  0  0  0  0  0
    7.1089  -11.6278   26.2207 C   0  0  0  0  0  0  0  0  0  0  0  0
    8.2772  -12.4949   27.3022 S   0  0  0  0  0  0  0  0  0  0  0  0
    6.6478  -13.6467   24.8606 C   0  0  0  0  0  0  0  0  0  0  0  0
    6.9609  -14.7631   25.4004 O   0  0  0  0  0  0  0  0  0  0  0  0
    7.4224  -14.4125   21.2656 C   0  0  0  0  0  0  0  0  0  0  0  0
    7.5786  -14.6347   22.7646 C   0  0  2  0  0  0  0  0  0  0  0  0
    6.9185  -13.5663   23.4725 N   0  0  0  0  0  0  0  0  0  0  0  0
    9.0089  -14.7563   23.1436 C   0  0  0  0  0  0  0  0  0  0  0  0
    9.5054  -13.8541   23.8617 O   0  0  0  0  0  0  0  0  0  0  0  0
    9.8408  -15.8269   22.7424 N   0  0  0  0  0  0  0  0  0  0  0  0
   10.8115  -16.4799   23.5549 C   0  0  1  0  0  0  0  0  0  0  0  0
   10.2995  -17.0097   24.8630 C   0  0  0  0  0  0  0  0  0  0  0  0
   11.3287  -17.7374   25.6403 C   0  0  0  0  0  0  0  0  0  0  0  0
   12.4794  -17.8434   25.1426 O   0  0  0  0  0  0  0  0  0  0  0  0
   11.5391  -17.5605   22.8498 C   0  0  0  0  0  0  0  0  0  0  0  0
   12.7770  -17.5667   22.7090 O   0  0  0  0  0  0  0  0  0  0  0  0
   11.0821  -18.3018   26.8807 O   0  0  0  0  0  0  0  0  0  0  0  0
   10.7730  -18.6184   22.3233 O   0  0  0  0  0  0  0  0  0  0  0  0
  2  5  1  0
  2  1  1  1
  3  2  1  0
  4  3  1  0
  5  6  2  0
  8  7  1  6
  8 10  1  0
  9  8  1  0
  9  5  1  0
 10 11  2  0
 12 13  1  0
 12 10  1  0
 13 17  1  0
 13 14  1  1
 15 14  1  0
 16 15  2  0
 17 18  2  0
 17 20  1  0
 19 15  1  0
M  END
$$$$
