CAD.pdb
     RDKit          3D

 20 19  0  0  1  0  0  0  0  0999 V2000
    0.2225  -20.5387   21.0596 N   0  0  0  0  0  0  0  0  0  0  0  0
    0.9150  -19.7128   21.9778 C   0  0  1  0  0  0  0  0  0  0  0  0
    0.3602  -20.0024   23.3693 C   0  0  0  0  0  0  0  0  0  0  0  0
   -1.0952  -18.9595   23.6533 S   0  0  0  0  0  0  0  0  0  0  0  0
    2.3707  -19.7329   21.9468 C   0  0  0  0  0  0  0  0  0  0  0  0
    2.9498  -20.8720   22.0005 O   0  0  0  0  0  0  0  0  0  0  0  0
    5.3363  -17.4913   21.4096 C   0  0  0  0  0  0  0  0  0  0  0  0
    4.6833  -18.7959   21.8480 C   0  0  2  0  0  0  0  0  0  0  0  0
    3.2517  -18.6268   21.8630 N   0  0  0  0  0  0  0  0  0  0  0  0
    5.2071  -19.2434   23.1632 C   0  0  0  0  0  0  0  0  0  0  0  0
    4.7577  -18.6870   24.1949 O   0  0  0  0  0  0  0  0  0  0  0  0
    6.1804  -20.2571   23.3187 N   0  0  0  0  0  0  0  0  0  0  0  0
    6.7634  -20.6731   24.5500 C   0  0  1  0  0  0  0  0  0  0  0  0
    6.5113  -22.1045   24.9262 C   0  0  0  0  0  0  0  0  0  0  0  0
    7.1229  -22.4836   26.2206 C   0  0  0  0  0  0  0  0  0  0  0  0
    7.4838  -21.5607   26.9960 O   0  0  0  0  0  0  0  0  0  0  0  0
    8.2173  -20.4022   24.6345 C   0  0  0  0  0  0  0  0  0  0  0  0
    8.8247  -20.2835   25.7158 O   0  0  0  0  0  0  0  0  0  0  0  0
    7.3134  -23.7983   26.6116 O   0  0  0  0  0  0  0  0  0  0  0  0
    8.9228  -20.2777   23.4221 O   0  0  0  0  0  0  0  0  0  0  0  0
  2  5  1  0
  2  1  1  6
  3  2  1  0
  4  3  1  0
  5  6  2  0
  8  7  1  1
  8 10  1  0
  9  8  1  0
  9  5  1  0
 10 11  2  0
 12 13  1  0
 12 10  1  0
 13 17  1  0
 13 14  1  6
 15 14  1  0
 16 15  2  0
 17 18  2  0
 17 20  1  0
 19 15  1  0
M  END
$$$$
