EPV.pdb
     RDKit          3D

 24 24  0  0  1  0  0  0  0  0999 V2000
   10.0863  -16.5829   19.8764 N   0  0  0  0  0  0  0  0  0  0  0  0
   10.4536  -17.2852   21.0659 C   0  0  1  0  0  0  0  0  0  0  0  0
   11.9633  -17.4446   21.0060 C   0  0  0  0  0  0  0  0  0  0  0  0
   12.3380  -18.8958   20.9371 C   0  0  0  0  0  0  0  0  0  0  0  0
   13.6378  -19.1592   21.6232 C   0  0  0  0  0  0  0  0  0  0  0  0
   13.7251  -19.1342   22.8637 O   0  0  0  0  0  0  0  0  0  0  0  0
    9.9720  -16.7357   22.3344 C   0  0  0  0  0  0  0  0  0  0  0  0
   10.6590  -15.7312   22.7620 O   0  0  0  0  0  0  0  0  0  0  0  0
   14.7338  -19.4304   20.8209 O   0  0  0  0  0  0  0  0  0  0  0  0
    8.8984  -17.1352   23.1296 N   0  0  0  0  0  0  0  0  0  0  0  0
    7.5831  -17.5503   22.6224 C   0  0  0  0  0  0  0  0  0  0  0  0
    7.5273  -18.9343   23.2926 C   0  0  0  0  0  0  0  0  0  0  0  0
    8.3481  -18.7806   24.5848 C   0  0  0  0  0  0  0  0  0  0  0  0
    8.6522  -17.2890   24.5310 C   0  0  1  0  0  0  0  0  0  0  0  0
    9.5820  -16.8308   25.5087 C   0  0  0  0  0  0  0  0  0  0  0  0
   10.8019  -17.0336   25.6470 O   0  0  0  0  0  0  0  0  0  0  0  0
   10.1206  -13.6390   29.3002 C   0  0  0  0  0  0  0  0  0  0  0  0
    9.1843  -14.2657   28.2889 C   0  0  1  0  0  0  0  0  0  0  0  0
    8.7729  -13.1882   27.3159 C   0  0  0  0  0  0  0  0  0  0  0  0
    9.8604  -15.4221   27.5891 C   0  0  2  0  0  0  0  0  0  0  0  0
    9.0272  -15.9702   26.5402 N   0  0  0  0  0  0  0  0  0  0  0  0
   10.2107  -16.4515   28.6031 C   0  0  0  0  0  0  0  0  0  0  0  0
    9.4178  -17.4091   28.7638 O   0  0  0  0  0  0  0  0  0  0  0  0
   11.3521  -16.4168   29.3756 O   0  0  0  0  0  0  0  0  0  0  0  0
  2  1  1  6
  2  3  1  0
  3  4  1  0
  4  5  1  0
  5  9  1  0
  5  6  2  0
  7  2  1  0
  8  7  2  0
 10  7  1  0
 10 14  1  0
 11 12  1  0
 11 10  1  0
 12 13  1  0
 13 14  1  0
 14 15  1  1
 15 16  2  0
 18 17  1  1
 18 20  1  0
 19 18  1  0
 20 21  1  6
 20 22  1  0
 21 15  1  0
 22 23  2  0
 22 24  1  0
M  END
$$$$
