EPV.pdb
     RDKit          3D

 24 24  0  0  1  0  0  0  0  0999 V2000
   10.5682  -16.2011   19.2419 N   0  0  0  0  0  0  0  0  0  0  0  0
   10.3555  -16.8438   20.5008 C   0  0  1  0  0  0  0  0  0  0  0  0
   11.7222  -17.3229   20.9599 C   0  0  0  0  0  0  0  0  0  0  0  0
   11.6083  -18.0892   22.2448 C   0  0  0  0  0  0  0  0  0  0  0  0
   12.9424  -18.5607   22.7216 C   0  0  0  0  0  0  0  0  0  0  0  0
   13.9904  -18.1948   22.1605 O   0  0  0  0  0  0  0  0  0  0  0  0
    9.6289  -16.0825   21.5183 C   0  0  0  0  0  0  0  0  0  0  0  0
   10.3455  -15.1894   22.1120 O   0  0  0  0  0  0  0  0  0  0  0  0
   12.9593  -19.4181   23.8094 O   0  0  0  0  0  0  0  0  0  0  0  0
    8.2999  -16.1831   21.9282 N   0  0  0  0  0  0  0  0  0  0  0  0
    7.1744  -16.5457   21.0556 C   0  0  0  0  0  0  0  0  0  0  0  0
    6.6544  -17.7427   21.8709 C   0  0  0  0  0  0  0  0  0  0  0  0
    7.0155  -17.4134   23.3298 C   0  0  0  0  0  0  0  0  0  0  0  0
    7.5811  -16.0101   23.1536 C   0  0  1  0  0  0  0  0  0  0  0  0
    8.2015  -15.4635   24.3141 C   0  0  0  0  0  0  0  0  0  0  0  0
    9.1784  -15.8435   24.9847 O   0  0  0  0  0  0  0  0  0  0  0  0
    7.3488  -11.5050   25.0281 C   0  0  0  0  0  0  0  0  0  0  0  0
    7.3912  -12.3092   26.3100 C   0  0  1  0  0  0  0  0  0  0  0  0
    5.9737  -12.4571   26.8055 C   0  0  0  0  0  0  0  0  0  0  0  0
    8.0422  -13.6519   26.0698 C   0  0  2  0  0  0  0  0  0  0  0  0
    7.6014  -14.2419   24.8239 N   0  0  0  0  0  0  0  0  0  0  0  0
    7.7474  -14.5364   27.2279 C   0  0  0  0  0  0  0  0  0  0  0  0
    8.2533  -14.2392   28.3357 O   0  0  0  0  0  0  0  0  0  0  0  0
    6.9530  -15.6610   27.1576 O   0  0  0  0  0  0  0  0  0  0  0  0
  2  1  1  6
  2  3  1  0
  3  4  1  0
  4  5  1  0
  5  9  1  0
  5  6  2  0
  7  2  1  0
  8  7  2  0
 10  7  1  0
 10 14  1  0
 11 12  1  0
 11 10  1  0
 12 13  1  0
 13 14  1  0
 14 15  1  1
 15 16  2  0
 18 17  1  6
 18 20  1  0
 19 18  1  0
 20 21  1  6
 20 22  1  0
 21 15  1  0
 22 23  2  0
 22 24  1  0
M  END
$$$$
