EPV.pdb
     RDKit          3D

 24 24  0  0  1  0  0  0  0  0999 V2000
   11.0436  -17.1472   19.6425 N   0  0  0  0  0  0  0  0  0  0  0  0
    9.8225  -16.9312   20.3533 C   0  0  1  0  0  0  0  0  0  0  0  0
    9.2547  -18.3120   20.6348 C   0  0  0  0  0  0  0  0  0  0  0  0
   10.2426  -19.3758   20.2561 C   0  0  0  0  0  0  0  0  0  0  0  0
    9.6582  -20.7423   20.3995 C   0  0  0  0  0  0  0  0  0  0  0  0
    8.4664  -20.9001   20.7185 O   0  0  0  0  0  0  0  0  0  0  0  0
    9.8886  -16.0721   21.5367 C   0  0  0  0  0  0  0  0  0  0  0  0
   11.0594  -16.0149   22.0750 O   0  0  0  0  0  0  0  0  0  0  0  0
   10.4978  -21.8182   20.1628 O   0  0  0  0  0  0  0  0  0  0  0  0
    8.8869  -15.3219   22.1518 N   0  0  0  0  0  0  0  0  0  0  0  0
    7.9393  -14.4455   21.4493 C   0  0  0  0  0  0  0  0  0  0  0  0
    6.6390  -15.0821   21.9708 C   0  0  0  0  0  0  0  0  0  0  0  0
    6.9984  -15.6303   23.3627 C   0  0  0  0  0  0  0  0  0  0  0  0
    8.4262  -15.1153   23.4909 C   0  0  1  0  0  0  0  0  0  0  0  0
    9.1453  -15.6151   24.6150 C   0  0  0  0  0  0  0  0  0  0  0  0
    9.6179  -16.7400   24.8592 O   0  0  0  0  0  0  0  0  0  0  0  0
    8.8022  -13.4212   28.2665 C   0  0  0  0  0  0  0  0  0  0  0  0
   10.1869  -13.8741   27.8549 C   0  0  1  0  0  0  0  0  0  0  0  0
   10.9347  -14.2586   29.1078 C   0  0  0  0  0  0  0  0  0  0  0  0
   10.0980  -15.0266   26.8813 C   0  0  2  0  0  0  0  0  0  0  0  0
    9.3804  -14.6550   25.6806 N   0  0  0  0  0  0  0  0  0  0  0  0
    9.4562  -16.1791   27.5671 C   0  0  0  0  0  0  0  0  0  0  0  0
    8.2430  -16.3959   27.3376 O   0  0  0  0  0  0  0  0  0  0  0  0
   10.1130  -17.0220   28.4383 O   0  0  0  0  0  0  0  0  0  0  0  0
  2  1  1  1
  2  3  1  0
  3  4  1  0
  4  5  1  0
  5  9  1  0
  5  6  2  0
  7  2  1  0
  8  7  2  0
 10  7  1  0
 10 14  1  0
 11 12  1  0
 11 10  1  0
 12 13  1  0
 13 14  1  0
 14 15  1  1
 15 16  2  0
 18 17  1  1
 18 20  1  0
 19 18  1  0
 20 21  1  6
 20 22  1  0
 21 15  1  0
 22 23  2  0
 22 24  1  0
M  END
$$$$
