EPV.pdb
     RDKit          3D

 24 24  0  0  1  0  0  0  0  0999 V2000
    9.9111  -15.9756   18.9939 N   0  0  0  0  0  0  0  0  0  0  0  0
    9.9724  -16.4769   20.3310 C   0  0  1  0  0  0  0  0  0  0  0  0
   11.4499  -16.5828   20.6687 C   0  0  0  0  0  0  0  0  0  0  0  0
   11.8697  -18.0207   20.7540 C   0  0  0  0  0  0  0  0  0  0  0  0
   12.7911  -18.2551   21.9054 C   0  0  0  0  0  0  0  0  0  0  0  0
   13.2140  -17.3079   22.5918 O   0  0  0  0  0  0  0  0  0  0  0  0
    9.1897  -15.7639   21.3419 C   0  0  0  0  0  0  0  0  0  0  0  0
    9.6513  -14.5943   21.6295 O   0  0  0  0  0  0  0  0  0  0  0  0
   13.1508  -19.5658   22.1719 O   0  0  0  0  0  0  0  0  0  0  0  0
    8.0398  -16.1607   22.0236 N   0  0  0  0  0  0  0  0  0  0  0  0
    6.8827  -16.8252   21.4080 C   0  0  0  0  0  0  0  0  0  0  0  0
    6.8515  -18.0708   22.3110 C   0  0  0  0  0  0  0  0  0  0  0  0
    7.4136  -17.5936   23.6614 C   0  0  0  0  0  0  0  0  0  0  0  0
    7.5691  -16.1059   23.3740 C   0  0  1  0  0  0  0  0  0  0  0  0
    8.2620  -15.3702   24.3786 C   0  0  0  0  0  0  0  0  0  0  0  0
    9.4435  -15.4136   24.7667 O   0  0  0  0  0  0  0  0  0  0  0  0
    7.1722  -11.4783   25.2890 C   0  0  0  0  0  0  0  0  0  0  0  0
    7.1938  -12.3977   26.4915 C   0  0  1  0  0  0  0  0  0  0  0  0
    5.7645  -12.7450   26.8287 C   0  0  0  0  0  0  0  0  0  0  0  0
    8.0143  -13.6325   26.1976 C   0  0  2  0  0  0  0  0  0  0  0  0
    7.4642  -14.3864   25.0914 N   0  0  0  0  0  0  0  0  0  0  0  0
    8.0941  -14.4548   27.4336 C   0  0  0  0  0  0  0  0  0  0  0  0
    8.6729  -13.9606   28.4297 O   0  0  0  0  0  0  0  0  0  0  0  0
    7.5712  -15.7251   27.5505 O   0  0  0  0  0  0  0  0  0  0  0  0
  2  1  1  6
  2  3  1  0
  3  4  1  0
  4  5  1  0
  5  9  1  0
  5  6  2  0
  7  2  1  0
  8  7  2  0
 10  7  1  0
 10 14  1  0
 11 12  1  0
 11 10  1  0
 12 13  1  0
 13 14  1  0
 14 15  1  1
 15 16  2  0
 18 17  1  6
 18 20  1  0
 19 18  1  0
 20 21  1  6
 20 22  1  0
 21 15  1  0
 22 23  2  0
 22 24  1  0
M  END
$$$$
