EPV.pdb
     RDKit          3D

 24 24  0  0  1  0  0  0  0  0999 V2000
   11.0311  -16.8073   19.8330 N   0  0  0  0  0  0  0  0  0  0  0  0
   10.0543  -17.0989   20.8349 C   0  0  1  0  0  0  0  0  0  0  0  0
   10.2687  -18.5543   21.2142 C   0  0  0  0  0  0  0  0  0  0  0  0
   11.2266  -19.2114   20.2646 C   0  0  0  0  0  0  0  0  0  0  0  0
   11.8778  -20.4050   20.8816 C   0  0  0  0  0  0  0  0  0  0  0  0
   12.7868  -21.0162   20.2924 O   0  0  0  0  0  0  0  0  0  0  0  0
    9.9961  -16.1956   21.9854 C   0  0  0  0  0  0  0  0  0  0  0  0
   11.1537  -15.8721   22.4534 O   0  0  0  0  0  0  0  0  0  0  0  0
   11.4266  -20.7975   22.1310 O   0  0  0  0  0  0  0  0  0  0  0  0
    8.8904  -15.6464   22.6336 N   0  0  0  0  0  0  0  0  0  0  0  0
    7.7906  -14.9353   21.9670 C   0  0  0  0  0  0  0  0  0  0  0  0
    6.6323  -15.8013   22.4925 C   0  0  0  0  0  0  0  0  0  0  0  0
    7.1088  -16.3073   23.8651 C   0  0  0  0  0  0  0  0  0  0  0  0
    8.4264  -15.5524   23.9842 C   0  0  1  0  0  0  0  0  0  0  0  0
    9.2433  -15.9418   25.0848 C   0  0  0  0  0  0  0  0  0  0  0  0
    9.9839  -16.9271   25.2554 O   0  0  0  0  0  0  0  0  0  0  0  0
   10.6661  -14.5273   29.6717 C   0  0  0  0  0  0  0  0  0  0  0  0
    9.7546  -14.2791   28.4888 C   0  0  1  0  0  0  0  0  0  0  0  0
   10.0646  -12.9034   27.9519 C   0  0  0  0  0  0  0  0  0  0  0  0
    9.9515  -15.3467   27.4372 C   0  0  2  0  0  0  0  0  0  0  0  0
    9.2231  -15.0404   26.2247 N   0  0  0  0  0  0  0  0  0  0  0  0
    9.5384  -16.6563   28.0071 C   0  0  0  0  0  0  0  0  0  0  0  0
    8.3557  -17.0286   27.8226 O   0  0  0  0  0  0  0  0  0  0  0  0
   10.3754  -17.4843   28.7245 O   0  0  0  0  0  0  0  0  0  0  0  0
  2  1  1  6
  2  3  1  0
  3  4  1  0
  4  5  1  0
  5  9  1  0
  5  6  2  0
  7  2  1  0
  8  7  2  0
 10  7  1  0
 10 14  1  0
 11 12  1  0
 11 10  1  0
 12 13  1  0
 13 14  1  0
 14 15  1  1
 15 16  2  0
 18 17  1  1
 18 20  1  0
 19 18  1  0
 20 21  1  6
 20 22  1  0
 21 15  1  0
 22 23  2  0
 22 24  1  0
M  END
$$$$
