EPV.pdb
     RDKit          3D

 24 24  0  0  1  0  0  0  0  0999 V2000
   10.3752  -14.6636   15.6383 N   0  0  0  0  0  0  0  0  0  0  0  0
    9.3384  -15.2290   16.4435 C   0  0  1  0  0  0  0  0  0  0  0  0
    9.0762  -16.6127   15.8735 C   0  0  0  0  0  0  0  0  0  0  0  0
    7.9966  -17.3072   16.6501 C   0  0  0  0  0  0  0  0  0  0  0  0
    7.7073  -18.6626   16.0944 C   0  0  0  0  0  0  0  0  0  0  0  0
    8.4559  -19.1820   15.2478 O   0  0  0  0  0  0  0  0  0  0  0  0
    9.5471  -15.2218   17.8924 C   0  0  0  0  0  0  0  0  0  0  0  0
   10.3909  -16.1071   18.3022 O   0  0  0  0  0  0  0  0  0  0  0  0
    6.5754  -19.3101   16.5614 O   0  0  0  0  0  0  0  0  0  0  0  0
    8.9757  -14.4106   18.8722 N   0  0  0  0  0  0  0  0  0  0  0  0
    8.6527  -12.9869   18.7038 C   0  0  0  0  0  0  0  0  0  0  0  0
    7.1598  -13.0662   19.0683 C   0  0  0  0  0  0  0  0  0  0  0  0
    7.0579  -14.2352   20.0634 C   0  0  0  0  0  0  0  0  0  0  0  0
    8.5334  -14.5782   20.2229 C   0  0  1  0  0  0  0  0  0  0  0  0
    8.7958  -15.7732   20.9532 C   0  0  0  0  0  0  0  0  0  0  0  0
    8.3330  -16.9235   20.8482 O   0  0  0  0  0  0  0  0  0  0  0  0
   12.3982  -16.9076   21.7395 C   0  0  0  0  0  0  0  0  0  0  0  0
   11.6558  -16.8250   23.0563 C   0  0  1  0  0  0  0  0  0  0  0  0
   12.1353  -15.5885   23.7760 C   0  0  0  0  0  0  0  0  0  0  0  0
   10.1634  -16.7906   22.8199 C   0  0  2  0  0  0  0  0  0  0  0  0
    9.7776  -15.6494   22.0177 N   0  0  0  0  0  0  0  0  0  0  0  0
    9.4739  -16.7910   24.1371 C   0  0  0  0  0  0  0  0  0  0  0  0
    9.6085  -17.8002   24.8685 O   0  0  0  0  0  0  0  0  0  0  0  0
    8.6975  -15.7509   24.6021 O   0  0  0  0  0  0  0  0  0  0  0  0
  2  1  1  6
  2  3  1  0
  3  4  1  0
  4  5  1  0
  5  9  1  0
  5  6  2  0
  7  2  1  0
  8  7  2  0
 10  7  1  0
 10 14  1  0
 11 12  1  0
 11 10  1  0
 12 13  1  0
 13 14  1  0
 14 15  1  6
 15 16  2  0
 18 17  1  6
 18 20  1  0
 19 18  1  0
 20 21  1  1
 20 22  1  0
 21 15  1  0
 22 23  2  0
 22 24  1  0
M  END
$$$$
