EPV.pdb
     RDKit          3D

 24 24  0  0  1  0  0  0  0  0999 V2000
   10.3822  -17.0039   19.4560 N   0  0  0  0  0  0  0  0  0  0  0  0
    9.3217  -17.3123   20.3633 C   0  0  1  0  0  0  0  0  0  0  0  0
    9.3876  -18.8137   20.5859 C   0  0  0  0  0  0  0  0  0  0  0  0
    8.2024  -19.2820   21.3779 C   0  0  0  0  0  0  0  0  0  0  0  0
    7.0364  -19.5808   20.4944 C   0  0  0  0  0  0  0  0  0  0  0  0
    7.1978  -20.0730   19.3636 O   0  0  0  0  0  0  0  0  0  0  0  0
    9.2657  -16.5376   21.6040 C   0  0  0  0  0  0  0  0  0  0  0  0
    9.8248  -17.1215   22.6092 O   0  0  0  0  0  0  0  0  0  0  0  0
    5.7761  -19.2867   20.9881 O   0  0  0  0  0  0  0  0  0  0  0  0
    8.7060  -15.2840   21.8489 N   0  0  0  0  0  0  0  0  0  0  0  0
    8.4904  -14.2449   20.8324 C   0  0  0  0  0  0  0  0  0  0  0  0
    6.9800  -14.0480   21.0514 C   0  0  0  0  0  0  0  0  0  0  0  0
    6.7508  -14.3727   22.5377 C   0  0  0  0  0  0  0  0  0  0  0  0
    8.1900  -14.5880   22.9879 C   0  0  1  0  0  0  0  0  0  0  0  0
    8.3345  -15.1035   24.3084 C   0  0  0  0  0  0  0  0  0  0  0  0
    7.7664  -16.0423   24.8951 O   0  0  0  0  0  0  0  0  0  0  0  0
   11.1077  -15.4083   28.3131 C   0  0  0  0  0  0  0  0  0  0  0  0
   10.9407  -15.0947   26.8414 C   0  0  1  0  0  0  0  0  0  0  0  0
   11.4310  -16.2887   26.0598 C   0  0  0  0  0  0  0  0  0  0  0  0
    9.4963  -14.7774   26.5296 C   0  0  2  0  0  0  0  0  0  0  0  0
    9.3172  -14.4254   25.1373 N   0  0  0  0  0  0  0  0  0  0  0  0
    9.0445  -13.6857   27.4321 C   0  0  0  0  0  0  0  0  0  0  0  0
    8.9199  -13.9475   28.6516 O   0  0  0  0  0  0  0  0  0  0  0  0
    8.7552  -12.4055   27.0098 O   0  0  0  0  0  0  0  0  0  0  0  0
  2  1  1  1
  2  3  1  0
  3  4  1  0
  4  5  1  0
  5  9  1  0
  5  6  2  0
  7  2  1  0
  8  7  2  0
 10  7  1  0
 10 14  1  0
 11 12  1  0
 11 10  1  0
 12 13  1  0
 13 14  1  0
 14 15  1  1
 15 16  2  0
 18 17  1  1
 18 20  1  0
 19 18  1  0
 20 21  1  6
 20 22  1  0
 21 15  1  0
 22 23  2  0
 22 24  1  0
M  END
$$$$
