EPV.pdb
     RDKit          3D

 24 24  0  0  1  0  0  0  0  0999 V2000
   10.3240  -16.1932   18.9730 N   0  0  0  0  0  0  0  0  0  0  0  0
    9.9846  -16.8095   20.2173 C   0  0  1  0  0  0  0  0  0  0  0  0
   11.2769  -17.3991   20.7561 C   0  0  0  0  0  0  0  0  0  0  0  0
   11.8570  -18.3792   19.7793 C   0  0  0  0  0  0  0  0  0  0  0  0
   13.2013  -18.8592   20.2176 C   0  0  0  0  0  0  0  0  0  0  0  0
   13.3274  -19.5893   21.2166 O   0  0  0  0  0  0  0  0  0  0  0  0
    9.2660  -15.9848   21.1901 C   0  0  0  0  0  0  0  0  0  0  0  0
    9.9407  -14.9698   21.6127 O   0  0  0  0  0  0  0  0  0  0  0  0
   14.2933  -18.4569   19.4664 O   0  0  0  0  0  0  0  0  0  0  0  0
    7.9826  -16.1368   21.7138 N   0  0  0  0  0  0  0  0  0  0  0  0
    6.7916  -16.4984   20.9327 C   0  0  0  0  0  0  0  0  0  0  0  0
    6.3770  -17.7381   21.7447 C   0  0  0  0  0  0  0  0  0  0  0  0
    6.8613  -17.4522   23.1767 C   0  0  0  0  0  0  0  0  0  0  0  0
    7.3744  -16.0284   23.0048 C   0  0  1  0  0  0  0  0  0  0  0  0
    8.0844  -15.5074   24.1250 C   0  0  0  0  0  0  0  0  0  0  0  0
    9.2081  -15.7752   24.5876 O   0  0  0  0  0  0  0  0  0  0  0  0
    7.4013  -11.6132   25.3766 C   0  0  0  0  0  0  0  0  0  0  0  0
    7.2719  -12.6355   26.4857 C   0  0  1  0  0  0  0  0  0  0  0  0
    5.8007  -12.8365   26.7545 C   0  0  0  0  0  0  0  0  0  0  0  0
    7.9501  -13.9282   26.0942 C   0  0  2  0  0  0  0  0  0  0  0  0
    7.3897  -14.4761   24.8775 N   0  0  0  0  0  0  0  0  0  0  0  0
    7.8384  -14.8849   27.2268 C   0  0  0  0  0  0  0  0  0  0  0  0
    8.4304  -14.6005   28.2945 O   0  0  0  0  0  0  0  0  0  0  0  0
    7.1245  -16.0632   27.1741 O   0  0  0  0  0  0  0  0  0  0  0  0
  2  1  1  6
  2  3  1  0
  3  4  1  0
  4  5  1  0
  5  9  1  0
  5  6  2  0
  7  2  1  0
  8  7  2  0
 10  7  1  0
 10 14  1  0
 11 12  1  0
 11 10  1  0
 12 13  1  0
 13 14  1  0
 14 15  1  1
 15 16  2  0
 18 17  1  6
 18 20  1  0
 19 18  1  0
 20 21  1  6
 20 22  1  0
 21 15  1  0
 22 23  2  0
 22 24  1  0
M  END
$$$$
