EPV.pdb
     RDKit          3D

 24 24  0  0  1  0  0  0  0  0999 V2000
   10.5958  -16.3114   19.2548 N   0  0  0  0  0  0  0  0  0  0  0  0
   10.6761  -16.6301   20.6458 C   0  0  1  0  0  0  0  0  0  0  0  0
   12.1552  -16.6121   20.9923 C   0  0  0  0  0  0  0  0  0  0  0  0
   12.3641  -16.9787   22.4321 C   0  0  0  0  0  0  0  0  0  0  0  0
   13.1551  -18.2379   22.5677 C   0  0  0  0  0  0  0  0  0  0  0  0
   12.9185  -19.0490   23.4805 O   0  0  0  0  0  0  0  0  0  0  0  0
    9.8510  -15.8341   21.5560 C   0  0  0  0  0  0  0  0  0  0  0  0
   10.5138  -14.9518   22.2240 O   0  0  0  0  0  0  0  0  0  0  0  0
   14.1570  -18.4597   21.6374 O   0  0  0  0  0  0  0  0  0  0  0  0
    8.4790  -15.8924   21.7984 N   0  0  0  0  0  0  0  0  0  0  0  0
    7.4502  -16.1022   20.7703 C   0  0  0  0  0  0  0  0  0  0  0  0
    6.7781  -17.3372   21.3954 C   0  0  0  0  0  0  0  0  0  0  0  0
    6.9769  -17.1698   22.9119 C   0  0  0  0  0  0  0  0  0  0  0  0
    7.6276  -15.7929   22.9444 C   0  0  1  0  0  0  0  0  0  0  0  0
    8.1300  -15.3970   24.2177 C   0  0  0  0  0  0  0  0  0  0  0  0
    9.0744  -15.8288   24.9033 O   0  0  0  0  0  0  0  0  0  0  0  0
    7.2180  -11.5057   25.5804 C   0  0  0  0  0  0  0  0  0  0  0  0
    6.9841  -12.6196   26.5786 C   0  0  1  0  0  0  0  0  0  0  0  0
    5.5001  -12.8887   26.6257 C   0  0  0  0  0  0  0  0  0  0  0  0
    7.7636  -13.8533   26.1855 C   0  0  2  0  0  0  0  0  0  0  0  0
    7.4279  -14.2913   24.8476 N   0  0  0  0  0  0  0  0  0  0  0  0
    7.5053  -14.9183   27.1904 C   0  0  0  0  0  0  0  0  0  0  0  0
    6.6774  -15.8126   26.8966 O   0  0  0  0  0  0  0  0  0  0  0  0
    8.1199  -14.9818   28.4229 O   0  0  0  0  0  0  0  0  0  0  0  0
  2  1  1  6
  2  3  1  0
  3  4  1  0
  4  5  1  0
  5  9  1  0
  5  6  2  0
  7  2  1  0
  8  7  2  0
 10  7  1  0
 10 14  1  0
 11 12  1  0
 11 10  1  0
 12 13  1  0
 13 14  1  0
 14 15  1  1
 15 16  2  0
 18 17  1  6
 18 20  1  0
 19 18  1  0
 20 21  1  6
 20 22  1  0
 21 15  1  0
 22 23  2  0
 22 24  1  0
M  END
$$$$
