EPV.pdb
     RDKit          3D

 24 24  0  0  1  0  0  0  0  0999 V2000
   11.1037  -16.4816   19.5199 N   0  0  0  0  0  0  0  0  0  0  0  0
   10.2969  -16.9707   20.5936 C   0  0  1  0  0  0  0  0  0  0  0  0
   10.8661  -18.3321   20.9554 C   0  0  0  0  0  0  0  0  0  0  0  0
   11.0063  -19.1875   19.7308 C   0  0  0  0  0  0  0  0  0  0  0  0
   11.6210  -20.5095   20.0533 C   0  0  0  0  0  0  0  0  0  0  0  0
   11.9263  -20.8071   21.2217 O   0  0  0  0  0  0  0  0  0  0  0  0
   10.1197  -16.0845   21.7452 C   0  0  0  0  0  0  0  0  0  0  0  0
   11.2274  -15.6959   22.2797 O   0  0  0  0  0  0  0  0  0  0  0  0
   11.8341  -21.3827   18.9995 O   0  0  0  0  0  0  0  0  0  0  0  0
    8.9480  -15.6103   22.3343 N   0  0  0  0  0  0  0  0  0  0  0  0
    7.8417  -14.9684   21.6107 C   0  0  0  0  0  0  0  0  0  0  0  0
    6.7153  -15.9094   22.0730 C   0  0  0  0  0  0  0  0  0  0  0  0
    7.1498  -16.3898   23.4685 C   0  0  0  0  0  0  0  0  0  0  0  0
    8.4079  -15.5523   23.6583 C   0  0  1  0  0  0  0  0  0  0  0  0
    9.1887  -15.8933   24.8004 C   0  0  0  0  0  0  0  0  0  0  0  0
    9.8125  -16.9290   25.0950 O   0  0  0  0  0  0  0  0  0  0  0  0
    8.5638  -13.6085   28.3558 C   0  0  0  0  0  0  0  0  0  0  0  0
    9.9962  -13.8637   27.9376 C   0  0  1  0  0  0  0  0  0  0  0  0
   10.8098  -14.0714   29.1914 C   0  0  0  0  0  0  0  0  0  0  0  0
   10.0725  -15.0602   27.0173 C   0  0  2  0  0  0  0  0  0  0  0  0
    9.2880  -14.8600   25.8177 N   0  0  0  0  0  0  0  0  0  0  0  0
    9.6276  -16.2647   27.7668 C   0  0  0  0  0  0  0  0  0  0  0  0
    8.4593  -16.6763   27.5740 O   0  0  0  0  0  0  0  0  0  0  0  0
   10.4204  -16.9550   28.6589 O   0  0  0  0  0  0  0  0  0  0  0  0
  2  1  1  6
  2  3  1  0
  3  4  1  0
  4  5  1  0
  5  9  1  0
  5  6  2  0
  7  2  1  0
  8  7  2  0
 10  7  1  0
 10 14  1  0
 11 12  1  0
 11 10  1  0
 12 13  1  0
 13 14  1  0
 14 15  1  1
 15 16  2  0
 18 17  1  1
 18 20  1  0
 19 18  1  0
 20 21  1  6
 20 22  1  0
 21 15  1  0
 22 23  2  0
 22 24  1  0
M  END
$$$$
