EPV.pdb
     RDKit          3D

 24 24  0  0  1  0  0  0  0  0999 V2000
   10.3349  -15.4817   15.9422 N   0  0  0  0  0  0  0  0  0  0  0  0
    9.2159  -15.2918   16.8109 C   0  0  1  0  0  0  0  0  0  0  0  0
    8.2060  -16.3606   16.4287 C   0  0  0  0  0  0  0  0  0  0  0  0
    8.7487  -17.7282   16.7226 C   0  0  0  0  0  0  0  0  0  0  0  0
    7.6725  -18.7628   16.6925 C   0  0  0  0  0  0  0  0  0  0  0  0
    6.5642  -18.5210   16.1824 O   0  0  0  0  0  0  0  0  0  0  0  0
    9.4948  -15.2354   18.2469 C   0  0  0  0  0  0  0  0  0  0  0  0
   10.2042  -16.2220   18.6795 O   0  0  0  0  0  0  0  0  0  0  0  0
    7.9627  -19.9949   17.2548 O   0  0  0  0  0  0  0  0  0  0  0  0
    9.1109  -14.2865   19.1938 N   0  0  0  0  0  0  0  0  0  0  0  0
    8.9808  -12.8454   18.9373 C   0  0  0  0  0  0  0  0  0  0  0  0
    7.5197  -12.6828   19.3920 C   0  0  0  0  0  0  0  0  0  0  0  0
    7.3221  -13.7557   20.4768 C   0  0  0  0  0  0  0  0  0  0  0  0
    8.7421  -14.2979   20.5765 C   0  0  1  0  0  0  0  0  0  0  0  0
    8.8826  -15.4671   21.3788 C   0  0  0  0  0  0  0  0  0  0  0  0
    8.2032  -16.5073   21.4483 O   0  0  0  0  0  0  0  0  0  0  0  0
   11.8564  -17.6555   21.6232 C   0  0  0  0  0  0  0  0  0  0  0  0
   11.6557  -17.1261   23.0273 C   0  0  1  0  0  0  0  0  0  0  0  0
   12.7057  -16.0709   23.2737 C   0  0  0  0  0  0  0  0  0  0  0  0
   10.2586  -16.5726   23.1883 C   0  0  2  0  0  0  0  0  0  0  0  0
   10.0172  -15.4661   22.2871 N   0  0  0  0  0  0  0  0  0  0  0  0
   10.0666  -16.1736   24.6076 C   0  0  0  0  0  0  0  0  0  0  0  0
   10.1044  -17.0736   25.4794 O   0  0  0  0  0  0  0  0  0  0  0  0
    9.8503  -14.8766   25.0221 O   0  0  0  0  0  0  0  0  0  0  0  0
  2  1  1  6
  2  3  1  0
  3  4  1  0
  4  5  1  0
  5  9  1  0
  5  6  2  0
  7  2  1  0
  8  7  2  0
 10  7  1  0
 10 14  1  0
 11 12  1  0
 11 10  1  0
 12 13  1  0
 13 14  1  0
 14 15  1  6
 15 16  2  0
 18 17  1  6
 18 20  1  0
 19 18  1  0
 20 21  1  6
 20 22  1  0
 21 15  1  0
 22 23  2  0
 22 24  1  0
M  END
$$$$
