EPV.pdb
     RDKit          3D

 24 24  0  0  1  0  0  0  0  0999 V2000
    9.2266  -16.1792   19.0535 N   0  0  0  0  0  0  0  0  0  0  0  0
    9.1931  -16.9993   20.2237 C   0  0  1  0  0  0  0  0  0  0  0  0
   10.5727  -17.6261   20.3325 C   0  0  0  0  0  0  0  0  0  0  0  0
   11.2265  -17.2410   21.6268 C   0  0  0  0  0  0  0  0  0  0  0  0
   12.3378  -18.1743   21.9783 C   0  0  0  0  0  0  0  0  0  0  0  0
   13.1004  -17.9338   22.9311 O   0  0  0  0  0  0  0  0  0  0  0  0
    8.7374  -16.3665   21.4626 C   0  0  0  0  0  0  0  0  0  0  0  0
    9.3838  -15.2930   21.7684 O   0  0  0  0  0  0  0  0  0  0  0  0
   12.4796  -19.3116   21.2005 O   0  0  0  0  0  0  0  0  0  0  0  0
    7.7247  -16.7509   22.3408 N   0  0  0  0  0  0  0  0  0  0  0  0
    6.5447  -17.5445   21.9702 C   0  0  0  0  0  0  0  0  0  0  0  0
    6.7291  -18.6826   22.9892 C   0  0  0  0  0  0  0  0  0  0  0  0
    7.4366  -18.0281   24.1884 C   0  0  0  0  0  0  0  0  0  0  0  0
    7.4427  -16.5746   23.7328 C   0  0  1  0  0  0  0  0  0  0  0  0
    8.2129  -15.6943   24.5465 C   0  0  0  0  0  0  0  0  0  0  0  0
    9.4189  -15.6964   24.8533 O   0  0  0  0  0  0  0  0  0  0  0  0
    7.0648  -11.7171   25.0008 C   0  0  0  0  0  0  0  0  0  0  0  0
    7.2728  -12.4500   26.3090 C   0  0  1  0  0  0  0  0  0  0  0  0
    5.9118  -12.7755   26.8735 C   0  0  0  0  0  0  0  0  0  0  0  0
    8.0997  -13.6961   26.0906 C   0  0  2  0  0  0  0  0  0  0  0  0
    7.4777  -14.5870   25.1346 N   0  0  0  0  0  0  0  0  0  0  0  0
    8.3097  -14.3626   27.4029 C   0  0  0  0  0  0  0  0  0  0  0  0
    8.9851  -13.7555   28.2670 O   0  0  0  0  0  0  0  0  0  0  0  0
    7.8075  -15.6052   27.7264 O   0  0  0  0  0  0  0  0  0  0  0  0
  2  1  1  6
  2  3  1  0
  3  4  1  0
  4  5  1  0
  5  9  1  0
  5  6  2  0
  7  2  1  0
  8  7  2  0
 10  7  1  0
 10 14  1  0
 11 12  1  0
 11 10  1  0
 12 13  1  0
 13 14  1  0
 14 15  1  1
 15 16  2  0
 18 17  1  6
 18 20  1  0
 19 18  1  0
 20 21  1  6
 20 22  1  0
 21 15  1  0
 22 23  2  0
 22 24  1  0
M  END
$$$$
