PMW.pdb
     RDKit          3D

 30 32  0  0  1  0  0  0  0  0999 V2000
    8.5351  -15.0195   18.8918 N   0  0  0  0  0  0  0  0  0  0  0  0
    8.2939  -14.4849   17.5598 C   0  0  0  0  0  0  0  0  0  0  0  0
    7.4387  -13.2666   17.9177 C   0  0  0  0  0  0  0  0  0  0  0  0
    7.9109  -12.8515   19.2963 C   0  0  0  0  0  0  0  0  0  0  0  0
    9.0014  -13.8285   19.5768 C   0  0  1  0  0  0  0  0  0  0  0  0
    9.2655  -14.0615   21.0023 C   0  0  0  0  0  0  0  0  0  0  0  0
    9.5008  -13.1343   21.8115 O   0  0  0  0  0  0  0  0  0  0  0  0
    6.6208  -12.9436   26.4990 C   0  0  0  0  0  0  0  0  0  0  0  0
    7.0692  -14.3924   25.5095 S   0  0  0  0  0  0  0  0  0  0  0  0
    7.2956  -13.7995   23.7849 C   0  0  0  0  0  0  0  0  0  0  0  0
    7.3874  -15.0128   22.9312 C   0  0  0  0  0  0  0  0  0  0  0  0
    8.7472  -15.6481   22.8489 C   0  0  2  0  0  0  0  0  0  0  0  0
    9.2696  -15.3654   21.5513 N   0  0  0  0  0  0  0  0  0  0  0  0
    8.7745  -17.0695   23.2210 C   0  0  0  0  0  0  0  0  0  0  0  0
    7.6920  -17.6934   23.3595 O   0  0  0  0  0  0  0  0  0  0  0  0
    9.9553  -17.8279   23.4458 N   0  0  0  0  0  0  0  0  0  0  0  0
   10.7868  -17.6680   24.6450 C   0  0  1  0  0  0  0  0  0  0  0  0
   10.8497  -16.2249   25.0404 C   0  0  0  0  0  0  0  0  0  0  0  0
   10.8450  -16.0201   26.4905 C   0  0  0  0  0  0  0  0  0  0  0  0
   11.4456  -16.8671   27.4372 C   0  0  0  0  0  0  0  0  0  0  0  0
   11.2098  -16.3982   28.6720 N   0  0  0  0  0  0  0  0  0  0  0  0
   10.4797  -15.2757   28.5952 C   0  0  0  0  0  0  0  0  0  0  0  0
    9.9846  -14.3944   29.5459 C   0  0  0  0  0  0  0  0  0  0  0  0
    9.2735  -13.2878   29.1799 C   0  0  0  0  0  0  0  0  0  0  0  0
    9.0403  -13.0376   27.8362 C   0  0  0  0  0  0  0  0  0  0  0  0
    9.5318  -13.9121   26.9192 C   0  0  0  0  0  0  0  0  0  0  0  0
   10.2486  -15.0336   27.2392 C   0  0  0  0  0  0  0  0  0  0  0  0
   10.3873  -18.5673   25.7190 C   0  0  0  0  0  0  0  0  0  0  0  0
   11.3429  -19.3247   26.4271 O   0  0  0  0  0  0  0  0  0  0  0  0
    9.2032  -18.7334   26.0861 O   0  0  0  0  0  0  0  0  0  0  0  0
  1  2  1  0
  3  2  1  0
  4  3  1  0
  5  6  1  1
  5  4  1  0
  5  1  1  0
  6  7  2  0
  9  8  1  0
 10 11  1  0
 10  9  1  0
 12 11  1  6
 12 14  1  0
 13 12  1  0
 13  6  1  0
 14 15  2  0
 14 16  1  0
 16 17  1  0
 17 28  1  0
 17 18  1  1
 19 18  1  0
 20 19  2  0
 21 20  1  0
 22 21  1  0
 22 27  2  0
 23 22  1  0
 24 23  2  0
 24 25  1  0
 25 26  2  0
 26 27  1  0
 27 19  1  0
 28 30  2  0
 28 29  1  0
M  END
$$$$
