PMW.pdb
     RDKit          3D

 30 32  0  0  1  0  0  0  0  0999 V2000
    7.0785  -15.4215   20.4867 N   0  0  0  0  0  0  0  0  0  0  0  0
    6.8902  -15.4651   19.0442 C   0  0  0  0  0  0  0  0  0  0  0  0
    7.3948  -14.0684   18.6722 C   0  0  0  0  0  0  0  0  0  0  0  0
    8.4332  -13.7370   19.7247 C   0  0  0  0  0  0  0  0  0  0  0  0
    8.4552  -14.9698   20.5625 C   0  0  1  0  0  0  0  0  0  0  0  0
    8.9095  -14.7657   21.9437 C   0  0  0  0  0  0  0  0  0  0  0  0
   10.1203  -14.7339   22.2646 O   0  0  0  0  0  0  0  0  0  0  0  0
    5.2946  -12.0886   27.4978 C   0  0  0  0  0  0  0  0  0  0  0  0
    6.8230  -11.4761   26.7442 S   0  0  0  0  0  0  0  0  0  0  0  0
    7.8433  -12.9536   26.3532 C   0  0  0  0  0  0  0  0  0  0  0  0
    7.6141  -13.2553   24.9159 C   0  0  0  0  0  0  0  0  0  0  0  0
    8.4165  -14.3961   24.3554 C   0  0  2  0  0  0  0  0  0  0  0  0
    7.9924  -14.5907   23.0067 N   0  0  0  0  0  0  0  0  0  0  0  0
    8.3991  -15.6114   25.1815 C   0  0  0  0  0  0  0  0  0  0  0  0
    7.2985  -16.1392   25.4820 O   0  0  0  0  0  0  0  0  0  0  0  0
    9.5545  -16.2657   25.6884 N   0  0  0  0  0  0  0  0  0  0  0  0
    9.4830  -17.4569   26.5435 C   0  0  1  0  0  0  0  0  0  0  0  0
    9.6190  -18.6962   25.7140 C   0  0  0  0  0  0  0  0  0  0  0  0
   10.8812  -18.7635   24.9743 C   0  0  0  0  0  0  0  0  0  0  0  0
   12.1506  -18.9666   25.5414 C   0  0  0  0  0  0  0  0  0  0  0  0
   13.0835  -18.9298   24.5777 N   0  0  0  0  0  0  0  0  0  0  0  0
   12.4965  -18.7123   23.3914 C   0  0  0  0  0  0  0  0  0  0  0  0
   12.9795  -18.6055   22.0949 C   0  0  0  0  0  0  0  0  0  0  0  0
   12.1349  -18.4011   21.0417 C   0  0  0  0  0  0  0  0  0  0  0  0
   10.7709  -18.2978   21.2683 C   0  0  0  0  0  0  0  0  0  0  0  0
   10.3160  -18.4037   22.5447 C   0  0  0  0  0  0  0  0  0  0  0  0
   11.1244  -18.6078   23.6304 C   0  0  0  0  0  0  0  0  0  0  0  0
   10.4036  -17.3851   27.6700 C   0  0  0  0  0  0  0  0  0  0  0  0
   10.3906  -18.3650   28.6838 O   0  0  0  0  0  0  0  0  0  0  0  0
   11.2510  -16.4778   27.8222 O   0  0  0  0  0  0  0  0  0  0  0  0
  1  2  1  0
  3  2  1  0
  4  3  1  0
  5  6  1  1
  5  4  1  0
  5  1  1  0
  6  7  2  0
  9  8  1  0
 10 11  1  0
 10  9  1  0
 12 11  1  1
 12 14  1  0
 13 12  1  0
 13  6  1  0
 14 15  2  0
 14 16  1  0
 16 17  1  0
 17 28  1  0
 17 18  1  6
 19 18  1  0
 20 19  2  0
 21 20  1  0
 22 21  1  0
 22 27  2  0
 23 22  1  0
 24 23  2  0
 24 25  1  0
 25 26  2  0
 26 27  1  0
 27 19  1  0
 28 30  2  0
 28 29  1  0
M  END
$$$$
