PMW.pdb
     RDKit          3D

 30 32  0  0  1  0  0  0  0  0999 V2000
    7.1260  -19.6728   21.4685 N   0  0  0  0  0  0  0  0  0  0  0  0
    6.5498  -20.8990   20.9369 C   0  0  0  0  0  0  0  0  0  0  0  0
    6.2911  -20.4619   19.4927 C   0  0  0  0  0  0  0  0  0  0  0  0
    7.3606  -19.4288   19.2016 C   0  0  0  0  0  0  0  0  0  0  0  0
    8.1432  -19.4014   20.4701 C   0  0  1  0  0  0  0  0  0  0  0  0
    8.8627  -18.1462   20.7209 C   0  0  0  0  0  0  0  0  0  0  0  0
    9.9669  -17.8773   20.1934 O   0  0  0  0  0  0  0  0  0  0  0  0
    7.1374  -12.2529   19.3756 C   0  0  0  0  0  0  0  0  0  0  0  0
    7.1770  -12.3057   21.1852 S   0  0  0  0  0  0  0  0  0  0  0  0
    8.5542  -13.4313   21.6467 C   0  0  0  0  0  0  0  0  0  0  0  0
    8.0318  -14.8157   21.5056 C   0  0  0  0  0  0  0  0  0  0  0  0
    9.0109  -15.9142   21.8127 C   0  0  2  0  0  0  0  0  0  0  0  0
    8.3424  -17.1543   21.5852 N   0  0  0  0  0  0  0  0  0  0  0  0
    9.6543  -15.8006   23.1291 C   0  0  0  0  0  0  0  0  0  0  0  0
   10.6560  -15.0535   23.2654 O   0  0  0  0  0  0  0  0  0  0  0  0
    9.2310  -16.4831   24.3017 N   0  0  0  0  0  0  0  0  0  0  0  0
   10.0587  -16.5754   25.5106 C   0  0  1  0  0  0  0  0  0  0  0  0
    9.3943  -15.8607   26.6465 C   0  0  0  0  0  0  0  0  0  0  0  0
    8.0974  -15.2822   26.2886 C   0  0  0  0  0  0  0  0  0  0  0  0
    6.9891  -15.9979   25.8050 C   0  0  0  0  0  0  0  0  0  0  0  0
    5.9858  -15.1468   25.5416 N   0  0  0  0  0  0  0  0  0  0  0  0
    6.3715  -13.8944   25.8276 C   0  0  0  0  0  0  0  0  0  0  0  0
    5.7349  -12.6631   25.7617 C   0  0  0  0  0  0  0  0  0  0  0  0
    6.3709  -11.5182   26.1477 C   0  0  0  0  0  0  0  0  0  0  0  0
    7.6752  -11.5836   26.6136 C   0  0  0  0  0  0  0  0  0  0  0  0
    8.2832  -12.7979   26.6701 C   0  0  0  0  0  0  0  0  0  0  0  0
    7.6859  -13.9707   26.2937 C   0  0  0  0  0  0  0  0  0  0  0  0
   10.4486  -17.9465   25.8106 C   0  0  0  0  0  0  0  0  0  0  0  0
    9.8957  -19.0320   25.1007 O   0  0  0  0  0  0  0  0  0  0  0  0
   11.2778  -18.2591   26.6933 O   0  0  0  0  0  0  0  0  0  0  0  0
  1  2  1  0
  3  2  1  0
  4  3  1  0
  5  6  1  1
  5  4  1  0
  5  1  1  0
  6  7  2  0
  9  8  1  0
 10 11  1  0
 10  9  1  0
 12 11  1  1
 12 14  1  0
 13 12  1  0
 13  6  1  0
 14 15  2  0
 14 16  1  0
 16 17  1  0
 17 28  1  0
 17 18  1  1
 19 18  1  0
 20 19  2  0
 21 20  1  0
 22 21  1  0
 22 27  2  0
 23 22  1  0
 24 23  2  0
 24 25  1  0
 25 26  2  0
 26 27  1  0
 27 19  1  0
 28 30  2  0
 28 29  1  0
M  END
$$$$
