PMW.pdb
     RDKit          3D

 30 32  0  0  1  0  0  0  0  0999 V2000
    7.9004  -19.1142   19.8239 N   0  0  0  0  0  0  0  0  0  0  0  0
    7.6058  -20.0910   18.7860 C   0  0  0  0  0  0  0  0  0  0  0  0
    7.4460  -19.1559   17.5845 C   0  0  0  0  0  0  0  0  0  0  0  0
    8.3514  -17.9786   17.8848 C   0  0  0  0  0  0  0  0  0  0  0  0
    8.9656  -18.3621   19.1878 C   0  0  1  0  0  0  0  0  0  0  0  0
    9.4280  -17.2329   20.0047 C   0  0  0  0  0  0  0  0  0  0  0  0
   10.6190  -16.8439   20.0166 O   0  0  0  0  0  0  0  0  0  0  0  0
    5.5744  -13.3181   24.0655 C   0  0  0  0  0  0  0  0  0  0  0  0
    6.4039  -12.4044   22.7403 S   0  0  0  0  0  0  0  0  0  0  0  0
    8.0378  -13.2082   22.4928 C   0  0  0  0  0  0  0  0  0  0  0  0
    7.7713  -14.5035   21.8140 C   0  0  0  0  0  0  0  0  0  0  0  0
    8.9682  -15.3907   21.6142 C   0  0  2  0  0  0  0  0  0  0  0  0
    8.5421  -16.5093   20.8372 N   0  0  0  0  0  0  0  0  0  0  0  0
    9.6741  -15.7428   22.8541 C   0  0  0  0  0  0  0  0  0  0  0  0
   10.6809  -15.0759   23.2032 O   0  0  0  0  0  0  0  0  0  0  0  0
    9.3080  -16.8059   23.7234 N   0  0  0  0  0  0  0  0  0  0  0  0
   10.0939  -17.1704   24.9087 C   0  0  1  0  0  0  0  0  0  0  0  0
   10.0234  -16.0778   25.9303 C   0  0  0  0  0  0  0  0  0  0  0  0
    8.6850  -15.5001   26.0703 C   0  0  0  0  0  0  0  0  0  0  0  0
    7.4794  -16.1425   25.7416 C   0  0  0  0  0  0  0  0  0  0  0  0
    6.4524  -15.3062   25.9566 N   0  0  0  0  0  0  0  0  0  0  0  0
    6.9153  -14.1338   26.4150 C   0  0  0  0  0  0  0  0  0  0  0  0
    6.2990  -12.9540   26.8074 C   0  0  0  0  0  0  0  0  0  0  0  0
    7.0285  -11.8961   27.2687 C   0  0  0  0  0  0  0  0  0  0  0  0
    8.4090  -11.9992   27.3474 C   0  0  0  0  0  0  0  0  0  0  0  0
    8.9955  -13.1617   26.9577 C   0  0  0  0  0  0  0  0  0  0  0  0
    8.3054  -14.2469   26.4888 C   0  0  0  0  0  0  0  0  0  0  0  0
    9.7474  -18.4906   25.4175 C   0  0  0  0  0  0  0  0  0  0  0  0
   10.4798  -19.0807   26.4679 O   0  0  0  0  0  0  0  0  0  0  0  0
    8.8033  -19.1827   24.9770 O   0  0  0  0  0  0  0  0  0  0  0  0
  1  2  1  0
  3  2  1  0
  4  3  1  0
  5  6  1  1
  5  4  1  0
  5  1  1  0
  6  7  2  0
  9  8  1  0
 10 11  1  0
 10  9  1  0
 12 11  1  1
 12 14  1  0
 13 12  1  0
 13  6  1  0
 14 15  2  0
 14 16  1  0
 16 17  1  0
 17 28  1  0
 17 18  1  1
 19 18  1  0
 20 19  2  0
 21 20  1  0
 22 21  1  0
 22 27  2  0
 23 22  1  0
 24 23  2  0
 24 25  1  0
 25 26  2  0
 26 27  1  0
 27 19  1  0
 28 30  2  0
 28 29  1  0
M  END
$$$$
