PMW.pdb
     RDKit          3D

 30 32  0  0  1  0  0  0  0  0999 V2000
    6.8065  -16.5853   20.5018 N   0  0  0  0  0  0  0  0  0  0  0  0
    6.2924  -16.8927   19.1755 C   0  0  0  0  0  0  0  0  0  0  0  0
    6.5888  -15.5686   18.4665 C   0  0  0  0  0  0  0  0  0  0  0  0
    7.8146  -15.0184   19.1669 C   0  0  0  0  0  0  0  0  0  0  0  0
    8.1246  -16.0800   20.1666 C   0  0  1  0  0  0  0  0  0  0  0  0
    8.8700  -15.6163   21.3436 C   0  0  0  0  0  0  0  0  0  0  0  0
   10.0647  -15.2426   21.2890 O   0  0  0  0  0  0  0  0  0  0  0  0
    6.8149  -11.9256   26.5582 C   0  0  0  0  0  0  0  0  0  0  0  0
    5.9585  -13.4243   26.0110 S   0  0  0  0  0  0  0  0  0  0  0  0
    6.7658  -13.9471   24.4452 C   0  0  0  0  0  0  0  0  0  0  0  0
    7.9183  -14.8030   24.8310 C   0  0  0  0  0  0  0  0  0  0  0  0
    8.9495  -15.0255   23.7603 C   0  0  2  0  0  0  0  0  0  0  0  0
    8.2730  -15.5645   22.6251 N   0  0  0  0  0  0  0  0  0  0  0  0
   10.1188  -15.8006   24.1981 C   0  0  0  0  0  0  0  0  0  0  0  0
   11.2651  -15.2917   24.1132 O   0  0  0  0  0  0  0  0  0  0  0  0
   10.0680  -17.1188   24.7271 N   0  0  0  0  0  0  0  0  0  0  0  0
   11.2697  -17.8651   25.1193 C   0  0  1  0  0  0  0  0  0  0  0  0
   12.0938  -17.0530   26.0701 C   0  0  0  0  0  0  0  0  0  0  0  0
   11.4105  -16.7697   27.3339 C   0  0  0  0  0  0  0  0  0  0  0  0
   10.9870  -17.7310   28.2671 C   0  0  0  0  0  0  0  0  0  0  0  0
   10.3612  -17.1219   29.2859 N   0  0  0  0  0  0  0  0  0  0  0  0
   10.3473  -15.7970   29.0777 C   0  0  0  0  0  0  0  0  0  0  0  0
    9.8583  -14.7231   29.8080 C   0  0  0  0  0  0  0  0  0  0  0  0
   10.0045  -13.4410   29.3617 C   0  0  0  0  0  0  0  0  0  0  0  0
   10.6520  -13.2048   28.1585 C   0  0  0  0  0  0  0  0  0  0  0  0
   11.1233  -14.2688   27.4563 C   0  0  0  0  0  0  0  0  0  0  0  0
   10.9993  -15.5697   27.8637 C   0  0  0  0  0  0  0  0  0  0  0  0
   10.9577  -19.2073   25.5915 C   0  0  0  0  0  0  0  0  0  0  0  0
   11.9816  -20.1243   25.9060 O   0  0  0  0  0  0  0  0  0  0  0  0
    9.7945  -19.6386   25.7500 O   0  0  0  0  0  0  0  0  0  0  0  0
  1  2  1  0
  3  2  1  0
  4  3  1  0
  5  6  1  1
  5  4  1  0
  5  1  1  0
  6  7  2  0
  9  8  1  0
 10 11  1  0
 10  9  1  0
 12 11  1  1
 12 14  1  0
 13 12  1  0
 13  6  1  0
 14 15  2  0
 14 16  1  0
 16 17  1  0
 17 28  1  0
 17 18  1  1
 19 18  1  0
 20 19  2  0
 21 20  1  0
 22 21  1  0
 22 27  2  0
 23 22  1  0
 24 23  2  0
 24 25  1  0
 25 26  2  0
 26 27  1  0
 27 19  1  0
 28 30  2  0
 28 29  1  0
M  END
$$$$
