PMW.pdb
     RDKit          3D

 30 32  0  0  1  0  0  0  0  0999 V2000
    8.1443  -14.9362   18.2284 N   0  0  0  0  0  0  0  0  0  0  0  0
    8.3903  -13.9969   17.1443 C   0  0  0  0  0  0  0  0  0  0  0  0
    7.5626  -12.8067   17.6364 C   0  0  0  0  0  0  0  0  0  0  0  0
    7.5931  -12.9103   19.1478 C   0  0  0  0  0  0  0  0  0  0  0  0
    8.4543  -14.1054   19.3767 C   0  0  1  0  0  0  0  0  0  0  0  0
    8.2231  -14.7936   20.6530 C   0  0  0  0  0  0  0  0  0  0  0  0
    8.4513  -14.2619   21.7643 O   0  0  0  0  0  0  0  0  0  0  0  0
    5.5075  -21.6335   23.4742 C   0  0  0  0  0  0  0  0  0  0  0  0
    5.9978  -20.6105   22.0627 S   0  0  0  0  0  0  0  0  0  0  0  0
    6.6418  -19.0352   22.7558 C   0  0  0  0  0  0  0  0  0  0  0  0
    6.9304  -18.1516   21.5958 C   0  0  0  0  0  0  0  0  0  0  0  0
    7.5167  -16.8089   21.9318 C   0  0  2  0  0  0  0  0  0  0  0  0
    7.7221  -16.1158   20.7013 N   0  0  0  0  0  0  0  0  0  0  0  0
    8.6978  -16.8657   22.8044 C   0  0  0  0  0  0  0  0  0  0  0  0
    9.8097  -16.4762   22.3661 O   0  0  0  0  0  0  0  0  0  0  0  0
    8.6954  -17.3376   24.1450 N   0  0  0  0  0  0  0  0  0  0  0  0
    9.6153  -16.8275   25.1692 C   0  0  1  0  0  0  0  0  0  0  0  0
    9.5943  -15.3302   25.1817 C   0  0  0  0  0  0  0  0  0  0  0  0
    8.2827  -14.7713   25.5164 C   0  0  0  0  0  0  0  0  0  0  0  0
    7.0851  -15.4997   25.6141 C   0  0  0  0  0  0  0  0  0  0  0  0
    6.0737  -14.6642   25.8958 N   0  0  0  0  0  0  0  0  0  0  0  0
    6.5396  -13.4101   25.9920 C   0  0  0  0  0  0  0  0  0  0  0  0
    5.9416  -12.1911   26.2781 C   0  0  0  0  0  0  0  0  0  0  0  0
    6.6757  -11.0413   26.3369 C   0  0  0  0  0  0  0  0  0  0  0  0
    8.0423  -11.0894   26.1070 C   0  0  0  0  0  0  0  0  0  0  0  0
    8.6106  -12.2919   25.8271 C   0  0  0  0  0  0  0  0  0  0  0  0
    7.9151  -13.4688   25.7571 C   0  0  0  0  0  0  0  0  0  0  0  0
    9.3895  -17.4415   26.4706 C   0  0  0  0  0  0  0  0  0  0  0  0
   10.3434  -17.3301   27.5030 O   0  0  0  0  0  0  0  0  0  0  0  0
    8.3646  -18.0949   26.7657 O   0  0  0  0  0  0  0  0  0  0  0  0
  1  2  1  0
  3  2  1  0
  4  3  1  0
  5  6  1  1
  5  4  1  0
  5  1  1  0
  6  7  2  0
  9  8  1  0
 10 11  1  0
 10  9  1  0
 12 11  1  6
 12 14  1  0
 13 12  1  0
 13  6  1  0
 14 15  2  0
 14 16  1  0
 16 17  1  0
 17 28  1  0
 17 18  1  1
 19 18  1  0
 20 19  2  0
 21 20  1  0
 22 21  1  0
 22 27  2  0
 23 22  1  0
 24 23  2  0
 24 25  1  0
 25 26  2  0
 26 27  1  0
 27 19  1  0
 28 30  2  0
 28 29  1  0
M  END
$$$$
