PMW.pdb
     RDKit          3D

 30 32  0  0  1  0  0  0  0  0999 V2000
    6.9911  -17.8906   20.2028 N   0  0  0  0  0  0  0  0  0  0  0  0
    6.5243  -18.4964   18.9646 C   0  0  0  0  0  0  0  0  0  0  0  0
    6.4469  -17.2514   18.0771 C   0  0  0  0  0  0  0  0  0  0  0  0
    7.5167  -16.3231   18.6153 C   0  0  0  0  0  0  0  0  0  0  0  0
    8.1235  -17.1258   19.7152 C   0  0  1  0  0  0  0  0  0  0  0  0
    8.7686  -16.3335   20.7698 C   0  0  0  0  0  0  0  0  0  0  0  0
    9.9050  -15.8224   20.6386 O   0  0  0  0  0  0  0  0  0  0  0  0
    6.2738  -11.9207   26.4565 C   0  0  0  0  0  0  0  0  0  0  0  0
    6.7296  -13.6407   26.1200 S   0  0  0  0  0  0  0  0  0  0  0  0
    7.3336  -13.6930   24.3852 C   0  0  0  0  0  0  0  0  0  0  0  0
    7.7019  -15.1065   24.1100 C   0  0  0  0  0  0  0  0  0  0  0  0
    8.7367  -15.3117   23.0393 C   0  0  2  0  0  0  0  0  0  0  0  0
    8.1345  -16.0989   22.0125 N   0  0  0  0  0  0  0  0  0  0  0  0
   10.0213  -15.8296   23.5306 C   0  0  0  0  0  0  0  0  0  0  0  0
   11.0330  -15.0836   23.5215 O   0  0  0  0  0  0  0  0  0  0  0  0
   10.2291  -17.1430   24.0323 N   0  0  0  0  0  0  0  0  0  0  0  0
   11.5406  -17.6230   24.4851 C   0  0  1  0  0  0  0  0  0  0  0  0
   12.0891  -16.7094   25.5372 C   0  0  0  0  0  0  0  0  0  0  0  0
   11.3153  -16.7257   26.7804 C   0  0  0  0  0  0  0  0  0  0  0  0
   10.7375  -17.8636   27.3682 C   0  0  0  0  0  0  0  0  0  0  0  0
   10.0676  -17.5059   28.4743 N   0  0  0  0  0  0  0  0  0  0  0  0
   10.1714  -16.1809   28.6544 C   0  0  0  0  0  0  0  0  0  0  0  0
    9.6985  -15.3118   29.6274 C   0  0  0  0  0  0  0  0  0  0  0  0
    9.9801  -13.9767   29.5783 C   0  0  0  0  0  0  0  0  0  0  0  0
   10.7513  -13.4776   28.5397 C   0  0  0  0  0  0  0  0  0  0  0  0
   11.2049  -14.3433   27.5951 C   0  0  0  0  0  0  0  0  0  0  0  0
   10.9475  -15.6878   27.6031 C   0  0  0  0  0  0  0  0  0  0  0  0
   11.5137  -19.0287   24.8660 C   0  0  0  0  0  0  0  0  0  0  0  0
   12.6986  -19.7128   25.2069 O   0  0  0  0  0  0  0  0  0  0  0  0
   10.4712  -19.7177   24.9190 O   0  0  0  0  0  0  0  0  0  0  0  0
  1  2  1  0
  3  2  1  0
  4  3  1  0
  5  6  1  1
  5  4  1  0
  5  1  1  0
  6  7  2  0
  9  8  1  0
 10 11  1  0
 10  9  1  0
 12 11  1  1
 12 14  1  0
 13 12  1  0
 13  6  1  0
 14 15  2  0
 14 16  1  0
 16 17  1  0
 17 28  1  0
 17 18  1  1
 19 18  1  0
 20 19  2  0
 21 20  1  0
 22 21  1  0
 22 27  2  0
 23 22  1  0
 24 23  2  0
 24 25  1  0
 25 26  2  0
 26 27  1  0
 27 19  1  0
 28 30  2  0
 28 29  1  0
M  END
$$$$
