FVN.pdb
     RDKit          3D

 27 27  0  0  1  0  0  0  0  0999 V2000
   19.7315  -30.9857   -9.8768 N   0  0  0  0  0  0  0  0  0  0  0  0
   21.1741  -30.9356  -10.0053 C   0  0  1  0  0  0  0  0  0  0  0  0
   21.6332  -29.5780   -9.5062 C   0  0  0  0  0  0  0  0  0  0  0  0
   21.1784  -28.5110  -10.4106 C   0  0  0  0  0  0  0  0  0  0  0  0
   20.1429  -27.6676  -10.0374 C   0  0  0  0  0  0  0  0  0  0  0  0
   19.7369  -26.6752  -10.9024 C   0  0  0  0  0  0  0  0  0  0  0  0
   20.3519  -26.5221  -12.1239 C   0  0  0  0  0  0  0  0  0  0  0  0
   21.3834  -27.3726  -12.4799 C   0  0  0  0  0  0  0  0  0  0  0  0
   21.8214  -28.3789  -11.6450 C   0  0  0  0  0  0  0  0  0  0  0  0
   21.8023  -32.0283   -9.1988 C   0  0  0  0  0  0  0  0  0  0  0  0
   21.2260  -32.4549   -8.1731 O   0  0  0  0  0  0  0  0  0  0  0  0
   25.2941  -34.7893  -10.3136 C   0  0  0  0  0  0  0  0  0  0  0  0
   23.8402  -34.8337   -9.9352 C   0  0  1  0  0  0  0  0  0  0  0  0
   23.3597  -36.2024   -9.5604 C   0  0  0  0  0  0  0  0  0  0  0  0
   23.4873  -33.7976   -8.8893 C   0  0  2  0  0  0  0  0  0  0  0  0
   23.0463  -32.6116   -9.5537 N   0  0  0  0  0  0  0  0  0  0  0  0
   24.7586  -33.5378   -8.1222 C   0  0  0  0  0  0  0  0  0  0  0  0
   25.6361  -32.7360   -8.5519 O   0  0  0  0  0  0  0  0  0  0  0  0
   27.4109  -34.1797   -2.7732 N   0  0  0  0  0  0  0  0  0  0  0  0
   27.0988  -33.3735   -3.8851 C   0  0  0  0  0  0  0  0  0  0  0  0
   27.9293  -32.4668   -4.1833 O   0  0  0  0  0  0  0  0  0  0  0  0
   25.8678  -33.5565   -4.6819 C   0  0  0  0  0  0  0  0  0  0  0  0
   26.2140  -33.8913   -6.0898 C   0  0  2  0  0  0  0  0  0  0  0  0
   25.0261  -34.1768   -6.8910 N   0  0  0  0  0  0  0  0  0  0  0  0
   27.0937  -35.0744   -6.1387 C   0  0  0  0  0  0  0  0  0  0  0  0
   28.4051  -35.0424   -6.5315 O   0  0  0  0  0  0  0  0  0  0  0  0
   26.6172  -36.2112   -5.7970 O   0  0  0  0  0  0  0  0  0  0  0  0
  2  1  1  1
  2 10  1  0
  2  3  1  0
  3  4  1  0
  4  9  2  0
  4  5  1  0
  5  6  2  0
  6  7  1  0
  8  7  2  0
  9  8  1  0
 10 11  2  0
 13 12  1  1
 13 15  1  0
 14 13  1  0
 15 17  1  0
 16 10  1  0
 15 16  1  6
 17 24  1  0
 17 18  2  0
 19 20  1  0
 20 22  1  0
 21 20  2  0
 23 22  1  1
 23 25  1  0
 24 23  1  0
 25 27  2  0
 25 26  1  0
M  END
$$$$
