FVN.pdb
     RDKit          3D

 27 27  0  0  1  0  0  0  0  0999 V2000
   26.2958   -8.3992  -20.3430 N   0  0  0  0  0  0  0  0  0  0  0  0
   26.2932   -7.9845  -18.9545 C   0  0  1  0  0  0  0  0  0  0  0  0
   26.1886   -6.4708  -18.9270 C   0  0  0  0  0  0  0  0  0  0  0  0
   27.4141   -5.8557  -19.4592 C   0  0  0  0  0  0  0  0  0  0  0  0
   27.3973   -5.1987  -20.6801 C   0  0  0  0  0  0  0  0  0  0  0  0
   28.5586   -4.6299  -21.1554 C   0  0  0  0  0  0  0  0  0  0  0  0
   29.7231   -4.7126  -20.4268 C   0  0  0  0  0  0  0  0  0  0  0  0
   29.7215   -5.3720  -19.2106 C   0  0  0  0  0  0  0  0  0  0  0  0
   28.5823   -5.9554  -18.6975 C   0  0  0  0  0  0  0  0  0  0  0  0
   25.1356   -8.6011  -18.2340 C   0  0  0  0  0  0  0  0  0  0  0  0
   24.0058   -8.6192  -18.7719 O   0  0  0  0  0  0  0  0  0  0  0  0
   25.5994   -9.8088  -14.2724 C   0  0  0  0  0  0  0  0  0  0  0  0
   24.5793  -10.5366  -15.1021 C   0  0  1  0  0  0  0  0  0  0  0  0
   23.4305  -11.0740  -14.3045 C   0  0  0  0  0  0  0  0  0  0  0  0
   24.1177   -9.7203  -16.2906 C   0  0  2  0  0  0  0  0  0  0  0  0
   25.2668   -9.1761  -16.9433 N   0  0  0  0  0  0  0  0  0  0  0  0
   23.2553   -8.6211  -15.7248 C   0  0  0  0  0  0  0  0  0  0  0  0
   23.7530   -7.5265  -15.3353 O   0  0  0  0  0  0  0  0  0  0  0  0
   18.7469   -5.2444  -16.5182 N   0  0  0  0  0  0  0  0  0  0  0  0
   19.8968   -5.5834  -15.7789 C   0  0  0  0  0  0  0  0  0  0  0  0
   20.0877   -4.9517  -14.6995 O   0  0  0  0  0  0  0  0  0  0  0  0
   20.8502   -6.6227  -16.2202 C   0  0  0  0  0  0  0  0  0  0  0  0
   20.9795   -7.6755  -15.1766 C   0  0  2  0  0  0  0  0  0  0  0  0
   21.8549   -8.7640  -15.6047 N   0  0  0  0  0  0  0  0  0  0  0  0
   19.6594   -8.2499  -14.8553 C   0  0  0  0  0  0  0  0  0  0  0  0
   18.7158   -7.6258  -14.0837 O   0  0  0  0  0  0  0  0  0  0  0  0
   19.3607   -9.4046  -15.3174 O   0  0  0  0  0  0  0  0  0  0  0  0
  2  1  1  6
  2 10  1  0
  2  3  1  0
  3  4  1  0
  4  9  2  0
  4  5  1  0
  5  6  2  0
  6  7  1  0
  8  7  2  0
  9  8  1  0
 10 11  2  0
 13 12  1  1
 13 15  1  0
 14 13  1  0
 15 17  1  0
 16 10  1  0
 15 16  1  1
 17 24  1  0
 17 18  2  0
 19 20  1  0
 20 22  1  0
 21 20  2  0
 23 22  1  6
 23 25  1  0
 24 23  1  0
 25 27  2  0
 25 26  1  0
M  END
$$$$
