FVN.pdb
     RDKit          3D

 27 27  0  0  1  0  0  0  0  0999 V2000
   21.0747  -13.8083  -18.7594 N   0  0  0  0  0  0  0  0  0  0  0  0
   21.4153  -12.4003  -18.7983 C   0  0  1  0  0  0  0  0  0  0  0  0
   20.6881  -11.7837  -19.9790 C   0  0  0  0  0  0  0  0  0  0  0  0
   21.2917  -12.2212  -21.2469 C   0  0  0  0  0  0  0  0  0  0  0  0
   22.5604  -11.7919  -21.6061 C   0  0  0  0  0  0  0  0  0  0  0  0
   23.1035  -12.2175  -22.7984 C   0  0  0  0  0  0  0  0  0  0  0  0
   22.3951  -13.0597  -23.6247 C   0  0  0  0  0  0  0  0  0  0  0  0
   21.1306  -13.4781  -23.2505 C   0  0  0  0  0  0  0  0  0  0  0  0
   20.5491  -13.0766  -22.0663 C   0  0  0  0  0  0  0  0  0  0  0  0
   21.0012  -11.7338  -17.5241 C   0  0  0  0  0  0  0  0  0  0  0  0
   19.9315  -12.0670  -16.9665 O   0  0  0  0  0  0  0  0  0  0  0  0
   22.8938  -11.3465  -14.2290 C   0  0  0  0  0  0  0  0  0  0  0  0
   22.4666   -9.9980  -14.7369 C   0  0  1  0  0  0  0  0  0  0  0  0
   23.5974   -9.1724  -15.2702 C   0  0  0  0  0  0  0  0  0  0  0  0
   21.3157  -10.0915  -15.7160 C   0  0  2  0  0  0  0  0  0  0  0  0
   21.7837  -10.7216  -16.9103 N   0  0  0  0  0  0  0  0  0  0  0  0
   20.8943   -8.6708  -15.9925 C   0  0  0  0  0  0  0  0  0  0  0  0
   21.5281   -7.9416  -16.8074 O   0  0  0  0  0  0  0  0  0  0  0  0
   17.6960   -6.0918  -17.6743 N   0  0  0  0  0  0  0  0  0  0  0  0
   17.1377   -6.1883  -16.3849 C   0  0  0  0  0  0  0  0  0  0  0  0
   15.8877   -6.0175  -16.2904 O   0  0  0  0  0  0  0  0  0  0  0  0
   17.9501   -6.4742  -15.1840 C   0  0  0  0  0  0  0  0  0  0  0  0
   19.3691   -6.7042  -15.5684 C   0  0  2  0  0  0  0  0  0  0  0  0
   19.7744   -8.0915  -15.3552 N   0  0  0  0  0  0  0  0  0  0  0  0
   20.2655   -5.8394  -14.7783 C   0  0  0  0  0  0  0  0  0  0  0  0
   21.1457   -6.3003  -13.8359 O   0  0  0  0  0  0  0  0  0  0  0  0
   20.2309   -4.5755  -14.9718 O   0  0  0  0  0  0  0  0  0  0  0  0
  2  1  1  1
  2 10  1  0
  2  3  1  0
  3  4  1  0
  4  9  2  0
  4  5  1  0
  5  6  2  0
  6  7  1  0
  8  7  2  0
  9  8  1  0
 10 11  2  0
 13 12  1  6
 13 15  1  0
 14 13  1  0
 15 17  1  0
 16 10  1  0
 15 16  1  6
 17 24  1  0
 17 18  2  0
 19 20  1  0
 20 22  1  0
 21 20  2  0
 23 22  1  1
 23 25  1  0
 24 23  1  0
 25 27  2  0
 25 26  1  0
M  END
$$$$
