FVN.pdb
     RDKit          3D

 27 27  0  0  1  0  0  0  0  0999 V2000
   18.9027  -13.1948  -17.1827 N   0  0  0  0  0  0  0  0  0  0  0  0
   19.9169  -12.2554  -17.6172 C   0  0  1  0  0  0  0  0  0  0  0  0
   19.5330  -11.7731  -19.0040 C   0  0  0  0  0  0  0  0  0  0  0  0
   19.5844  -12.8797  -19.9715 C   0  0  0  0  0  0  0  0  0  0  0  0
   18.4254  -13.3316  -20.5841 C   0  0  0  0  0  0  0  0  0  0  0  0
   18.5012  -14.3688  -21.4878 C   0  0  0  0  0  0  0  0  0  0  0  0
   19.7137  -14.9504  -21.7797 C   0  0  0  0  0  0  0  0  0  0  0  0
   20.8599  -14.4868  -21.1591 C   0  0  0  0  0  0  0  0  0  0  0  0
   20.8297  -13.4515  -20.2487 C   0  0  0  0  0  0  0  0  0  0  0  0
   19.9939  -11.1026  -16.6661 C   0  0  0  0  0  0  0  0  0  0  0  0
   18.9470  -10.6484  -16.1527 O   0  0  0  0  0  0  0  0  0  0  0  0
   23.2086  -10.7745  -14.7435 C   0  0  0  0  0  0  0  0  0  0  0  0
   22.4703   -9.4809  -14.5428 C   0  0  1  0  0  0  0  0  0  0  0  0
   23.3422   -8.2683  -14.6614 C   0  0  0  0  0  0  0  0  0  0  0  0
   21.2349   -9.3840  -15.4125 C   0  0  2  0  0  0  0  0  0  0  0  0
   21.2257  -10.4915  -16.3158 N   0  0  0  0  0  0  0  0  0  0  0  0
   21.3619   -8.0837  -16.1643 C   0  0  0  0  0  0  0  0  0  0  0  0
   21.6430   -8.0588  -17.3963 O   0  0  0  0  0  0  0  0  0  0  0  0
   20.2043   -3.3992  -17.7718 N   0  0  0  0  0  0  0  0  0  0  0  0
   19.3525   -4.5193  -17.8302 C   0  0  0  0  0  0  0  0  0  0  0  0
   18.3180   -4.4122  -18.5506 O   0  0  0  0  0  0  0  0  0  0  0  0
   19.6304   -5.7710  -17.0956 C   0  0  0  0  0  0  0  0  0  0  0  0
   20.8499   -5.6133  -16.2577 C   0  0  2  0  0  0  0  0  0  0  0  0
   21.1727   -6.8368  -15.5276 N   0  0  0  0  0  0  0  0  0  0  0  0
   20.6651   -4.5294  -15.2744 C   0  0  0  0  0  0  0  0  0  0  0  0
   21.4825   -3.4354  -15.1725 O   0  0  0  0  0  0  0  0  0  0  0  0
   19.6846   -4.6002  -14.4561 O   0  0  0  0  0  0  0  0  0  0  0  0
  2  1  1  1
  2 10  1  0
  2  3  1  0
  3  4  1  0
  4  9  2  0
  4  5  1  0
  5  6  2  0
  6  7  1  0
  8  7  2  0
  9  8  1  0
 10 11  2  0
 13 12  1  6
 13 15  1  0
 14 13  1  0
 15 17  1  0
 16 10  1  0
 15 16  1  6
 17 24  1  0
 17 18  2  0
 19 20  1  0
 20 22  1  0
 21 20  2  0
 23 22  1  1
 23 25  1  0
 24 23  1  0
 25 27  2  0
 25 26  1  0
M  END
$$$$
