GAL.pdb
     RDKit          3D

 18 17  0  0  1  0  0  0  0  0999 V2000
   17.0842  -12.0257  -20.8464 N   0  0  0  0  0  0  0  0  0  0  0  0
   17.0301  -11.8617  -19.4232 C   0  0  0  0  0  0  0  0  0  0  0  0
   18.2077  -11.1237  -18.9005 C   0  0  0  0  0  0  0  0  0  0  0  0
   18.9527  -11.7158  -18.0851 O   0  0  0  0  0  0  0  0  0  0  0  0
   20.0427   -7.8914  -19.5085 C   0  0  0  0  0  0  0  0  0  0  0  0
   19.7320   -9.1902  -18.8011 C   0  0  2  0  0  0  0  0  0  0  0  0
   18.5276   -9.8016  -19.2718 N   0  0  0  0  0  0  0  0  0  0  0  0
   19.6137   -8.8527  -17.3379 C   0  0  0  0  0  0  0  0  0  0  0  0
   18.4926   -8.5783  -16.8272 O   0  0  0  0  0  0  0  0  0  0  0  0
   20.8843   -9.3219  -12.0596 C   0  0  0  0  0  0  0  0  0  0  0  0
   22.0153   -8.9294  -12.9740 C   0  0  1  0  0  0  0  0  0  0  0  0
   23.2080   -9.8045  -12.5647 C   0  0  0  0  0  0  0  0  0  0  0  0
   21.7449   -9.2698  -14.4039 C   0  0  0  0  0  0  0  0  0  0  0  0
   20.7105   -8.4707  -15.0918 C   0  0  2  0  0  0  0  0  0  0  0  0
   20.7351   -8.8310  -16.4959 N   0  0  0  0  0  0  0  0  0  0  0  0
   20.7536   -7.0375  -14.9605 C   0  0  0  0  0  0  0  0  0  0  0  0
   21.4825   -6.2997  -15.8807 O   0  0  0  0  0  0  0  0  0  0  0  0
   20.1838   -6.3446  -14.0713 O   0  0  0  0  0  0  0  0  0  0  0  0
  2  3  1  0
  2  1  1  0
  3  4  2  0
  6  5  1  6
  6  8  1  0
  7  6  1  0
  7  3  1  0
  8  9  2  0
 11 10  1  1
 11 12  1  0
 11 13  1  0
 14 13  1  1
 14 16  1  0
 15 14  1  0
 15  8  1  0
 16 18  2  0
 16 17  1  0
M  END
$$$$
