GAL.pdb
     RDKit          3D

 18 17  0  0  1  0  0  0  0  0999 V2000
   28.4750  -20.9756  -14.6629 N   0  0  0  0  0  0  0  0  0  0  0  0
   27.2589  -21.5333  -14.1478 C   0  0  0  0  0  0  0  0  0  0  0  0
   26.8096  -20.8473  -12.9101 C   0  0  0  0  0  0  0  0  0  0  0  0
   27.6009  -20.0386  -12.3711 O   0  0  0  0  0  0  0  0  0  0  0  0
   23.6539  -20.2615  -10.9824 C   0  0  0  0  0  0  0  0  0  0  0  0
   25.1528  -20.2948  -11.1718 C   0  0  2  0  0  0  0  0  0  0  0  0
   25.5487  -21.0575  -12.3152 N   0  0  0  0  0  0  0  0  0  0  0  0
   25.7210  -20.8986   -9.9142 C   0  0  0  0  0  0  0  0  0  0  0  0
   25.8063  -22.1508   -9.7807 O   0  0  0  0  0  0  0  0  0  0  0  0
   29.1614  -20.6763   -5.5992 C   0  0  0  0  0  0  0  0  0  0  0  0
   27.9469  -19.7859   -5.5627 C   0  0  1  0  0  0  0  0  0  0  0  0
   28.4355  -18.4325   -5.0282 C   0  0  0  0  0  0  0  0  0  0  0  0
   27.3998  -19.5014   -6.9241 C   0  0  0  0  0  0  0  0  0  0  0  0
   26.6780  -20.6033   -7.5924 C   0  0  2  0  0  0  0  0  0  0  0  0
   26.1724  -20.0990   -8.8542 N   0  0  0  0  0  0  0  0  0  0  0  0
   25.6163  -21.2599   -6.8749 C   0  0  0  0  0  0  0  0  0  0  0  0
   24.3319  -20.7433   -6.9534 O   0  0  0  0  0  0  0  0  0  0  0  0
   25.7196  -22.2917   -6.1536 O   0  0  0  0  0  0  0  0  0  0  0  0
  2  3  1  0
  2  1  1  0
  3  4  2  0
  6  5  1  1
  6  8  1  0
  7  6  1  0
  7  3  1  0
  8  9  2  0
 11 10  1  6
 11 12  1  0
 11 13  1  0
 14 13  1  1
 14 16  1  0
 15 14  1  0
 15  8  1  0
 16 18  2  0
 16 17  1  0
M  END
$$$$
