GAL.pdb
     RDKit          3D

 18 17  0  0  1  0  0  0  0  0999 V2000
   18.4718  -15.6426  -16.7766 N   0  0  0  0  0  0  0  0  0  0  0  0
   17.7503  -14.4108  -16.6434 C   0  0  0  0  0  0  0  0  0  0  0  0
   18.6149  -13.2280  -16.8842 C   0  0  0  0  0  0  0  0  0  0  0  0
   19.8536  -13.4113  -16.9355 O   0  0  0  0  0  0  0  0  0  0  0  0
   18.3092   -9.6351  -17.9183 C   0  0  0  0  0  0  0  0  0  0  0  0
   19.0109  -10.8370  -17.3296 C   0  0  2  0  0  0  0  0  0  0  0  0
   18.1174  -11.9200  -17.0565 N   0  0  0  0  0  0  0  0  0  0  0  0
   19.6638  -10.3603  -16.0585 C   0  0  0  0  0  0  0  0  0  0  0  0
   19.0592  -10.4391  -14.9533 O   0  0  0  0  0  0  0  0  0  0  0  0
   24.9392  -11.2546  -15.6394 C   0  0  0  0  0  0  0  0  0  0  0  0
   23.4622  -11.0724  -15.4059 C   0  0  1  0  0  0  0  0  0  0  0  0
   23.1339  -11.8846  -14.1456 C   0  0  0  0  0  0  0  0  0  0  0  0
   23.1012   -9.6606  -15.0740 C   0  0  0  0  0  0  0  0  0  0  0  0
   21.6665   -9.3727  -14.8722 C   0  0  2  0  0  0  0  0  0  0  0  0
   20.9563   -9.8160  -16.0558 N   0  0  0  0  0  0  0  0  0  0  0  0
   21.2779   -8.0236  -14.5531 C   0  0  0  0  0  0  0  0  0  0  0  0
   21.4091   -7.5772  -13.2469 O   0  0  0  0  0  0  0  0  0  0  0  0
   20.8132   -7.1638  -15.3532 O   0  0  0  0  0  0  0  0  0  0  0  0
  2  3  1  0
  2  1  1  0
  3  4  2  0
  6  5  1  1
  6  8  1  0
  7  6  1  0
  7  3  1  0
  8  9  2  0
 11 10  1  1
 11 12  1  0
 11 13  1  0
 14 13  1  6
 14 16  1  0
 15 14  1  0
 15  8  1  0
 16 18  2  0
 16 17  1  0
M  END
$$$$
