GAL.pdb
     RDKit          3D

 18 17  0  0  1  0  0  0  0  0999 V2000
   26.2706  -32.6233   -9.8440 N   0  0  0  0  0  0  0  0  0  0  0  0
   25.5497  -33.2820   -8.7943 C   0  0  0  0  0  0  0  0  0  0  0  0
   26.2828  -33.2439   -7.5037 C   0  0  0  0  0  0  0  0  0  0  0  0
   27.3654  -32.6137   -7.4659 O   0  0  0  0  0  0  0  0  0  0  0  0
   25.8727  -34.3735   -3.9305 C   0  0  0  0  0  0  0  0  0  0  0  0
   26.6082  -33.8255   -5.1314 C   0  0  2  0  0  0  0  0  0  0  0  0
   25.8268  -33.8754   -6.3284 N   0  0  0  0  0  0  0  0  0  0  0  0
   27.8516  -34.6629   -5.2795 C   0  0  0  0  0  0  0  0  0  0  0  0
   27.8658  -35.6682   -6.0426 O   0  0  0  0  0  0  0  0  0  0  0  0
   33.7022  -33.7159   -5.6847 C   0  0  0  0  0  0  0  0  0  0  0  0
   32.7293  -34.7087   -5.1042 C   0  0  1  0  0  0  0  0  0  0  0  0
   33.2222  -34.9939   -3.6788 C   0  0  0  0  0  0  0  0  0  0  0  0
   31.3554  -34.1429   -4.9437 C   0  0  0  0  0  0  0  0  0  0  0  0
   30.2676  -35.1068   -4.6801 C   0  0  2  0  0  0  0  0  0  0  0  0
   29.0293  -34.3594   -4.5811 N   0  0  0  0  0  0  0  0  0  0  0  0
   30.3926  -35.9860   -3.5467 C   0  0  0  0  0  0  0  0  0  0  0  0
   29.8881  -35.5788   -2.3211 O   0  0  0  0  0  0  0  0  0  0  0  0
   30.9285  -37.1298   -3.5355 O   0  0  0  0  0  0  0  0  0  0  0  0
  2  3  1  0
  2  1  1  0
  3  4  2  0
  6  5  1  1
  6  8  1  0
  7  6  1  0
  7  3  1  0
  8  9  2  0
 11 10  1  1
 11 12  1  0
 11 13  1  0
 14 13  1  1
 14 16  1  0
 15 14  1  0
 15  8  1  0
 16 18  2  0
 16 17  1  0
M  END
$$$$
