GAL.pdb
     RDKit          3D

 18 17  0  0  1  0  0  0  0  0999 V2000
   14.6674  -13.5355  -16.0779 N   0  0  0  0  0  0  0  0  0  0  0  0
   15.0820  -12.5643  -15.1082 C   0  0  0  0  0  0  0  0  0  0  0  0
   16.1084  -11.6376  -15.6488 C   0  0  0  0  0  0  0  0  0  0  0  0
   17.1896  -12.1318  -16.0457 O   0  0  0  0  0  0  0  0  0  0  0  0
   16.4955   -8.0044  -16.5590 C   0  0  0  0  0  0  0  0  0  0  0  0
   16.9625   -9.4146  -16.2815 C   0  0  2  0  0  0  0  0  0  0  0  0
   15.9301  -10.2418  -15.7376 N   0  0  0  0  0  0  0  0  0  0  0  0
   18.1067   -9.2936  -15.3093 C   0  0  0  0  0  0  0  0  0  0  0  0
   17.9010   -9.3151  -14.0642 O   0  0  0  0  0  0  0  0  0  0  0  0
   23.3399  -11.2263  -14.0021 C   0  0  0  0  0  0  0  0  0  0  0  0
   22.9354   -9.9410  -14.6757 C   0  0  1  0  0  0  0  0  0  0  0  0
   23.9227   -9.7466  -15.8347 C   0  0  0  0  0  0  0  0  0  0  0  0
   21.5861  -10.0243  -15.3129 C   0  0  0  0  0  0  0  0  0  0  0  0
   20.5841   -9.0305  -14.8768 C   0  0  2  0  0  0  0  0  0  0  0  0
   19.4315   -9.1537  -15.7476 N   0  0  0  0  0  0  0  0  0  0  0  0
   20.9816   -7.6491  -14.7948 C   0  0  0  0  0  0  0  0  0  0  0  0
   21.4855   -7.1644  -13.5975 O   0  0  0  0  0  0  0  0  0  0  0  0
   20.9236   -6.7919  -15.7207 O   0  0  0  0  0  0  0  0  0  0  0  0
  2  3  1  0
  2  1  1  0
  3  4  2  0
  6  5  1  1
  6  8  1  0
  7  6  1  0
  7  3  1  0
  8  9  2  0
 11 10  1  6
 11 12  1  0
 11 13  1  0
 14 13  1  6
 14 16  1  0
 15 14  1  0
 15  8  1  0
 16 18  2  0
 16 17  1  0
M  END
$$$$
