GAL.pdb
     RDKit          3D

 18 17  0  0  1  0  0  0  0  0999 V2000
   12.9722  -11.9110  -11.0918 N   0  0  0  0  0  0  0  0  0  0  0  0
   13.8874  -11.0035  -11.7198 C   0  0  0  0  0  0  0  0  0  0  0  0
   14.5392  -10.0993  -10.7389 C   0  0  0  0  0  0  0  0  0  0  0  0
   13.9155   -9.8354   -9.6844 O   0  0  0  0  0  0  0  0  0  0  0  0
   17.7719   -8.2107  -10.2749 C   0  0  0  0  0  0  0  0  0  0  0  0
   16.3446   -8.6064   -9.9748 C   0  0  2  0  0  0  0  0  0  0  0  0
   15.8134   -9.5272  -10.9318 N   0  0  0  0  0  0  0  0  0  0  0  0
   15.5466   -7.3289   -9.9747 C   0  0  0  0  0  0  0  0  0  0  0  0
   14.9908   -6.9147  -11.0295 O   0  0  0  0  0  0  0  0  0  0  0  0
   12.2060   -3.8688   -7.2208 C   0  0  0  0  0  0  0  0  0  0  0  0
   13.6893   -3.7606   -6.9817 C   0  0  1  0  0  0  0  0  0  0  0  0
   13.8566   -3.5622   -5.4689 C   0  0  0  0  0  0  0  0  0  0  0  0
   14.4180   -5.0262   -7.2994 C   0  0  0  0  0  0  0  0  0  0  0  0
   14.6338   -5.3263   -8.7295 C   0  0  2  0  0  0  0  0  0  0  0  0
   15.3928   -6.5588   -8.8127 N   0  0  0  0  0  0  0  0  0  0  0  0
   15.2536   -4.3212   -9.5534 C   0  0  0  0  0  0  0  0  0  0  0  0
   16.6375   -4.2624   -9.6154 O   0  0  0  0  0  0  0  0  0  0  0  0
   14.6633   -3.4520  -10.2544 O   0  0  0  0  0  0  0  0  0  0  0  0
  2  3  1  0
  2  1  1  0
  3  4  2  0
  6  5  1  6
  6  8  1  0
  7  6  1  0
  7  3  1  0
  8  9  2  0
 11 10  1  1
 11 12  1  0
 11 13  1  0
 14 13  1  1
 14 16  1  0
 15 14  1  0
 15  8  1  0
 16 18  2  0
 16 17  1  0
M  END
$$$$
