GAL.pdb
     RDKit          3D

 18 17  0  0  1  0  0  0  0  0999 V2000
   17.0435  -12.9220  -18.0551 N   0  0  0  0  0  0  0  0  0  0  0  0
   17.5328  -12.2194  -19.2050 C   0  0  0  0  0  0  0  0  0  0  0  0
   18.7045  -11.3666  -18.8822 C   0  0  0  0  0  0  0  0  0  0  0  0
   19.6025  -11.8582  -18.1593 O   0  0  0  0  0  0  0  0  0  0  0  0
   20.2162   -8.0978  -19.9512 C   0  0  0  0  0  0  0  0  0  0  0  0
   20.0594   -9.3173  -19.0726 C   0  0  2  0  0  0  0  0  0  0  0  0
   18.8571  -10.0431  -19.3437 N   0  0  0  0  0  0  0  0  0  0  0  0
   20.0615   -8.8141  -17.6528 C   0  0  0  0  0  0  0  0  0  0  0  0
   18.9778   -8.5901  -17.0457 O   0  0  0  0  0  0  0  0  0  0  0  0
   23.7893  -10.8371  -14.2896 C   0  0  0  0  0  0  0  0  0  0  0  0
   22.5395  -10.2841  -14.9232 C   0  0  1  0  0  0  0  0  0  0  0  0
   21.3895  -10.6591  -13.9783 C   0  0  0  0  0  0  0  0  0  0  0  0
   22.5352   -8.7907  -14.9813 C   0  0  0  0  0  0  0  0  0  0  0  0
   21.3422   -8.1535  -15.5750 C   0  0  2  0  0  0  0  0  0  0  0  0
   21.2570   -8.5780  -16.9587 N   0  0  0  0  0  0  0  0  0  0  0  0
   21.2244   -6.7203  -15.5018 C   0  0  0  0  0  0  0  0  0  0  0  0
   20.9159   -6.1325  -14.2845 O   0  0  0  0  0  0  0  0  0  0  0  0
   21.3746   -5.9021  -16.4523 O   0  0  0  0  0  0  0  0  0  0  0  0
  2  3  1  0
  2  1  1  0
  3  4  2  0
  6  5  1  6
  6  8  1  0
  7  6  1  0
  7  3  1  0
  8  9  2  0
 11 10  1  1
 11 12  1  0
 11 13  1  0
 14 13  1  6
 14 16  1  0
 15 14  1  0
 15  8  1  0
 16 18  2  0
 16 17  1  0
M  END
$$$$
