GAL.pdb
     RDKit          3D

 18 17  0  0  1  0  0  0  0  0999 V2000
   19.6014  -17.2574  -15.6987 N   0  0  0  0  0  0  0  0  0  0  0  0
   20.9441  -16.8152  -15.4596 C   0  0  0  0  0  0  0  0  0  0  0  0
   21.9137  -17.9395  -15.4741 C   0  0  0  0  0  0  0  0  0  0  0  0
   21.6714  -18.9285  -14.7435 O   0  0  0  0  0  0  0  0  0  0  0  0
   24.8710  -19.1525  -17.4280 C   0  0  0  0  0  0  0  0  0  0  0  0
   23.9756  -19.0680  -16.2136 C   0  0  2  0  0  0  0  0  0  0  0  0
   23.0834  -17.9511  -16.2613 N   0  0  0  0  0  0  0  0  0  0  0  0
   24.8925  -18.9586  -15.0235 C   0  0  0  0  0  0  0  0  0  0  0  0
   25.3121  -17.8340  -14.6330 O   0  0  0  0  0  0  0  0  0  0  0  0
   26.5431  -19.4580  -10.0550 C   0  0  0  0  0  0  0  0  0  0  0  0
   26.2317  -20.7641  -10.7379 C   0  0  1  0  0  0  0  0  0  0  0  0
   25.2910  -21.5193   -9.7889 C   0  0  0  0  0  0  0  0  0  0  0  0
   25.4576  -20.5825  -12.0034 C   0  0  0  0  0  0  0  0  0  0  0  0
   26.2048  -20.0711  -13.1704 C   0  0  2  0  0  0  0  0  0  0  0  0
   25.3105  -20.0922  -14.3114 N   0  0  0  0  0  0  0  0  0  0  0  0
   27.4477  -20.7085  -13.5197 C   0  0  0  0  0  0  0  0  0  0  0  0
   28.6363  -20.1597  -13.0629 O   0  0  0  0  0  0  0  0  0  0  0  0
   27.5900  -21.7497  -14.2206 O   0  0  0  0  0  0  0  0  0  0  0  0
  2  3  1  0
  2  1  1  0
  3  4  2  0
  6  5  1  6
  6  8  1  0
  7  6  1  0
  7  3  1  0
  8  9  2  0
 11 10  1  1
 11 12  1  0
 11 13  1  0
 14 13  1  1
 14 16  1  0
 15 14  1  0
 15  8  1  0
 16 18  2  0
 16 17  1  0
M  END
$$$$
