GAL.pdb
     RDKit          3D

 18 17  0  0  1  0  0  0  0  0999 V2000
   24.1019  -17.2894  -18.2093 N   0  0  0  0  0  0  0  0  0  0  0  0
   22.7221  -17.3626  -17.8269 C   0  0  0  0  0  0  0  0  0  0  0  0
   22.5577  -17.6166  -16.3733 C   0  0  0  0  0  0  0  0  0  0  0  0
   23.5875  -17.8678  -15.7047 O   0  0  0  0  0  0  0  0  0  0  0  0
   19.8990  -17.4131  -13.7197 C   0  0  0  0  0  0  0  0  0  0  0  0
   21.2393  -17.8015  -14.2998 C   0  0  2  0  0  0  0  0  0  0  0  0
   21.3124  -17.5900  -15.7125 N   0  0  0  0  0  0  0  0  0  0  0  0
   21.4295  -19.2602  -13.9757 C   0  0  0  0  0  0  0  0  0  0  0  0
   21.1039  -20.1537  -14.8056 O   0  0  0  0  0  0  0  0  0  0  0  0
   25.5813  -20.7863  -10.6914 C   0  0  0  0  0  0  0  0  0  0  0  0
   24.5476  -20.6923  -11.7831 C   0  0  1  0  0  0  0  0  0  0  0  0
   24.9644  -21.7198  -12.8444 C   0  0  0  0  0  0  0  0  0  0  0  0
   23.1892  -21.1191  -11.3287 C   0  0  0  0  0  0  0  0  0  0  0  0
   22.1050  -21.0570  -12.3299 C   0  0  2  0  0  0  0  0  0  0  0  0
   21.9706  -19.6761  -12.7505 N   0  0  0  0  0  0  0  0  0  0  0  0
   20.8124  -21.5803  -11.9716 C   0  0  0  0  0  0  0  0  0  0  0  0
   20.5414  -22.9201  -12.2043 O   0  0  0  0  0  0  0  0  0  0  0  0
   19.8577  -20.9387  -11.4496 O   0  0  0  0  0  0  0  0  0  0  0  0
  2  3  1  0
  2  1  1  0
  3  4  2  0
  6  5  1  6
  6  8  1  0
  7  6  1  0
  7  3  1  0
  8  9  2  0
 11 10  1  1
 11 12  1  0
 11 13  1  0
 14 13  1  1
 14 16  1  0
 15 14  1  0
 15  8  1  0
 16 18  2  0
 16 17  1  0
M  END
$$$$
