AFG.pdb
     RDKit          3D

 21 21  0  0  1  0  0  0  0  0999 V2000
   26.1337  -16.7581  -14.5094 C   0  0  0  0  0  0  0  0  0  0  0  0
   27.3646  -17.6292  -14.7582 C   0  0  2  0  0  0  0  0  0  0  0  0
   27.7427  -17.4594  -16.1271 N   0  0  0  0  0  0  0  0  0  0  0  0
   26.9751  -19.0449  -14.4543 C   0  0  0  0  0  0  0  0  0  0  0  0
   26.7015  -19.7939  -15.4270 O   0  0  0  0  0  0  0  0  0  0  0  0
   26.9013  -19.5686  -13.1630 N   0  0  0  0  0  0  0  0  0  0  0  0
   26.6747  -20.9968  -12.9200 C   0  0  1  0  0  0  0  0  0  0  0  0
   27.3560  -21.4288  -11.6652 C   0  0  0  0  0  0  0  0  0  0  0  0
   26.7730  -20.9790  -10.4126 C   0  0  0  0  0  0  0  0  0  0  0  0
   25.4277  -21.1439  -10.0878 C   0  0  0  0  0  0  0  0  0  0  0  0
   24.8839  -20.7264   -8.8934 C   0  0  0  0  0  0  0  0  0  0  0  0
   25.6918  -20.1180   -7.9696 C   0  0  0  0  0  0  0  0  0  0  0  0
   27.0133  -19.9466   -8.2677 C   0  0  0  0  0  0  0  0  0  0  0  0
   27.5703  -20.3642   -9.4692 C   0  0  0  0  0  0  0  0  0  0  0  0
   25.2361  -21.2913  -12.8281 C   0  0  0  0  0  0  0  0  0  0  0  0
   24.8019  -22.4601  -12.6773 O   0  0  0  0  0  0  0  0  0  0  0  0
   24.2353  -20.2651  -12.9045 N   0  0  0  0  0  0  0  0  0  0  0  0
   22.8315  -20.6000  -12.7640 C   0  0  0  0  0  0  0  0  0  0  0  0
   22.0197  -20.0609  -13.8678 C   0  0  0  0  0  0  0  0  0  0  0  0
   22.5692  -19.5366  -14.8677 O   0  0  0  0  0  0  0  0  0  0  0  0
   20.6267  -20.1536  -13.7621 O   0  0  0  0  0  0  0  0  0  0  0  0
  2  1  1  6
  3  2  1  0
  4  5  2  0
  4  2  1  0
  6  4  1  0
  7  6  1  0
  7 15  1  0
  7  8  1  1
  9  8  1  0
 10  9  2  0
 11 10  1  0
 12 11  2  0
 12 13  1  0
 13 14  2  0
 14  9  1  0
 15 17  1  0
 16 15  2  0
 17 18  1  0
 19 21  1  0
 19 18  1  0
 20 19  2  0
M  END
$$$$
