AFG.pdb
     RDKit          3D

 21 21  0  0  1  0  0  0  0  0999 V2000
   26.0898  -20.2149  -18.8761 C   0  0  0  0  0  0  0  0  0  0  0  0
   24.5657  -20.2762  -18.7815 C   0  0  2  0  0  0  0  0  0  0  0  0
   24.0761  -18.9337  -18.8433 N   0  0  0  0  0  0  0  0  0  0  0  0
   24.2281  -20.9380  -17.4792 C   0  0  0  0  0  0  0  0  0  0  0  0
   24.5873  -22.1335  -17.3245 O   0  0  0  0  0  0  0  0  0  0  0  0
   23.5437  -20.3036  -16.4416 N   0  0  0  0  0  0  0  0  0  0  0  0
   23.2681  -20.9803  -15.1703 C   0  0  1  0  0  0  0  0  0  0  0  0
   23.9654  -20.2888  -14.0474 C   0  0  0  0  0  0  0  0  0  0  0  0
   25.3778  -20.0002  -14.2291 C   0  0  0  0  0  0  0  0  0  0  0  0
   26.3734  -20.9744  -14.1841 C   0  0  0  0  0  0  0  0  0  0  0  0
   27.7094  -20.6962  -14.3697 C   0  0  0  0  0  0  0  0  0  0  0  0
   28.0938  -19.4038  -14.6113 C   0  0  0  0  0  0  0  0  0  0  0  0
   27.1341  -18.4337  -14.6596 C   0  0  0  0  0  0  0  0  0  0  0  0
   25.7849  -18.7048  -14.4738 C   0  0  0  0  0  0  0  0  0  0  0  0
   21.8220  -21.0240  -14.9023 C   0  0  0  0  0  0  0  0  0  0  0  0
   21.0757  -20.0338  -15.1016 O   0  0  0  0  0  0  0  0  0  0  0  0
   21.1694  -22.1982  -14.3965 N   0  0  0  0  0  0  0  0  0  0  0  0
   19.7505  -22.1760  -14.0987 C   0  0  0  0  0  0  0  0  0  0  0  0
   19.4866  -21.8984  -12.6770 C   0  0  0  0  0  0  0  0  0  0  0  0
   20.3033  -21.2327  -11.9940 O   0  0  0  0  0  0  0  0  0  0  0  0
   18.3034  -22.3991  -12.1206 O   0  0  0  0  0  0  0  0  0  0  0  0
  2  1  1  1
  3  2  1  0
  4  5  2  0
  4  2  1  0
  6  4  1  0
  7  6  1  0
  7 15  1  0
  7  8  1  1
  9  8  1  0
 10  9  2  0
 11 10  1  0
 12 11  2  0
 12 13  1  0
 13 14  2  0
 14  9  1  0
 15 17  1  0
 16 15  2  0
 17 18  1  0
 19 21  1  0
 19 18  1  0
 20 19  2  0
M  END
$$$$
