AFG.pdb
     RDKit          3D

 21 21  0  0  1  0  0  0  0  0999 V2000
   25.5394  -31.4872   -7.5028 C   0  0  0  0  0  0  0  0  0  0  0  0
   25.7551  -32.6862   -8.4258 C   0  0  2  0  0  0  0  0  0  0  0  0
   24.6383  -32.7498   -9.3171 N   0  0  0  0  0  0  0  0  0  0  0  0
   25.8502  -33.9040   -7.5564 C   0  0  0  0  0  0  0  0  0  0  0  0
   24.8010  -34.5746   -7.3787 O   0  0  0  0  0  0  0  0  0  0  0  0
   27.0290  -34.3274   -6.9411 N   0  0  0  0  0  0  0  0  0  0  0  0
   27.0912  -35.5670   -6.1605 C   0  0  1  0  0  0  0  0  0  0  0  0
   28.1261  -36.4854   -6.7184 C   0  0  0  0  0  0  0  0  0  0  0  0
   28.2057  -37.8152   -6.1385 C   0  0  0  0  0  0  0  0  0  0  0  0
   29.0911  -38.1572   -5.1180 C   0  0  0  0  0  0  0  0  0  0  0  0
   29.1529  -39.4165   -4.5639 C   0  0  0  0  0  0  0  0  0  0  0  0
   28.3095  -40.3910   -5.0279 C   0  0  0  0  0  0  0  0  0  0  0  0
   27.4338  -40.0771   -6.0275 C   0  0  0  0  0  0  0  0  0  0  0  0
   27.3644  -38.8103   -6.5921 C   0  0  0  0  0  0  0  0  0  0  0  0
   27.3917  -35.2830   -4.7485 C   0  0  0  0  0  0  0  0  0  0  0  0
   28.4003  -34.6206   -4.4004 O   0  0  0  0  0  0  0  0  0  0  0  0
   26.5543  -35.7429   -3.6771 N   0  0  0  0  0  0  0  0  0  0  0  0
   26.8573  -35.3835   -2.3054 C   0  0  0  0  0  0  0  0  0  0  0  0
   27.9586  -36.1888   -1.7516 C   0  0  0  0  0  0  0  0  0  0  0  0
   28.4674  -37.1211   -2.4213 O   0  0  0  0  0  0  0  0  0  0  0  0
   28.4127  -35.8796   -0.4638 O   0  0  0  0  0  0  0  0  0  0  0  0
  2  1  1  1
  3  2  1  0
  4  5  2  0
  4  2  1  0
  6  4  1  0
  7  6  1  0
  7 15  1  0
  7  8  1  6
  9  8  1  0
 10  9  2  0
 11 10  1  0
 12 11  2  0
 12 13  1  0
 13 14  2  0
 14  9  1  0
 15 17  1  0
 16 15  2  0
 17 18  1  0
 19 21  1  0
 19 18  1  0
 20 19  2  0
M  END
$$$$
