AFG.pdb
     RDKit          3D

 21 21  0  0  1  0  0  0  0  0999 V2000
   31.0182  -21.7956  -19.3885 C   0  0  0  0  0  0  0  0  0  0  0  0
   31.4227  -23.1164  -20.0424 C   0  0  2  0  0  0  0  0  0  0  0  0
   30.2261  -23.7594  -20.4901 N   0  0  0  0  0  0  0  0  0  0  0  0
   32.1398  -23.9249  -19.0030 C   0  0  0  0  0  0  0  0  0  0  0  0
   33.2254  -23.4699  -18.5597 O   0  0  0  0  0  0  0  0  0  0  0  0
   31.6705  -25.1421  -18.5075 N   0  0  0  0  0  0  0  0  0  0  0  0
   32.4104  -25.9008  -17.4942 C   0  0  1  0  0  0  0  0  0  0  0  0
   31.6252  -25.9878  -16.2287 C   0  0  0  0  0  0  0  0  0  0  0  0
   30.3381  -25.3141  -16.2064 C   0  0  0  0  0  0  0  0  0  0  0  0
   29.1231  -25.9711  -16.3926 C   0  0  0  0  0  0  0  0  0  0  0  0
   27.9056  -25.3285  -16.3578 C   0  0  0  0  0  0  0  0  0  0  0  0
   27.8706  -23.9782  -16.1301 C   0  0  0  0  0  0  0  0  0  0  0  0
   29.0498  -23.3151  -15.9449 C   0  0  0  0  0  0  0  0  0  0  0  0
   30.2821  -23.9545  -15.9782 C   0  0  0  0  0  0  0  0  0  0  0  0
   32.7219  -27.2554  -17.9770 C   0  0  0  0  0  0  0  0  0  0  0  0
   32.4191  -27.6379  -19.1342 O   0  0  0  0  0  0  0  0  0  0  0  0
   33.3907  -28.2275  -17.1597 N   0  0  0  0  0  0  0  0  0  0  0  0
   34.1090  -29.3284  -17.7717 C   0  0  0  0  0  0  0  0  0  0  0  0
   33.2713  -30.5321  -17.9034 C   0  0  0  0  0  0  0  0  0  0  0  0
   33.7873  -31.6415  -18.1855 O   0  0  0  0  0  0  0  0  0  0  0  0
   31.8922  -30.3952  -17.7045 O   0  0  0  0  0  0  0  0  0  0  0  0
  2  1  1  1
  3  2  1  0
  4  5  2  0
  4  2  1  0
  6  4  1  0
  7  6  1  0
  7 15  1  0
  7  8  1  1
  9  8  1  0
 10  9  2  0
 11 10  1  0
 12 11  2  0
 12 13  1  0
 13 14  2  0
 14  9  1  0
 15 17  1  0
 16 15  2  0
 17 18  1  0
 19 21  1  0
 19 18  1  0
 20 19  2  0
M  END
$$$$
