AFG.pdb
     RDKit          3D

 21 21  0  0  1  0  0  0  0  0999 V2000
   26.8393  -18.2954  -15.4648 C   0  0  0  0  0  0  0  0  0  0  0  0
   27.8591  -19.2872  -14.9059 C   0  0  2  0  0  0  0  0  0  0  0  0
   28.3825  -20.0337  -16.0081 N   0  0  0  0  0  0  0  0  0  0  0  0
   27.1360  -20.1630  -13.9270 C   0  0  0  0  0  0  0  0  0  0  0  0
   26.7161  -21.2740  -14.3410 O   0  0  0  0  0  0  0  0  0  0  0  0
   26.9072  -19.8133  -12.5956 N   0  0  0  0  0  0  0  0  0  0  0  0
   26.1813  -20.6973  -11.6782 C   0  0  1  0  0  0  0  0  0  0  0  0
   26.6577  -20.5034  -10.2779 C   0  0  0  0  0  0  0  0  0  0  0  0
   28.0327  -20.8771   -9.9939 C   0  0  0  0  0  0  0  0  0  0  0  0
   28.9117  -21.3652  -10.9591 C   0  0  0  0  0  0  0  0  0  0  0  0
   30.2179  -21.7058  -10.6860 C   0  0  0  0  0  0  0  0  0  0  0  0
   30.6907  -21.5635   -9.4083 C   0  0  0  0  0  0  0  0  0  0  0  0
   29.8459  -21.0868   -8.4472 C   0  0  0  0  0  0  0  0  0  0  0  0
   28.5277  -20.7408   -8.7132 C   0  0  0  0  0  0  0  0  0  0  0  0
   24.7327  -20.4485  -11.7465 C   0  0  0  0  0  0  0  0  0  0  0  0
   24.2582  -19.2904  -11.8516 O   0  0  0  0  0  0  0  0  0  0  0  0
   23.7676  -21.5099  -11.6978 N   0  0  0  0  0  0  0  0  0  0  0  0
   22.3494  -21.2126  -11.7510 C   0  0  0  0  0  0  0  0  0  0  0  0
   21.8337  -21.2152  -13.1301 C   0  0  0  0  0  0  0  0  0  0  0  0
   22.5838  -21.5135  -14.0918 O   0  0  0  0  0  0  0  0  0  0  0  0
   20.4897  -20.8760  -13.3273 O   0  0  0  0  0  0  0  0  0  0  0  0
  2  1  1  6
  3  2  1  0
  4  5  2  0
  4  2  1  0
  6  4  1  0
  7  6  1  0
  7 15  1  0
  7  8  1  1
  9  8  1  0
 10  9  2  0
 11 10  1  0
 12 11  2  0
 12 13  1  0
 13 14  2  0
 14  9  1  0
 15 17  1  0
 16 15  2  0
 17 18  1  0
 19 21  1  0
 19 18  1  0
 20 19  2  0
M  END
$$$$
