AFG.pdb
     RDKit          3D

 21 21  0  0  1  0  0  0  0  0999 V2000
   27.3921  -18.6098  -14.8242 C   0  0  0  0  0  0  0  0  0  0  0  0
   28.1605  -19.5972  -13.9465 C   0  0  2  0  0  0  0  0  0  0  0  0
   29.0087  -20.3659  -14.8040 N   0  0  0  0  0  0  0  0  0  0  0  0
   27.1462  -20.4515  -13.2468 C   0  0  0  0  0  0  0  0  0  0  0  0
   26.8784  -21.5701  -13.7555 O   0  0  0  0  0  0  0  0  0  0  0  0
   26.4914  -20.0740  -12.0737 N   0  0  0  0  0  0  0  0  0  0  0  0
   25.5133  -20.9485  -11.4191 C   0  0  1  0  0  0  0  0  0  0  0  0
   25.3936  -20.6086   -9.9714 C   0  0  0  0  0  0  0  0  0  0  0  0
   26.6211  -20.6037   -9.1940 C   0  0  0  0  0  0  0  0  0  0  0  0
   27.7616  -21.3195   -9.5535 C   0  0  0  0  0  0  0  0  0  0  0  0
   28.9263  -21.3006   -8.8187 C   0  0  0  0  0  0  0  0  0  0  0  0
   28.9818  -20.5464   -7.6766 C   0  0  0  0  0  0  0  0  0  0  0  0
   27.8753  -19.8372   -7.3063 C   0  0  0  0  0  0  0  0  0  0  0  0
   26.6969  -19.8500   -8.0408 C   0  0  0  0  0  0  0  0  0  0  0  0
   24.1954  -20.8362  -12.0638 C   0  0  0  0  0  0  0  0  0  0  0  0
   23.7711  -19.7507  -12.5316 O   0  0  0  0  0  0  0  0  0  0  0  0
   23.3092  -21.9570  -12.2009 N   0  0  0  0  0  0  0  0  0  0  0  0
   22.1069  -21.8454  -13.0038 C   0  0  0  0  0  0  0  0  0  0  0  0
   20.9808  -21.2822  -12.2405 C   0  0  0  0  0  0  0  0  0  0  0  0
   20.9902  -21.2955  -10.9850 O   0  0  0  0  0  0  0  0  0  0  0  0
   19.9100  -20.7369  -12.9592 O   0  0  0  0  0  0  0  0  0  0  0  0
  2  1  1  6
  3  2  1  0
  4  5  2  0
  4  2  1  0
  6  4  1  0
  7  6  1  0
  7 15  1  0
  7  8  1  1
  9  8  1  0
 10  9  2  0
 11 10  1  0
 12 11  2  0
 12 13  1  0
 13 14  2  0
 14  9  1  0
 15 17  1  0
 16 15  2  0
 17 18  1  0
 19 21  1  0
 19 18  1  0
 20 19  2  0
M  END
$$$$
