AFG.pdb
     RDKit          3D

 21 21  0  0  1  0  0  0  0  0999 V2000
   13.5307  -18.2634    7.2294 C   0  0  0  0  0  0  0  0  0  0  0  0
   13.6936  -17.2618    6.0866 C   0  0  2  0  0  0  0  0  0  0  0  0
   12.4780  -17.2671    5.3328 N   0  0  0  0  0  0  0  0  0  0  0  0
   14.8654  -17.7112    5.2662 C   0  0  0  0  0  0  0  0  0  0  0  0
   14.6592  -18.5915    4.3918 O   0  0  0  0  0  0  0  0  0  0  0  0
   16.1582  -17.2092    5.4207 N   0  0  0  0  0  0  0  0  0  0  0  0
   17.2636  -17.6431    4.5606 C   0  0  1  0  0  0  0  0  0  0  0  0
   18.1810  -16.5026    4.2721 C   0  0  0  0  0  0  0  0  0  0  0  0
   19.2856  -16.7613    3.3644 C   0  0  0  0  0  0  0  0  0  0  0  0
   19.1488  -16.7985    1.9779 C   0  0  0  0  0  0  0  0  0  0  0  0
   20.2025  -17.0319    1.1224 C   0  0  0  0  0  0  0  0  0  0  0  0
   21.4518  -17.2393    1.6445 C   0  0  0  0  0  0  0  0  0  0  0  0
   21.6080  -17.2069    3.0006 C   0  0  0  0  0  0  0  0  0  0  0  0
   20.5516  -16.9723    3.8709 C   0  0  0  0  0  0  0  0  0  0  0  0
   18.0188  -18.7381    5.1896 C   0  0  0  0  0  0  0  0  0  0  0  0
   18.3712  -18.7003    6.3945 O   0  0  0  0  0  0  0  0  0  0  0  0
   18.4021  -19.9195    4.4701 N   0  0  0  0  0  0  0  0  0  0  0  0
   19.1810  -20.9536    5.1231 C   0  0  0  0  0  0  0  0  0  0  0  0
   18.3297  -21.9327    5.8193 C   0  0  0  0  0  0  0  0  0  0  0  0
   17.0796  -21.8158    5.8055 O   0  0  0  0  0  0  0  0  0  0  0  0
   18.9593  -22.9879    6.4904 O   0  0  0  0  0  0  0  0  0  0  0  0
  2  1  1  1
  3  2  1  0
  4  5  2  0
  4  2  1  0
  6  4  1  0
  7  6  1  0
  7 15  1  0
  7  8  1  1
  9  8  1  0
 10  9  2  0
 11 10  1  0
 12 11  2  0
 12 13  1  0
 13 14  2  0
 14  9  1  0
 15 17  1  0
 16 15  2  0
 17 18  1  0
 19 21  1  0
 19 18  1  0
 20 19  2  0
M  END
$$$$
