AFG.pdb
     RDKit          3D

 21 21  0  0  1  0  0  0  0  0999 V2000
   27.7818  -21.3485  -17.7851 C   0  0  0  0  0  0  0  0  0  0  0  0
   28.7185  -22.0678  -16.8151 C   0  0  2  0  0  0  0  0  0  0  0  0
   28.8360  -23.4236  -17.2555 N   0  0  0  0  0  0  0  0  0  0  0  0
   28.1037  -21.9715  -15.4509 C   0  0  0  0  0  0  0  0  0  0  0  0
   27.4392  -22.9580  -15.0419 O   0  0  0  0  0  0  0  0  0  0  0  0
   28.2293  -20.8568  -14.6209 N   0  0  0  0  0  0  0  0  0  0  0  0
   27.6924  -20.8448  -13.2565 C   0  0  1  0  0  0  0  0  0  0  0  0
   28.6642  -20.2136  -12.3171 C   0  0  0  0  0  0  0  0  0  0  0  0
   29.7099  -21.0683  -11.7811 C   0  0  0  0  0  0  0  0  0  0  0  0
   30.6393  -21.7366  -12.5760 C   0  0  0  0  0  0  0  0  0  0  0  0
   31.6360  -22.5354  -12.0609 C   0  0  0  0  0  0  0  0  0  0  0  0
   31.7312  -22.6904  -10.7032 C   0  0  0  0  0  0  0  0  0  0  0  0
   30.8304  -22.0442   -9.9060 C   0  0  0  0  0  0  0  0  0  0  0  0
   29.8224  -21.2368  -10.4163 C   0  0  0  0  0  0  0  0  0  0  0  0
   26.4121  -20.1216  -13.2031 C   0  0  0  0  0  0  0  0  0  0  0  0
   25.7938  -19.9370  -12.1256 O   0  0  0  0  0  0  0  0  0  0  0  0
   25.7859  -19.5802  -14.3757 N   0  0  0  0  0  0  0  0  0  0  0  0
   24.5477  -18.8337  -14.2657 C   0  0  0  0  0  0  0  0  0  0  0  0
   23.3644  -19.6985  -14.4063 C   0  0  0  0  0  0  0  0  0  0  0  0
   22.2086  -19.2251  -14.2778 O   0  0  0  0  0  0  0  0  0  0  0  0
   23.5736  -21.0544  -14.6857 O   0  0  0  0  0  0  0  0  0  0  0  0
  2  1  1  6
  3  2  1  0
  4  5  2  0
  4  2  1  0
  6  4  1  0
  7  6  1  0
  7 15  1  0
  7  8  1  1
  9  8  1  0
 10  9  2  0
 11 10  1  0
 12 11  2  0
 12 13  1  0
 13 14  2  0
 14  9  1  0
 15 17  1  0
 16 15  2  0
 17 18  1  0
 19 21  1  0
 19 18  1  0
 20 19  2  0
M  END
$$$$
