ASW.pdb
     RDKit          3D

 26 27  0  0  1  0  0  0  0  0999 V2000
    8.1414  -12.0779   19.6682 C   0  0  0  0  0  0  0  0  0  0  0  0
    8.2969  -13.4828   19.1527 C   0  0  2  0  0  0  0  0  0  0  0  0
    7.3761  -13.6734   18.0671 N   0  0  0  0  0  0  0  0  0  0  0  0
    8.0539  -14.4277   20.2725 C   0  0  0  0  0  0  0  0  0  0  0  0
    6.8924  -14.5609   20.7310 O   0  0  0  0  0  0  0  0  0  0  0  0
   10.2265  -17.7017   20.8535 O   0  0  0  0  0  0  0  0  0  0  0  0
    8.9821  -17.5332   21.4254 C   0  0  0  0  0  0  0  0  0  0  0  0
    8.7652  -16.1104   21.9066 C   0  0  2  0  0  0  0  0  0  0  0  0
    9.0861  -15.2015   20.8611 N   0  0  0  0  0  0  0  0  0  0  0  0
    9.6028  -15.9422   23.1199 C   0  0  0  0  0  0  0  0  0  0  0  0
   10.7757  -15.5214   22.9295 O   0  0  0  0  0  0  0  0  0  0  0  0
    9.1312  -16.2323   24.4284 N   0  0  0  0  0  0  0  0  0  0  0  0
   10.1150  -16.2207   25.5018 C   0  0  1  0  0  0  0  0  0  0  0  0
    9.5708  -15.5554   26.7423 C   0  0  0  0  0  0  0  0  0  0  0  0
    8.1937  -15.0900   26.4492 C   0  0  0  0  0  0  0  0  0  0  0  0
    7.0694  -15.8660   26.1752 C   0  0  0  0  0  0  0  0  0  0  0  0
    6.0179  -15.0582   25.9576 N   0  0  0  0  0  0  0  0  0  0  0  0
    6.4026  -13.7676   26.0772 C   0  0  0  0  0  0  0  0  0  0  0  0
    5.7005  -12.5771   25.9482 C   0  0  0  0  0  0  0  0  0  0  0  0
    6.3972  -11.4035   26.1351 C   0  0  0  0  0  0  0  0  0  0  0  0
    7.7501  -11.4190   26.4408 C   0  0  0  0  0  0  0  0  0  0  0  0
    8.4469  -12.6147   26.5684 C   0  0  0  0  0  0  0  0  0  0  0  0
    7.7448  -13.7780   26.3806 C   0  0  0  0  0  0  0  0  0  0  0  0
   10.4035  -17.6337   25.8431 C   0  0  0  0  0  0  0  0  0  0  0  0
    9.7225  -18.5933   25.3841 O   0  0  0  0  0  0  0  0  0  0  0  0
   11.4646  -17.9051   26.7004 O   0  0  0  0  0  0  0  0  0  0  0  0
  2  1  1  1
  3  2  1  0
  4  2  1  0
  4  9  1  0
  5  4  2  0
  6  7  1  0
  8  7  1  6
  8  9  1  0
 10 11  2  0
 10  8  1  0
 12 10  1  0
 13 12  1  0
 13 14  1  1
 15 14  1  0
 15 16  2  0
 17 16  1  0
 18 17  1  0
 19 18  2  0
 20 19  1  0
 21 20  2  0
 21 22  1  0
 22 23  2  0
 23 18  1  0
 23 15  1  0
 24 13  1  0
 25 24  2  0
 26 24  1  0
M  END
$$$$
