ASW.pdb
     RDKit          3D

 26 27  0  0  1  0  0  0  0  0999 V2000
    7.1355  -12.9541   19.0656 C   0  0  0  0  0  0  0  0  0  0  0  0
    8.4964  -13.2460   19.6371 C   0  0  2  0  0  0  0  0  0  0  0  0
    9.3616  -13.6540   18.5659 N   0  0  0  0  0  0  0  0  0  0  0  0
    8.3569  -14.2931   20.6811 C   0  0  0  0  0  0  0  0  0  0  0  0
    7.5828  -14.1026   21.6514 O   0  0  0  0  0  0  0  0  0  0  0  0
   10.6950  -17.7242   20.7364 O   0  0  0  0  0  0  0  0  0  0  0  0
    9.4046  -17.8261   21.2141 C   0  0  0  0  0  0  0  0  0  0  0  0
    8.8557  -16.4837   21.6610 C   0  0  2  0  0  0  0  0  0  0  0  0
    9.0666  -15.5199   20.6370 N   0  0  0  0  0  0  0  0  0  0  0  0
    9.5345  -16.1535   22.9385 C   0  0  0  0  0  0  0  0  0  0  0  0
   10.5307  -15.3857   22.8543 O   0  0  0  0  0  0  0  0  0  0  0  0
    9.1044  -16.6617   24.1937 N   0  0  0  0  0  0  0  0  0  0  0  0
    9.8990  -16.2998   25.3591 C   0  0  1  0  0  0  0  0  0  0  0  0
    9.0538  -16.2455   26.6083 C   0  0  0  0  0  0  0  0  0  0  0  0
    7.8585  -15.4166   26.3202 C   0  0  0  0  0  0  0  0  0  0  0  0
    6.6002  -15.8466   25.9041 C   0  0  0  0  0  0  0  0  0  0  0  0
    5.7986  -14.7796   25.7477 N   0  0  0  0  0  0  0  0  0  0  0  0
    6.4799  -13.6504   26.0457 C   0  0  0  0  0  0  0  0  0  0  0  0
    6.1040  -12.3142   26.0400 C   0  0  0  0  0  0  0  0  0  0  0  0
    7.0532  -11.3841   26.4028 C   0  0  0  0  0  0  0  0  0  0  0  0
    8.3351  -11.7761   26.7593 C   0  0  0  0  0  0  0  0  0  0  0  0
    8.7047  -13.1158   26.7628 C   0  0  0  0  0  0  0  0  0  0  0  0
    7.7529  -14.0346   26.4003 C   0  0  0  0  0  0  0  0  0  0  0  0
   10.9067  -17.3700   25.5480 C   0  0  0  0  0  0  0  0  0  0  0  0
   10.8793  -18.4487   24.8917 O   0  0  0  0  0  0  0  0  0  0  0  0
   11.9164  -17.1717   26.4838 O   0  0  0  0  0  0  0  0  0  0  0  0
  2  1  1  6
  3  2  1  0
  4  2  1  0
  4  9  1  0
  5  4  2  0
  6  7  1  0
  8  7  1  6
  8  9  1  0
 10 11  2  0
 10  8  1  0
 12 10  1  0
 13 12  1  0
 13 14  1  1
 15 14  1  0
 15 16  2  0
 17 16  1  0
 18 17  1  0
 19 18  2  0
 20 19  1  0
 21 20  2  0
 21 22  1  0
 22 23  2  0
 23 18  1  0
 23 15  1  0
 24 13  1  0
 25 24  2  0
 26 24  1  0
M  END
$$$$
