ASW.pdb
     RDKit          3D

 26 27  0  0  1  0  0  0  0  0999 V2000
    5.2754  -18.8943   22.5046 C   0  0  0  0  0  0  0  0  0  0  0  0
    6.5348  -18.8483   21.6827 C   0  0  2  0  0  0  0  0  0  0  0  0
    6.8999  -20.1930   21.3345 N   0  0  0  0  0  0  0  0  0  0  0  0
    7.5900  -18.1624   22.4712 C   0  0  0  0  0  0  0  0  0  0  0  0
    7.4492  -18.0284   23.7119 O   0  0  0  0  0  0  0  0  0  0  0  0
    8.0267  -14.1057   21.6455 O   0  0  0  0  0  0  0  0  0  0  0  0
    7.7782  -15.4579   21.7631 C   0  0  0  0  0  0  0  0  0  0  0  0
    9.0503  -16.2518   21.9970 C   0  0  2  0  0  0  0  0  0  0  0  0
    8.7705  -17.6412   21.8833 N   0  0  0  0  0  0  0  0  0  0  0  0
    9.5572  -15.8538   23.3336 C   0  0  0  0  0  0  0  0  0  0  0  0
   10.0160  -14.6834   23.4261 O   0  0  0  0  0  0  0  0  0  0  0  0
    9.5366  -16.7243   24.4564 N   0  0  0  0  0  0  0  0  0  0  0  0
   10.1525  -16.2350   25.6817 C   0  0  1  0  0  0  0  0  0  0  0  0
    9.1835  -16.2687   26.8383 C   0  0  0  0  0  0  0  0  0  0  0  0
    7.9734  -15.5058   26.4480 C   0  0  0  0  0  0  0  0  0  0  0  0
    6.7729  -16.0051   25.9470 C   0  0  0  0  0  0  0  0  0  0  0  0
    5.9331  -14.9826   25.7130 N   0  0  0  0  0  0  0  0  0  0  0  0
    6.5329  -13.8162   26.0414 C   0  0  0  0  0  0  0  0  0  0  0  0
    6.0923  -12.5011   25.9847 C   0  0  0  0  0  0  0  0  0  0  0  0
    6.9639  -11.5190   26.4009 C   0  0  0  0  0  0  0  0  0  0  0  0
    8.2334  -11.8402   26.8584 C   0  0  0  0  0  0  0  0  0  0  0  0
    8.6681  -13.1591   26.9125 C   0  0  0  0  0  0  0  0  0  0  0  0
    7.7933  -14.1300   26.4961 C   0  0  0  0  0  0  0  0  0  0  0  0
   11.2673  -17.1560   26.0063 C   0  0  0  0  0  0  0  0  0  0  0  0
   11.5045  -18.1960   25.3299 O   0  0  0  0  0  0  0  0  0  0  0  0
   12.0776  -16.8575   27.0966 O   0  0  0  0  0  0  0  0  0  0  0  0
  2  1  1  1
  3  2  1  0
  4  2  1  0
  4  9  1  0
  5  4  2  0
  6  7  1  0
  8  7  1  1
  8  9  1  0
 10 11  2  0
 10  8  1  0
 12 10  1  0
 13 12  1  0
 13 14  1  1
 15 14  1  0
 15 16  2  0
 17 16  1  0
 18 17  1  0
 19 18  2  0
 20 19  1  0
 21 20  2  0
 21 22  1  0
 22 23  2  0
 23 18  1  0
 23 15  1  0
 24 13  1  0
 25 24  2  0
 26 24  1  0
M  END
$$$$
