ASW.pdb
     RDKit          3D

 26 27  0  0  1  0  0  0  0  0999 V2000
    8.0939  -12.3010   19.4295 C   0  0  0  0  0  0  0  0  0  0  0  0
    8.3610  -13.6467   18.8118 C   0  0  2  0  0  0  0  0  0  0  0  0
    7.4451  -13.8368   17.7221 N   0  0  0  0  0  0  0  0  0  0  0  0
    8.2144  -14.6870   19.8615 C   0  0  0  0  0  0  0  0  0  0  0  0
    7.0837  -15.1839   20.0891 O   0  0  0  0  0  0  0  0  0  0  0  0
   11.0776  -17.2508   20.7303 O   0  0  0  0  0  0  0  0  0  0  0  0
    9.7659  -17.4671   21.1001 C   0  0  0  0  0  0  0  0  0  0  0  0
    9.0937  -16.1948   21.5823 C   0  0  2  0  0  0  0  0  0  0  0  0
    9.3067  -15.1567   20.6342 N   0  0  0  0  0  0  0  0  0  0  0  0
    9.6569  -15.9013   22.9234 C   0  0  0  0  0  0  0  0  0  0  0  0
   10.6185  -15.0867   22.9543 O   0  0  0  0  0  0  0  0  0  0  0  0
    9.1578  -16.4921   24.1152 N   0  0  0  0  0  0  0  0  0  0  0  0
    9.8436  -16.1565   25.3552 C   0  0  1  0  0  0  0  0  0  0  0  0
    8.9187  -16.2608   26.5433 C   0  0  0  0  0  0  0  0  0  0  0  0
    7.6991  -15.4705   26.2486 C   0  0  0  0  0  0  0  0  0  0  0  0
    6.4615  -15.9392   25.8128 C   0  0  0  0  0  0  0  0  0  0  0  0
    5.6255  -14.8988   25.6569 N   0  0  0  0  0  0  0  0  0  0  0  0
    6.2639  -13.7500   25.9743 C   0  0  0  0  0  0  0  0  0  0  0  0
    5.8423  -12.4275   25.9770 C   0  0  0  0  0  0  0  0  0  0  0  0
    6.7544  -11.4691   26.3605 C   0  0  0  0  0  0  0  0  0  0  0  0
    8.0447  -11.8205   26.7290 C   0  0  0  0  0  0  0  0  0  0  0  0
    8.4602  -13.1466   26.7240 C   0  0  0  0  0  0  0  0  0  0  0  0
    7.5451  -14.0938   26.3408 C   0  0  0  0  0  0  0  0  0  0  0  0
   10.9223  -17.1558   25.5400 C   0  0  0  0  0  0  0  0  0  0  0  0
   11.0210  -18.1866   24.8167 O   0  0  0  0  0  0  0  0  0  0  0  0
   11.8563  -16.9439   26.5486 O   0  0  0  0  0  0  0  0  0  0  0  0
  2  1  1  1
  3  2  1  0
  4  2  1  0
  4  9  1  0
  5  4  2  0
  6  7  1  0
  8  7  1  6
  8  9  1  0
 10 11  2  0
 10  8  1  0
 12 10  1  0
 13 12  1  0
 13 14  1  1
 15 14  1  0
 15 16  2  0
 17 16  1  0
 18 17  1  0
 19 18  2  0
 20 19  1  0
 21 20  2  0
 21 22  1  0
 22 23  2  0
 23 18  1  0
 23 15  1  0
 24 13  1  0
 25 24  2  0
 26 24  1  0
M  END
$$$$
