ASW.pdb
     RDKit          3D

 26 27  0  0  1  0  0  0  0  0999 V2000
    8.1718  -12.2978   19.9099 C   0  0  0  0  0  0  0  0  0  0  0  0
    8.3467  -13.5974   19.1722 C   0  0  2  0  0  0  0  0  0  0  0  0
    7.3510  -13.6719   18.1399 N   0  0  0  0  0  0  0  0  0  0  0  0
    8.2359  -14.7132   20.1460 C   0  0  0  0  0  0  0  0  0  0  0  0
    7.1056  -15.1851   20.4231 O   0  0  0  0  0  0  0  0  0  0  0  0
   11.1812  -17.3299   20.8699 O   0  0  0  0  0  0  0  0  0  0  0  0
    9.8776  -17.5849   21.2434 C   0  0  0  0  0  0  0  0  0  0  0  0
    9.1701  -16.3337   21.7301 C   0  0  2  0  0  0  0  0  0  0  0  0
    9.3627  -15.2837   20.7908 N   0  0  0  0  0  0  0  0  0  0  0  0
    9.7169  -16.0357   23.0770 C   0  0  0  0  0  0  0  0  0  0  0  0
   10.6682  -15.2097   23.1184 O   0  0  0  0  0  0  0  0  0  0  0  0
    9.2134  -16.6345   24.2631 N   0  0  0  0  0  0  0  0  0  0  0  0
    9.8521  -16.2556   25.5156 C   0  0  1  0  0  0  0  0  0  0  0  0
    8.8622  -16.2302   26.6545 C   0  0  0  0  0  0  0  0  0  0  0  0
    7.6917  -15.4250   26.2299 C   0  0  0  0  0  0  0  0  0  0  0  0
    6.4571  -15.8848   25.7762 C   0  0  0  0  0  0  0  0  0  0  0  0
    5.6735  -14.8324   25.4865 N   0  0  0  0  0  0  0  0  0  0  0  0
    6.3438  -13.6842   25.7318 C   0  0  0  0  0  0  0  0  0  0  0  0
    5.9782  -12.3521   25.5954 C   0  0  0  0  0  0  0  0  0  0  0  0
    6.9108  -11.3975   25.9372 C   0  0  0  0  0  0  0  0  0  0  0  0
    8.1667  -11.7619   26.3996 C   0  0  0  0  0  0  0  0  0  0  0  0
    8.5262  -13.0976   26.5337 C   0  0  0  0  0  0  0  0  0  0  0  0
    7.5911  -14.0409   26.1911 C   0  0  0  0  0  0  0  0  0  0  0  0
   10.8598  -17.2979   25.8230 C   0  0  0  0  0  0  0  0  0  0  0  0
   10.9850  -18.3442   25.1268 O   0  0  0  0  0  0  0  0  0  0  0  0
   11.6945  -17.1098   26.9195 O   0  0  0  0  0  0  0  0  0  0  0  0
  2  1  1  1
  3  2  1  0
  4  2  1  0
  4  9  1  0
  5  4  2  0
  6  7  1  0
  8  7  1  6
  8  9  1  0
 10 11  2  0
 10  8  1  0
 12 10  1  0
 13 12  1  0
 13 14  1  1
 15 14  1  0
 15 16  2  0
 17 16  1  0
 18 17  1  0
 19 18  2  0
 20 19  1  0
 21 20  2  0
 21 22  1  0
 22 23  2  0
 23 18  1  0
 23 15  1  0
 24 13  1  0
 25 24  2  0
 26 24  1  0
M  END
$$$$
