ASW.pdb
     RDKit          3D

 26 27  0  0  1  0  0  0  0  0999 V2000
    8.2402  -12.2271   19.4722 C   0  0  0  0  0  0  0  0  0  0  0  0
    8.3926  -13.6060   18.8899 C   0  0  2  0  0  0  0  0  0  0  0  0
    7.4259  -13.7656   17.8398 N   0  0  0  0  0  0  0  0  0  0  0  0
    8.2153  -14.6016   19.9776 C   0  0  0  0  0  0  0  0  0  0  0  0
    7.0859  -14.7475   20.5072 O   0  0  0  0  0  0  0  0  0  0  0  0
   10.8471  -17.6629   20.6104 O   0  0  0  0  0  0  0  0  0  0  0  0
    9.5373  -17.7259   21.0399 C   0  0  0  0  0  0  0  0  0  0  0  0
    9.0156  -16.3690   21.4754 C   0  0  2  0  0  0  0  0  0  0  0  0
    9.2761  -15.4111   20.4573 N   0  0  0  0  0  0  0  0  0  0  0  0
    9.6742  -16.0580   22.7682 C   0  0  0  0  0  0  0  0  0  0  0  0
   10.7477  -15.4010   22.6992 O   0  0  0  0  0  0  0  0  0  0  0  0
    9.1440  -16.4669   24.0214 N   0  0  0  0  0  0  0  0  0  0  0  0
   10.0145  -16.3336   25.1811 C   0  0  1  0  0  0  0  0  0  0  0  0
    9.7184  -15.0700   25.9513 C   0  0  0  0  0  0  0  0  0  0  0  0
    8.2613  -14.8087   25.8655 C   0  0  0  0  0  0  0  0  0  0  0  0
    7.2436  -15.7214   25.5956 C   0  0  0  0  0  0  0  0  0  0  0  0
    6.0628  -15.0802   25.6010 N   0  0  0  0  0  0  0  0  0  0  0  0
    6.2578  -13.7688   25.8657 C   0  0  0  0  0  0  0  0  0  0  0  0
    5.3721  -12.7060   25.9786 C   0  0  0  0  0  0  0  0  0  0  0  0
    5.8991  -11.4652   26.2620 C   0  0  0  0  0  0  0  0  0  0  0  0
    7.2654  -11.2922   26.4270 C   0  0  0  0  0  0  0  0  0  0  0  0
    8.1466  -12.3608   26.3126 C   0  0  0  0  0  0  0  0  0  0  0  0
    7.6127  -13.5923   26.0303 C   0  0  0  0  0  0  0  0  0  0  0  0
    9.7263  -17.4796   26.0756 C   0  0  0  0  0  0  0  0  0  0  0  0
    8.7638  -18.2716   25.8718 O   0  0  0  0  0  0  0  0  0  0  0  0
   10.5503  -17.6840   27.1772 O   0  0  0  0  0  0  0  0  0  0  0  0
  2  1  1  1
  3  2  1  0
  4  2  1  0
  4  9  1  0
  5  4  2  0
  6  7  1  0
  8  7  1  6
  8  9  1  0
 10 11  2  0
 10  8  1  0
 12 10  1  0
 13 12  1  0
 13 14  1  1
 15 14  1  0
 15 16  2  0
 17 16  1  0
 18 17  1  0
 19 18  2  0
 20 19  1  0
 21 20  2  0
 21 22  1  0
 22 23  2  0
 23 18  1  0
 23 15  1  0
 24 13  1  0
 25 24  2  0
 26 24  1  0
M  END
$$$$
