ASW.pdb
     RDKit          3D

 26 27  0  0  1  0  0  0  0  0999 V2000
    9.4295  -18.6586   18.2540 C   0  0  0  0  0  0  0  0  0  0  0  0
    9.6692  -18.6528   19.7393 C   0  0  2  0  0  0  0  0  0  0  0  0
    8.7120  -19.5269   20.3578 N   0  0  0  0  0  0  0  0  0  0  0  0
    9.5595  -17.2559   20.2313 C   0  0  0  0  0  0  0  0  0  0  0  0
   10.4755  -16.4350   19.9779 O   0  0  0  0  0  0  0  0  0  0  0  0
    6.1657  -15.8985   22.1281 O   0  0  0  0  0  0  0  0  0  0  0  0
    6.9580  -14.9777   21.4737 C   0  0  0  0  0  0  0  0  0  0  0  0
    8.4041  -15.4300   21.3884 C   0  0  2  0  0  0  0  0  0  0  0  0
    8.4522  -16.7931   20.9868 N   0  0  0  0  0  0  0  0  0  0  0  0
    9.0042  -15.1806   22.7224 C   0  0  0  0  0  0  0  0  0  0  0  0
    9.1495  -13.9713   23.0473 O   0  0  0  0  0  0  0  0  0  0  0  0
    9.3993  -16.2276   23.5978 N   0  0  0  0  0  0  0  0  0  0  0  0
   10.0761  -15.8394   24.8273 C   0  0  1  0  0  0  0  0  0  0  0  0
    9.2646  -16.2095   26.0448 C   0  0  0  0  0  0  0  0  0  0  0  0
    8.0044  -15.4285   26.0134 C   0  0  0  0  0  0  0  0  0  0  0  0
    6.7108  -15.9013   25.8030 C   0  0  0  0  0  0  0  0  0  0  0  0
    5.8515  -14.8691   25.8442 N   0  0  0  0  0  0  0  0  0  0  0  0
    6.5284  -13.7218   26.0753 C   0  0  0  0  0  0  0  0  0  0  0  0
    6.1035  -12.4066   26.2038 C   0  0  0  0  0  0  0  0  0  0  0  0
    7.0635  -11.4476   26.4414 C   0  0  0  0  0  0  0  0  0  0  0  0
    8.4031  -11.7913   26.5471 C   0  0  0  0  0  0  0  0  0  0  0  0
    8.8216  -13.1101   26.4175 C   0  0  0  0  0  0  0  0  0  0  0  0
    7.8587  -14.0580   26.1811 C   0  0  0  0  0  0  0  0  0  0  0  0
   11.3440  -16.6045   24.8864 C   0  0  0  0  0  0  0  0  0  0  0  0
   12.1785  -16.4599   25.8234 O   0  0  0  0  0  0  0  0  0  0  0  0
   11.6178  -17.5131   23.8696 O   0  0  0  0  0  0  0  0  0  0  0  0
  2  1  1  6
  3  2  1  0
  4  2  1  0
  4  9  1  0
  5  4  2  0
  6  7  1  0
  8  7  1  1
  8  9  1  0
 10 11  2  0
 10  8  1  0
 12 10  1  0
 13 12  1  0
 13 14  1  1
 15 14  1  0
 15 16  2  0
 17 16  1  0
 18 17  1  0
 19 18  2  0
 20 19  1  0
 21 20  2  0
 21 22  1  0
 22 23  2  0
 23 18  1  0
 23 15  1  0
 24 13  1  0
 25 24  2  0
 26 24  1  0
M  END
$$$$
