ASW.pdb
     RDKit          3D

 26 27  0  0  1  0  0  0  0  0999 V2000
    8.2626  -12.2454   19.9767 C   0  0  0  0  0  0  0  0  0  0  0  0
    8.3101  -13.5675   19.2601 C   0  0  2  0  0  0  0  0  0  0  0  0
    7.2330  -13.6094   18.3110 N   0  0  0  0  0  0  0  0  0  0  0  0
    8.2188  -14.6554   20.2670 C   0  0  0  0  0  0  0  0  0  0  0  0
    7.0919  -15.0289   20.6765 O   0  0  0  0  0  0  0  0  0  0  0  0
   11.2357  -17.2811   20.9041 O   0  0  0  0  0  0  0  0  0  0  0  0
    9.9465  -17.5818   21.2930 C   0  0  0  0  0  0  0  0  0  0  0  0
    9.1880  -16.3494   21.7498 C   0  0  2  0  0  0  0  0  0  0  0  0
    9.3608  -15.3061   20.7993 N   0  0  0  0  0  0  0  0  0  0  0  0
    9.7006  -16.0145   23.1015 C   0  0  0  0  0  0  0  0  0  0  0  0
   10.6097  -15.1424   23.1489 O   0  0  0  0  0  0  0  0  0  0  0  0
    9.2106  -16.6280   24.2856 N   0  0  0  0  0  0  0  0  0  0  0  0
    9.8579  -16.2584   25.5365 C   0  0  1  0  0  0  0  0  0  0  0  0
    8.8733  -16.2281   26.6798 C   0  0  0  0  0  0  0  0  0  0  0  0
    7.7008  -15.4248   26.2570 C   0  0  0  0  0  0  0  0  0  0  0  0
    6.5008  -15.8826   25.7167 C   0  0  0  0  0  0  0  0  0  0  0  0
    5.7019  -14.8325   25.4631 N   0  0  0  0  0  0  0  0  0  0  0  0
    6.3285  -13.6876   25.8163 C   0  0  0  0  0  0  0  0  0  0  0  0
    5.9323  -12.3587   25.7537 C   0  0  0  0  0  0  0  0  0  0  0  0
    6.8219  -11.4072   26.2020 C   0  0  0  0  0  0  0  0  0  0  0  0
    8.0657  -11.7714   26.6962 C   0  0  0  0  0  0  0  0  0  0  0  0
    8.4559  -13.1039   26.7560 C   0  0  0  0  0  0  0  0  0  0  0  0
    7.5635  -14.0441   26.3075 C   0  0  0  0  0  0  0  0  0  0  0  0
   10.8581  -17.3102   25.8363 C   0  0  0  0  0  0  0  0  0  0  0  0
   10.9711  -18.3556   25.1366 O   0  0  0  0  0  0  0  0  0  0  0  0
   11.6994  -17.1324   26.9295 O   0  0  0  0  0  0  0  0  0  0  0  0
  2  1  1  1
  3  2  1  0
  4  2  1  0
  4  9  1  0
  5  4  2  0
  6  7  1  0
  8  7  1  6
  8  9  1  0
 10 11  2  0
 10  8  1  0
 12 10  1  0
 13 12  1  0
 13 14  1  1
 15 14  1  0
 15 16  2  0
 17 16  1  0
 18 17  1  0
 19 18  2  0
 20 19  1  0
 21 20  2  0
 21 22  1  0
 22 23  2  0
 23 18  1  0
 23 15  1  0
 24 13  1  0
 25 24  2  0
 26 24  1  0
M  END
$$$$
