ASW.pdb
     RDKit          3D

 26 27  0  0  1  0  0  0  0  0999 V2000
    8.2798  -12.3563   19.1494 C   0  0  0  0  0  0  0  0  0  0  0  0
    8.5335  -13.7650   18.6857 C   0  0  2  0  0  0  0  0  0  0  0  0
    7.6044  -14.0721   17.6345 N   0  0  0  0  0  0  0  0  0  0  0  0
    8.3938  -14.6786   19.8482 C   0  0  0  0  0  0  0  0  0  0  0  0
    7.4145  -15.4626   19.9072 O   0  0  0  0  0  0  0  0  0  0  0  0
   10.6596  -17.1884   20.5132 O   0  0  0  0  0  0  0  0  0  0  0  0
    9.4388  -17.0984   21.1501 C   0  0  0  0  0  0  0  0  0  0  0  0
    9.2655  -15.7697   21.8625 C   0  0  2  0  0  0  0  0  0  0  0  0
    9.3274  -14.7113   20.9150 N   0  0  0  0  0  0  0  0  0  0  0  0
   10.3256  -15.7043   22.8987 C   0  0  0  0  0  0  0  0  0  0  0  0
   11.3853  -16.3393   22.6481 O   0  0  0  0  0  0  0  0  0  0  0  0
   10.1765  -14.9753   24.1091 N   0  0  0  0  0  0  0  0  0  0  0  0
    9.6643  -15.7056   25.2601 C   0  0  1  0  0  0  0  0  0  0  0  0
    8.3101  -16.3073   24.9742 C   0  0  0  0  0  0  0  0  0  0  0  0
    7.2789  -15.4292   25.5778 C   0  0  0  0  0  0  0  0  0  0  0  0
    5.9376  -15.7233   25.8140 C   0  0  0  0  0  0  0  0  0  0  0  0
    5.3425  -14.6541   26.3693 N   0  0  0  0  0  0  0  0  0  0  0  0
    6.2422  -13.6550   26.5121 C   0  0  0  0  0  0  0  0  0  0  0  0
    6.1248  -12.3704   27.0248 C   0  0  0  0  0  0  0  0  0  0  0  0
    7.2537  -11.5810   27.0293 C   0  0  0  0  0  0  0  0  0  0  0  0
    8.4595  -12.0591   26.5379 C   0  0  0  0  0  0  0  0  0  0  0  0
    8.5699  -13.3464   26.0260 C   0  0  0  0  0  0  0  0  0  0  0  0
    7.4407  -14.1251   26.0258 C   0  0  0  0  0  0  0  0  0  0  0  0
   10.6033  -16.8224   25.5199 C   0  0  0  0  0  0  0  0  0  0  0  0
   10.7879  -17.7578   24.6915 O   0  0  0  0  0  0  0  0  0  0  0  0
   11.3032  -16.8339   26.7217 O   0  0  0  0  0  0  0  0  0  0  0  0
  2  1  1  1
  3  2  1  0
  4  2  1  0
  4  9  1  0
  5  4  2  0
  6  7  1  0
  8  7  1  6
  8  9  1  0
 10 11  2  0
 10  8  1  0
 12 10  1  0
 13 12  1  0
 13 14  1  6
 15 14  1  0
 15 16  2  0
 17 16  1  0
 18 17  1  0
 19 18  2  0
 20 19  1  0
 21 20  2  0
 21 22  1  0
 22 23  2  0
 23 18  1  0
 23 15  1  0
 24 13  1  0
 25 24  2  0
 26 24  1  0
M  END
$$$$
