PYF.pdb
     RDKit          3D

 31 33  0  0  1  0  0  0  0  0999 V2000
    8.0133  -18.7422   21.1100 N   0  0  0  0  0  0  0  0  0  0  0  0
    7.4133  -19.5443   20.0742 C   0  0  0  0  0  0  0  0  0  0  0  0
    8.0874  -19.2108   18.7795 C   0  0  0  0  0  0  0  0  0  0  0  0
    8.7547  -17.8697   19.1163 C   0  0  0  0  0  0  0  0  0  0  0  0
    9.1684  -18.1209   20.5494 C   0  0  1  0  0  0  0  0  0  0  0  0
    9.6092  -16.9143   21.2535 C   0  0  0  0  0  0  0  0  0  0  0  0
   10.7969  -16.5164   21.0454 O   0  0  0  0  0  0  0  0  0  0  0  0
    7.2770  -13.0517   17.0212 O   0  0  0  0  0  0  0  0  0  0  0  0
    7.5579  -13.2321   18.3692 C   0  0  0  0  0  0  0  0  0  0  0  0
    6.6812  -13.9093   19.1928 C   0  0  0  0  0  0  0  0  0  0  0  0
    6.9738  -14.0810   20.5311 C   0  0  0  0  0  0  0  0  0  0  0  0
    8.1262  -13.6004   21.1099 C   0  0  0  0  0  0  0  0  0  0  0  0
    8.4885  -13.7554   22.5270 C   0  0  0  0  0  0  0  0  0  0  0  0
    9.3266  -14.9630   22.8216 C   0  0  2  0  0  0  0  0  0  0  0  0
    8.8337  -16.1482   22.1465 N   0  0  0  0  0  0  0  0  0  0  0  0
    9.5694  -15.2086   24.2550 C   0  0  0  0  0  0  0  0  0  0  0  0
   10.3723  -14.4233   24.8552 O   0  0  0  0  0  0  0  0  0  0  0  0
    9.0023  -12.9190   20.2680 C   0  0  0  0  0  0  0  0  0  0  0  0
    8.7144  -12.7449   18.9303 C   0  0  0  0  0  0  0  0  0  0  0  0
    8.9565  -16.2614   24.9821 N   0  0  0  0  0  0  0  0  0  0  0  0
    9.1899  -16.4664   26.4036 C   0  0  1  0  0  0  0  0  0  0  0  0
    7.8626  -16.1582   27.0662 C   0  0  0  0  0  0  0  0  0  0  0  0
    7.4713  -14.7562   27.0403 C   0  0  0  0  0  0  0  0  0  0  0  0
    8.1647  -13.7627   27.6875 C   0  0  0  0  0  0  0  0  0  0  0  0
    7.7489  -12.4280   27.6292 C   0  0  0  0  0  0  0  0  0  0  0  0
    6.6197  -12.1066   26.9067 C   0  0  0  0  0  0  0  0  0  0  0  0
    5.9125  -13.0926   26.2515 C   0  0  0  0  0  0  0  0  0  0  0  0
    6.3251  -14.4256   26.3079 C   0  0  0  0  0  0  0  0  0  0  0  0
    9.5933  -17.8721   26.6014 C   0  0  0  0  0  0  0  0  0  0  0  0
    9.9161  -18.3089   27.8773 O   0  0  0  0  0  0  0  0  0  0  0  0
    9.6524  -18.6732   25.6615 O   0  0  0  0  0  0  0  0  0  0  0  0
  1  2  1  0
  3  2  1  0
  4  3  1  0
  5  4  1  0
  5  1  1  0
  6  7  2  0
  5  6  1  1
  8  9  1  0
  9 10  2  0
  9 19  1  0
 10 11  1  0
 11 12  2  0
 12 13  1  0
 14 13  1  1
 14 15  1  0
 15  6  1  0
 16 17  2  0
 16 14  1  0
 18 12  1  0
 19 18  2  0
 20 16  1  0
 21 22  1  1
 21 20  1  0
 23 22  1  0
 23 28  1  0
 24 23  2  0
 25 24  1  0
 25 26  2  0
 26 27  1  0
 27 28  2  0
 29 21  1  0
 30 29  1  0
 31 29  2  0
M  END
$$$$
