PYF.pdb
     RDKit          3D

 31 33  0  0  1  0  0  0  0  0999 V2000
    7.5995  -19.0060   19.2710 N   0  0  0  0  0  0  0  0  0  0  0  0
    7.3269  -19.4974   17.9442 C   0  0  0  0  0  0  0  0  0  0  0  0
    8.4152  -19.0130   17.0370 C   0  0  0  0  0  0  0  0  0  0  0  0
    9.0205  -17.8705   17.8648 C   0  0  0  0  0  0  0  0  0  0  0  0
    8.9145  -18.4535   19.2565 C   0  0  1  0  0  0  0  0  0  0  0  0
    9.1752  -17.4821   20.3216 C   0  0  0  0  0  0  0  0  0  0  0  0
   10.3850  -17.1650   20.5409 O   0  0  0  0  0  0  0  0  0  0  0  0
    8.0519  -12.0706   16.6980 O   0  0  0  0  0  0  0  0  0  0  0  0
    7.9482  -12.6824   17.9404 C   0  0  0  0  0  0  0  0  0  0  0  0
    9.0255  -12.7264   18.8023 C   0  0  0  0  0  0  0  0  0  0  0  0
    8.9076  -13.3381   20.0344 C   0  0  0  0  0  0  0  0  0  0  0  0
    7.7404  -13.9253   20.4666 C   0  0  0  0  0  0  0  0  0  0  0  0
    7.5589  -14.5882   21.7671 C   0  0  0  0  0  0  0  0  0  0  0  0
    8.4864  -15.7413   22.0072 C   0  0  2  0  0  0  0  0  0  0  0  0
    8.2030  -16.8621   21.1315 N   0  0  0  0  0  0  0  0  0  0  0  0
    8.5956  -16.1598   23.4168 C   0  0  0  0  0  0  0  0  0  0  0  0
    7.7417  -17.0021   23.8446 O   0  0  0  0  0  0  0  0  0  0  0  0
    6.6610  -13.8740   19.5875 C   0  0  0  0  0  0  0  0  0  0  0  0
    6.7738  -13.2640   18.3555 C   0  0  0  0  0  0  0  0  0  0  0  0
    9.5939  -15.6754   24.3006 N   0  0  0  0  0  0  0  0  0  0  0  0
    9.6861  -16.1096   25.6863 C   0  0  1  0  0  0  0  0  0  0  0  0
   10.0966  -14.8718   26.4575 C   0  0  0  0  0  0  0  0  0  0  0  0
   10.1697  -15.0410   27.9016 C   0  0  0  0  0  0  0  0  0  0  0  0
   10.1231  -13.9957   28.7915 C   0  0  0  0  0  0  0  0  0  0  0  0
   10.1939  -14.2113   30.1721 C   0  0  0  0  0  0  0  0  0  0  0  0
   10.3131  -15.5003   30.6460 C   0  0  0  0  0  0  0  0  0  0  0  0
   10.3613  -16.5605   29.7655 C   0  0  0  0  0  0  0  0  0  0  0  0
   10.2908  -16.3484   28.3870 C   0  0  0  0  0  0  0  0  0  0  0  0
    8.3577  -16.6028   26.0988 C   0  0  0  0  0  0  0  0  0  0  0  0
    8.2774  -17.6811   26.9670 O   0  0  0  0  0  0  0  0  0  0  0  0
    7.3125  -16.0824   25.6922 O   0  0  0  0  0  0  0  0  0  0  0  0
  1  2  1  0
  3  2  1  0
  4  3  1  0
  5  4  1  0
  5  1  1  0
  6  7  2  0
  5  6  1  1
  8  9  1  0
  9 10  2  0
  9 19  1  0
 10 11  1  0
 11 12  2  0
 12 13  1  0
 14 13  1  1
 14 15  1  0
 15  6  1  0
 16 17  2  0
 16 14  1  0
 18 12  1  0
 19 18  2  0
 20 16  1  0
 21 22  1  1
 21 20  1  0
 23 22  1  0
 23 28  1  0
 24 23  2  0
 25 24  1  0
 25 26  2  0
 26 27  1  0
 27 28  2  0
 29 21  1  0
 30 29  1  0
 31 29  2  0
M  END
$$$$
