PYF.pdb
     RDKit          3D

 31 33  0  0  1  0  0  0  0  0999 V2000
    9.1285  -18.7119   19.3127 N   0  0  0  0  0  0  0  0  0  0  0  0
    8.9088  -18.8666   17.8971 C   0  0  0  0  0  0  0  0  0  0  0  0
    9.6785  -17.7957   17.1880 C   0  0  0  0  0  0  0  0  0  0  0  0
    9.9435  -16.8013   18.3273 C   0  0  0  0  0  0  0  0  0  0  0  0
   10.1745  -17.7562   19.4774 C   0  0  1  0  0  0  0  0  0  0  0  0
   10.1970  -17.1025   20.7881 C   0  0  0  0  0  0  0  0  0  0  0  0
   11.2094  -16.3896   21.0690 O   0  0  0  0  0  0  0  0  0  0  0  0
    6.7811  -12.3381   18.5833 O   0  0  0  0  0  0  0  0  0  0  0  0
    7.0810  -13.1145   19.6950 C   0  0  0  0  0  0  0  0  0  0  0  0
    8.0839  -12.7460   20.5689 C   0  0  0  0  0  0  0  0  0  0  0  0
    8.3708  -13.5278   21.6700 C   0  0  0  0  0  0  0  0  0  0  0  0
    7.6927  -14.6907   21.9558 C   0  0  0  0  0  0  0  0  0  0  0  0
    7.9552  -15.5596   23.1132 C   0  0  0  0  0  0  0  0  0  0  0  0
    9.1917  -16.3981   22.9880 C   0  0  2  0  0  0  0  0  0  0  0  0
    9.1936  -17.1910   21.7736 N   0  0  0  0  0  0  0  0  0  0  0  0
    9.5053  -17.2129   24.1762 C   0  0  0  0  0  0  0  0  0  0  0  0
    9.0813  -18.4136   24.1905 O   0  0  0  0  0  0  0  0  0  0  0  0
    6.6831  -15.0513   21.0662 C   0  0  0  0  0  0  0  0  0  0  0  0
    6.3927  -14.2736   19.9647 C   0  0  0  0  0  0  0  0  0  0  0  0
   10.2476  -16.7269   25.2832 N   0  0  0  0  0  0  0  0  0  0  0  0
   10.8663  -17.6135   26.2569 C   0  0  1  0  0  0  0  0  0  0  0  0
   11.7612  -16.7174   27.0886 C   0  0  0  0  0  0  0  0  0  0  0  0
   11.0675  -15.6885   27.8498 C   0  0  0  0  0  0  0  0  0  0  0  0
   10.5165  -14.5658   27.2817 C   0  0  0  0  0  0  0  0  0  0  0  0
    9.8562  -13.6066   28.0573 C   0  0  0  0  0  0  0  0  0  0  0  0
    9.7583  -13.7948   29.4194 C   0  0  0  0  0  0  0  0  0  0  0  0
   10.3063  -14.9166   30.0050 C   0  0  0  0  0  0  0  0  0  0  0  0
   10.9659  -15.8757   29.2334 C   0  0  0  0  0  0  0  0  0  0  0  0
    9.7925  -18.2249   27.0639 C   0  0  0  0  0  0  0  0  0  0  0  0
   10.1238  -19.1670   28.0261 O   0  0  0  0  0  0  0  0  0  0  0  0
    8.6042  -17.9216   26.9070 O   0  0  0  0  0  0  0  0  0  0  0  0
  1  2  1  0
  3  2  1  0
  4  3  1  0
  5  4  1  0
  5  1  1  0
  6  7  2  0
  5  6  1  1
  8  9  1  0
  9 10  2  0
  9 19  1  0
 10 11  1  0
 11 12  2  0
 12 13  1  0
 14 13  1  1
 14 15  1  0
 15  6  1  0
 16 17  2  0
 16 14  1  0
 18 12  1  0
 19 18  2  0
 20 16  1  0
 21 22  1  1
 21 20  1  0
 23 22  1  0
 23 28  1  0
 24 23  2  0
 25 24  1  0
 25 26  2  0
 26 27  1  0
 27 28  2  0
 29 21  1  0
 30 29  1  0
 31 29  2  0
M  END
$$$$
