PYF.pdb
     RDKit          3D

 31 33  0  0  1  0  0  0  0  0999 V2000
    8.5885  -15.7218   19.6921 N   0  0  0  0  0  0  0  0  0  0  0  0
    8.2974  -15.4798   18.3019 C   0  0  0  0  0  0  0  0  0  0  0  0
    8.0158  -14.0188   18.1340 C   0  0  0  0  0  0  0  0  0  0  0  0
    7.7296  -13.5922   19.5808 C   0  0  0  0  0  0  0  0  0  0  0  0
    8.7295  -14.4505   20.3233 C   0  0  1  0  0  0  0  0  0  0  0  0
    8.5256  -14.4683   21.7738 C   0  0  0  0  0  0  0  0  0  0  0  0
    8.6349  -13.3655   22.3936 O   0  0  0  0  0  0  0  0  0  0  0  0
    5.7726  -21.4388   22.1276 O   0  0  0  0  0  0  0  0  0  0  0  0
    5.9471  -20.1480   22.6091 C   0  0  0  0  0  0  0  0  0  0  0  0
    7.1789  -19.5280   22.5485 C   0  0  0  0  0  0  0  0  0  0  0  0
    7.3375  -18.2443   23.0311 C   0  0  0  0  0  0  0  0  0  0  0  0
    6.3050  -17.5240   23.5871 C   0  0  0  0  0  0  0  0  0  0  0  0
    6.4171  -16.1555   24.1145 C   0  0  0  0  0  0  0  0  0  0  0  0
    7.7671  -15.5306   23.9285 C   0  0  2  0  0  0  0  0  0  0  0  0
    8.2173  -15.6022   22.5517 N   0  0  0  0  0  0  0  0  0  0  0  0
    8.7992  -16.0044   24.8689 C   0  0  0  0  0  0  0  0  0  0  0  0
    8.5119  -15.9882   26.1094 O   0  0  0  0  0  0  0  0  0  0  0  0
    5.0673  -18.1610   23.6423 C   0  0  0  0  0  0  0  0  0  0  0  0
    4.9039  -19.4434   23.1614 C   0  0  0  0  0  0  0  0  0  0  0  0
   10.0746  -16.4712   24.4590 N   0  0  0  0  0  0  0  0  0  0  0  0
   11.3126  -15.8499   24.9047 C   0  0  1  0  0  0  0  0  0  0  0  0
   11.4047  -16.1770   26.3812 C   0  0  0  0  0  0  0  0  0  0  0  0
   10.5449  -15.3800   27.2442 C   0  0  0  0  0  0  0  0  0  0  0  0
   10.2952  -15.6873   28.5595 C   0  0  0  0  0  0  0  0  0  0  0  0
    9.4628  -14.8863   29.3489 C   0  0  0  0  0  0  0  0  0  0  0  0
    8.8826  -13.7665   28.7924 C   0  0  0  0  0  0  0  0  0  0  0  0
    9.1233  -13.4444   27.4733 C   0  0  0  0  0  0  0  0  0  0  0  0
    9.9537  -14.2419   26.6830 C   0  0  0  0  0  0  0  0  0  0  0  0
   12.4235  -16.4446   24.1363 C   0  0  0  0  0  0  0  0  0  0  0  0
   12.1443  -17.4180   23.1890 O   0  0  0  0  0  0  0  0  0  0  0  0
   13.5977  -16.1002   24.3129 O   0  0  0  0  0  0  0  0  0  0  0  0
  1  2  1  0
  3  2  1  0
  4  3  1  0
  5  4  1  0
  5  1  1  0
  6  7  2  0
  5  6  1  1
  8  9  1  0
  9 10  2  0
  9 19  1  0
 10 11  1  0
 11 12  2  0
 12 13  1  0
 14 13  1  6
 14 15  1  0
 15  6  1  0
 16 17  2  0
 16 14  1  0
 18 12  1  0
 19 18  2  0
 20 16  1  0
 21 22  1  1
 21 20  1  0
 23 22  1  0
 23 28  1  0
 24 23  2  0
 25 24  1  0
 25 26  2  0
 26 27  1  0
 27 28  2  0
 29 21  1  0
 30 29  1  0
 31 29  2  0
M  END
$$$$
