ARD.pdb
     RDKit          3D

 25 24  0  0  1  0  0  0  0  0999 V2000
   11.8878  -18.4211   17.2055 C   0  0  0  0  0  0  0  0  0  0  0  0
   11.3877  -18.9875   18.5117 C   0  0  2  0  0  0  0  0  0  0  0  0
    9.9794  -19.3041   18.4644 N   0  0  0  0  0  0  0  0  0  0  0  0
   11.6022  -18.0527   19.6433 C   0  0  0  0  0  0  0  0  0  0  0  0
   12.7331  -17.5709   19.9135 O   0  0  0  0  0  0  0  0  0  0  0  0
    7.6917  -12.1737   20.7279 N   0  0  0  0  0  0  0  0  0  0  0  0
    7.4752  -12.9018   19.5245 C   0  0  0  0  0  0  0  0  0  0  0  0
    7.6561  -12.2988   18.4121 N   0  0  0  0  0  0  0  0  0  0  0  0
    7.0658  -14.2727   19.5491 N   0  0  0  0  0  0  0  0  0  0  0  0
    7.4855  -15.1402   20.6193 C   0  0  0  0  0  0  0  0  0  0  0  0
    8.9731  -15.0060   20.8456 C   0  0  0  0  0  0  0  0  0  0  0  0
    9.3986  -15.9865   21.9120 C   0  0  0  0  0  0  0  0  0  0  0  0
   10.6864  -16.6904   21.5569 C   0  0  2  0  0  0  0  0  0  0  0  0
   10.5242  -17.6424   20.4995 N   0  0  0  0  0  0  0  0  0  0  0  0
   11.3212  -17.3431   22.7070 C   0  0  0  0  0  0  0  0  0  0  0  0
   11.0465  -18.5403   23.0183 O   0  0  0  0  0  0  0  0  0  0  0  0
    7.5564  -12.8127   17.5211 N   0  0  0  0  0  0  0  0  0  0  0  0
   12.2807  -16.6929   23.5507 C   0  0  1  0  0  0  0  0  0  0  0  0
   12.9026  -17.3614   24.6649 C   0  0  0  0  0  0  0  0  0  0  0  0
   14.2090  -16.7209   25.0704 C   0  0  0  0  0  0  0  0  0  0  0  0
   15.1666  -16.6583   23.9357 O   0  0  0  0  0  0  0  0  0  0  0  0
   14.9914  -17.2037   22.8324 C   0  0  0  0  0  0  0  0  0  0  0  0
   12.0100  -17.4276   25.8475 O   0  0  0  0  0  0  0  0  0  0  0  0
   12.2996  -18.1435   26.9829 O   0  0  0  0  0  0  0  0  0  0  0  0
   16.3345  -15.9355   24.1390 O   0  0  0  0  0  0  0  0  0  0  0  0
  2  1  1  6
  3  2  1  0
  4  5  2  0
  4  2  1  0
  6  7  1  0
  7  9  1  0
  7  8  2  0
  9 10  1  0
 11 10  1  0
 12 11  1  0
 13 12  1  1
 13 14  1  0
 14  4  1  0
 15 17  1  0
 15 13  1  0
 16 15  2  0
 18 17  1  0
 18 22  1  0
 18 19  1  6
 20 19  1  0
 21 20  2  0
 22 23  1  0
 24 20  1  0
 25 22  2  0
M  END
$$$$
