ARD.pdb
     RDKit          3D

 25 24  0  0  1  0  0  0  0  0999 V2000
    7.9724  -15.3916   18.5073 C   0  0  0  0  0  0  0  0  0  0  0  0
    7.8909  -14.1060   19.2933 C   0  0  2  0  0  0  0  0  0  0  0  0
    8.2649  -12.9583   18.5005 N   0  0  0  0  0  0  0  0  0  0  0  0
    8.7636  -14.1297   20.4927 C   0  0  0  0  0  0  0  0  0  0  0  0
    9.9457  -13.6982   20.4738 O   0  0  0  0  0  0  0  0  0  0  0  0
    8.2157  -18.7069   26.0966 N   0  0  0  0  0  0  0  0  0  0  0  0
    6.8623  -18.5308   25.6937 C   0  0  0  0  0  0  0  0  0  0  0  0
    6.2606  -19.5175   25.1477 N   0  0  0  0  0  0  0  0  0  0  0  0
    6.1846  -17.2859   25.8904 N   0  0  0  0  0  0  0  0  0  0  0  0
    6.8824  -16.0391   25.7101 C   0  0  0  0  0  0  0  0  0  0  0  0
    7.6967  -16.0772   24.4382 C   0  0  0  0  0  0  0  0  0  0  0  0
    8.3009  -14.7141   24.2003 C   0  0  0  0  0  0  0  0  0  0  0  0
    9.1166  -14.6669   22.9305 C   0  0  2  0  0  0  0  0  0  0  0  0
    8.3051  -14.6496   21.7507 N   0  0  0  0  0  0  0  0  0  0  0  0
   10.0939  -15.7566   22.8338 C   0  0  0  0  0  0  0  0  0  0  0  0
    9.8270  -16.8259   22.2084 O   0  0  0  0  0  0  0  0  0  0  0  0
    5.3113  -19.3953   24.7581 N   0  0  0  0  0  0  0  0  0  0  0  0
   11.3983  -15.6993   23.4256 C   0  0  1  0  0  0  0  0  0  0  0  0
   12.2821  -16.8366   23.4498 C   0  0  0  0  0  0  0  0  0  0  0  0
   13.7386  -16.4412   23.3882 C   0  0  0  0  0  0  0  0  0  0  0  0
   14.0288  -15.5936   22.2026 O   0  0  0  0  0  0  0  0  0  0  0  0
   13.5167  -15.7488   21.0806 C   0  0  0  0  0  0  0  0  0  0  0  0
   12.0638  -17.6903   24.6427 O   0  0  0  0  0  0  0  0  0  0  0  0
   12.6510  -18.9189   24.8196 O   0  0  0  0  0  0  0  0  0  0  0  0
   14.9388  -14.5596   22.3777 O   0  0  0  0  0  0  0  0  0  0  0  0
  2  1  1  6
  3  2  1  0
  4  5  2  0
  4  2  1  0
  6  7  1  0
  7  9  1  0
  7  8  2  0
  9 10  1  0
 11 10  1  0
 12 11  1  0
 13 12  1  1
 13 14  1  0
 14  4  1  0
 15 17  1  0
 15 13  1  0
 16 15  2  0
 18 17  1  0
 18 22  1  0
 18 19  1  1
 20 19  1  0
 21 20  2  0
 22 23  1  0
 24 20  1  0
 25 22  2  0
M  END
$$$$
