ARD.pdb
     RDKit          3D

 25 24  0  0  1  0  0  0  0  0999 V2000
    8.2558  -14.0204   17.2875 C   0  0  0  0  0  0  0  0  0  0  0  0
    7.7055  -13.3665   18.5311 C   0  0  2  0  0  0  0  0  0  0  0  0
    7.8852  -11.9336   18.5181 N   0  0  0  0  0  0  0  0  0  0  0  0
    8.3421  -13.8899   19.7645 C   0  0  0  0  0  0  0  0  0  0  0  0
    9.3660  -13.3610   20.2703 O   0  0  0  0  0  0  0  0  0  0  0  0
    8.2514  -15.7357   27.4297 N   0  0  0  0  0  0  0  0  0  0  0  0
    9.1572  -16.7395   26.9857 C   0  0  0  0  0  0  0  0  0  0  0  0
   10.0432  -17.1599   27.8054 N   0  0  0  0  0  0  0  0  0  0  0  0
    9.0859  -17.2701   25.6586 N   0  0  0  0  0  0  0  0  0  0  0  0
    8.3074  -16.6029   24.6472 C   0  0  0  0  0  0  0  0  0  0  0  0
    8.3382  -17.3937   23.3603 C   0  0  0  0  0  0  0  0  0  0  0  0
    7.5805  -16.6337   22.2982 C   0  0  0  0  0  0  0  0  0  0  0  0
    8.4391  -15.5915   21.6224 C   0  0  2  0  0  0  0  0  0  0  0  0
    7.8220  -15.0371   20.4550 N   0  0  0  0  0  0  0  0  0  0  0  0
    9.7776  -16.0837   21.2788 C   0  0  0  0  0  0  0  0  0  0  0  0
    9.9536  -16.9010   20.3266 O   0  0  0  0  0  0  0  0  0  0  0  0
   10.7420  -17.8578   27.5013 N   0  0  0  0  0  0  0  0  0  0  0  0
   10.9654  -15.6880   21.9772 C   0  0  2  0  0  0  0  0  0  0  0  0
   12.2665  -16.2019   21.6336 C   0  0  0  0  0  0  0  0  0  0  0  0
   13.3606  -15.1753   21.8079 C   0  0  0  0  0  0  0  0  0  0  0  0
   14.6533  -15.6485   21.2480 O   0  0  0  0  0  0  0  0  0  0  0  0
   14.8153  -16.7337   20.6638 C   0  0  0  0  0  0  0  0  0  0  0  0
   12.6136  -17.4144   22.4140 O   0  0  0  0  0  0  0  0  0  0  0  0
   13.3915  -18.4370   21.9293 O   0  0  0  0  0  0  0  0  0  0  0  0
   15.7475  -14.8067   21.3966 O   0  0  0  0  0  0  0  0  0  0  0  0
  2  1  1  6
  3  2  1  0
  4  5  2  0
  4  2  1  0
  6  7  1  0
  7  9  1  0
  7  8  2  0
  9 10  1  0
 11 10  1  0
 12 11  1  0
 13 12  1  6
 13 14  1  0
 14  4  1  0
 15 17  1  0
 15 13  1  0
 16 15  2  0
 18 17  1  0
 18 22  1  0
 18 19  1  1
 20 19  1  0
 21 20  2  0
 22 23  1  0
 24 20  1  0
 25 22  2  0
M  END
$$$$
