ARD.pdb
     RDKit          3D

 25 24  0  0  1  0  0  0  0  0999 V2000
    8.0934  -19.1693   26.8166 C   0  0  0  0  0  0  0  0  0  0  0  0
    7.3404  -19.1176   25.5099 C   0  0  2  0  0  0  0  0  0  0  0  0
    6.8493  -20.4163   25.1126 N   0  0  0  0  0  0  0  0  0  0  0  0
    8.1789  -18.5944   24.4037 C   0  0  0  0  0  0  0  0  0  0  0  0
    8.7547  -19.3513   23.5793 O   0  0  0  0  0  0  0  0  0  0  0  0
    6.6703  -12.2144   19.2854 N   0  0  0  0  0  0  0  0  0  0  0  0
    7.8351  -13.0232   19.1661 C   0  0  0  0  0  0  0  0  0  0  0  0
    8.6865  -12.7274   18.2598 N   0  0  0  0  0  0  0  0  0  0  0  0
    8.0562  -14.1399   20.0332 N   0  0  0  0  0  0  0  0  0  0  0  0
    7.0326  -14.5621   20.9542 C   0  0  0  0  0  0  0  0  0  0  0  0
    7.4844  -15.7914   21.7071 C   0  0  0  0  0  0  0  0  0  0  0  0
    8.7145  -15.4497   22.5132 C   0  0  0  0  0  0  0  0  0  0  0  0
    9.2787  -16.6536   23.2288 C   0  0  2  0  0  0  0  0  0  0  0  0
    8.3817  -17.1856   24.2103 N   0  0  0  0  0  0  0  0  0  0  0  0
   10.5824  -16.3952   23.8494 C   0  0  0  0  0  0  0  0  0  0  0  0
   10.7116  -16.3369   25.1087 O   0  0  0  0  0  0  0  0  0  0  0  0
    9.5020  -13.3400   18.0941 N   0  0  0  0  0  0  0  0  0  0  0  0
   11.7862  -16.1928   23.0977 C   0  0  1  0  0  0  0  0  0  0  0  0
   13.0480  -16.7597   23.4994 C   0  0  0  0  0  0  0  0  0  0  0  0
   12.9834  -18.2595   23.6668 C   0  0  0  0  0  0  0  0  0  0  0  0
   13.5932  -18.6966   24.9495 O   0  0  0  0  0  0  0  0  0  0  0  0
   14.1488  -17.9380   25.7626 C   0  0  0  0  0  0  0  0  0  0  0  0
   14.1389  -16.4264   22.5516 O   0  0  0  0  0  0  0  0  0  0  0  0
   15.0835  -15.4576   22.7855 O   0  0  0  0  0  0  0  0  0  0  0  0
   13.5292  -20.0517   25.2454 O   0  0  0  0  0  0  0  0  0  0  0  0
  2  1  1  1
  3  2  1  0
  4  5  2  0
  4  2  1  0
  6  7  1  0
  7  9  1  0
  7  8  2  0
  9 10  1  0
 11 10  1  0
 12 11  1  0
 13 12  1  1
 13 14  1  0
 14  4  1  0
 15 17  1  0
 15 13  1  0
 16 15  2  0
 18 17  1  0
 18 22  1  0
 18 19  1  6
 20 19  1  0
 21 20  2  0
 22 23  1  0
 24 20  1  0
 25 22  2  0
M  END
$$$$
