ARD.pdb
     RDKit          3D

 25 24  0  0  1  0  0  0  0  0999 V2000
   14.7161  -17.5908   15.2680 C   0  0  0  0  0  0  0  0  0  0  0  0
   14.2695  -16.1791   14.9768 C   0  0  2  0  0  0  0  0  0  0  0  0
   15.2755  -15.4254   14.2657 N   0  0  0  0  0  0  0  0  0  0  0  0
   13.9377  -15.4327   16.2150 C   0  0  0  0  0  0  0  0  0  0  0  0
   14.7344  -14.6122   16.7405 O   0  0  0  0  0  0  0  0  0  0  0  0
    6.2713  -13.5439   20.5145 N   0  0  0  0  0  0  0  0  0  0  0  0
    7.3361  -12.9807   21.2723 C   0  0  0  0  0  0  0  0  0  0  0  0
    7.0417  -12.2170   22.2540 N   0  0  0  0  0  0  0  0  0  0  0  0
    8.7032  -13.2563   20.9514 N   0  0  0  0  0  0  0  0  0  0  0  0
    9.0513  -13.8364   19.6800 C   0  0  0  0  0  0  0  0  0  0  0  0
   10.5466  -14.0314   19.5885 C   0  0  0  0  0  0  0  0  0  0  0  0
   10.8767  -14.6888   18.2699 C   0  0  0  0  0  0  0  0  0  0  0  0
   12.3565  -14.9481   18.1180 C   0  0  2  0  0  0  0  0  0  0  0  0
   12.6805  -15.6058   16.8878 N   0  0  0  0  0  0  0  0  0  0  0  0
   12.9262  -15.7034   19.2391 C   0  0  0  0  0  0  0  0  0  0  0  0
   12.7942  -16.9611   19.3196 O   0  0  0  0  0  0  0  0  0  0  0  0
    7.7903  -11.7395   22.7826 N   0  0  0  0  0  0  0  0  0  0  0  0
   13.6606  -15.0924   20.3079 C   0  0  2  0  0  0  0  0  0  0  0  0
   14.1092  -15.8371   21.4565 C   0  0  0  0  0  0  0  0  0  0  0  0
   15.3283  -15.2251   22.1050 C   0  0  0  0  0  0  0  0  0  0  0  0
   16.4935  -15.2110   21.1828 O   0  0  0  0  0  0  0  0  0  0  0  0
   16.7234  -16.0774   20.3215 C   0  0  0  0  0  0  0  0  0  0  0  0
   13.0439  -15.9879   22.4772 O   0  0  0  0  0  0  0  0  0  0  0  0
   13.1842  -16.7328   23.6222 O   0  0  0  0  0  0  0  0  0  0  0  0
   17.3782  -14.1479   21.3052 O   0  0  0  0  0  0  0  0  0  0  0  0
  2  1  1  1
  3  2  1  0
  4  5  2  0
  4  2  1  0
  6  7  1  0
  7  9  1  0
  7  8  2  0
  9 10  1  0
 11 10  1  0
 12 11  1  0
 13 12  1  1
 13 14  1  0
 14  4  1  0
 15 17  1  0
 15 13  1  0
 16 15  2  0
 18 17  1  0
 18 22  1  0
 18 19  1  6
 20 19  1  0
 21 20  2  0
 22 23  1  0
 24 20  1  0
 25 22  2  0
M  END
$$$$
