ARD.pdb
     RDKit          3D

 25 24  0  0  1  0  0  0  0  0999 V2000
    8.4048  -13.9430   17.0041 C   0  0  0  0  0  0  0  0  0  0  0  0
    7.8444  -13.6645   18.3772 C   0  0  2  0  0  0  0  0  0  0  0  0
    7.5919  -12.2581   18.5873 N   0  0  0  0  0  0  0  0  0  0  0  0
    8.7538  -14.1255   19.4546 C   0  0  0  0  0  0  0  0  0  0  0  0
    9.6334  -13.3795   19.9584 O   0  0  0  0  0  0  0  0  0  0  0  0
   12.2342  -20.4197   22.0616 N   0  0  0  0  0  0  0  0  0  0  0  0
   11.8763  -20.4063   23.4389 C   0  0  0  0  0  0  0  0  0  0  0  0
   12.6570  -20.9807   24.2722 N   0  0  0  0  0  0  0  0  0  0  0  0
   10.6763  -19.7693   23.8885 N   0  0  0  0  0  0  0  0  0  0  0  0
    9.7416  -19.2218   22.9395 C   0  0  0  0  0  0  0  0  0  0  0  0
   10.1786  -17.8389   22.5166 C   0  0  0  0  0  0  0  0  0  0  0  0
    9.1471  -17.2636   21.5760 C   0  0  0  0  0  0  0  0  0  0  0  0
    9.5994  -15.9594   20.9640 C   0  0  2  0  0  0  0  0  0  0  0  0
    8.6808  -15.4578   19.9865 N   0  0  0  0  0  0  0  0  0  0  0  0
   10.9420  -16.0341   20.3778 C   0  0  0  0  0  0  0  0  0  0  0  0
   11.1557  -16.6687   19.3020 O   0  0  0  0  0  0  0  0  0  0  0  0
   12.4067  -21.0224   25.2739 N   0  0  0  0  0  0  0  0  0  0  0  0
   12.0923  -15.4094   20.9623 C   0  0  1  0  0  0  0  0  0  0  0  0
   13.4067  -15.5244   20.3841 C   0  0  0  0  0  0  0  0  0  0  0  0
   13.9542  -14.1959   19.9185 C   0  0  0  0  0  0  0  0  0  0  0  0
   14.4852  -14.2748   18.5329 O   0  0  0  0  0  0  0  0  0  0  0  0
   14.6669  -15.3321   17.9049 C   0  0  0  0  0  0  0  0  0  0  0  0
   14.3769  -16.1458   21.3178 O   0  0  0  0  0  0  0  0  0  0  0  0
   15.5189  -16.7921   20.9131 O   0  0  0  0  0  0  0  0  0  0  0  0
   14.7954  -13.0732   17.9101 O   0  0  0  0  0  0  0  0  0  0  0  0
  2  1  1  6
  3  2  1  0
  4  5  2  0
  4  2  1  0
  6  7  1  0
  7  9  1  0
  7  8  2  0
  9 10  1  0
 11 10  1  0
 12 11  1  0
 13 12  1  6
 13 14  1  0
 14  4  1  0
 15 17  1  0
 15 13  1  0
 16 15  2  0
 18 17  1  0
 18 22  1  0
 18 19  1  1
 20 19  1  0
 21 20  2  0
 22 23  1  0
 24 20  1  0
 25 22  2  0
M  END
$$$$
