ARD.pdb
     RDKit          3D

 25 24  0  0  1  0  0  0  0  0999 V2000
    8.5958  -12.2392   19.2841 C   0  0  0  0  0  0  0  0  0  0  0  0
    7.7501  -13.3639   18.7392 C   0  0  2  0  0  0  0  0  0  0  0  0
    6.3379  -13.0737   18.8240 N   0  0  0  0  0  0  0  0  0  0  0  0
    7.9921  -14.6406   19.4547 C   0  0  0  0  0  0  0  0  0  0  0  0
    7.4934  -14.8845   20.5842 O   0  0  0  0  0  0  0  0  0  0  0  0
    7.3769  -17.0671   14.5247 N   0  0  0  0  0  0  0  0  0  0  0  0
    6.9074  -18.3167   15.0179 C   0  0  0  0  0  0  0  0  0  0  0  0
    5.6773  -18.6141   14.8385 N   0  0  0  0  0  0  0  0  0  0  0  0
    7.7817  -19.2229   15.6977 N   0  0  0  0  0  0  0  0  0  0  0  0
    8.8789  -18.7246   16.4863 C   0  0  0  0  0  0  0  0  0  0  0  0
    8.4454  -18.5355   17.9211 C   0  0  0  0  0  0  0  0  0  0  0  0
    9.6059  -17.9889   18.7173 C   0  0  0  0  0  0  0  0  0  0  0  0
    9.1913  -16.8521   19.6206 C   0  0  2  0  0  0  0  0  0  0  0  0
    8.8147  -15.6765   18.8947 N   0  0  0  0  0  0  0  0  0  0  0  0
   10.2131  -16.5049   20.6141 C   0  0  0  0  0  0  0  0  0  0  0  0
   10.3866  -15.3066   20.9881 O   0  0  0  0  0  0  0  0  0  0  0  0
    5.2865  -19.4771   15.2511 N   0  0  0  0  0  0  0  0  0  0  0  0
   11.0765  -17.4715   21.2266 C   0  0  2  0  0  0  0  0  0  0  0  0
   11.7398  -17.2242   22.4812 C   0  0  0  0  0  0  0  0  0  0  0  0
   10.7692  -16.9914   23.6148 C   0  0  0  0  0  0  0  0  0  0  0  0
   11.4734  -16.7360   24.8983 O   0  0  0  0  0  0  0  0  0  0  0  0
   12.7088  -16.7226   25.0360 C   0  0  0  0  0  0  0  0  0  0  0  0
   12.6619  -18.3244   22.8536 O   0  0  0  0  0  0  0  0  0  0  0  0
   13.8236  -18.1396   23.5621 O   0  0  0  0  0  0  0  0  0  0  0  0
   10.6804  -16.4974   26.0128 O   0  0  0  0  0  0  0  0  0  0  0  0
  2  1  1  1
  3  2  1  0
  4  5  2  0
  4  2  1  0
  6  7  1  0
  7  9  1  0
  7  8  2  0
  9 10  1  0
 11 10  1  0
 12 11  1  0
 13 12  1  6
 13 14  1  0
 14  4  1  0
 15 17  1  0
 15 13  1  0
 16 15  2  0
 18 17  1  0
 18 22  1  0
 18 19  1  6
 20 19  1  0
 21 20  2  0
 22 23  1  0
 24 20  1  0
 25 22  2  0
M  END
$$$$
