ARD.pdb
     RDKit          3D

 25 24  0  0  1  0  0  0  0  0999 V2000
    6.5980  -21.3655   25.4068 C   0  0  0  0  0  0  0  0  0  0  0  0
    5.9779  -20.9253   24.1034 C   0  0  2  0  0  0  0  0  0  0  0  0
    5.6037  -22.0457   23.2725 N   0  0  0  0  0  0  0  0  0  0  0  0
    6.8916  -20.0635   23.3142 C   0  0  0  0  0  0  0  0  0  0  0  0
    7.8490  -20.5323   22.6452 O   0  0  0  0  0  0  0  0  0  0  0  0
    7.8674  -11.6587   20.0031 N   0  0  0  0  0  0  0  0  0  0  0  0
    7.9965  -12.7989   19.1614 C   0  0  0  0  0  0  0  0  0  0  0  0
    8.4949  -12.6366   17.9956 N   0  0  0  0  0  0  0  0  0  0  0  0
    7.5822  -14.0966   19.5997 N   0  0  0  0  0  0  0  0  0  0  0  0
    7.2303  -14.3231   20.9777 C   0  0  0  0  0  0  0  0  0  0  0  0
    7.9741  -15.5235   21.5146 C   0  0  0  0  0  0  0  0  0  0  0  0
    6.9826  -16.4801   22.1323 C   0  0  0  0  0  0  0  0  0  0  0  0
    7.6319  -17.7737   22.5624 C   0  0  2  0  0  0  0  0  0  0  0  0
    6.7337  -18.6365   23.2693 N   0  0  0  0  0  0  0  0  0  0  0  0
    8.8439  -17.5704   23.3634 C   0  0  0  0  0  0  0  0  0  0  0  0
    8.7774  -17.2367   24.5841 O   0  0  0  0  0  0  0  0  0  0  0  0
    8.7082  -13.4564   17.4037 N   0  0  0  0  0  0  0  0  0  0  0  0
   10.1693  -17.7295   22.8406 C   0  0  2  0  0  0  0  0  0  0  0  0
   11.3444  -17.4791   23.6353 C   0  0  0  0  0  0  0  0  0  0  0  0
   11.9583  -18.7475   24.1790 C   0  0  0  0  0  0  0  0  0  0  0  0
   13.1809  -18.4690   24.9765 O   0  0  0  0  0  0  0  0  0  0  0  0
   13.6396  -17.3342   25.1937 C   0  0  0  0  0  0  0  0  0  0  0  0
   12.3780  -16.7257   22.8847 O   0  0  0  0  0  0  0  0  0  0  0  0
   12.7075  -16.9796   21.5760 O   0  0  0  0  0  0  0  0  0  0  0  0
   13.8458  -19.5651   25.5097 O   0  0  0  0  0  0  0  0  0  0  0  0
  2  1  1  1
  3  2  1  0
  4  5  2  0
  4  2  1  0
  6  7  1  0
  7  9  1  0
  7  8  2  0
  9 10  1  0
 11 10  1  0
 12 11  1  0
 13 12  1  1
 13 14  1  0
 14  4  1  0
 15 17  1  0
 15 13  1  0
 16 15  2  0
 18 17  1  0
 18 22  1  0
 18 19  1  6
 20 19  1  0
 21 20  2  0
 22 23  1  0
 24 20  1  0
 25 22  2  0
M  END
$$$$
