ARD.pdb
     RDKit          3D

 25 24  0  0  1  0  0  0  0  0999 V2000
   13.4190  -19.2607   16.2013 C   0  0  0  0  0  0  0  0  0  0  0  0
   12.7617  -17.9583   15.8155 C   0  0  2  0  0  0  0  0  0  0  0  0
   13.3778  -17.3603   14.6543 N   0  0  0  0  0  0  0  0  0  0  0  0
   12.8090  -16.9630   16.9144 C   0  0  0  0  0  0  0  0  0  0  0  0
   13.7395  -16.1224   17.0218 O   0  0  0  0  0  0  0  0  0  0  0  0
    7.5582  -12.7443   21.4982 N   0  0  0  0  0  0  0  0  0  0  0  0
    7.7508  -12.6534   20.0911 C   0  0  0  0  0  0  0  0  0  0  0  0
    8.1300  -11.5343   19.6037 N   0  0  0  0  0  0  0  0  0  0  0  0
    7.5284  -13.7795   19.2366 N   0  0  0  0  0  0  0  0  0  0  0  0
    8.1979  -15.0295   19.4882 C   0  0  0  0  0  0  0  0  0  0  0  0
    9.5666  -15.0252   18.8487 C   0  0  0  0  0  0  0  0  0  0  0  0
   10.5163  -15.8174   19.7148 C   0  0  0  0  0  0  0  0  0  0  0  0
   11.8569  -16.0212   19.0506 C   0  0  2  0  0  0  0  0  0  0  0  0
   11.7889  -16.9026   17.9238 N   0  0  0  0  0  0  0  0  0  0  0  0
   12.8919  -16.4935   19.9767 C   0  0  0  0  0  0  0  0  0  0  0  0
   13.0796  -17.7304   20.1782 O   0  0  0  0  0  0  0  0  0  0  0  0
    8.2145  -11.4158   18.5806 N   0  0  0  0  0  0  0  0  0  0  0  0
   13.7531  -15.6131   20.7104 C   0  0  2  0  0  0  0  0  0  0  0  0
   14.7102  -16.0985   21.6714 C   0  0  0  0  0  0  0  0  0  0  0  0
   15.9094  -15.1901   21.8058 C   0  0  0  0  0  0  0  0  0  0  0  0
   16.6397  -15.0490   20.5193 O   0  0  0  0  0  0  0  0  0  0  0  0
   16.4169  -15.7280   19.5022 C   0  0  0  0  0  0  0  0  0  0  0  0
   14.1058  -16.3013   23.0104 O   0  0  0  0  0  0  0  0  0  0  0  0
   12.8053  -15.9844   23.3165 O   0  0  0  0  0  0  0  0  0  0  0  0
   17.6387  -14.0860   20.4668 O   0  0  0  0  0  0  0  0  0  0  0  0
  2  1  1  1
  3  2  1  0
  4  5  2  0
  4  2  1  0
  6  7  1  0
  7  9  1  0
  7  8  2  0
  9 10  1  0
 11 10  1  0
 12 11  1  0
 13 12  1  1
 13 14  1  0
 14  4  1  0
 15 17  1  0
 15 13  1  0
 16 15  2  0
 18 17  1  0
 18 22  1  0
 18 19  1  6
 20 19  1  0
 21 20  2  0
 22 23  1  0
 24 20  1  0
 25 22  2  0
M  END
$$$$
