ARD.pdb
     RDKit          3D

 25 24  0  0  1  0  0  0  0  0999 V2000
   15.3477  -17.7022   16.2255 C   0  0  0  0  0  0  0  0  0  0  0  0
   14.5722  -16.4314   15.9792 C   0  0  2  0  0  0  0  0  0  0  0  0
   15.2320  -15.5662   15.0295 N   0  0  0  0  0  0  0  0  0  0  0  0
   14.3622  -15.6558   17.2261 C   0  0  0  0  0  0  0  0  0  0  0  0
   15.1985  -14.8130   17.6437 O   0  0  0  0  0  0  0  0  0  0  0  0
    8.0637  -11.9410   20.0264 N   0  0  0  0  0  0  0  0  0  0  0  0
    7.6942  -12.7484   18.9143 C   0  0  0  0  0  0  0  0  0  0  0  0
    6.4571  -12.8146   18.5996 N   0  0  0  0  0  0  0  0  0  0  0  0
    8.6742  -13.4707   18.1623 N   0  0  0  0  0  0  0  0  0  0  0  0
    9.4312  -14.5300   18.7782 C   0  0  0  0  0  0  0  0  0  0  0  0
   10.8212  -14.0465   19.1191 C   0  0  0  0  0  0  0  0  0  0  0  0
   11.5870  -15.1725   19.7713 C   0  0  0  0  0  0  0  0  0  0  0  0
   13.0271  -15.2180   19.3194 C   0  0  2  0  0  0  0  0  0  0  0  0
   13.1851  -15.8245   18.0318 N   0  0  0  0  0  0  0  0  0  0  0  0
   13.9115  -15.8825   20.2828 C   0  0  0  0  0  0  0  0  0  0  0  0
   14.0548  -17.1415   20.2845 O   0  0  0  0  0  0  0  0  0  0  0  0
    6.1624  -13.3423   17.7614 N   0  0  0  0  0  0  0  0  0  0  0  0
   14.6665  -15.1762   21.2760 C   0  0  2  0  0  0  0  0  0  0  0  0
   15.5402  -15.8510   22.2014 C   0  0  0  0  0  0  0  0  0  0  0  0
   16.8033  -15.0714   22.4808 C   0  0  0  0  0  0  0  0  0  0  0  0
   17.6953  -15.7901   23.4274 O   0  0  0  0  0  0  0  0  0  0  0  0
   17.4329  -16.8861   23.9519 C   0  0  0  0  0  0  0  0  0  0  0  0
   14.8665  -16.1554   23.4871 O   0  0  0  0  0  0  0  0  0  0  0  0
   13.5676  -15.8102   23.7685 O   0  0  0  0  0  0  0  0  0  0  0  0
   18.9037  -15.1803   23.7372 O   0  0  0  0  0  0  0  0  0  0  0  0
  2  1  1  1
  3  2  1  0
  4  5  2  0
  4  2  1  0
  6  7  1  0
  7  9  1  0
  7  8  2  0
  9 10  1  0
 11 10  1  0
 12 11  1  0
 13 12  1  1
 13 14  1  0
 14  4  1  0
 15 17  1  0
 15 13  1  0
 16 15  2  0
 18 17  1  0
 18 22  1  0
 18 19  1  1
 20 19  1  0
 21 20  2  0
 22 23  1  0
 24 20  1  0
 25 22  2  0
M  END
$$$$
