ARD.pdb
     RDKit          3D

 25 24  0  0  1  0  0  0  0  0999 V2000
   14.5841  -14.1565   17.9458 C   0  0  0  0  0  0  0  0  0  0  0  0
   13.8898  -15.3368   18.5797 C   0  0  2  0  0  0  0  0  0  0  0  0
   12.8435  -15.8693   17.7386 N   0  0  0  0  0  0  0  0  0  0  0  0
   13.2841  -14.9904   19.8887 C   0  0  0  0  0  0  0  0  0  0  0  0
   13.9768  -14.6413   20.8798 O   0  0  0  0  0  0  0  0  0  0  0  0
    8.2093  -13.9976   16.1832 N   0  0  0  0  0  0  0  0  0  0  0  0
    7.9665  -13.4251   17.4632 C   0  0  0  0  0  0  0  0  0  0  0  0
    8.3407  -12.2201   17.6676 N   0  0  0  0  0  0  0  0  0  0  0  0
    7.3212  -14.1707   18.5003 N   0  0  0  0  0  0  0  0  0  0  0  0
    7.8282  -14.1351   19.8478 C   0  0  0  0  0  0  0  0  0  0  0  0
    9.3064  -14.4469   19.8565 C   0  0  0  0  0  0  0  0  0  0  0  0
    9.7998  -14.4492   21.2835 C   0  0  0  0  0  0  0  0  0  0  0  0
   11.2583  -14.8278   21.3807 C   0  0  2  0  0  0  0  0  0  0  0  0
   11.8639  -15.0343   20.0995 N   0  0  0  0  0  0  0  0  0  0  0  0
   11.4921  -16.0041   22.2255 C   0  0  0  0  0  0  0  0  0  0  0  0
   11.0824  -17.1528   21.8816 O   0  0  0  0  0  0  0  0  0  0  0  0
    8.2929  -11.8159   18.6174 N   0  0  0  0  0  0  0  0  0  0  0  0
   12.1867  -15.9484   23.4783 C   0  0  1  0  0  0  0  0  0  0  0  0
   12.4591  -17.1277   24.2594 C   0  0  0  0  0  0  0  0  0  0  0  0
   13.7786  -17.0479   24.9901 C   0  0  0  0  0  0  0  0  0  0  0  0
   14.9115  -16.8177   24.0563 O   0  0  0  0  0  0  0  0  0  0  0  0
   14.9836  -17.2811   22.9050 C   0  0  0  0  0  0  0  0  0  0  0  0
   11.3818  -17.4121   25.2383 O   0  0  0  0  0  0  0  0  0  0  0  0
   11.3122  -18.5636   25.9831 O   0  0  0  0  0  0  0  0  0  0  0  0
   15.9551  -16.0269   24.5182 O   0  0  0  0  0  0  0  0  0  0  0  0
  2  1  1  6
  3  2  1  0
  4  5  2  0
  4  2  1  0
  6  7  1  0
  7  9  1  0
  7  8  2  0
  9 10  1  0
 11 10  1  0
 12 11  1  0
 13 12  1  6
 13 14  1  0
 14  4  1  0
 15 17  1  0
 15 13  1  0
 16 15  2  0
 18 17  1  0
 18 22  1  0
 18 19  1  6
 20 19  1  0
 21 20  2  0
 22 23  1  0
 24 20  1  0
 25 22  2  0
M  END
$$$$
