IAR.pdb
     RDKit          3D

 25 24  0  0  1  0  0  0  0  0999 V2000
    6.9799  -16.1631   17.2317 C   0  0  0  0  0  0  0  0  0  0  0  0
    6.9083  -14.8627   17.9541 C   0  0  0  0  0  0  0  0  0  0  0  0
    7.4262  -14.8448   19.3435 C   0  0  2  0  0  0  0  0  0  0  0  0
    7.0172  -16.1033   20.0914 C   0  0  0  0  0  0  0  0  0  0  0  0
    7.3114  -13.5913   20.1175 C   0  0  2  0  0  0  0  0  0  0  0  0
    7.9123  -12.5165   19.2946 N   0  0  0  0  0  0  0  0  0  0  0  0
    7.9215  -13.5614   21.4502 C   0  0  0  0  0  0  0  0  0  0  0  0
    9.1537  -13.6476   21.6709 O   0  0  0  0  0  0  0  0  0  0  0  0
    6.7094  -12.8938   24.9511 C   0  0  0  0  0  0  0  0  0  0  0  0
    7.6287  -13.5076   23.8972 C   0  0  2  0  0  0  0  0  0  0  0  0
    7.0823  -13.4263   22.5870 N   0  0  0  0  0  0  0  0  0  0  0  0
    8.0032  -14.9019   24.2807 C   0  0  0  0  0  0  0  0  0  0  0  0
    7.1974  -15.8467   24.0826 O   0  0  0  0  0  0  0  0  0  0  0  0
   14.8413  -18.7657   22.1871 N   0  0  0  0  0  0  0  0  0  0  0  0
   14.0753  -19.8742   22.5960 C   0  0  0  0  0  0  0  0  0  0  0  0
   14.6942  -21.0019   22.8027 N   0  0  0  0  0  0  0  0  0  0  0  0
   12.6667  -19.8250   22.7937 N   0  0  0  0  0  0  0  0  0  0  0  0
   11.9086  -18.5868   22.5443 C   0  0  0  0  0  0  0  0  0  0  0  0
   11.7760  -17.8924   23.8471 C   0  0  0  0  0  0  0  0  0  0  0  0
   11.0150  -16.6327   23.8902 C   0  0  0  0  0  0  0  0  0  0  0  0
    9.8544  -16.5402   24.8102 C   0  0  2  0  0  0  0  0  0  0  0  0
    9.2554  -15.2201   24.8726 N   0  0  0  0  0  0  0  0  0  0  0  0
   10.0779  -17.0993   26.1621 C   0  0  0  0  0  0  0  0  0  0  0  0
    9.9938  -18.3291   26.3899 O   0  0  0  0  0  0  0  0  0  0  0  0
   10.3895  -16.2697   27.2232 O   0  0  0  0  0  0  0  0  0  0  0  0
  2  3  1  0
  2  1  1  0
  3  4  1  1
  5  3  1  0
  5  6  1  6
  7  5  1  0
  7  8  2  0
 10  9  1  1
 10 12  1  0
 11 10  1  0
 11  7  1  0
 12 13  2  0
 12 22  1  0
 15 16  2  0
 15 14  1  0
 17 15  1  0
 18 19  1  0
 18 17  1  0
 20 19  1  0
 21 20  1  1
 21 23  1  0
 22 21  1  0
 23 24  2  0
 23 25  1  0
M  END
$$$$
