IAR.pdb
     RDKit          3D

 25 24  0  0  1  0  0  0  0  0999 V2000
    6.9320  -12.3591   18.8075 C   0  0  0  0  0  0  0  0  0  0  0  0
    7.6395  -13.6673   18.8862 C   0  0  0  0  0  0  0  0  0  0  0  0
    8.5931  -13.8408   20.0084 C   0  0  2  0  0  0  0  0  0  0  0  0
    9.4440  -12.5952   20.1950 C   0  0  0  0  0  0  0  0  0  0  0  0
    9.3244  -15.1203   20.1144 C   0  0  2  0  0  0  0  0  0  0  0  0
    8.3453  -16.2022   19.8609 N   0  0  0  0  0  0  0  0  0  0  0  0
   10.0194  -15.3995   21.3748 C   0  0  0  0  0  0  0  0  0  0  0  0
   10.9317  -14.6860   21.8574 O   0  0  0  0  0  0  0  0  0  0  0  0
    9.5626  -17.8843   24.1759 C   0  0  0  0  0  0  0  0  0  0  0  0
   10.3256  -16.8637   23.3339 C   0  0  2  0  0  0  0  0  0  0  0  0
    9.6538  -16.5505   22.1205 N   0  0  0  0  0  0  0  0  0  0  0  0
   11.7321  -17.3167   23.1145 C   0  0  0  0  0  0  0  0  0  0  0  0
   11.9639  -18.3249   22.3997 O   0  0  0  0  0  0  0  0  0  0  0  0
   12.4337  -14.5819   19.4570 N   0  0  0  0  0  0  0  0  0  0  0  0
   13.6853  -14.5026   18.8168 C   0  0  0  0  0  0  0  0  0  0  0  0
   13.7058  -14.4914   17.5141 N   0  0  0  0  0  0  0  0  0  0  0  0
   14.9223  -14.4346   19.5172 N   0  0  0  0  0  0  0  0  0  0  0  0
   14.9591  -14.3947   20.9894 C   0  0  0  0  0  0  0  0  0  0  0  0
   15.0136  -15.7999   21.4578 C   0  0  0  0  0  0  0  0  0  0  0  0
   15.1025  -16.0478   22.9064 C   0  0  0  0  0  0  0  0  0  0  0  0
   14.2193  -17.0812   23.5013 C   0  0  2  0  0  0  0  0  0  0  0  0
   12.8472  -16.6477   23.6878 N   0  0  0  0  0  0  0  0  0  0  0  0
   14.7507  -17.7384   24.7162 C   0  0  0  0  0  0  0  0  0  0  0  0
   14.1563  -17.6691   25.8177 O   0  0  0  0  0  0  0  0  0  0  0  0
   15.9317  -18.4554   24.6681 O   0  0  0  0  0  0  0  0  0  0  0  0
  2  3  1  0
  2  1  1  0
  3  4  1  6
  5  3  1  0
  5  6  1  1
  7  5  1  0
  7  8  2  0
 10  9  1  6
 10 12  1  0
 11 10  1  0
 11  7  1  0
 12 13  2  0
 12 22  1  0
 15 16  2  0
 15 14  1  0
 17 15  1  0
 18 19  1  0
 18 17  1  0
 20 19  1  0
 21 20  1  1
 21 23  1  0
 22 21  1  0
 23 24  2  0
 23 25  1  0
M  END
$$$$
