IAR.pdb
     RDKit          3D

 25 24  0  0  1  0  0  0  0  0999 V2000
    7.6498  -11.8345   19.6248 C   0  0  0  0  0  0  0  0  0  0  0  0
    6.9238  -13.0478   20.0929 C   0  0  0  0  0  0  0  0  0  0  0  0
    7.7570  -14.1958   20.5248 C   0  0  2  0  0  0  0  0  0  0  0  0
    8.9458  -14.3833   19.5962 C   0  0  0  0  0  0  0  0  0  0  0  0
    7.0755  -15.4430   20.9289 C   0  0  2  0  0  0  0  0  0  0  0  0
    5.9834  -15.0609   21.8535 N   0  0  0  0  0  0  0  0  0  0  0  0
    7.8898  -16.4827   21.5654 C   0  0  0  0  0  0  0  0  0  0  0  0
    8.4015  -16.3864   22.7071 O   0  0  0  0  0  0  0  0  0  0  0  0
    8.8766  -20.0236   20.7182 C   0  0  0  0  0  0  0  0  0  0  0  0
    9.0332  -18.6591   21.3860 C   0  0  2  0  0  0  0  0  0  0  0  0
    8.1312  -17.6923   20.8630 N   0  0  0  0  0  0  0  0  0  0  0  0
   10.4570  -18.2108   21.3275 C   0  0  0  0  0  0  0  0  0  0  0  0
   10.8469  -17.4758   20.3846 O   0  0  0  0  0  0  0  0  0  0  0  0
   17.8675  -17.0772   22.6957 N   0  0  0  0  0  0  0  0  0  0  0  0
   17.5470  -16.1602   23.7150 C   0  0  0  0  0  0  0  0  0  0  0  0
   18.3076  -16.1312   24.7724 N   0  0  0  0  0  0  0  0  0  0  0  0
   16.4399  -15.2682   23.6488 N   0  0  0  0  0  0  0  0  0  0  0  0
   15.0926  -15.6998   24.0595 C   0  0  0  0  0  0  0  0  0  0  0  0
   14.6491  -16.7201   23.0801 C   0  0  0  0  0  0  0  0  0  0  0  0
   13.2866  -17.2630   23.2092 C   0  0  0  0  0  0  0  0  0  0  0  0
   12.8256  -18.2584   22.2099 C   0  0  2  0  0  0  0  0  0  0  0  0
   11.4150  -18.5833   22.3089 N   0  0  0  0  0  0  0  0  0  0  0  0
   13.6577  -19.4780   22.1078 C   0  0  0  0  0  0  0  0  0  0  0  0
   13.3504  -20.5382   22.7018 O   0  0  0  0  0  0  0  0  0  0  0  0
   14.8106  -19.4806   21.3449 O   0  0  0  0  0  0  0  0  0  0  0  0
  2  3  1  0
  2  1  1  0
  3  4  1  6
  5  3  1  0
  5  6  1  1
  7  5  1  0
  7  8  2  0
 10  9  1  6
 10 12  1  0
 11 10  1  0
 11  7  1  0
 12 13  2  0
 12 22  1  0
 15 16  2  0
 15 14  1  0
 17 15  1  0
 18 19  1  0
 18 17  1  0
 20 19  1  0
 21 20  1  1
 21 23  1  0
 22 21  1  0
 23 24  2  0
 23 25  1  0
M  END
$$$$
