IAR.pdb
     RDKit          3D

 25 24  0  0  1  0  0  0  0  0999 V2000
    6.7784  -12.4355   18.9781 C   0  0  0  0  0  0  0  0  0  0  0  0
    7.1949  -13.7997   19.4066 C   0  0  0  0  0  0  0  0  0  0  0  0
    8.6263  -13.9810   19.7487 C   0  0  2  0  0  0  0  0  0  0  0  0
    9.5204  -13.3479   18.6951 C   0  0  0  0  0  0  0  0  0  0  0  0
    9.0686  -15.3057   20.2313 C   0  0  2  0  0  0  0  0  0  0  0  0
    8.8857  -16.2586   19.1123 N   0  0  0  0  0  0  0  0  0  0  0  0
    8.4080  -15.8462   21.4233 C   0  0  0  0  0  0  0  0  0  0  0  0
    8.2870  -15.2311   22.5103 O   0  0  0  0  0  0  0  0  0  0  0  0
    6.9112  -19.2114   22.3094 C   0  0  0  0  0  0  0  0  0  0  0  0
    7.3587  -17.7711   22.5502 C   0  0  2  0  0  0  0  0  0  0  0  0
    7.8584  -17.1538   21.3708 N   0  0  0  0  0  0  0  0  0  0  0  0
    8.3251  -17.7090   23.6877 C   0  0  0  0  0  0  0  0  0  0  0  0
    9.5557  -17.8584   23.4764 O   0  0  0  0  0  0  0  0  0  0  0  0
    5.2132  -12.1508   26.5386 N   0  0  0  0  0  0  0  0  0  0  0  0
    6.5913  -11.8994   26.3958 C   0  0  0  0  0  0  0  0  0  0  0  0
    6.9639  -10.6859   26.1024 N   0  0  0  0  0  0  0  0  0  0  0  0
    7.5921  -12.8986   26.5548 N   0  0  0  0  0  0  0  0  0  0  0  0
    7.2284  -14.2993   26.8308 C   0  0  0  0  0  0  0  0  0  0  0  0
    8.4960  -15.0547   26.9702 C   0  0  0  0  0  0  0  0  0  0  0  0
    8.4189  -16.5023   27.2275 C   0  0  0  0  0  0  0  0  0  0  0  0
    8.8320  -17.4341   26.1491 C   0  0  2  0  0  0  0  0  0  0  0  0
    7.9115  -17.4842   25.0286 N   0  0  0  0  0  0  0  0  0  0  0  0
    9.2101  -18.7914   26.6020 C   0  0  0  0  0  0  0  0  0  0  0  0
    8.4609  -19.7801   26.4212 O   0  0  0  0  0  0  0  0  0  0  0  0
   10.4148  -19.0079   27.2445 O   0  0  0  0  0  0  0  0  0  0  0  0
  2  3  1  0
  2  1  1  0
  3  4  1  6
  5  3  1  0
  5  6  1  6
  7  5  1  0
  7  8  2  0
 10  9  1  6
 10 12  1  0
 11 10  1  0
 11  7  1  0
 12 13  2  0
 12 22  1  0
 15 16  2  0
 15 14  1  0
 17 15  1  0
 18 19  1  0
 18 17  1  0
 20 19  1  0
 21 20  1  1
 21 23  1  0
 22 21  1  0
 23 24  2  0
 23 25  1  0
M  END
$$$$
