IAR.pdb
     RDKit          3D

 25 24  0  0  1  0  0  0  0  0999 V2000
    5.4460  -10.7124   26.5738 C   0  0  0  0  0  0  0  0  0  0  0  0
    5.6448  -11.8804   27.4763 C   0  0  0  0  0  0  0  0  0  0  0  0
    6.6581  -12.8788   27.0579 C   0  0  2  0  0  0  0  0  0  0  0  0
    8.0183  -12.2263   26.8716 C   0  0  0  0  0  0  0  0  0  0  0  0
    6.2865  -13.8597   26.0172 C   0  0  2  0  0  0  0  0  0  0  0  0
    5.0021  -14.4686   26.4334 N   0  0  0  0  0  0  0  0  0  0  0  0
    7.2435  -14.9315   25.7258 C   0  0  0  0  0  0  0  0  0  0  0  0
    8.4472  -14.7476   25.4226 O   0  0  0  0  0  0  0  0  0  0  0  0
    7.0060  -18.7065   25.4978 C   0  0  0  0  0  0  0  0  0  0  0  0
    7.6411  -17.3294   25.3162 C   0  0  2  0  0  0  0  0  0  0  0  0
    6.8037  -16.2797   25.7837 N   0  0  0  0  0  0  0  0  0  0  0  0
    8.0709  -17.1367   23.8985 C   0  0  0  0  0  0  0  0  0  0  0  0
    7.2129  -17.1076   22.9796 O   0  0  0  0  0  0  0  0  0  0  0  0
    7.3732  -12.5898   18.8622 N   0  0  0  0  0  0  0  0  0  0  0  0
    7.9750  -13.5483   18.0245 C   0  0  0  0  0  0  0  0  0  0  0  0
    7.3534  -13.8781   16.9280 N   0  0  0  0  0  0  0  0  0  0  0  0
    9.2214  -14.1715   18.3137 N   0  0  0  0  0  0  0  0  0  0  0  0
    9.9071  -13.9370   19.5963 C   0  0  0  0  0  0  0  0  0  0  0  0
   10.1617  -15.2671   20.1988 C   0  0  0  0  0  0  0  0  0  0  0  0
    9.6749  -15.5167   21.5658 C   0  0  0  0  0  0  0  0  0  0  0  0
    9.8791  -16.8641   22.1529 C   0  0  2  0  0  0  0  0  0  0  0  0
    9.4343  -16.9811   23.5291 N   0  0  0  0  0  0  0  0  0  0  0  0
   11.2343  -17.4303   21.9706 C   0  0  0  0  0  0  0  0  0  0  0  0
   11.7734  -17.5012   20.8411 O   0  0  0  0  0  0  0  0  0  0  0  0
   11.9508  -17.9019   23.0547 O   0  0  0  0  0  0  0  0  0  0  0  0
  2  3  1  0
  2  1  1  0
  3  4  1  6
  5  3  1  0
  5  6  1  1
  7  5  1  0
  7  8  2  0
 10  9  1  6
 10 12  1  0
 11 10  1  0
 11  7  1  0
 12 13  2  0
 12 22  1  0
 15 16  2  0
 15 14  1  0
 17 15  1  0
 18 19  1  0
 18 17  1  0
 20 19  1  0
 21 20  1  1
 21 23  1  0
 22 21  1  0
 23 24  2  0
 23 25  1  0
M  END
$$$$
