IAR.pdb
     RDKit          3D

 25 24  0  0  1  0  0  0  0  0999 V2000
    7.1795  -10.9822   27.7592 C   0  0  0  0  0  0  0  0  0  0  0  0
    7.5696  -12.3810   27.4285 C   0  0  0  0  0  0  0  0  0  0  0  0
    6.7049  -13.1018   26.4633 C   0  0  2  0  0  0  0  0  0  0  0  0
    5.2395  -12.9728   26.8462 C   0  0  0  0  0  0  0  0  0  0  0  0
    7.1203  -14.4492   26.0215 C   0  0  2  0  0  0  0  0  0  0  0  0
    8.5093  -14.6518   26.4938 N   0  0  0  0  0  0  0  0  0  0  0  0
    7.0643  -14.7368   24.5850 C   0  0  0  0  0  0  0  0  0  0  0  0
    6.0248  -15.0695   23.9659 O   0  0  0  0  0  0  0  0  0  0  0  0
    8.4365  -13.6340   21.5891 C   0  0  0  0  0  0  0  0  0  0  0  0
    8.2318  -14.8989   22.4201 C   0  0  2  0  0  0  0  0  0  0  0  0
    8.2546  -14.6394   23.8179 N   0  0  0  0  0  0  0  0  0  0  0  0
    9.2085  -15.9534   22.0131 C   0  0  0  0  0  0  0  0  0  0  0  0
   10.0671  -16.3661   22.8339 O   0  0  0  0  0  0  0  0  0  0  0  0
    7.4077  -15.4705   14.6322 N   0  0  0  0  0  0  0  0  0  0  0  0
    8.2934  -14.5547   15.2318 C   0  0  0  0  0  0  0  0  0  0  0  0
    8.3263  -13.3397   14.7627 N   0  0  0  0  0  0  0  0  0  0  0  0
    9.1498  -14.8878   16.3187 N   0  0  0  0  0  0  0  0  0  0  0  0
    9.1088  -16.2256   16.9341 C   0  0  0  0  0  0  0  0  0  0  0  0
   10.1785  -16.2616   17.9595 C   0  0  0  0  0  0  0  0  0  0  0  0
   10.3434  -17.4924   18.7505 C   0  0  0  0  0  0  0  0  0  0  0  0
   10.2708  -17.3962   20.2295 C   0  0  2  0  0  0  0  0  0  0  0  0
    9.2146  -16.5265   20.7126 N   0  0  0  0  0  0  0  0  0  0  0  0
   11.5573  -17.1146   20.9048 C   0  0  0  0  0  0  0  0  0  0  0  0
   11.9686  -15.9434   21.0792 O   0  0  0  0  0  0  0  0  0  0  0  0
   12.3496  -18.1488   21.3672 O   0  0  0  0  0  0  0  0  0  0  0  0
  2  3  1  0
  2  1  1  0
  3  4  1  1
  5  3  1  0
  5  6  1  6
  7  5  1  0
  7  8  2  0
 10  9  1  6
 10 12  1  0
 11 10  1  0
 11  7  1  0
 12 13  2  0
 12 22  1  0
 15 16  2  0
 15 14  1  0
 17 15  1  0
 18 19  1  0
 18 17  1  0
 20 19  1  0
 21 20  1  6
 21 23  1  0
 22 21  1  0
 23 24  2  0
 23 25  1  0
M  END
$$$$
