IAR.pdb
     RDKit          3D

 25 24  0  0  1  0  0  0  0  0999 V2000
    6.7394  -12.4467   19.9740 C   0  0  0  0  0  0  0  0  0  0  0  0
    8.0330  -12.9272   20.5343 C   0  0  0  0  0  0  0  0  0  0  0  0
    8.2872  -14.3863   20.4630 C   0  0  2  0  0  0  0  0  0  0  0  0
    7.7850  -14.9611   19.1485 C   0  0  0  0  0  0  0  0  0  0  0  0
    7.9966  -15.2069   21.6569 C   0  0  2  0  0  0  0  0  0  0  0  0
    6.5426  -15.4885   21.6466 N   0  0  0  0  0  0  0  0  0  0  0  0
    8.3598  -14.6513   22.9640 C   0  0  0  0  0  0  0  0  0  0  0  0
    9.5297  -14.3634   23.3147 O   0  0  0  0  0  0  0  0  0  0  0  0
    6.8243  -12.7300   25.6260 C   0  0  0  0  0  0  0  0  0  0  0  0
    7.6615  -13.9407   25.2187 C   0  0  2  0  0  0  0  0  0  0  0  0
    7.3358  -14.4126   23.9176 N   0  0  0  0  0  0  0  0  0  0  0  0
    7.5729  -15.0091   26.2590 C   0  0  0  0  0  0  0  0  0  0  0  0
    8.0933  -14.8308   27.3897 O   0  0  0  0  0  0  0  0  0  0  0  0
    5.0574  -20.5218   23.6005 N   0  0  0  0  0  0  0  0  0  0  0  0
    5.6421  -21.6502   24.2067 C   0  0  0  0  0  0  0  0  0  0  0  0
    4.8521  -22.6005   24.6192 N   0  0  0  0  0  0  0  0  0  0  0  0
    7.0450  -21.8040   24.3903 N   0  0  0  0  0  0  0  0  0  0  0  0
    7.9775  -20.7128   24.0586 C   0  0  0  0  0  0  0  0  0  0  0  0
    8.0217  -19.8109   25.2340 C   0  0  0  0  0  0  0  0  0  0  0  0
    7.4454  -18.4628   25.0989 C   0  0  0  0  0  0  0  0  0  0  0  0
    7.5366  -17.5369   26.2550 C   0  0  2  0  0  0  0  0  0  0  0  0
    6.9134  -16.2465   26.0274 N   0  0  0  0  0  0  0  0  0  0  0  0
    8.8889  -17.3913   26.8383 C   0  0  0  0  0  0  0  0  0  0  0  0
    9.7959  -16.7555   26.2514 O   0  0  0  0  0  0  0  0  0  0  0  0
    9.1917  -17.9597   28.0616 O   0  0  0  0  0  0  0  0  0  0  0  0
  2  3  1  0
  2  1  1  0
  3  4  1  6
  5  3  1  0
  5  6  1  1
  7  5  1  0
  7  8  2  0
 10  9  1  1
 10 12  1  0
 11 10  1  0
 11  7  1  0
 12 13  2  0
 12 22  1  0
 15 16  2  0
 15 14  1  0
 17 15  1  0
 18 19  1  0
 18 17  1  0
 20 19  1  0
 21 20  1  6
 21 23  1  0
 22 21  1  0
 23 24  2  0
 23 25  1  0
M  END
$$$$
