IAR.pdb
     RDKit          3D

 25 24  0  0  1  0  0  0  0  0999 V2000
    7.6645  -11.7115   19.2129 C   0  0  0  0  0  0  0  0  0  0  0  0
    7.5112  -12.8115   20.2052 C   0  0  0  0  0  0  0  0  0  0  0  0
    8.3070  -14.0394   19.9647 C   0  0  2  0  0  0  0  0  0  0  0  0
    8.1718  -14.4999   18.5224 C   0  0  0  0  0  0  0  0  0  0  0  0
    8.2535  -15.1174   20.9738 C   0  0  2  0  0  0  0  0  0  0  0  0
    6.8967  -15.7075   20.9069 N   0  0  0  0  0  0  0  0  0  0  0  0
    8.5423  -14.7562   22.3650 C   0  0  0  0  0  0  0  0  0  0  0  0
    9.6676  -14.3969   22.7880 O   0  0  0  0  0  0  0  0  0  0  0  0
    6.4896  -14.1259   25.4505 C   0  0  0  0  0  0  0  0  0  0  0  0
    7.7529  -14.5206   24.6883 C   0  0  2  0  0  0  0  0  0  0  0  0
    7.4935  -14.8080   23.3201 N   0  0  0  0  0  0  0  0  0  0  0  0
    8.4568  -15.6365   25.3889 C   0  0  0  0  0  0  0  0  0  0  0  0
    8.6753  -15.5645   26.6251 O   0  0  0  0  0  0  0  0  0  0  0  0
    6.6245  -19.9851   28.5439 N   0  0  0  0  0  0  0  0  0  0  0  0
    6.5671  -21.2866   28.0095 C   0  0  0  0  0  0  0  0  0  0  0  0
    6.3054  -22.2702   28.8227 N   0  0  0  0  0  0  0  0  0  0  0  0
    6.7795  -21.5799   26.6331 N   0  0  0  0  0  0  0  0  0  0  0  0
    7.0866  -20.5100   25.6682 C   0  0  0  0  0  0  0  0  0  0  0  0
    8.5318  -20.2096   25.8026 C   0  0  0  0  0  0  0  0  0  0  0  0
    9.1333  -19.2484   24.8634 C   0  0  0  0  0  0  0  0  0  0  0  0
    9.5435  -17.9191   25.3797 C   0  0  2  0  0  0  0  0  0  0  0  0
    8.9019  -16.8031   24.7102 N   0  0  0  0  0  0  0  0  0  0  0  0
   11.0044  -17.7142   25.4977 C   0  0  0  0  0  0  0  0  0  0  0  0
   11.6023  -16.8311   24.8389 O   0  0  0  0  0  0  0  0  0  0  0  0
   11.7581  -18.5012   26.3485 O   0  0  0  0  0  0  0  0  0  0  0  0
  2  3  1  0
  2  1  1  0
  3  4  1  6
  5  3  1  0
  5  6  1  1
  7  5  1  0
  7  8  2  0
 10  9  1  1
 10 12  1  0
 11 10  1  0
 11  7  1  0
 12 13  2  0
 12 22  1  0
 15 16  2  0
 15 14  1  0
 17 15  1  0
 18 19  1  0
 18 17  1  0
 20 19  1  0
 21 20  1  6
 21 23  1  0
 22 21  1  0
 23 24  2  0
 23 25  1  0
M  END
$$$$
