HVM.pdb
     RDKit          3D

 26 26  0  0  1  0  0  0  0  0999 V2000
   26.5528  -20.8692  -16.6327 N   0  0  0  0  0  0  0  0  0  0  0  0
   27.0330  -21.2840  -15.3281 C   0  0  1  0  0  0  0  0  0  0  0  0
   28.5411  -21.0503  -15.3404 C   0  0  0  0  0  0  0  0  0  0  0  0
   29.1187  -22.0968  -16.2532 C   0  0  0  0  0  0  0  0  0  0  0  0
   28.4029  -23.0604  -16.9321 C   0  0  0  0  0  0  0  0  0  0  0  0
   29.2866  -23.7931  -17.6329 N   0  0  0  0  0  0  0  0  0  0  0  0
   30.5249  -23.3310  -17.4231 C   0  0  0  0  0  0  0  0  0  0  0  0
   30.4100  -22.3002  -16.5830 N   0  0  0  0  0  0  0  0  0  0  0  0
   26.3878  -20.4960  -14.2469 C   0  0  0  0  0  0  0  0  0  0  0  0
   26.3855  -19.2416  -14.2387 O   0  0  0  0  0  0  0  0  0  0  0  0
   22.9707  -20.6281  -13.6606 C   0  0  0  0  0  0  0  0  0  0  0  0
   23.5646  -21.0200  -12.3374 C   0  0  2  0  0  0  0  0  0  0  0  0
   22.6690  -20.5189  -11.1986 C   0  0  0  0  0  0  0  0  0  0  0  0
   24.9874  -20.5067  -12.1397 C   0  0  2  0  0  0  0  0  0  0  0  0
   25.7598  -21.1832  -13.1996 N   0  0  0  0  0  0  0  0  0  0  0  0
   25.5743  -20.9894  -10.8514 C   0  0  0  0  0  0  0  0  0  0  0  0
   25.6755  -22.2430  -10.6136 O   0  0  0  0  0  0  0  0  0  0  0  0
   29.6462  -19.7338   -4.7915 C   0  0  0  0  0  0  0  0  0  0  0  0
   27.9576  -19.1948   -5.0834 S   0  0  0  0  0  0  0  0  0  0  0  0
   27.0716  -20.2583   -6.2191 C   0  0  0  0  0  0  0  0  0  0  0  0
   26.9427  -19.6593   -7.6024 C   0  0  0  0  0  0  0  0  0  0  0  0
   26.2434  -20.6462   -8.5081 C   0  0  2  0  0  0  0  0  0  0  0  0
   26.0449  -20.1138   -9.8377 N   0  0  0  0  0  0  0  0  0  0  0  0
   24.9358  -21.0670   -7.9177 C   0  0  0  0  0  0  0  0  0  0  0  0
   24.8130  -22.1857   -7.1238 O   0  0  0  0  0  0  0  0  0  0  0  0
   23.9067  -20.3835   -8.1473 O   0  0  0  0  0  0  0  0  0  0  0  0
  2  1  1  6
  3  2  1  0
  4  8  1  0
  4  3  1  0
  5  4  2  0
  6  5  1  0
  6  7  1  0
  7  8  2  0
  9  2  1  0
  9 10  2  0
 12 13  1  1
 12 11  1  0
 12 14  1  0
 14 15  1  6
 15  9  1  0
 16 14  1  0
 17 16  2  0
 18 19  1  0
 20 19  1  0
 20 21  1  0
 22 21  1  1
 22 23  1  0
 22 24  1  0
 23 16  1  0
 24 26  2  0
 24 25  1  0
M  END
$$$$
