HVM.pdb
     RDKit          3D

 26 26  0  0  1  0  0  0  0  0999 V2000
   15.3281  -20.2772    1.6929 N   0  0  0  0  0  0  0  0  0  0  0  0
   15.4018  -20.2730    3.1417 C   0  0  1  0  0  0  0  0  0  0  0  0
   15.6301  -21.7240    3.5562 C   0  0  0  0  0  0  0  0  0  0  0  0
   14.3500  -22.4521    3.2508 C   0  0  0  0  0  0  0  0  0  0  0  0
   14.2092  -23.5029    2.3690 C   0  0  0  0  0  0  0  0  0  0  0  0
   12.9144  -23.8662    2.3858 N   0  0  0  0  0  0  0  0  0  0  0  0
   12.2374  -23.0891    3.2395 C   0  0  0  0  0  0  0  0  0  0  0  0
   13.1205  -22.2337    3.7589 N   0  0  0  0  0  0  0  0  0  0  0  0
   16.5134  -19.4097    3.6167 C   0  0  0  0  0  0  0  0  0  0  0  0
   17.5980  -19.3070    2.9949 O   0  0  0  0  0  0  0  0  0  0  0  0
   15.9888  -15.7988    4.4711 C   0  0  0  0  0  0  0  0  0  0  0  0
   16.5470  -16.4985    5.6778 C   0  0  2  0  0  0  0  0  0  0  0  0
   17.4186  -15.5278    6.4829 C   0  0  0  0  0  0  0  0  0  0  0  0
   17.3500  -17.7486    5.3320 C   0  0  2  0  0  0  0  0  0  0  0  0
   16.3395  -18.6852    4.8034 N   0  0  0  0  0  0  0  0  0  0  0  0
   17.8998  -18.4077    6.5568 C   0  0  0  0  0  0  0  0  0  0  0  0
   17.1144  -18.8269    7.4765 O   0  0  0  0  0  0  0  0  0  0  0  0
   20.5731  -22.0162    4.3862 C   0  0  0  0  0  0  0  0  0  0  0  0
   20.6780  -22.6048    6.0801 S   0  0  0  0  0  0  0  0  0  0  0  0
   19.7794  -21.5729    7.2350 C   0  0  0  0  0  0  0  0  0  0  0  0
   20.6090  -20.4215    7.7594 C   0  0  0  0  0  0  0  0  0  0  0  0
   19.7094  -19.2329    8.0064 C   0  0  2  0  0  0  0  0  0  0  0  0
   19.2889  -18.6069    6.7727 N   0  0  0  0  0  0  0  0  0  0  0  0
   20.3870  -18.2346    8.8895 C   0  0  0  0  0  0  0  0  0  0  0  0
   20.6729  -18.4960   10.2111 O   0  0  0  0  0  0  0  0  0  0  0  0
   20.7115  -17.1153    8.4198 O   0  0  0  0  0  0  0  0  0  0  0  0
  2  1  1  6
  3  2  1  0
  4  8  1  0
  4  3  1  0
  5  4  2  0
  6  5  1  0
  6  7  1  0
  7  8  2  0
  9  2  1  0
  9 10  2  0
 12 13  1  6
 12 11  1  0
 12 14  1  0
 14 15  1  1
 15  9  1  0
 16 14  1  0
 17 16  2  0
 18 19  1  0
 20 19  1  0
 20 21  1  0
 22 21  1  6
 22 23  1  0
 22 24  1  0
 23 16  1  0
 24 26  2  0
 24 25  1  0
M  END
$$$$
