HVM.pdb
     RDKit          3D

 26 26  0  0  1  0  0  0  0  0999 V2000
   24.9720  -23.1912  -17.8220 N   0  0  0  0  0  0  0  0  0  0  0  0
   24.4101  -22.6741  -16.5885 C   0  0  1  0  0  0  0  0  0  0  0  0
   23.4471  -23.7447  -16.0829 C   0  0  0  0  0  0  0  0  0  0  0  0
   22.1969  -23.6052  -16.9073 C   0  0  0  0  0  0  0  0  0  0  0  0
   21.3158  -22.5452  -16.8651 C   0  0  0  0  0  0  0  0  0  0  0  0
   20.3369  -22.8056  -17.7498 N   0  0  0  0  0  0  0  0  0  0  0  0
   20.5657  -23.9824  -18.3446 C   0  0  0  0  0  0  0  0  0  0  0  0
   21.6988  -24.4586  -17.8243 N   0  0  0  0  0  0  0  0  0  0  0  0
   25.4748  -22.4096  -15.5870 C   0  0  0  0  0  0  0  0  0  0  0  0
   26.4489  -23.1823  -15.4213 O   0  0  0  0  0  0  0  0  0  0  0  0
   27.3288  -19.1482  -15.5321 C   0  0  0  0  0  0  0  0  0  0  0  0
   26.6636  -19.3582  -14.2014 C   0  0  2  0  0  0  0  0  0  0  0  0
   27.4916  -18.6914  -13.0970 C   0  0  0  0  0  0  0  0  0  0  0  0
   26.4419  -20.8293  -13.8640 C   0  0  2  0  0  0  0  0  0  0  0  0
   25.3835  -21.2532  -14.8010 N   0  0  0  0  0  0  0  0  0  0  0  0
   25.8551  -21.0000  -12.4989 C   0  0  0  0  0  0  0  0  0  0  0  0
   24.5857  -21.0302  -12.3371 O   0  0  0  0  0  0  0  0  0  0  0  0
   27.9628  -20.3622   -5.3374 C   0  0  0  0  0  0  0  0  0  0  0  0
   27.1236  -19.2902   -6.5094 S   0  0  0  0  0  0  0  0  0  0  0  0
   26.1629  -20.1950   -7.7195 C   0  0  0  0  0  0  0  0  0  0  0  0
   26.9437  -20.4968   -8.9798 C   0  0  0  0  0  0  0  0  0  0  0  0
   25.9960  -21.0041  -10.0419 C   0  0  2  0  0  0  0  0  0  0  0  0
   26.6450  -21.1371  -11.3271 N   0  0  0  0  0  0  0  0  0  0  0  0
   24.8033  -20.1094  -10.1535 C   0  0  0  0  0  0  0  0  0  0  0  0
   23.5873  -20.4312   -9.5928 O   0  0  0  0  0  0  0  0  0  0  0  0
   24.9027  -19.0238  -10.7785 O   0  0  0  0  0  0  0  0  0  0  0  0
  2  1  1  6
  3  2  1  0
  4  8  1  0
  4  3  1  0
  5  4  2  0
  6  5  1  0
  6  7  1  0
  7  8  2  0
  9  2  1  0
  9 10  2  0
 12 13  1  1
 12 11  1  0
 12 14  1  0
 14 15  1  6
 15  9  1  0
 16 14  1  0
 17 16  2  0
 18 19  1  0
 20 19  1  0
 20 21  1  0
 22 21  1  1
 22 23  1  0
 22 24  1  0
 23 16  1  0
 24 26  2  0
 24 25  1  0
M  END
$$$$
