HVM.pdb
     RDKit          3D

 26 26  0  0  1  0  0  0  0  0999 V2000
   19.2691  -13.0696  -16.1272 N   0  0  0  0  0  0  0  0  0  0  0  0
   18.4784  -11.8568  -16.0355 C   0  0  1  0  0  0  0  0  0  0  0  0
   17.0368  -12.3090  -15.8195 C   0  0  0  0  0  0  0  0  0  0  0  0
   16.5769  -12.8804  -17.1326 C   0  0  0  0  0  0  0  0  0  0  0  0
   16.5180  -14.2202  -17.4539 C   0  0  0  0  0  0  0  0  0  0  0  0
   16.0564  -14.3076  -18.7141 N   0  0  0  0  0  0  0  0  0  0  0  0
   15.8234  -13.0813  -19.1967 C   0  0  0  0  0  0  0  0  0  0  0  0
   16.1435  -12.2225  -18.2265 N   0  0  0  0  0  0  0  0  0  0  0  0
   18.9366  -11.0052  -14.9080 C   0  0  0  0  0  0  0  0  0  0  0  0
   19.2524  -11.4810  -13.7912 O   0  0  0  0  0  0  0  0  0  0  0  0
   21.8075   -8.7654  -15.3029 C   0  0  0  0  0  0  0  0  0  0  0  0
   20.6424   -7.9180  -14.8767 C   0  0  2  0  0  0  0  0  0  0  0  0
   21.1404   -6.7384  -14.0337 C   0  0  0  0  0  0  0  0  0  0  0  0
   19.5830   -8.6956  -14.1021 C   0  0  2  0  0  0  0  0  0  0  0  0
   19.0174   -9.6200  -15.1038 N   0  0  0  0  0  0  0  0  0  0  0  0
   18.4464   -7.8164  -13.6871 C   0  0  0  0  0  0  0  0  0  0  0  0
   17.6331   -7.3517  -14.5595 O   0  0  0  0  0  0  0  0  0  0  0  0
   15.6706   -6.8946   -7.6055 C   0  0  0  0  0  0  0  0  0  0  0  0
   14.4741   -6.4124   -8.8557 S   0  0  0  0  0  0  0  0  0  0  0  0
   15.2159   -6.1329  -10.4613 C   0  0  0  0  0  0  0  0  0  0  0  0
   16.4195   -7.0148  -10.7115 C   0  0  0  0  0  0  0  0  0  0  0  0
   17.0340   -6.6507  -12.0431 C   0  0  2  0  0  0  0  0  0  0  0  0
   18.2016   -7.4513  -12.3371 N   0  0  0  0  0  0  0  0  0  0  0  0
   17.3790   -5.1965  -12.0833 C   0  0  0  0  0  0  0  0  0  0  0  0
   16.5022   -4.2452  -12.5556 O   0  0  0  0  0  0  0  0  0  0  0  0
   18.5053   -4.8180  -11.6745 O   0  0  0  0  0  0  0  0  0  0  0  0
  2  1  1  1
  3  2  1  0
  4  8  1  0
  4  3  1  0
  5  4  2  0
  6  5  1  0
  6  7  1  0
  7  8  2  0
  9  2  1  0
  9 10  2  0
 12 13  1  1
 12 11  1  0
 12 14  1  0
 14 15  1  6
 15  9  1  0
 16 14  1  0
 17 16  2  0
 18 19  1  0
 20 19  1  0
 20 21  1  0
 22 21  1  1
 22 23  1  0
 22 24  1  0
 23 16  1  0
 24 26  2  0
 24 25  1  0
M  END
$$$$
