HVM.pdb
     RDKit          3D

 26 26  0  0  1  0  0  0  0  0999 V2000
   18.4067  -11.4331  -16.1981 N   0  0  0  0  0  0  0  0  0  0  0  0
   17.7971  -10.2525  -15.6158 C   0  0  1  0  0  0  0  0  0  0  0  0
   16.2963  -10.5275  -15.5795 C   0  0  0  0  0  0  0  0  0  0  0  0
   15.8250  -10.4625  -17.0063 C   0  0  0  0  0  0  0  0  0  0  0  0
   15.4962   -9.3149  -17.6967 C   0  0  0  0  0  0  0  0  0  0  0  0
   15.1256   -9.6873  -18.9347 N   0  0  0  0  0  0  0  0  0  0  0  0
   15.2078  -11.0180  -19.0507 C   0  0  0  0  0  0  0  0  0  0  0  0
   15.6339  -11.4778  -17.8724 N   0  0  0  0  0  0  0  0  0  0  0  0
   18.3188  -10.0025  -14.2476 C   0  0  0  0  0  0  0  0  0  0  0  0
   18.5279  -10.9289  -13.4281 O   0  0  0  0  0  0  0  0  0  0  0  0
   21.4748   -8.1725  -13.3894 C   0  0  0  0  0  0  0  0  0  0  0  0
   20.2993   -7.4235  -12.8287 C   0  0  2  0  0  0  0  0  0  0  0  0
   20.7194   -6.6755  -11.5583 C   0  0  0  0  0  0  0  0  0  0  0  0
   19.1014   -8.3192  -12.5285 C   0  0  2  0  0  0  0  0  0  0  0  0
   18.5856   -8.6818  -13.8628 N   0  0  0  0  0  0  0  0  0  0  0  0
   17.9954   -7.5588  -11.8686 C   0  0  0  0  0  0  0  0  0  0  0  0
   17.4486   -6.5640  -12.4601 O   0  0  0  0  0  0  0  0  0  0  0  0
   11.6910   -7.0328   -7.2861 C   0  0  0  0  0  0  0  0  0  0  0  0
   12.9359   -8.0633   -8.0705 S   0  0  0  0  0  0  0  0  0  0  0  0
   14.2792   -7.1168   -8.7815 C   0  0  0  0  0  0  0  0  0  0  0  0
   15.3344   -7.9898   -9.4244 C   0  0  0  0  0  0  0  0  0  0  0  0
   16.3854   -7.1111  -10.0618 C   0  0  2  0  0  0  0  0  0  0  0  0
   17.4932   -7.8821  -10.5806 N   0  0  0  0  0  0  0  0  0  0  0  0
   16.8767   -6.0879   -9.0886 C   0  0  0  0  0  0  0  0  0  0  0  0
   16.2734   -4.8580   -8.9470 O   0  0  0  0  0  0  0  0  0  0  0  0
   17.8739   -6.3487   -8.3699 O   0  0  0  0  0  0  0  0  0  0  0  0
  2  1  1  1
  3  2  1  0
  4  8  1  0
  4  3  1  0
  5  4  2  0
  6  5  1  0
  6  7  1  0
  7  8  2  0
  9  2  1  0
  9 10  2  0
 12 13  1  1
 12 11  1  0
 12 14  1  0
 14 15  1  6
 15  9  1  0
 16 14  1  0
 17 16  2  0
 18 19  1  0
 20 19  1  0
 20 21  1  0
 22 21  1  1
 22 23  1  0
 22 24  1  0
 23 16  1  0
 24 26  2  0
 24 25  1  0
M  END
$$$$
