HVM.pdb
     RDKit          3D

 26 26  0  0  1  0  0  0  0  0999 V2000
   21.1206  -20.9453  -14.0165 N   0  0  0  0  0  0  0  0  0  0  0  0
   21.7449  -20.1514  -12.9752 C   0  0  1  0  0  0  0  0  0  0  0  0
   20.6159  -19.7099  -12.0479 C   0  0  0  0  0  0  0  0  0  0  0  0
   19.9302  -18.5644  -12.7405 C   0  0  0  0  0  0  0  0  0  0  0  0
   20.2579  -17.2309  -12.6131 C   0  0  0  0  0  0  0  0  0  0  0  0
   19.4093  -16.5361  -13.3916 N   0  0  0  0  0  0  0  0  0  0  0  0
   18.5640  -17.3757  -14.0012 C   0  0  0  0  0  0  0  0  0  0  0  0
   18.8904  -18.6053  -13.5976 N   0  0  0  0  0  0  0  0  0  0  0  0
   22.7552  -20.9467  -12.2314 C   0  0  0  0  0  0  0  0  0  0  0  0
   22.5146  -22.0964  -11.7912 O   0  0  0  0  0  0  0  0  0  0  0  0
   25.8505  -21.8295  -13.7729 C   0  0  0  0  0  0  0  0  0  0  0  0
   26.2239  -21.0839  -12.5231 C   0  0  2  0  0  0  0  0  0  0  0  0
   27.5480  -21.6256  -11.9724 C   0  0  0  0  0  0  0  0  0  0  0  0
   25.1504  -21.1458  -11.4410 C   0  0  2  0  0  0  0  0  0  0  0  0
   24.0221  -20.3881  -12.0160 N   0  0  0  0  0  0  0  0  0  0  0  0
   25.5556  -20.3869  -10.2176 C   0  0  0  0  0  0  0  0  0  0  0  0
   25.5634  -19.1069  -10.2206 O   0  0  0  0  0  0  0  0  0  0  0  0
   29.4382  -20.4340   -3.6120 C   0  0  0  0  0  0  0  0  0  0  0  0
   27.8031  -20.9541   -4.1443 S   0  0  0  0  0  0  0  0  0  0  0  0
   27.2297  -20.0772   -5.5963 C   0  0  0  0  0  0  0  0  0  0  0  0
   26.7930  -21.0069   -6.7071 C   0  0  0  0  0  0  0  0  0  0  0  0
   26.4148  -20.1888   -7.9199 C   0  0  2  0  0  0  0  0  0  0  0  0
   25.9458  -21.0184   -9.0073 N   0  0  0  0  0  0  0  0  0  0  0  0
   27.5676  -19.3490   -8.3684 C   0  0  0  0  0  0  0  0  0  0  0  0
   27.7258  -18.0414   -7.9659 O   0  0  0  0  0  0  0  0  0  0  0  0
   28.4279  -19.8433   -9.1394 O   0  0  0  0  0  0  0  0  0  0  0  0
  2  1  1  6
  3  2  1  0
  4  8  1  0
  4  3  1  0
  5  4  2  0
  6  5  1  0
  6  7  1  0
  7  8  2  0
  9  2  1  0
  9 10  2  0
 12 13  1  1
 12 11  1  0
 12 14  1  0
 14 15  1  6
 15  9  1  0
 16 14  1  0
 17 16  2  0
 18 19  1  0
 20 19  1  0
 20 21  1  0
 22 21  1  1
 22 23  1  0
 22 24  1  0
 23 16  1  0
 24 26  2  0
 24 25  1  0
M  END
$$$$
