HVM.pdb
     RDKit          3D

 26 26  0  0  1  0  0  0  0  0999 V2000
   17.3494  -11.1037  -19.0764 N   0  0  0  0  0  0  0  0  0  0  0  0
   18.4035  -10.4969  -18.2857 C   0  0  1  0  0  0  0  0  0  0  0  0
   19.7030  -10.7635  -19.0405 C   0  0  0  0  0  0  0  0  0  0  0  0
   19.9130  -12.2523  -18.9980 C   0  0  0  0  0  0  0  0  0  0  0  0
   20.0356  -13.0182  -17.8578 C   0  0  0  0  0  0  0  0  0  0  0  0
   20.2101  -14.2925  -18.2510 N   0  0  0  0  0  0  0  0  0  0  0  0
   20.2022  -14.3588  -19.5876 C   0  0  0  0  0  0  0  0  0  0  0  0
   20.0209  -13.1127  -20.0302 N   0  0  0  0  0  0  0  0  0  0  0  0
   18.1782   -9.0373  -18.1267 C   0  0  0  0  0  0  0  0  0  0  0  0
   18.3138   -8.2286  -19.0760 O   0  0  0  0  0  0  0  0  0  0  0  0
   15.0316   -7.3161  -16.9897 C   0  0  0  0  0  0  0  0  0  0  0  0
   16.1309   -7.1301  -15.9826 C   0  0  2  0  0  0  0  0  0  0  0  0
   15.9055   -5.8292  -15.2037 C   0  0  0  0  0  0  0  0  0  0  0  0
   17.5237   -7.1251  -16.6048 C   0  0  2  0  0  0  0  0  0  0  0  0
   17.8004   -8.5505  -16.8682 N   0  0  0  0  0  0  0  0  0  0  0  0
   18.5655   -6.6936  -15.6221 C   0  0  0  0  0  0  0  0  0  0  0  0
   18.5868   -5.4908  -15.1848 O   0  0  0  0  0  0  0  0  0  0  0  0
   23.2907   -9.9196  -11.7879 C   0  0  0  0  0  0  0  0  0  0  0  0
   22.9975  -10.2385  -13.5313 S   0  0  0  0  0  0  0  0  0  0  0  0
   22.0772   -8.9299  -14.3355 C   0  0  0  0  0  0  0  0  0  0  0  0
   21.1823   -8.1712  -13.3801 C   0  0  0  0  0  0  0  0  0  0  0  0
   20.4874   -7.0576  -14.1286 C   0  0  2  0  0  0  0  0  0  0  0  0
   19.5693   -7.5652  -15.1236 N   0  0  0  0  0  0  0  0  0  0  0  0
   21.4880   -6.1460  -14.7636 C   0  0  0  0  0  0  0  0  0  0  0  0
   22.1884   -5.2054  -14.0416 O   0  0  0  0  0  0  0  0  0  0  0  0
   21.7053   -6.2326  -15.9982 O   0  0  0  0  0  0  0  0  0  0  0  0
  2  1  1  6
  3  2  1  0
  4  8  1  0
  4  3  1  0
  5  4  2  0
  6  5  1  0
  6  7  1  0
  7  8  2  0
  9  2  1  0
  9 10  2  0
 12 13  1  6
 12 11  1  0
 12 14  1  0
 14 15  1  1
 15  9  1  0
 16 14  1  0
 17 16  2  0
 18 19  1  0
 20 19  1  0
 20 21  1  0
 22 21  1  6
 22 23  1  0
 22 24  1  0
 23 16  1  0
 24 26  2  0
 24 25  1  0
M  END
$$$$
