HVM.pdb
     RDKit          3D

 26 26  0  0  1  0  0  0  0  0999 V2000
   16.8953  -11.1316  -18.0537 N   0  0  0  0  0  0  0  0  0  0  0  0
   17.3700  -10.6357  -16.7757 C   0  0  1  0  0  0  0  0  0  0  0  0
   18.4530  -11.6105  -16.3215 C   0  0  0  0  0  0  0  0  0  0  0  0
   17.7509  -12.9080  -16.0282 C   0  0  0  0  0  0  0  0  0  0  0  0
   16.5974  -13.0522  -15.2864 C   0  0  0  0  0  0  0  0  0  0  0  0
   16.3010  -14.3639  -15.2621 N   0  0  0  0  0  0  0  0  0  0  0  0
   17.2182  -15.0480  -15.9560 C   0  0  0  0  0  0  0  0  0  0  0  0
   18.0941  -14.1524  -16.4167 N   0  0  0  0  0  0  0  0  0  0  0  0
   17.9208   -9.2625  -16.9075 C   0  0  0  0  0  0  0  0  0  0  0  0
   18.7445   -8.9513  -17.8010 O   0  0  0  0  0  0  0  0  0  0  0  0
   15.9863   -6.0959  -17.3316 C   0  0  0  0  0  0  0  0  0  0  0  0
   16.7289   -6.0480  -16.0265 C   0  0  2  0  0  0  0  0  0  0  0  0
   17.0713   -4.5950  -15.6778 C   0  0  0  0  0  0  0  0  0  0  0  0
   17.9992   -6.8928  -16.0246 C   0  0  2  0  0  0  0  0  0  0  0  0
   17.5020   -8.2820  -15.9983 N   0  0  0  0  0  0  0  0  0  0  0  0
   18.7723   -6.7239  -14.7554 C   0  0  0  0  0  0  0  0  0  0  0  0
   18.4003   -7.3185  -13.6846 O   0  0  0  0  0  0  0  0  0  0  0  0
   23.6058   -9.7782  -10.5605 C   0  0  0  0  0  0  0  0  0  0  0  0
   22.6633   -9.5098  -12.0661 S   0  0  0  0  0  0  0  0  0  0  0  0
   22.1558   -7.8058  -12.2779 C   0  0  0  0  0  0  0  0  0  0  0  0
   21.3008   -7.5983  -13.5088 C   0  0  0  0  0  0  0  0  0  0  0  0
   20.8493   -6.1573  -13.5630 C   0  0  2  0  0  0  0  0  0  0  0  0
   19.9366   -5.9172  -14.6584 N   0  0  0  0  0  0  0  0  0  0  0  0
   22.0263   -5.2403  -13.6584 C   0  0  0  0  0  0  0  0  0  0  0  0
   22.3928   -4.6342  -14.8396 O   0  0  0  0  0  0  0  0  0  0  0  0
   22.7120   -5.0075  -12.6315 O   0  0  0  0  0  0  0  0  0  0  0  0
  2  1  1  6
  3  2  1  0
  4  8  1  0
  4  3  1  0
  5  4  2  0
  6  5  1  0
  6  7  1  0
  7  8  2  0
  9  2  1  0
  9 10  2  0
 12 13  1  6
 12 11  1  0
 12 14  1  0
 14 15  1  1
 15  9  1  0
 16 14  1  0
 17 16  2  0
 18 19  1  0
 20 19  1  0
 20 21  1  0
 22 21  1  6
 22 23  1  0
 22 24  1  0
 23 16  1  0
 24 26  2  0
 24 25  1  0
M  END
$$$$
