DCH.pdb
     RDKit          3D

 25 25  0  0  1  0  0  0  0  0999 V2000
   26.2325  -12.0181  -16.4296 N   0  0  0  0  0  0  0  0  0  0  0  0
   26.0175  -10.6255  -16.1270 C   0  0  1  0  0  0  0  0  0  0  0  0
   27.0136   -9.7575  -16.8570 C   0  0  0  0  0  0  0  0  0  0  0  0
   28.4150  -10.1253  -16.5171 C   0  0  0  0  0  0  0  0  0  0  0  0
   29.3686   -9.4107  -16.9127 O   0  0  0  0  0  0  0  0  0  0  0  0
   24.6225  -10.2435  -16.4003 C   0  0  0  0  0  0  0  0  0  0  0  0
   23.9639  -10.8910  -17.2720 O   0  0  0  0  0  0  0  0  0  0  0  0
   28.6460  -11.2507  -15.7692 O   0  0  0  0  0  0  0  0  0  0  0  0
   23.9305   -9.1930  -15.7635 N   0  0  0  0  0  0  0  0  0  0  0  0
   22.5635   -8.8402  -16.0011 C   0  0  1  0  0  0  0  0  0  0  0  0
   21.5833   -9.9120  -15.5979 C   0  0  0  0  0  0  0  0  0  0  0  0
   21.9799  -10.5513  -13.9337 S   0  0  0  0  0  0  0  0  0  0  0  0
   22.1607   -7.6058  -15.2730 C   0  0  0  0  0  0  0  0  0  0  0  0
   22.5695   -7.4612  -14.0922 O   0  0  0  0  0  0  0  0  0  0  0  0
   21.3518   -6.5990  -15.8329 N   0  0  0  0  0  0  0  0  0  0  0  0
   21.0196   -5.3472  -15.1605 C   0  0  1  0  0  0  0  0  0  0  0  0
   21.2805   -4.1676  -16.0273 C   0  0  0  0  0  0  0  0  0  0  0  0
   22.6878   -4.1136  -16.4461 C   0  0  0  0  0  0  0  0  0  0  0  0
   23.2777   -4.4666  -17.6352 C   0  0  0  0  0  0  0  0  0  0  0  0
   24.6151   -4.2608  -17.5283 N   0  0  0  0  0  0  0  0  0  0  0  0
   24.8734   -3.7917  -16.3104 C   0  0  0  0  0  0  0  0  0  0  0  0
   23.7188   -3.7013  -15.6555 N   0  0  0  0  0  0  0  0  0  0  0  0
   19.5895   -5.4199  -14.8053 C   0  0  0  0  0  0  0  0  0  0  0  0
   18.8245   -6.3562  -15.2150 O   0  0  0  0  0  0  0  0  0  0  0  0
   18.9850   -4.4504  -13.9866 O   0  0  0  0  0  0  0  0  0  0  0  0
  2  1  1  6
  2  3  1  0
  4  3  1  0
  5  4  2  0
  6  2  1  0
  6  7  2  0
  8  4  1  0
  9  6  1  0
 10  9  1  0
 10 13  1  0
 10 11  1  1
 12 11  1  0
 13 15  1  0
 14 13  2  0
 15 16  1  0
 16 17  1  6
 17 18  1  0
 18 19  2  0
 18 22  1  0
 19 20  1  0
 20 21  1  0
 22 21  2  0
 23 25  1  0
 23 16  1  0
 24 23  2  0
M  END
$$$$
