DCH.pdb
     RDKit          3D

 25 25  0  0  1  0  0  0  0  0999 V2000
   19.0081  -17.6443  -14.8417 N   0  0  0  0  0  0  0  0  0  0  0  0
   20.0930  -18.2254  -14.0918 C   0  0  1  0  0  0  0  0  0  0  0  0
   19.7309  -19.6088  -13.6082 C   0  0  0  0  0  0  0  0  0  0  0  0
   18.4863  -19.5967  -12.7924 C   0  0  0  0  0  0  0  0  0  0  0  0
   17.9120  -18.5106  -12.5336 O   0  0  0  0  0  0  0  0  0  0  0  0
   21.3375  -18.2053  -14.8776 C   0  0  0  0  0  0  0  0  0  0  0  0
   22.3965  -18.6889  -14.3705 O   0  0  0  0  0  0  0  0  0  0  0  0
   17.9804  -20.7842  -12.3308 O   0  0  0  0  0  0  0  0  0  0  0  0
   21.4644  -17.6823  -16.1809 N   0  0  0  0  0  0  0  0  0  0  0  0
   22.6687  -17.6750  -16.9548 C   0  0  1  0  0  0  0  0  0  0  0  0
   22.4463  -17.9365  -18.4225 C   0  0  0  0  0  0  0  0  0  0  0  0
   21.7109  -19.5889  -18.6758 S   0  0  0  0  0  0  0  0  0  0  0  0
   23.3947  -16.3784  -16.8634 C   0  0  0  0  0  0  0  0  0  0  0  0
   22.7155  -15.3209  -16.9139 O   0  0  0  0  0  0  0  0  0  0  0  0
   24.7917  -16.2749  -16.7245 N   0  0  0  0  0  0  0  0  0  0  0  0
   25.5099  -15.0115  -16.5928 C   0  0  1  0  0  0  0  0  0  0  0  0
   26.8589  -15.2017  -15.9970 C   0  0  0  0  0  0  0  0  0  0  0  0
   27.6173  -13.9434  -15.9802 C   0  0  0  0  0  0  0  0  0  0  0  0
   27.5458  -12.8713  -15.1247 C   0  0  0  0  0  0  0  0  0  0  0  0
   28.4329  -11.9314  -15.5395 N   0  0  0  0  0  0  0  0  0  0  0  0
   29.0522  -12.3865  -16.6255 C   0  0  0  0  0  0  0  0  0  0  0  0
   28.5660  -13.5953  -16.8951 N   0  0  0  0  0  0  0  0  0  0  0  0
   25.6208  -14.4403  -17.9485 C   0  0  0  0  0  0  0  0  0  0  0  0
   25.7471  -15.1636  -18.9928 O   0  0  0  0  0  0  0  0  0  0  0  0
   25.5931  -13.0518  -18.1660 O   0  0  0  0  0  0  0  0  0  0  0  0
  2  1  1  6
  2  3  1  0
  4  3  1  0
  5  4  2  0
  6  2  1  0
  6  7  2  0
  8  4  1  0
  9  6  1  0
 10  9  1  0
 10 13  1  0
 10 11  1  6
 12 11  1  0
 13 15  1  0
 14 13  2  0
 15 16  1  0
 16 17  1  6
 17 18  1  0
 18 19  2  0
 18 22  1  0
 19 20  1  0
 20 21  1  0
 22 21  2  0
 23 25  1  0
 23 16  1  0
 24 23  2  0
M  END
$$$$
