DCH.pdb
     RDKit          3D

 25 25  0  0  1  0  0  0  0  0999 V2000
   16.1837  -10.3601  -13.9022 N   0  0  0  0  0  0  0  0  0  0  0  0
   16.7255  -10.5587  -15.2229 C   0  0  1  0  0  0  0  0  0  0  0  0
   15.6897  -11.1572  -16.1436 C   0  0  0  0  0  0  0  0  0  0  0  0
   15.2430  -12.4957  -15.6708 C   0  0  0  0  0  0  0  0  0  0  0  0
   15.9092  -13.5207  -15.9572 O   0  0  0  0  0  0  0  0  0  0  0  0
   17.2944   -9.3056  -15.7451 C   0  0  0  0  0  0  0  0  0  0  0  0
   17.7760   -9.2879  -16.9200 O   0  0  0  0  0  0  0  0  0  0  0  0
   14.0988  -12.5903  -14.9218 O   0  0  0  0  0  0  0  0  0  0  0  0
   17.3552   -8.0869  -15.0385 N   0  0  0  0  0  0  0  0  0  0  0  0
   17.9621   -6.8826  -15.5186 C   0  0  1  0  0  0  0  0  0  0  0  0
   17.0087   -5.7185  -15.6077 C   0  0  0  0  0  0  0  0  0  0  0  0
   15.2861   -6.3089  -15.7467 S   0  0  0  0  0  0  0  0  0  0  0  0
   19.0935   -6.4354  -14.6605 C   0  0  0  0  0  0  0  0  0  0  0  0
   18.8847   -6.3247  -13.4250 O   0  0  0  0  0  0  0  0  0  0  0  0
   20.3757   -6.1323  -15.1559 N   0  0  0  0  0  0  0  0  0  0  0  0
   21.4876   -5.6786  -14.3269 C   0  0  1  0  0  0  0  0  0  0  0  0
   22.7977   -6.1388  -14.8586 C   0  0  0  0  0  0  0  0  0  0  0  0
   22.8627   -7.6053  -14.9222 C   0  0  0  0  0  0  0  0  0  0  0  0
   21.9703   -8.5563  -14.4912 C   0  0  0  0  0  0  0  0  0  0  0  0
   22.4932   -9.7825  -14.7471 N   0  0  0  0  0  0  0  0  0  0  0  0
   23.6819   -9.6221  -15.3227 C   0  0  0  0  0  0  0  0  0  0  0  0
   23.9093   -8.3157  -15.4304 N   0  0  0  0  0  0  0  0  0  0  0  0
   21.4294   -4.2046  -14.3042 C   0  0  0  0  0  0  0  0  0  0  0  0
   20.6398   -3.5346  -15.0508 O   0  0  0  0  0  0  0  0  0  0  0  0
   22.2501   -3.4493  -13.4488 O   0  0  0  0  0  0  0  0  0  0  0  0
  2  1  1  1
  2  3  1  0
  4  3  1  0
  5  4  2  0
  6  2  1  0
  6  7  2  0
  8  4  1  0
  9  6  1  0
 10  9  1  0
 10 13  1  0
 10 11  1  1
 12 11  1  0
 13 15  1  0
 14 13  2  0
 15 16  1  0
 16 17  1  6
 17 18  1  0
 18 19  2  0
 18 22  1  0
 19 20  1  0
 20 21  1  0
 22 21  2  0
 23 25  1  0
 23 16  1  0
 24 23  2  0
M  END
$$$$
