DCH.pdb
     RDKit          3D

 25 25  0  0  1  0  0  0  0  0999 V2000
   19.2168  -13.5871  -16.2088 N   0  0  0  0  0  0  0  0  0  0  0  0
   18.9618  -12.2045  -16.5255 C   0  0  1  0  0  0  0  0  0  0  0  0
   17.5256  -11.8429  -16.2329 C   0  0  0  0  0  0  0  0  0  0  0  0
   16.5818  -12.5970  -17.1019 C   0  0  0  0  0  0  0  0  0  0  0  0
   16.9242  -12.9340  -18.2619 O   0  0  0  0  0  0  0  0  0  0  0  0
   19.9211  -11.3275  -15.8347 C   0  0  0  0  0  0  0  0  0  0  0  0
   19.7358  -11.0532  -14.6087 O   0  0  0  0  0  0  0  0  0  0  0  0
   15.3397  -12.9158  -16.6175 O   0  0  0  0  0  0  0  0  0  0  0  0
   21.0609  -10.7471  -16.4281 N   0  0  0  0  0  0  0  0  0  0  0  0
   21.9793   -9.8689  -15.7687 C   0  0  1  0  0  0  0  0  0  0  0  0
   23.4182  -10.0970  -16.1558 C   0  0  0  0  0  0  0  0  0  0  0  0
   24.2526  -11.1599  -14.9272 S   0  0  0  0  0  0  0  0  0  0  0  0
   21.6913   -8.4346  -16.0446 C   0  0  0  0  0  0  0  0  0  0  0  0
   21.5581   -8.0832  -17.2451 O   0  0  0  0  0  0  0  0  0  0  0  0
   21.5613   -7.4578  -15.0394 N   0  0  0  0  0  0  0  0  0  0  0  0
   21.3430   -6.0388  -15.3000 C   0  0  1  0  0  0  0  0  0  0  0  0
   19.9754   -5.6080  -14.9063 C   0  0  0  0  0  0  0  0  0  0  0  0
   19.7565   -4.1863  -15.2057 C   0  0  0  0  0  0  0  0  0  0  0  0
   20.4116   -3.0686  -14.7497 C   0  0  0  0  0  0  0  0  0  0  0  0
   19.8213   -1.9737  -15.2932 N   0  0  0  0  0  0  0  0  0  0  0  0
   18.8206   -2.3771  -16.0715 C   0  0  0  0  0  0  0  0  0  0  0  0
   18.7768   -3.7059  -16.0228 N   0  0  0  0  0  0  0  0  0  0  0  0
   22.3590   -5.3013  -14.5250 C   0  0  0  0  0  0  0  0  0  0  0  0
   22.7556   -5.6805  -13.3723 O   0  0  0  0  0  0  0  0  0  0  0  0
   22.9524   -4.1272  -15.0203 O   0  0  0  0  0  0  0  0  0  0  0  0
  2  1  1  1
  2  3  1  0
  4  3  1  0
  5  4  2  0
  6  2  1  0
  6  7  2  0
  8  4  1  0
  9  6  1  0
 10  9  1  0
 10 13  1  0
 10 11  1  6
 12 11  1  0
 13 15  1  0
 14 13  2  0
 15 16  1  0
 16 17  1  1
 17 18  1  0
 18 19  2  0
 18 22  1  0
 19 20  1  0
 20 21  1  0
 22 21  2  0
 23 25  1  0
 23 16  1  0
 24 23  2  0
M  END
$$$$
