DCH.pdb
     RDKit          3D

 25 25  0  0  1  0  0  0  0  0999 V2000
   23.1961  -10.7907  -17.7185 N   0  0  0  0  0  0  0  0  0  0  0  0
   21.7955  -11.1283  -17.7518 C   0  0  1  0  0  0  0  0  0  0  0  0
   21.5930  -12.6042  -17.5076 C   0  0  0  0  0  0  0  0  0  0  0  0
   22.2875  -13.4304  -18.5321 C   0  0  0  0  0  0  0  0  0  0  0  0
   22.3706  -13.0264  -19.7181 O   0  0  0  0  0  0  0  0  0  0  0  0
   21.0355  -10.2870  -16.8131 C   0  0  0  0  0  0  0  0  0  0  0  0
   19.7970  -10.5119  -16.6451 O   0  0  0  0  0  0  0  0  0  0  0  0
   22.8318  -14.6327  -18.1617 O   0  0  0  0  0  0  0  0  0  0  0  0
   21.5736   -9.2226  -16.0610 N   0  0  0  0  0  0  0  0  0  0  0  0
   20.8771   -8.4942  -15.0443 C   0  0  1  0  0  0  0  0  0  0  0  0
   21.7425   -8.1192  -13.8684 C   0  0  0  0  0  0  0  0  0  0  0  0
   22.2390   -9.6091  -12.9360 S   0  0  0  0  0  0  0  0  0  0  0  0
   20.2894   -7.2256  -15.5559 C   0  0  0  0  0  0  0  0  0  0  0  0
   21.0637   -6.3988  -16.1027 O   0  0  0  0  0  0  0  0  0  0  0  0
   18.9220   -6.9054  -15.4604 N   0  0  0  0  0  0  0  0  0  0  0  0
   18.3325   -5.6717  -15.9703 C   0  0  1  0  0  0  0  0  0  0  0  0
   16.8977   -5.8472  -16.3191 C   0  0  0  0  0  0  0  0  0  0  0  0
   16.3051   -4.5882  -16.7906 C   0  0  0  0  0  0  0  0  0  0  0  0
   16.5725   -3.8427  -17.9127 C   0  0  0  0  0  0  0  0  0  0  0  0
   15.7809   -2.7402  -17.8941 N   0  0  0  0  0  0  0  0  0  0  0  0
   15.0313   -2.7781  -16.7956 C   0  0  0  0  0  0  0  0  0  0  0  0
   15.3420   -3.8864  -16.1285 N   0  0  0  0  0  0  0  0  0  0  0  0
   18.4852   -4.6562  -14.9111 C   0  0  0  0  0  0  0  0  0  0  0  0
   18.2733   -3.4135  -15.1122 O   0  0  0  0  0  0  0  0  0  0  0  0
   18.8769   -5.0066  -13.6074 O   0  0  0  0  0  0  0  0  0  0  0  0
  2  1  1  1
  2  3  1  0
  4  3  1  0
  5  4  2  0
  6  2  1  0
  6  7  2  0
  8  4  1  0
  9  6  1  0
 10  9  1  0
 10 13  1  0
 10 11  1  1
 12 11  1  0
 13 15  1  0
 14 13  2  0
 15 16  1  0
 16 17  1  1
 17 18  1  0
 18 19  2  0
 18 22  1  0
 19 20  1  0
 20 21  1  0
 22 21  2  0
 23 25  1  0
 23 16  1  0
 24 23  2  0
M  END
$$$$
