DCH.pdb
     RDKit          3D

 25 25  0  0  1  0  0  0  0  0999 V2000
   19.1777  -14.8942  -16.5101 N   0  0  0  0  0  0  0  0  0  0  0  0
   18.7081  -13.6033  -16.9459 C   0  0  1  0  0  0  0  0  0  0  0  0
   17.2015  -13.5830  -17.0376 C   0  0  0  0  0  0  0  0  0  0  0  0
   16.7017  -14.5296  -18.0715 C   0  0  0  0  0  0  0  0  0  0  0  0
   17.3450  -14.6980  -19.1365 O   0  0  0  0  0  0  0  0  0  0  0  0
   19.2396  -12.5376  -16.0808 C   0  0  0  0  0  0  0  0  0  0  0  0
   18.7320  -12.3653  -14.9296 O   0  0  0  0  0  0  0  0  0  0  0  0
   15.5342  -15.2107  -17.8429 O   0  0  0  0  0  0  0  0  0  0  0  0
   20.2924  -11.6647  -16.4243 N   0  0  0  0  0  0  0  0  0  0  0  0
   20.7591  -10.5762  -15.6202 C   0  0  1  0  0  0  0  0  0  0  0  0
   22.2594  -10.5251  -15.4833 C   0  0  0  0  0  0  0  0  0  0  0  0
   22.7616   -9.1053  -14.4502 S   0  0  0  0  0  0  0  0  0  0  0  0
   20.3400   -9.2526  -16.1574 C   0  0  0  0  0  0  0  0  0  0  0  0
   20.6803   -8.9620  -17.3330 O   0  0  0  0  0  0  0  0  0  0  0  0
   19.5882   -8.3157  -15.4236 N   0  0  0  0  0  0  0  0  0  0  0  0
   19.1355   -7.0337  -15.9537 C   0  0  1  0  0  0  0  0  0  0  0  0
   17.8273   -6.6270  -15.3757 C   0  0  0  0  0  0  0  0  0  0  0  0
   17.3724   -5.3459  -15.9331 C   0  0  0  0  0  0  0  0  0  0  0  0
   17.6442   -4.7535  -17.1420 C   0  0  0  0  0  0  0  0  0  0  0  0
   17.0123   -3.5529  -17.1832 N   0  0  0  0  0  0  0  0  0  0  0  0
   16.3575   -3.3817  -16.0378 C   0  0  0  0  0  0  0  0  0  0  0  0
   16.5704   -4.4561  -15.2825 N   0  0  0  0  0  0  0  0  0  0  0  0
   20.1766   -6.0427  -15.6211 C   0  0  0  0  0  0  0  0  0  0  0  0
   20.7901   -6.0372  -14.5015 O   0  0  0  0  0  0  0  0  0  0  0  0
   20.5537   -5.0391  -16.5301 O   0  0  0  0  0  0  0  0  0  0  0  0
  2  1  1  1
  2  3  1  0
  4  3  1  0
  5  4  2  0
  6  2  1  0
  6  7  2  0
  8  4  1  0
  9  6  1  0
 10  9  1  0
 10 13  1  0
 10 11  1  6
 12 11  1  0
 13 15  1  0
 14 13  2  0
 15 16  1  0
 16 17  1  1
 17 18  1  0
 18 19  2  0
 18 22  1  0
 19 20  1  0
 20 21  1  0
 22 21  2  0
 23 25  1  0
 23 16  1  0
 24 23  2  0
M  END
$$$$
