DCH.pdb
     RDKit          3D

 25 25  0  0  1  0  0  0  0  0999 V2000
   22.8306  -12.9362  -19.2025 N   0  0  0  0  0  0  0  0  0  0  0  0
   21.9408  -12.0451  -18.5017 C   0  0  1  0  0  0  0  0  0  0  0  0
   20.9438  -12.8217  -17.6761 C   0  0  0  0  0  0  0  0  0  0  0  0
   19.9364  -13.5053  -18.5321 C   0  0  0  0  0  0  0  0  0  0  0  0
   18.7252  -13.5082  -18.2013 O   0  0  0  0  0  0  0  0  0  0  0  0
   22.7030  -11.0705  -17.7043 C   0  0  0  0  0  0  0  0  0  0  0  0
   23.9444  -11.2611  -17.5171 O   0  0  0  0  0  0  0  0  0  0  0  0
   20.3506  -14.1280  -19.6809 O   0  0  0  0  0  0  0  0  0  0  0  0
   22.1640   -9.9100  -17.1119 N   0  0  0  0  0  0  0  0  0  0  0  0
   22.9268   -8.8598  -16.5082 C   0  0  1  0  0  0  0  0  0  0  0  0
   23.9432   -8.2414  -17.4338 C   0  0  0  0  0  0  0  0  0  0  0  0
   24.8875   -6.9378  -16.5711 S   0  0  0  0  0  0  0  0  0  0  0  0
   22.0703   -7.7450  -16.0183 C   0  0  0  0  0  0  0  0  0  0  0  0
   21.3208   -7.1716  -16.8501 O   0  0  0  0  0  0  0  0  0  0  0  0
   22.0554   -7.3021  -14.6822 N   0  0  0  0  0  0  0  0  0  0  0  0
   21.1216   -6.3104  -14.1588 C   0  0  1  0  0  0  0  0  0  0  0  0
   20.7460   -6.5945  -12.7484 C   0  0  0  0  0  0  0  0  0  0  0  0
   19.8121   -7.7255  -12.6621 C   0  0  0  0  0  0  0  0  0  0  0  0
   19.1729   -8.4308  -13.6522 C   0  0  0  0  0  0  0  0  0  0  0  0
   18.3853   -9.3704  -13.0696 N   0  0  0  0  0  0  0  0  0  0  0  0
   18.5156   -9.2699  -11.7494 C   0  0  0  0  0  0  0  0  0  0  0  0
   19.3717   -8.2829  -11.4986 N   0  0  0  0  0  0  0  0  0  0  0  0
   21.7903   -4.9993  -14.2602 C   0  0  0  0  0  0  0  0  0  0  0  0
   22.9961   -4.8697  -14.6587 O   0  0  0  0  0  0  0  0  0  0  0  0
   21.1275   -3.8075  -13.9194 O   0  0  0  0  0  0  0  0  0  0  0  0
  2  1  1  1
  2  3  1  0
  4  3  1  0
  5  4  2  0
  6  2  1  0
  6  7  2  0
  8  4  1  0
  9  6  1  0
 10  9  1  0
 10 13  1  0
 10 11  1  6
 12 11  1  0
 13 15  1  0
 14 13  2  0
 15 16  1  0
 16 17  1  1
 17 18  1  0
 18 19  2  0
 18 22  1  0
 19 20  1  0
 20 21  1  0
 22 21  2  0
 23 25  1  0
 23 16  1  0
 24 23  2  0
M  END
$$$$
