DCH.pdb
     RDKit          3D

 25 25  0  0  1  0  0  0  0  0999 V2000
   19.5361  -13.4322  -16.8932 N   0  0  0  0  0  0  0  0  0  0  0  0
   20.1430  -12.2942  -17.5363 C   0  0  1  0  0  0  0  0  0  0  0  0
   19.9208  -12.3391  -19.0287 C   0  0  0  0  0  0  0  0  0  0  0  0
   20.6889  -13.4436  -19.6650 C   0  0  0  0  0  0  0  0  0  0  0  0
   21.9299  -13.5290  -19.4944 O   0  0  0  0  0  0  0  0  0  0  0  0
   19.6698  -11.0400  -16.9283 C   0  0  0  0  0  0  0  0  0  0  0  0
   18.4208  -10.8257  -16.8462 O   0  0  0  0  0  0  0  0  0  0  0  0
   20.0228  -14.3606  -20.4360 O   0  0  0  0  0  0  0  0  0  0  0  0
   20.5019  -10.0247  -16.4135 N   0  0  0  0  0  0  0  0  0  0  0  0
   20.0462   -8.8287  -15.7722 C   0  0  1  0  0  0  0  0  0  0  0  0
   19.2720   -9.0798  -14.5034 C   0  0  0  0  0  0  0  0  0  0  0  0
   20.2501  -10.0990  -13.3459 S   0  0  0  0  0  0  0  0  0  0  0  0
   21.1657   -7.9171  -15.4089 C   0  0  0  0  0  0  0  0  0  0  0  0
   22.3057   -8.4235  -15.2468 O   0  0  0  0  0  0  0  0  0  0  0  0
   21.0163   -6.5278  -15.2385 N   0  0  0  0  0  0  0  0  0  0  0  0
   22.1132   -5.6191  -14.9218 C   0  0  1  0  0  0  0  0  0  0  0  0
   22.1237   -4.4317  -15.8168 C   0  0  0  0  0  0  0  0  0  0  0  0
   22.3506   -4.8196  -17.2157 C   0  0  0  0  0  0  0  0  0  0  0  0
   23.5191   -5.0723  -17.8920 C   0  0  0  0  0  0  0  0  0  0  0  0
   23.2135   -5.3666  -19.1813 N   0  0  0  0  0  0  0  0  0  0  0  0
   21.8925   -5.3039  -19.3262 C   0  0  0  0  0  0  0  0  0  0  0  0
   21.3686   -4.9755  -18.1482 N   0  0  0  0  0  0  0  0  0  0  0  0
   21.9323   -5.2047  -13.5175 C   0  0  0  0  0  0  0  0  0  0  0  0
   20.9223   -5.5557  -12.8201 O   0  0  0  0  0  0  0  0  0  0  0  0
   22.8739   -4.3911  -12.8638 O   0  0  0  0  0  0  0  0  0  0  0  0
  2  1  1  1
  2  3  1  0
  4  3  1  0
  5  4  2  0
  6  2  1  0
  6  7  2  0
  8  4  1  0
  9  6  1  0
 10  9  1  0
 10 13  1  0
 10 11  1  1
 12 11  1  0
 13 15  1  0
 14 13  2  0
 15 16  1  0
 16 17  1  6
 17 18  1  0
 18 19  2  0
 18 22  1  0
 19 20  1  0
 20 21  1  0
 22 21  2  0
 23 25  1  0
 23 16  1  0
 24 23  2  0
M  END
$$$$
