DCH.pdb
     RDKit          3D

 25 25  0  0  1  0  0  0  0  0999 V2000
   22.3862  -32.8809  -11.4249 N   0  0  0  0  0  0  0  0  0  0  0  0
   23.0254  -34.1421  -11.7036 C   0  0  1  0  0  0  0  0  0  0  0  0
   23.3089  -34.2858  -13.1793 C   0  0  0  0  0  0  0  0  0  0  0  0
   22.0569  -34.2627  -13.9835 C   0  0  0  0  0  0  0  0  0  0  0  0
   21.9283  -33.4449  -14.9275 O   0  0  0  0  0  0  0  0  0  0  0  0
   24.2299  -34.3089  -10.8742 C   0  0  0  0  0  0  0  0  0  0  0  0
   25.1022  -35.1659  -11.2165 O   0  0  0  0  0  0  0  0  0  0  0  0
   21.0524  -35.1441  -13.6782 O   0  0  0  0  0  0  0  0  0  0  0  0
   24.5117  -33.5819   -9.6993 N   0  0  0  0  0  0  0  0  0  0  0  0
   25.6862  -33.7341   -8.8950 C   0  0  1  0  0  0  0  0  0  0  0  0
   26.1672  -32.4461   -8.2771 C   0  0  0  0  0  0  0  0  0  0  0  0
   24.8000  -31.5999   -7.4109 S   0  0  0  0  0  0  0  0  0  0  0  0
   25.4856  -34.6907   -7.7721 C   0  0  0  0  0  0  0  0  0  0  0  0
   24.3575  -34.7146   -7.2161 O   0  0  0  0  0  0  0  0  0  0  0  0
   26.4854  -35.5636   -7.3032 N   0  0  0  0  0  0  0  0  0  0  0  0
   26.2813  -36.5511   -6.2484 C   0  0  1  0  0  0  0  0  0  0  0  0
   27.2351  -37.6861   -6.3611 C   0  0  0  0  0  0  0  0  0  0  0  0
   26.9129  -38.7516   -5.4022 C   0  0  0  0  0  0  0  0  0  0  0  0
   25.8659  -38.8708   -4.5212 C   0  0  0  0  0  0  0  0  0  0  0  0
   26.0207  -40.0254   -3.8245 N   0  0  0  0  0  0  0  0  0  0  0  0
   27.1308  -40.6259   -4.2452 C   0  0  0  0  0  0  0  0  0  0  0  0
   27.6713  -39.8650   -5.1933 N   0  0  0  0  0  0  0  0  0  0  0  0
   26.4655  -35.8483   -4.9644 C   0  0  0  0  0  0  0  0  0  0  0  0
   27.1445  -34.7724   -4.8590 O   0  0  0  0  0  0  0  0  0  0  0  0
   25.8964  -36.3314   -3.7734 O   0  0  0  0  0  0  0  0  0  0  0  0
  2  1  1  6
  2  3  1  0
  4  3  1  0
  5  4  2  0
  6  2  1  0
  6  7  2  0
  8  4  1  0
  9  6  1  0
 10  9  1  0
 10 13  1  0
 10 11  1  1
 12 11  1  0
 13 15  1  0
 14 13  2  0
 15 16  1  0
 16 17  1  6
 17 18  1  0
 18 19  2  0
 18 22  1  0
 19 20  1  0
 20 21  1  0
 22 21  2  0
 23 25  1  0
 23 16  1  0
 24 23  2  0
M  END
$$$$
