ILK.pdb
     RDKit          3D

 26 25  0  0  1  0  0  0  0  0999 V2000
    8.3512  -19.7145   19.7450 C   0  0  0  0  0  0  0  0  0  0  0  0
    8.0776  -18.2421   19.7877 C   0  0  0  0  0  0  0  0  0  0  0  0
    8.4694  -17.6827   21.1226 C   0  0  2  0  0  0  0  0  0  0  0  0
    7.7067  -18.4143   22.1860 C   0  0  0  0  0  0  0  0  0  0  0  0
    8.1866  -16.1962   21.1912 C   0  0  2  0  0  0  0  0  0  0  0  0
    8.8177  -15.4680   20.1352 N   0  0  0  0  0  0  0  0  0  0  0  0
    8.6497  -15.7276   22.5436 C   0  0  0  0  0  0  0  0  0  0  0  0
    9.8722  -15.5961   22.8038 O   0  0  0  0  0  0  0  0  0  0  0  0
    8.3069  -12.5873   26.8211 C   0  0  0  0  0  0  0  0  0  0  0  0
    7.0800  -12.7679   25.9536 C   0  0  2  0  0  0  0  0  0  0  0  0
    5.8605  -12.1227   26.5308 C   0  0  0  0  0  0  0  0  0  0  0  0
    6.9332  -14.1005   25.3598 C   0  0  0  0  0  0  0  0  0  0  0  0
    8.0957  -14.8424   24.8376 C   0  0  2  0  0  0  0  0  0  0  0  0
    7.6723  -15.4345   23.5268 N   0  0  0  0  0  0  0  0  0  0  0  0
    8.6388  -15.9531   25.6257 C   0  0  0  0  0  0  0  0  0  0  0  0
    7.8826  -16.9419   25.9522 O   0  0  0  0  0  0  0  0  0  0  0  0
    9.9836  -16.0477   26.0744 N   0  0  0  0  0  0  0  0  0  0  0  0
   10.3952  -17.1991   26.8077 C   0  0  1  0  0  0  0  0  0  0  0  0
   11.6084  -17.8755   26.1851 C   0  0  0  0  0  0  0  0  0  0  0  0
   11.3991  -18.1484   24.7112 C   0  0  0  0  0  0  0  0  0  0  0  0
   12.6167  -18.8467   24.1696 C   0  0  0  0  0  0  0  0  0  0  0  0
   12.5376  -19.1181   22.6902 C   0  0  0  0  0  0  0  0  0  0  0  0
   13.7499  -19.8080   22.2250 N   0  0  0  0  0  0  0  0  0  0  0  0
   10.7119  -16.9500   28.2257 C   0  0  0  0  0  0  0  0  0  0  0  0
   10.7166  -15.8193   28.7450 O   0  0  0  0  0  0  0  0  0  0  0  0
   11.0346  -18.0322   29.0796 O   0  0  0  0  0  0  0  0  0  0  0  0
  2  1  1  0
  3  2  1  0
  3  4  1  1
  5  3  1  0
  5  6  1  6
  7  5  1  0
  8  7  2  0
 10  9  1  1
 10 12  1  0
 11 10  1  0
 13 12  1  1
 13 15  1  0
 13 14  1  0
 14  7  1  0
 15 16  2  0
 17 15  1  0
 17 18  1  0
 18 24  1  0
 18 19  1  6
 20 19  1  0
 21 20  1  0
 22 21  1  0
 23 22  1  0
 24 25  2  0
 24 26  1  0
M  END
$$$$
