ILK.pdb
     RDKit          3D

 26 25  0  0  1  0  0  0  0  0999 V2000
    7.3897  -16.5691   17.6614 C   0  0  0  0  0  0  0  0  0  0  0  0
    7.2247  -15.1957   18.2370 C   0  0  0  0  0  0  0  0  0  0  0  0
    7.7207  -15.1659   19.6517 C   0  0  2  0  0  0  0  0  0  0  0  0
    6.9463  -16.1733   20.4475 C   0  0  0  0  0  0  0  0  0  0  0  0
    7.5681  -13.7828   20.2503 C   0  0  2  0  0  0  0  0  0  0  0  0
    8.1697  -12.7666   19.4447 N   0  0  0  0  0  0  0  0  0  0  0  0
    8.1763  -13.8347   21.6253 C   0  0  0  0  0  0  0  0  0  0  0  0
    9.4196  -13.9256   21.7844 O   0  0  0  0  0  0  0  0  0  0  0  0
    5.9207  -12.5327   27.2267 C   0  0  0  0  0  0  0  0  0  0  0  0
    7.1399  -12.9629   26.4400 C   0  0  2  0  0  0  0  0  0  0  0  0
    8.4002  -12.3191   26.9235 C   0  0  0  0  0  0  0  0  0  0  0  0
    6.9363  -13.0664   24.9916 C   0  0  0  0  0  0  0  0  0  0  0  0
    7.8936  -13.7837   24.1294 C   0  0  2  0  0  0  0  0  0  0  0  0
    7.3126  -13.7784   22.7472 N   0  0  0  0  0  0  0  0  0  0  0  0
    8.2058  -15.1842   24.4306 C   0  0  0  0  0  0  0  0  0  0  0  0
    7.3843  -16.1150   24.0914 O   0  0  0  0  0  0  0  0  0  0  0  0
    9.3870  -15.6297   25.0827 N   0  0  0  0  0  0  0  0  0  0  0  0
    9.8479  -16.9603   24.8594 C   0  0  1  0  0  0  0  0  0  0  0  0
   10.3429  -17.1672   23.4349 C   0  0  0  0  0  0  0  0  0  0  0  0
   10.7941  -18.5933   23.2034 C   0  0  0  0  0  0  0  0  0  0  0  0
   11.2055  -18.7441   21.7641 C   0  0  0  0  0  0  0  0  0  0  0  0
   11.5953  -20.1531   21.4018 C   0  0  0  0  0  0  0  0  0  0  0  0
   12.1421  -20.2043   20.0378 N   0  0  0  0  0  0  0  0  0  0  0  0
   10.9226  -17.4040   25.7656 C   0  0  0  0  0  0  0  0  0  0  0  0
   11.4565  -18.5264   25.7079 O   0  0  0  0  0  0  0  0  0  0  0  0
   11.4035  -16.5333   26.7731 O   0  0  0  0  0  0  0  0  0  0  0  0
  2  1  1  0
  3  2  1  0
  3  4  1  1
  5  3  1  0
  5  6  1  6
  7  5  1  0
  8  7  2  0
 10  9  1  1
 10 12  1  0
 11 10  1  0
 13 12  1  1
 13 15  1  0
 13 14  1  0
 14  7  1  0
 15 16  2  0
 17 15  1  0
 17 18  1  0
 18 24  1  0
 18 19  1  6
 20 19  1  0
 21 20  1  0
 22 21  1  0
 23 22  1  0
 24 25  2  0
 24 26  1  0
M  END
$$$$
