ILK.pdb
     RDKit          3D

 26 25  0  0  1  0  0  0  0  0999 V2000
    7.2224  -12.2959   18.1318 C   0  0  0  0  0  0  0  0  0  0  0  0
    7.3622  -13.6623   18.7302 C   0  0  0  0  0  0  0  0  0  0  0  0
    7.9583  -13.5664   20.1026 C   0  0  2  0  0  0  0  0  0  0  0  0
    9.3329  -12.9798   19.9830 C   0  0  0  0  0  0  0  0  0  0  0  0
    8.0156  -14.9275   20.7648 C   0  0  2  0  0  0  0  0  0  0  0  0
    6.7432  -15.5785   20.7926 N   0  0  0  0  0  0  0  0  0  0  0  0
    8.5613  -14.7143   22.1504 C   0  0  0  0  0  0  0  0  0  0  0  0
    9.7785  -14.4653   22.3397 O   0  0  0  0  0  0  0  0  0  0  0  0
    6.0166  -12.6233   27.2738 C   0  0  0  0  0  0  0  0  0  0  0  0
    7.2842  -13.1431   26.6307 C   0  0  2  0  0  0  0  0  0  0  0  0
    8.4731  -12.2797   26.9092 C   0  0  0  0  0  0  0  0  0  0  0  0
    7.1190  -13.6619   25.2692 C   0  0  0  0  0  0  0  0  0  0  0  0
    8.1605  -14.4860   24.6283 C   0  0  2  0  0  0  0  0  0  0  0  0
    7.6684  -14.8002   23.2473 N   0  0  0  0  0  0  0  0  0  0  0  0
    8.5161  -15.7734   25.2329 C   0  0  0  0  0  0  0  0  0  0  0  0
    7.5979  -16.6332   25.5049 O   0  0  0  0  0  0  0  0  0  0  0  0
    9.8391  -16.1817   25.5520 N   0  0  0  0  0  0  0  0  0  0  0  0
   10.0515  -17.4641   26.1380 C   0  0  1  0  0  0  0  0  0  0  0  0
   11.0463  -18.3016   25.3468 C   0  0  0  0  0  0  0  0  0  0  0  0
   10.6393  -18.4258   23.8943 C   0  0  0  0  0  0  0  0  0  0  0  0
   11.6682  -19.2517   23.1713 C   0  0  0  0  0  0  0  0  0  0  0  0
   11.3748  -19.4149   21.7032 C   0  0  0  0  0  0  0  0  0  0  0  0
   12.3822  -20.2765   21.0667 N   0  0  0  0  0  0  0  0  0  0  0  0
   10.5162  -17.4369   27.5367 C   0  0  0  0  0  0  0  0  0  0  0  0
   10.8112  -16.3936   28.1473 O   0  0  0  0  0  0  0  0  0  0  0  0
   10.6480  -18.6453   28.2624 O   0  0  0  0  0  0  0  0  0  0  0  0
  2  1  1  0
  3  2  1  0
  3  4  1  6
  5  3  1  0
  5  6  1  1
  7  5  1  0
  8  7  2  0
 10  9  1  6
 10 12  1  0
 11 10  1  0
 13 12  1  1
 13 15  1  0
 13 14  1  0
 14  7  1  0
 15 16  2  0
 17 15  1  0
 17 18  1  0
 18 24  1  0
 18 19  1  6
 20 19  1  0
 21 20  1  0
 22 21  1  0
 23 22  1  0
 24 25  2  0
 24 26  1  0
M  END
$$$$
