ILK.pdb
     RDKit          3D

 26 25  0  0  1  0  0  0  0  0999 V2000
    7.4958  -18.0382   18.7125 C   0  0  0  0  0  0  0  0  0  0  0  0
    7.3305  -16.5876   19.0489 C   0  0  0  0  0  0  0  0  0  0  0  0
    7.7921  -16.3271   20.4515 C   0  0  2  0  0  0  0  0  0  0  0  0
    7.0575  -17.2541   21.3728 C   0  0  0  0  0  0  0  0  0  0  0  0
    7.5490  -14.8840   20.8427 C   0  0  2  0  0  0  0  0  0  0  0  0
    8.1067  -13.9598   19.9055 N   0  0  0  0  0  0  0  0  0  0  0  0
    8.1326  -14.7020   22.2173 C   0  0  0  0  0  0  0  0  0  0  0  0
    9.3737  -14.6056   22.3903 O   0  0  0  0  0  0  0  0  0  0  0  0
    7.9013  -11.7799   26.1046 C   0  0  0  0  0  0  0  0  0  0  0  0
    6.6111  -12.4817   25.7398 C   0  0  2  0  0  0  0  0  0  0  0  0
    5.4365  -11.9792   26.5173 C   0  0  0  0  0  0  0  0  0  0  0  0
    6.7300  -13.9293   25.5387 C   0  0  0  0  0  0  0  0  0  0  0  0
    7.8040  -14.5050   24.7085 C   0  0  2  0  0  0  0  0  0  0  0  0
    7.2481  -14.6407   23.3227 N   0  0  0  0  0  0  0  0  0  0  0  0
    8.3401  -15.8238   25.0593 C   0  0  0  0  0  0  0  0  0  0  0  0
    7.5743  -16.8579   25.0358 O   0  0  0  0  0  0  0  0  0  0  0  0
    9.6878  -16.0790   25.4303 N   0  0  0  0  0  0  0  0  0  0  0  0
   10.1077  -17.4232   25.6528 C   0  0  1  0  0  0  0  0  0  0  0  0
   11.2249  -17.8419   24.7075 C   0  0  0  0  0  0  0  0  0  0  0  0
   11.6435  -19.2776   24.9408 C   0  0  0  0  0  0  0  0  0  0  0  0
   12.7162  -19.6372   23.9491 C   0  0  0  0  0  0  0  0  0  0  0  0
   13.1399  -21.0803   24.0288 C   0  0  0  0  0  0  0  0  0  0  0  0
   14.1052  -21.3958   22.9654 N   0  0  0  0  0  0  0  0  0  0  0  0
   10.5639  -17.7108   27.0248 C   0  0  0  0  0  0  0  0  0  0  0  0
   11.0000  -18.8171   27.3911 O   0  0  0  0  0  0  0  0  0  0  0  0
   10.5196  -16.6974   28.0125 O   0  0  0  0  0  0  0  0  0  0  0  0
  2  1  1  0
  3  2  1  0
  3  4  1  1
  5  3  1  0
  5  6  1  6
  7  5  1  0
  8  7  2  0
 10  9  1  1
 10 12  1  0
 11 10  1  0
 13 12  1  1
 13 15  1  0
 13 14  1  0
 14  7  1  0
 15 16  2  0
 17 15  1  0
 17 18  1  0
 18 24  1  0
 18 19  1  6
 20 19  1  0
 21 20  1  0
 22 21  1  0
 23 22  1  0
 24 25  2  0
 24 26  1  0
M  END
$$$$
