ILK.pdb
     RDKit          3D

 26 25  0  0  1  0  0  0  0  0999 V2000
    7.7333  -12.1382   18.9295 C   0  0  0  0  0  0  0  0  0  0  0  0
    7.5698  -13.5091   19.5114 C   0  0  0  0  0  0  0  0  0  0  0  0
    8.1318  -13.5505   20.9009 C   0  0  2  0  0  0  0  0  0  0  0  0
    9.5872  -13.1965   20.8350 C   0  0  0  0  0  0  0  0  0  0  0  0
    7.9441  -14.9198   21.5207 C   0  0  2  0  0  0  0  0  0  0  0  0
    6.5877  -15.3674   21.4627 N   0  0  0  0  0  0  0  0  0  0  0  0
    8.4385  -14.8268   22.9385 C   0  0  0  0  0  0  0  0  0  0  0  0
    9.6669  -14.7664   23.1972 O   0  0  0  0  0  0  0  0  0  0  0  0
    8.2541  -11.7213   26.0164 C   0  0  0  0  0  0  0  0  0  0  0  0
    6.9170  -12.4238   25.9210 C   0  0  2  0  0  0  0  0  0  0  0  0
    5.8136  -11.6656   26.5876 C   0  0  0  0  0  0  0  0  0  0  0  0
    6.9659  -13.8759   26.1182 C   0  0  0  0  0  0  0  0  0  0  0  0
    7.9480  -14.7161   25.4083 C   0  0  2  0  0  0  0  0  0  0  0  0
    7.4840  -14.8082   23.9856 N   0  0  0  0  0  0  0  0  0  0  0  0
    8.1533  -16.0970   25.8563 C   0  0  0  0  0  0  0  0  0  0  0  0
    8.1447  -16.3749   27.1128 O   0  0  0  0  0  0  0  0  0  0  0  0
    8.3608  -17.2070   24.9939 N   0  0  0  0  0  0  0  0  0  0  0  0
    8.6409  -18.4861   25.5580 C   0  0  1  0  0  0  0  0  0  0  0  0
    8.1970  -19.6255   24.6515 C   0  0  0  0  0  0  0  0  0  0  0  0
    6.9203  -20.2684   25.1491 C   0  0  0  0  0  0  0  0  0  0  0  0
    6.5020  -21.3345   24.1734 C   0  0  0  0  0  0  0  0  0  0  0  0
    5.1684  -21.9519   24.5032 C   0  0  0  0  0  0  0  0  0  0  0  0
    4.7786  -22.9238   23.4709 N   0  0  0  0  0  0  0  0  0  0  0  0
   10.0576  -18.7189   25.8925 C   0  0  0  0  0  0  0  0  0  0  0  0
   10.4768  -19.7510   26.4469 O   0  0  0  0  0  0  0  0  0  0  0  0
   11.0289  -17.7367   25.5821 O   0  0  0  0  0  0  0  0  0  0  0  0
  2  1  1  0
  3  2  1  0
  3  4  1  6
  5  3  1  0
  5  6  1  1
  7  5  1  0
  8  7  2  0
 10  9  1  1
 10 12  1  0
 11 10  1  0
 13 12  1  1
 13 15  1  0
 13 14  1  0
 14  7  1  0
 15 16  2  0
 17 15  1  0
 17 18  1  0
 18 24  1  0
 18 19  1  6
 20 19  1  0
 21 20  1  0
 22 21  1  0
 23 22  1  0
 24 25  2  0
 24 26  1  0
M  END
$$$$
