ILK.pdb
     RDKit          3D

 26 25  0  0  1  0  0  0  0  0999 V2000
    8.3955  -11.9271   19.8396 C   0  0  0  0  0  0  0  0  0  0  0  0
    7.9099  -13.0253   20.7356 C   0  0  0  0  0  0  0  0  0  0  0  0
    8.5465  -14.3266   20.3488 C   0  0  2  0  0  0  0  0  0  0  0  0
    8.2062  -14.6145   18.9174 C   0  0  0  0  0  0  0  0  0  0  0  0
    8.0705  -15.4504   21.2460 C   0  0  2  0  0  0  0  0  0  0  0  0
    6.6562  -15.6466   21.1768 N   0  0  0  0  0  0  0  0  0  0  0  0
    8.5169  -15.1109   22.6420 C   0  0  0  0  0  0  0  0  0  0  0  0
    9.7320  -14.9404   22.9138 O   0  0  0  0  0  0  0  0  0  0  0  0
    8.1989  -11.9784   26.3496 C   0  0  0  0  0  0  0  0  0  0  0  0
    6.8570  -12.5262   25.9141 C   0  0  2  0  0  0  0  0  0  0  0  0
    5.7106  -11.9046   26.6462 C   0  0  0  0  0  0  0  0  0  0  0  0
    6.8229  -13.9754   25.6931 C   0  0  0  0  0  0  0  0  0  0  0  0
    7.9509  -14.6839   25.0607 C   0  0  2  0  0  0  0  0  0  0  0  0
    7.5321  -14.9859   23.6531 N   0  0  0  0  0  0  0  0  0  0  0  0
    8.3956  -15.9589   25.6319 C   0  0  0  0  0  0  0  0  0  0  0  0
    7.5551  -16.9195   25.7963 O   0  0  0  0  0  0  0  0  0  0  0  0
    9.7286  -16.2484   26.0298 N   0  0  0  0  0  0  0  0  0  0  0  0
   10.1144  -17.6043   26.2427 C   0  0  1  0  0  0  0  0  0  0  0  0
   10.8094  -18.2033   25.0281 C   0  0  0  0  0  0  0  0  0  0  0  0
   11.2684  -19.6213   25.2917 C   0  0  0  0  0  0  0  0  0  0  0  0
   12.0323  -20.1144   24.0930 C   0  0  0  0  0  0  0  0  0  0  0  0
   12.1326  -21.6157   24.0284 C   0  0  0  0  0  0  0  0  0  0  0  0
   12.9103  -22.0323   22.8520 N   0  0  0  0  0  0  0  0  0  0  0  0
   10.9960  -17.8226   27.4039 C   0  0  0  0  0  0  0  0  0  0  0  0
   11.4892  -18.9259   27.7001 O   0  0  0  0  0  0  0  0  0  0  0  0
   11.3250  -16.7410   28.2562 O   0  0  0  0  0  0  0  0  0  0  0  0
  2  1  1  0
  3  2  1  0
  3  4  1  6
  5  3  1  0
  5  6  1  1
  7  5  1  0
  8  7  2  0
 10  9  1  1
 10 12  1  0
 11 10  1  0
 13 12  1  1
 13 15  1  0
 13 14  1  0
 14  7  1  0
 15 16  2  0
 17 15  1  0
 17 18  1  0
 18 24  1  0
 18 19  1  6
 20 19  1  0
 21 20  1  0
 22 21  1  0
 23 22  1  0
 24 25  2  0
 24 26  1  0
M  END
$$$$
