PAV.pdb
     RDKit          3D

 20 20  0  0  1  0  0  0  0  0999 V2000
    8.0576  -15.1347   18.5685 N   0  0  0  0  0  0  0  0  0  0  0  0
    7.7035  -14.2512   17.4900 C   0  0  0  0  0  0  0  0  0  0  0  0
    8.3278  -12.8955   17.8458 C   0  0  0  0  0  0  0  0  0  0  0  0
    8.1395  -12.9165   19.3686 C   0  0  0  0  0  0  0  0  0  0  0  0
    8.5168  -14.3536   19.6683 C   0  0  1  0  0  0  0  0  0  0  0  0
    7.9926  -14.7966   20.9746 C   0  0  0  0  0  0  0  0  0  0  0  0
    6.8297  -14.5623   21.3603 O   0  0  0  0  0  0  0  0  0  0  0  0
    9.0740  -17.3341   23.4733 C   0  0  0  0  0  0  0  0  0  0  0  0
    8.4170  -16.0027   23.1419 C   0  0  2  0  0  0  0  0  0  0  0  0
    8.8430  -15.5246   21.8413 N   0  0  0  0  0  0  0  0  0  0  0  0
    8.6804  -15.0138   24.2088 C   0  0  0  0  0  0  0  0  0  0  0  0
    9.7431  -14.3469   24.1467 O   0  0  0  0  0  0  0  0  0  0  0  0
    7.0276  -12.1718   27.9184 C   0  0  0  0  0  0  0  0  0  0  0  0
    6.7943  -13.0560   26.7163 C   0  0  1  0  0  0  0  0  0  0  0  0
    6.2252  -12.2752   25.5799 C   0  0  0  0  0  0  0  0  0  0  0  0
    8.0571  -13.8013   26.3361 C   0  0  2  0  0  0  0  0  0  0  0  0
    7.8083  -14.7742   25.2934 N   0  0  0  0  0  0  0  0  0  0  0  0
    8.6557  -14.4989   27.4897 C   0  0  0  0  0  0  0  0  0  0  0  0
    9.4826  -13.8032   28.3495 O   0  0  0  0  0  0  0  0  0  0  0  0
    8.4511  -15.7132   27.7380 O   0  0  0  0  0  0  0  0  0  0  0  0
  1  2  1  0
  3  2  1  0
  4  3  1  0
  5  4  1  0
  5  6  1  1
  5  1  1  0
  6 10  1  0
  7  6  2  0
  9 11  1  0
  9 10  1  0
  9  8  1  1
 11 17  1  0
 12 11  2  0
 14 13  1  1
 14 15  1  0
 16 14  1  0
 16 17  1  6
 18 16  1  0
 19 18  1  0
 20 18  2  0
M  END
$$$$
