PAV.pdb
     RDKit          3D

 20 20  0  0  1  0  0  0  0  0999 V2000
    8.8108  -15.2553   19.1681 N   0  0  0  0  0  0  0  0  0  0  0  0
    8.3234  -15.1628   17.8179 C   0  0  0  0  0  0  0  0  0  0  0  0
    7.9764  -13.6834   17.6055 C   0  0  0  0  0  0  0  0  0  0  0  0
    7.4421  -13.3405   19.0026 C   0  0  0  0  0  0  0  0  0  0  0  0
    8.4565  -14.0643   19.8655 C   0  0  1  0  0  0  0  0  0  0  0  0
    7.9458  -14.3013   21.2294 C   0  0  0  0  0  0  0  0  0  0  0  0
    7.4868  -13.3963   21.9550 O   0  0  0  0  0  0  0  0  0  0  0  0
    7.4676  -17.4716   23.2663 C   0  0  0  0  0  0  0  0  0  0  0  0
    7.3583  -15.9754   23.0139 C   0  0  2  0  0  0  0  0  0  0  0  0
    7.9733  -15.6172   21.7509 N   0  0  0  0  0  0  0  0  0  0  0  0
    7.9319  -15.2147   24.1444 C   0  0  0  0  0  0  0  0  0  0  0  0
    9.1727  -15.0190   24.1556 O   0  0  0  0  0  0  0  0  0  0  0  0
    7.1540  -12.0131   27.8786 C   0  0  0  0  0  0  0  0  0  0  0  0
    6.5968  -12.9390   26.8233 C   0  0  1  0  0  0  0  0  0  0  0  0
    5.8361  -12.1774   25.7906 C   0  0  0  0  0  0  0  0  0  0  0  0
    7.6892  -13.8007   26.2241 C   0  0  2  0  0  0  0  0  0  0  0  0
    7.1678  -14.6950   25.2123 N   0  0  0  0  0  0  0  0  0  0  0  0
    8.3798  -14.6082   27.2473 C   0  0  0  0  0  0  0  0  0  0  0  0
    9.4004  -14.0412   27.9847 O   0  0  0  0  0  0  0  0  0  0  0  0
    8.0854  -15.8051   27.4893 O   0  0  0  0  0  0  0  0  0  0  0  0
  1  2  1  0
  3  2  1  0
  4  3  1  0
  5  4  1  0
  5  6  1  1
  5  1  1  0
  6 10  1  0
  7  6  2  0
  9 11  1  0
  9 10  1  0
  9  8  1  1
 11 17  1  0
 12 11  2  0
 14 13  1  1
 14 15  1  0
 16 14  1  0
 16 17  1  6
 18 16  1  0
 19 18  1  0
 20 18  2  0
M  END
$$$$
