PAV.pdb
     RDKit          3D

 20 20  0  0  1  0  0  0  0  0999 V2000
    8.9276  -15.0882   19.3208 N   0  0  0  0  0  0  0  0  0  0  0  0
    8.5850  -15.0155   17.9255 C   0  0  0  0  0  0  0  0  0  0  0  0
    8.2899  -13.5352   17.6501 C   0  0  0  0  0  0  0  0  0  0  0  0
    7.6200  -13.1544   18.9771 C   0  0  0  0  0  0  0  0  0  0  0  0
    8.5252  -13.8771   19.9547 C   0  0  1  0  0  0  0  0  0  0  0  0
    7.8712  -14.0771   21.2621 C   0  0  0  0  0  0  0  0  0  0  0  0
    7.3980  -13.1432   21.9404 O   0  0  0  0  0  0  0  0  0  0  0  0
    7.1408  -17.1772   23.3318 C   0  0  0  0  0  0  0  0  0  0  0  0
    7.2064  -15.6772   23.0869 C   0  0  2  0  0  0  0  0  0  0  0  0
    7.7699  -15.3898   21.7824 N   0  0  0  0  0  0  0  0  0  0  0  0
    7.9524  -15.0058   24.1724 C   0  0  0  0  0  0  0  0  0  0  0  0
    9.2033  -14.9410   24.0771 O   0  0  0  0  0  0  0  0  0  0  0  0
    6.9162  -11.5489   25.8355 C   0  0  0  0  0  0  0  0  0  0  0  0
    7.2293  -12.5726   26.9010 C   0  0  1  0  0  0  0  0  0  0  0  0
    5.9831  -13.0497   27.5677 C   0  0  0  0  0  0  0  0  0  0  0  0
    8.0592  -13.7078   26.3374 C   0  0  2  0  0  0  0  0  0  0  0  0
    7.3423  -14.4330   25.3100 N   0  0  0  0  0  0  0  0  0  0  0  0
    8.4684  -14.6650   27.3826 C   0  0  0  0  0  0  0  0  0  0  0  0
    9.4290  -14.2953   28.3032 O   0  0  0  0  0  0  0  0  0  0  0  0
    7.9825  -15.8190   27.4833 O   0  0  0  0  0  0  0  0  0  0  0  0
  1  2  1  0
  3  2  1  0
  4  3  1  0
  5  4  1  0
  5  6  1  1
  5  1  1  0
  6 10  1  0
  7  6  2  0
  9 11  1  0
  9 10  1  0
  9  8  1  1
 11 17  1  0
 12 11  2  0
 14 13  1  6
 14 15  1  0
 16 14  1  0
 16 17  1  6
 18 16  1  0
 19 18  1  0
 20 18  2  0
M  END
$$$$
