PAV.pdb
     RDKit          3D

 20 20  0  0  1  0  0  0  0  0999 V2000
    8.2463  -15.2010   20.1620 N   0  0  0  0  0  0  0  0  0  0  0  0
    7.5454  -14.7388   18.9939 C   0  0  0  0  0  0  0  0  0  0  0  0
    7.7331  -13.2161   18.9763 C   0  0  0  0  0  0  0  0  0  0  0  0
    7.6827  -12.9325   20.4835 C   0  0  0  0  0  0  0  0  0  0  0  0
    8.5193  -14.0843   21.0039 C   0  0  1  0  0  0  0  0  0  0  0  0
    8.2685  -14.3410   22.4351 C   0  0  0  0  0  0  0  0  0  0  0  0
    8.4084  -13.4735   23.3206 O   0  0  0  0  0  0  0  0  0  0  0  0
    6.7955  -17.2924   24.2935 C   0  0  0  0  0  0  0  0  0  0  0  0
    7.5385  -15.9676   24.2109 C   0  0  2  0  0  0  0  0  0  0  0  0
    7.8476  -15.6323   22.8348 N   0  0  0  0  0  0  0  0  0  0  0  0
    8.7492  -15.9974   25.0588 C   0  0  0  0  0  0  0  0  0  0  0  0
    9.8224  -16.3965   24.5422 O   0  0  0  0  0  0  0  0  0  0  0  0
    9.7952  -13.0829   27.5075 C   0  0  0  0  0  0  0  0  0  0  0  0
    9.9232  -14.4096   28.2180 C   0  0  1  0  0  0  0  0  0  0  0  0
    8.8482  -14.5762   29.2387 C   0  0  0  0  0  0  0  0  0  0  0  0
    9.9679  -15.5549   27.2274 C   0  0  2  0  0  0  0  0  0  0  0  0
    8.7708  -15.6039   26.4150 N   0  0  0  0  0  0  0  0  0  0  0  0
   10.1287  -16.8591   27.8975 C   0  0  0  0  0  0  0  0  0  0  0  0
   11.3758  -17.2392   28.3531 O   0  0  0  0  0  0  0  0  0  0  0  0
    9.1766  -17.6579   28.0801 O   0  0  0  0  0  0  0  0  0  0  0  0
  1  2  1  0
  3  2  1  0
  4  3  1  0
  5  4  1  0
  5  6  1  1
  5  1  1  0
  6 10  1  0
  7  6  2  0
  9 11  1  0
  9 10  1  0
  9  8  1  6
 11 17  1  0
 12 11  2  0
 14 13  1  6
 14 15  1  0
 16 14  1  0
 16 17  1  1
 18 16  1  0
 19 18  1  0
 20 18  2  0
M  END
$$$$
