PAV.pdb
     RDKit          3D

 20 20  0  0  1  0  0  0  0  0999 V2000
    8.4274  -15.0188   19.1281 N   0  0  0  0  0  0  0  0  0  0  0  0
    7.8730  -14.7439   17.8295 C   0  0  0  0  0  0  0  0  0  0  0  0
    7.8183  -13.2145   17.7201 C   0  0  0  0  0  0  0  0  0  0  0  0
    7.4663  -12.8643   19.1721 C   0  0  0  0  0  0  0  0  0  0  0  0
    8.3725  -13.8291   19.9105 C   0  0  1  0  0  0  0  0  0  0  0  0
    7.9239  -14.0486   21.2990 C   0  0  0  0  0  0  0  0  0  0  0  0
    7.6732  -13.1190   22.0921 O   0  0  0  0  0  0  0  0  0  0  0  0
    7.1828  -17.1959   23.2944 C   0  0  0  0  0  0  0  0  0  0  0  0
    7.2210  -15.6917   23.0706 C   0  0  2  0  0  0  0  0  0  0  0  0
    7.7665  -15.3762   21.7650 N   0  0  0  0  0  0  0  0  0  0  0  0
    7.9667  -15.0235   24.1584 C   0  0  0  0  0  0  0  0  0  0  0  0
    9.2156  -14.9387   24.0529 O   0  0  0  0  0  0  0  0  0  0  0  0
    7.1942  -11.5329   25.7652 C   0  0  0  0  0  0  0  0  0  0  0  0
    7.3209  -12.5728   26.8533 C   0  0  1  0  0  0  0  0  0  0  0  0
    5.9853  -12.9217   27.4185 C   0  0  0  0  0  0  0  0  0  0  0  0
    8.0794  -13.7875   26.3591 C   0  0  2  0  0  0  0  0  0  0  0  0
    7.3584  -14.4749   25.3088 N   0  0  0  0  0  0  0  0  0  0  0  0
    8.3495  -14.7495   27.4442 C   0  0  0  0  0  0  0  0  0  0  0  0
    9.2963  -14.4443   28.4020 O   0  0  0  0  0  0  0  0  0  0  0  0
    7.7550  -15.8513   27.5471 O   0  0  0  0  0  0  0  0  0  0  0  0
  1  2  1  0
  3  2  1  0
  4  3  1  0
  5  4  1  0
  5  6  1  1
  5  1  1  0
  6 10  1  0
  7  6  2  0
  9 11  1  0
  9 10  1  0
  9  8  1  1
 11 17  1  0
 12 11  2  0
 14 13  1  6
 14 15  1  0
 16 14  1  0
 16 17  1  6
 18 16  1  0
 19 18  1  0
 20 18  2  0
M  END
$$$$
