PAV.pdb
     RDKit          3D

 20 20  0  0  1  0  0  0  0  0999 V2000
    9.0174  -14.9296   19.1185 N   0  0  0  0  0  0  0  0  0  0  0  0
    8.5928  -14.7963   17.7505 C   0  0  0  0  0  0  0  0  0  0  0  0
    8.1925  -13.3244   17.5848 C   0  0  0  0  0  0  0  0  0  0  0  0
    7.5764  -13.0674   18.9665 C   0  0  0  0  0  0  0  0  0  0  0  0
    8.5781  -13.7869   19.8476 C   0  0  1  0  0  0  0  0  0  0  0  0
    8.0123  -14.1061   21.1725 C   0  0  0  0  0  0  0  0  0  0  0  0
    7.4162  -13.2705   21.8813 O   0  0  0  0  0  0  0  0  0  0  0  0
    7.8528  -17.3152   23.1989 C   0  0  0  0  0  0  0  0  0  0  0  0
    7.6361  -15.8271   22.9695 C   0  0  2  0  0  0  0  0  0  0  0  0
    8.1469  -15.4231   21.6742 N   0  0  0  0  0  0  0  0  0  0  0  0
    8.2320  -15.0397   24.0697 C   0  0  0  0  0  0  0  0  0  0  0  0
    9.4721  -14.8401   24.0489 O   0  0  0  0  0  0  0  0  0  0  0  0
    6.7992  -11.6239   25.4319 C   0  0  0  0  0  0  0  0  0  0  0  0
    7.0848  -12.5584   26.5836 C   0  0  1  0  0  0  0  0  0  0  0  0
    5.8200  -13.1006   27.1593 C   0  0  0  0  0  0  0  0  0  0  0  0
    8.0516  -13.6495   26.1718 C   0  0  2  0  0  0  0  0  0  0  0  0
    7.4901  -14.4987   25.1427 N   0  0  0  0  0  0  0  0  0  0  0  0
    8.4448  -14.4987   27.3120 C   0  0  0  0  0  0  0  0  0  0  0  0
    9.3336  -14.0090   28.2485 O   0  0  0  0  0  0  0  0  0  0  0  0
    8.0077  -15.6642   27.4814 O   0  0  0  0  0  0  0  0  0  0  0  0
  1  2  1  0
  3  2  1  0
  4  3  1  0
  5  4  1  0
  5  6  1  1
  5  1  1  0
  6 10  1  0
  7  6  2  0
  9 11  1  0
  9 10  1  0
  9  8  1  1
 11 17  1  0
 12 11  2  0
 14 13  1  6
 14 15  1  0
 16 14  1  0
 16 17  1  6
 18 16  1  0
 19 18  1  0
 20 18  2  0
M  END
$$$$
