PAV.pdb
     RDKit          3D

 20 20  0  0  1  0  0  0  0  0999 V2000
    8.6215  -15.0098   19.0374 N   0  0  0  0  0  0  0  0  0  0  0  0
    8.2033  -14.7679   17.6825 C   0  0  0  0  0  0  0  0  0  0  0  0
    8.1414  -13.2417   17.5365 C   0  0  0  0  0  0  0  0  0  0  0  0
    7.6346  -12.8689   18.9361 C   0  0  0  0  0  0  0  0  0  0  0  0
    8.4700  -13.8062   19.7851 C   0  0  1  0  0  0  0  0  0  0  0  0
    7.8807  -14.0056   21.1232 C   0  0  0  0  0  0  0  0  0  0  0  0
    7.5425  -13.0645   21.8689 O   0  0  0  0  0  0  0  0  0  0  0  0
    6.9224  -17.1206   23.0740 C   0  0  0  0  0  0  0  0  0  0  0  0
    7.0933  -15.6209   22.8846 C   0  0  2  0  0  0  0  0  0  0  0  0
    7.6849  -15.3261   21.5943 N   0  0  0  0  0  0  0  0  0  0  0  0
    7.8761  -15.0427   23.9976 C   0  0  0  0  0  0  0  0  0  0  0  0
    9.1277  -15.0243   23.8923 O   0  0  0  0  0  0  0  0  0  0  0  0
    7.2705  -11.5693   25.7635 C   0  0  0  0  0  0  0  0  0  0  0  0
    7.3434  -12.6724   26.7926 C   0  0  1  0  0  0  0  0  0  0  0  0
    5.9888  -12.9973   27.3261 C   0  0  0  0  0  0  0  0  0  0  0  0
    8.0573  -13.8878   26.2374 C   0  0  2  0  0  0  0  0  0  0  0  0
    7.3003  -14.5100   25.1719 N   0  0  0  0  0  0  0  0  0  0  0  0
    8.3144  -14.9010   27.2782 C   0  0  0  0  0  0  0  0  0  0  0  0
    9.2983  -14.6725   28.2198 O   0  0  0  0  0  0  0  0  0  0  0  0
    7.6761  -15.9801   27.3567 O   0  0  0  0  0  0  0  0  0  0  0  0
  1  2  1  0
  3  2  1  0
  4  3  1  0
  5  4  1  0
  5  6  1  1
  5  1  1  0
  6 10  1  0
  7  6  2  0
  9 11  1  0
  9 10  1  0
  9  8  1  1
 11 17  1  0
 12 11  2  0
 14 13  1  6
 14 15  1  0
 16 14  1  0
 16 17  1  6
 18 16  1  0
 19 18  1  0
 20 18  2  0
M  END
$$$$
