PAV.pdb
     RDKit          3D

 20 20  0  0  1  0  0  0  0  0999 V2000
    8.7247  -15.0237   19.0969 N   0  0  0  0  0  0  0  0  0  0  0  0
    8.3104  -14.7925   17.7389 C   0  0  0  0  0  0  0  0  0  0  0  0
    8.1790  -13.2699   17.6016 C   0  0  0  0  0  0  0  0  0  0  0  0
    7.6402  -12.9305   18.9978 C   0  0  0  0  0  0  0  0  0  0  0  0
    8.5092  -13.8335   19.8503 C   0  0  1  0  0  0  0  0  0  0  0  0
    7.9153  -14.0689   21.1804 C   0  0  0  0  0  0  0  0  0  0  0  0
    7.5477  -13.1487   21.9382 O   0  0  0  0  0  0  0  0  0  0  0  0
    7.0917  -17.2377   23.1077 C   0  0  0  0  0  0  0  0  0  0  0  0
    7.1884  -15.7306   22.9247 C   0  0  2  0  0  0  0  0  0  0  0  0
    7.7497  -15.4014   21.6292 N   0  0  0  0  0  0  0  0  0  0  0  0
    7.9559  -15.1212   24.0316 C   0  0  0  0  0  0  0  0  0  0  0  0
    9.2096  -15.1259   23.9537 O   0  0  0  0  0  0  0  0  0  0  0  0
    7.1435  -11.5887   25.6216 C   0  0  0  0  0  0  0  0  0  0  0  0
    7.3240  -12.6243   26.7061 C   0  0  1  0  0  0  0  0  0  0  0  0
    6.0124  -13.0061   27.3054 C   0  0  0  0  0  0  0  0  0  0  0  0
    8.0996  -13.8200   26.1926 C   0  0  2  0  0  0  0  0  0  0  0  0
    7.3633  -14.5341   25.1711 N   0  0  0  0  0  0  0  0  0  0  0  0
    8.4338  -14.7672   27.2728 C   0  0  0  0  0  0  0  0  0  0  0  0
    9.4329  -14.4476   28.1710 O   0  0  0  0  0  0  0  0  0  0  0  0
    7.8491  -15.8687   27.4237 O   0  0  0  0  0  0  0  0  0  0  0  0
  1  2  1  0
  3  2  1  0
  4  3  1  0
  5  4  1  0
  5  6  1  1
  5  1  1  0
  6 10  1  0
  7  6  2  0
  9 11  1  0
  9 10  1  0
  9  8  1  1
 11 17  1  0
 12 11  2  0
 14 13  1  6
 14 15  1  0
 16 14  1  0
 16 17  1  6
 18 16  1  0
 19 18  1  0
 20 18  2  0
M  END
$$$$
