PAV.pdb
     RDKit          3D

 20 20  0  0  1  0  0  0  0  0999 V2000
    8.3151  -15.1625   19.5553 N   0  0  0  0  0  0  0  0  0  0  0  0
    7.6561  -14.6842   18.3695 C   0  0  0  0  0  0  0  0  0  0  0  0
    7.7003  -13.1533   18.4624 C   0  0  0  0  0  0  0  0  0  0  0  0
    7.5197  -12.9814   19.9766 C   0  0  0  0  0  0  0  0  0  0  0  0
    8.4232  -14.0875   20.4843 C   0  0  1  0  0  0  0  0  0  0  0  0
    8.0995  -14.4650   21.8736 C   0  0  0  0  0  0  0  0  0  0  0  0
    7.7277  -13.6446   22.7365 O   0  0  0  0  0  0  0  0  0  0  0  0
    7.6654  -17.8071   23.5817 C   0  0  0  0  0  0  0  0  0  0  0  0
    7.8595  -16.2984   23.5804 C   0  0  2  0  0  0  0  0  0  0  0  0
    8.2131  -15.8230   22.2573 N   0  0  0  0  0  0  0  0  0  0  0  0
    8.8580  -15.9022   24.5962 C   0  0  0  0  0  0  0  0  0  0  0  0
   10.0637  -15.8448   24.2482 O   0  0  0  0  0  0  0  0  0  0  0  0
    9.9049  -13.4472   28.7381 C   0  0  0  0  0  0  0  0  0  0  0  0
    8.8981  -13.9675   27.7397 C   0  0  1  0  0  0  0  0  0  0  0  0
    8.3436  -12.8582   26.9109 C   0  0  0  0  0  0  0  0  0  0  0  0
    9.4900  -15.0814   26.9006 C   0  0  2  0  0  0  0  0  0  0  0  0
    8.5370  -15.5847   25.9342 N   0  0  0  0  0  0  0  0  0  0  0  0
    9.9530  -16.2108   27.7288 C   0  0  0  0  0  0  0  0  0  0  0  0
   11.2112  -16.1657   28.2961 O   0  0  0  0  0  0  0  0  0  0  0  0
    9.2532  -17.2301   27.9506 O   0  0  0  0  0  0  0  0  0  0  0  0
  1  2  1  0
  3  2  1  0
  4  3  1  0
  5  4  1  0
  5  6  1  1
  5  1  1  0
  6 10  1  0
  7  6  2  0
  9 11  1  0
  9 10  1  0
  9  8  1  6
 11 17  1  0
 12 11  2  0
 14 13  1  1
 14 15  1  0
 16 14  1  0
 16 17  1  6
 18 16  1  0
 19 18  1  0
 20 18  2  0
M  END
$$$$
