PAV.pdb
     RDKit          3D

 20 20  0  0  1  0  0  0  0  0999 V2000
    8.9438  -15.1327   19.0190 N   0  0  0  0  0  0  0  0  0  0  0  0
    8.4964  -14.9843   17.6599 C   0  0  0  0  0  0  0  0  0  0  0  0
    8.1159  -13.5054   17.5105 C   0  0  0  0  0  0  0  0  0  0  0  0
    7.5291  -13.2478   18.9048 C   0  0  0  0  0  0  0  0  0  0  0  0
    8.5354  -13.9882   19.7631 C   0  0  1  0  0  0  0  0  0  0  0  0
    7.9891  -14.3072   21.0961 C   0  0  0  0  0  0  0  0  0  0  0  0
    7.4567  -13.4578   21.8385 O   0  0  0  0  0  0  0  0  0  0  0  0
    7.7418  -17.5456   23.0677 C   0  0  0  0  0  0  0  0  0  0  0  0
    7.5111  -16.0597   22.8374 C   0  0  2  0  0  0  0  0  0  0  0  0
    8.0675  -15.6403   21.5661 N   0  0  0  0  0  0  0  0  0  0  0  0
    8.0494  -15.2697   23.9651 C   0  0  0  0  0  0  0  0  0  0  0  0
    9.2816  -15.0256   23.9801 O   0  0  0  0  0  0  0  0  0  0  0  0
    7.2011  -12.0504   27.6496 C   0  0  0  0  0  0  0  0  0  0  0  0
    6.6594  -13.0013   26.6087 C   0  0  1  0  0  0  0  0  0  0  0  0
    5.9336  -12.2628   25.5349 C   0  0  0  0  0  0  0  0  0  0  0  0
    7.7561  -13.8927   26.0631 C   0  0  2  0  0  0  0  0  0  0  0  0
    7.2609  -14.7731   25.0262 N   0  0  0  0  0  0  0  0  0  0  0  0
    8.3735  -14.7181   27.1182 C   0  0  0  0  0  0  0  0  0  0  0  0
    9.3867  -14.1857   27.8909 O   0  0  0  0  0  0  0  0  0  0  0  0
    8.0222  -15.9002   27.3572 O   0  0  0  0  0  0  0  0  0  0  0  0
  1  2  1  0
  3  2  1  0
  4  3  1  0
  5  4  1  0
  5  6  1  1
  5  1  1  0
  6 10  1  0
  7  6  2  0
  9 11  1  0
  9 10  1  0
  9  8  1  1
 11 17  1  0
 12 11  2  0
 14 13  1  1
 14 15  1  0
 16 14  1  0
 16 17  1  6
 18 16  1  0
 19 18  1  0
 20 18  2  0
M  END
$$$$
