YGQ.pdb
     RDKit          3D

 26 26  0  0  1  0  0  0  0  0999 V2000
    8.0084  -12.4792   16.9623 O   0  0  0  0  0  0  0  0  0  0  0  0
    7.9575  -13.1800   18.1627 C   0  0  0  0  0  0  0  0  0  0  0  0
    8.8819  -14.1544   18.4750 C   0  0  0  0  0  0  0  0  0  0  0  0
    8.8104  -14.8356   19.6718 C   0  0  0  0  0  0  0  0  0  0  0  0
    7.8098  -14.5748   20.6150 C   0  0  0  0  0  0  0  0  0  0  0  0
    7.7946  -15.3311   21.8562 C   0  0  0  0  0  0  0  0  0  0  0  0
    7.4949  -16.7877   21.7765 C   0  0  2  0  0  0  0  0  0  0  0  0
    6.0976  -16.8456   21.2934 N   0  0  0  0  0  0  0  0  0  0  0  0
    7.6260  -17.4051   23.0939 C   0  0  0  0  0  0  0  0  0  0  0  0
    6.6619  -17.2426   23.9170 O   0  0  0  0  0  0  0  0  0  0  0  0
    6.8975  -13.5979   20.2821 C   0  0  0  0  0  0  0  0  0  0  0  0
    6.9687  -12.9180   19.0878 C   0  0  0  0  0  0  0  0  0  0  0  0
    8.7273  -18.1693   23.5372 N   0  0  0  0  0  0  0  0  0  0  0  0
    8.8792  -18.6665   24.8613 C   0  0  0  0  0  0  0  0  0  0  0  0
    9.6211  -17.7316   25.6980 C   0  0  0  0  0  0  0  0  0  0  0  0
   10.2353  -16.7515   25.1580 O   0  0  0  0  0  0  0  0  0  0  0  0
   11.4882  -12.9865   28.1290 N   0  0  0  0  0  0  0  0  0  0  0  0
   10.2613  -13.6798   28.3086 C   0  0  0  0  0  0  0  0  0  0  0  0
    9.2646  -13.3290   27.6510 O   0  0  0  0  0  0  0  0  0  0  0  0
   10.1844  -14.8142   29.2788 C   0  0  0  0  0  0  0  0  0  0  0  0
    9.5698  -15.9820   28.5739 C   0  0  0  0  0  0  0  0  0  0  0  0
   10.5382  -16.8671   27.8517 C   0  0  2  0  0  0  0  0  0  0  0  0
    9.7160  -17.8342   27.0940 N   0  0  0  0  0  0  0  0  0  0  0  0
   11.3503  -17.6203   28.8255 C   0  0  0  0  0  0  0  0  0  0  0  0
   12.4204  -16.9987   29.4415 O   0  0  0  0  0  0  0  0  0  0  0  0
   11.1032  -18.8129   29.1168 O   0  0  0  0  0  0  0  0  0  0  0  0
  2  1  1  0
  3  2  2  0
  4  3  1  0
  5  4  2  0
  5 11  1  0
  6  5  1  0
  7  6  1  0
  7  8  1  1
  9  7  1  0
  9 10  2  0
 11 12  2  0
 12  2  1  0
 13  9  1  0
 14 13  1  0
 15 14  1  0
 16 15  2  0
 17 18  1  0
 18 19  2  0
 18 20  1  0
 20 21  1  0
 22 21  1  1
 22 23  1  0
 22 24  1  0
 23 15  1  0
 24 25  1  0
 26 24  2  0
M  END
$$$$
