YGQ.pdb
     RDKit          3D

 26 26  0  0  1  0  0  0  0  0999 V2000
    5.9203  -11.4282   27.8492 O   0  0  0  0  0  0  0  0  0  0  0  0
    6.3267  -12.1250   26.7161 C   0  0  0  0  0  0  0  0  0  0  0  0
    5.7784  -13.3439   26.3770 C   0  0  0  0  0  0  0  0  0  0  0  0
    6.1981  -14.0157   25.2482 C   0  0  0  0  0  0  0  0  0  0  0  0
    7.1876  -13.5001   24.4033 C   0  0  0  0  0  0  0  0  0  0  0  0
    7.5818  -14.2621   23.2299 C   0  0  0  0  0  0  0  0  0  0  0  0
    8.2281  -15.5859   23.4482 C   0  0  2  0  0  0  0  0  0  0  0  0
    9.3934  -15.2842   24.3088 N   0  0  0  0  0  0  0  0  0  0  0  0
    8.6465  -16.1622   22.1729 C   0  0  0  0  0  0  0  0  0  0  0  0
    7.7295  -16.5952   21.3951 O   0  0  0  0  0  0  0  0  0  0  0  0
    7.7212  -12.2817   24.7613 C   0  0  0  0  0  0  0  0  0  0  0  0
    7.3024  -11.6111   25.8877 C   0  0  0  0  0  0  0  0  0  0  0  0
    9.9795  -16.2812   21.7230 N   0  0  0  0  0  0  0  0  0  0  0  0
   10.8317  -17.3814   22.0175 C   0  0  0  0  0  0  0  0  0  0  0  0
   11.5354  -17.1854   23.2789 C   0  0  0  0  0  0  0  0  0  0  0  0
   11.7196  -16.0025   23.7219 O   0  0  0  0  0  0  0  0  0  0  0  0
    6.5468  -17.7330   25.6757 N   0  0  0  0  0  0  0  0  0  0  0  0
    7.6891  -18.4913   25.3034 C   0  0  0  0  0  0  0  0  0  0  0  0
    7.5636  -19.4078   24.4709 O   0  0  0  0  0  0  0  0  0  0  0  0
    9.0180  -18.1801   25.9128 C   0  0  0  0  0  0  0  0  0  0  0  0
   10.0603  -18.9444   25.1593 C   0  0  0  0  0  0  0  0  0  0  0  0
   11.4697  -18.4988   25.3996 C   0  0  2  0  0  0  0  0  0  0  0  0
   12.0436  -18.2315   24.0637 N   0  0  0  0  0  0  0  0  0  0  0  0
   12.2417  -19.5922   26.0192 C   0  0  0  0  0  0  0  0  0  0  0  0
   13.1477  -20.3018   25.2532 O   0  0  0  0  0  0  0  0  0  0  0  0
   12.1047  -19.9034   27.2244 O   0  0  0  0  0  0  0  0  0  0  0  0
  2  1  1  0
  3  2  2  0
  4  3  1  0
  5  4  2  0
  5 11  1  0
  6  5  1  0
  7  6  1  0
  7  8  1  1
  9  7  1  0
  9 10  2  0
 11 12  2  0
 12  2  1  0
 13  9  1  0
 14 13  1  0
 15 14  1  0
 16 15  2  0
 17 18  1  0
 18 19  2  0
 18 20  1  0
 20 21  1  0
 22 21  1  6
 22 23  1  0
 22 24  1  0
 23 15  1  0
 24 25  1  0
 26 24  2  0
M  END
$$$$
