YGQ.pdb
     RDKit          3D

 26 26  0  0  1  0  0  0  0  0999 V2000
    6.2212  -12.6492   27.8595 O   0  0  0  0  0  0  0  0  0  0  0  0
    6.5921  -12.8859   26.5400 C   0  0  0  0  0  0  0  0  0  0  0  0
    6.1308  -13.9813   25.8409 C   0  0  0  0  0  0  0  0  0  0  0  0
    6.5130  -14.1944   24.5332 C   0  0  0  0  0  0  0  0  0  0  0  0
    7.3759  -13.3213   23.8610 C   0  0  0  0  0  0  0  0  0  0  0  0
    7.7372  -13.6073   22.4824 C   0  0  0  0  0  0  0  0  0  0  0  0
    7.6524  -15.0214   22.0229 C   0  0  2  0  0  0  0  0  0  0  0  0
    6.7338  -15.6633   22.9892 N   0  0  0  0  0  0  0  0  0  0  0  0
    8.9732  -15.6444   22.0534 C   0  0  0  0  0  0  0  0  0  0  0  0
    9.8803  -15.1343   21.3116 O   0  0  0  0  0  0  0  0  0  0  0  0
    7.8242  -12.2342   24.5785 C   0  0  0  0  0  0  0  0  0  0  0  0
    7.4429  -12.0214   25.8835 C   0  0  0  0  0  0  0  0  0  0  0  0
    9.3361  -16.7631   22.8347 N   0  0  0  0  0  0  0  0  0  0  0  0
   10.6160  -17.3830   22.8043 C   0  0  0  0  0  0  0  0  0  0  0  0
   11.4174  -17.0039   23.9614 C   0  0  0  0  0  0  0  0  0  0  0  0
   12.5049  -16.3575   23.7918 O   0  0  0  0  0  0  0  0  0  0  0  0
    9.8608  -13.1095   28.3217 N   0  0  0  0  0  0  0  0  0  0  0  0
   10.1703  -14.4960   28.3346 C   0  0  0  0  0  0  0  0  0  0  0  0
   10.0316  -15.1385   29.3914 O   0  0  0  0  0  0  0  0  0  0  0  0
   10.6551  -15.1603   27.0866 C   0  0  0  0  0  0  0  0  0  0  0  0
   11.3405  -16.4313   27.4780 C   0  0  0  0  0  0  0  0  0  0  0  0
   12.0655  -17.1277   26.3680 C   0  0  2  0  0  0  0  0  0  0  0  0
   11.0735  -17.3090   25.2869 N   0  0  0  0  0  0  0  0  0  0  0  0
   12.5036  -18.4628   26.8162 C   0  0  0  0  0  0  0  0  0  0  0  0
   13.6509  -18.5799   27.5783 O   0  0  0  0  0  0  0  0  0  0  0  0
   11.8681  -19.5028   26.5287 O   0  0  0  0  0  0  0  0  0  0  0  0
  2  1  1  0
  3  2  2  0
  4  3  1  0
  5  4  2  0
  5 11  1  0
  6  5  1  0
  7  6  1  0
  7  8  1  1
  9  7  1  0
  9 10  2  0
 11 12  2  0
 12  2  1  0
 13  9  1  0
 14 13  1  0
 15 14  1  0
 16 15  2  0
 17 18  1  0
 18 19  2  0
 18 20  1  0
 20 21  1  0
 22 21  1  1
 22 23  1  0
 22 24  1  0
 23 15  1  0
 24 25  1  0
 26 24  2  0
M  END
$$$$
