YGQ.pdb
     RDKit          3D

 26 26  0  0  1  0  0  0  0  0999 V2000
   11.4425  -14.0001   28.7871 O   0  0  0  0  0  0  0  0  0  0  0  0
   10.3039  -14.2400   28.0250 C   0  0  0  0  0  0  0  0  0  0  0  0
    9.8490  -13.3319   27.0925 C   0  0  0  0  0  0  0  0  0  0  0  0
    8.7173  -13.5925   26.3489 C   0  0  0  0  0  0  0  0  0  0  0  0
    7.9853  -14.7755   26.5025 C   0  0  0  0  0  0  0  0  0  0  0  0
    6.8016  -14.9849   25.6852 C   0  0  0  0  0  0  0  0  0  0  0  0
    6.8681  -16.0271   24.6234 C   0  0  2  0  0  0  0  0  0  0  0  0
    7.4927  -17.1893   25.2932 N   0  0  0  0  0  0  0  0  0  0  0  0
    7.6825  -15.5597   23.5046 C   0  0  0  0  0  0  0  0  0  0  0  0
    7.4626  -14.3775   23.0716 O   0  0  0  0  0  0  0  0  0  0  0  0
    8.4578  -15.6680   27.4393 C   0  0  0  0  0  0  0  0  0  0  0  0
    9.5872  -15.4079   28.1814 C   0  0  0  0  0  0  0  0  0  0  0  0
    8.6956  -16.3020   22.8593 N   0  0  0  0  0  0  0  0  0  0  0  0
    9.6066  -15.7614   21.9100 C   0  0  0  0  0  0  0  0  0  0  0  0
   10.9892  -16.0041   22.3027 C   0  0  0  0  0  0  0  0  0  0  0  0
   11.6721  -16.8933   21.6924 O   0  0  0  0  0  0  0  0  0  0  0  0
   11.1406  -19.0990   27.4391 N   0  0  0  0  0  0  0  0  0  0  0  0
   12.0761  -18.1672   26.9148 C   0  0  0  0  0  0  0  0  0  0  0  0
   12.5273  -17.2771   27.6585 O   0  0  0  0  0  0  0  0  0  0  0  0
   12.5033  -18.2678   25.4860 C   0  0  0  0  0  0  0  0  0  0  0  0
   11.7297  -17.2554   24.7019 C   0  0  0  0  0  0  0  0  0  0  0  0
   12.5110  -16.0495   24.2798 C   0  0  2  0  0  0  0  0  0  0  0  0
   11.6434  -15.3148   23.3348 N   0  0  0  0  0  0  0  0  0  0  0  0
   13.7256  -16.4682   23.5555 C   0  0  0  0  0  0  0  0  0  0  0  0
   14.7743  -15.5781   23.4179 O   0  0  0  0  0  0  0  0  0  0  0  0
   13.8420  -17.6108   23.0564 O   0  0  0  0  0  0  0  0  0  0  0  0
  2  1  1  0
  3  2  2  0
  4  3  1  0
  5  4  2  0
  5 11  1  0
  6  5  1  0
  7  6  1  0
  7  8  1  1
  9  7  1  0
  9 10  2  0
 11 12  2  0
 12  2  1  0
 13  9  1  0
 14 13  1  0
 15 14  1  0
 16 15  2  0
 17 18  1  0
 18 19  2  0
 18 20  1  0
 20 21  1  0
 22 21  1  6
 22 23  1  0
 22 24  1  0
 23 15  1  0
 24 25  1  0
 26 24  2  0
M  END
$$$$
