YGQ.pdb
     RDKit          3D

 26 26  0  0  1  0  0  0  0  0999 V2000
    5.7088  -10.8970   26.8740 O   0  0  0  0  0  0  0  0  0  0  0  0
    6.1003  -11.9977   26.1191 C   0  0  0  0  0  0  0  0  0  0  0  0
    7.0704  -11.9019   25.1438 C   0  0  0  0  0  0  0  0  0  0  0  0
    7.4415  -13.0077   24.4083 C   0  0  0  0  0  0  0  0  0  0  0  0
    6.8597  -14.2640   24.6132 C   0  0  0  0  0  0  0  0  0  0  0  0
    7.2992  -15.3869   23.8014 C   0  0  0  0  0  0  0  0  0  0  0  0
    7.8626  -16.5723   24.5053 C   0  0  2  0  0  0  0  0  0  0  0  0
    8.8808  -16.0042   25.4164 N   0  0  0  0  0  0  0  0  0  0  0  0
    8.4658  -17.4928   23.5449 C   0  0  0  0  0  0  0  0  0  0  0  0
    7.6779  -18.1186   22.7568 O   0  0  0  0  0  0  0  0  0  0  0  0
    5.8932  -14.3363   25.5921 C   0  0  0  0  0  0  0  0  0  0  0  0
    5.5227  -13.2329   26.3261 C   0  0  0  0  0  0  0  0  0  0  0  0
    9.8474  -17.7505   23.4100 N   0  0  0  0  0  0  0  0  0  0  0  0
   10.4828  -18.9571   23.8147 C   0  0  0  0  0  0  0  0  0  0  0  0
   11.2360  -18.7728   25.0489 C   0  0  0  0  0  0  0  0  0  0  0  0
   12.4295  -19.2176   25.1326 O   0  0  0  0  0  0  0  0  0  0  0  0
   10.4587  -14.4112   29.1486 N   0  0  0  0  0  0  0  0  0  0  0  0
   10.8111  -14.3231   27.7751 C   0  0  0  0  0  0  0  0  0  0  0  0
   10.7613  -13.2174   27.2060 O   0  0  0  0  0  0  0  0  0  0  0  0
   11.2344  -15.5518   27.0367 C   0  0  0  0  0  0  0  0  0  0  0  0
   11.2470  -16.6906   28.0070 C   0  0  0  0  0  0  0  0  0  0  0  0
   11.5558  -18.0284   27.4092 C   0  0  2  0  0  0  0  0  0  0  0  0
   10.7300  -18.1266   26.1869 N   0  0  0  0  0  0  0  0  0  0  0  0
   11.1355  -19.0986   28.3330 C   0  0  0  0  0  0  0  0  0  0  0  0
   11.8597  -19.3197   29.4895 O   0  0  0  0  0  0  0  0  0  0  0  0
   10.1378  -19.8203   28.1053 O   0  0  0  0  0  0  0  0  0  0  0  0
  2  1  1  0
  3  2  2  0
  4  3  1  0
  5  4  2  0
  5 11  1  0
  6  5  1  0
  7  6  1  0
  7  8  1  1
  9  7  1  0
  9 10  2  0
 11 12  2  0
 12  2  1  0
 13  9  1  0
 14 13  1  0
 15 14  1  0
 16 15  2  0
 17 18  1  0
 18 19  2  0
 18 20  1  0
 20 21  1  0
 22 21  1  1
 22 23  1  0
 22 24  1  0
 23 15  1  0
 24 25  1  0
 26 24  2  0
M  END
$$$$
