YGQ.pdb
     RDKit          3D

 26 26  0  0  1  0  0  0  0  0999 V2000
    7.0362  -12.5066   17.0947 O   0  0  0  0  0  0  0  0  0  0  0  0
    7.4993  -13.2522   18.1737 C   0  0  0  0  0  0  0  0  0  0  0  0
    8.7465  -13.8403   18.1686 C   0  0  0  0  0  0  0  0  0  0  0  0
    9.1833  -14.5750   19.2507 C   0  0  0  0  0  0  0  0  0  0  0  0
    8.3929  -14.7570   20.3913 C   0  0  0  0  0  0  0  0  0  0  0  0
    8.9168  -15.5437   21.4956 C   0  0  0  0  0  0  0  0  0  0  0  0
    9.4547  -16.8979   21.1879 C   0  0  2  0  0  0  0  0  0  0  0  0
    8.3289  -17.5950   20.5276 N   0  0  0  0  0  0  0  0  0  0  0  0
    9.8503  -17.5779   22.4186 C   0  0  0  0  0  0  0  0  0  0  0  0
    8.9391  -18.1972   23.0662 O   0  0  0  0  0  0  0  0  0  0  0  0
    7.1513  -14.1607   20.3745 C   0  0  0  0  0  0  0  0  0  0  0  0
    6.7152  -13.4276   19.2946 C   0  0  0  0  0  0  0  0  0  0  0  0
   11.1559  -17.6122   22.9551 N   0  0  0  0  0  0  0  0  0  0  0  0
   11.5068  -18.2560   24.1740 C   0  0  0  0  0  0  0  0  0  0  0  0
   11.6040  -17.3007   25.2706 C   0  0  0  0  0  0  0  0  0  0  0  0
   12.1670  -16.1717   25.0763 O   0  0  0  0  0  0  0  0  0  0  0  0
    8.9851  -12.0718   28.1965 N   0  0  0  0  0  0  0  0  0  0  0  0
    8.9905  -13.4320   27.7862 C   0  0  0  0  0  0  0  0  0  0  0  0
    8.0861  -13.8428   27.0364 O   0  0  0  0  0  0  0  0  0  0  0  0
   10.0755  -14.3456   28.2575 C   0  0  0  0  0  0  0  0  0  0  0  0
   10.1369  -15.5097   27.3198 C   0  0  0  0  0  0  0  0  0  0  0  0
   11.2303  -16.4933   27.6020 C   0  0  2  0  0  0  0  0  0  0  0  0
   11.1132  -17.5387   26.5633 N   0  0  0  0  0  0  0  0  0  0  0  0
   11.0079  -17.1259   28.9156 C   0  0  0  0  0  0  0  0  0  0  0  0
   11.3546  -16.4417   30.0656 O   0  0  0  0  0  0  0  0  0  0  0  0
   10.5120  -18.2704   29.0275 O   0  0  0  0  0  0  0  0  0  0  0  0
  2  1  1  0
  3  2  2  0
  4  3  1  0
  5  4  2  0
  5 11  1  0
  6  5  1  0
  7  6  1  0
  7  8  1  1
  9  7  1  0
  9 10  2  0
 11 12  2  0
 12  2  1  0
 13  9  1  0
 14 13  1  0
 15 14  1  0
 16 15  2  0
 17 18  1  0
 18 19  2  0
 18 20  1  0
 20 21  1  0
 22 21  1  6
 22 23  1  0
 22 24  1  0
 23 15  1  0
 24 25  1  0
 26 24  2  0
M  END
$$$$
