YGQ.pdb
     RDKit          3D

 26 26  0  0  1  0  0  0  0  0999 V2000
    9.1556  -12.0829   19.3052 O   0  0  0  0  0  0  0  0  0  0  0  0
    8.3376  -13.0915   19.8034 C   0  0  0  0  0  0  0  0  0  0  0  0
    7.6402  -12.9448   20.9839 C   0  0  0  0  0  0  0  0  0  0  0  0
    6.8352  -13.9595   21.4573 C   0  0  0  0  0  0  0  0  0  0  0  0
    6.6889  -15.1710   20.7721 C   0  0  0  0  0  0  0  0  0  0  0  0
    5.8237  -16.1976   21.3292 C   0  0  0  0  0  0  0  0  0  0  0  0
    6.3803  -17.0643   22.4049 C   0  0  2  0  0  0  0  0  0  0  0  0
    6.0343  -16.3567   23.6575 N   0  0  0  0  0  0  0  0  0  0  0  0
    7.8271  -17.1951   22.2526 C   0  0  0  0  0  0  0  0  0  0  0  0
    8.2528  -17.9736   21.3328 O   0  0  0  0  0  0  0  0  0  0  0  0
    7.3946  -15.2955   19.5956 C   0  0  0  0  0  0  0  0  0  0  0  0
    8.1979  -14.2830   19.1231 C   0  0  0  0  0  0  0  0  0  0  0  0
    8.7987  -16.5330   23.0344 N   0  0  0  0  0  0  0  0  0  0  0  0
   10.2032  -16.6940   22.8760 C   0  0  0  0  0  0  0  0  0  0  0  0
   10.8504  -16.9922   24.1475 C   0  0  0  0  0  0  0  0  0  0  0  0
   11.2164  -18.1878   24.4045 O   0  0  0  0  0  0  0  0  0  0  0  0
   10.4145  -13.9944   29.5182 N   0  0  0  0  0  0  0  0  0  0  0  0
    9.4577  -14.1995   28.4882 C   0  0  0  0  0  0  0  0  0  0  0  0
    8.3408  -13.6586   28.5816 O   0  0  0  0  0  0  0  0  0  0  0  0
    9.8033  -15.0568   27.3136 C   0  0  0  0  0  0  0  0  0  0  0  0
   11.2402  -15.4537   27.4401 C   0  0  0  0  0  0  0  0  0  0  0  0
   11.7152  -16.4454   26.4235 C   0  0  2  0  0  0  0  0  0  0  0  0
   11.1051  -16.0349   25.1410 N   0  0  0  0  0  0  0  0  0  0  0  0
   11.2104  -17.7895   26.7613 C   0  0  0  0  0  0  0  0  0  0  0  0
   10.1944  -18.3426   26.0044 O   0  0  0  0  0  0  0  0  0  0  0  0
   11.6730  -18.4531   27.7171 O   0  0  0  0  0  0  0  0  0  0  0  0
  2  1  1  0
  3  2  2  0
  4  3  1  0
  5  4  2  0
  5 11  1  0
  6  5  1  0
  7  6  1  0
  7  8  1  1
  9  7  1  0
  9 10  2  0
 11 12  2  0
 12  2  1  0
 13  9  1  0
 14 13  1  0
 15 14  1  0
 16 15  2  0
 17 18  1  0
 18 19  2  0
 18 20  1  0
 20 21  1  0
 22 21  1  1
 22 23  1  0
 22 24  1  0
 23 15  1  0
 24 25  1  0
 26 24  2  0
M  END
$$$$
