YGQ.pdb
     RDKit          3D

 26 26  0  0  1  0  0  0  0  0999 V2000
   10.4952  -19.4429   30.5314 O   0  0  0  0  0  0  0  0  0  0  0  0
    9.7352  -19.4985   29.3678 C   0  0  0  0  0  0  0  0  0  0  0  0
   10.0825  -18.7877   28.2384 C   0  0  0  0  0  0  0  0  0  0  0  0
    9.3127  -18.8591   27.0965 C   0  0  0  0  0  0  0  0  0  0  0  0
    8.1572  -19.6459   27.0292 C   0  0  0  0  0  0  0  0  0  0  0  0
    7.3931  -19.6744   25.7930 C   0  0  0  0  0  0  0  0  0  0  0  0
    7.3442  -18.4278   24.9796 C   0  0  2  0  0  0  0  0  0  0  0  0
    6.4910  -17.5119   25.7686 N   0  0  0  0  0  0  0  0  0  0  0  0
    6.7589  -18.7001   23.6693 C   0  0  0  0  0  0  0  0  0  0  0  0
    7.3412  -19.5693   22.9352 O   0  0  0  0  0  0  0  0  0  0  0  0
    7.8294  -20.3471   28.1686 C   0  0  0  0  0  0  0  0  0  0  0  0
    8.5975  -20.2759   29.3082 C   0  0  0  0  0  0  0  0  0  0  0  0
    5.6017  -18.0861   23.1427 N   0  0  0  0  0  0  0  0  0  0  0  0
    5.5645  -17.3546   21.9233 C   0  0  0  0  0  0  0  0  0  0  0  0
    6.4412  -16.1913   21.9748 C   0  0  0  0  0  0  0  0  0  0  0  0
    6.8419  -15.6541   20.8883 O   0  0  0  0  0  0  0  0  0  0  0  0
    6.2517  -11.6231   25.7383 N   0  0  0  0  0  0  0  0  0  0  0  0
    6.7932  -12.7773   26.3652 C   0  0  0  0  0  0  0  0  0  0  0  0
    6.7999  -12.8456   27.6078 O   0  0  0  0  0  0  0  0  0  0  0  0
    7.3442  -13.8870   25.5291 C   0  0  0  0  0  0  0  0  0  0  0  0
    7.2917  -13.4547   24.0978 C   0  0  0  0  0  0  0  0  0  0  0  0
    7.8214  -14.4529   23.1150 C   0  0  2  0  0  0  0  0  0  0  0  0
    6.8936  -15.6028   23.1653 N   0  0  0  0  0  0  0  0  0  0  0  0
    9.1530  -14.9198   23.5440 C   0  0  0  0  0  0  0  0  0  0  0  0
    9.2890  -16.1900   24.0722 O   0  0  0  0  0  0  0  0  0  0  0  0
   10.1736  -14.2007   23.4461 O   0  0  0  0  0  0  0  0  0  0  0  0
  2  1  1  0
  3  2  2  0
  4  3  1  0
  5  4  2  0
  5 11  1  0
  6  5  1  0
  7  6  1  0
  7  8  1  1
  9  7  1  0
  9 10  2  0
 11 12  2  0
 12  2  1  0
 13  9  1  0
 14 13  1  0
 15 14  1  0
 16 15  2  0
 17 18  1  0
 18 19  2  0
 18 20  1  0
 20 21  1  0
 22 21  1  1
 22 23  1  0
 22 24  1  0
 23 15  1  0
 24 25  1  0
 26 24  2  0
M  END
$$$$
