YGQ.pdb
     RDKit          3D

 26 26  0  0  1  0  0  0  0  0999 V2000
    7.5085  -12.1830   27.5148 O   0  0  0  0  0  0  0  0  0  0  0  0
    7.2934  -12.8395   26.3076 C   0  0  0  0  0  0  0  0  0  0  0  0
    6.4473  -13.9240   26.2109 C   0  0  0  0  0  0  0  0  0  0  0  0
    6.2503  -14.5584   25.0025 C   0  0  0  0  0  0  0  0  0  0  0  0
    6.8907  -14.1381   23.8312 C   0  0  0  0  0  0  0  0  0  0  0  0
    6.6368  -14.8534   22.5915 C   0  0  0  0  0  0  0  0  0  0  0  0
    7.3590  -16.1372   22.3718 C   0  0  2  0  0  0  0  0  0  0  0  0
    7.0104  -16.9573   23.5531 N   0  0  0  0  0  0  0  0  0  0  0  0
    8.7987  -15.9024   22.2960 C   0  0  0  0  0  0  0  0  0  0  0  0
    9.2153  -15.0940   21.3981 O   0  0  0  0  0  0  0  0  0  0  0  0
    7.7311  -13.0532   23.9511 C   0  0  0  0  0  0  0  0  0  0  0  0
    7.9278  -12.4201   25.1570 C   0  0  0  0  0  0  0  0  0  0  0  0
    9.7723  -16.4912   23.1320 N   0  0  0  0  0  0  0  0  0  0  0  0
   11.1651  -16.2100   23.0647 C   0  0  0  0  0  0  0  0  0  0  0  0
   11.8942  -16.8782   24.1354 C   0  0  0  0  0  0  0  0  0  0  0  0
   11.9127  -18.1535   24.1864 O   0  0  0  0  0  0  0  0  0  0  0  0
   10.8731  -14.4963   30.0468 N   0  0  0  0  0  0  0  0  0  0  0  0
   10.3534  -14.6527   28.7338 C   0  0  0  0  0  0  0  0  0  0  0  0
    9.9529  -13.6490   28.1166 O   0  0  0  0  0  0  0  0  0  0  0  0
   10.2950  -16.0122   28.1154 C   0  0  0  0  0  0  0  0  0  0  0  0
   10.8479  -15.9114   26.7289 C   0  0  0  0  0  0  0  0  0  0  0  0
   12.2440  -16.4278   26.5647 C   0  0  2  0  0  0  0  0  0  0  0  0
   12.5951  -16.2034   25.1463 N   0  0  0  0  0  0  0  0  0  0  0  0
   12.2738  -17.8802   26.8197 C   0  0  0  0  0  0  0  0  0  0  0  0
   12.5523  -18.7461   25.7788 O   0  0  0  0  0  0  0  0  0  0  0  0
   12.0540  -18.3611   27.9548 O   0  0  0  0  0  0  0  0  0  0  0  0
  2  1  1  0
  3  2  2  0
  4  3  1  0
  5  4  2  0
  5 11  1  0
  6  5  1  0
  7  6  1  0
  7  8  1  1
  9  7  1  0
  9 10  2  0
 11 12  2  0
 12  2  1  0
 13  9  1  0
 14 13  1  0
 15 14  1  0
 16 15  2  0
 17 18  1  0
 18 19  2  0
 18 20  1  0
 20 21  1  0
 22 21  1  6
 22 23  1  0
 22 24  1  0
 23 15  1  0
 24 25  1  0
 26 24  2  0
M  END
$$$$
