TQD.pdb
     RDKit          3D

 25 24  0  0  1  0  0  0  0  0999 V2000
    6.9839  -14.6809   17.7919 C   0  0  0  0  0  0  0  0  0  0  0  0
    7.5360  -14.7964   19.1753 C   0  0  1  0  0  0  0  0  0  0  0  0
    8.8949  -15.1326   19.0563 O   0  0  0  0  0  0  0  0  0  0  0  0
    7.5107  -13.4618   19.8944 C   0  0  2  0  0  0  0  0  0  0  0  0
    8.4542  -12.6194   19.1136 N   0  0  0  0  0  0  0  0  0  0  0  0
    8.1017  -13.5429   21.2474 C   0  0  0  0  0  0  0  0  0  0  0  0
    9.3358  -13.2465   21.4236 O   0  0  0  0  0  0  0  0  0  0  0  0
    5.3310  -12.3903   26.3745 N   0  0  0  0  0  0  0  0  0  0  0  0
    6.5809  -12.7099   26.9627 C   0  0  0  0  0  0  0  0  0  0  0  0
    6.7962  -12.4819   28.1671 O   0  0  0  0  0  0  0  0  0  0  0  0
    7.6420  -13.3278   26.1118 C   0  0  0  0  0  0  0  0  0  0  0  0
    7.1295  -13.3979   24.7109 C   0  0  0  0  0  0  0  0  0  0  0  0
    8.1095  -14.0102   23.7209 C   0  0  2  0  0  0  0  0  0  0  0  0
    7.4248  -13.9266   22.4296 N   0  0  0  0  0  0  0  0  0  0  0  0
    8.5521  -15.3542   24.0703 C   0  0  0  0  0  0  0  0  0  0  0  0
    7.8041  -16.3788   23.9661 O   0  0  0  0  0  0  0  0  0  0  0  0
    9.8707  -15.5657   24.5508 N   0  0  0  0  0  0  0  0  0  0  0  0
   10.3232  -16.8828   24.9835 C   0  0  1  0  0  0  0  0  0  0  0  0
   11.8243  -16.9760   24.8580 C   0  0  0  0  0  0  0  0  0  0  0  0
   12.2699  -16.8971   23.4465 C   0  0  0  0  0  0  0  0  0  0  0  0
   13.3200  -16.3041   23.0925 O   0  0  0  0  0  0  0  0  0  0  0  0
    9.9195  -17.0736   26.4021 C   0  0  0  0  0  0  0  0  0  0  0  0
   10.0565  -18.1735   26.9955 O   0  0  0  0  0  0  0  0  0  0  0  0
   11.4840  -17.5082   22.4874 O   0  0  0  0  0  0  0  0  0  0  0  0
    9.3696  -16.0280   27.1295 O   0  0  0  0  0  0  0  0  0  0  0  0
  2  1  1  6
  3  2  1  0
  4  6  1  0
  4  2  1  0
  4  5  1  6
  6 14  1  0
  6  7  2  0
  9 10  2  0
  9  8  1  0
 11  9  1  0
 12 11  1  0
 13 12  1  1
 14 13  1  0
 15 17  1  0
 15 13  1  0
 16 15  2  0
 18 22  1  0
 18 17  1  0
 18 19  1  1
 19 20  1  0
 20 24  1  0
 21 20  2  0
 22 25  1  0
 23 22  2  0
M  END
$$$$
