TQD.pdb
     RDKit          3D

 25 24  0  0  1  0  0  0  0  0999 V2000
    6.9352  -14.2828   17.7533 C   0  0  0  0  0  0  0  0  0  0  0  0
    7.5434  -14.5505   19.0913 C   0  0  1  0  0  0  0  0  0  0  0  0
    8.8749  -14.9427   18.8744 O   0  0  0  0  0  0  0  0  0  0  0  0
    7.6244  -13.2867   19.9251 C   0  0  2  0  0  0  0  0  0  0  0  0
    8.6487  -12.4658   19.2278 N   0  0  0  0  0  0  0  0  0  0  0  0
    8.1869  -13.5374   21.2694 C   0  0  0  0  0  0  0  0  0  0  0  0
    9.4395  -13.3671   21.4791 O   0  0  0  0  0  0  0  0  0  0  0  0
    5.7617  -12.0714   26.3547 N   0  0  0  0  0  0  0  0  0  0  0  0
    6.7429  -12.8927   26.9655 C   0  0  0  0  0  0  0  0  0  0  0  0
    7.0394  -12.7477   28.1655 O   0  0  0  0  0  0  0  0  0  0  0  0
    7.4200  -13.9407   26.1438 C   0  0  0  0  0  0  0  0  0  0  0  0
    7.0273  -13.7360   24.7176 C   0  0  0  0  0  0  0  0  0  0  0  0
    8.1025  -14.1284   23.7149 C   0  0  2  0  0  0  0  0  0  0  0  0
    7.4626  -13.9620   22.4088 N   0  0  0  0  0  0  0  0  0  0  0  0
    8.6686  -15.4539   23.9322 C   0  0  0  0  0  0  0  0  0  0  0  0
    7.9747  -16.5199   23.8831 O   0  0  0  0  0  0  0  0  0  0  0  0
   10.0523  -15.5985   24.2126 N   0  0  0  0  0  0  0  0  0  0  0  0
   10.6274  -16.8898   24.5714 C   0  0  1  0  0  0  0  0  0  0  0  0
   12.1322  -16.7852   24.6195 C   0  0  0  0  0  0  0  0  0  0  0  0
   12.7089  -16.4557   23.2944 C   0  0  0  0  0  0  0  0  0  0  0  0
   12.3665  -17.0387   22.2348 O   0  0  0  0  0  0  0  0  0  0  0  0
   10.1027  -17.2808   25.9068 C   0  0  0  0  0  0  0  0  0  0  0  0
    9.8083  -18.4702   26.1890 O   0  0  0  0  0  0  0  0  0  0  0  0
   13.6658  -15.4596   23.2375 O   0  0  0  0  0  0  0  0  0  0  0  0
    9.9175  -16.3317   26.9016 O   0  0  0  0  0  0  0  0  0  0  0  0
  2  1  1  6
  3  2  1  0
  4  6  1  0
  4  2  1  0
  4  5  1  6
  6 14  1  0
  6  7  2  0
  9 10  2  0
  9  8  1  0
 11  9  1  0
 12 11  1  0
 13 12  1  1
 14 13  1  0
 15 17  1  0
 15 13  1  0
 16 15  2  0
 18 22  1  0
 18 17  1  0
 18 19  1  1
 19 20  1  0
 20 24  1  0
 21 20  2  0
 22 25  1  0
 23 22  2  0
M  END
$$$$
