TQD.pdb
     RDKit          3D

 25 24  0  0  1  0  0  0  0  0999 V2000
    8.9197  -12.6406   19.3286 C   0  0  0  0  0  0  0  0  0  0  0  0
    7.6325  -13.2506   19.7792 C   0  0  1  0  0  0  0  0  0  0  0  0
    6.8747  -13.5253   18.6286 O   0  0  0  0  0  0  0  0  0  0  0  0
    7.8599  -14.5941   20.4444 C   0  0  2  0  0  0  0  0  0  0  0  0
    6.4947  -15.0325   20.8359 N   0  0  0  0  0  0  0  0  0  0  0  0
    8.6008  -14.4705   21.7180 C   0  0  0  0  0  0  0  0  0  0  0  0
    9.8743  -14.3294   21.7044 O   0  0  0  0  0  0  0  0  0  0  0  0
    7.0714  -11.9791   26.8970 N   0  0  0  0  0  0  0  0  0  0  0  0
    6.1585  -12.8299   26.2238 C   0  0  0  0  0  0  0  0  0  0  0  0
    4.9351  -12.7501   26.4381 O   0  0  0  0  0  0  0  0  0  0  0  0
    6.6886  -13.8293   25.2480 C   0  0  0  0  0  0  0  0  0  0  0  0
    8.1786  -13.7283   25.2453 C   0  0  0  0  0  0  0  0  0  0  0  0
    8.8596  -14.6200   24.2175 C   0  0  2  0  0  0  0  0  0  0  0  0
    8.0350  -14.4878   23.0152 N   0  0  0  0  0  0  0  0  0  0  0  0
    9.0530  -15.9971   24.6542 C   0  0  0  0  0  0  0  0  0  0  0  0
    8.7795  -17.0011   23.9210 O   0  0  0  0  0  0  0  0  0  0  0  0
    9.5684  -16.2664   25.9488 N   0  0  0  0  0  0  0  0  0  0  0  0
   10.4598  -17.3938   26.1961 C   0  0  1  0  0  0  0  0  0  0  0  0
   11.7099  -17.2513   25.3626 C   0  0  0  0  0  0  0  0  0  0  0  0
   11.8774  -18.3787   24.4149 C   0  0  0  0  0  0  0  0  0  0  0  0
   11.0169  -18.6788   23.5494 O   0  0  0  0  0  0  0  0  0  0  0  0
   10.8114  -17.4042   27.6410 C   0  0  0  0  0  0  0  0  0  0  0  0
   10.3584  -18.2677   28.4346 O   0  0  0  0  0  0  0  0  0  0  0  0
   13.0382  -19.1246   24.4994 O   0  0  0  0  0  0  0  0  0  0  0  0
   11.6644  -16.4464   28.1700 O   0  0  0  0  0  0  0  0  0  0  0  0
  2  1  1  6
  3  2  1  0
  4  6  1  0
  4  2  1  0
  4  5  1  1
  6 14  1  0
  6  7  2  0
  9 10  2  0
  9  8  1  0
 11  9  1  0
 12 11  1  0
 13 12  1  1
 14 13  1  0
 15 17  1  0
 15 13  1  0
 16 15  2  0
 18 22  1  0
 18 17  1  0
 18 19  1  6
 19 20  1  0
 20 24  1  0
 21 20  2  0
 22 25  1  0
 23 22  2  0
M  END
$$$$
