TQD.pdb
     RDKit          3D

 25 24  0  0  1  0  0  0  0  0999 V2000
    7.2707  -14.3283   17.9262 C   0  0  0  0  0  0  0  0  0  0  0  0
    7.6236  -14.5787   19.3562 C   0  0  1  0  0  0  0  0  0  0  0  0
    8.8446  -15.2735   19.3699 O   0  0  0  0  0  0  0  0  0  0  0  0
    7.8875  -13.2819   20.0962 C   0  0  2  0  0  0  0  0  0  0  0  0
    9.0523  -12.6961   19.3826 N   0  0  0  0  0  0  0  0  0  0  0  0
    8.3624  -13.5116   21.4775 C   0  0  0  0  0  0  0  0  0  0  0  0
    9.6109  -13.4122   21.7480 O   0  0  0  0  0  0  0  0  0  0  0  0
    5.7787  -11.7226   26.4162 N   0  0  0  0  0  0  0  0  0  0  0  0
    6.7275  -12.5262   27.0976 C   0  0  0  0  0  0  0  0  0  0  0  0
    6.8296  -12.4803   28.3371 O   0  0  0  0  0  0  0  0  0  0  0  0
    7.6082  -13.4339   26.3025 C   0  0  0  0  0  0  0  0  0  0  0  0
    7.3023  -13.2254   24.8557 C   0  0  0  0  0  0  0  0  0  0  0  0
    8.1261  -14.0927   23.9154 C   0  0  2  0  0  0  0  0  0  0  0  0
    7.5541  -13.8419   22.5914 N   0  0  0  0  0  0  0  0  0  0  0  0
    8.1690  -15.5022   24.2844 C   0  0  0  0  0  0  0  0  0  0  0  0
    7.4233  -16.0053   25.1850 O   0  0  0  0  0  0  0  0  0  0  0  0
    9.0704  -16.3812   23.6295 N   0  0  0  0  0  0  0  0  0  0  0  0
   10.2637  -16.8875   24.2977 C   0  0  1  0  0  0  0  0  0  0  0  0
   11.4428  -15.9993   23.9841 C   0  0  0  0  0  0  0  0  0  0  0  0
   12.2784  -16.5503   22.8908 C   0  0  0  0  0  0  0  0  0  0  0  0
   11.7976  -16.9782   21.8112 O   0  0  0  0  0  0  0  0  0  0  0  0
   10.0108  -16.8972   25.7632 C   0  0  0  0  0  0  0  0  0  0  0  0
    9.9322  -15.8383   26.4364 O   0  0  0  0  0  0  0  0  0  0  0  0
   13.6469  -16.5886   23.0821 O   0  0  0  0  0  0  0  0  0  0  0  0
    9.8508  -18.0935   26.4472 O   0  0  0  0  0  0  0  0  0  0  0  0
  2  1  1  6
  3  2  1  0
  4  6  1  0
  4  2  1  0
  4  5  1  6
  6 14  1  0
  6  7  2  0
  9 10  2  0
  9  8  1  0
 11  9  1  0
 12 11  1  0
 13 12  1  1
 14 13  1  0
 15 17  1  0
 15 13  1  0
 16 15  2  0
 18 22  1  0
 18 17  1  0
 18 19  1  1
 19 20  1  0
 20 24  1  0
 21 20  2  0
 22 25  1  0
 23 22  2  0
M  END
$$$$
