TQD.pdb
     RDKit          3D

 25 24  0  0  1  0  0  0  0  0999 V2000
    6.8824  -14.7372   17.8020 C   0  0  0  0  0  0  0  0  0  0  0  0
    7.5066  -14.8224   19.1567 C   0  0  1  0  0  0  0  0  0  0  0  0
    8.8555  -15.1701   18.9743 O   0  0  0  0  0  0  0  0  0  0  0  0
    7.5263  -13.4704   19.8429 C   0  0  2  0  0  0  0  0  0  0  0  0
    8.4578  -12.6636   19.0118 N   0  0  0  0  0  0  0  0  0  0  0  0
    8.1592  -13.5288   21.1779 C   0  0  0  0  0  0  0  0  0  0  0  0
    9.4240  -13.3584   21.2927 O   0  0  0  0  0  0  0  0  0  0  0  0
    5.6458  -12.1605   26.4481 N   0  0  0  0  0  0  0  0  0  0  0  0
    6.8593  -12.6451   26.9983 C   0  0  0  0  0  0  0  0  0  0  0  0
    7.1187  -12.4912   28.2058 O   0  0  0  0  0  0  0  0  0  0  0  0
    7.8280  -13.3470   26.1035 C   0  0  0  0  0  0  0  0  0  0  0  0
    7.3221  -13.2438   24.7021 C   0  0  0  0  0  0  0  0  0  0  0  0
    8.2227  -13.9012   23.6667 C   0  0  2  0  0  0  0  0  0  0  0  0
    7.4934  -13.7597   22.4053 N   0  0  0  0  0  0  0  0  0  0  0  0
    8.5963  -15.2740   23.9836 C   0  0  0  0  0  0  0  0  0  0  0  0
    7.8200  -16.2646   23.7934 O   0  0  0  0  0  0  0  0  0  0  0  0
    9.8761  -15.5542   24.5294 N   0  0  0  0  0  0  0  0  0  0  0  0
   10.2979  -16.9187   24.8242 C   0  0  1  0  0  0  0  0  0  0  0  0
   11.7949  -17.0366   24.6729 C   0  0  0  0  0  0  0  0  0  0  0  0
   12.2057  -17.1076   23.2505 C   0  0  0  0  0  0  0  0  0  0  0  0
   11.3837  -17.1033   22.2997 O   0  0  0  0  0  0  0  0  0  0  0  0
    9.9021  -17.2394   26.2214 C   0  0  0  0  0  0  0  0  0  0  0  0
    9.4587  -16.3658   27.0094 O   0  0  0  0  0  0  0  0  0  0  0  0
   13.5580  -17.1817   22.9731 O   0  0  0  0  0  0  0  0  0  0  0  0
   10.0104  -18.5334   26.7098 O   0  0  0  0  0  0  0  0  0  0  0  0
  2  1  1  6
  3  2  1  0
  4  6  1  0
  4  2  1  0
  4  5  1  6
  6 14  1  0
  6  7  2  0
  9 10  2  0
  9  8  1  0
 11  9  1  0
 12 11  1  0
 13 12  1  1
 14 13  1  0
 15 17  1  0
 15 13  1  0
 16 15  2  0
 18 22  1  0
 18 17  1  0
 18 19  1  1
 19 20  1  0
 20 24  1  0
 21 20  2  0
 22 25  1  0
 23 22  2  0
M  END
$$$$
