TQD.pdb
     RDKit          3D

 25 24  0  0  1  0  0  0  0  0999 V2000
    7.0305  -15.9727   19.3815 C   0  0  0  0  0  0  0  0  0  0  0  0
    7.7638  -14.7929   18.8318 C   0  0  1  0  0  0  0  0  0  0  0  0
    7.2019  -14.4984   17.5783 O   0  0  0  0  0  0  0  0  0  0  0  0
    7.5355  -13.5559   19.6784 C   0  0  2  0  0  0  0  0  0  0  0  0
    8.3267  -12.5028   18.9897 N   0  0  0  0  0  0  0  0  0  0  0  0
    8.1452  -13.6749   21.0202 C   0  0  0  0  0  0  0  0  0  0  0  0
    9.4202  -13.6547   21.1460 O   0  0  0  0  0  0  0  0  0  0  0  0
    5.3858  -12.4616   26.2717 N   0  0  0  0  0  0  0  0  0  0  0  0
    6.5827  -12.9516   26.8526 C   0  0  0  0  0  0  0  0  0  0  0  0
    6.7720  -12.8795   28.0806 O   0  0  0  0  0  0  0  0  0  0  0  0
    7.6196  -13.5592   25.9652 C   0  0  0  0  0  0  0  0  0  0  0  0
    7.1698  -13.3984   24.5503 C   0  0  0  0  0  0  0  0  0  0  0  0
    8.1437  -13.9546   23.5219 C   0  0  2  0  0  0  0  0  0  0  0  0
    7.4458  -13.8121   22.2430 N   0  0  0  0  0  0  0  0  0  0  0  0
    8.5981  -15.3113   23.8003 C   0  0  0  0  0  0  0  0  0  0  0  0
    7.8726  -16.3386   23.6044 O   0  0  0  0  0  0  0  0  0  0  0  0
    9.9029  -15.5326   24.3128 N   0  0  0  0  0  0  0  0  0  0  0  0
   10.4093  -16.8785   24.5558 C   0  0  1  0  0  0  0  0  0  0  0  0
   11.8827  -16.9376   24.2344 C   0  0  0  0  0  0  0  0  0  0  0  0
   12.4509  -18.2849   24.4779 C   0  0  0  0  0  0  0  0  0  0  0  0
   13.3272  -18.5107   25.3502 O   0  0  0  0  0  0  0  0  0  0  0  0
   10.1884  -17.2100   25.9886 C   0  0  0  0  0  0  0  0  0  0  0  0
   10.4395  -18.3484   26.4592 O   0  0  0  0  0  0  0  0  0  0  0  0
   11.9857  -19.3304   23.7024 O   0  0  0  0  0  0  0  0  0  0  0  0
    9.6902  -16.2593   26.8676 O   0  0  0  0  0  0  0  0  0  0  0  0
  2  1  1  1
  3  2  1  0
  4  6  1  0
  4  2  1  0
  4  5  1  6
  6 14  1  0
  6  7  2  0
  9 10  2  0
  9  8  1  0
 11  9  1  0
 12 11  1  0
 13 12  1  1
 14 13  1  0
 15 17  1  0
 15 13  1  0
 16 15  2  0
 18 22  1  0
 18 17  1  0
 18 19  1  1
 19 20  1  0
 20 24  1  0
 21 20  2  0
 22 25  1  0
 23 22  2  0
M  END
$$$$
