TQD.pdb
     RDKit          3D

 25 24  0  0  1  0  0  0  0  0999 V2000
    9.1305  -14.7750   25.9572 C   0  0  0  0  0  0  0  0  0  0  0  0
    8.4032  -16.0542   26.2155 C   0  0  1  0  0  0  0  0  0  0  0  0
    7.9089  -15.9961   27.5293 O   0  0  0  0  0  0  0  0  0  0  0  0
    7.1804  -16.1844   25.3284 C   0  0  2  0  0  0  0  0  0  0  0  0
    6.5428  -17.4470   25.7850 N   0  0  0  0  0  0  0  0  0  0  0  0
    7.5374  -16.4270   23.9142 C   0  0  0  0  0  0  0  0  0  0  0  0
    7.5696  -17.6249   23.4605 O   0  0  0  0  0  0  0  0  0  0  0  0
    7.7418  -12.1666   19.4813 N   0  0  0  0  0  0  0  0  0  0  0  0
    8.0056  -13.3126   18.6892 C   0  0  0  0  0  0  0  0  0  0  0  0
    7.8954  -13.2709   17.4502 O   0  0  0  0  0  0  0  0  0  0  0  0
    8.4201  -14.5781   19.3662 C   0  0  0  0  0  0  0  0  0  0  0  0
    7.9467  -14.5224   20.7815 C   0  0  0  0  0  0  0  0  0  0  0  0
    8.2383  -15.7819   21.5840 C   0  0  2  0  0  0  0  0  0  0  0  0
    7.8606  -15.4370   22.9557 N   0  0  0  0  0  0  0  0  0  0  0  0
    9.6043  -16.2729   21.4519 C   0  0  0  0  0  0  0  0  0  0  0  0
   10.0059  -16.9406   20.4454 O   0  0  0  0  0  0  0  0  0  0  0  0
   10.5552  -16.0120   22.4727 N   0  0  0  0  0  0  0  0  0  0  0  0
   11.9094  -16.5495   22.4096 C   0  0  1  0  0  0  0  0  0  0  0  0
   12.8869  -15.4416   22.1018 C   0  0  0  0  0  0  0  0  0  0  0  0
   13.2477  -15.4024   20.6646 C   0  0  0  0  0  0  0  0  0  0  0  0
   12.7795  -16.2061   19.8193 O   0  0  0  0  0  0  0  0  0  0  0  0
   12.2323  -17.1601   23.7267 C   0  0  0  0  0  0  0  0  0  0  0  0
   13.3080  -17.7773   23.9333 O   0  0  0  0  0  0  0  0  0  0  0  0
   14.1410  -14.4320   20.2506 O   0  0  0  0  0  0  0  0  0  0  0  0
   11.3436  -17.0676   24.7880 O   0  0  0  0  0  0  0  0  0  0  0  0
  2  1  1  6
  3  2  1  0
  4  6  1  0
  4  2  1  0
  4  5  1  1
  6 14  1  0
  6  7  2  0
  9 10  2  0
  9  8  1  0
 11  9  1  0
 12 11  1  0
 13 12  1  6
 14 13  1  0
 15 17  1  0
 15 13  1  0
 16 15  2  0
 18 22  1  0
 18 17  1  0
 18 19  1  1
 19 20  1  0
 20 24  1  0
 21 20  2  0
 22 25  1  0
 23 22  2  0
M  END
$$$$
