CLP.pdb
     RDKit          3D

 22 22  0  0  1  0  0  0  0  0999 V2000
    8.2861  -14.7546   20.1587 N   0  0  0  0  0  0  0  0  0  0  0  0
    7.4651  -15.1128   21.2954 C   0  0  1  0  0  0  0  0  0  0  0  0
    7.2881  -16.6191   21.3017 C   0  0  0  0  0  0  0  0  0  0  0  0
    8.8929  -17.4597   21.3304 S   0  0  0  0  0  0  0  0  0  0  0  0
    8.1858  -14.7405   22.5304 C   0  0  0  0  0  0  0  0  0  0  0  0
    9.4215  -14.5123   22.5014 O   0  0  0  0  0  0  0  0  0  0  0  0
    5.3403  -12.0479   26.5914 C   0  0  0  0  0  0  0  0  0  0  0  0
    6.4622  -12.3993   25.6368 C   0  0  1  0  0  0  0  0  0  0  0  0
    7.5534  -11.3657   25.9213 C   0  0  0  0  0  0  0  0  0  0  0  0
    6.9471  -13.7756   25.8451 C   0  0  0  0  0  0  0  0  0  0  0  0
    8.1391  -14.2151   25.0113 C   0  0  2  0  0  0  0  0  0  0  0  0
    7.4805  -14.6424   23.7422 N   0  0  0  0  0  0  0  0  0  0  0  0
    8.7249  -15.4361   25.5828 C   0  0  0  0  0  0  0  0  0  0  0  0
    8.2477  -16.5535   25.1709 O   0  0  0  0  0  0  0  0  0  0  0  0
    9.7669  -15.5155   26.5386 N   0  0  0  0  0  0  0  0  0  0  0  0
   10.3621  -14.5499   27.4186 C   0  0  0  0  0  0  0  0  0  0  0  0
   11.8375  -14.9424   27.5300 C   0  0  0  0  0  0  0  0  0  0  0  0
   11.9313  -16.2095   26.7360 C   0  0  0  0  0  0  0  0  0  0  0  0
   10.5242  -16.7525   26.8300 C   0  0  1  0  0  0  0  0  0  0  0  0
   10.2158  -17.2574   28.1681 C   0  0  0  0  0  0  0  0  0  0  0  0
    9.4501  -16.7293   29.0016 O   0  0  0  0  0  0  0  0  0  0  0  0
   10.8286  -18.4510   28.5785 O   0  0  0  0  0  0  0  0  0  0  0  0
  2  1  1  6
  2  5  1  0
  2  3  1  0
  4  3  1  0
  5  6  2  0
  8  7  1  1
  8 10  1  0
  9  8  1  0
 11 10  1  1
 12 11  1  0
 12  5  1  0
 13 14  2  0
 13 11  1  0
 15 13  1  0
 16 17  1  0
 16 15  1  0
 18 19  1  0
 18 17  1  0
 19 15  1  0
 19 20  1  1
 20 22  1  0
 21 20  2  0
M  END
$$$$
