CLP.pdb
     RDKit          3D

 22 22  0  0  1  0  0  0  0  0999 V2000
   10.4994  -16.1579   20.4091 N   0  0  0  0  0  0  0  0  0  0  0  0
    9.4381  -16.4239   21.3564 C   0  0  1  0  0  0  0  0  0  0  0  0
    9.5221  -17.8803   21.7718 C   0  0  0  0  0  0  0  0  0  0  0  0
   11.1759  -18.2823   22.3929 S   0  0  0  0  0  0  0  0  0  0  0  0
    9.6673  -15.5998   22.5611 C   0  0  0  0  0  0  0  0  0  0  0  0
   10.7943  -15.0863   22.7755 O   0  0  0  0  0  0  0  0  0  0  0  0
    7.3896  -11.7713   25.9149 C   0  0  0  0  0  0  0  0  0  0  0  0
    7.1217  -13.2470   26.1243 C   0  0  1  0  0  0  0  0  0  0  0  0
    5.6558  -13.3191   26.5558 C   0  0  0  0  0  0  0  0  0  0  0  0
    7.3681  -14.0273   24.8982 C   0  0  0  0  0  0  0  0  0  0  0  0
    8.7783  -14.5557   24.6948 C   0  0  2  0  0  0  0  0  0  0  0  0
    8.6152  -15.3919   23.4696 N   0  0  0  0  0  0  0  0  0  0  0  0
    9.1191  -15.4959   25.7721 C   0  0  0  0  0  0  0  0  0  0  0  0
    9.0437  -16.7460   25.4935 O   0  0  0  0  0  0  0  0  0  0  0  0
    9.5289  -15.1723   27.0886 N   0  0  0  0  0  0  0  0  0  0  0  0
    9.1292  -14.1496   28.0134 C   0  0  0  0  0  0  0  0  0  0  0  0
   10.3888  -13.7894   28.8051 C   0  0  0  0  0  0  0  0  0  0  0  0
   11.4188  -14.7502   28.2949 C   0  0  0  0  0  0  0  0  0  0  0  0
   10.5720  -15.9129   27.8315 C   0  0  1  0  0  0  0  0  0  0  0  0
    9.9950  -16.6563   28.9518 C   0  0  0  0  0  0  0  0  0  0  0  0
   10.6242  -17.3074   29.8121 O   0  0  0  0  0  0  0  0  0  0  0  0
    8.5993  -16.6523   29.0951 O   0  0  0  0  0  0  0  0  0  0  0  0
  2  1  1  6
  2  5  1  0
  2  3  1  0
  4  3  1  0
  5  6  2  0
  8  7  1  6
  8 10  1  0
  9  8  1  0
 11 10  1  1
 12 11  1  0
 12  5  1  0
 13 14  2  0
 13 11  1  0
 15 13  1  0
 16 17  1  0
 16 15  1  0
 18 19  1  0
 18 17  1  0
 19 15  1  0
 19 20  1  1
 20 22  1  0
 21 20  2  0
M  END
$$$$
