CLP.pdb
     RDKit          3D

 22 22  0  0  1  0  0  0  0  0999 V2000
    5.0114  -20.0798   24.8049 N   0  0  0  0  0  0  0  0  0  0  0  0
    6.0902  -19.3127   25.3897 C   0  0  1  0  0  0  0  0  0  0  0  0
    7.3987  -20.0143   25.0796 C   0  0  0  0  0  0  0  0  0  0  0  0
    8.7862  -19.1918   25.9048 S   0  0  0  0  0  0  0  0  0  0  0  0
    6.1278  -17.9859   24.7406 C   0  0  0  0  0  0  0  0  0  0  0  0
    5.8063  -17.8598   23.5320 O   0  0  0  0  0  0  0  0  0  0  0  0
    5.8507  -12.3832   26.0956 C   0  0  0  0  0  0  0  0  0  0  0  0
    7.1026  -13.1954   25.8380 C   0  0  1  0  0  0  0  0  0  0  0  0
    8.1482  -12.6112   26.7897 C   0  0  0  0  0  0  0  0  0  0  0  0
    6.8832  -14.6320   26.0845 C   0  0  0  0  0  0  0  0  0  0  0  0
    6.6727  -15.5118   24.8635 C   0  0  2  0  0  0  0  0  0  0  0  0
    6.5261  -16.8613   25.4836 N   0  0  0  0  0  0  0  0  0  0  0  0
    7.9105  -15.5728   24.0729 C   0  0  0  0  0  0  0  0  0  0  0  0
    8.7649  -16.4702   24.4055 O   0  0  0  0  0  0  0  0  0  0  0  0
    8.2631  -14.7496   22.9758 N   0  0  0  0  0  0  0  0  0  0  0  0
    7.9284  -13.4000   22.6188 C   0  0  0  0  0  0  0  0  0  0  0  0
    7.8671  -13.3773   21.0894 C   0  0  0  0  0  0  0  0  0  0  0  0
    8.2809  -14.7620   20.6944 C   0  0  0  0  0  0  0  0  0  0  0  0
    9.1364  -15.1879   21.8651 C   0  0  1  0  0  0  0  0  0  0  0  0
   10.4200  -14.4865   21.8944 C   0  0  0  0  0  0  0  0  0  0  0  0
   10.7637  -13.6029   22.7074 O   0  0  0  0  0  0  0  0  0  0  0  0
   11.3758  -14.8223   20.9236 O   0  0  0  0  0  0  0  0  0  0  0  0
  2  1  1  6
  2  5  1  0
  2  3  1  0
  4  3  1  0
  5  6  2  0
  8  7  1  1
  8 10  1  0
  9  8  1  0
 11 10  1  1
 12 11  1  0
 12  5  1  0
 13 14  2  0
 13 11  1  0
 15 13  1  0
 16 17  1  0
 16 15  1  0
 18 19  1  0
 18 17  1  0
 19 15  1  0
 19 20  1  6
 20 22  1  0
 21 20  2  0
M  END
$$$$
