CLP.pdb
     RDKit          3D

 22 22  0  0  1  0  0  0  0  0999 V2000
    9.1344  -15.6620   20.4434 N   0  0  0  0  0  0  0  0  0  0  0  0
    8.6851  -16.2739   21.6755 C   0  0  1  0  0  0  0  0  0  0  0  0
    9.4105  -17.5950   21.8456 C   0  0  0  0  0  0  0  0  0  0  0  0
    8.7005  -18.5529   23.2098 S   0  0  0  0  0  0  0  0  0  0  0  0
    9.0737  -15.4004   22.8020 C   0  0  0  0  0  0  0  0  0  0  0  0
   10.1804  -14.8045   22.7924 O   0  0  0  0  0  0  0  0  0  0  0  0
    5.4064  -12.5649   26.1252 C   0  0  0  0  0  0  0  0  0  0  0  0
    6.5995  -12.9349   25.2690 C   0  0  1  0  0  0  0  0  0  0  0  0
    7.5391  -11.7320   25.3703 C   0  0  0  0  0  0  0  0  0  0  0  0
    7.2467  -14.1734   25.7382 C   0  0  0  0  0  0  0  0  0  0  0  0
    8.5971  -14.5129   25.1298 C   0  0  2  0  0  0  0  0  0  0  0  0
    8.1969  -15.2381   23.8884 N   0  0  0  0  0  0  0  0  0  0  0  0
    9.2845  -15.5086   25.9646 C   0  0  0  0  0  0  0  0  0  0  0  0
    9.5093  -16.6536   25.4314 O   0  0  0  0  0  0  0  0  0  0  0  0
    9.7330  -15.3405   27.2974 N   0  0  0  0  0  0  0  0  0  0  0  0
    9.3650  -14.4310   28.3455 C   0  0  0  0  0  0  0  0  0  0  0  0
   10.6483  -14.1675   29.1372 C   0  0  0  0  0  0  0  0  0  0  0  0
   11.6583  -15.0649   28.4899 C   0  0  0  0  0  0  0  0  0  0  0  0
   10.7925  -16.1644   27.9195 C   0  0  1  0  0  0  0  0  0  0  0  0
   10.2434  -17.0313   28.9622 C   0  0  0  0  0  0  0  0  0  0  0  0
   10.8933  -17.7768   29.7250 O   0  0  0  0  0  0  0  0  0  0  0  0
    8.8520  -17.0439   29.1425 O   0  0  0  0  0  0  0  0  0  0  0  0
  2  1  1  6
  2  5  1  0
  2  3  1  0
  4  3  1  0
  5  6  2  0
  8  7  1  1
  8 10  1  0
  9  8  1  0
 11 10  1  1
 12 11  1  0
 12  5  1  0
 13 14  2  0
 13 11  1  0
 15 13  1  0
 16 17  1  0
 16 15  1  0
 18 19  1  0
 18 17  1  0
 19 15  1  0
 19 20  1  1
 20 22  1  0
 21 20  2  0
M  END
$$$$
