CLP.pdb
     RDKit          3D

 22 22  0  0  1  0  0  0  0  0999 V2000
    9.4481  -15.4105   20.3138 N   0  0  0  0  0  0  0  0  0  0  0  0
    8.9833  -16.1402   21.4739 C   0  0  1  0  0  0  0  0  0  0  0  0
    9.7622  -17.4384   21.5658 C   0  0  0  0  0  0  0  0  0  0  0  0
    8.7495  -18.7509   22.2969 S   0  0  0  0  0  0  0  0  0  0  0  0
    9.2906  -15.3462   22.6815 C   0  0  0  0  0  0  0  0  0  0  0  0
   10.3441  -14.6633   22.7426 O   0  0  0  0  0  0  0  0  0  0  0  0
    5.4160  -12.7886   26.0779 C   0  0  0  0  0  0  0  0  0  0  0  0
    6.5788  -13.1080   25.1619 C   0  0  1  0  0  0  0  0  0  0  0  0
    7.5201  -11.9096   25.2957 C   0  0  0  0  0  0  0  0  0  0  0  0
    7.2434  -14.3682   25.5402 C   0  0  0  0  0  0  0  0  0  0  0  0
    8.6530  -14.5834   25.0149 C   0  0  2  0  0  0  0  0  0  0  0  0
    8.3961  -15.3582   23.7656 N   0  0  0  0  0  0  0  0  0  0  0  0
    9.3827  -15.4984   25.9042 C   0  0  0  0  0  0  0  0  0  0  0  0
    9.7470  -16.6223   25.4039 O   0  0  0  0  0  0  0  0  0  0  0  0
    9.7345  -15.2729   27.2573 N   0  0  0  0  0  0  0  0  0  0  0  0
    9.1974  -14.4176   28.2776 C   0  0  0  0  0  0  0  0  0  0  0  0
   10.3923  -13.9901   29.1335 C   0  0  0  0  0  0  0  0  0  0  0  0
   11.5424  -14.7502   28.5471 C   0  0  0  0  0  0  0  0  0  0  0  0
   10.8569  -15.9526   27.9404 C   0  0  1  0  0  0  0  0  0  0  0  0
   10.3695  -16.8823   28.9595 C   0  0  0  0  0  0  0  0  0  0  0  0
   11.0680  -17.5297   29.7675 O   0  0  0  0  0  0  0  0  0  0  0  0
    8.9844  -17.0832   29.0586 O   0  0  0  0  0  0  0  0  0  0  0  0
  2  1  1  6
  2  5  1  0
  2  3  1  0
  4  3  1  0
  5  6  2  0
  8  7  1  1
  8 10  1  0
  9  8  1  0
 11 10  1  1
 12 11  1  0
 12  5  1  0
 13 14  2  0
 13 11  1  0
 15 13  1  0
 16 17  1  0
 16 15  1  0
 18 19  1  0
 18 17  1  0
 19 15  1  0
 19 20  1  1
 20 22  1  0
 21 20  2  0
M  END
$$$$
