CLP.pdb
     RDKit          3D

 22 22  0  0  1  0  0  0  0  0999 V2000
    9.2345  -15.6339   20.5178 N   0  0  0  0  0  0  0  0  0  0  0  0
    8.4366  -15.9738   21.6764 C   0  0  1  0  0  0  0  0  0  0  0  0
    8.7086  -17.4219   22.0361 C   0  0  0  0  0  0  0  0  0  0  0  0
   10.4881  -17.7297   22.1825 S   0  0  0  0  0  0  0  0  0  0  0  0
    8.8793  -15.1386   22.8120 C   0  0  0  0  0  0  0  0  0  0  0  0
    9.9882  -14.5481   22.7731 O   0  0  0  0  0  0  0  0  0  0  0  0
    5.4052  -12.3145   26.2604 C   0  0  0  0  0  0  0  0  0  0  0  0
    6.5871  -12.7031   25.3971 C   0  0  1  0  0  0  0  0  0  0  0  0
    7.5552  -11.5239   25.5091 C   0  0  0  0  0  0  0  0  0  0  0  0
    7.2060  -13.9616   25.8509 C   0  0  0  0  0  0  0  0  0  0  0  0
    8.5207  -14.3528   25.1968 C   0  0  2  0  0  0  0  0  0  0  0  0
    8.0515  -15.0071   23.9403 N   0  0  0  0  0  0  0  0  0  0  0  0
    9.1694  -15.4161   25.9773 C   0  0  0  0  0  0  0  0  0  0  0  0
    9.2473  -16.5721   25.4262 O   0  0  0  0  0  0  0  0  0  0  0  0
    9.7257  -15.3033   27.2749 N   0  0  0  0  0  0  0  0  0  0  0  0
    9.4260  -14.4598   28.3972 C   0  0  0  0  0  0  0  0  0  0  0  0
   10.7652  -14.1995   29.0913 C   0  0  0  0  0  0  0  0  0  0  0  0
   11.7384  -15.0326   28.3145 C   0  0  0  0  0  0  0  0  0  0  0  0
   10.8547  -16.1264   27.7609 C   0  0  1  0  0  0  0  0  0  0  0  0
   10.4183  -17.0612   28.7983 C   0  0  0  0  0  0  0  0  0  0  0  0
   11.1464  -17.8417   29.4469 O   0  0  0  0  0  0  0  0  0  0  0  0
    9.0518  -17.1037   29.1134 O   0  0  0  0  0  0  0  0  0  0  0  0
  2  1  1  6
  2  5  1  0
  2  3  1  0
  4  3  1  0
  5  6  2  0
  8  7  1  1
  8 10  1  0
  9  8  1  0
 11 10  1  1
 12 11  1  0
 12  5  1  0
 13 14  2  0
 13 11  1  0
 15 13  1  0
 16 17  1  0
 16 15  1  0
 18 19  1  0
 18 17  1  0
 19 15  1  0
 19 20  1  1
 20 22  1  0
 21 20  2  0
M  END
$$$$
