CLP.pdb
     RDKit          3D

 22 22  0  0  1  0  0  0  0  0999 V2000
    7.9864  -15.1671   19.4201 N   0  0  0  0  0  0  0  0  0  0  0  0
    7.2466  -15.5390   20.6070 C   0  0  1  0  0  0  0  0  0  0  0  0
    7.1541  -17.0521   20.6582 C   0  0  0  0  0  0  0  0  0  0  0  0
    5.4385  -17.5888   20.8847 S   0  0  0  0  0  0  0  0  0  0  0  0
    8.0085  -15.0957   21.7927 C   0  0  0  0  0  0  0  0  0  0  0  0
    9.2651  -15.1267   21.7894 O   0  0  0  0  0  0  0  0  0  0  0  0
    8.1951  -11.8454   26.3576 C   0  0  0  0  0  0  0  0  0  0  0  0
    7.2220  -13.0021   26.2658 C   0  0  1  0  0  0  0  0  0  0  0  0
    5.9564  -12.5023   26.9650 C   0  0  0  0  0  0  0  0  0  0  0  0
    6.9572  -13.3849   24.8672 C   0  0  0  0  0  0  0  0  0  0  0  0
    8.0303  -14.2009   24.1659 C   0  0  2  0  0  0  0  0  0  0  0  0
    7.3192  -14.6376   22.9287 N   0  0  0  0  0  0  0  0  0  0  0  0
    8.2962  -15.4320   24.9240 C   0  0  0  0  0  0  0  0  0  0  0  0
    7.3384  -16.2824   24.9994 O   0  0  0  0  0  0  0  0  0  0  0  0
    9.5007  -15.7870   25.5787 N   0  0  0  0  0  0  0  0  0  0  0  0
   10.6958  -15.0556   25.8913 C   0  0  0  0  0  0  0  0  0  0  0  0
   11.8400  -16.0680   25.7957 C   0  0  0  0  0  0  0  0  0  0  0  0
   11.1467  -17.3654   25.5117 C   0  0  0  0  0  0  0  0  0  0  0  0
    9.7795  -17.1376   26.1139 C   0  0  1  0  0  0  0  0  0  0  0  0
    9.8154  -17.1289   27.5765 C   0  0  0  0  0  0  0  0  0  0  0  0
    9.6916  -16.1295   28.3153 O   0  0  0  0  0  0  0  0  0  0  0  0
   10.0066  -18.3517   28.2375 O   0  0  0  0  0  0  0  0  0  0  0  0
  2  1  1  6
  2  5  1  0
  2  3  1  0
  4  3  1  0
  5  6  2  0
  8  7  1  6
  8 10  1  0
  9  8  1  0
 11 10  1  1
 12 11  1  0
 12  5  1  0
 13 14  2  0
 13 11  1  0
 15 13  1  0
 16 17  1  0
 16 15  1  0
 18 19  1  0
 18 17  1  0
 19 15  1  0
 19 20  1  1
 20 22  1  0
 21 20  2  0
M  END
$$$$
