CLP.pdb
     RDKit          3D

 22 22  0  0  1  0  0  0  0  0999 V2000
    9.2712  -15.7026   20.3230 N   0  0  0  0  0  0  0  0  0  0  0  0
    8.8354  -16.3214   21.5565 C   0  0  1  0  0  0  0  0  0  0  0  0
    9.6497  -17.5827   21.7724 C   0  0  0  0  0  0  0  0  0  0  0  0
    8.5764  -18.9855   22.1756 S   0  0  0  0  0  0  0  0  0  0  0  0
    9.1306  -15.4001   22.6732 C   0  0  0  0  0  0  0  0  0  0  0  0
   10.1636  -14.6843   22.6512 O   0  0  0  0  0  0  0  0  0  0  0  0
    5.3777  -12.6558   26.0302 C   0  0  0  0  0  0  0  0  0  0  0  0
    6.5643  -13.0010   25.1548 C   0  0  1  0  0  0  0  0  0  0  0  0
    7.5219  -11.8187   25.3134 C   0  0  0  0  0  0  0  0  0  0  0  0
    7.1934  -14.2705   25.5614 C   0  0  0  0  0  0  0  0  0  0  0  0
    8.5760  -14.5597   25.0012 C   0  0  2  0  0  0  0  0  0  0  0  0
    8.2476  -15.3275   23.7644 N   0  0  0  0  0  0  0  0  0  0  0  0
    9.2817  -15.5056   25.8775 C   0  0  0  0  0  0  0  0  0  0  0  0
    9.5881  -16.6440   25.3713 O   0  0  0  0  0  0  0  0  0  0  0  0
    9.6675  -15.2957   27.2239 N   0  0  0  0  0  0  0  0  0  0  0  0
    9.2182  -14.3856   28.2392 C   0  0  0  0  0  0  0  0  0  0  0  0
   10.4554  -14.0531   29.0769 C   0  0  0  0  0  0  0  0  0  0  0  0
   11.5287  -14.9163   28.4876 C   0  0  0  0  0  0  0  0  0  0  0  0
   10.7350  -16.0619   27.9034 C   0  0  1  0  0  0  0  0  0  0  0  0
   10.1813  -16.9343   28.9391 C   0  0  0  0  0  0  0  0  0  0  0  0
    8.9771  -17.0407   29.2530 O   0  0  0  0  0  0  0  0  0  0  0  0
   11.0708  -17.7407   29.6652 O   0  0  0  0  0  0  0  0  0  0  0  0
  2  1  1  6
  2  5  1  0
  2  3  1  0
  4  3  1  0
  5  6  2  0
  8  7  1  1
  8 10  1  0
  9  8  1  0
 11 10  1  1
 12 11  1  0
 12  5  1  0
 13 14  2  0
 13 11  1  0
 15 13  1  0
 16 17  1  0
 16 15  1  0
 18 19  1  0
 18 17  1  0
 19 15  1  0
 19 20  1  1
 20 22  1  0
 21 20  2  0
M  END
$$$$
