CLP.pdb
     RDKit          3D

 22 22  0  0  1  0  0  0  0  0999 V2000
   10.4747  -15.9057   20.3451 N   0  0  0  0  0  0  0  0  0  0  0  0
    9.4587  -16.2545   21.3150 C   0  0  1  0  0  0  0  0  0  0  0  0
    9.6027  -17.7267   21.6499 C   0  0  0  0  0  0  0  0  0  0  0  0
    9.0416  -18.7621   20.2730 S   0  0  0  0  0  0  0  0  0  0  0  0
    9.7082  -15.4864   22.5523 C   0  0  0  0  0  0  0  0  0  0  0  0
   10.8756  -15.1351   22.8584 O   0  0  0  0  0  0  0  0  0  0  0  0
    6.1252  -11.8737   25.8416 C   0  0  0  0  0  0  0  0  0  0  0  0
    7.2007  -12.9276   26.0023 C   0  0  1  0  0  0  0  0  0  0  0  0
    6.6439  -13.8957   27.0477 C   0  0  0  0  0  0  0  0  0  0  0  0
    7.4933  -13.6097   24.7287 C   0  0  0  0  0  0  0  0  0  0  0  0
    8.8138  -14.3563   24.6395 C   0  0  2  0  0  0  0  0  0  0  0  0
    8.6301  -15.1492   23.3887 N   0  0  0  0  0  0  0  0  0  0  0  0
    8.9027  -15.3445   25.7241 C   0  0  0  0  0  0  0  0  0  0  0  0
    8.4066  -16.5045   25.4910 O   0  0  0  0  0  0  0  0  0  0  0  0
    9.4832  -15.1580   27.0023 N   0  0  0  0  0  0  0  0  0  0  0  0
    9.3690  -14.1184   27.9857 C   0  0  0  0  0  0  0  0  0  0  0  0
   10.7401  -14.0319   28.6607 C   0  0  0  0  0  0  0  0  0  0  0  0
   11.5198  -15.1452   28.0306 C   0  0  0  0  0  0  0  0  0  0  0  0
   10.4302  -16.1099   27.6231 C   0  0  1  0  0  0  0  0  0  0  0  0
    9.8266  -16.7792   28.7756 C   0  0  0  0  0  0  0  0  0  0  0  0
    8.6540  -16.6413   29.1827 O   0  0  0  0  0  0  0  0  0  0  0  0
   10.6237  -17.6686   29.5120 O   0  0  0  0  0  0  0  0  0  0  0  0
  2  1  1  6
  2  5  1  0
  2  3  1  0
  4  3  1  0
  5  6  2  0
  8  7  1  6
  8 10  1  0
  9  8  1  0
 11 10  1  1
 12 11  1  0
 12  5  1  0
 13 14  2  0
 13 11  1  0
 15 13  1  0
 16 17  1  0
 16 15  1  0
 18 19  1  0
 18 17  1  0
 19 15  1  0
 19 20  1  1
 20 22  1  0
 21 20  2  0
M  END
$$$$
