CLP.pdb
     RDKit          3D

 22 22  0  0  1  0  0  0  0  0999 V2000
    7.3410  -14.6786   20.0450 N   0  0  0  0  0  0  0  0  0  0  0  0
    6.8373  -15.3321   21.2340 C   0  0  1  0  0  0  0  0  0  0  0  0
    6.8836  -16.8317   21.0114 C   0  0  0  0  0  0  0  0  0  0  0  0
    5.3694  -17.6231   21.6141 S   0  0  0  0  0  0  0  0  0  0  0  0
    7.7404  -15.0177   22.3603 C   0  0  0  0  0  0  0  0  0  0  0  0
    8.9805  -14.9288   22.1755 O   0  0  0  0  0  0  0  0  0  0  0  0
    5.7984  -11.9851   26.7129 C   0  0  0  0  0  0  0  0  0  0  0  0
    6.7630  -12.4699   25.6509 C   0  0  1  0  0  0  0  0  0  0  0  0
    8.0181  -11.6176   25.8469 C   0  0  0  0  0  0  0  0  0  0  0  0
    7.0533  -13.9082   25.7908 C   0  0  0  0  0  0  0  0  0  0  0  0
    8.0636  -14.5001   24.8222 C   0  0  2  0  0  0  0  0  0  0  0  0
    7.2044  -14.8176   23.6441 N   0  0  0  0  0  0  0  0  0  0  0  0
    8.5377  -15.7970   25.3262 C   0  0  0  0  0  0  0  0  0  0  0  0
    7.6898  -16.7599   25.3314 O   0  0  0  0  0  0  0  0  0  0  0  0
    9.8352  -16.1037   25.8039 N   0  0  0  0  0  0  0  0  0  0  0  0
   10.9955  -15.3003   26.0669 C   0  0  0  0  0  0  0  0  0  0  0  0
   12.1988  -16.1865   25.7358 C   0  0  0  0  0  0  0  0  0  0  0  0
   11.5844  -17.5067   25.3835 C   0  0  0  0  0  0  0  0  0  0  0  0
   10.2829  -17.4703   26.1507 C   0  0  1  0  0  0  0  0  0  0  0  0
   10.4884  -17.6086   27.5926 C   0  0  0  0  0  0  0  0  0  0  0  0
   10.9171  -18.6200   28.1869 O   0  0  0  0  0  0  0  0  0  0  0  0
   10.1807  -16.5102   28.4096 O   0  0  0  0  0  0  0  0  0  0  0  0
  2  1  1  6
  2  5  1  0
  2  3  1  0
  4  3  1  0
  5  6  2  0
  8  7  1  1
  8 10  1  0
  9  8  1  0
 11 10  1  1
 12 11  1  0
 12  5  1  0
 13 14  2  0
 13 11  1  0
 15 13  1  0
 16 17  1  0
 16 15  1  0
 18 19  1  0
 18 17  1  0
 19 15  1  0
 19 20  1  1
 20 22  1  0
 21 20  2  0
M  END
$$$$
