AFV.pdb
     RDKit          3D

 24 24  0  0  1  0  0  0  0  0999 V2000
    7.8878  -17.8677   19.6631 C   0  0  0  0  0  0  0  0  0  0  0  0
    8.2591  -16.4291   19.4555 C   0  0  2  0  0  0  0  0  0  0  0  0
    9.3020  -16.2616   18.4671 N   0  0  0  0  0  0  0  0  0  0  0  0
    8.6989  -15.8759   20.7807 C   0  0  0  0  0  0  0  0  0  0  0  0
    9.9028  -15.8599   21.1197 O   0  0  0  0  0  0  0  0  0  0  0  0
    7.7269  -15.3657   21.6553 N   0  0  0  0  0  0  0  0  0  0  0  0
    8.0341  -14.8254   22.9726 C   0  0  1  0  0  0  0  0  0  0  0  0
    6.8274  -14.0468   23.4058 C   0  0  0  0  0  0  0  0  0  0  0  0
    6.9590  -13.4333   24.7514 C   0  0  0  0  0  0  0  0  0  0  0  0
    6.3077  -13.9575   25.8404 C   0  0  0  0  0  0  0  0  0  0  0  0
    6.4050  -13.4146   27.1134 C   0  0  0  0  0  0  0  0  0  0  0  0
    7.1873  -12.2982   27.3095 C   0  0  0  0  0  0  0  0  0  0  0  0
    7.8496  -11.7570   26.2271 C   0  0  0  0  0  0  0  0  0  0  0  0
    7.7437  -12.3079   24.9655 C   0  0  0  0  0  0  0  0  0  0  0  0
    8.4770  -15.8471   23.9135 C   0  0  0  0  0  0  0  0  0  0  0  0
    7.8071  -16.9000   24.0633 O   0  0  0  0  0  0  0  0  0  0  0  0
   12.3051  -18.1650   25.9600 C   0  0  0  0  0  0  0  0  0  0  0  0
   11.7014  -17.0195   25.1832 C   0  0  1  0  0  0  0  0  0  0  0  0
   11.9823  -17.2167   23.7272 C   0  0  0  0  0  0  0  0  0  0  0  0
   10.2068  -16.9036   25.3984 C   0  0  2  0  0  0  0  0  0  0  0  0
    9.6640  -15.7463   24.7164 N   0  0  0  0  0  0  0  0  0  0  0  0
    9.9234  -16.7946   26.8388 C   0  0  0  0  0  0  0  0  0  0  0  0
    9.7796  -17.8202   27.5438 O   0  0  0  0  0  0  0  0  0  0  0  0
    9.7989  -15.5723   27.4990 O   0  0  0  0  0  0  0  0  0  0  0  0
  2  1  1  1
  2  3  1  0
  4  2  1  0
  4  5  2  0
  6  4  1  0
  7  6  1  0
  7  8  1  1
  9 14  2  0
  9  8  1  0
 10  9  1  0
 11 10  2  0
 11 12  1  0
 12 13  2  0
 13 14  1  0
 15  7  1  0
 16 15  2  0
 18 17  1  1
 19 18  1  0
 20 18  1  0
 20 21  1  6
 21 15  1  0
 22 20  1  0
 22 24  1  0
 23 22  2  0
M  END
$$$$
