AFV.pdb
     RDKit          3D

 24 24  0  0  1  0  0  0  0  0999 V2000
   10.5988  -18.6455   21.5620 C   0  0  0  0  0  0  0  0  0  0  0  0
   10.3918  -17.2798   20.9769 C   0  0  2  0  0  0  0  0  0  0  0  0
   11.4693  -16.8830   20.0971 N   0  0  0  0  0  0  0  0  0  0  0  0
   10.2617  -16.3104   22.1167 C   0  0  0  0  0  0  0  0  0  0  0  0
   11.2381  -15.6472   22.5307 O   0  0  0  0  0  0  0  0  0  0  0  0
    9.0080  -16.1510   22.7275 N   0  0  0  0  0  0  0  0  0  0  0  0
    8.7691  -15.2572   23.8525 C   0  0  1  0  0  0  0  0  0  0  0  0
    7.3333  -14.8325   23.7618 C   0  0  0  0  0  0  0  0  0  0  0  0
    6.9515  -13.7895   24.7472 C   0  0  0  0  0  0  0  0  0  0  0  0
    6.1757  -14.0907   25.8391 C   0  0  0  0  0  0  0  0  0  0  0  0
    5.7979  -13.1460   26.7822 C   0  0  0  0  0  0  0  0  0  0  0  0
    6.2125  -11.8416   26.6296 C   0  0  0  0  0  0  0  0  0  0  0  0
    6.9929  -11.5196   25.5385 C   0  0  0  0  0  0  0  0  0  0  0  0
    7.3614  -12.4702   24.6075 C   0  0  0  0  0  0  0  0  0  0  0  0
    9.1581  -15.8407   25.1306 C   0  0  0  0  0  0  0  0  0  0  0  0
    9.2934  -17.0854   25.2410 O   0  0  0  0  0  0  0  0  0  0  0  0
   10.7954  -15.3157   29.8445 C   0  0  0  0  0  0  0  0  0  0  0  0
   10.0641  -14.7379   28.6565 C   0  0  1  0  0  0  0  0  0  0  0  0
   10.7145  -13.4494   28.2636 C   0  0  0  0  0  0  0  0  0  0  0  0
   10.0557  -15.6817   27.4720 C   0  0  2  0  0  0  0  0  0  0  0  0
    9.4100  -15.0801   26.3229 N   0  0  0  0  0  0  0  0  0  0  0  0
    9.3464  -16.9199   27.8336 C   0  0  0  0  0  0  0  0  0  0  0  0
    8.1119  -17.0290   27.6505 O   0  0  0  0  0  0  0  0  0  0  0  0
    9.9855  -18.0274   28.3908 O   0  0  0  0  0  0  0  0  0  0  0  0
  2  1  1  1
  2  3  1  0
  4  2  1  0
  4  5  2  0
  6  4  1  0
  7  6  1  0
  7  8  1  1
  9 14  2  0
  9  8  1  0
 10  9  1  0
 11 10  2  0
 11 12  1  0
 12 13  2  0
 13 14  1  0
 15  7  1  0
 16 15  2  0
 18 17  1  1
 19 18  1  0
 20 18  1  0
 20 21  1  6
 21 15  1  0
 22 20  1  0
 22 24  1  0
 23 22  2  0
M  END
$$$$
