AFV.pdb
     RDKit          3D

 24 24  0  0  1  0  0  0  0  0999 V2000
    7.8172  -18.6123   20.2284 C   0  0  0  0  0  0  0  0  0  0  0  0
    7.9467  -17.1640   19.8594 C   0  0  2  0  0  0  0  0  0  0  0  0
    8.7919  -16.9585   18.7035 N   0  0  0  0  0  0  0  0  0  0  0  0
    8.5023  -16.4378   21.0509 C   0  0  0  0  0  0  0  0  0  0  0  0
    9.7314  -16.2578   21.1969 O   0  0  0  0  0  0  0  0  0  0  0  0
    7.6117  -15.9519   22.0209 N   0  0  0  0  0  0  0  0  0  0  0  0
    8.0339  -15.2083   23.2001 C   0  0  1  0  0  0  0  0  0  0  0  0
    6.8442  -14.4140   23.6514 C   0  0  0  0  0  0  0  0  0  0  0  0
    7.0724  -13.6478   24.9025 C   0  0  0  0  0  0  0  0  0  0  0  0
    7.8659  -12.5275   24.9174 C   0  0  0  0  0  0  0  0  0  0  0  0
    8.1034  -11.7842   26.0645 C   0  0  0  0  0  0  0  0  0  0  0  0
    7.5235  -12.1757   27.2507 C   0  0  0  0  0  0  0  0  0  0  0  0
    6.7228  -13.2991   27.2556 C   0  0  0  0  0  0  0  0  0  0  0  0
    6.4950  -14.0295   26.1062 C   0  0  0  0  0  0  0  0  0  0  0  0
    8.6283  -16.0604   24.2229 C   0  0  0  0  0  0  0  0  0  0  0  0
    7.9882  -17.0424   24.6763 O   0  0  0  0  0  0  0  0  0  0  0  0
   12.7828  -17.8835   26.2600 C   0  0  0  0  0  0  0  0  0  0  0  0
   12.0820  -16.8839   25.3713 C   0  0  1  0  0  0  0  0  0  0  0  0
   12.4010  -17.1941   23.9432 C   0  0  0  0  0  0  0  0  0  0  0  0
   10.5803  -16.8941   25.5674 C   0  0  2  0  0  0  0  0  0  0  0  0
    9.9384  -15.8625   24.7781 N   0  0  0  0  0  0  0  0  0  0  0  0
   10.2678  -16.6809   26.9901 C   0  0  0  0  0  0  0  0  0  0  0  0
   10.1873  -17.6489   27.7814 O   0  0  0  0  0  0  0  0  0  0  0  0
   10.0457  -15.4181   27.5390 O   0  0  0  0  0  0  0  0  0  0  0  0
  2  1  1  1
  2  3  1  0
  4  2  1  0
  4  5  2  0
  6  4  1  0
  7  6  1  0
  7  8  1  1
  9 14  2  0
  9  8  1  0
 10  9  1  0
 11 10  2  0
 11 12  1  0
 12 13  2  0
 13 14  1  0
 15  7  1  0
 16 15  2  0
 18 17  1  1
 19 18  1  0
 20 18  1  0
 20 21  1  6
 21 15  1  0
 22 20  1  0
 22 24  1  0
 23 22  2  0
M  END
$$$$
