AFV.pdb
     RDKit          3D

 24 24  0  0  1  0  0  0  0  0999 V2000
   11.2506  -18.6380   21.3374 C   0  0  0  0  0  0  0  0  0  0  0  0
   10.6294  -17.3619   20.8514 C   0  0  2  0  0  0  0  0  0  0  0  0
   11.4104  -16.7233   19.8148 N   0  0  0  0  0  0  0  0  0  0  0  0
   10.4806  -16.4481   22.0340 C   0  0  0  0  0  0  0  0  0  0  0  0
   11.4009  -15.6803   22.3916 O   0  0  0  0  0  0  0  0  0  0  0  0
    9.2737  -16.4626   22.7506 N   0  0  0  0  0  0  0  0  0  0  0  0
    8.9594  -15.5203   23.8160 C   0  0  1  0  0  0  0  0  0  0  0  0
    7.4790  -15.2862   23.7545 C   0  0  0  0  0  0  0  0  0  0  0  0
    7.0028  -14.2083   24.6578 C   0  0  0  0  0  0  0  0  0  0  0  0
    7.4033  -12.9063   24.4867 C   0  0  0  0  0  0  0  0  0  0  0  0
    6.9810  -11.8710   25.3079 C   0  0  0  0  0  0  0  0  0  0  0  0
    6.1203  -12.1464   26.3472 C   0  0  0  0  0  0  0  0  0  0  0  0
    5.7068  -13.4490   26.5351 C   0  0  0  0  0  0  0  0  0  0  0  0
    6.1351  -14.4697   25.7099 C   0  0  0  0  0  0  0  0  0  0  0  0
    9.4607  -15.9491   25.1161 C   0  0  0  0  0  0  0  0  0  0  0  0
    9.7161  -17.1618   25.3252 O   0  0  0  0  0  0  0  0  0  0  0  0
   10.6929  -15.0038   29.8791 C   0  0  0  0  0  0  0  0  0  0  0  0
   10.0117  -14.5774   28.6008 C   0  0  1  0  0  0  0  0  0  0  0  0
   10.5173  -13.2258   28.2067 C   0  0  0  0  0  0  0  0  0  0  0  0
   10.2491  -15.5555   27.4691 C   0  0  2  0  0  0  0  0  0  0  0  0
    9.6966  -15.0644   26.2230 N   0  0  0  0  0  0  0  0  0  0  0  0
    9.6288  -16.8494   27.7978 C   0  0  0  0  0  0  0  0  0  0  0  0
    8.4257  -17.0711   27.5281 O   0  0  0  0  0  0  0  0  0  0  0  0
   10.3220  -17.8897   28.4165 O   0  0  0  0  0  0  0  0  0  0  0  0
  2  1  1  1
  2  3  1  0
  4  2  1  0
  4  5  2  0
  6  4  1  0
  7  6  1  0
  7  8  1  1
  9 14  2  0
  9  8  1  0
 10  9  1  0
 11 10  2  0
 11 12  1  0
 12 13  2  0
 13 14  1  0
 15  7  1  0
 16 15  2  0
 18 17  1  1
 19 18  1  0
 20 18  1  0
 20 21  1  6
 21 15  1  0
 22 20  1  0
 22 24  1  0
 23 22  2  0
M  END
$$$$
