AFV.pdb
     RDKit          3D

 24 24  0  0  1  0  0  0  0  0999 V2000
    8.4103  -19.4186   20.7470 C   0  0  0  0  0  0  0  0  0  0  0  0
    8.1313  -18.0101   20.3125 C   0  0  2  0  0  0  0  0  0  0  0  0
    8.7538  -17.6851   19.0479 N   0  0  0  0  0  0  0  0  0  0  0  0
    8.6287  -17.0928   21.3928 C   0  0  0  0  0  0  0  0  0  0  0  0
    9.8238  -16.7279   21.4469 O   0  0  0  0  0  0  0  0  0  0  0  0
    7.7217  -16.6382   22.3628 N   0  0  0  0  0  0  0  0  0  0  0  0
    8.0821  -15.7172   23.4322 C   0  0  1  0  0  0  0  0  0  0  0  0
    6.8250  -14.9925   23.8120 C   0  0  0  0  0  0  0  0  0  0  0  0
    6.9994  -14.0318   24.9306 C   0  0  0  0  0  0  0  0  0  0  0  0
    7.6609  -12.8421   24.7516 C   0  0  0  0  0  0  0  0  0  0  0  0
    7.8444  -11.9182   25.7700 C   0  0  0  0  0  0  0  0  0  0  0  0
    7.3457  -12.1929   27.0240 C   0  0  0  0  0  0  0  0  0  0  0  0
    6.6780  -13.3835   27.2234 C   0  0  0  0  0  0  0  0  0  0  0  0
    6.5026  -14.2941   26.2004 C   0  0  0  0  0  0  0  0  0  0  0  0
    8.7704  -16.3748   24.5364 C   0  0  0  0  0  0  0  0  0  0  0  0
    8.2971  -17.4250   25.0393 O   0  0  0  0  0  0  0  0  0  0  0  0
   13.1833  -17.5268   26.3745 C   0  0  0  0  0  0  0  0  0  0  0  0
   12.2841  -16.6757   25.5103 C   0  0  1  0  0  0  0  0  0  0  0  0
   12.4331  -17.1019   24.0842 C   0  0  0  0  0  0  0  0  0  0  0  0
   10.8293  -16.7780   25.9190 C   0  0  2  0  0  0  0  0  0  0  0  0
    9.9947  -15.9027   25.1213 N   0  0  0  0  0  0  0  0  0  0  0  0
   10.6902  -16.4185   27.3397 C   0  0  0  0  0  0  0  0  0  0  0  0
   10.4790  -15.2325   27.6836 O   0  0  0  0  0  0  0  0  0  0  0  0
   10.7820  -17.3511   28.3727 O   0  0  0  0  0  0  0  0  0  0  0  0
  2  1  1  1
  2  3  1  0
  4  2  1  0
  4  5  2  0
  6  4  1  0
  7  6  1  0
  7  8  1  1
  9 14  2  0
  9  8  1  0
 10  9  1  0
 11 10  2  0
 11 12  1  0
 12 13  2  0
 13 14  1  0
 15  7  1  0
 16 15  2  0
 18 17  1  1
 19 18  1  0
 20 18  1  0
 20 21  1  6
 21 15  1  0
 22 20  1  0
 22 24  1  0
 23 22  2  0
M  END
$$$$
