AFV.pdb
     RDKit          3D

 24 24  0  0  1  0  0  0  0  0999 V2000
   10.8282  -18.6424   21.2503 C   0  0  0  0  0  0  0  0  0  0  0  0
   10.4153  -17.3056   20.7089 C   0  0  2  0  0  0  0  0  0  0  0  0
   11.3394  -16.7977   19.7186 N   0  0  0  0  0  0  0  0  0  0  0  0
   10.3145  -16.3558   21.8679 C   0  0  0  0  0  0  0  0  0  0  0  0
   11.2783  -15.6387   22.2162 O   0  0  0  0  0  0  0  0  0  0  0  0
    9.1032  -16.2773   22.5729 N   0  0  0  0  0  0  0  0  0  0  0  0
    8.8655  -15.3394   23.6617 C   0  0  1  0  0  0  0  0  0  0  0  0
    7.3984  -15.0275   23.6426 C   0  0  0  0  0  0  0  0  0  0  0  0
    6.9995  -13.9548   24.5886 C   0  0  0  0  0  0  0  0  0  0  0  0
    6.2470  -14.2312   25.7032 C   0  0  0  0  0  0  0  0  0  0  0  0
    5.8544  -13.2583   26.6109 C   0  0  0  0  0  0  0  0  0  0  0  0
    6.2292  -11.9504   26.3977 C   0  0  0  0  0  0  0  0  0  0  0  0
    6.9856  -11.6531   25.2830 C   0  0  0  0  0  0  0  0  0  0  0  0
    7.3693  -12.6316   24.3876 C   0  0  0  0  0  0  0  0  0  0  0  0
    9.3761  -15.8171   24.9410 C   0  0  0  0  0  0  0  0  0  0  0  0
    9.4109  -17.0494   25.1860 O   0  0  0  0  0  0  0  0  0  0  0  0
    9.5516  -13.7929   28.6811 C   0  0  0  0  0  0  0  0  0  0  0  0
   10.8215  -14.4356   28.1768 C   0  0  1  0  0  0  0  0  0  0  0  0
   11.5564  -15.0354   29.3334 C   0  0  0  0  0  0  0  0  0  0  0  0
   10.5514  -15.5058   27.1398 C   0  0  2  0  0  0  0  0  0  0  0  0
    9.8625  -14.9614   25.9873 N   0  0  0  0  0  0  0  0  0  0  0  0
    9.7311  -16.5733   27.7354 C   0  0  0  0  0  0  0  0  0  0  0  0
   10.2305  -17.3920   28.5415 O   0  0  0  0  0  0  0  0  0  0  0  0
    8.3763  -16.7406   27.4492 O   0  0  0  0  0  0  0  0  0  0  0  0
  2  1  1  1
  2  3  1  0
  4  2  1  0
  4  5  2  0
  6  4  1  0
  7  6  1  0
  7  8  1  1
  9 14  2  0
  9  8  1  0
 10  9  1  0
 11 10  2  0
 11 12  1  0
 12 13  2  0
 13 14  1  0
 15  7  1  0
 16 15  2  0
 18 17  1  1
 19 18  1  0
 20 18  1  0
 20 21  1  6
 21 15  1  0
 22 20  1  0
 22 24  1  0
 23 22  2  0
M  END
$$$$
