AFV.pdb
     RDKit          3D

 24 24  0  0  1  0  0  0  0  0999 V2000
    8.6206  -18.3560   20.0177 C   0  0  0  0  0  0  0  0  0  0  0  0
    8.6634  -16.8903   19.7006 C   0  0  2  0  0  0  0  0  0  0  0  0
    9.5832  -16.5805   18.6280 N   0  0  0  0  0  0  0  0  0  0  0  0
    9.0568  -16.1639   20.9549 C   0  0  0  0  0  0  0  0  0  0  0  0
   10.2556  -15.9659   21.2516 O   0  0  0  0  0  0  0  0  0  0  0  0
    8.0461  -15.6985   21.8106 N   0  0  0  0  0  0  0  0  0  0  0  0
    8.3084  -15.0702   23.0983 C   0  0  1  0  0  0  0  0  0  0  0  0
    7.0964  -14.2499   23.4268 C   0  0  0  0  0  0  0  0  0  0  0  0
    7.1657  -13.5778   24.7490 C   0  0  0  0  0  0  0  0  0  0  0  0
    7.9008  -12.4322   24.9284 C   0  0  0  0  0  0  0  0  0  0  0  0
    7.9906  -11.7743   26.1464 C   0  0  0  0  0  0  0  0  0  0  0  0
    7.3168  -12.2816   27.2352 C   0  0  0  0  0  0  0  0  0  0  0  0
    6.5728  -13.4321   27.0744 C   0  0  0  0  0  0  0  0  0  0  0  0
    6.4922  -14.0767   25.8561 C   0  0  0  0  0  0  0  0  0  0  0  0
    8.6996  -16.0282   24.1254 C   0  0  0  0  0  0  0  0  0  0  0  0
    7.9611  -17.0115   24.3853 O   0  0  0  0  0  0  0  0  0  0  0  0
   12.2655  -18.3840   26.5808 C   0  0  0  0  0  0  0  0  0  0  0  0
   11.8025  -17.2976   25.6399 C   0  0  1  0  0  0  0  0  0  0  0  0
   12.1099  -17.7068   24.2343 C   0  0  0  0  0  0  0  0  0  0  0  0
   10.3202  -17.0163   25.7717 C   0  0  2  0  0  0  0  0  0  0  0  0
    9.9082  -15.9377   24.8965 N   0  0  0  0  0  0  0  0  0  0  0  0
   10.0090  -16.6561   27.1647 C   0  0  0  0  0  0  0  0  0  0  0  0
   10.0824  -15.4668   27.5516 O   0  0  0  0  0  0  0  0  0  0  0  0
    9.6211  -17.5917   28.1236 O   0  0  0  0  0  0  0  0  0  0  0  0
  2  1  1  1
  2  3  1  0
  4  2  1  0
  4  5  2  0
  6  4  1  0
  7  6  1  0
  7  8  1  1
  9 14  2  0
  9  8  1  0
 10  9  1  0
 11 10  2  0
 11 12  1  0
 12 13  2  0
 13 14  1  0
 15  7  1  0
 16 15  2  0
 18 17  1  1
 19 18  1  0
 20 18  1  0
 20 21  1  6
 21 15  1  0
 22 20  1  0
 22 24  1  0
 23 22  2  0
M  END
$$$$
