NGY.pdb
     RDKit          3D

 25 25  0  0  1  0  0  0  0  0999 V2000
   20.9108  -18.7355  -21.4174 N   0  0  0  0  0  0  0  0  0  0  0  0
   21.4174  -18.0466  -20.2883 C   0  0  0  0  0  0  0  0  0  0  0  0
   22.5885  -17.5940  -20.3171 O   0  0  0  0  0  0  0  0  0  0  0  0
   20.5628  -17.8738  -19.1030 C   0  0  0  0  0  0  0  0  0  0  0  0
   21.3482  -17.4099  -17.8940 C   0  0  2  0  0  0  0  0  0  0  0  0
   22.4623  -16.5833  -18.2677 N   0  0  0  0  0  0  0  0  0  0  0  0
   21.8510  -18.6206  -17.2091 C   0  0  0  0  0  0  0  0  0  0  0  0
   21.2229  -19.0456  -16.2025 O   0  0  0  0  0  0  0  0  0  0  0  0
   23.0073  -19.2786  -17.6778 N   0  0  0  0  0  0  0  0  0  0  0  0
   23.4504  -20.5253  -17.1169 C   0  0  0  0  0  0  0  0  0  0  0  0
   24.8699  -20.4501  -16.6977 C   0  0  0  0  0  0  0  0  0  0  0  0
   25.7696  -20.2161  -17.5798 O   0  0  0  0  0  0  0  0  0  0  0  0
   23.6539  -21.4083   -9.6164 O   0  0  0  0  0  0  0  0  0  0  0  0
   24.4624  -20.9865  -10.6669 C   0  0  0  0  0  0  0  0  0  0  0  0
   25.8277  -21.1545  -10.6053 C   0  0  0  0  0  0  0  0  0  0  0  0
   26.6712  -20.7561  -11.6145 C   0  0  0  0  0  0  0  0  0  0  0  0
   26.1774  -20.1581  -12.7571 C   0  0  0  0  0  0  0  0  0  0  0  0
   26.9749  -19.6967  -13.8849 C   0  0  0  0  0  0  0  0  0  0  0  0
   26.7718  -20.6046  -15.0736 C   0  0  2  0  0  0  0  0  0  0  0  0
   25.3526  -20.6106  -15.3890 N   0  0  0  0  0  0  0  0  0  0  0  0
   27.2972  -21.9401  -14.8346 C   0  0  0  0  0  0  0  0  0  0  0  0
   28.6487  -22.1909  -14.7974 O   0  0  0  0  0  0  0  0  0  0  0  0
   24.7976  -19.9898  -12.8163 C   0  0  0  0  0  0  0  0  0  0  0  0
   23.9597  -20.3927  -11.7990 C   0  0  0  0  0  0  0  0  0  0  0  0
   26.5136  -22.9053  -14.6573 O   0  0  0  0  0  0  0  0  0  0  0  0
  1  2  1  0
  2  3  2  0
  4  5  1  0
  4  2  1  0
  5  6  1  6
  7  5  1  0
  8  7  2  0
  9  7  1  0
 10 11  1  0
 10  9  1  0
 11 20  1  0
 12 11  2  0
 14 15  2  0
 14 13  1  0
 16 15  1  0
 17 16  2  0
 18 17  1  0
 19 18  1  1
 20 19  1  0
 21 19  1  0
 21 22  1  0
 23 17  1  0
 23 24  2  0
 24 14  1  0
 25 21  2  0
M  END
$$$$
