NGY.pdb
     RDKit          3D

 25 25  0  0  1  0  0  0  0  0999 V2000
   22.8993   -9.2522    6.7760 N   0  0  0  0  0  0  0  0  0  0  0  0
   22.9771   -9.9947    7.9796 C   0  0  0  0  0  0  0  0  0  0  0  0
   23.8098   -9.6590    8.8579 O   0  0  0  0  0  0  0  0  0  0  0  0
   22.0815  -11.1450    8.1790 C   0  0  0  0  0  0  0  0  0  0  0  0
   20.6395  -10.8097    7.8596 C   0  0  2  0  0  0  0  0  0  0  0  0
   20.0495   -9.9776    8.8714 N   0  0  0  0  0  0  0  0  0  0  0  0
   19.8989  -12.0880    7.7906 C   0  0  0  0  0  0  0  0  0  0  0  0
   20.0415  -12.8101    6.7675 O   0  0  0  0  0  0  0  0  0  0  0  0
   19.0546  -12.4829    8.8493 N   0  0  0  0  0  0  0  0  0  0  0  0
   18.9078  -13.8612    9.2287 C   0  0  0  0  0  0  0  0  0  0  0  0
   17.7288  -14.4750    8.5732 C   0  0  0  0  0  0  0  0  0  0  0  0
   16.5822  -13.9170    8.7020 O   0  0  0  0  0  0  0  0  0  0  0  0
   19.1516  -14.9024    1.5267 O   0  0  0  0  0  0  0  0  0  0  0  0
   18.3781  -14.9497    2.6818 C   0  0  0  0  0  0  0  0  0  0  0  0
   18.2411  -13.8320    3.4742 C   0  0  0  0  0  0  0  0  0  0  0  0
   17.4894  -13.8247    4.6247 C   0  0  0  0  0  0  0  0  0  0  0  0
   16.8252  -14.9600    5.0451 C   0  0  0  0  0  0  0  0  0  0  0  0
   16.0045  -15.0673    6.2433 C   0  0  0  0  0  0  0  0  0  0  0  0
   16.5374  -16.1542    7.1451 C   0  0  2  0  0  0  0  0  0  0  0  0
   17.7334  -15.6436    7.7950 N   0  0  0  0  0  0  0  0  0  0  0  0
   16.7798  -17.3924    6.4207 C   0  0  0  0  0  0  0  0  0  0  0  0
   15.7517  -18.2236    6.0425 O   0  0  0  0  0  0  0  0  0  0  0  0
   16.9654  -16.0877    4.2424 C   0  0  0  0  0  0  0  0  0  0  0  0
   17.7216  -16.0852    3.0902 C   0  0  0  0  0  0  0  0  0  0  0  0
   17.9518  -17.7323    6.1245 O   0  0  0  0  0  0  0  0  0  0  0  0
  1  2  1  0
  2  3  2  0
  4  5  1  0
  4  2  1  0
  5  6  1  1
  7  5  1  0
  8  7  2  0
  9  7  1  0
 10 11  1  0
 10  9  1  0
 11 20  1  0
 12 11  2  0
 14 15  2  0
 14 13  1  0
 16 15  1  0
 17 16  2  0
 18 17  1  0
 19 18  1  6
 20 19  1  0
 21 19  1  0
 21 22  1  0
 23 17  1  0
 23 24  2  0
 24 14  1  0
 25 21  2  0
M  END
$$$$
