NGY.pdb
     RDKit          3D

 25 25  0  0  1  0  0  0  0  0999 V2000
   18.3908  -16.2150  -21.2002 N   0  0  0  0  0  0  0  0  0  0  0  0
   19.5227  -15.8279  -20.4419 C   0  0  0  0  0  0  0  0  0  0  0  0
   20.1759  -16.7020  -19.8201 O   0  0  0  0  0  0  0  0  0  0  0  0
   19.9123  -14.4097  -20.3964 C   0  0  0  0  0  0  0  0  0  0  0  0
   21.3949  -14.2315  -20.1437 C   0  0  2  0  0  0  0  0  0  0  0  0
   21.7923  -14.7967  -18.8840 N   0  0  0  0  0  0  0  0  0  0  0  0
   21.6635  -12.7771  -20.1288 C   0  0  0  0  0  0  0  0  0  0  0  0
   21.5956  -12.1427  -21.2156 O   0  0  0  0  0  0  0  0  0  0  0  0
   21.9875  -12.1225  -18.9220 N   0  0  0  0  0  0  0  0  0  0  0  0
   22.2215  -10.7057  -18.8668 C   0  0  0  0  0  0  0  0  0  0  0  0
   22.5190  -10.2650  -17.4834 C   0  0  0  0  0  0  0  0  0  0  0  0
   22.2464  -11.0485  -16.5065 O   0  0  0  0  0  0  0  0  0  0  0  0
   28.3320  -12.2946  -17.3337 O   0  0  0  0  0  0  0  0  0  0  0  0
   27.4620  -11.2949  -16.9111 C   0  0  0  0  0  0  0  0  0  0  0  0
   26.9253  -10.4095  -17.8189 C   0  0  0  0  0  0  0  0  0  0  0  0
   26.0617   -9.4044  -17.4546 C   0  0  0  0  0  0  0  0  0  0  0  0
   25.6867   -9.2345  -16.1365 C   0  0  0  0  0  0  0  0  0  0  0  0
   24.7827   -8.2074  -15.6379 C   0  0  0  0  0  0  0  0  0  0  0  0
   23.3526   -8.6819  -15.7291 C   0  0  2  0  0  0  0  0  0  0  0  0
   23.0915   -9.0371  -17.1145 N   0  0  0  0  0  0  0  0  0  0  0  0
   22.4168   -7.6911  -15.2199 C   0  0  0  0  0  0  0  0  0  0  0  0
   21.5577   -7.0116  -16.0512 O   0  0  0  0  0  0  0  0  0  0  0  0
   26.2305  -10.1306  -15.2217 C   0  0  0  0  0  0  0  0  0  0  0  0
   27.0959  -11.1355  -15.5966 C   0  0  0  0  0  0  0  0  0  0  0  0
   22.3771   -7.4316  -13.9919 O   0  0  0  0  0  0  0  0  0  0  0  0
  1  2  1  0
  2  3  2  0
  4  5  1  0
  4  2  1  0
  5  6  1  1
  7  5  1  0
  8  7  2  0
  9  7  1  0
 10 11  1  0
 10  9  1  0
 11 20  1  0
 12 11  2  0
 14 15  2  0
 14 13  1  0
 16 15  1  0
 17 16  2  0
 18 17  1  0
 19 18  1  6
 20 19  1  0
 21 19  1  0
 21 22  1  0
 23 17  1  0
 23 24  2  0
 24 14  1  0
 25 21  2  0
M  END
$$$$
