NGY.pdb
     RDKit          3D

 25 25  0  0  1  0  0  0  0  0999 V2000
   21.2887  -15.5788  -21.7617 N   0  0  0  0  0  0  0  0  0  0  0  0
   22.5689  -15.8365  -21.2135 C   0  0  0  0  0  0  0  0  0  0  0  0
   23.5681  -15.8748  -21.9732 O   0  0  0  0  0  0  0  0  0  0  0  0
   22.7047  -16.0546  -19.7646 C   0  0  0  0  0  0  0  0  0  0  0  0
   23.8871  -16.9389  -19.4274 C   0  0  2  0  0  0  0  0  0  0  0  0
   23.7753  -18.2341  -20.0391 N   0  0  0  0  0  0  0  0  0  0  0  0
   23.9084  -17.0974  -17.9570 C   0  0  0  0  0  0  0  0  0  0  0  0
   23.9475  -16.0605  -17.2417 O   0  0  0  0  0  0  0  0  0  0  0  0
   23.8853  -18.3827  -17.3763 N   0  0  0  0  0  0  0  0  0  0  0  0
   23.7799  -18.5713  -15.9556 C   0  0  0  0  0  0  0  0  0  0  0  0
   22.7828  -19.6170  -15.6262 C   0  0  0  0  0  0  0  0  0  0  0  0
   22.0360  -20.0829  -16.5577 O   0  0  0  0  0  0  0  0  0  0  0  0
   18.9190  -26.6626  -12.2281 O   0  0  0  0  0  0  0  0  0  0  0  0
   19.6582  -25.4932  -12.3736 C   0  0  0  0  0  0  0  0  0  0  0  0
   19.2267  -24.3204  -11.7953 C   0  0  0  0  0  0  0  0  0  0  0  0
   19.9185  -23.1383  -11.9081 C   0  0  0  0  0  0  0  0  0  0  0  0
   21.0998  -23.0729  -12.6203 C   0  0  0  0  0  0  0  0  0  0  0  0
   21.9127  -21.8790  -12.8063 C   0  0  0  0  0  0  0  0  0  0  0  0
   21.5795  -21.2209  -14.1233 C   0  0  2  0  0  0  0  0  0  0  0  0
   22.5621  -20.1751  -14.3568 N   0  0  0  0  0  0  0  0  0  0  0  0
   20.2134  -20.7213  -14.1521 C   0  0  0  0  0  0  0  0  0  0  0  0
   19.1839  -21.4578  -14.6892 O   0  0  0  0  0  0  0  0  0  0  0  0
   21.5331  -24.2594  -13.2034 C   0  0  0  0  0  0  0  0  0  0  0  0
   20.8324  -25.4402  -13.0846 C   0  0  0  0  0  0  0  0  0  0  0  0
   19.9447  -19.5885  -13.6815 O   0  0  0  0  0  0  0  0  0  0  0  0
  1  2  1  0
  2  3  2  0
  4  5  1  0
  4  2  1  0
  5  6  1  6
  7  5  1  0
  8  7  2  0
  9  7  1  0
 10 11  1  0
 10  9  1  0
 11 20  1  0
 12 11  2  0
 14 15  2  0
 14 13  1  0
 16 15  1  0
 17 16  2  0
 18 17  1  0
 19 18  1  1
 20 19  1  0
 21 19  1  0
 21 22  1  0
 23 17  1  0
 23 24  2  0
 24 14  1  0
 25 21  2  0
M  END
$$$$
