NGY.pdb
     RDKit          3D

 25 25  0  0  1  0  0  0  0  0999 V2000
   17.1687  -21.7675  -13.6983 N   0  0  0  0  0  0  0  0  0  0  0  0
   18.1082  -21.1120  -12.8654 C   0  0  0  0  0  0  0  0  0  0  0  0
   17.7200  -20.1915  -12.1043 O   0  0  0  0  0  0  0  0  0  0  0  0
   19.5210  -21.5211  -12.9071 C   0  0  0  0  0  0  0  0  0  0  0  0
   20.4612  -20.3339  -12.8916 C   0  0  2  0  0  0  0  0  0  0  0  0
   20.2808  -19.4964  -14.0450 N   0  0  0  0  0  0  0  0  0  0  0  0
   21.8401  -20.8689  -12.8920 C   0  0  0  0  0  0  0  0  0  0  0  0
   22.1580  -21.7103  -12.0091 O   0  0  0  0  0  0  0  0  0  0  0  0
   22.7720  -20.4424  -13.8613 N   0  0  0  0  0  0  0  0  0  0  0  0
   24.1245  -20.9276  -13.8782 C   0  0  0  0  0  0  0  0  0  0  0  0
   24.8666  -20.4889  -12.6727 C   0  0  0  0  0  0  0  0  0  0  0  0
   24.7043  -19.2933  -12.2406 O   0  0  0  0  0  0  0  0  0  0  0  0
   28.3234  -18.6611   -5.0695 O   0  0  0  0  0  0  0  0  0  0  0  0
   27.6480  -19.1417   -6.1866 C   0  0  0  0  0  0  0  0  0  0  0  0
   27.6906  -20.4812   -6.5029 C   0  0  0  0  0  0  0  0  0  0  0  0
   27.0419  -21.0075   -7.5942 C   0  0  0  0  0  0  0  0  0  0  0  0
   26.3044  -20.2008   -8.4382 C   0  0  0  0  0  0  0  0  0  0  0  0
   25.5798  -20.6480   -9.6196 C   0  0  0  0  0  0  0  0  0  0  0  0
   26.5144  -20.7389  -10.8016 C   0  0  2  0  0  0  0  0  0  0  0  0
   25.7590  -21.2723  -11.9234 N   0  0  0  0  0  0  0  0  0  0  0  0
   27.6990  -21.5277  -10.4994 C   0  0  0  0  0  0  0  0  0  0  0  0
   27.6713  -22.9024  -10.4916 O   0  0  0  0  0  0  0  0  0  0  0  0
   26.2633  -18.8480   -8.1159 C   0  0  0  0  0  0  0  0  0  0  0  0
   26.9172  -18.3294   -7.0192 C   0  0  0  0  0  0  0  0  0  0  0  0
   28.7863  -20.9586  -10.2332 O   0  0  0  0  0  0  0  0  0  0  0  0
  1  2  1  0
  2  3  2  0
  4  5  1  0
  4  2  1  0
  5  6  1  6
  7  5  1  0
  8  7  2  0
  9  7  1  0
 10 11  1  0
 10  9  1  0
 11 20  1  0
 12 11  2  0
 14 15  2  0
 14 13  1  0
 16 15  1  0
 17 16  2  0
 18 17  1  0
 19 18  1  1
 20 19  1  0
 21 19  1  0
 21 22  1  0
 23 17  1  0
 23 24  2  0
 24 14  1  0
 25 21  2  0
M  END
$$$$
