NGY.pdb
     RDKit          3D

 25 25  0  0  1  0  0  0  0  0999 V2000
   21.1449  -18.2377  -18.0243 N   0  0  0  0  0  0  0  0  0  0  0  0
   21.5077  -16.8972  -17.7465 C   0  0  0  0  0  0  0  0  0  0  0  0
   20.6719  -15.9800  -17.9400 O   0  0  0  0  0  0  0  0  0  0  0  0
   22.8564  -16.6038  -17.2365 C   0  0  0  0  0  0  0  0  0  0  0  0
   23.6748  -17.8608  -17.0267 C   0  0  2  0  0  0  0  0  0  0  0  0
   23.3764  -18.4868  -15.7684 N   0  0  0  0  0  0  0  0  0  0  0  0
   25.0991  -17.4625  -17.0444 C   0  0  0  0  0  0  0  0  0  0  0  0
   25.6020  -17.0796  -18.1348 O   0  0  0  0  0  0  0  0  0  0  0  0
   25.8700  -17.5128  -15.8642 N   0  0  0  0  0  0  0  0  0  0  0  0
   27.2691  -17.1847  -15.8576 C   0  0  0  0  0  0  0  0  0  0  0  0
   28.1027  -18.3951  -15.6675 C   0  0  0  0  0  0  0  0  0  0  0  0
   29.3625  -18.2612  -15.4740 O   0  0  0  0  0  0  0  0  0  0  0  0
   24.6434  -21.5706   -8.7670 O   0  0  0  0  0  0  0  0  0  0  0  0
   25.2426  -21.0267   -9.8983 C   0  0  0  0  0  0  0  0  0  0  0  0
   26.6145  -20.9540   -9.9927 C   0  0  0  0  0  0  0  0  0  0  0  0
   27.2567  -20.4265  -11.0872 C   0  0  0  0  0  0  0  0  0  0  0  0
   26.5410  -19.9364  -12.1616 C   0  0  0  0  0  0  0  0  0  0  0  0
   27.1138  -19.3562  -13.3682 C   0  0  0  0  0  0  0  0  0  0  0  0
   27.1222  -20.3738  -14.4832 C   0  0  2  0  0  0  0  0  0  0  0  0
   27.6433  -19.7219  -15.6737 N   0  0  0  0  0  0  0  0  0  0  0  0
   25.8073  -20.9589  -14.6961 C   0  0  0  0  0  0  0  0  0  0  0  0
   24.9836  -20.5386  -15.7138 O   0  0  0  0  0  0  0  0  0  0  0  0
   25.1552  -20.0112  -12.0633 C   0  0  0  0  0  0  0  0  0  0  0  0
   24.5201  -20.5421  -10.9614 C   0  0  0  0  0  0  0  0  0  0  0  0
   25.3919  -21.8719  -13.9407 O   0  0  0  0  0  0  0  0  0  0  0  0
  1  2  1  0
  2  3  2  0
  4  5  1  0
  4  2  1  0
  5  6  1  1
  7  5  1  0
  8  7  2  0
  9  7  1  0
 10 11  1  0
 10  9  1  0
 11 20  1  0
 12 11  2  0
 14 15  2  0
 14 13  1  0
 16 15  1  0
 17 16  2  0
 18 17  1  0
 19 18  1  1
 20 19  1  0
 21 19  1  0
 21 22  1  0
 23 17  1  0
 23 24  2  0
 24 14  1  0
 25 21  2  0
M  END
$$$$
