NGY.pdb
     RDKit          3D

 25 25  0  0  1  0  0  0  0  0999 V2000
   23.4431  -19.3291  -23.5154 N   0  0  0  0  0  0  0  0  0  0  0  0
   22.6627  -18.6200  -22.5699 C   0  0  0  0  0  0  0  0  0  0  0  0
   21.9086  -17.6957  -22.9626 O   0  0  0  0  0  0  0  0  0  0  0  0
   22.7496  -18.9790  -21.1455 C   0  0  0  0  0  0  0  0  0  0  0  0
   23.2606  -17.8334  -20.2968 C   0  0  2  0  0  0  0  0  0  0  0  0
   24.6402  -17.5410  -20.5717 N   0  0  0  0  0  0  0  0  0  0  0  0
   23.1244  -18.2433  -18.8823 C   0  0  0  0  0  0  0  0  0  0  0  0
   22.1116  -18.9139  -18.5463 O   0  0  0  0  0  0  0  0  0  0  0  0
   24.1095  -17.8882  -17.9372 N   0  0  0  0  0  0  0  0  0  0  0  0
   24.0914  -18.3992  -16.5942 C   0  0  0  0  0  0  0  0  0  0  0  0
   25.3460  -19.1223  -16.2788 C   0  0  0  0  0  0  0  0  0  0  0  0
   26.0407  -19.6141  -17.2370 O   0  0  0  0  0  0  0  0  0  0  0  0
   23.9972  -21.1905   -9.4426 O   0  0  0  0  0  0  0  0  0  0  0  0
   24.8932  -20.7713  -10.4206 C   0  0  0  0  0  0  0  0  0  0  0  0
   26.1180  -21.3866  -10.5523 C   0  0  0  0  0  0  0  0  0  0  0  0
   27.0392  -21.0119  -11.5008 C   0  0  0  0  0  0  0  0  0  0  0  0
   26.7724  -19.9817  -12.3807 C   0  0  0  0  0  0  0  0  0  0  0  0
   27.6711  -19.5008  -13.4208 C   0  0  0  0  0  0  0  0  0  0  0  0
   27.1794  -19.9395  -14.7790 C   0  0  2  0  0  0  0  0  0  0  0  0
   25.8767  -19.3317  -14.9959 N   0  0  0  0  0  0  0  0  0  0  0  0
   27.1483  -21.3886  -14.9047 C   0  0  0  0  0  0  0  0  0  0  0  0
   28.2992  -22.1288  -15.0403 O   0  0  0  0  0  0  0  0  0  0  0  0
   25.5341  -19.3619  -12.2451 C   0  0  0  0  0  0  0  0  0  0  0  0
   24.6167  -19.7449  -11.2907 C   0  0  0  0  0  0  0  0  0  0  0  0
   26.0518  -22.0006  -14.8941 O   0  0  0  0  0  0  0  0  0  0  0  0
  1  2  1  0
  2  3  2  0
  4  5  1  0
  4  2  1  0
  5  6  1  6
  7  5  1  0
  8  7  2  0
  9  7  1  0
 10 11  1  0
 10  9  1  0
 11 20  1  0
 12 11  2  0
 14 15  2  0
 14 13  1  0
 16 15  1  0
 17 16  2  0
 18 17  1  0
 19 18  1  1
 20 19  1  0
 21 19  1  0
 21 22  1  0
 23 17  1  0
 23 24  2  0
 24 14  1  0
 25 21  2  0
M  END
$$$$
