NGY.pdb
     RDKit          3D

 25 25  0  0  1  0  0  0  0  0999 V2000
   33.2255  -28.2123  -17.5227 N   0  0  0  0  0  0  0  0  0  0  0  0
   34.5804  -28.3258  -17.1259 C   0  0  0  0  0  0  0  0  0  0  0  0
   34.9067  -28.0177  -15.9530 O   0  0  0  0  0  0  0  0  0  0  0  0
   35.5802  -28.8023  -18.0947 C   0  0  0  0  0  0  0  0  0  0  0  0
   34.9553  -29.1872  -19.4195 C   0  0  2  0  0  0  0  0  0  0  0  0
   33.8452  -28.3377  -19.7516 N   0  0  0  0  0  0  0  0  0  0  0  0
   34.4770  -30.5807  -19.2882 C   0  0  0  0  0  0  0  0  0  0  0  0
   35.3219  -31.4859  -19.0536 O   0  0  0  0  0  0  0  0  0  0  0  0
   33.1055  -30.8813  -19.4237 N   0  0  0  0  0  0  0  0  0  0  0  0
   32.6112  -32.2273  -19.3285 C   0  0  0  0  0  0  0  0  0  0  0  0
   31.6688  -32.3733  -18.1941 C   0  0  0  0  0  0  0  0  0  0  0  0
   31.7843  -31.5947  -17.1826 O   0  0  0  0  0  0  0  0  0  0  0  0
   24.8800  -33.7684  -12.9275 O   0  0  0  0  0  0  0  0  0  0  0  0
   25.7296  -33.6444  -14.0219 C   0  0  0  0  0  0  0  0  0  0  0  0
   25.7355  -34.6026  -15.0107 C   0  0  0  0  0  0  0  0  0  0  0  0
   26.5544  -34.5284  -16.1119 C   0  0  0  0  0  0  0  0  0  0  0  0
   27.4245  -33.4692  -16.2787 C   0  0  0  0  0  0  0  0  0  0  0  0
   28.3353  -33.2887  -17.4007 C   0  0  0  0  0  0  0  0  0  0  0  0
   29.7663  -33.4106  -16.9359 C   0  0  2  0  0  0  0  0  0  0  0  0
   30.6225  -33.3054  -18.1062 N   0  0  0  0  0  0  0  0  0  0  0  0
   29.9925  -34.6366  -16.1859 C   0  0  0  0  0  0  0  0  0  0  0  0
   30.0371  -34.6473  -14.8116 O   0  0  0  0  0  0  0  0  0  0  0  0
   27.4163  -32.5027  -15.2780 C   0  0  0  0  0  0  0  0  0  0  0  0
   26.5912  -32.5858  -14.1772 C   0  0  0  0  0  0  0  0  0  0  0  0
   30.1565  -35.7256  -16.7894 O   0  0  0  0  0  0  0  0  0  0  0  0
  1  2  1  0
  2  3  2  0
  4  5  1  0
  4  2  1  0
  5  6  1  1
  7  5  1  0
  8  7  2  0
  9  7  1  0
 10 11  1  0
 10  9  1  0
 11 20  1  0
 12 11  2  0
 14 15  2  0
 14 13  1  0
 16 15  1  0
 17 16  2  0
 18 17  1  0
 19 18  1  6
 20 19  1  0
 21 19  1  0
 21 22  1  0
 23 17  1  0
 23 24  2  0
 24 14  1  0
 25 21  2  0
M  END
$$$$
