YLG.pdb
     RDKit          3D

 25 25  0  0  1  0  0  0  0  0999 V2000
    5.5714  -10.6251   28.3485 O   0  0  0  0  0  0  0  0  0  0  0  0
    6.2367  -11.6090   27.6045 C   0  0  0  0  0  0  0  0  0  0  0  0
    5.8637  -11.8527   26.2995 C   0  0  0  0  0  0  0  0  0  0  0  0
    6.5302  -12.8311   25.5700 C   0  0  0  0  0  0  0  0  0  0  0  0
    7.5591  -13.5673   26.1200 C   0  0  0  0  0  0  0  0  0  0  0  0
    8.2200  -14.5897   25.2831 C   0  0  0  0  0  0  0  0  0  0  0  0
    7.2174  -15.4694   24.5640 C   0  0  2  0  0  0  0  0  0  0  0  0
    6.8256  -16.5182   25.4873 N   0  0  0  0  0  0  0  0  0  0  0  0
    7.9475  -16.0670   23.3884 C   0  0  0  0  0  0  0  0  0  0  0  0
    8.0668  -17.3152   23.2876 O   0  0  0  0  0  0  0  0  0  0  0  0
    7.9286  -13.3175   27.4309 C   0  0  0  0  0  0  0  0  0  0  0  0
    7.2634  -12.3459   28.1482 C   0  0  0  0  0  0  0  0  0  0  0  0
    6.4971  -14.0899   19.5553 C   0  0  0  0  0  0  0  0  0  0  0  0
    7.8988  -13.7950   20.0004 C   0  0  2  0  0  0  0  0  0  0  0  0
    8.4332  -12.5305   19.3637 C   0  0  0  0  0  0  0  0  0  0  0  0
    8.8507  -14.9244   19.9547 C   0  0  0  0  0  0  0  0  0  0  0  0
    9.0714  -15.7401   21.1618 C   0  0  2  0  0  0  0  0  0  0  0  0
    8.5079  -15.2310   22.3837 N   0  0  0  0  0  0  0  0  0  0  0  0
   10.4321  -16.3194   21.3193 C   0  0  0  0  0  0  0  0  0  0  0  0
   10.9076  -16.8852   20.2980 O   0  0  0  0  0  0  0  0  0  0  0  0
   11.1576  -16.2563   22.5251 N   0  0  0  0  0  0  0  0  0  0  0  0
   12.4981  -16.7549   22.6072 C   0  0  0  0  0  0  0  0  0  0  0  0
   13.1312  -16.5651   23.9253 C   0  0  0  0  0  0  0  0  0  0  0  0
   14.4497  -16.8064   24.2334 O   0  0  0  0  0  0  0  0  0  0  0  0
   12.4188  -16.1351   24.9052 O   0  0  0  0  0  0  0  0  0  0  0  0
  2  1  1  0
  3  2  2  0
  4  3  1  0
  5 11  1  0
  5  4  2  0
  6  5  1  0
  7  9  1  0
  7  6  1  0
  7  8  1  1
  9 18  1  0
  9 10  2  0
 11 12  2  0
 12  2  1  0
 14 13  1  6
 14 15  1  0
 16 14  1  0
 17 16  1  6
 18 17  1  0
 19 21  1  0
 19 17  1  0
 20 19  2  0
 22 21  1  0
 23 24  1  0
 23 22  1  0
 25 23  2  0
M  END
$$$$
