YLG.pdb
     RDKit          3D

 25 25  0  0  1  0  0  0  0  0999 V2000
   12.4431  -17.2355   32.0683 O   0  0  0  0  0  0  0  0  0  0  0  0
   11.8322  -17.0045   30.8282 C   0  0  0  0  0  0  0  0  0  0  0  0
   11.9219  -17.9527   29.8311 C   0  0  0  0  0  0  0  0  0  0  0  0
   11.3123  -17.7138   28.6044 C   0  0  0  0  0  0  0  0  0  0  0  0
   10.6171  -16.5479   28.3579 C   0  0  0  0  0  0  0  0  0  0  0  0
    9.9959  -16.3651   27.0301 C   0  0  0  0  0  0  0  0  0  0  0  0
    8.5493  -16.8159   27.0132 C   0  0  2  0  0  0  0  0  0  0  0  0
    8.5513  -18.2666   26.9777 N   0  0  0  0  0  0  0  0  0  0  0  0
    7.9531  -16.2722   25.7400 C   0  0  0  0  0  0  0  0  0  0  0  0
    7.1377  -16.9652   25.0785 O   0  0  0  0  0  0  0  0  0  0  0  0
   10.5309  -15.6000   29.3635 C   0  0  0  0  0  0  0  0  0  0  0  0
   11.1378  -15.8436   30.5773 C   0  0  0  0  0  0  0  0  0  0  0  0
    5.3514  -12.8860   26.2866 C   0  0  0  0  0  0  0  0  0  0  0  0
    6.7602  -12.5286   25.9160 C   0  0  2  0  0  0  0  0  0  0  0  0
    7.0925  -11.1013   26.2931 C   0  0  0  0  0  0  0  0  0  0  0  0
    7.1887  -12.8910   24.5488 C   0  0  0  0  0  0  0  0  0  0  0  0
    7.5669  -14.2831   24.2492 C   0  0  2  0  0  0  0  0  0  0  0  0
    8.3032  -14.9753   25.2731 N   0  0  0  0  0  0  0  0  0  0  0  0
    8.0583  -14.5445   22.8701 C   0  0  0  0  0  0  0  0  0  0  0  0
    7.3608  -14.0584   21.9392 O   0  0  0  0  0  0  0  0  0  0  0  0
    9.2226  -15.2898   22.5992 N   0  0  0  0  0  0  0  0  0  0  0  0
    9.6388  -15.5457   21.2525 C   0  0  0  0  0  0  0  0  0  0  0  0
   10.8687  -16.3521   21.1456 C   0  0  0  0  0  0  0  0  0  0  0  0
   11.8847  -16.1642   20.2380 O   0  0  0  0  0  0  0  0  0  0  0  0
   11.0465  -17.3321   21.9584 O   0  0  0  0  0  0  0  0  0  0  0  0
  2  1  1  0
  3  2  2  0
  4  3  1  0
  5 11  1  0
  5  4  2  0
  6  5  1  0
  7  9  1  0
  7  6  1  0
  7  8  1  6
  9 18  1  0
  9 10  2  0
 11 12  2  0
 12  2  1  0
 14 13  1  6
 14 15  1  0
 16 14  1  0
 17 16  1  1
 18 17  1  0
 19 21  1  0
 19 17  1  0
 20 19  2  0
 22 21  1  0
 23 24  1  0
 23 22  1  0
 25 23  2  0
M  END
$$$$
