YLG.pdb
     RDKit          3D

 25 25  0  0  1  0  0  0  0  0999 V2000
    7.7529  -11.1404   26.8296 O   0  0  0  0  0  0  0  0  0  0  0  0
    7.5625  -12.5124   26.6153 C   0  0  0  0  0  0  0  0  0  0  0  0
    8.6529  -13.3525   26.5336 C   0  0  0  0  0  0  0  0  0  0  0  0
    8.4532  -14.7121   26.3207 C   0  0  0  0  0  0  0  0  0  0  0  0
    7.1873  -15.2445   26.1887 C   0  0  0  0  0  0  0  0  0  0  0  0
    7.0542  -16.6986   25.9645 C   0  0  0  0  0  0  0  0  0  0  0  0
    6.5491  -17.0143   24.5712 C   0  0  2  0  0  0  0  0  0  0  0  0
    6.2499  -18.4338   24.5336 N   0  0  0  0  0  0  0  0  0  0  0  0
    7.6852  -16.7042   23.6304 C   0  0  0  0  0  0  0  0  0  0  0  0
    8.4555  -17.6218   23.2467 O   0  0  0  0  0  0  0  0  0  0  0  0
    6.0968  -14.3952   26.2718 C   0  0  0  0  0  0  0  0  0  0  0  0
    6.3024  -13.0483   26.4830 C   0  0  0  0  0  0  0  0  0  0  0  0
    7.1288  -14.5810   19.4960 C   0  0  0  0  0  0  0  0  0  0  0  0
    7.3486  -13.5831   20.5942 C   0  0  2  0  0  0  0  0  0  0  0  0
    7.1614  -12.1634   20.1052 C   0  0  0  0  0  0  0  0  0  0  0  0
    8.5654  -13.7682   21.4121 C   0  0  0  0  0  0  0  0  0  0  0  0
    8.7980  -15.0552   22.0907 C   0  0  2  0  0  0  0  0  0  0  0  0
    7.8993  -15.3768   23.1671 N   0  0  0  0  0  0  0  0  0  0  0  0
   10.2179  -15.4022   22.3649 C   0  0  0  0  0  0  0  0  0  0  0  0
   11.0237  -15.2002   21.4167 O   0  0  0  0  0  0  0  0  0  0  0  0
   10.6545  -15.9296   23.5960 N   0  0  0  0  0  0  0  0  0  0  0  0
   12.0336  -16.2497   23.8147 C   0  0  0  0  0  0  0  0  0  0  0  0
   12.3330  -16.7213   25.1794 C   0  0  0  0  0  0  0  0  0  0  0  0
   11.4162  -16.9376   26.1814 O   0  0  0  0  0  0  0  0  0  0  0  0
   13.5530  -16.9648   25.5034 O   0  0  0  0  0  0  0  0  0  0  0  0
  2  1  1  0
  3  2  2  0
  4  3  1  0
  5 11  1  0
  5  4  2  0
  6  5  1  0
  7  9  1  0
  7  6  1  0
  7  8  1  1
  9 18  1  0
  9 10  2  0
 11 12  2  0
 12  2  1  0
 14 13  1  6
 14 15  1  0
 16 14  1  0
 17 16  1  1
 18 17  1  0
 19 21  1  0
 19 17  1  0
 20 19  2  0
 22 21  1  0
 23 24  1  0
 23 22  1  0
 25 23  2  0
M  END
$$$$
