YLG.pdb
     RDKit          3D

 25 25  0  0  1  0  0  0  0  0999 V2000
   11.3780  -15.2585   31.9901 O   0  0  0  0  0  0  0  0  0  0  0  0
   11.0435  -15.6553   30.6882 C   0  0  0  0  0  0  0  0  0  0  0  0
   10.5665  -14.7258   29.7881 C   0  0  0  0  0  0  0  0  0  0  0  0
   10.2374  -15.1298   28.4988 C   0  0  0  0  0  0  0  0  0  0  0  0
   10.3763  -16.4416   28.0951 C   0  0  0  0  0  0  0  0  0  0  0  0
   10.0063  -16.7954   26.7093 C   0  0  0  0  0  0  0  0  0  0  0  0
    8.5531  -17.2097   26.5979 C   0  0  2  0  0  0  0  0  0  0  0  0
    8.5305  -18.6436   26.3755 N   0  0  0  0  0  0  0  0  0  0  0  0
    8.0020  -16.4944   25.3909 C   0  0  0  0  0  0  0  0  0  0  0  0
    7.4132  -17.1422   24.4874 O   0  0  0  0  0  0  0  0  0  0  0  0
   10.8557  -17.3698   29.0039 C   0  0  0  0  0  0  0  0  0  0  0  0
   11.1800  -16.9621   30.2805 C   0  0  0  0  0  0  0  0  0  0  0  0
    5.4382  -12.9017   26.3257 C   0  0  0  0  0  0  0  0  0  0  0  0
    6.8284  -12.5420   25.8922 C   0  0  2  0  0  0  0  0  0  0  0  0
    7.1671  -11.1074   26.2343 C   0  0  0  0  0  0  0  0  0  0  0  0
    7.2027  -12.9225   24.5142 C   0  0  0  0  0  0  0  0  0  0  0  0
    7.5159  -14.3290   24.2066 C   0  0  2  0  0  0  0  0  0  0  0  0
    8.1402  -15.0851   25.2593 N   0  0  0  0  0  0  0  0  0  0  0  0
    8.0809  -14.5925   22.8564 C   0  0  0  0  0  0  0  0  0  0  0  0
    7.4195  -14.1321   21.8869 O   0  0  0  0  0  0  0  0  0  0  0  0
    9.2737  -15.3133   22.6515 N   0  0  0  0  0  0  0  0  0  0  0  0
    9.7452  -15.6004   21.3296 C   0  0  0  0  0  0  0  0  0  0  0  0
   11.0093  -16.3588   21.2928 C   0  0  0  0  0  0  0  0  0  0  0  0
   11.4905  -17.1805   22.2851 O   0  0  0  0  0  0  0  0  0  0  0  0
   11.7611  -16.2712   20.2538 O   0  0  0  0  0  0  0  0  0  0  0  0
  2  1  1  0
  3  2  2  0
  4  3  1  0
  5 11  1  0
  5  4  2  0
  6  5  1  0
  7  9  1  0
  7  6  1  0
  7  8  1  6
  9 18  1  0
  9 10  2  0
 11 12  2  0
 12  2  1  0
 14 13  1  6
 14 15  1  0
 16 14  1  0
 17 16  1  1
 18 17  1  0
 19 21  1  0
 19 17  1  0
 20 19  2  0
 22 21  1  0
 23 24  1  0
 23 22  1  0
 25 23  2  0
M  END
$$$$
