YLG.pdb
     RDKit          3D

 25 25  0  0  1  0  0  0  0  0999 V2000
   12.5119  -16.9377   31.7467 O   0  0  0  0  0  0  0  0  0  0  0  0
   11.8921  -16.9144   30.4899 C   0  0  0  0  0  0  0  0  0  0  0  0
   11.2043  -15.7902   30.0840 C   0  0  0  0  0  0  0  0  0  0  0  0
   10.5929  -15.7773   28.8351 C   0  0  0  0  0  0  0  0  0  0  0  0
   10.6567  -16.8644   27.9881 C   0  0  0  0  0  0  0  0  0  0  0  0
    9.9824  -16.7765   26.6766 C   0  0  0  0  0  0  0  0  0  0  0  0
    8.4772  -16.8976   26.8030 C   0  0  2  0  0  0  0  0  0  0  0  0
    8.1606  -18.3135   26.8312 N   0  0  0  0  0  0  0  0  0  0  0  0
    7.8978  -16.2667   25.5626 C   0  0  0  0  0  0  0  0  0  0  0  0
    7.3085  -16.9782   24.7088 O   0  0  0  0  0  0  0  0  0  0  0  0
   11.3489  -17.9900   28.4019 C   0  0  0  0  0  0  0  0  0  0  0  0
   11.9527  -17.9957   29.6414 C   0  0  0  0  0  0  0  0  0  0  0  0
    5.1642  -12.7950   26.2826 C   0  0  0  0  0  0  0  0  0  0  0  0
    6.5432  -12.4437   25.8083 C   0  0  2  0  0  0  0  0  0  0  0  0
    6.8851  -10.9996   26.1040 C   0  0  0  0  0  0  0  0  0  0  0  0
    6.8876  -12.8602   24.4329 C   0  0  0  0  0  0  0  0  0  0  0  0
    7.4479  -14.2024   24.1972 C   0  0  2  0  0  0  0  0  0  0  0  0
    8.0097  -14.8660   25.3434 N   0  0  0  0  0  0  0  0  0  0  0  0
    8.2443  -14.3688   22.9523 C   0  0  0  0  0  0  0  0  0  0  0  0
    7.7124  -13.9250   21.8990 O   0  0  0  0  0  0  0  0  0  0  0  0
    9.5107  -14.9852   22.9285 N   0  0  0  0  0  0  0  0  0  0  0  0
   10.2348  -15.1376   21.7019 C   0  0  0  0  0  0  0  0  0  0  0  0
   10.0733  -16.4591   21.0679 C   0  0  0  0  0  0  0  0  0  0  0  0
    9.0541  -16.8341   20.2241 O   0  0  0  0  0  0  0  0  0  0  0  0
   10.9455  -17.3746   21.2995 O   0  0  0  0  0  0  0  0  0  0  0  0
  2  1  1  0
  3  2  2  0
  4  3  1  0
  5 11  1  0
  5  4  2  0
  6  5  1  0
  7  9  1  0
  7  6  1  0
  7  8  1  6
  9 18  1  0
  9 10  2  0
 11 12  2  0
 12  2  1  0
 14 13  1  6
 14 15  1  0
 16 14  1  0
 17 16  1  1
 18 17  1  0
 19 21  1  0
 19 17  1  0
 20 19  2  0
 22 21  1  0
 23 24  1  0
 23 22  1  0
 25 23  2  0
M  END
$$$$
