YLG.pdb
     RDKit          3D

 25 25  0  0  1  0  0  0  0  0999 V2000
    6.9406  -10.8368   27.2218 O   0  0  0  0  0  0  0  0  0  0  0  0
    7.1077  -12.2029   26.9564 C   0  0  0  0  0  0  0  0  0  0  0  0
    6.0090  -12.9875   26.6761 C   0  0  0  0  0  0  0  0  0  0  0  0
    6.1856  -14.3417   26.4142 C   0  0  0  0  0  0  0  0  0  0  0  0
    7.4366  -14.9230   26.4274 C   0  0  0  0  0  0  0  0  0  0  0  0
    7.5454  -16.3679   26.1393 C   0  0  0  0  0  0  0  0  0  0  0  0
    6.7426  -16.7651   24.9171 C   0  0  2  0  0  0  0  0  0  0  0  0
    6.3112  -18.1367   25.1132 N   0  0  0  0  0  0  0  0  0  0  0  0
    7.6895  -16.6872   23.7469 C   0  0  0  0  0  0  0  0  0  0  0  0
    8.1584  -17.7402   23.2430 O   0  0  0  0  0  0  0  0  0  0  0  0
    8.5357  -14.1294   26.7095 C   0  0  0  0  0  0  0  0  0  0  0  0
    8.3530  -12.7875   26.9683 C   0  0  0  0  0  0  0  0  0  0  0  0
    6.7037  -14.3852   19.9832 C   0  0  0  0  0  0  0  0  0  0  0  0
    7.4991  -13.4856   20.8823 C   0  0  2  0  0  0  0  0  0  0  0  0
    7.5556  -12.0706   20.3492 C   0  0  0  0  0  0  0  0  0  0  0  0
    8.8112  -13.9998   21.3270 C   0  0  0  0  0  0  0  0  0  0  0  0
    8.8868  -15.2930   22.0291 C   0  0  2  0  0  0  0  0  0  0  0  0
    8.0626  -15.4283   23.2005 N   0  0  0  0  0  0  0  0  0  0  0  0
   10.2459  -15.8787   22.1757 C   0  0  0  0  0  0  0  0  0  0  0  0
   10.9003  -16.0172   21.1070 O   0  0  0  0  0  0  0  0  0  0  0  0
   10.7842  -16.2661   23.4184 N   0  0  0  0  0  0  0  0  0  0  0  0
   12.0556  -16.9212   23.5005 C   0  0  0  0  0  0  0  0  0  0  0  0
   13.2063  -16.0366   23.2402 C   0  0  0  0  0  0  0  0  0  0  0  0
   14.0421  -15.4940   24.1881 O   0  0  0  0  0  0  0  0  0  0  0  0
   13.4889  -15.7187   22.0271 O   0  0  0  0  0  0  0  0  0  0  0  0
  2  1  1  0
  3  2  2  0
  4  3  1  0
  5 11  1  0
  5  4  2  0
  6  5  1  0
  7  9  1  0
  7  6  1  0
  7  8  1  1
  9 18  1  0
  9 10  2  0
 11 12  2  0
 12  2  1  0
 14 13  1  6
 14 15  1  0
 16 14  1  0
 17 16  1  1
 18 17  1  0
 19 21  1  0
 19 17  1  0
 20 19  2  0
 22 21  1  0
 23 24  1  0
 23 22  1  0
 25 23  2  0
M  END
$$$$
