YLG.pdb
     RDKit          3D

 25 25  0  0  1  0  0  0  0  0999 V2000
   11.2239  -14.8918   31.7614 O   0  0  0  0  0  0  0  0  0  0  0  0
   10.8520  -15.3941   30.5069 C   0  0  0  0  0  0  0  0  0  0  0  0
   10.8912  -16.7523   30.2718 C   0  0  0  0  0  0  0  0  0  0  0  0
   10.5202  -17.2405   29.0237 C   0  0  0  0  0  0  0  0  0  0  0  0
   10.1122  -16.3979   28.0104 C   0  0  0  0  0  0  0  0  0  0  0  0
    9.7331  -16.9901   26.7112 C   0  0  0  0  0  0  0  0  0  0  0  0
    8.2470  -17.2742   26.6288 C   0  0  2  0  0  0  0  0  0  0  0  0
    8.0943  -18.6944   26.3724 N   0  0  0  0  0  0  0  0  0  0  0  0
    7.7307  -16.4822   25.4548 C   0  0  0  0  0  0  0  0  0  0  0  0
    6.8719  -16.9832   24.6840 O   0  0  0  0  0  0  0  0  0  0  0  0
   10.0752  -15.0352   28.2532 C   0  0  0  0  0  0  0  0  0  0  0  0
   10.4444  -14.5583   29.4931 C   0  0  0  0  0  0  0  0  0  0  0  0
    5.5871  -12.9974   26.4671 C   0  0  0  0  0  0  0  0  0  0  0  0
    6.9894  -12.6041   26.1079 C   0  0  2  0  0  0  0  0  0  0  0  0
    7.3121  -11.2000   26.5707 C   0  0  0  0  0  0  0  0  0  0  0  0
    7.4092  -12.8764   24.7174 C   0  0  0  0  0  0  0  0  0  0  0  0
    7.5821  -14.2690   24.2683 C   0  0  2  0  0  0  0  0  0  0  0  0
    8.2057  -15.1652   25.2052 N   0  0  0  0  0  0  0  0  0  0  0  0
    8.0362  -14.4512   22.8639 C   0  0  0  0  0  0  0  0  0  0  0  0
    7.3946  -13.8038   21.9930 O   0  0  0  0  0  0  0  0  0  0  0  0
    9.1081  -15.2929   22.5076 N   0  0  0  0  0  0  0  0  0  0  0  0
    9.4595  -15.4997   21.1342 C   0  0  0  0  0  0  0  0  0  0  0  0
   10.6522  -16.3445   20.9388 C   0  0  0  0  0  0  0  0  0  0  0  0
   11.3912  -16.4484   19.7836 O   0  0  0  0  0  0  0  0  0  0  0  0
   11.0736  -17.0670   21.9150 O   0  0  0  0  0  0  0  0  0  0  0  0
  2  1  1  0
  3  2  2  0
  4  3  1  0
  5 11  1  0
  5  4  2  0
  6  5  1  0
  7  9  1  0
  7  6  1  0
  7  8  1  6
  9 18  1  0
  9 10  2  0
 11 12  2  0
 12  2  1  0
 14 13  1  6
 14 15  1  0
 16 14  1  0
 17 16  1  1
 18 17  1  0
 19 21  1  0
 19 17  1  0
 20 19  2  0
 22 21  1  0
 23 24  1  0
 23 22  1  0
 25 23  2  0
M  END
$$$$
