YLG.pdb
     RDKit          3D

 25 25  0  0  1  0  0  0  0  0999 V2000
   12.5995  -17.7548   32.1744 O   0  0  0  0  0  0  0  0  0  0  0  0
   12.0647  -17.4742   30.9096 C   0  0  0  0  0  0  0  0  0  0  0  0
   11.2237  -16.3941   30.7438 C   0  0  0  0  0  0  0  0  0  0  0  0
   10.6984  -16.1243   29.4849 C   0  0  0  0  0  0  0  0  0  0  0  0
   10.9980  -16.9124   28.3929 C   0  0  0  0  0  0  0  0  0  0  0  0
   10.4021  -16.5632   27.0870 C   0  0  0  0  0  0  0  0  0  0  0  0
    8.9672  -17.0367   26.9729 C   0  0  2  0  0  0  0  0  0  0  0  0
    9.0003  -18.4815   26.8414 N   0  0  0  0  0  0  0  0  0  0  0  0
    8.4182  -16.4190   25.7123 C   0  0  0  0  0  0  0  0  0  0  0  0
    7.9954  -17.1528   24.7820 O   0  0  0  0  0  0  0  0  0  0  0  0
   11.8432  -17.9954   28.5663 C   0  0  0  0  0  0  0  0  0  0  0  0
   12.3603  -18.2568   29.8175 C   0  0  0  0  0  0  0  0  0  0  0  0
    5.6007  -12.9231   26.7459 C   0  0  0  0  0  0  0  0  0  0  0  0
    6.9378  -12.5840   26.1566 C   0  0  2  0  0  0  0  0  0  0  0  0
    7.3154  -11.1425   26.4200 C   0  0  0  0  0  0  0  0  0  0  0  0
    7.1617  -13.0048   24.7578 C   0  0  0  0  0  0  0  0  0  0  0  0
    7.6828  -14.3543   24.4778 C   0  0  2  0  0  0  0  0  0  0  0  0
    8.3716  -15.0058   25.5598 N   0  0  0  0  0  0  0  0  0  0  0  0
    8.3261  -14.5440   23.1505 C   0  0  0  0  0  0  0  0  0  0  0  0
    7.6681  -14.1280   22.1589 O   0  0  0  0  0  0  0  0  0  0  0  0
    9.5863  -15.1524   22.9890 N   0  0  0  0  0  0  0  0  0  0  0  0
   10.1728  -15.3026   21.6906 C   0  0  0  0  0  0  0  0  0  0  0  0
   10.2387  -16.6978   21.2177 C   0  0  0  0  0  0  0  0  0  0  0  0
   11.1391  -17.2041   20.3098 O   0  0  0  0  0  0  0  0  0  0  0  0
    9.3931  -17.5528   21.6722 O   0  0  0  0  0  0  0  0  0  0  0  0
  2  1  1  0
  3  2  2  0
  4  3  1  0
  5 11  1  0
  5  4  2  0
  6  5  1  0
  7  9  1  0
  7  6  1  0
  7  8  1  6
  9 18  1  0
  9 10  2  0
 11 12  2  0
 12  2  1  0
 14 13  1  6
 14 15  1  0
 16 14  1  0
 17 16  1  1
 18 17  1  0
 19 21  1  0
 19 17  1  0
 20 19  2  0
 22 21  1  0
 23 24  1  0
 23 22  1  0
 25 23  2  0
M  END
$$$$
