YLG.pdb
     RDKit          3D

 25 25  0  0  1  0  0  0  0  0999 V2000
    6.1177  -10.6909   27.1073 O   0  0  0  0  0  0  0  0  0  0  0  0
    6.5527  -11.9856   26.7927 C   0  0  0  0  0  0  0  0  0  0  0  0
    6.3048  -13.0244   27.6650 C   0  0  0  0  0  0  0  0  0  0  0  0
    6.7406  -14.3051   27.3435 C   0  0  0  0  0  0  0  0  0  0  0  0
    7.4174  -14.5646   26.1697 C   0  0  0  0  0  0  0  0  0  0  0  0
    7.8491  -15.9509   25.8967 C   0  0  0  0  0  0  0  0  0  0  0  0
    7.0478  -16.5851   24.7779 C   0  0  2  0  0  0  0  0  0  0  0  0
    6.7816  -17.9583   25.1645 N   0  0  0  0  0  0  0  0  0  0  0  0
    7.9325  -16.5578   23.5577 C   0  0  0  0  0  0  0  0  0  0  0  0
    8.4664  -17.6180   23.1413 O   0  0  0  0  0  0  0  0  0  0  0  0
    7.6630  -13.5170   25.2982 C   0  0  0  0  0  0  0  0  0  0  0  0
    7.2280  -12.2497   25.6236 C   0  0  0  0  0  0  0  0  0  0  0  0
    7.4231  -12.3935   19.4792 C   0  0  0  0  0  0  0  0  0  0  0  0
    7.6940  -13.8071   19.9014 C   0  0  2  0  0  0  0  0  0  0  0  0
    6.4193  -14.5349   20.2692 C   0  0  0  0  0  0  0  0  0  0  0  0
    8.7847  -13.9998   20.8797 C   0  0  0  0  0  0  0  0  0  0  0  0
    8.8853  -15.2713   21.6173 C   0  0  2  0  0  0  0  0  0  0  0  0
    8.1733  -15.3390   22.8656 N   0  0  0  0  0  0  0  0  0  0  0  0
   10.2325  -15.9000   21.6554 C   0  0  0  0  0  0  0  0  0  0  0  0
   10.5992  -16.4731   20.5940 O   0  0  0  0  0  0  0  0  0  0  0  0
   11.0593  -15.8736   22.7956 N   0  0  0  0  0  0  0  0  0  0  0  0
   12.4355  -16.2642   22.7190 C   0  0  0  0  0  0  0  0  0  0  0  0
   13.1882  -16.0650   23.9712 C   0  0  0  0  0  0  0  0  0  0  0  0
   14.5550  -16.1226   24.1130 O   0  0  0  0  0  0  0  0  0  0  0  0
   12.5442  -15.8116   25.0545 O   0  0  0  0  0  0  0  0  0  0  0  0
  2  1  1  0
  3  2  2  0
  4  3  1  0
  5 11  1  0
  5  4  2  0
  6  5  1  0
  7  9  1  0
  7  6  1  0
  7  8  1  1
  9 18  1  0
  9 10  2  0
 11 12  2  0
 12  2  1  0
 14 13  1  1
 14 15  1  0
 16 14  1  0
 17 16  1  1
 18 17  1  0
 19 21  1  0
 19 17  1  0
 20 19  2  0
 22 21  1  0
 23 24  1  0
 23 22  1  0
 25 23  2  0
M  END
$$$$
