DLV.pdb
     RDKit          3D

 24 23  0  0  1  0  0  0  0  0999 V2000
   22.6887  -13.7089  -21.2796 N   0  0  0  0  0  0  0  0  0  0  0  0
   22.9410  -12.3164  -21.0044 C   0  0  1  0  0  0  0  0  0  0  0  0
   21.7741  -11.5191  -21.5789 C   0  0  0  0  0  0  0  0  0  0  0  0
   21.8521  -11.4039  -23.0387 C   0  0  0  0  0  0  0  0  0  0  0  0
   22.7944  -11.9611  -23.6612 O   0  0  0  0  0  0  0  0  0  0  0  0
   23.0189  -12.0508  -19.5433 C   0  0  0  0  0  0  0  0  0  0  0  0
   22.2781  -12.7063  -18.7521 O   0  0  0  0  0  0  0  0  0  0  0  0
   20.9177  -10.6948  -23.7872 O   0  0  0  0  0  0  0  0  0  0  0  0
   25.3400  -11.2491  -15.0031 C   0  0  0  0  0  0  0  0  0  0  0  0
   25.7000  -10.0725  -15.9212 C   0  0  1  0  0  0  0  0  0  0  0  0
   27.1255   -9.7311  -15.6103 C   0  0  0  0  0  0  0  0  0  0  0  0
   25.4694  -10.4611  -17.3443 C   0  0  0  0  0  0  0  0  0  0  0  0
   24.0253  -10.7435  -17.6604 C   0  0  2  0  0  0  0  0  0  0  0  0
   23.9181  -11.0716  -19.0607 N   0  0  0  0  0  0  0  0  0  0  0  0
   23.2635   -9.5184  -17.3854 C   0  0  0  0  0  0  0  0  0  0  0  0
   23.6144   -8.4472  -17.9832 O   0  0  0  0  0  0  0  0  0  0  0  0
   19.4765   -9.4557  -15.4020 C   0  0  0  0  0  0  0  0  0  0  0  0
   19.9390   -8.4388  -16.4340 C   0  0  2  0  0  0  0  0  0  0  0  0
   19.6190   -9.0039  -17.8006 C   0  0  0  0  0  0  0  0  0  0  0  0
   21.4414   -8.2247  -16.3381 C   0  0  2  0  0  0  0  0  0  0  0  0
   22.1686   -9.4510  -16.5020 N   0  0  0  0  0  0  0  0  0  0  0  0
   21.7109   -7.6291  -15.0078 C   0  0  0  0  0  0  0  0  0  0  0  0
   21.3767   -6.3017  -14.7595 O   0  0  0  0  0  0  0  0  0  0  0  0
   22.2421   -8.3068  -14.0866 O   0  0  0  0  0  0  0  0  0  0  0  0
  2  1  1  1
  2  3  1  0
  4  3  1  0
  4  5  2  0
  6  7  2  0
  6  2  1  0
  8  4  1  0
 10  9  1  1
 10 12  1  0
 11 10  1  0
 13 12  1  6
 13 15  1  0
 13 14  1  0
 14  6  1  0
 15 21  1  0
 16 15  2  0
 18 17  1  1
 18 19  1  0
 18 20  1  0
 20 22  1  0
 20 21  1  1
 22 24  2  0
 22 23  1  0
M  END
$$$$
