DLV.pdb
     RDKit          3D

 24 23  0  0  1  0  0  0  0  0999 V2000
   27.8964  -21.2308  -16.2980 N   0  0  0  0  0  0  0  0  0  0  0  0
   27.0608  -20.2159  -15.7060 C   0  0  1  0  0  0  0  0  0  0  0  0
   26.4701  -19.3901  -16.8446 C   0  0  0  0  0  0  0  0  0  0  0  0
   27.5055  -18.6881  -17.6100 C   0  0  0  0  0  0  0  0  0  0  0  0
   27.5382  -18.7960  -18.8643 O   0  0  0  0  0  0  0  0  0  0  0  0
   25.9429  -20.8108  -14.9266 C   0  0  0  0  0  0  0  0  0  0  0  0
   25.3557  -21.8419  -15.3701 O   0  0  0  0  0  0  0  0  0  0  0  0
   28.4745  -17.8915  -17.0078 O   0  0  0  0  0  0  0  0  0  0  0  0
   26.2399  -20.2771   -9.4003 C   0  0  0  0  0  0  0  0  0  0  0  0
   26.0605  -20.8741  -10.8033 C   0  0  1  0  0  0  0  0  0  0  0  0
   26.0295  -22.3604  -10.6155 C   0  0  0  0  0  0  0  0  0  0  0  0
   24.8228  -20.3190  -11.4274 C   0  0  0  0  0  0  0  0  0  0  0  0
   24.5816  -20.8207  -12.8256 C   0  0  2  0  0  0  0  0  0  0  0  0
   25.5535  -20.2168  -13.7036 N   0  0  0  0  0  0  0  0  0  0  0  0
   23.2331  -20.3957  -13.2226 C   0  0  0  0  0  0  0  0  0  0  0  0
   22.9143  -19.1726  -13.0484 O   0  0  0  0  0  0  0  0  0  0  0  0
   20.7299  -22.6589  -15.7739 C   0  0  0  0  0  0  0  0  0  0  0  0
   20.6372  -21.1498  -15.6090 C   0  0  2  0  0  0  0  0  0  0  0  0
   21.6470  -20.5293  -16.5494 C   0  0  0  0  0  0  0  0  0  0  0  0
   20.9880  -20.7447  -14.1859 C   0  0  2  0  0  0  0  0  0  0  0  0
   22.2680  -21.2542  -13.7841 N   0  0  0  0  0  0  0  0  0  0  0  0
   19.9153  -21.2703  -13.3082 C   0  0  0  0  0  0  0  0  0  0  0  0
   20.1960  -22.2833  -12.3970 O   0  0  0  0  0  0  0  0  0  0  0  0
   18.7413  -20.8141  -13.3704 O   0  0  0  0  0  0  0  0  0  0  0  0
  2  1  1  6
  2  3  1  0
  4  3  1  0
  4  5  2  0
  6  7  2  0
  6  2  1  0
  8  4  1  0
 10  9  1  1
 10 12  1  0
 11 10  1  0
 13 12  1  1
 13 15  1  0
 13 14  1  0
 14  6  1  0
 15 21  1  0
 16 15  2  0
 18 17  1  1
 18 19  1  0
 18 20  1  0
 20 22  1  0
 20 21  1  1
 22 24  2  0
 22 23  1  0
M  END
$$$$
