DLV.pdb
     RDKit          3D

 24 23  0  0  1  0  0  0  0  0999 V2000
   17.7837  -24.2208   -6.7903 N   0  0  0  0  0  0  0  0  0  0  0  0
   18.5930  -24.3865   -7.9720 C   0  0  1  0  0  0  0  0  0  0  0  0
   17.7283  -25.0736   -9.0243 C   0  0  0  0  0  0  0  0  0  0  0  0
   18.0289  -26.5046   -9.1349 C   0  0  0  0  0  0  0  0  0  0  0  0
   18.1082  -27.2098   -8.0945 O   0  0  0  0  0  0  0  0  0  0  0  0
   19.0458  -23.0785   -8.5153 C   0  0  0  0  0  0  0  0  0  0  0  0
   18.2311  -22.1097   -8.5629 O   0  0  0  0  0  0  0  0  0  0  0  0
   18.2355  -27.1367  -10.3572 O   0  0  0  0  0  0  0  0  0  0  0  0
   22.6774  -19.3043   -9.0335 C   0  0  0  0  0  0  0  0  0  0  0  0
   23.0414  -20.4886   -9.9400 C   0  0  1  0  0  0  0  0  0  0  0  0
   24.5387  -20.5480   -9.9556 C   0  0  0  0  0  0  0  0  0  0  0  0
   22.3938  -21.7306   -9.4228 C   0  0  0  0  0  0  0  0  0  0  0  0
   20.8906  -21.6910   -9.4844 C   0  0  2  0  0  0  0  0  0  0  0  0
   20.3776  -22.9369   -8.9698 N   0  0  0  0  0  0  0  0  0  0  0  0
   20.5083  -21.5504  -10.8954 C   0  0  0  0  0  0  0  0  0  0  0  0
   20.5591  -22.5876  -11.6367 O   0  0  0  0  0  0  0  0  0  0  0  0
   18.6453  -18.0853  -12.4312 C   0  0  0  0  0  0  0  0  0  0  0  0
   18.4994  -19.4369  -13.1130 C   0  0  2  0  0  0  0  0  0  0  0  0
   17.3043  -20.1287  -12.4947 C   0  0  0  0  0  0  0  0  0  0  0  0
   19.7327  -20.2933  -12.8724 C   0  0  2  0  0  0  0  0  0  0  0  0
   20.0887  -20.3412  -11.4830 N   0  0  0  0  0  0  0  0  0  0  0  0
   20.8318  -19.7067  -13.6755 C   0  0  0  0  0  0  0  0  0  0  0  0
   20.7986  -19.7875  -15.0639 O   0  0  0  0  0  0  0  0  0  0  0  0
   21.8066  -19.1297  -13.1214 O   0  0  0  0  0  0  0  0  0  0  0  0
  2  1  1  1
  2  3  1  0
  4  3  1  0
  4  5  2  0
  6  7  2  0
  6  2  1  0
  8  4  1  0
 10  9  1  1
 10 12  1  0
 11 10  1  0
 13 12  1  6
 13 15  1  0
 13 14  1  0
 14  6  1  0
 15 21  1  0
 16 15  2  0
 18 17  1  1
 18 19  1  0
 18 20  1  0
 20 22  1  0
 20 21  1  1
 22 24  2  0
 22 23  1  0
M  END
$$$$
