DLV.pdb
     RDKit          3D

 24 23  0  0  1  0  0  0  0  0999 V2000
   28.2269  -20.9607  -14.7688 N   0  0  0  0  0  0  0  0  0  0  0  0
   27.6430  -20.3048  -15.9123 C   0  0  1  0  0  0  0  0  0  0  0  0
   26.9151  -21.3698  -16.7266 C   0  0  0  0  0  0  0  0  0  0  0  0
   27.8336  -22.3865  -17.2491 C   0  0  0  0  0  0  0  0  0  0  0  0
   29.0480  -22.1024  -17.4239 O   0  0  0  0  0  0  0  0  0  0  0  0
   26.6581  -19.2672  -15.5065 C   0  0  0  0  0  0  0  0  0  0  0  0
   25.9554  -19.4495  -14.4685 O   0  0  0  0  0  0  0  0  0  0  0  0
   27.4229  -23.6770  -17.5685 O   0  0  0  0  0  0  0  0  0  0  0  0
   25.6943  -13.9657  -14.6954 C   0  0  0  0  0  0  0  0  0  0  0  0
   25.5082  -14.4974  -16.1235 C   0  0  1  0  0  0  0  0  0  0  0  0
   25.8542  -13.3583  -17.0336 C   0  0  0  0  0  0  0  0  0  0  0  0
   26.3605  -15.7074  -16.3207 C   0  0  0  0  0  0  0  0  0  0  0  0
   25.7004  -16.9833  -15.8720 C   0  0  2  0  0  0  0  0  0  0  0  0
   26.5217  -18.0945  -16.2852 N   0  0  0  0  0  0  0  0  0  0  0  0
   24.3948  -17.0653  -16.5396 C   0  0  0  0  0  0  0  0  0  0  0  0
   24.3768  -17.1607  -17.8118 O   0  0  0  0  0  0  0  0  0  0  0  0
   20.7050  -17.6038  -14.4645 C   0  0  0  0  0  0  0  0  0  0  0  0
   20.9249  -18.0478  -15.9024 C   0  0  2  0  0  0  0  0  0  0  0  0
   21.4919  -19.4499  -15.8611 C   0  0  0  0  0  0  0  0  0  0  0  0
   21.9287  -17.1396  -16.5951 C   0  0  2  0  0  0  0  0  0  0  0  0
   23.1596  -17.0453  -15.8633 N   0  0  0  0  0  0  0  0  0  0  0  0
   21.2918  -15.8074  -16.7241 C   0  0  0  0  0  0  0  0  0  0  0  0
   20.1953  -15.6389  -17.5635 O   0  0  0  0  0  0  0  0  0  0  0  0
   21.7272  -14.8129  -16.0825 O   0  0  0  0  0  0  0  0  0  0  0  0
  2  1  1  1
  2  3  1  0
  4  3  1  0
  4  5  2  0
  6  7  2  0
  6  2  1  0
  8  4  1  0
 10  9  1  1
 10 12  1  0
 11 10  1  0
 13 12  1  6
 13 15  1  0
 13 14  1  0
 14  6  1  0
 15 21  1  0
 16 15  2  0
 18 17  1  1
 18 19  1  0
 18 20  1  0
 20 22  1  0
 20 21  1  1
 22 24  2  0
 22 23  1  0
M  END
$$$$
