DLV.pdb
     RDKit          3D

 24 23  0  0  1  0  0  0  0  0999 V2000
   21.8907  -20.3390  -14.6490 N   0  0  0  0  0  0  0  0  0  0  0  0
   21.2325  -19.8559  -13.4607 C   0  0  1  0  0  0  0  0  0  0  0  0
   19.7516  -19.6982  -13.7917 C   0  0  0  0  0  0  0  0  0  0  0  0
   19.5178  -18.6374  -14.7767 C   0  0  0  0  0  0  0  0  0  0  0  0
   18.6395  -18.7914  -15.6660 O   0  0  0  0  0  0  0  0  0  0  0  0
   21.3633  -20.8152  -12.3320 C   0  0  0  0  0  0  0  0  0  0  0  0
   21.1930  -22.0522  -12.5448 O   0  0  0  0  0  0  0  0  0  0  0  0
   20.2324  -17.4434  -14.7789 O   0  0  0  0  0  0  0  0  0  0  0  0
   25.0495  -19.6426   -8.3745 C   0  0  0  0  0  0  0  0  0  0  0  0
   24.2222  -20.4292   -9.4010 C   0  0  1  0  0  0  0  0  0  0  0  0
   24.8969  -21.7601   -9.5382 C   0  0  0  0  0  0  0  0  0  0  0  0
   22.8050  -20.5161   -8.9388 C   0  0  0  0  0  0  0  0  0  0  0  0
   21.8982  -21.2107   -9.9186 C   0  0  2  0  0  0  0  0  0  0  0  0
   21.6756  -20.3317  -11.0401 N   0  0  0  0  0  0  0  0  0  0  0  0
   20.6226  -21.4668   -9.2372 C   0  0  0  0  0  0  0  0  0  0  0  0
   19.8130  -20.4912   -9.0939 O   0  0  0  0  0  0  0  0  0  0  0  0
   16.7399  -24.0757   -8.2348 C   0  0  0  0  0  0  0  0  0  0  0  0
   18.0709  -23.8504   -8.9354 C   0  0  2  0  0  0  0  0  0  0  0  0
   18.7696  -25.1898   -9.0204 C   0  0  0  0  0  0  0  0  0  0  0  0
   18.9438  -22.8989   -8.1323 C   0  0  2  0  0  0  0  0  0  0  0  0
   20.2360  -22.7230   -8.7313 N   0  0  0  0  0  0  0  0  0  0  0  0
   19.0704  -23.4708   -6.7707 C   0  0  0  0  0  0  0  0  0  0  0  0
   17.9855  -23.4418   -5.9004 O   0  0  0  0  0  0  0  0  0  0  0  0
   20.1519  -23.9885   -6.3800 O   0  0  0  0  0  0  0  0  0  0  0  0
  2  1  1  6
  2  3  1  0
  4  3  1  0
  4  5  2  0
  6  7  2  0
  6  2  1  0
  8  4  1  0
 10  9  1  1
 10 12  1  0
 11 10  1  0
 13 12  1  1
 13 15  1  0
 13 14  1  0
 14  6  1  0
 15 21  1  0
 16 15  2  0
 18 17  1  1
 18 19  1  0
 18 20  1  0
 20 22  1  0
 20 21  1  6
 22 24  2  0
 22 23  1  0
M  END
$$$$
