DLV.pdb
     RDKit          3D

 24 23  0  0  1  0  0  0  0  0999 V2000
   18.1455  -22.4467  -10.4632 N   0  0  0  0  0  0  0  0  0  0  0  0
   18.9134  -22.7625  -11.6420 C   0  0  1  0  0  0  0  0  0  0  0  0
   17.9690  -22.6799  -12.8372 C   0  0  0  0  0  0  0  0  0  0  0  0
   17.0134  -23.7920  -12.8614 C   0  0  0  0  0  0  0  0  0  0  0  0
   15.7770  -23.5559  -12.8231 O   0  0  0  0  0  0  0  0  0  0  0  0
   20.0226  -21.7943  -11.8504 C   0  0  0  0  0  0  0  0  0  0  0  0
   19.7787  -20.5519  -11.8114 O   0  0  0  0  0  0  0  0  0  0  0  0
   17.4120  -25.1236  -12.9259 O   0  0  0  0  0  0  0  0  0  0  0  0
   24.7075  -19.9542  -10.7824 C   0  0  0  0  0  0  0  0  0  0  0  0
   24.8961  -21.2220  -11.6275 C   0  0  1  0  0  0  0  0  0  0  0  0
   26.1091  -21.9065  -11.0747 C   0  0  0  0  0  0  0  0  0  0  0  0
   23.6556  -22.0509  -11.5675 C   0  0  0  0  0  0  0  0  0  0  0  0
   22.4668  -21.3957  -12.2173 C   0  0  2  0  0  0  0  0  0  0  0  0
   21.3311  -22.2754  -12.0885 N   0  0  0  0  0  0  0  0  0  0  0  0
   22.7842  -21.2120  -13.6394 C   0  0  0  0  0  0  0  0  0  0  0  0
   23.0350  -22.2505  -14.3368 O   0  0  0  0  0  0  0  0  0  0  0  0
   22.1792  -17.5446  -15.7421 C   0  0  0  0  0  0  0  0  0  0  0  0
   22.1203  -18.9216  -16.3851 C   0  0  2  0  0  0  0  0  0  0  0  0
   20.7112  -19.4433  -16.2082 C   0  0  0  0  0  0  0  0  0  0  0  0
   23.0806  -19.8765  -15.6934 C   0  0  2  0  0  0  0  0  0  0  0  0
   22.8296  -19.9600  -14.2829 N   0  0  0  0  0  0  0  0  0  0  0  0
   24.4517  -19.3769  -15.9534 C   0  0  0  0  0  0  0  0  0  0  0  0
   25.0084  -19.5012  -17.2222 O   0  0  0  0  0  0  0  0  0  0  0  0
   25.1318  -18.8361  -15.0394 O   0  0  0  0  0  0  0  0  0  0  0  0
  2  1  1  1
  2  3  1  0
  4  3  1  0
  4  5  2  0
  6  7  2  0
  6  2  1  0
  8  4  1  0
 10  9  1  1
 10 12  1  0
 11 10  1  0
 13 12  1  1
 13 15  1  0
 13 14  1  0
 14  6  1  0
 15 21  1  0
 16 15  2  0
 18 17  1  1
 18 19  1  0
 18 20  1  0
 20 22  1  0
 20 21  1  1
 22 24  2  0
 22 23  1  0
M  END
$$$$
