DLV.pdb
     RDKit          3D

 24 23  0  0  1  0  0  0  0  0999 V2000
   18.9998  -11.4565  -18.9094 N   0  0  0  0  0  0  0  0  0  0  0  0
   20.0769  -10.4981  -18.9111 C   0  0  1  0  0  0  0  0  0  0  0  0
   19.6839   -9.3720  -19.8624 C   0  0  0  0  0  0  0  0  0  0  0  0
   19.6114   -9.8277  -21.2543 C   0  0  0  0  0  0  0  0  0  0  0  0
   18.9079   -9.1939  -22.0846 O   0  0  0  0  0  0  0  0  0  0  0  0
   20.2976   -9.9177  -17.5599 C   0  0  0  0  0  0  0  0  0  0  0  0
   19.3119   -9.7712  -16.7778 O   0  0  0  0  0  0  0  0  0  0  0  0
   20.2951  -10.9489  -21.7143 O   0  0  0  0  0  0  0  0  0  0  0  0
   24.7158  -11.6249  -14.9914 C   0  0  0  0  0  0  0  0  0  0  0  0
   23.2879  -11.1573  -15.3068 C   0  0  1  0  0  0  0  0  0  0  0  0
   22.4342  -11.6598  -14.1825 C   0  0  0  0  0  0  0  0  0  0  0  0
   23.2713   -9.6721  -15.4595 C   0  0  0  0  0  0  0  0  0  0  0  0
   21.9183   -9.1237  -15.8249 C   0  0  2  0  0  0  0  0  0  0  0  0
   21.6031   -9.5389  -17.1697 N   0  0  0  0  0  0  0  0  0  0  0  0
   22.0050   -7.6586  -15.7731 C   0  0  0  0  0  0  0  0  0  0  0  0
   22.7507   -7.0715  -16.6259 O   0  0  0  0  0  0  0  0  0  0  0  0
   19.1765   -5.1725  -16.0044 C   0  0  0  0  0  0  0  0  0  0  0  0
   20.0385   -4.7696  -14.8179 C   0  0  2  0  0  0  0  0  0  0  0  0
   20.2217   -3.2691  -14.8809 C   0  0  0  0  0  0  0  0  0  0  0  0
   21.4064   -5.4285  -14.9022 C   0  0  2  0  0  0  0  0  0  0  0  0
   21.3163   -6.8594  -14.8401 N   0  0  0  0  0  0  0  0  0  0  0  0
   22.2109   -4.9042  -13.7731 C   0  0  0  0  0  0  0  0  0  0  0  0
   22.8257   -3.6604  -13.8755 O   0  0  0  0  0  0  0  0  0  0  0  0
   22.3517   -5.5683  -12.7104 O   0  0  0  0  0  0  0  0  0  0  0  0
  2  1  1  1
  2  3  1  0
  4  3  1  0
  4  5  2  0
  6  7  2  0
  6  2  1  0
  8  4  1  0
 10  9  1  1
 10 12  1  0
 11 10  1  0
 13 12  1  6
 13 15  1  0
 13 14  1  0
 14  6  1  0
 15 21  1  0
 16 15  2  0
 18 17  1  6
 18 19  1  0
 18 20  1  0
 20 22  1  0
 20 21  1  1
 22 24  2  0
 22 23  1  0
M  END
$$$$
