DLV.pdb
     RDKit          3D

 24 23  0  0  1  0  0  0  0  0999 V2000
   28.4240  -22.0557  -16.5937 N   0  0  0  0  0  0  0  0  0  0  0  0
   27.7551  -20.9295  -15.9911 C   0  0  1  0  0  0  0  0  0  0  0  0
   26.9967  -20.2037  -17.0981 C   0  0  0  0  0  0  0  0  0  0  0  0
   27.8840  -19.3762  -17.9218 C   0  0  0  0  0  0  0  0  0  0  0  0
   29.1327  -19.4841  -17.7996 O   0  0  0  0  0  0  0  0  0  0  0  0
   26.7787  -21.3605  -14.9557 C   0  0  0  0  0  0  0  0  0  0  0  0
   25.9476  -22.2768  -15.2282 O   0  0  0  0  0  0  0  0  0  0  0  0
   27.4059  -18.4580  -18.8517 O   0  0  0  0  0  0  0  0  0  0  0  0
   25.1004  -22.0368   -9.9391 C   0  0  0  0  0  0  0  0  0  0  0  0
   25.2789  -20.5476  -10.2670 C   0  0  1  0  0  0  0  0  0  0  0  0
   25.7003  -19.8935   -8.9864 C   0  0  0  0  0  0  0  0  0  0  0  0
   26.2674  -20.3957  -11.3757 C   0  0  0  0  0  0  0  0  0  0  0  0
   25.8457  -21.0764  -12.6500 C   0  0  2  0  0  0  0  0  0  0  0  0
   26.7935  -20.7413  -13.6842 N   0  0  0  0  0  0  0  0  0  0  0  0
   24.5212  -20.5561  -13.0132 C   0  0  0  0  0  0  0  0  0  0  0  0
   24.3973  -19.2977  -13.1832 O   0  0  0  0  0  0  0  0  0  0  0  0
   21.5272  -22.7312  -14.9561 C   0  0  0  0  0  0  0  0  0  0  0  0
   21.6299  -21.2150  -14.8963 C   0  0  2  0  0  0  0  0  0  0  0  0
   22.6463  -20.7894  -15.9331 C   0  0  0  0  0  0  0  0  0  0  0  0
   22.1167  -20.7654  -13.5277 C   0  0  2  0  0  0  0  0  0  0  0  0
   23.3775  -21.3596  -13.1860 N   0  0  0  0  0  0  0  0  0  0  0  0
   21.0730  -21.1499  -12.5480 C   0  0  0  0  0  0  0  0  0  0  0  0
   19.8462  -20.4940  -12.5451 O   0  0  0  0  0  0  0  0  0  0  0  0
   21.2753  -22.0686  -11.7081 O   0  0  0  0  0  0  0  0  0  0  0  0
  2  1  1  6
  2  3  1  0
  4  3  1  0
  4  5  2  0
  6  7  2  0
  6  2  1  0
  8  4  1  0
 10  9  1  1
 10 12  1  0
 11 10  1  0
 13 12  1  1
 13 15  1  0
 13 14  1  0
 14  6  1  0
 15 21  1  0
 16 15  2  0
 18 17  1  1
 18 19  1  0
 18 20  1  0
 20 22  1  0
 20 21  1  1
 22 24  2  0
 22 23  1  0
M  END
$$$$
