DLV.pdb
     RDKit          3D

 24 23  0  0  1  0  0  0  0  0999 V2000
   26.2270  -21.4822  -13.8298 N   0  0  0  0  0  0  0  0  0  0  0  0
   25.5358  -20.5231  -13.0046 C   0  0  1  0  0  0  0  0  0  0  0  0
   24.1127  -20.4017  -13.5408 C   0  0  0  0  0  0  0  0  0  0  0  0
   24.0849  -19.9035  -14.9197 C   0  0  0  0  0  0  0  0  0  0  0  0
   24.5561  -18.7659  -15.1840 O   0  0  0  0  0  0  0  0  0  0  0  0
   25.4686  -20.9660  -11.5866 C   0  0  0  0  0  0  0  0  0  0  0  0
   24.9659  -22.0957  -11.3115 O   0  0  0  0  0  0  0  0  0  0  0  0
   23.5528  -20.6397  -15.9738 O   0  0  0  0  0  0  0  0  0  0  0  0
   27.4819  -21.1209   -6.6762 C   0  0  0  0  0  0  0  0  0  0  0  0
   26.7958  -19.7716   -6.9324 C   0  0  1  0  0  0  0  0  0  0  0  0
   27.5726  -18.7606   -6.1450 C   0  0  0  0  0  0  0  0  0  0  0  0
   26.7641  -19.4985   -8.4000 C   0  0  0  0  0  0  0  0  0  0  0  0
   25.9321  -20.4852   -9.1739 C   0  0  2  0  0  0  0  0  0  0  0  0
   25.9667  -20.1199  -10.5687 N   0  0  0  0  0  0  0  0  0  0  0  0
   24.5535  -20.3886   -8.6770 C   0  0  0  0  0  0  0  0  0  0  0  0
   23.9669  -19.2580   -8.7524 O   0  0  0  0  0  0  0  0  0  0  0  0
   21.6177  -23.2970   -8.7317 C   0  0  0  0  0  0  0  0  0  0  0  0
   21.4427  -21.8016   -8.5162 C   0  0  2  0  0  0  0  0  0  0  0  0
   21.5907  -21.1301   -9.8639 C   0  0  0  0  0  0  0  0  0  0  0  0
   22.5205  -21.2654   -7.5870 C   0  0  2  0  0  0  0  0  0  0  0  0
   23.8370  -21.4664   -8.1217 N   0  0  0  0  0  0  0  0  0  0  0  0
   22.3670  -21.9702   -6.2921 C   0  0  0  0  0  0  0  0  0  0  0  0
   23.3857  -22.7935   -5.8233 O   0  0  0  0  0  0  0  0  0  0  0  0
   21.3219  -21.8381   -5.5989 O   0  0  0  0  0  0  0  0  0  0  0  0
  2  1  1  6
  2  3  1  0
  4  3  1  0
  4  5  2  0
  6  7  2  0
  6  2  1  0
  8  4  1  0
 10  9  1  6
 10 12  1  0
 11 10  1  0
 13 12  1  1
 13 15  1  0
 13 14  1  0
 14  6  1  0
 15 21  1  0
 16 15  2  0
 18 17  1  6
 18 19  1  0
 18 20  1  0
 20 22  1  0
 20 21  1  6
 22 24  2  0
 22 23  1  0
M  END
$$$$
