VKI.pdb
     RDKit          3D

 25 24  0  0  1  0  0  0  0  0999 V2000
   24.6015  -20.7575   -9.6930 C   0  0  0  0  0  0  0  0  0  0  0  0
   25.9634  -20.6050  -10.3383 C   0  0  1  0  0  0  0  0  0  0  0  0
   26.9813  -21.2053   -9.3913 C   0  0  0  0  0  0  0  0  0  0  0  0
   25.9419  -21.3775  -11.6373 C   0  0  2  0  0  0  0  0  0  0  0  0
   27.2948  -21.4966  -12.1459 N   0  0  0  0  0  0  0  0  0  0  0  0
   25.0493  -20.7252  -12.6416 C   0  0  0  0  0  0  0  0  0  0  0  0
   25.4575  -19.7241  -13.3182 O   0  0  0  0  0  0  0  0  0  0  0  0
   23.7453  -21.2494  -12.8176 N   0  0  0  0  0  0  0  0  0  0  0  0
   22.8783  -20.8622  -13.9089 C   0  0  1  0  0  0  0  0  0  0  0  0
   23.1780  -21.7924  -15.0490 C   0  0  0  0  0  0  0  0  0  0  0  0
   23.8557  -21.1616  -16.2178 C   0  0  0  0  0  0  0  0  0  0  0  0
   22.7417  -20.6387  -17.1351 C   0  0  0  0  0  0  0  0  0  0  0  0
   23.3307  -20.0566  -18.4027 C   0  0  0  0  0  0  0  0  0  0  0  0
   22.2575  -19.4483  -19.1715 N   0  0  0  0  0  0  0  0  0  0  0  0
   21.4676  -20.9389  -13.4441 C   0  0  0  0  0  0  0  0  0  0  0  0
   21.0560  -21.9631  -12.8538 O   0  0  0  0  0  0  0  0  0  0  0  0
   18.8060  -16.0271  -12.9385 C   0  0  0  0  0  0  0  0  0  0  0  0
   19.0759  -17.3746  -13.5077 C   0  0  0  0  0  0  0  0  0  0  0  0
   18.9758  -18.5010  -12.5237 C   0  0  2  0  0  0  0  0  0  0  0  0
   20.0308  -18.2719  -11.4564 C   0  0  0  0  0  0  0  0  0  0  0  0
   19.2083  -19.8553  -13.1185 C   0  0  2  0  0  0  0  0  0  0  0  0
   20.5558  -19.8804  -13.6467 N   0  0  0  0  0  0  0  0  0  0  0  0
   18.2540  -20.2453  -14.1462 C   0  0  0  0  0  0  0  0  0  0  0  0
   16.9275  -20.4380  -13.7916 O   0  0  0  0  0  0  0  0  0  0  0  0
   18.5356  -20.4271  -15.3581 O   0  0  0  0  0  0  0  0  0  0  0  0
  2  1  1  1
  2  3  1  0
  4  6  1  0
  4  2  1  0
  4  5  1  6
  6  7  2  0
  8  6  1  0
  8  9  1  0
  9 10  1  6
 11 10  1  0
 12 13  1  0
 12 11  1  0
 13 14  1  0
 15 22  1  0
 15  9  1  0
 16 15  2  0
 18 17  1  0
 18 19  1  0
 19 20  1  1
 19 21  1  0
 21 22  1  6
 23 24  1  0
 23 21  1  0
 25 23  2  0
M  END
$$$$
