VKI.pdb
     RDKit          3D

 25 24  0  0  1  0  0  0  0  0999 V2000
   25.1253  -20.6732   -9.1586 C   0  0  0  0  0  0  0  0  0  0  0  0
   25.0416  -20.2625  -10.6142 C   0  0  1  0  0  0  0  0  0  0  0  0
   26.2564  -19.4089  -10.9127 C   0  0  0  0  0  0  0  0  0  0  0  0
   25.0742  -21.5236  -11.4467 C   0  0  2  0  0  0  0  0  0  0  0  0
   26.2858  -22.2629  -11.1485 N   0  0  0  0  0  0  0  0  0  0  0  0
   24.9831  -21.2135  -12.9048 C   0  0  0  0  0  0  0  0  0  0  0  0
   26.0398  -21.0596  -13.6022 O   0  0  0  0  0  0  0  0  0  0  0  0
   23.6960  -21.0967  -13.4845 N   0  0  0  0  0  0  0  0  0  0  0  0
   23.4833  -20.7944  -14.8830 C   0  0  1  0  0  0  0  0  0  0  0  0
   22.1624  -21.4014  -15.2596 C   0  0  0  0  0  0  0  0  0  0  0  0
   21.7116  -21.1198  -16.6527 C   0  0  0  0  0  0  0  0  0  0  0  0
   20.3812  -21.8628  -16.8367 C   0  0  0  0  0  0  0  0  0  0  0  0
   19.9095  -21.7541  -18.2715 C   0  0  0  0  0  0  0  0  0  0  0  0
   18.5817  -22.3382  -18.3646 N   0  0  0  0  0  0  0  0  0  0  0  0
   23.5228  -19.3184  -15.0607 C   0  0  0  0  0  0  0  0  0  0  0  0
   22.9306  -18.5723  -14.2486 O   0  0  0  0  0  0  0  0  0  0  0  0
   26.8844  -14.7302  -15.1563 C   0  0  0  0  0  0  0  0  0  0  0  0
   25.7140  -15.2868  -15.8867 C   0  0  0  0  0  0  0  0  0  0  0  0
   25.4681  -16.7470  -15.6543 C   0  0  2  0  0  0  0  0  0  0  0  0
   26.6850  -17.5023  -16.1573 C   0  0  0  0  0  0  0  0  0  0  0  0
   24.2652  -17.2854  -16.3649 C   0  0  2  0  0  0  0  0  0  0  0  0
   24.2163  -18.7132  -16.1311 N   0  0  0  0  0  0  0  0  0  0  0  0
   24.2197  -17.0040  -17.7924 C   0  0  0  0  0  0  0  0  0  0  0  0
   23.9682  -15.7069  -18.2129 O   0  0  0  0  0  0  0  0  0  0  0  0
   24.3932  -17.8569  -18.7000 O   0  0  0  0  0  0  0  0  0  0  0  0
  2  1  1  1
  2  3  1  0
  4  6  1  0
  4  2  1  0
  4  5  1  6
  6  7  2  0
  8  6  1  0
  8  9  1  0
  9 10  1  1
 11 10  1  0
 12 13  1  0
 12 11  1  0
 13 14  1  0
 15 22  1  0
 15  9  1  0
 16 15  2  0
 18 17  1  0
 18 19  1  0
 19 20  1  6
 19 21  1  0
 21 22  1  6
 23 24  1  0
 23 21  1  0
 25 23  2  0
M  END
$$$$
