VKI.pdb
     RDKit          3D

 25 24  0  0  1  0  0  0  0  0999 V2000
   26.8167  -19.0735  -16.6379 C   0  0  0  0  0  0  0  0  0  0  0  0
   27.4155  -20.3602  -17.1673 C   0  0  1  0  0  0  0  0  0  0  0  0
   28.7388  -20.0094  -17.8145 C   0  0  0  0  0  0  0  0  0  0  0  0
   27.6400  -21.2781  -15.9876 C   0  0  2  0  0  0  0  0  0  0  0  0
   28.1607  -22.5465  -16.4603 N   0  0  0  0  0  0  0  0  0  0  0  0
   26.3825  -21.4749  -15.2063 C   0  0  0  0  0  0  0  0  0  0  0  0
   25.3869  -22.0824  -15.7226 O   0  0  0  0  0  0  0  0  0  0  0  0
   26.3306  -20.9697  -13.8841 N   0  0  0  0  0  0  0  0  0  0  0  0
   25.1682  -21.1000  -13.0331 C   0  0  1  0  0  0  0  0  0  0  0  0
   25.6382  -20.8791  -11.6241 C   0  0  0  0  0  0  0  0  0  0  0  0
   24.5843  -21.0139  -10.5778 C   0  0  0  0  0  0  0  0  0  0  0  0
   25.2834  -20.8018   -9.2280 C   0  0  0  0  0  0  0  0  0  0  0  0
   24.2792  -20.8684   -8.0967 C   0  0  0  0  0  0  0  0  0  0  0  0
   24.9853  -20.6665   -6.8423 N   0  0  0  0  0  0  0  0  0  0  0  0
   24.1458  -20.1133  -13.4722 C   0  0  0  0  0  0  0  0  0  0  0  0
   24.4156  -18.8909  -13.4800 O   0  0  0  0  0  0  0  0  0  0  0  0
   20.5578  -18.3379  -17.5482 C   0  0  0  0  0  0  0  0  0  0  0  0
   20.3654  -18.9120  -16.1894 C   0  0  0  0  0  0  0  0  0  0  0  0
   21.5085  -19.7463  -15.6950 C   0  0  2  0  0  0  0  0  0  0  0  0
   21.1562  -21.2012  -15.9471 C   0  0  0  0  0  0  0  0  0  0  0  0
   21.7945  -19.5876  -14.2339 C   0  0  2  0  0  0  0  0  0  0  0  0
   22.8564  -20.5091  -13.8891 N   0  0  0  0  0  0  0  0  0  0  0  0
   20.6476  -19.7864  -13.3598 C   0  0  0  0  0  0  0  0  0  0  0  0
   20.4389  -21.0381  -12.8010 O   0  0  0  0  0  0  0  0  0  0  0  0
   19.8087  -18.8989  -13.0602 O   0  0  0  0  0  0  0  0  0  0  0  0
  2  1  1  1
  2  3  1  0
  4  6  1  0
  4  2  1  0
  4  5  1  6
  6  7  2  0
  8  6  1  0
  8  9  1  0
  9 10  1  1
 11 10  1  0
 12 13  1  0
 12 11  1  0
 13 14  1  0
 15 22  1  0
 15  9  1  0
 16 15  2  0
 18 17  1  0
 18 19  1  0
 19 20  1  1
 19 21  1  0
 21 22  1  1
 23 24  1  0
 23 21  1  0
 25 23  2  0
M  END
$$$$
