VKI.pdb
     RDKit          3D

 25 24  0  0  1  0  0  0  0  0999 V2000
   21.3060  -16.5542  -17.4474 C   0  0  0  0  0  0  0  0  0  0  0  0
   22.0683  -17.8331  -17.1688 C   0  0  1  0  0  0  0  0  0  0  0  0
   22.7287  -18.2561  -18.4642 C   0  0  0  0  0  0  0  0  0  0  0  0
   23.1179  -17.5209  -16.1270 C   0  0  2  0  0  0  0  0  0  0  0  0
   23.9534  -16.4339  -16.6000 N   0  0  0  0  0  0  0  0  0  0  0  0
   23.9401  -18.7261  -15.8072 C   0  0  0  0  0  0  0  0  0  0  0  0
   23.4164  -19.7315  -15.2227 O   0  0  0  0  0  0  0  0  0  0  0  0
   25.3091  -18.7174  -16.1705 N   0  0  0  0  0  0  0  0  0  0  0  0
   26.2095  -19.8131  -15.8857 C   0  0  1  0  0  0  0  0  0  0  0  0
   27.4509  -19.5730  -16.6958 C   0  0  0  0  0  0  0  0  0  0  0  0
   27.7722  -20.6367  -17.6901 C   0  0  0  0  0  0  0  0  0  0  0  0
   29.0357  -21.3419  -17.1781 C   0  0  0  0  0  0  0  0  0  0  0  0
   29.9114  -21.7652  -18.3385 C   0  0  0  0  0  0  0  0  0  0  0  0
   29.9854  -23.2168  -18.3533 N   0  0  0  0  0  0  0  0  0  0  0  0
   26.4629  -19.8503  -14.4207 C   0  0  0  0  0  0  0  0  0  0  0  0
   27.1993  -18.9890  -13.8889 O   0  0  0  0  0  0  0  0  0  0  0  0
   25.3138  -19.6365   -8.8841 C   0  0  0  0  0  0  0  0  0  0  0  0
   26.0288  -20.5037   -9.8584 C   0  0  0  0  0  0  0  0  0  0  0  0
   25.6888  -20.2434  -11.2950 C   0  0  2  0  0  0  0  0  0  0  0  0
   24.1908  -20.4326  -11.4526 C   0  0  0  0  0  0  0  0  0  0  0  0
   26.3733  -21.1596  -12.2613 C   0  0  2  0  0  0  0  0  0  0  0  0
   25.8939  -20.8391  -13.5891 N   0  0  0  0  0  0  0  0  0  0  0  0
   26.1991  -22.5788  -11.9887 C   0  0  0  0  0  0  0  0  0  0  0  0
   25.4589  -23.3464  -12.8751 O   0  0  0  0  0  0  0  0  0  0  0  0
   26.6737  -23.1842  -10.9940 O   0  0  0  0  0  0  0  0  0  0  0  0
  2  1  1  6
  2  3  1  0
  4  6  1  0
  4  2  1  0
  4  5  1  6
  6  7  2  0
  8  6  1  0
  8  9  1  0
  9 10  1  6
 11 10  1  0
 12 13  1  0
 12 11  1  0
 13 14  1  0
 15 22  1  0
 15  9  1  0
 16 15  2  0
 18 17  1  0
 18 19  1  0
 19 20  1  1
 19 21  1  0
 21 22  1  6
 23 24  1  0
 23 21  1  0
 25 23  2  0
M  END
$$$$
