VKI.pdb
     RDKit          3D

 25 24  0  0  1  0  0  0  0  0999 V2000
   28.8587  -18.7431  -15.6252 C   0  0  0  0  0  0  0  0  0  0  0  0
   28.1752  -17.7394  -16.5306 C   0  0  1  0  0  0  0  0  0  0  0  0
   28.9149  -17.7467  -17.8520 C   0  0  0  0  0  0  0  0  0  0  0  0
   26.7497  -18.2010  -16.7294 C   0  0  2  0  0  0  0  0  0  0  0  0
   26.1082  -17.3599  -17.7216 N   0  0  0  0  0  0  0  0  0  0  0  0
   25.9900  -18.1847  -15.4437 C   0  0  0  0  0  0  0  0  0  0  0  0
   25.6669  -17.0793  -14.8956 O   0  0  0  0  0  0  0  0  0  0  0  0
   25.6421  -19.4259  -14.8566 N   0  0  0  0  0  0  0  0  0  0  0  0
   24.8655  -19.5356  -13.6412 C   0  0  1  0  0  0  0  0  0  0  0  0
   23.5653  -20.1859  -14.0172 C   0  0  0  0  0  0  0  0  0  0  0  0
   22.6262  -20.4232  -12.8836 C   0  0  0  0  0  0  0  0  0  0  0  0
   21.3697  -21.0647  -13.4881 C   0  0  0  0  0  0  0  0  0  0  0  0
   20.3106  -21.2577  -12.4232 C   0  0  0  0  0  0  0  0  0  0  0  0
   19.1427  -21.8641  -13.0406 N   0  0  0  0  0  0  0  0  0  0  0  0
   25.6476  -20.3185  -12.6476 C   0  0  0  0  0  0  0  0  0  0  0  0
   26.2930  -21.3276  -13.0111 O   0  0  0  0  0  0  0  0  0  0  0  0
   28.4249  -19.4609   -7.2684 C   0  0  0  0  0  0  0  0  0  0  0  0
   27.8202  -20.4184   -8.2329 C   0  0  0  0  0  0  0  0  0  0  0  0
   27.1505  -19.7797   -9.4121 C   0  0  2  0  0  0  0  0  0  0  0  0
   26.1908  -18.7302   -8.8808 C   0  0  0  0  0  0  0  0  0  0  0  0
   26.3676  -20.7325  -10.2612 C   0  0  2  0  0  0  0  0  0  0  0  0
   25.6916  -19.9610  -11.2826 N   0  0  0  0  0  0  0  0  0  0  0  0
   25.4135  -21.5583   -9.5355 C   0  0  0  0  0  0  0  0  0  0  0  0
   25.8325  -22.7784   -9.0272 O   0  0  0  0  0  0  0  0  0  0  0  0
   24.2120  -21.2532   -9.3243 O   0  0  0  0  0  0  0  0  0  0  0  0
  2  1  1  1
  2  3  1  0
  4  6  1  0
  4  2  1  0
  4  5  1  6
  6  7  2  0
  8  6  1  0
  8  9  1  0
  9 10  1  6
 11 10  1  0
 12 13  1  0
 12 11  1  0
 13 14  1  0
 15 22  1  0
 15  9  1  0
 16 15  2  0
 18 17  1  0
 18 19  1  0
 19 20  1  1
 19 21  1  0
 21 22  1  6
 23 24  1  0
 23 21  1  0
 25 23  2  0
M  END
$$$$
