VKI.pdb
     RDKit          3D

 25 24  0  0  1  0  0  0  0  0999 V2000
   19.2906  -19.4811  -13.8234 C   0  0  0  0  0  0  0  0  0  0  0  0
   20.5540  -19.9728  -13.1478 C   0  0  1  0  0  0  0  0  0  0  0  0
   20.1402  -20.6661  -11.8667 C   0  0  0  0  0  0  0  0  0  0  0  0
   21.2172  -20.9583  -14.0824 C   0  0  2  0  0  0  0  0  0  0  0  0
   20.3213  -22.0750  -14.3147 N   0  0  0  0  0  0  0  0  0  0  0  0
   22.5254  -21.4280  -13.5361 C   0  0  0  0  0  0  0  0  0  0  0  0
   22.5917  -22.4940  -12.8390 O   0  0  0  0  0  0  0  0  0  0  0  0
   23.6814  -20.6583  -13.8143 N   0  0  0  0  0  0  0  0  0  0  0  0
   24.9911  -20.9816  -13.2922 C   0  0  1  0  0  0  0  0  0  0  0  0
   25.9920  -20.3494  -14.2160 C   0  0  0  0  0  0  0  0  0  0  0  0
   27.4195  -20.6286  -13.8878 C   0  0  0  0  0  0  0  0  0  0  0  0
   27.9322  -21.5923  -14.9669 C   0  0  0  0  0  0  0  0  0  0  0  0
   29.4159  -21.8393  -14.7927 C   0  0  0  0  0  0  0  0  0  0  0  0
   29.8980  -22.5780  -15.9480 N   0  0  0  0  0  0  0  0  0  0  0  0
   25.0823  -20.4791  -11.8954 C   0  0  0  0  0  0  0  0  0  0  0  0
   24.4041  -19.4892  -11.5389 O   0  0  0  0  0  0  0  0  0  0  0  0
   28.6859  -21.7119   -6.9486 C   0  0  0  0  0  0  0  0  0  0  0  0
   27.5130  -21.0182   -7.5451 C   0  0  0  0  0  0  0  0  0  0  0  0
   27.2542  -21.3511   -8.9836 C   0  0  2  0  0  0  0  0  0  0  0  0
   28.5196  -21.0372   -9.7613 C   0  0  0  0  0  0  0  0  0  0  0  0
   26.1309  -20.5752   -9.5985 C   0  0  2  0  0  0  0  0  0  0  0  0
   25.9208  -21.0871  -10.9361 N   0  0  0  0  0  0  0  0  0  0  0  0
   26.3288  -19.1335   -9.6331 C   0  0  0  0  0  0  0  0  0  0  0  0
   25.8587  -18.3662   -8.5781 O   0  0  0  0  0  0  0  0  0  0  0  0
   26.9036  -18.5080  -10.5602 O   0  0  0  0  0  0  0  0  0  0  0  0
  2  1  1  6
  2  3  1  0
  4  6  1  0
  4  2  1  0
  4  5  1  1
  6  7  2  0
  8  6  1  0
  8  9  1  0
  9 10  1  6
 11 10  1  0
 12 13  1  0
 12 11  1  0
 13 14  1  0
 15 22  1  0
 15  9  1  0
 16 15  2  0
 18 17  1  0
 18 19  1  0
 19 20  1  6
 19 21  1  0
 21 22  1  6
 23 24  1  0
 23 21  1  0
 25 23  2  0
M  END
$$$$
