VKI.pdb
     RDKit          3D

 25 24  0  0  1  0  0  0  0  0999 V2000
   20.5892  -19.4975  -16.1663 C   0  0  0  0  0  0  0  0  0  0  0  0
   20.5049  -19.9397  -14.7200 C   0  0  1  0  0  0  0  0  0  0  0  0
   19.2663  -20.8001  -14.5827 C   0  0  0  0  0  0  0  0  0  0  0  0
   21.7413  -20.7555  -14.4195 C   0  0  2  0  0  0  0  0  0  0  0  0
   21.6378  -21.3067  -13.0820 N   0  0  0  0  0  0  0  0  0  0  0  0
   22.9809  -19.9352  -14.5646 C   0  0  0  0  0  0  0  0  0  0  0  0
   23.2649  -19.0329  -13.7091 O   0  0  0  0  0  0  0  0  0  0  0  0
   23.8248  -20.1887  -15.6736 N   0  0  0  0  0  0  0  0  0  0  0  0
   25.1032  -19.5380  -15.8593 C   0  0  1  0  0  0  0  0  0  0  0  0
   25.9656  -20.4939  -16.6323 C   0  0  0  0  0  0  0  0  0  0  0  0
   26.8961  -21.3154  -15.8060 C   0  0  0  0  0  0  0  0  0  0  0  0
   27.7640  -22.1106  -16.7910 C   0  0  0  0  0  0  0  0  0  0  0  0
   28.6938  -23.0424  -16.0426 C   0  0  0  0  0  0  0  0  0  0  0  0
   29.4620  -23.8034  -17.0140 N   0  0  0  0  0  0  0  0  0  0  0  0
   24.8806  -18.2473  -16.5638 C   0  0  0  0  0  0  0  0  0  0  0  0
   23.9917  -18.1557  -17.4404 O   0  0  0  0  0  0  0  0  0  0  0  0
   24.1061  -12.5322  -15.4358 C   0  0  0  0  0  0  0  0  0  0  0  0
   24.7533  -13.4596  -16.4022 C   0  0  0  0  0  0  0  0  0  0  0  0
   24.9515  -14.8554  -15.8930 C   0  0  2  0  0  0  0  0  0  0  0  0
   25.9669  -14.7922  -14.7663 C   0  0  0  0  0  0  0  0  0  0  0  0
   25.4638  -15.8149  -16.9220 C   0  0  2  0  0  0  0  0  0  0  0  0
   25.6480  -17.0976  -16.2769 N   0  0  0  0  0  0  0  0  0  0  0  0
   26.6906  -15.4019  -17.5879 C   0  0  0  0  0  0  0  0  0  0  0  0
   26.6133  -14.4967  -18.6354 O   0  0  0  0  0  0  0  0  0  0  0  0
   27.8432  -15.8052  -17.2879 O   0  0  0  0  0  0  0  0  0  0  0  0
  2  1  1  6
  2  3  1  0
  4  6  1  0
  4  2  1  0
  4  5  1  1
  6  7  2  0
  8  6  1  0
  8  9  1  0
  9 10  1  6
 11 10  1  0
 12 13  1  0
 12 11  1  0
 13 14  1  0
 15 22  1  0
 15  9  1  0
 16 15  2  0
 18 17  1  0
 18 19  1  0
 19 20  1  1
 19 21  1  0
 21 22  1  1
 23 24  1  0
 23 21  1  0
 25 23  2  0
M  END
$$$$
