VKI.pdb
     RDKit          3D

 25 24  0  0  1  0  0  0  0  0999 V2000
   29.3513  -19.6692  -16.2359 C   0  0  0  0  0  0  0  0  0  0  0  0
   28.5497  -19.3861  -14.9822 C   0  0  1  0  0  0  0  0  0  0  0  0
   28.6427  -17.8987  -14.7134 C   0  0  0  0  0  0  0  0  0  0  0  0
   27.1161  -19.7764  -15.2595 C   0  0  2  0  0  0  0  0  0  0  0  0
   26.6655  -19.1157  -16.4694 N   0  0  0  0  0  0  0  0  0  0  0  0
   26.2295  -19.4401  -14.1057 C   0  0  0  0  0  0  0  0  0  0  0  0
   25.9255  -18.2274  -13.8536 O   0  0  0  0  0  0  0  0  0  0  0  0
   25.7405  -20.5022  -13.3062 N   0  0  0  0  0  0  0  0  0  0  0  0
   24.8172  -20.3064  -12.2101 C   0  0  1  0  0  0  0  0  0  0  0  0
   23.4938  -20.8575  -12.6570 C   0  0  0  0  0  0  0  0  0  0  0  0
   22.3906  -20.7383  -11.6610 C   0  0  0  0  0  0  0  0  0  0  0  0
   21.1652  -21.4179  -12.2874 C   0  0  0  0  0  0  0  0  0  0  0  0
   19.9664  -21.2945  -11.3706 C   0  0  0  0  0  0  0  0  0  0  0  0
   18.8280  -21.9292  -12.0141 N   0  0  0  0  0  0  0  0  0  0  0  0
   25.3601  -20.9883  -11.0050 C   0  0  0  0  0  0  0  0  0  0  0  0
   25.7620  -22.1714  -11.0808 O   0  0  0  0  0  0  0  0  0  0  0  0
   28.2624  -19.7519   -5.7996 C   0  0  0  0  0  0  0  0  0  0  0  0
   27.2766  -20.6207   -6.4968 C   0  0  0  0  0  0  0  0  0  0  0  0
   26.8151  -20.1024   -7.8254 C   0  0  2  0  0  0  0  0  0  0  0  0
   26.1401  -18.7640   -7.5856 C   0  0  0  0  0  0  0  0  0  0  0  0
   25.8357  -20.9942   -8.5233 C   0  0  2  0  0  0  0  0  0  0  0  0
   25.4417  -20.3405   -9.7534 N   0  0  0  0  0  0  0  0  0  0  0  0
   24.6615  -21.3475   -7.7388 C   0  0  0  0  0  0  0  0  0  0  0  0
   24.7977  -22.2538   -6.6983 O   0  0  0  0  0  0  0  0  0  0  0  0
   23.5054  -20.8904   -7.9278 O   0  0  0  0  0  0  0  0  0  0  0  0
  2  1  1  6
  2  3  1  0
  4  6  1  0
  4  2  1  0
  4  5  1  6
  6  7  2  0
  8  6  1  0
  8  9  1  0
  9 10  1  6
 11 10  1  0
 12 13  1  0
 12 11  1  0
 13 14  1  0
 15 22  1  0
 15  9  1  0
 16 15  2  0
 18 17  1  0
 18 19  1  0
 19 20  1  1
 19 21  1  0
 21 22  1  6
 23 24  1  0
 23 21  1  0
 25 23  2  0
M  END
$$$$
