VKI.pdb
     RDKit          3D

 25 24  0  0  1  0  0  0  0  0999 V2000
   19.2933  -15.9274  -17.0027 C   0  0  0  0  0  0  0  0  0  0  0  0
   19.2765  -14.4128  -16.9988 C   0  0  1  0  0  0  0  0  0  0  0  0
   20.0000  -13.9502  -18.2462 C   0  0  0  0  0  0  0  0  0  0  0  0
   17.8312  -13.9724  -17.0417 C   0  0  2  0  0  0  0  0  0  0  0  0
   17.1755  -14.5920  -18.1773 N   0  0  0  0  0  0  0  0  0  0  0  0
   17.7192  -12.4845  -17.1070 C   0  0  0  0  0  0  0  0  0  0  0  0
   17.9674  -11.8627  -18.1926 O   0  0  0  0  0  0  0  0  0  0  0  0
   17.3317  -11.7909  -15.9343 N   0  0  0  0  0  0  0  0  0  0  0  0
   17.1219  -10.3603  -15.8949 C   0  0  1  0  0  0  0  0  0  0  0  0
   15.7569  -10.1404  -15.3090 C   0  0  0  0  0  0  0  0  0  0  0  0
   14.8295   -9.3333  -16.1527 C   0  0  0  0  0  0  0  0  0  0  0  0
   13.5142   -9.2241  -15.3692 C   0  0  0  0  0  0  0  0  0  0  0  0
   12.4815   -8.4632  -16.1738 C   0  0  0  0  0  0  0  0  0  0  0  0
   11.2938   -8.2924  -15.3535 N   0  0  0  0  0  0  0  0  0  0  0  0
   18.2114   -9.7430  -15.0926 C   0  0  0  0  0  0  0  0  0  0  0  0
   18.4837  -10.1895  -13.9553 O   0  0  0  0  0  0  0  0  0  0  0  0
   23.0271   -9.9678  -16.0068 C   0  0  0  0  0  0  0  0  0  0  0  0
   21.7411   -9.6623  -15.3244 C   0  0  0  0  0  0  0  0  0  0  0  0
   21.3034   -8.2323  -15.4256 C   0  0  2  0  0  0  0  0  0  0  0  0
   22.3412   -7.3840  -14.7129 C   0  0  0  0  0  0  0  0  0  0  0  0
   19.9720   -7.9543  -14.7994 C   0  0  2  0  0  0  0  0  0  0  0  0
   18.9660   -8.6509  -15.5730 N   0  0  0  0  0  0  0  0  0  0  0  0
   19.6331   -6.5437  -14.6809 C   0  0  0  0  0  0  0  0  0  0  0  0
   19.9149   -5.8833  -13.4947 O   0  0  0  0  0  0  0  0  0  0  0  0
   19.0932   -5.8548  -15.5837 O   0  0  0  0  0  0  0  0  0  0  0  0
  2  1  1  6
  2  3  1  0
  4  6  1  0
  4  2  1  0
  4  5  1  6
  6  7  2  0
  8  6  1  0
  8  9  1  0
  9 10  1  1
 11 10  1  0
 12 13  1  0
 12 11  1  0
 13 14  1  0
 15 22  1  0
 15  9  1  0
 16 15  2  0
 18 17  1  0
 18 19  1  0
 19 20  1  1
 19 21  1  0
 21 22  1  6
 23 24  1  0
 23 21  1  0
 25 23  2  0
M  END
$$$$
