RQM.pdb
     RDKit          3D

 29 28  0  0  1  0  0  0  0  0999 V2000
   26.0296  -20.7028  -10.9835 N   0  0  0  0  0  0  0  0  0  0  0  0
   26.4514  -21.1715  -12.2748 C   0  0  0  0  0  0  0  0  0  0  0  0
   26.4394  -22.4316  -12.5557 N   0  0  0  0  0  0  0  0  0  0  0  0
   26.8926  -20.2740  -13.2801 N   0  0  0  0  0  0  0  0  0  0  0  0
   26.8025  -18.8519  -13.0154 C   0  0  0  0  0  0  0  0  0  0  0  0
   27.3215  -18.1462  -14.2535 C   0  0  0  0  0  0  0  0  0  0  0  0
   26.1643  -17.5656  -15.0358 C   0  0  0  0  0  0  0  0  0  0  0  0
   25.3986  -18.6129  -15.7837 C   0  0  2  0  0  0  0  0  0  0  0  0
   26.2014  -19.3190  -16.7403 N   0  0  0  0  0  0  0  0  0  0  0  0
   24.2317  -17.9303  -16.4376 C   0  0  0  0  0  0  0  0  0  0  0  0
   24.3920  -17.4351  -17.5761 O   0  0  0  0  0  0  0  0  0  0  0  0
   26.7940  -22.8188  -13.4604 N   0  0  0  0  0  0  0  0  0  0  0  0
   20.5624  -19.9203  -13.8695 C   0  0  0  0  0  0  0  0  0  0  0  0
   20.9192  -20.1273  -15.2141 O   0  0  0  0  0  0  0  0  0  0  0  0
   21.7914  -20.9767  -15.5004 C   0  0  0  0  0  0  0  0  0  0  0  0
   20.2133  -19.2949  -16.2505 C   0  0  0  0  0  0  0  0  0  0  0  0
   20.4979  -17.8817  -15.9266 C   0  0  2  0  0  0  0  0  0  0  0  0
   21.7870  -17.3053  -16.3521 N   0  0  0  0  0  0  0  0  0  0  0  0
   22.9724  -17.8513  -15.7734 C   0  0  0  0  0  0  0  0  0  0  0  0
   21.7969  -15.8115  -16.4773 O   0  0  0  0  0  0  0  0  0  0  0  0
   22.0395  -15.1833  -15.4102 C   0  0  0  0  0  0  0  0  0  0  0  0
   23.1233  -12.5653  -21.9490 S   0  0  0  0  0  0  0  0  0  0  0  0
   23.6673  -11.4662  -20.5949 C   0  0  0  0  0  0  0  0  0  0  0  0
   22.6565  -11.7990  -19.1453 C   0  0  0  0  0  0  0  0  0  0  0  0
   22.4808  -13.2462  -18.8947 C   0  0  1  0  0  0  0  0  0  0  0  0
   21.6499  -13.6044  -17.7428 N   0  0  0  0  0  0  0  0  0  0  0  0
   21.5636  -15.0954  -17.6402 C   0  0  0  0  0  0  0  0  0  0  0  0
   20.2821  -13.1092  -17.6850 O   0  0  0  0  0  0  0  0  0  0  0  0
   19.8328  -11.8814  -17.2425 O   0  0  0  0  0  0  0  0  0  0  0  0
  2  1  1  0
  3  2  2  0
  4  2  1  0
  4  5  1  0
  6  5  1  0
  7  6  1  0
  8 10  1  0
  8  7  1  0
  8  9  1  6
 10 11  2  0
 13 12  1  0
 13 14  2  0
 15 13  1  0
 16 15  1  0
 17 16  1  6
 17 19  1  0
 18 17  1  0
 18 10  1  0
 19 20  2  0
 22 23  1  0
 22 21  1  0
 23 24  1  0
 25 24  1  1
 25 27  1  0
 26 25  1  0
 26 19  1  0
 27 29  2  0
 27 28  1  0
M  END
$$$$
