RQM.pdb
     RDKit          3D

 29 28  0  0  1  0  0  0  0  0999 V2000
   17.3210  -21.0247  -11.9124 N   0  0  0  0  0  0  0  0  0  0  0  0
   16.3388  -20.9576  -12.9592 C   0  0  0  0  0  0  0  0  0  0  0  0
   15.0926  -21.1850  -12.7103 N   0  0  0  0  0  0  0  0  0  0  0  0
   16.6997  -20.6413  -14.2936 N   0  0  0  0  0  0  0  0  0  0  0  0
   18.1016  -20.4234  -14.5902 C   0  0  0  0  0  0  0  0  0  0  0  0
   18.6569  -19.5752  -13.4623 C   0  0  0  0  0  0  0  0  0  0  0  0
   20.0958  -19.2112  -13.7550 C   0  0  0  0  0  0  0  0  0  0  0  0
   20.9112  -20.3968  -14.1697 C   0  0  2  0  0  0  0  0  0  0  0  0
   20.7610  -21.5176  -13.2869 N   0  0  0  0  0  0  0  0  0  0  0  0
   22.3415  -19.9468  -14.2537 C   0  0  0  0  0  0  0  0  0  0  0  0
   22.8623  -19.4237  -13.2426 O   0  0  0  0  0  0  0  0  0  0  0  0
   14.3454  -21.1342  -13.4406 N   0  0  0  0  0  0  0  0  0  0  0  0
   26.8214  -21.3534  -13.8850 C   0  0  0  0  0  0  0  0  0  0  0  0
   27.5706  -20.7396  -14.9048 O   0  0  0  0  0  0  0  0  0  0  0  0
   28.7939  -20.5380  -14.7398 C   0  0  0  0  0  0  0  0  0  0  0  0
   26.8378  -20.3538  -16.1616 C   0  0  0  0  0  0  0  0  0  0  0  0
   25.4270  -20.7482  -15.9691 C   0  0  1  0  0  0  0  0  0  0  0  0
   24.4408  -19.7038  -15.6351 N   0  0  0  0  0  0  0  0  0  0  0  0
   23.0849  -20.1143  -15.4589 C   0  0  0  0  0  0  0  0  0  0  0  0
   24.6001  -18.4223  -16.3964 O   0  0  0  0  0  0  0  0  0  0  0  0
   24.1188  -18.4256  -17.5628 C   0  0  0  0  0  0  0  0  0  0  0  0
   26.6020  -12.3227  -14.1739 S   0  0  0  0  0  0  0  0  0  0  0  0
   27.5760  -12.7240  -15.6665 C   0  0  0  0  0  0  0  0  0  0  0  0
   26.6142  -13.8420  -16.6953 C   0  0  0  0  0  0  0  0  0  0  0  0
   26.2490  -15.0905  -15.9912 C   0  0  1  0  0  0  0  0  0  0  0  0
   25.4115  -16.0310  -16.7392 N   0  0  0  0  0  0  0  0  0  0  0  0
   25.2196  -17.2748  -15.9286 C   0  0  0  0  0  0  0  0  0  0  0  0
   25.8511  -16.4641  -18.0578 O   0  0  0  0  0  0  0  0  0  0  0  0
   25.5018  -15.9495  -19.2900 O   0  0  0  0  0  0  0  0  0  0  0  0
  2  1  1  0
  3  2  2  0
  4  2  1  0
  4  5  1  0
  6  5  1  0
  7  6  1  0
  8 10  1  0
  8  7  1  0
  8  9  1  1
 10 11  2  0
 13 12  1  0
 13 14  2  0
 15 13  1  0
 16 15  1  0
 17 16  1  1
 17 19  1  0
 18 17  1  0
 18 10  1  0
 19 20  2  0
 22 23  1  0
 22 21  1  0
 23 24  1  0
 25 24  1  1
 25 27  1  0
 26 25  1  0
 26 19  1  0
 27 29  2  0
 27 28  1  0
M  END
$$$$
