RQM.pdb
     RDKit          3D

 29 28  0  0  1  0  0  0  0  0999 V2000
   31.1079  -23.7563  -18.0794 N   0  0  0  0  0  0  0  0  0  0  0  0
   30.3628  -24.6608  -17.2477 C   0  0  0  0  0  0  0  0  0  0  0  0
   30.7967  -25.8547  -17.0172 N   0  0  0  0  0  0  0  0  0  0  0  0
   29.1330  -24.2780  -16.6543 N   0  0  0  0  0  0  0  0  0  0  0  0
   28.6502  -22.9315  -16.8879 C   0  0  0  0  0  0  0  0  0  0  0  0
   29.5264  -22.0073  -16.0644 C   0  0  0  0  0  0  0  0  0  0  0  0
   28.7053  -21.3634  -14.9691 C   0  0  0  0  0  0  0  0  0  0  0  0
   27.6518  -20.4467  -15.5097 C   0  0  2  0  0  0  0  0  0  0  0  0
   28.1922  -19.3611  -16.2762 N   0  0  0  0  0  0  0  0  0  0  0  0
   26.8485  -19.9524  -14.3411 C   0  0  0  0  0  0  0  0  0  0  0  0
   27.2257  -18.9122  -13.7556 O   0  0  0  0  0  0  0  0  0  0  0  0
   30.3019  -26.5317  -16.3920 N   0  0  0  0  0  0  0  0  0  0  0  0
   21.2102  -21.3778  -13.2678 C   0  0  0  0  0  0  0  0  0  0  0  0
   21.2765  -20.5409  -12.1394 O   0  0  0  0  0  0  0  0  0  0  0  0
   20.3146  -20.4989  -11.3413 C   0  0  0  0  0  0  0  0  0  0  0  0
   22.5301  -19.7280  -11.9569 C   0  0  0  0  0  0  0  0  0  0  0  0
   23.4223  -20.0632  -13.0859 C   0  0  1  0  0  0  0  0  0  0  0  0
   24.8592  -20.2583  -12.8169 N   0  0  0  0  0  0  0  0  0  0  0  0
   25.6838  -20.6546  -13.9128 C   0  0  0  0  0  0  0  0  0  0  0  0
   25.1677  -20.9632  -11.5303 O   0  0  0  0  0  0  0  0  0  0  0  0
   25.0068  -22.2145  -11.5499 C   0  0  0  0  0  0  0  0  0  0  0  0
   28.8612  -18.6278   -7.0513 S   0  0  0  0  0  0  0  0  0  0  0  0
   28.2481  -19.9767   -5.9826 C   0  0  0  0  0  0  0  0  0  0  0  0
   26.9892  -20.8933   -6.8818 C   0  0  0  0  0  0  0  0  0  0  0  0
   26.7642  -20.3634   -8.2443 C   0  0  1  0  0  0  0  0  0  0  0  0
   25.7778  -21.0771   -9.0586 N   0  0  0  0  0  0  0  0  0  0  0  0
   25.5991  -20.3596  -10.3603 C   0  0  0  0  0  0  0  0  0  0  0  0
   24.4423  -21.2853   -8.5179 O   0  0  0  0  0  0  0  0  0  0  0  0
   24.0234  -22.2372   -7.6105 O   0  0  0  0  0  0  0  0  0  0  0  0
  2  1  1  0
  3  2  2  0
  4  2  1  0
  4  5  1  0
  6  5  1  0
  7  6  1  0
  8 10  1  0
  8  7  1  0
  8  9  1  1
 10 11  2  0
 13 12  1  0
 13 14  2  0
 15 13  1  0
 16 15  1  0
 17 16  1  6
 17 19  1  0
 18 17  1  0
 18 10  1  0
 19 20  2  0
 22 23  1  0
 22 21  1  0
 23 24  1  0
 25 24  1  6
 25 27  1  0
 26 25  1  0
 26 19  1  0
 27 29  2  0
 27 28  1  0
M  END
$$$$
