RQM.pdb
     RDKit          3D

 29 28  0  0  1  0  0  0  0  0999 V2000
   21.9334  -29.9848  -15.6142 N   0  0  0  0  0  0  0  0  0  0  0  0
   22.9992  -29.4145  -16.3912 C   0  0  0  0  0  0  0  0  0  0  0  0
   23.6554  -30.1335  -17.2392 N   0  0  0  0  0  0  0  0  0  0  0  0
   23.3662  -28.0514  -16.2562 N   0  0  0  0  0  0  0  0  0  0  0  0
   22.7340  -27.2727  -15.2100 C   0  0  0  0  0  0  0  0  0  0  0  0
   21.4285  -26.7554  -15.7828 C   0  0  0  0  0  0  0  0  0  0  0  0
   20.6957  -25.9440  -14.7374 C   0  0  0  0  0  0  0  0  0  0  0  0
   19.3954  -26.5699  -14.3373 C   0  0  2  0  0  0  0  0  0  0  0  0
   18.7716  -27.2982  -15.4044 N   0  0  0  0  0  0  0  0  0  0  0  0
   18.5095  -25.4700  -13.8267 C   0  0  0  0  0  0  0  0  0  0  0  0
   17.9929  -24.6871  -14.6559 O   0  0  0  0  0  0  0  0  0  0  0  0
   24.4728  -29.7724  -17.7830 N   0  0  0  0  0  0  0  0  0  0  0  0
   15.7156  -25.5383   -8.4002 C   0  0  0  0  0  0  0  0  0  0  0  0
   15.2103  -24.2845   -8.7885 O   0  0  0  0  0  0  0  0  0  0  0  0
   14.3285  -23.7301   -8.0964 C   0  0  0  0  0  0  0  0  0  0  0  0
   15.7746  -23.6723  -10.0424 C   0  0  0  0  0  0  0  0  0  0  0  0
   16.6854  -24.6749  -10.6325 C   0  0  2  0  0  0  0  0  0  0  0  0
   17.4292  -24.3203  -11.8556 N   0  0  0  0  0  0  0  0  0  0  0  0
   18.2651  -25.3254  -12.4295 C   0  0  0  0  0  0  0  0  0  0  0  0
   18.0351  -22.9492  -11.8475 O   0  0  0  0  0  0  0  0  0  0  0  0
   19.1434  -22.8538  -11.2520 C   0  0  0  0  0  0  0  0  0  0  0  0
   22.8369  -20.6027  -13.1017 S   0  0  0  0  0  0  0  0  0  0  0  0
   21.7700  -19.6738  -14.2577 C   0  0  0  0  0  0  0  0  0  0  0  0
   20.1839  -19.3794  -13.4633 C   0  0  0  0  0  0  0  0  0  0  0  0
   19.4265  -20.6276  -13.2256 C   0  0  1  0  0  0  0  0  0  0  0  0
   18.1667  -20.4871  -12.4919 N   0  0  0  0  0  0  0  0  0  0  0  0
   17.4829  -21.8172  -12.4245 C   0  0  0  0  0  0  0  0  0  0  0  0
   17.1745  -19.5397  -12.9791 O   0  0  0  0  0  0  0  0  0  0  0  0
   15.9343  -19.8017  -13.5252 O   0  0  0  0  0  0  0  0  0  0  0  0
  2  1  1  0
  3  2  2  0
  4  2  1  0
  4  5  1  0
  6  5  1  0
  7  6  1  0
  8 10  1  0
  8  7  1  0
  8  9  1  6
 10 11  2  0
 13 12  1  0
 13 14  2  0
 15 13  1  0
 16 15  1  0
 17 16  1  6
 17 19  1  0
 18 17  1  0
 18 10  1  0
 19 20  2  0
 22 23  1  0
 22 21  1  0
 23 24  1  0
 25 24  1  1
 25 27  1  0
 26 25  1  0
 26 19  1  0
 27 29  2  0
 27 28  1  0
M  END
$$$$
