RQM.pdb
     RDKit          3D

 29 28  0  0  1  0  0  0  0  0999 V2000
   30.2269  -25.6309  -18.4487 N   0  0  0  0  0  0  0  0  0  0  0  0
   29.5526  -26.2548  -17.3437 C   0  0  0  0  0  0  0  0  0  0  0  0
   29.8339  -27.4665  -16.9980 N   0  0  0  0  0  0  0  0  0  0  0  0
   28.5613  -25.5675  -16.5980 N   0  0  0  0  0  0  0  0  0  0  0  0
   28.1028  -24.2835  -17.0895 C   0  0  0  0  0  0  0  0  0  0  0  0
   29.0483  -23.2403  -16.5258 C   0  0  0  0  0  0  0  0  0  0  0  0
   28.3679  -22.4828  -15.4070 C   0  0  0  0  0  0  0  0  0  0  0  0
   27.4028  -21.4574  -15.9166 C   0  0  2  0  0  0  0  0  0  0  0  0
   27.9598  -20.6238  -16.9428 N   0  0  0  0  0  0  0  0  0  0  0  0
   26.9454  -20.6499  -14.7360 C   0  0  0  0  0  0  0  0  0  0  0  0
   27.5811  -19.6125  -14.4408 O   0  0  0  0  0  0  0  0  0  0  0  0
   29.3435  -27.9678  -16.2219 N   0  0  0  0  0  0  0  0  0  0  0  0
   21.5466  -19.2809  -13.9117 C   0  0  0  0  0  0  0  0  0  0  0  0
   21.5391  -20.5505  -13.3066 O   0  0  0  0  0  0  0  0  0  0  0  0
   20.4779  -21.2109  -13.2646 C   0  0  0  0  0  0  0  0  0  0  0  0
   22.8386  -21.0484  -12.7333 C   0  0  0  0  0  0  0  0  0  0  0  0
   23.8340  -19.9768  -12.9425 C   0  0  1  0  0  0  0  0  0  0  0  0
   25.2666  -20.3212  -12.8791 N   0  0  0  0  0  0  0  0  0  0  0  0
   25.8128  -21.0590  -13.9726 C   0  0  0  0  0  0  0  0  0  0  0  0
   25.7452  -20.7747  -11.5328 O   0  0  0  0  0  0  0  0  0  0  0  0
   25.7078  -22.0210  -11.3398 C   0  0  0  0  0  0  0  0  0  0  0  0
   29.8589  -20.7248   -6.7669 S   0  0  0  0  0  0  0  0  0  0  0  0
   28.8367  -19.2868   -6.2927 C   0  0  0  0  0  0  0  0  0  0  0  0
   27.1578  -19.5595   -6.8762 C   0  0  0  0  0  0  0  0  0  0  0  0
   27.0162  -19.3271   -8.3301 C   0  0  1  0  0  0  0  0  0  0  0  0
   26.2844  -20.3519   -9.0783 N   0  0  0  0  0  0  0  0  0  0  0  0
   26.2067  -19.9514  -10.5186 C   0  0  0  0  0  0  0  0  0  0  0  0
   24.9264  -20.6811   -8.6698 O   0  0  0  0  0  0  0  0  0  0  0  0
   24.5124  -21.6220   -7.7487 O   0  0  0  0  0  0  0  0  0  0  0  0
  2  1  1  0
  3  2  2  0
  4  2  1  0
  4  5  1  0
  6  5  1  0
  7  6  1  0
  8 10  1  0
  8  7  1  0
  8  9  1  6
 10 11  2  0
 13 12  1  0
 13 14  2  0
 15 13  1  0
 16 15  1  0
 17 16  1  6
 17 19  1  0
 18 17  1  0
 18 10  1  0
 19 20  2  0
 22 23  1  0
 22 21  1  0
 23 24  1  0
 25 24  1  6
 25 27  1  0
 26 25  1  0
 26 19  1  0
 27 29  2  0
 27 28  1  0
M  END
$$$$
