RQM.pdb
     RDKit          3D

 29 28  0  0  1  0  0  0  0  0999 V2000
   25.3524  -14.4804  -15.9904 N   0  0  0  0  0  0  0  0  0  0  0  0
   25.0056  -14.3632  -17.3800 C   0  0  0  0  0  0  0  0  0  0  0  0
   25.0094  -15.3989  -18.1508 N   0  0  0  0  0  0  0  0  0  0  0  0
   24.6489  -13.1151  -17.9511 N   0  0  0  0  0  0  0  0  0  0  0  0
   24.2786  -12.0349  -17.0585 C   0  0  0  0  0  0  0  0  0  0  0  0
   22.7843  -12.1546  -16.8289 C   0  0  0  0  0  0  0  0  0  0  0  0
   22.3166  -11.0480  -15.9097 C   0  0  0  0  0  0  0  0  0  0  0  0
   20.8648  -11.1695  -15.5631 C   0  0  2  0  0  0  0  0  0  0  0  0
   20.2335  -12.3005  -16.1800 N   0  0  0  0  0  0  0  0  0  0  0  0
   20.2022   -9.8817  -15.9602 C   0  0  0  0  0  0  0  0  0  0  0  0
   19.6718   -9.8082  -17.0917 O   0  0  0  0  0  0  0  0  0  0  0  0
   24.7199  -15.3647  -19.1553 N   0  0  0  0  0  0  0  0  0  0  0  0
   16.0978   -7.5070  -16.3691 C   0  0  0  0  0  0  0  0  0  0  0  0
   16.3788   -6.1787  -16.0017 O   0  0  0  0  0  0  0  0  0  0  0  0
   15.6142   -5.2592  -16.3678 C   0  0  0  0  0  0  0  0  0  0  0  0
   17.6110   -5.9393  -15.1712 C   0  0  0  0  0  0  0  0  0  0  0  0
   18.2179   -7.2627  -14.9197 C   0  0  1  0  0  0  0  0  0  0  0  0
   19.6023   -7.5017  -15.3685 N   0  0  0  0  0  0  0  0  0  0  0  0
   20.1800   -8.7716  -15.0655 C   0  0  0  0  0  0  0  0  0  0  0  0
   20.5337   -6.3427  -15.1782 O   0  0  0  0  0  0  0  0  0  0  0  0
   20.9160   -6.1483  -13.9915 C   0  0  0  0  0  0  0  0  0  0  0  0
   22.3975    0.8600  -17.6666 S   0  0  0  0  0  0  0  0  0  0  0  0
   21.5806   -0.7396  -18.0004 C   0  0  0  0  0  0  0  0  0  0  0  0
   22.0078   -1.8873  -16.6836 C   0  0  0  0  0  0  0  0  0  0  0  0
   21.3404   -3.1988  -16.8336 C   0  0  1  0  0  0  0  0  0  0  0  0
   21.7941   -4.2598  -15.9314 N   0  0  0  0  0  0  0  0  0  0  0  0
   20.9870   -5.4964  -16.1771 C   0  0  0  0  0  0  0  0  0  0  0  0
   21.7547   -4.0223  -14.4956 O   0  0  0  0  0  0  0  0  0  0  0  0
   22.7955   -3.6878  -13.6530 O   0  0  0  0  0  0  0  0  0  0  0  0
  2  1  1  0
  3  2  2  0
  4  2  1  0
  4  5  1  0
  6  5  1  0
  7  6  1  0
  8 10  1  0
  8  7  1  0
  8  9  1  6
 10 11  2  0
 13 12  1  0
 13 14  2  0
 15 13  1  0
 16 15  1  0
 17 16  1  6
 17 19  1  0
 18 17  1  0
 18 10  1  0
 19 20  2  0
 22 23  1  0
 22 21  1  0
 23 24  1  0
 25 24  1  6
 25 27  1  0
 26 25  1  0
 26 19  1  0
 27 29  2  0
 27 28  1  0
M  END
$$$$
