RQM.pdb
     RDKit          3D

 29 28  0  0  1  0  0  0  0  0999 V2000
   19.9832  -23.1071   -7.0021 N   0  0  0  0  0  0  0  0  0  0  0  0
   19.7680  -22.5562   -8.3118 C   0  0  0  0  0  0  0  0  0  0  0  0
   18.7086  -22.8538   -8.9869 N   0  0  0  0  0  0  0  0  0  0  0  0
   20.7043  -21.6722   -8.9059 N   0  0  0  0  0  0  0  0  0  0  0  0
   22.0533  -22.1528   -9.1287 C   0  0  0  0  0  0  0  0  0  0  0  0
   22.9869  -21.1191   -8.5288 C   0  0  0  0  0  0  0  0  0  0  0  0
   23.7178  -20.3866   -9.6322 C   0  0  0  0  0  0  0  0  0  0  0  0
   24.4963  -21.3133  -10.5140 C   0  0  2  0  0  0  0  0  0  0  0  0
   25.7397  -21.7295   -9.9317 N   0  0  0  0  0  0  0  0  0  0  0  0
   24.7073  -20.6101  -11.8240 C   0  0  0  0  0  0  0  0  0  0  0  0
   25.6264  -19.7640  -11.9053 O   0  0  0  0  0  0  0  0  0  0  0  0
   18.5270  -22.4954   -9.9527 N   0  0  0  0  0  0  0  0  0  0  0  0
   27.1530  -22.0058  -14.7043 C   0  0  0  0  0  0  0  0  0  0  0  0
   26.1600  -22.9497  -15.0223 O   0  0  0  0  0  0  0  0  0  0  0  0
   26.4423  -24.1680  -15.0297 C   0  0  0  0  0  0  0  0  0  0  0  0
   24.7863  -22.4240  -15.3418 C   0  0  0  0  0  0  0  0  0  0  0  0
   24.8561  -20.9528  -15.2241 C   0  0  1  0  0  0  0  0  0  0  0  0
   24.0018  -20.2827  -14.2260 N   0  0  0  0  0  0  0  0  0  0  0  0
   23.8780  -20.9033  -12.9462 C   0  0  0  0  0  0  0  0  0  0  0  0
   22.7175  -19.7306  -14.7672 O   0  0  0  0  0  0  0  0  0  0  0  0
   21.6813  -20.3854  -14.4679 C   0  0  0  0  0  0  0  0  0  0  0  0
   19.0962  -13.6851  -18.4316 S   0  0  0  0  0  0  0  0  0  0  0  0
   20.6432  -14.4021  -17.7759 C   0  0  0  0  0  0  0  0  0  0  0  0
   20.2818  -16.0324  -17.1086 C   0  0  0  0  0  0  0  0  0  0  0  0
   21.4824  -16.7026  -16.5635 C   0  0  2  0  0  0  0  0  0  0  0  0
   21.2883  -18.0655  -16.0630 N   0  0  0  0  0  0  0  0  0  0  0  0
   22.5912  -18.5934  -15.5484 C   0  0  0  0  0  0  0  0  0  0  0  0
   20.7653  -19.0767  -16.9703 O   0  0  0  0  0  0  0  0  0  0  0  0
   19.4486  -19.3547  -17.2772 O   0  0  0  0  0  0  0  0  0  0  0  0
  2  1  1  0
  3  2  2  0
  4  2  1  0
  4  5  1  0
  6  5  1  0
  7  6  1  0
  8 10  1  0
  8  7  1  0
  8  9  1  1
 10 11  2  0
 13 12  1  0
 13 14  2  0
 15 13  1  0
 16 15  1  0
 17 16  1  1
 17 19  1  0
 18 17  1  0
 18 10  1  0
 19 20  2  0
 22 23  1  0
 22 21  1  0
 23 24  1  0
 25 24  1  1
 25 27  1  0
 26 25  1  0
 26 19  1  0
 27 29  2  0
 27 28  1  0
M  END
$$$$
