RQM.pdb
     RDKit          3D

 29 28  0  0  1  0  0  0  0  0999 V2000
   28.7067  -15.0556  -22.3483 N   0  0  0  0  0  0  0  0  0  0  0  0
   27.3953  -14.4874  -22.1988 C   0  0  0  0  0  0  0  0  0  0  0  0
   26.9295  -13.6627  -23.0761 N   0  0  0  0  0  0  0  0  0  0  0  0
   26.5710  -14.8094  -21.0907 N   0  0  0  0  0  0  0  0  0  0  0  0
   27.0296  -15.8310  -20.1706 C   0  0  0  0  0  0  0  0  0  0  0  0
   26.1315  -17.0356  -20.3767 C   0  0  0  0  0  0  0  0  0  0  0  0
   25.4897  -17.4272  -19.0641 C   0  0  0  0  0  0  0  0  0  0  0  0
   26.5011  -17.7705  -18.0144 C   0  0  2  0  0  0  0  0  0  0  0  0
   27.6547  -18.4389  -18.5441 N   0  0  0  0  0  0  0  0  0  0  0  0
   25.8040  -18.6068  -16.9801 C   0  0  0  0  0  0  0  0  0  0  0  0
   24.7773  -18.1447  -16.4327 O   0  0  0  0  0  0  0  0  0  0  0  0
   26.0085  -13.1779  -22.9724 N   0  0  0  0  0  0  0  0  0  0  0  0
   24.4012  -24.4069  -15.3794 C   0  0  0  0  0  0  0  0  0  0  0  0
   25.7808  -24.4366  -15.6510 O   0  0  0  0  0  0  0  0  0  0  0  0
   26.4241  -25.4950  -15.4775 C   0  0  0  0  0  0  0  0  0  0  0  0
   26.4136  -23.1636  -16.1454 C   0  0  0  0  0  0  0  0  0  0  0  0
   25.3532  -22.1347  -16.1474 C   0  0  1  0  0  0  0  0  0  0  0  0
   25.6889  -20.7736  -15.6892 N   0  0  0  0  0  0  0  0  0  0  0  0
   26.3033  -19.8966  -16.6334 C   0  0  0  0  0  0  0  0  0  0  0  0
   26.2758  -20.7009  -14.3118 O   0  0  0  0  0  0  0  0  0  0  0  0
   27.5003  -20.4003  -14.2634 C   0  0  0  0  0  0  0  0  0  0  0  0
   23.0113  -21.0047   -8.2981 S   0  0  0  0  0  0  0  0  0  0  0  0
   24.3446  -19.7558   -8.2984 C   0  0  0  0  0  0  0  0  0  0  0  0
   25.6537  -20.3151   -9.3971 C   0  0  0  0  0  0  0  0  0  0  0  0
   25.2338  -20.3407  -10.8152 C   0  0  1  0  0  0  0  0  0  0  0  0
   26.2167  -20.8600  -11.7690 N   0  0  0  0  0  0  0  0  0  0  0  0
   25.5943  -20.9351  -13.1285 C   0  0  0  0  0  0  0  0  0  0  0  0
   26.8144  -22.1636  -11.5185 O   0  0  0  0  0  0  0  0  0  0  0  0
   27.9083  -22.4688  -10.7341 O   0  0  0  0  0  0  0  0  0  0  0  0
  2  1  1  0
  3  2  2  0
  4  2  1  0
  4  5  1  0
  6  5  1  0
  7  6  1  0
  8 10  1  0
  8  7  1  0
  8  9  1  6
 10 11  2  0
 13 12  1  0
 13 14  2  0
 15 13  1  0
 16 15  1  0
 17 16  1  6
 17 19  1  0
 18 17  1  0
 18 10  1  0
 19 20  2  0
 22 23  1  0
 22 21  1  0
 23 24  1  0
 25 24  1  6
 25 27  1  0
 26 25  1  0
 26 19  1  0
 27 29  2  0
 27 28  1  0
M  END
$$$$
