RQM.pdb
     RDKit          3D

 29 28  0  0  1  0  0  0  0  0999 V2000
   23.5118  -19.4825  -15.5259 N   0  0  0  0  0  0  0  0  0  0  0  0
   22.0998  -19.2469  -15.6512 C   0  0  0  0  0  0  0  0  0  0  0  0
   21.2929  -20.2122  -15.9410 N   0  0  0  0  0  0  0  0  0  0  0  0
   21.5453  -17.9555  -15.4624 N   0  0  0  0  0  0  0  0  0  0  0  0
   22.4462  -16.8616  -15.1586 C   0  0  0  0  0  0  0  0  0  0  0  0
   22.6478  -16.0938  -16.4509 C   0  0  0  0  0  0  0  0  0  0  0  0
   21.5682  -15.0444  -16.5977 C   0  0  0  0  0  0  0  0  0  0  0  0
   21.6471  -14.3240  -17.9081 C   0  0  2  0  0  0  0  0  0  0  0  0
   22.1258  -15.1534  -18.9764 N   0  0  0  0  0  0  0  0  0  0  0  0
   22.5253  -13.1229  -17.7046 C   0  0  0  0  0  0  0  0  0  0  0  0
   23.6802  -13.1400  -18.1874 O   0  0  0  0  0  0  0  0  0  0  0  0
   20.2659  -20.0750  -16.0840 N   0  0  0  0  0  0  0  0  0  0  0  0
   20.3711   -7.7292  -15.6512 C   0  0  0  0  0  0  0  0  0  0  0  0
   21.6886   -7.2753  -15.8413 O   0  0  0  0  0  0  0  0  0  0  0  0
   21.9600   -6.0675  -15.6629 C   0  0  0  0  0  0  0  0  0  0  0  0
   22.7153   -8.2941  -16.2577 C   0  0  0  0  0  0  0  0  0  0  0  0
   21.9971   -9.5728  -16.4365 C   0  0  1  0  0  0  0  0  0  0  0  0
   22.7680  -10.7667  -16.8308 N   0  0  0  0  0  0  0  0  0  0  0  0
   22.0499  -11.9918  -16.9782 C   0  0  0  0  0  0  0  0  0  0  0  0
   24.0952  -10.9114  -16.1491 O   0  0  0  0  0  0  0  0  0  0  0  0
   24.0570  -11.4352  -15.0018 C   0  0  0  0  0  0  0  0  0  0  0  0
   31.4749  -13.1073  -16.7330 S   0  0  0  0  0  0  0  0  0  0  0  0
   29.8331  -12.8147  -17.4789 C   0  0  0  0  0  0  0  0  0  0  0  0
   28.8640  -11.8019  -16.3526 C   0  0  0  0  0  0  0  0  0  0  0  0
   27.4780  -11.5929  -16.8252 C   0  0  1  0  0  0  0  0  0  0  0  0
   26.6326  -10.7405  -15.9860 N   0  0  0  0  0  0  0  0  0  0  0  0
   25.3187  -10.5216  -16.6692 C   0  0  0  0  0  0  0  0  0  0  0  0
   27.1233   -9.4231  -15.6079 O   0  0  0  0  0  0  0  0  0  0  0  0
   28.0433   -9.0985  -14.6315 O   0  0  0  0  0  0  0  0  0  0  0  0
  2  1  1  0
  3  2  2  0
  4  2  1  0
  4  5  1  0
  6  5  1  0
  7  6  1  0
  8 10  1  0
  8  7  1  0
  8  9  1  6
 10 11  2  0
 13 12  1  0
 13 14  2  0
 15 13  1  0
 16 15  1  0
 17 16  1  6
 17 19  1  0
 18 17  1  0
 18 10  1  0
 19 20  2  0
 22 23  1  0
 22 21  1  0
 23 24  1  0
 25 24  1  1
 25 27  1  0
 26 25  1  0
 26 19  1  0
 27 29  2  0
 27 28  1  0
M  END
$$$$
