RQM.pdb
     RDKit          3D

 29 28  0  0  1  0  0  0  0  0999 V2000
   29.2697  -22.1853  -16.5880 N   0  0  0  0  0  0  0  0  0  0  0  0
   28.0704  -22.9690  -16.4765 C   0  0  0  0  0  0  0  0  0  0  0  0
   28.1265  -24.2580  -16.4289 N   0  0  0  0  0  0  0  0  0  0  0  0
   26.7912  -22.3600  -16.4149 N   0  0  0  0  0  0  0  0  0  0  0  0
   26.7245  -20.9142  -16.3387 C   0  0  0  0  0  0  0  0  0  0  0  0
   26.7498  -20.5557  -14.8653 C   0  0  0  0  0  0  0  0  0  0  0  0
   25.3527  -20.2141  -14.3967 C   0  0  0  0  0  0  0  0  0  0  0  0
   24.6473  -21.3922  -13.7992 C   0  0  2  0  0  0  0  0  0  0  0  0
   24.5086  -22.4872  -14.7158 N   0  0  0  0  0  0  0  0  0  0  0  0
   23.3126  -20.9105  -13.3073 C   0  0  0  0  0  0  0  0  0  0  0  0
   23.2873  -20.0161  -12.4318 O   0  0  0  0  0  0  0  0  0  0  0  0
   27.2761  -24.8668  -16.4133 N   0  0  0  0  0  0  0  0  0  0  0  0
   18.9540  -18.6164  -16.0002 C   0  0  0  0  0  0  0  0  0  0  0  0
   18.0944  -18.9429  -14.9360 O   0  0  0  0  0  0  0  0  0  0  0  0
   16.9277  -18.4926  -14.9209 C   0  0  0  0  0  0  0  0  0  0  0  0
   18.6435  -19.8349  -13.8551 C   0  0  0  0  0  0  0  0  0  0  0  0
   20.0238  -20.1824  -14.2513 C   0  0  1  0  0  0  0  0  0  0  0  0
   20.7963  -21.0980  -13.3909 N   0  0  0  0  0  0  0  0  0  0  0  0
   22.1055  -21.4616  -13.8290 C   0  0  0  0  0  0  0  0  0  0  0  0
   20.0061  -22.2321  -12.8108 O   0  0  0  0  0  0  0  0  0  0  0  0
   19.8855  -23.2418  -13.5578 C   0  0  0  0  0  0  0  0  0  0  0  0
   17.6298  -26.0551   -6.3699 S   0  0  0  0  0  0  0  0  0  0  0  0
   18.4076  -24.5689   -7.0934 C   0  0  0  0  0  0  0  0  0  0  0  0
   18.1280  -24.5826   -8.8697 C   0  0  0  0  0  0  0  0  0  0  0  0
   18.8466  -23.4939   -9.5670 C   0  0  1  0  0  0  0  0  0  0  0  0
   18.6296  -23.4008  -11.0125 N   0  0  0  0  0  0  0  0  0  0  0  0
   19.4161  -22.2494  -11.5574 C   0  0  0  0  0  0  0  0  0  0  0  0
   17.2700  -23.2402  -11.5075 O   0  0  0  0  0  0  0  0  0  0  0  0
   16.3408  -24.2195  -11.7949 O   0  0  0  0  0  0  0  0  0  0  0  0
  2  1  1  0
  3  2  2  0
  4  2  1  0
  4  5  1  0
  6  5  1  0
  7  6  1  0
  8 10  1  0
  8  7  1  0
  8  9  1  6
 10 11  2  0
 13 12  1  0
 13 14  2  0
 15 13  1  0
 16 15  1  0
 17 16  1  1
 17 19  1  0
 18 17  1  0
 18 10  1  0
 19 20  2  0
 22 23  1  0
 22 21  1  0
 23 24  1  0
 25 24  1  6
 25 27  1  0
 26 25  1  0
 26 19  1  0
 27 29  2  0
 27 28  1  0
M  END
$$$$
