RQM.pdb
     RDKit          3D

 29 28  0  0  1  0  0  0  0  0999 V2000
   28.0843  -21.3934  -11.6518 N   0  0  0  0  0  0  0  0  0  0  0  0
   26.7526  -20.9160  -11.3992 C   0  0  0  0  0  0  0  0  0  0  0  0
   26.0442  -21.4129  -10.4411 N   0  0  0  0  0  0  0  0  0  0  0  0
   26.1726  -19.8893  -12.1869 N   0  0  0  0  0  0  0  0  0  0  0  0
   26.3044  -19.9749  -13.6277 C   0  0  0  0  0  0  0  0  0  0  0  0
   26.8121  -18.6253  -14.0979 C   0  0  0  0  0  0  0  0  0  0  0  0
   25.7259  -17.9096  -14.8701 C   0  0  0  0  0  0  0  0  0  0  0  0
   25.0730  -18.7927  -15.8881 C   0  0  2  0  0  0  0  0  0  0  0  0
   25.9961  -19.3088  -16.8576 N   0  0  0  0  0  0  0  0  0  0  0  0
   23.9797  -17.9931  -16.5366 C   0  0  0  0  0  0  0  0  0  0  0  0
   24.2500  -17.3434  -17.5720 O   0  0  0  0  0  0  0  0  0  0  0  0
   25.0803  -21.0784  -10.2103 N   0  0  0  0  0  0  0  0  0  0  0  0
   18.0514  -18.9915  -15.3151 C   0  0  0  0  0  0  0  0  0  0  0  0
   17.8186  -18.1034  -16.3806 O   0  0  0  0  0  0  0  0  0  0  0  0
   16.6506  -17.9138  -16.7857 C   0  0  0  0  0  0  0  0  0  0  0  0
   19.0168  -17.4196  -16.9824 C   0  0  0  0  0  0  0  0  0  0  0  0
   20.2050  -17.9497  -16.2822 C   0  0  2  0  0  0  0  0  0  0  0  0
   21.5288  -17.3921  -16.6162 N   0  0  0  0  0  0  0  0  0  0  0  0
   22.6661  -17.9778  -15.9824 C   0  0  0  0  0  0  0  0  0  0  0  0
   21.5772  -15.8964  -16.7032 O   0  0  0  0  0  0  0  0  0  0  0  0
   21.7353  -15.2979  -15.6038 C   0  0  0  0  0  0  0  0  0  0  0  0
   25.2505  -11.8680  -19.9794 S   0  0  0  0  0  0  0  0  0  0  0  0
   23.5974  -11.3199  -20.5310 C   0  0  0  0  0  0  0  0  0  0  0  0
   22.3956  -11.7637  -19.2690 C   0  0  0  0  0  0  0  0  0  0  0  0
   22.3604  -13.2185  -19.0039 C   0  0  1  0  0  0  0  0  0  0  0  0
   21.4895  -13.6532  -17.9093 N   0  0  0  0  0  0  0  0  0  0  0  0
   21.4615  -15.1492  -17.8642 C   0  0  0  0  0  0  0  0  0  0  0  0
   20.1008  -13.2162  -17.9038 O   0  0  0  0  0  0  0  0  0  0  0  0
   19.5960  -11.9677  -17.6010 O   0  0  0  0  0  0  0  0  0  0  0  0
  2  1  1  0
  3  2  2  0
  4  2  1  0
  4  5  1  0
  6  5  1  0
  7  6  1  0
  8 10  1  0
  8  7  1  0
  8  9  1  6
 10 11  2  0
 13 12  1  0
 13 14  2  0
 15 13  1  0
 16 15  1  0
 17 16  1  6
 17 19  1  0
 18 17  1  0
 18 10  1  0
 19 20  2  0
 22 23  1  0
 22 21  1  0
 23 24  1  0
 25 24  1  1
 25 27  1  0
 26 25  1  0
 26 19  1  0
 27 29  2  0
 27 28  1  0
M  END
$$$$
