RQM.pdb
     RDKit          3D

 29 28  0  0  1  0  0  0  0  0999 V2000
   26.9010  -14.0164  -15.4903 N   0  0  0  0  0  0  0  0  0  0  0  0
   27.1120  -14.6815  -16.7465 C   0  0  0  0  0  0  0  0  0  0  0  0
   27.9278  -14.1960  -17.6214 N   0  0  0  0  0  0  0  0  0  0  0  0
   26.4373  -15.8865  -17.0685 N   0  0  0  0  0  0  0  0  0  0  0  0
   25.5529  -16.4622  -16.0750 C   0  0  0  0  0  0  0  0  0  0  0  0
   25.7776  -17.9617  -16.1108 C   0  0  0  0  0  0  0  0  0  0  0  0
   27.2030  -18.2761  -15.7139 C   0  0  0  0  0  0  0  0  0  0  0  0
   27.5160  -19.7367  -15.8204 C   0  0  2  0  0  0  0  0  0  0  0  0
   26.7344  -20.4065  -16.8198 N   0  0  0  0  0  0  0  0  0  0  0  0
   27.3070  -20.3379  -14.4603 C   0  0  0  0  0  0  0  0  0  0  0  0
   26.1929  -20.8446  -14.1971 O   0  0  0  0  0  0  0  0  0  0  0  0
   28.1402  -14.6697  -18.5295 N   0  0  0  0  0  0  0  0  0  0  0  0
   31.5418  -21.3279   -9.9077 C   0  0  0  0  0  0  0  0  0  0  0  0
   31.6654  -21.9942  -11.1401 O   0  0  0  0  0  0  0  0  0  0  0  0
   32.7164  -22.6181  -11.4049 C   0  0  0  0  0  0  0  0  0  0  0  0
   30.4982  -21.9140  -12.0871 C   0  0  0  0  0  0  0  0  0  0  0  0
   29.4599  -21.1062  -11.4147 C   0  0  2  0  0  0  0  0  0  0  0  0
   28.2211  -20.7934  -12.1513 N   0  0  0  0  0  0  0  0  0  0  0  0
   28.3562  -20.3299  -13.4948 C   0  0  0  0  0  0  0  0  0  0  0  0
   27.1815  -20.0663  -11.3528 O   0  0  0  0  0  0  0  0  0  0  0  0
   26.8018  -18.9655  -11.8387 C   0  0  0  0  0  0  0  0  0  0  0  0
   20.3616  -21.6503  -12.1146 S   0  0  0  0  0  0  0  0  0  0  0  0
   22.1051  -21.2286  -12.4604 C   0  0  0  0  0  0  0  0  0  0  0  0
   22.9705  -21.0394  -10.8955 C   0  0  0  0  0  0  0  0  0  0  0  0
   24.4042  -20.7220  -11.0732 C   0  0  1  0  0  0  0  0  0  0  0  0
   25.1649  -20.4681   -9.8474 N   0  0  0  0  0  0  0  0  0  0  0  0
   26.6288  -20.4997  -10.1586 C   0  0  0  0  0  0  0  0  0  0  0  0
   24.9685  -21.3504   -8.7062 O   0  0  0  0  0  0  0  0  0  0  0  0
   25.6232  -22.5292   -8.4111 O   0  0  0  0  0  0  0  0  0  0  0  0
  2  1  1  0
  3  2  2  0
  4  2  1  0
  4  5  1  0
  6  5  1  0
  7  6  1  0
  8 10  1  0
  8  7  1  0
  8  9  1  6
 10 11  2  0
 13 12  1  0
 13 14  2  0
 15 13  1  0
 16 15  1  0
 17 16  1  6
 17 19  1  0
 18 17  1  0
 18 10  1  0
 19 20  2  0
 22 23  1  0
 22 21  1  0
 23 24  1  0
 25 24  1  6
 25 27  1  0
 26 25  1  0
 26 19  1  0
 27 29  2  0
 27 28  1  0
M  END
$$$$
