SDM.pdb
     RDKit          3D

 23 22  0  0  1  0  0  0  0  0999 V2000
    8.7461  -12.2980   18.1008 O   0  0  0  0  0  0  0  0  0  0  0  0
    8.6343  -13.0821   19.2244 C   0  0  0  0  0  0  0  0  0  0  0  0
    8.3442  -14.5306   18.9066 C   0  0  2  0  0  0  0  0  0  0  0  0
    7.0769  -14.6434   18.2467 N   0  0  0  0  0  0  0  0  0  0  0  0
    8.3716  -15.4012   20.0848 C   0  0  0  0  0  0  0  0  0  0  0  0
    7.3214  -15.7732   20.6902 O   0  0  0  0  0  0  0  0  0  0  0  0
    9.6137  -15.8610   20.5892 N   0  0  0  0  0  0  0  0  0  0  0  0
    9.5943  -16.7382   21.8213 C   0  0  1  0  0  0  0  0  0  0  0  0
   10.8297  -17.5510   21.6525 C   0  0  0  0  0  0  0  0  0  0  0  0
   11.3068  -18.3634   22.7568 C   0  0  0  0  0  0  0  0  0  0  0  0
   10.6732  -19.0941   23.5259 O   0  0  0  0  0  0  0  0  0  0  0  0
    9.5628  -15.8176   22.9615 C   0  0  0  0  0  0  0  0  0  0  0  0
   10.4166  -14.8633   22.9844 O   0  0  0  0  0  0  0  0  0  0  0  0
   12.7049  -18.3228   23.0013 O   0  0  0  0  0  0  0  0  0  0  0  0
    6.0131  -10.7046   27.4951 C   0  0  0  0  0  0  0  0  0  0  0  0
    5.9981  -12.0026   26.2428 S   0  0  0  0  0  0  0  0  0  0  0  0
    7.5467  -12.9399   26.2435 C   0  0  0  0  0  0  0  0  0  0  0  0
    7.4988  -13.9602   25.1121 C   0  0  0  0  0  0  0  0  0  0  0  0
    8.7425  -14.7867   25.0849 C   0  0  2  0  0  0  0  0  0  0  0  0
    8.6914  -15.8350   24.0706 N   0  0  0  0  0  0  0  0  0  0  0  0
    8.8517  -15.4754   26.4098 C   0  0  0  0  0  0  0  0  0  0  0  0
    8.7293  -16.7249   26.4396 O   0  0  0  0  0  0  0  0  0  0  0  0
    9.0778  -14.8005   27.5805 O   0  0  0  0  0  0  0  0  0  0  0  0
  1  2  1  0
  3  2  1  0
  3  4  1  1
  3  5  1  0
  5  6  2  0
  7  5  1  0
  7  8  1  0
  8 12  1  0
  8  9  1  1
 10  9  1  0
 11 10  2  0
 12 20  1  0
 13 12  2  0
 14 10  1  0
 16 17  1  0
 16 15  1  0
 18 17  1  0
 19 18  1  1
 20 19  1  0
 21 19  1  0
 21 23  1  0
 22 21  2  0
M  END
$$$$
