SDM.pdb
     RDKit          3D

 23 22  0  0  1  0  0  0  0  0999 V2000
    6.5060  -15.0051   20.5256 O   0  0  0  0  0  0  0  0  0  0  0  0
    7.5034  -14.9541   19.5809 C   0  0  0  0  0  0  0  0  0  0  0  0
    8.1670  -16.2920   19.3508 C   0  0  2  0  0  0  0  0  0  0  0  0
    7.2224  -17.2199   18.8024 N   0  0  0  0  0  0  0  0  0  0  0  0
    8.7744  -16.8553   20.5594 C   0  0  0  0  0  0  0  0  0  0  0  0
    8.1816  -17.6973   21.2992 O   0  0  0  0  0  0  0  0  0  0  0  0
   10.0806  -16.4576   20.9394 N   0  0  0  0  0  0  0  0  0  0  0  0
   10.6797  -17.0903   22.1758 C   0  0  1  0  0  0  0  0  0  0  0  0
   12.1176  -17.2059   21.8090 C   0  0  0  0  0  0  0  0  0  0  0  0
   12.5636  -18.3357   21.0142 C   0  0  0  0  0  0  0  0  0  0  0  0
   12.0797  -19.4686   20.9180 O   0  0  0  0  0  0  0  0  0  0  0  0
   10.3531  -16.1848   23.2811 C   0  0  0  0  0  0  0  0  0  0  0  0
   10.5225  -14.9289   23.0964 O   0  0  0  0  0  0  0  0  0  0  0  0
   13.7254  -18.1228   20.2263 O   0  0  0  0  0  0  0  0  0  0  0  0
    6.5019  -11.3365   27.2229 C   0  0  0  0  0  0  0  0  0  0  0  0
    6.7104  -12.7099   26.0726 S   0  0  0  0  0  0  0  0  0  0  0  0
    8.2048  -13.6617   26.4432 C   0  0  0  0  0  0  0  0  0  0  0  0
    8.3995  -14.7074   25.3513 C   0  0  0  0  0  0  0  0  0  0  0  0
    9.6526  -15.4882   25.5764 C   0  0  2  0  0  0  0  0  0  0  0  0
    9.8579  -16.5152   24.5599 N   0  0  0  0  0  0  0  0  0  0  0  0
    9.5070  -16.2013   26.8849 C   0  0  0  0  0  0  0  0  0  0  0  0
    9.4374  -17.4552   26.8714 O   0  0  0  0  0  0  0  0  0  0  0  0
    9.4472  -15.5440   28.0855 O   0  0  0  0  0  0  0  0  0  0  0  0
  1  2  1  0
  3  2  1  0
  3  4  1  1
  3  5  1  0
  5  6  2  0
  7  5  1  0
  7  8  1  0
  8 12  1  0
  8  9  1  6
 10  9  1  0
 11 10  2  0
 12 20  1  0
 13 12  2  0
 14 10  1  0
 16 17  1  0
 16 15  1  0
 18 17  1  0
 19 18  1  6
 20 19  1  0
 21 19  1  0
 21 23  1  0
 22 21  2  0
M  END
$$$$
