SDM.pdb
     RDKit          3D

 23 22  0  0  1  0  0  0  0  0999 V2000
   13.1010  -16.7685   19.6916 O   0  0  0  0  0  0  0  0  0  0  0  0
   11.9732  -16.4542   20.4121 C   0  0  0  0  0  0  0  0  0  0  0  0
   10.7250  -17.1115   19.8705 C   0  0  2  0  0  0  0  0  0  0  0  0
   10.5391  -16.7524   18.4955 N   0  0  0  0  0  0  0  0  0  0  0  0
    9.5187  -16.7889   20.6370 C   0  0  0  0  0  0  0  0  0  0  0  0
    8.8113  -15.7619   20.4073 O   0  0  0  0  0  0  0  0  0  0  0  0
    9.1034  -17.6465   21.6862 N   0  0  0  0  0  0  0  0  0  0  0  0
    7.7773  -17.3553   22.3531 C   0  0  1  0  0  0  0  0  0  0  0  0
    7.3393  -18.7078   22.7940 C   0  0  0  0  0  0  0  0  0  0  0  0
    8.0795  -19.3936   23.8375 C   0  0  0  0  0  0  0  0  0  0  0  0
    9.0260  -20.1820   23.7410 O   0  0  0  0  0  0  0  0  0  0  0  0
    8.0711  -16.3820   23.4089 C   0  0  0  0  0  0  0  0  0  0  0  0
    7.2501  -15.4133   23.5757 O   0  0  0  0  0  0  0  0  0  0  0  0
    7.6666  -19.1296   25.1701 O   0  0  0  0  0  0  0  0  0  0  0  0
    6.2050  -10.9694   25.8819 C   0  0  0  0  0  0  0  0  0  0  0  0
    6.9443  -12.4700   26.5562 S   0  0  0  0  0  0  0  0  0  0  0  0
    7.5464  -13.5588   25.2414 C   0  0  0  0  0  0  0  0  0  0  0  0
    8.0406  -14.8559   25.8714 C   0  0  0  0  0  0  0  0  0  0  0  0
    9.3358  -15.2853   25.2643 C   0  0  2  0  0  0  0  0  0  0  0  0
    9.1658  -16.3662   24.2984 N   0  0  0  0  0  0  0  0  0  0  0  0
   10.1906  -15.8257   26.3683 C   0  0  0  0  0  0  0  0  0  0  0  0
   10.2986  -17.0721   26.4777 O   0  0  0  0  0  0  0  0  0  0  0  0
   10.8535  -15.0195   27.2559 O   0  0  0  0  0  0  0  0  0  0  0  0
  1  2  1  0
  3  2  1  0
  3  4  1  6
  3  5  1  0
  5  6  2  0
  7  5  1  0
  7  8  1  0
  8 12  1  0
  8  9  1  1
 10  9  1  0
 11 10  2  0
 12 20  1  0
 13 12  2  0
 14 10  1  0
 16 17  1  0
 16 15  1  0
 18 17  1  0
 19 18  1  1
 20 19  1  0
 21 19  1  0
 21 23  1  0
 22 21  2  0
M  END
$$$$
