SDM.pdb
     RDKit          3D

 23 22  0  0  1  0  0  0  0  0999 V2000
   10.2358  -11.4850   19.3080 O   0  0  0  0  0  0  0  0  0  0  0  0
    9.7676  -12.4274   20.1924 C   0  0  0  0  0  0  0  0  0  0  0  0
    9.2038  -13.6506   19.5075 C   0  0  2  0  0  0  0  0  0  0  0  0
    8.0080  -13.3067   18.7961 N   0  0  0  0  0  0  0  0  0  0  0  0
    8.9351  -14.7597   20.4265 C   0  0  0  0  0  0  0  0  0  0  0  0
    7.7747  -15.2378   20.6076 O   0  0  0  0  0  0  0  0  0  0  0  0
   10.0020  -15.3407   21.1565 N   0  0  0  0  0  0  0  0  0  0  0  0
    9.6995  -16.5599   21.9992 C   0  0  1  0  0  0  0  0  0  0  0  0
   10.8975  -17.4121   21.7671 C   0  0  0  0  0  0  0  0  0  0  0  0
   11.0500  -18.6484   22.5123 C   0  0  0  0  0  0  0  0  0  0  0  0
   10.1846  -19.4180   22.9432 O   0  0  0  0  0  0  0  0  0  0  0  0
    9.5021  -16.0591   23.3625 C   0  0  0  0  0  0  0  0  0  0  0  0
    9.3050  -16.9168   24.2929 O   0  0  0  0  0  0  0  0  0  0  0  0
   12.3838  -19.0446   22.7951 O   0  0  0  0  0  0  0  0  0  0  0  0
    6.3592  -11.5812   28.2640 C   0  0  0  0  0  0  0  0  0  0  0  0
    6.9674  -12.0557   26.6337 S   0  0  0  0  0  0  0  0  0  0  0  0
    6.8513  -13.8442   26.3796 C   0  0  0  0  0  0  0  0  0  0  0  0
    7.4354  -14.1807   25.0124 C   0  0  0  0  0  0  0  0  0  0  0  0
    8.9168  -14.3528   25.0918 C   0  0  2  0  0  0  0  0  0  0  0  0
    9.5035  -14.7203   23.8069 N   0  0  0  0  0  0  0  0  0  0  0  0
    9.1861  -15.4895   26.0283 C   0  0  0  0  0  0  0  0  0  0  0  0
    9.2973  -16.6427   25.5434 O   0  0  0  0  0  0  0  0  0  0  0  0
    9.3146  -15.3213   27.3819 O   0  0  0  0  0  0  0  0  0  0  0  0
  1  2  1  0
  3  2  1  0
  3  4  1  1
  3  5  1  0
  5  6  2  0
  7  5  1  0
  7  8  1  0
  8 12  1  0
  8  9  1  1
 10  9  1  0
 11 10  2  0
 12 20  1  0
 13 12  2  0
 14 10  1  0
 16 17  1  0
 16 15  1  0
 18 17  1  0
 19 18  1  6
 20 19  1  0
 21 19  1  0
 21 23  1  0
 22 21  2  0
M  END
$$$$
