SDM.pdb
     RDKit          3D

 23 22  0  0  1  0  0  0  0  0999 V2000
   16.1155  -18.2011   22.2041 O   0  0  0  0  0  0  0  0  0  0  0  0
   15.5558  -18.8533   21.1312 C   0  0  0  0  0  0  0  0  0  0  0  0
   14.8227  -17.9235   20.1924 C   0  0  2  0  0  0  0  0  0  0  0  0
   15.6904  -16.8603   19.7789 N   0  0  0  0  0  0  0  0  0  0  0  0
   13.5936  -17.3689   20.7656 C   0  0  0  0  0  0  0  0  0  0  0  0
   13.3751  -16.1227   20.8509 O   0  0  0  0  0  0  0  0  0  0  0  0
   12.5897  -18.2427   21.2529 N   0  0  0  0  0  0  0  0  0  0  0  0
   11.2838  -17.6322   21.7111 C   0  0  1  0  0  0  0  0  0  0  0  0
   10.2961  -18.6852   21.3490 C   0  0  0  0  0  0  0  0  0  0  0  0
    9.6729  -18.6597   20.0383 C   0  0  0  0  0  0  0  0  0  0  0  0
    9.1806  -17.7094   19.4206 O   0  0  0  0  0  0  0  0  0  0  0  0
   11.4567  -17.3554   23.1400 C   0  0  0  0  0  0  0  0  0  0  0  0
   12.5272  -17.7729   23.7057 O   0  0  0  0  0  0  0  0  0  0  0  0
    9.6128  -19.9019   19.3530 O   0  0  0  0  0  0  0  0  0  0  0  0
   10.2425  -13.1545   29.6924 C   0  0  0  0  0  0  0  0  0  0  0  0
    9.5176  -13.8165   28.1793 S   0  0  0  0  0  0  0  0  0  0  0  0
   10.5367  -15.1402   27.4822 C   0  0  0  0  0  0  0  0  0  0  0  0
   10.1208  -15.3629   26.0327 C   0  0  0  0  0  0  0  0  0  0  0  0
   10.9184  -16.4618   25.4107 C   0  0  2  0  0  0  0  0  0  0  0  0
   10.5812  -16.6668   24.0055 N   0  0  0  0  0  0  0  0  0  0  0  0
   10.5683  -17.7296   26.1262 C   0  0  0  0  0  0  0  0  0  0  0  0
    9.7288  -18.4973   25.5943 O   0  0  0  0  0  0  0  0  0  0  0  0
   11.1238  -18.0808   27.3283 O   0  0  0  0  0  0  0  0  0  0  0  0
  1  2  1  0
  3  2  1  0
  3  4  1  1
  3  5  1  0
  5  6  2  0
  7  5  1  0
  7  8  1  0
  8 12  1  0
  8  9  1  1
 10  9  1  0
 11 10  2  0
 12 20  1  0
 13 12  2  0
 14 10  1  0
 16 17  1  0
 16 15  1  0
 18 17  1  0
 19 18  1  1
 20 19  1  0
 21 19  1  0
 21 23  1  0
 22 21  2  0
M  END
$$$$
