MDF.pdb
     RDKit          3D

 28 28  0  0  1  0  0  0  0  0999 V2000
   28.0633  -14.6780  -15.9145 C   0  0  0  0  0  0  0  0  0  0  0  0
   29.1066  -16.0943  -16.3609 S   0  0  0  0  0  0  0  0  0  0  0  0
   28.1301  -17.5936  -16.1074 C   0  0  0  0  0  0  0  0  0  0  0  0
   27.4335  -17.5728  -14.7487 C   0  0  0  0  0  0  0  0  0  0  0  0
   26.6291  -18.8616  -14.6731 C   0  0  2  0  0  0  0  0  0  0  0  0
   25.7869  -18.9282  -15.8187 N   0  0  0  0  0  0  0  0  0  0  0  0
   25.9213  -18.9976  -13.3934 C   0  0  0  0  0  0  0  0  0  0  0  0
   25.4463  -18.0097  -12.7804 O   0  0  0  0  0  0  0  0  0  0  0  0
   25.7508  -20.2803  -12.8002 N   0  0  0  0  0  0  0  0  0  0  0  0
   25.0023  -20.4857  -11.5809 C   0  0  1  0  0  0  0  0  0  0  0  0
   23.9676  -21.5742  -11.7029 C   0  0  0  0  0  0  0  0  0  0  0  0
   22.7578  -21.1586  -12.4514 C   0  0  0  0  0  0  0  0  0  0  0  0
   22.0779  -20.1618  -12.1075 O   0  0  0  0  0  0  0  0  0  0  0  0
   25.9580  -20.7514  -10.4807 C   0  0  0  0  0  0  0  0  0  0  0  0
   26.6893  -21.7693  -10.5553 O   0  0  0  0  0  0  0  0  0  0  0  0
   22.3117  -21.8468  -13.5704 O   0  0  0  0  0  0  0  0  0  0  0  0
   26.0554  -19.8746   -9.3517 N   0  0  0  0  0  0  0  0  0  0  0  0
   26.7855  -20.3261   -8.1935 C   0  0  1  0  0  0  0  0  0  0  0  0
   27.5337  -19.1565   -7.5686 C   0  0  0  0  0  0  0  0  0  0  0  0
   28.1778  -19.4870   -6.2910 C   0  0  0  0  0  0  0  0  0  0  0  0
   27.7002  -18.9985   -5.1070 C   0  0  0  0  0  0  0  0  0  0  0  0
   28.3028  -19.3121   -3.8965 C   0  0  0  0  0  0  0  0  0  0  0  0
   29.4099  -20.1351   -3.8782 C   0  0  0  0  0  0  0  0  0  0  0  0
   29.8933  -20.6287   -5.0713 C   0  0  0  0  0  0  0  0  0  0  0  0
   29.2805  -20.3067   -6.2739 C   0  0  0  0  0  0  0  0  0  0  0  0
   25.9050  -20.9949   -7.2354 C   0  0  0  0  0  0  0  0  0  0  0  0
   26.4742  -21.9538   -6.3765 O   0  0  0  0  0  0  0  0  0  0  0  0
   24.6850  -20.7909   -7.1094 O   0  0  0  0  0  0  0  0  0  0  0  0
  2  1  1  0
  3  2  1  0
  4  3  1  0
  4  5  1  0
  5  6  1  6
  7  5  1  0
  7  8  2  0
  9  7  1  0
 10  9  1  0
 10 11  1  6
 12 11  1  0
 12 16  1  0
 13 12  2  0
 14 10  1  0
 15 14  2  0
 17 14  1  0
 18 17  1  0
 18 26  1  0
 19 20  1  0
 18 19  1  1
 20 25  2  0
 21 22  2  0
 21 20  1  0
 22 23  1  0
 23 24  2  0
 25 24  1  0
 26 27  1  0
 28 26  2  0
M  END
$$$$
