MDF.pdb
     RDKit          3D

 28 28  0  0  1  0  0  0  0  0999 V2000
   32.0513  -21.9196   -9.9600 C   0  0  0  0  0  0  0  0  0  0  0  0
   32.7911  -22.7350  -11.4027 S   0  0  0  0  0  0  0  0  0  0  0  0
   32.2087  -21.8690  -12.8781 C   0  0  0  0  0  0  0  0  0  0  0  0
   31.1279  -20.8493  -12.5263 C   0  0  0  0  0  0  0  0  0  0  0  0
   29.8008  -21.5719  -12.6998 C   0  0  2  0  0  0  0  0  0  0  0  0
   29.6103  -21.8252  -14.0874 N   0  0  0  0  0  0  0  0  0  0  0  0
   28.6918  -20.8538  -12.0581 C   0  0  0  0  0  0  0  0  0  0  0  0
   28.8500  -20.1624  -11.0216 O   0  0  0  0  0  0  0  0  0  0  0  0
   27.3795  -20.9233  -12.6052 N   0  0  0  0  0  0  0  0  0  0  0  0
   26.2289  -20.3363  -11.9566 C   0  0  1  0  0  0  0  0  0  0  0  0
   25.0131  -20.2902  -12.8455 C   0  0  0  0  0  0  0  0  0  0  0  0
   23.7708  -19.9166  -12.1289 C   0  0  0  0  0  0  0  0  0  0  0  0
   23.5185  -18.7270  -11.8197 O   0  0  0  0  0  0  0  0  0  0  0  0
   25.9680  -21.0765  -10.7002 C   0  0  0  0  0  0  0  0  0  0  0  0
   25.8752  -22.3276  -10.7502 O   0  0  0  0  0  0  0  0  0  0  0  0
   22.8210  -20.8587  -11.7614 O   0  0  0  0  0  0  0  0  0  0  0  0
   25.8229  -20.3920   -9.4498 N   0  0  0  0  0  0  0  0  0  0  0  0
   25.5526  -21.1721   -8.2680 C   0  0  1  0  0  0  0  0  0  0  0  0
   26.8605  -21.5185   -7.5697 C   0  0  0  0  0  0  0  0  0  0  0  0
   27.2521  -20.5465   -6.5411 C   0  0  0  0  0  0  0  0  0  0  0  0
   27.4754  -19.2342   -6.8516 C   0  0  0  0  0  0  0  0  0  0  0  0
   27.8409  -18.3107   -5.8819 C   0  0  0  0  0  0  0  0  0  0  0  0
   27.9848  -18.7178   -4.5716 C   0  0  0  0  0  0  0  0  0  0  0  0
   27.7603  -20.0411   -4.2562 C   0  0  0  0  0  0  0  0  0  0  0  0
   27.3952  -20.9531   -5.2363 C   0  0  0  0  0  0  0  0  0  0  0  0
   24.6155  -20.4855   -7.3786 C   0  0  0  0  0  0  0  0  0  0  0  0
   24.2330  -21.1408   -6.1931 O   0  0  0  0  0  0  0  0  0  0  0  0
   24.1204  -19.3624   -7.5771 O   0  0  0  0  0  0  0  0  0  0  0  0
  2  1  1  0
  3  2  1  0
  4  3  1  0
  4  5  1  0
  5  6  1  6
  7  5  1  0
  7  8  2  0
  9  7  1  0
 10  9  1  0
 10 11  1  6
 12 11  1  0
 12 16  1  0
 13 12  2  0
 14 10  1  0
 15 14  2  0
 17 14  1  0
 18 17  1  0
 18 26  1  0
 19 20  1  0
 18 19  1  1
 20 25  2  0
 21 22  2  0
 21 20  1  0
 22 23  1  0
 23 24  2  0
 25 24  1  0
 26 27  1  0
 28 26  2  0
M  END
$$$$
