MDF.pdb
     RDKit          3D

 28 28  0  0  1  0  0  0  0  0999 V2000
   31.3530  -23.0331   -8.2574 C   0  0  0  0  0  0  0  0  0  0  0  0
   32.7714  -22.6913   -9.3366 S   0  0  0  0  0  0  0  0  0  0  0  0
   32.1491  -22.5448  -11.0269 C   0  0  0  0  0  0  0  0  0  0  0  0
   30.8821  -21.6938  -11.0745 C   0  0  0  0  0  0  0  0  0  0  0  0
   30.4215  -21.7127  -12.5240 C   0  0  2  0  0  0  0  0  0  0  0  0
   31.5213  -21.3358  -13.3452 N   0  0  0  0  0  0  0  0  0  0  0  0
   29.2094  -20.9091  -12.7299 C   0  0  0  0  0  0  0  0  0  0  0  0
   29.2195  -19.6542  -12.6807 O   0  0  0  0  0  0  0  0  0  0  0  0
   27.9637  -21.5443  -12.9965 N   0  0  0  0  0  0  0  0  0  0  0  0
   26.7449  -20.8064  -13.2389 C   0  0  1  0  0  0  0  0  0  0  0  0
   26.2031  -21.0074  -14.6305 C   0  0  0  0  0  0  0  0  0  0  0  0
   27.0233  -20.3624  -15.6830 C   0  0  0  0  0  0  0  0  0  0  0  0
   27.5270  -21.0211  -16.6247 O   0  0  0  0  0  0  0  0  0  0  0  0
   25.7553  -21.1775  -12.2009 C   0  0  0  0  0  0  0  0  0  0  0  0
   25.5414  -22.3958  -11.9855 O   0  0  0  0  0  0  0  0  0  0  0  0
   27.2787  -18.9988  -15.6852 O   0  0  0  0  0  0  0  0  0  0  0  0
   25.0516  -20.1785  -11.4527 N   0  0  0  0  0  0  0  0  0  0  0  0
   24.1610  -20.6077  -10.4035 C   0  0  1  0  0  0  0  0  0  0  0  0
   24.1649  -19.5858   -9.2748 C   0  0  0  0  0  0  0  0  0  0  0  0
   25.3598  -19.6552   -8.4242 C   0  0  0  0  0  0  0  0  0  0  0  0
   26.1152  -18.5452   -8.1679 C   0  0  0  0  0  0  0  0  0  0  0  0
   27.2427  -18.6050   -7.3604 C   0  0  0  0  0  0  0  0  0  0  0  0
   27.6173  -19.8084   -6.7993 C   0  0  0  0  0  0  0  0  0  0  0  0
   26.8568  -20.9293   -7.0567 C   0  0  0  0  0  0  0  0  0  0  0  0
   25.7320  -20.8544   -7.8659 C   0  0  0  0  0  0  0  0  0  0  0  0
   22.8143  -20.8597  -10.9169 C   0  0  0  0  0  0  0  0  0  0  0  0
   22.5396  -20.4983  -12.2492 O   0  0  0  0  0  0  0  0  0  0  0  0
   21.8793  -21.3701  -10.2757 O   0  0  0  0  0  0  0  0  0  0  0  0
  2  1  1  0
  3  2  1  0
  4  3  1  0
  4  5  1  0
  5  6  1  6
  7  5  1  0
  7  8  2  0
  9  7  1  0
 10  9  1  0
 10 11  1  6
 12 11  1  0
 12 16  1  0
 13 12  2  0
 14 10  1  0
 15 14  2  0
 17 14  1  0
 18 17  1  0
 18 26  1  0
 19 20  1  0
 18 19  1  1
 20 25  2  0
 21 22  2  0
 21 20  1  0
 22 23  1  0
 23 24  2  0
 25 24  1  0
 26 27  1  0
 28 26  2  0
M  END
$$$$
