MDF.pdb
     RDKit          3D

 28 28  0  0  1  0  0  0  0  0999 V2000
   29.7403  -19.9721  -12.9342 C   0  0  0  0  0  0  0  0  0  0  0  0
   29.6970  -19.6507  -14.7198 S   0  0  0  0  0  0  0  0  0  0  0  0
   28.9680  -18.0151  -14.9630 C   0  0  0  0  0  0  0  0  0  0  0  0
   27.8371  -17.7638  -13.9682 C   0  0  0  0  0  0  0  0  0  0  0  0
   26.6579  -18.5887  -14.4607 C   0  0  2  0  0  0  0  0  0  0  0  0
   26.1171  -17.9489  -15.6113 N   0  0  0  0  0  0  0  0  0  0  0  0
   25.6797  -18.8462  -13.3958 C   0  0  0  0  0  0  0  0  0  0  0  0
   24.8281  -17.9920  -13.0455 O   0  0  0  0  0  0  0  0  0  0  0  0
   25.6699  -20.0974  -12.7171 N   0  0  0  0  0  0  0  0  0  0  0  0
   24.7565  -20.3952  -11.6373 C   0  0  1  0  0  0  0  0  0  0  0  0
   23.6952  -21.3926  -12.0235 C   0  0  0  0  0  0  0  0  0  0  0  0
   22.4812  -21.3219  -11.1762 C   0  0  0  0  0  0  0  0  0  0  0  0
   21.4938  -22.0707  -11.3725 O   0  0  0  0  0  0  0  0  0  0  0  0
   25.5429  -20.8492  -10.4669 C   0  0  0  0  0  0  0  0  0  0  0  0
   26.6783  -21.3475  -10.6649 O   0  0  0  0  0  0  0  0  0  0  0  0
   22.3700  -20.4264  -10.1223 O   0  0  0  0  0  0  0  0  0  0  0  0
   25.0311  -20.7280   -9.1341 N   0  0  0  0  0  0  0  0  0  0  0  0
   25.9336  -20.9418   -8.0305 C   0  0  1  0  0  0  0  0  0  0  0  0
   26.9485  -19.8086   -7.9686 C   0  0  0  0  0  0  0  0  0  0  0  0
   27.8169  -19.8622   -6.7857 C   0  0  0  0  0  0  0  0  0  0  0  0
   27.6528  -18.9929   -5.7436 C   0  0  0  0  0  0  0  0  0  0  0  0
   28.4680  -19.0430   -4.6212 C   0  0  0  0  0  0  0  0  0  0  0  0
   29.4698  -19.9886   -4.5470 C   0  0  0  0  0  0  0  0  0  0  0  0
   29.6371  -20.8663   -5.5970 C   0  0  0  0  0  0  0  0  0  0  0  0
   28.8144  -20.8044   -6.7128 C   0  0  0  0  0  0  0  0  0  0  0  0
   25.2070  -21.1033   -6.7709 C   0  0  0  0  0  0  0  0  0  0  0  0
   25.7138  -22.0210   -5.8317 O   0  0  0  0  0  0  0  0  0  0  0  0
   24.1702  -20.4962   -6.4509 O   0  0  0  0  0  0  0  0  0  0  0  0
  2  1  1  0
  3  2  1  0
  4  3  1  0
  4  5  1  0
  5  6  1  6
  7  5  1  0
  7  8  2  0
  9  7  1  0
 10  9  1  0
 10 11  1  6
 12 11  1  0
 12 16  1  0
 13 12  2  0
 14 10  1  0
 15 14  2  0
 17 14  1  0
 18 17  1  0
 18 26  1  0
 19 20  1  0
 18 19  1  1
 20 25  2  0
 21 22  2  0
 21 20  1  0
 22 23  1  0
 23 24  2  0
 25 24  1  0
 26 27  1  0
 28 26  2  0
M  END
$$$$
