MDF.pdb
     RDKit          3D

 28 28  0  0  1  0  0  0  0  0999 V2000
   20.0307  -21.2276  -12.4352 C   0  0  0  0  0  0  0  0  0  0  0  0
   19.1340  -19.6844  -12.7636 S   0  0  0  0  0  0  0  0  0  0  0  0
   20.3269  -18.4836  -13.3968 C   0  0  0  0  0  0  0  0  0  0  0  0
   21.4967  -19.1819  -14.0864 C   0  0  0  0  0  0  0  0  0  0  0  0
   22.7559  -18.5528  -13.5100 C   0  0  2  0  0  0  0  0  0  0  0  0
   23.3637  -17.7628  -14.5261 N   0  0  0  0  0  0  0  0  0  0  0  0
   23.6472  -19.5521  -12.9065 C   0  0  0  0  0  0  0  0  0  0  0  0
   23.2175  -20.4880  -12.1875 O   0  0  0  0  0  0  0  0  0  0  0  0
   25.0523  -19.4858  -13.1246 N   0  0  0  0  0  0  0  0  0  0  0  0
   25.9664  -20.5013  -12.6533 C   0  0  1  0  0  0  0  0  0  0  0  0
   27.1768  -20.6583  -13.5369 C   0  0  0  0  0  0  0  0  0  0  0  0
   28.1455  -21.6635  -13.0393 C   0  0  0  0  0  0  0  0  0  0  0  0
   27.9281  -22.3334  -12.0009 O   0  0  0  0  0  0  0  0  0  0  0  0
   26.3394  -20.1865  -11.2546 C   0  0  0  0  0  0  0  0  0  0  0  0
   27.2597  -19.3567  -11.0523 O   0  0  0  0  0  0  0  0  0  0  0  0
   29.3428  -21.9186  -13.6922 O   0  0  0  0  0  0  0  0  0  0  0  0
   25.6729  -20.8081  -10.1490 N   0  0  0  0  0  0  0  0  0  0  0  0
   26.3592  -20.8731   -8.8828 C   0  0  1  0  0  0  0  0  0  0  0  0
   26.8449  -19.4849   -8.4888 C   0  0  0  0  0  0  0  0  0  0  0  0
   27.4837  -19.4396   -7.1675 C   0  0  0  0  0  0  0  0  0  0  0  0
   26.7420  -19.4389   -6.0192 C   0  0  0  0  0  0  0  0  0  0  0  0
   27.3415  -19.4012   -4.7678 C   0  0  0  0  0  0  0  0  0  0  0  0
   28.7172  -19.3631   -4.6710 C   0  0  0  0  0  0  0  0  0  0  0  0
   29.4671  -19.3635   -5.8279 C   0  0  0  0  0  0  0  0  0  0  0  0
   28.8540  -19.4016   -7.0721 C   0  0  0  0  0  0  0  0  0  0  0  0
   25.5174  -21.4783   -7.8505 C   0  0  0  0  0  0  0  0  0  0  0  0
   26.1506  -22.2253   -6.8394 O   0  0  0  0  0  0  0  0  0  0  0  0
   24.2789  -21.3918   -7.7843 O   0  0  0  0  0  0  0  0  0  0  0  0
  2  1  1  0
  3  2  1  0
  4  3  1  0
  4  5  1  0
  5  6  1  6
  7  5  1  0
  7  8  2  0
  9  7  1  0
 10  9  1  0
 10 11  1  6
 12 11  1  0
 12 16  1  0
 13 12  2  0
 14 10  1  0
 15 14  2  0
 17 14  1  0
 18 17  1  0
 18 26  1  0
 19 20  1  0
 18 19  1  1
 20 25  2  0
 21 22  2  0
 21 20  1  0
 22 23  1  0
 23 24  2  0
 25 24  1  0
 26 27  1  0
 28 26  2  0
M  END
$$$$
