MDF.pdb
     RDKit          3D

 28 28  0  0  1  0  0  0  0  0999 V2000
   22.1634  -21.5063  -24.4638 C   0  0  0  0  0  0  0  0  0  0  0  0
   23.5687  -21.9163  -23.3912 S   0  0  0  0  0  0  0  0  0  0  0  0
   23.4585  -20.8695  -21.9222 C   0  0  0  0  0  0  0  0  0  0  0  0
   22.1369  -20.1052  -21.8897 C   0  0  0  0  0  0  0  0  0  0  0  0
   21.5683  -20.3153  -20.4947 C   0  0  2  0  0  0  0  0  0  0  0  0
   20.2234  -20.7629  -20.6253 N   0  0  0  0  0  0  0  0  0  0  0  0
   21.7307  -19.1274  -19.6463 C   0  0  0  0  0  0  0  0  0  0  0  0
   21.9556  -17.9875  -20.1232 O   0  0  0  0  0  0  0  0  0  0  0  0
   21.6357  -19.2380  -18.2304 N   0  0  0  0  0  0  0  0  0  0  0  0
   21.3572  -18.1077  -17.3738 C   0  0  1  0  0  0  0  0  0  0  0  0
   20.1100  -17.3618  -17.7720 C   0  0  0  0  0  0  0  0  0  0  0  0
   19.8735  -16.1365  -16.9724 C   0  0  0  0  0  0  0  0  0  0  0  0
   19.7677  -15.0073  -17.5090 O   0  0  0  0  0  0  0  0  0  0  0  0
   21.2937  -18.5833  -15.9723 C   0  0  0  0  0  0  0  0  0  0  0  0
   21.6301  -17.7937  -15.0559 O   0  0  0  0  0  0  0  0  0  0  0  0
   19.7562  -16.1704  -15.5904 O   0  0  0  0  0  0  0  0  0  0  0  0
   20.8602  -19.9119  -15.6563 N   0  0  0  0  0  0  0  0  0  0  0  0
   20.8636  -20.3244  -14.2749 C   0  0  1  0  0  0  0  0  0  0  0  0
   20.0915  -19.3163  -13.4348 C   0  0  0  0  0  0  0  0  0  0  0  0
   20.2412  -19.5204  -11.9885 C   0  0  0  0  0  0  0  0  0  0  0  0
   21.0005  -18.6768  -11.2265 C   0  0  0  0  0  0  0  0  0  0  0  0
   21.1409  -18.8628   -9.8581 C   0  0  0  0  0  0  0  0  0  0  0  0
   20.5032  -19.9210   -9.2442 C   0  0  0  0  0  0  0  0  0  0  0  0
   19.7371  -20.7731  -10.0109 C   0  0  0  0  0  0  0  0  0  0  0  0
   19.6057  -20.5747  -11.3780 C   0  0  0  0  0  0  0  0  0  0  0  0
   20.3448  -21.6839  -14.1230 C   0  0  0  0  0  0  0  0  0  0  0  0
   19.7210  -22.2786  -15.2359 O   0  0  0  0  0  0  0  0  0  0  0  0
   20.4056  -22.3700  -13.0879 O   0  0  0  0  0  0  0  0  0  0  0  0
  2  1  1  0
  3  2  1  0
  4  3  1  0
  4  5  1  0
  5  6  1  6
  7  5  1  0
  7  8  2  0
  9  7  1  0
 10  9  1  0
 10 11  1  6
 12 11  1  0
 12 16  1  0
 13 12  2  0
 14 10  1  0
 15 14  2  0
 17 14  1  0
 18 17  1  0
 18 26  1  0
 19 20  1  0
 18 19  1  1
 20 25  2  0
 21 22  2  0
 21 20  1  0
 22 23  1  0
 23 24  2  0
 25 24  1  0
 26 27  1  0
 28 26  2  0
M  END
$$$$
