MDF.pdb
     RDKit          3D

 28 28  0  0  1  0  0  0  0  0999 V2000
   29.9396  -20.4822   -8.9936 C   0  0  0  0  0  0  0  0  0  0  0  0
   30.7674  -21.8991   -9.7686 S   0  0  0  0  0  0  0  0  0  0  0  0
   30.6052  -21.7144  -11.5590 C   0  0  0  0  0  0  0  0  0  0  0  0
   29.1860  -21.3014  -11.9428 C   0  0  0  0  0  0  0  0  0  0  0  0
   29.2214  -21.0294  -13.4389 C   0  0  2  0  0  0  0  0  0  0  0  0
   30.1921  -20.0178  -13.6843 N   0  0  0  0  0  0  0  0  0  0  0  0
   27.8882  -20.7322  -13.9788 C   0  0  0  0  0  0  0  0  0  0  0  0
   27.4075  -19.5720  -13.9795 O   0  0  0  0  0  0  0  0  0  0  0  0
   27.0875  -21.7734  -14.5275 N   0  0  0  0  0  0  0  0  0  0  0  0
   25.8094  -21.5291  -15.1567 C   0  0  1  0  0  0  0  0  0  0  0  0
   25.5708  -22.4023  -16.3612 C   0  0  0  0  0  0  0  0  0  0  0  0
   26.5377  -22.1704  -17.4603 C   0  0  0  0  0  0  0  0  0  0  0  0
   27.4248  -23.0096  -17.7481 O   0  0  0  0  0  0  0  0  0  0  0  0
   24.7452  -21.6881  -14.1384 C   0  0  0  0  0  0  0  0  0  0  0  0
   24.6414  -22.7912  -13.5477 O   0  0  0  0  0  0  0  0  0  0  0  0
   26.5153  -21.0158  -18.2292 O   0  0  0  0  0  0  0  0  0  0  0  0
   23.8484  -20.6153  -13.8256 N   0  0  0  0  0  0  0  0  0  0  0  0
   22.8627  -20.8238  -12.7945 C   0  0  1  0  0  0  0  0  0  0  0  0
   23.0070  -19.7542  -11.7206 C   0  0  0  0  0  0  0  0  0  0  0  0
   24.0827  -20.0287  -10.7595 C   0  0  0  0  0  0  0  0  0  0  0  0
   25.3762  -19.6711  -11.0193 C   0  0  0  0  0  0  0  0  0  0  0  0
   26.3956  -19.9240  -10.1117 C   0  0  0  0  0  0  0  0  0  0  0  0
   26.1060  -20.5505   -8.9172 C   0  0  0  0  0  0  0  0  0  0  0  0
   24.8019  -20.9122   -8.6532 C   0  0  0  0  0  0  0  0  0  0  0  0
   23.7931  -20.6528   -9.5700 C   0  0  0  0  0  0  0  0  0  0  0  0
   21.5104  -20.8700  -13.3511 C   0  0  0  0  0  0  0  0  0  0  0  0
   21.3448  -20.5315  -14.7072 O   0  0  0  0  0  0  0  0  0  0  0  0
   20.4818  -21.1848  -12.7276 O   0  0  0  0  0  0  0  0  0  0  0  0
  2  1  1  0
  3  2  1  0
  4  3  1  0
  4  5  1  0
  5  6  1  1
  7  5  1  0
  7  8  2  0
  9  7  1  0
 10  9  1  0
 10 11  1  6
 12 11  1  0
 12 16  1  0
 13 12  2  0
 14 10  1  0
 15 14  2  0
 17 14  1  0
 18 17  1  0
 18 26  1  0
 19 20  1  0
 18 19  1  1
 20 25  2  0
 21 22  2  0
 21 20  1  0
 22 23  1  0
 23 24  2  0
 25 24  1  0
 26 27  1  0
 28 26  2  0
M  END
$$$$
