TQK.pdb
     RDKit          3D

 26 25  0  0  1  0  0  0  0  0999 V2000
    7.8043  -19.6473   18.3427 C   0  0  0  0  0  0  0  0  0  0  0  0
    8.9275  -19.5532   17.3696 C   0  0  1  0  0  0  0  0  0  0  0  0
    8.7421  -20.5284   16.3730 O   0  0  0  0  0  0  0  0  0  0  0  0
    9.1312  -18.2103   16.7583 C   0  0  2  0  0  0  0  0  0  0  0  0
   10.1408  -18.1575   15.7592 N   0  0  0  0  0  0  0  0  0  0  0  0
    9.3232  -17.2256   17.8501 C   0  0  0  0  0  0  0  0  0  0  0  0
   10.4350  -17.2245   18.4361 O   0  0  0  0  0  0  0  0  0  0  0  0
    8.7250  -12.1301   19.2625 N   0  0  0  0  0  0  0  0  0  0  0  0
    8.3336  -12.5492   20.5499 C   0  0  0  0  0  0  0  0  0  0  0  0
    8.8371  -12.0609   21.5715 O   0  0  0  0  0  0  0  0  0  0  0  0
    7.2770  -13.6162   20.6365 C   0  0  0  0  0  0  0  0  0  0  0  0
    7.3545  -14.4721   19.3975 C   0  0  0  0  0  0  0  0  0  0  0  0
    8.4779  -15.4417   19.4364 C   0  0  2  0  0  0  0  0  0  0  0  0
    8.3509  -16.3040   18.2659 N   0  0  0  0  0  0  0  0  0  0  0  0
    8.5873  -16.2475   20.6776 C   0  0  0  0  0  0  0  0  0  0  0  0
    7.7252  -17.1188   20.9332 O   0  0  0  0  0  0  0  0  0  0  0  0
    9.6429  -16.0742   21.6062 N   0  0  0  0  0  0  0  0  0  0  0  0
    9.8272  -16.7830   22.8472 C   0  0  1  0  0  0  0  0  0  0  0  0
   11.2119  -17.2860   23.0338 C   0  0  0  0  0  0  0  0  0  0  0  0
   11.4165  -18.2868   24.1248 C   0  0  0  0  0  0  0  0  0  0  0  0
   12.8744  -18.6723   24.2904 C   0  0  0  0  0  0  0  0  0  0  0  0
   13.0086  -19.7911   25.3285 C   0  0  0  0  0  0  0  0  0  0  0  0
   14.3917  -20.0830   25.5551 N   0  0  0  0  0  0  0  0  0  0  0  0
    9.2422  -16.0792   24.0063 C   0  0  0  0  0  0  0  0  0  0  0  0
    8.9722  -16.7614   25.1635 O   0  0  0  0  0  0  0  0  0  0  0  0
    8.9910  -14.8654   23.9405 O   0  0  0  0  0  0  0  0  0  0  0  0
  2  1  1  1
  3  2  1  0
  4  2  1  0
  4  6  1  0
  4  5  1  6
  6  7  2  0
  8  9  1  0
  9 11  1  0
  9 10  2  0
 11 12  1  0
 13 12  1  1
 14  6  1  0
 14 13  1  0
 15 13  1  0
 15 16  2  0
 17 15  1  0
 18 17  1  0
 18 24  1  0
 18 19  1  1
 20 19  1  0
 21 20  1  0
 22 21  1  0
 23 22  1  0
 24 25  1  0
 26 24  2  0
M  END
$$$$
