TQK.pdb
     RDKit          3D

 26 25  0  0  1  0  0  0  0  0999 V2000
   18.4808  -15.6811   17.6767 C   0  0  0  0  0  0  0  0  0  0  0  0
   18.0017  -14.4106   18.2878 C   0  0  1  0  0  0  0  0  0  0  0  0
   19.0410  -13.4643   18.2313 O   0  0  0  0  0  0  0  0  0  0  0  0
   16.7513  -13.8523   17.7016 C   0  0  2  0  0  0  0  0  0  0  0  0
   16.9318  -12.6789   16.9201 N   0  0  0  0  0  0  0  0  0  0  0  0
   15.7566  -13.6947   18.7897 C   0  0  0  0  0  0  0  0  0  0  0  0
   15.5642  -12.5338   19.2308 O   0  0  0  0  0  0  0  0  0  0  0  0
   10.4036  -15.7454   19.2081 N   0  0  0  0  0  0  0  0  0  0  0  0
   10.4547  -15.4881   20.5928 C   0  0  0  0  0  0  0  0  0  0  0  0
    9.4256  -15.4420   21.2819 O   0  0  0  0  0  0  0  0  0  0  0  0
   11.8114  -15.2708   21.2045 C   0  0  0  0  0  0  0  0  0  0  0  0
   12.8459  -15.3114   20.1081 C   0  0  0  0  0  0  0  0  0  0  0  0
   14.1012  -14.6088   20.4743 C   0  0  2  0  0  0  0  0  0  0  0  0
   15.0236  -14.7502   19.3522 N   0  0  0  0  0  0  0  0  0  0  0  0
   14.7373  -15.0493   21.7405 C   0  0  0  0  0  0  0  0  0  0  0  0
   14.1084  -15.7915   22.5288 O   0  0  0  0  0  0  0  0  0  0  0  0
   16.0495  -14.6619   22.1072 N   0  0  0  0  0  0  0  0  0  0  0  0
   17.0725  -15.5038   22.6739 C   0  0  1  0  0  0  0  0  0  0  0  0
   17.2033  -16.8118   21.9829 C   0  0  0  0  0  0  0  0  0  0  0  0
   17.4193  -18.0072   22.8536 C   0  0  0  0  0  0  0  0  0  0  0  0
   17.5435  -19.2904   22.0539 C   0  0  0  0  0  0  0  0  0  0  0  0
   19.0161  -19.5759   21.7417 C   0  0  0  0  0  0  0  0  0  0  0  0
   19.1421  -20.8552   21.1117 N   0  0  0  0  0  0  0  0  0  0  0  0
   18.3381  -14.7852   22.9246 C   0  0  0  0  0  0  0  0  0  0  0  0
   18.7060  -13.7355   22.1245 O   0  0  0  0  0  0  0  0  0  0  0  0
   19.0772  -15.1268   23.8615 O   0  0  0  0  0  0  0  0  0  0  0  0
  2  1  1  6
  3  2  1  0
  4  2  1  0
  4  6  1  0
  4  5  1  1
  6  7  2  0
  8  9  1  0
  9 11  1  0
  9 10  2  0
 11 12  1  0
 13 12  1  6
 14  6  1  0
 14 13  1  0
 15 13  1  0
 15 16  2  0
 17 15  1  0
 18 17  1  0
 18 24  1  0
 18 19  1  6
 20 19  1  0
 21 20  1  0
 22 21  1  0
 23 22  1  0
 24 25  1  0
 26 24  2  0
M  END
$$$$
