TQK.pdb
     RDKit          3D

 26 25  0  0  1  0  0  0  0  0999 V2000
   17.7788  -19.6900   13.8674 C   0  0  0  0  0  0  0  0  0  0  0  0
   16.4367  -19.1132   13.5793 C   0  0  1  0  0  0  0  0  0  0  0  0
   16.2864  -18.9980   12.1854 O   0  0  0  0  0  0  0  0  0  0  0  0
   15.2852  -19.8490   14.1722 C   0  0  2  0  0  0  0  0  0  0  0  0
   14.0069  -19.4047   13.7378 N   0  0  0  0  0  0  0  0  0  0  0  0
   15.4440  -19.8529   15.6463 C   0  0  0  0  0  0  0  0  0  0  0  0
   15.1365  -18.8012   16.2617 O   0  0  0  0  0  0  0  0  0  0  0  0
   11.9245  -22.9179   18.6275 N   0  0  0  0  0  0  0  0  0  0  0  0
   13.3080  -22.9676   18.3634 C   0  0  0  0  0  0  0  0  0  0  0  0
   13.8226  -23.9337   17.7823 O   0  0  0  0  0  0  0  0  0  0  0  0
   14.1391  -21.7985   18.8157 C   0  0  0  0  0  0  0  0  0  0  0  0
   15.5793  -22.0641   18.4563 C   0  0  0  0  0  0  0  0  0  0  0  0
   16.2365  -20.8994   17.8120 C   0  0  2  0  0  0  0  0  0  0  0  0
   15.9115  -20.9465   16.3901 N   0  0  0  0  0  0  0  0  0  0  0  0
   17.7026  -20.7958   18.0162 C   0  0  0  0  0  0  0  0  0  0  0  0
   18.4787  -21.5011   17.3322 O   0  0  0  0  0  0  0  0  0  0  0  0
   18.2776  -19.9185   18.9682 N   0  0  0  0  0  0  0  0  0  0  0  0
   19.6801  -19.7538   19.2552 C   0  0  1  0  0  0  0  0  0  0  0  0
   20.1103  -18.3326   19.2761 C   0  0  0  0  0  0  0  0  0  0  0  0
   21.5678  -18.0801   19.4898 C   0  0  0  0  0  0  0  0  0  0  0  0
   21.9096  -16.6024   19.4583 C   0  0  0  0  0  0  0  0  0  0  0  0
   23.3962  -16.3991   19.7683 C   0  0  0  0  0  0  0  0  0  0  0  0
   23.7705  -15.0443   19.4965 N   0  0  0  0  0  0  0  0  0  0  0  0
   20.1366  -20.5756   20.3940 C   0  0  0  0  0  0  0  0  0  0  0  0
   19.3738  -20.6675   21.5285 O   0  0  0  0  0  0  0  0  0  0  0  0
   21.2141  -21.1887   20.3318 O   0  0  0  0  0  0  0  0  0  0  0  0
  2  1  1  6
  3  2  1  0
  4  2  1  0
  4  6  1  0
  4  5  1  1
  6  7  2  0
  8  9  1  0
  9 11  1  0
  9 10  2  0
 11 12  1  0
 13 12  1  1
 14  6  1  0
 14 13  1  0
 15 13  1  0
 15 16  2  0
 17 15  1  0
 18 17  1  0
 18 24  1  0
 18 19  1  1
 20 19  1  0
 21 20  1  0
 22 21  1  0
 23 22  1  0
 24 25  1  0
 26 24  2  0
M  END
$$$$
