TQK.pdb
     RDKit          3D

 26 25  0  0  1  0  0  0  0  0999 V2000
    9.3125  -12.3916   19.6246 C   0  0  0  0  0  0  0  0  0  0  0  0
    8.3235  -13.0385   18.7187 C   0  0  1  0  0  0  0  0  0  0  0  0
    8.2365  -12.2835   17.5351 O   0  0  0  0  0  0  0  0  0  0  0  0
    8.5843  -14.4719   18.4088 C   0  0  2  0  0  0  0  0  0  0  0  0
    7.6652  -15.0615   17.4990 N   0  0  0  0  0  0  0  0  0  0  0  0
    8.7103  -15.2099   19.6886 C   0  0  0  0  0  0  0  0  0  0  0  0
    7.6490  -15.6105   20.2296 O   0  0  0  0  0  0  0  0  0  0  0  0
   13.1992  -18.8822   20.9914 N   0  0  0  0  0  0  0  0  0  0  0  0
   12.6027  -18.9911   22.2637 C   0  0  0  0  0  0  0  0  0  0  0  0
   13.0068  -19.8107   23.1009 O   0  0  0  0  0  0  0  0  0  0  0  0
   11.4524  -18.0709   22.5674 C   0  0  0  0  0  0  0  0  0  0  0  0
   11.1971  -17.2048   21.3598 C   0  0  0  0  0  0  0  0  0  0  0  0
   10.0592  -16.2709   21.5509 C   0  0  2  0  0  0  0  0  0  0  0  0
    9.9282  -15.4864   20.3273 N   0  0  0  0  0  0  0  0  0  0  0  0
   10.1475  -15.3865   22.7392 C   0  0  0  0  0  0  0  0  0  0  0  0
   10.3671  -14.1627   22.5906 O   0  0  0  0  0  0  0  0  0  0  0  0
    9.9919  -15.8711   24.0611 N   0  0  0  0  0  0  0  0  0  0  0  0
    9.1312  -15.3321   25.0834 C   0  0  1  0  0  0  0  0  0  0  0  0
    7.7975  -14.9263   24.5717 C   0  0  0  0  0  0  0  0  0  0  0  0
    6.8006  -14.4775   25.5907 C   0  0  0  0  0  0  0  0  0  0  0  0
    6.9159  -12.9967   25.8999 C   0  0  0  0  0  0  0  0  0  0  0  0
    5.8828  -12.5979   26.9587 C   0  0  0  0  0  0  0  0  0  0  0  0
    6.0431  -11.2171   27.3009 N   0  0  0  0  0  0  0  0  0  0  0  0
    9.1214  -16.1441   26.3169 C   0  0  0  0  0  0  0  0  0  0  0  0
    8.9748  -17.5047   26.2464 O   0  0  0  0  0  0  0  0  0  0  0  0
    9.2458  -15.6003   27.4257 O   0  0  0  0  0  0  0  0  0  0  0  0
  2  1  1  1
  3  2  1  0
  4  2  1  0
  4  6  1  0
  4  5  1  6
  6  7  2  0
  8  9  1  0
  9 11  1  0
  9 10  2  0
 11 12  1  0
 13 12  1  6
 14  6  1  0
 14 13  1  0
 15 13  1  0
 15 16  2  0
 17 15  1  0
 18 17  1  0
 18 24  1  0
 18 19  1  6
 20 19  1  0
 21 20  1  0
 22 21  1  0
 23 22  1  0
 24 25  1  0
 26 24  2  0
M  END
$$$$
