TQK.pdb
     RDKit          3D

 26 25  0  0  1  0  0  0  0  0999 V2000
    8.9414  -12.3078   18.1000 C   0  0  0  0  0  0  0  0  0  0  0  0
    8.9968  -13.3214   19.1894 C   0  0  1  0  0  0  0  0  0  0  0  0
    8.1439  -12.9107   20.2298 O   0  0  0  0  0  0  0  0  0  0  0  0
    8.6865  -14.7187   18.7772 C   0  0  2  0  0  0  0  0  0  0  0  0
    7.4260  -14.8866   18.1423 N   0  0  0  0  0  0  0  0  0  0  0  0
    8.8846  -15.6051   19.9491 C   0  0  0  0  0  0  0  0  0  0  0  0
    7.8554  -16.0095   20.5462 O   0  0  0  0  0  0  0  0  0  0  0  0
   14.2164  -19.3323   23.0706 N   0  0  0  0  0  0  0  0  0  0  0  0
   13.1207  -19.3632   22.1846 C   0  0  0  0  0  0  0  0  0  0  0  0
   13.1450  -20.0409   21.1473 O   0  0  0  0  0  0  0  0  0  0  0  0
   11.9162  -18.5390   22.5479 C   0  0  0  0  0  0  0  0  0  0  0  0
   11.5673  -17.6546   21.3775 C   0  0  0  0  0  0  0  0  0  0  0  0
   10.3349  -16.8588   21.6040 C   0  0  2  0  0  0  0  0  0  0  0  0
   10.1370  -16.0167   20.4286 N   0  0  0  0  0  0  0  0  0  0  0  0
   10.3146  -16.0467   22.8458 C   0  0  0  0  0  0  0  0  0  0  0  0
   11.2405  -15.2359   23.0757 O   0  0  0  0  0  0  0  0  0  0  0  0
    9.2756  -16.1475   23.8034 N   0  0  0  0  0  0  0  0  0  0  0  0
    9.1435  -15.3848   25.0187 C   0  0  1  0  0  0  0  0  0  0  0  0
    7.9653  -14.4807   25.0173 C   0  0  0  0  0  0  0  0  0  0  0  0
    7.7959  -13.6042   26.2159 C   0  0  0  0  0  0  0  0  0  0  0  0
    6.5671  -12.7199   26.1169 C   0  0  0  0  0  0  0  0  0  0  0  0
    6.4466  -11.8439   27.3681 C   0  0  0  0  0  0  0  0  0  0  0  0
    5.3554  -10.9292   27.2200 N   0  0  0  0  0  0  0  0  0  0  0  0
    9.3187  -16.2029   26.2356 C   0  0  0  0  0  0  0  0  0  0  0  0
    9.4974  -15.5998   27.4529 O   0  0  0  0  0  0  0  0  0  0  0  0
    9.3054  -17.4420   26.1645 O   0  0  0  0  0  0  0  0  0  0  0  0
  2  1  1  6
  3  2  1  0
  4  2  1  0
  4  6  1  0
  4  5  1  1
  6  7  2  0
  8  9  1  0
  9 11  1  0
  9 10  2  0
 11 12  1  0
 13 12  1  6
 14  6  1  0
 14 13  1  0
 15 13  1  0
 15 16  2  0
 17 15  1  0
 18 17  1  0
 18 24  1  0
 18 19  1  1
 20 19  1  0
 21 20  1  0
 22 21  1  0
 23 22  1  0
 24 25  1  0
 26 24  2  0
M  END
$$$$
