TQK.pdb
     RDKit          3D

 26 25  0  0  1  0  0  0  0  0999 V2000
    8.0516  -13.0485   19.6430 C   0  0  0  0  0  0  0  0  0  0  0  0
    7.6096  -13.7123   18.3856 C   0  0  1  0  0  0  0  0  0  0  0  0
    6.5472  -12.9724   17.8356 O   0  0  0  0  0  0  0  0  0  0  0  0
    8.6774  -13.9313   17.3703 C   0  0  2  0  0  0  0  0  0  0  0  0
    8.2311  -14.5114   16.1519 N   0  0  0  0  0  0  0  0  0  0  0  0
    9.7856  -14.6776   18.0132 C   0  0  0  0  0  0  0  0  0  0  0  0
    9.7365  -15.9326   17.9698 O   0  0  0  0  0  0  0  0  0  0  0  0
   15.2508  -16.6827   19.5939 N   0  0  0  0  0  0  0  0  0  0  0  0
   15.1753  -15.2827   19.4507 C   0  0  0  0  0  0  0  0  0  0  0  0
   15.8875  -14.6750   18.6386 O   0  0  0  0  0  0  0  0  0  0  0  0
   14.1934  -14.5517   20.3246 C   0  0  0  0  0  0  0  0  0  0  0  0
   13.1098  -13.9722   19.4506 C   0  0  0  0  0  0  0  0  0  0  0  0
   11.8784  -14.8009   19.4339 C   0  0  2  0  0  0  0  0  0  0  0  0
   10.8751  -14.0763   18.6606 N   0  0  0  0  0  0  0  0  0  0  0  0
   11.3450  -15.1846   20.7644 C   0  0  0  0  0  0  0  0  0  0  0  0
   10.7755  -14.3280   21.4784 O   0  0  0  0  0  0  0  0  0  0  0  0
   11.4517  -16.5014   21.2756 N   0  0  0  0  0  0  0  0  0  0  0  0
   10.9702  -16.9761   22.5480 C   0  0  1  0  0  0  0  0  0  0  0  0
   10.3175  -18.3075   22.4672 C   0  0  0  0  0  0  0  0  0  0  0  0
    9.8799  -18.9154   23.7605 C   0  0  0  0  0  0  0  0  0  0  0  0
    9.3661  -20.3325   23.5892 C   0  0  0  0  0  0  0  0  0  0  0  0
    8.7867  -20.8459   24.9113 C   0  0  0  0  0  0  0  0  0  0  0  0
    8.3645  -22.2059   24.7635 N   0  0  0  0  0  0  0  0  0  0  0  0
   11.9561  -16.8136   23.6354 C   0  0  0  0  0  0  0  0  0  0  0  0
   11.5392  -16.7260   24.9377 O   0  0  0  0  0  0  0  0  0  0  0  0
   13.1689  -16.7552   23.3776 O   0  0  0  0  0  0  0  0  0  0  0  0
  2  1  1  1
  3  2  1  0
  4  2  1  0
  4  6  1  0
  4  5  1  6
  6  7  2  0
  8  9  1  0
  9 11  1  0
  9 10  2  0
 11 12  1  0
 13 12  1  1
 14  6  1  0
 14 13  1  0
 15 13  1  0
 15 16  2  0
 17 15  1  0
 18 17  1  0
 18 24  1  0
 18 19  1  6
 20 19  1  0
 21 20  1  0
 22 21  1  0
 23 22  1  0
 24 25  1  0
 26 24  2  0
M  END
$$$$
