VCK.pdb
     RDKit          3D

 23 22  0  0  1  0  0  0  0  0999 V2000
   28.3167  -21.2988  -16.3377 C   0  0  0  0  0  0  0  0  0  0  0  0
   28.4948  -20.2318  -15.2635 C   0  0  2  0  0  0  0  0  0  0  0  0
   28.9792  -20.9616  -14.0324 C   0  0  0  0  0  0  0  0  0  0  0  0
   27.0985  -19.6804  -14.9618 C   0  0  2  0  0  0  0  0  0  0  0  0
   27.2749  -18.4275  -14.1761 N   0  0  0  0  0  0  0  0  0  0  0  0
   26.2615  -20.6222  -14.1980 C   0  0  0  0  0  0  0  0  0  0  0  0
   25.9839  -21.7450  -14.7379 O   0  0  0  0  0  0  0  0  0  0  0  0
   25.7406  -20.4009  -12.9279 N   0  0  0  0  0  0  0  0  0  0  0  0
   24.8191  -21.2882  -12.2456 C   0  0  1  0  0  0  0  0  0  0  0  0
   25.1973  -21.4560  -10.7788 C   0  0  0  0  0  0  0  0  0  0  0  0
   25.3004  -19.8796   -9.9229 S   0  0  0  0  0  0  0  0  0  0  0  0
   23.4385  -20.7361  -12.2553 C   0  0  0  0  0  0  0  0  0  0  0  0
   23.2876  -19.5393  -11.9008 O   0  0  0  0  0  0  0  0  0  0  0  0
   22.3035  -21.4625  -12.6326 N   0  0  0  0  0  0  0  0  0  0  0  0
   21.0035  -20.8924  -12.9126 C   0  0  1  0  0  0  0  0  0  0  0  0
   20.8682  -20.8653  -14.4377 C   0  0  0  0  0  0  0  0  0  0  0  0
   20.8118  -19.4466  -14.9510 C   0  0  0  0  0  0  0  0  0  0  0  0
   22.1154  -19.1621  -15.6531 C   0  0  0  0  0  0  0  0  0  0  0  0
   22.2034  -17.7127  -16.1019 C   0  0  0  0  0  0  0  0  0  0  0  0
   23.4702  -17.5621  -16.7942 N   0  0  0  0  0  0  0  0  0  0  0  0
   19.9066  -21.8004  -12.4338 C   0  0  0  0  0  0  0  0  0  0  0  0
   20.1461  -23.0043  -12.1592 O   0  0  0  0  0  0  0  0  0  0  0  0
   18.6111  -21.3477  -12.2807 O   0  0  0  0  0  0  0  0  0  0  0  0
  2  1  1  6
  3  2  1  0
  4  5  1  1
  4  2  1  0
  6  4  1  0
  6  7  2  0
  8  6  1  0
  9  8  1  0
  9 12  1  0
  9 10  1  1
 11 10  1  0
 12 13  2  0
 12 14  1  0
 14 15  1  0
 15 21  1  0
 15 16  1  6
 16 17  1  0
 18 19  1  0
 18 17  1  0
 20 19  1  0
 21 22  2  0
 21 23  1  0
M  END
$$$$
