VCK.pdb
     RDKit          3D

 23 22  0  0  1  0  0  0  0  0999 V2000
   22.1331  -14.3845  -18.5077 C   0  0  0  0  0  0  0  0  0  0  0  0
   21.1910  -13.9212  -19.6132 C   0  0  2  0  0  0  0  0  0  0  0  0
   21.7319  -14.5152  -20.8928 C   0  0  0  0  0  0  0  0  0  0  0  0
   21.3405  -12.3999  -19.7035 C   0  0  2  0  0  0  0  0  0  0  0  0
   22.7165  -12.1164  -20.1979 N   0  0  0  0  0  0  0  0  0  0  0  0
   21.1376  -11.7247  -18.4097 C   0  0  0  0  0  0  0  0  0  0  0  0
   20.0123  -11.8794  -17.8274 O   0  0  0  0  0  0  0  0  0  0  0  0
   22.0687  -10.9266  -17.7545 N   0  0  0  0  0  0  0  0  0  0  0  0
   21.8162  -10.1997  -16.5257 C   0  0  1  0  0  0  0  0  0  0  0  0
   22.9655  -10.3665  -15.5389 C   0  0  0  0  0  0  0  0  0  0  0  0
   22.7072   -9.4192  -14.0342 S   0  0  0  0  0  0  0  0  0  0  0  0
   21.7008   -8.7395  -16.7819 C   0  0  0  0  0  0  0  0  0  0  0  0
   22.6644   -8.1713  -17.3557 O   0  0  0  0  0  0  0  0  0  0  0  0
   20.5920   -7.9636  -16.4257 N   0  0  0  0  0  0  0  0  0  0  0  0
   20.4723   -6.5365  -16.6312 C   0  0  1  0  0  0  0  0  0  0  0  0
   19.0667   -6.3019  -17.1919 C   0  0  0  0  0  0  0  0  0  0  0  0
   18.9991   -6.6705  -18.6545 C   0  0  0  0  0  0  0  0  0  0  0  0
   17.5933   -6.4019  -19.1292 C   0  0  0  0  0  0  0  0  0  0  0  0
   17.4179   -6.7719  -20.5929 C   0  0  0  0  0  0  0  0  0  0  0  0
   16.0548   -6.4276  -20.9539 N   0  0  0  0  0  0  0  0  0  0  0  0
   20.5033   -5.8027  -15.3206 C   0  0  0  0  0  0  0  0  0  0  0  0
   20.4295   -4.5475  -15.2876 O   0  0  0  0  0  0  0  0  0  0  0  0
   20.6128   -6.4758  -14.1199 O   0  0  0  0  0  0  0  0  0  0  0  0
  2  1  1  1
  3  2  1  0
  4  5  1  1
  4  2  1  0
  6  4  1  0
  6  7  2  0
  8  6  1  0
  9  8  1  0
  9 12  1  0
  9 10  1  1
 11 10  1  0
 12 13  2  0
 12 14  1  0
 14 15  1  0
 15 21  1  0
 15 16  1  1
 16 17  1  0
 18 19  1  0
 18 17  1  0
 20 19  1  0
 21 22  2  0
 21 23  1  0
M  END
$$$$
