VCK.pdb
     RDKit          3D

 23 22  0  0  1  0  0  0  0  0999 V2000
   28.6919  -13.7386  -16.5143 C   0  0  0  0  0  0  0  0  0  0  0  0
   27.2920  -14.3143  -16.3329 C   0  0  2  0  0  0  0  0  0  0  0  0
   27.3461  -15.7165  -16.8931 C   0  0  0  0  0  0  0  0  0  0  0  0
   26.3625  -13.4887  -17.2270 C   0  0  2  0  0  0  0  0  0  0  0  0
   26.8884  -13.5768  -18.6175 N   0  0  0  0  0  0  0  0  0  0  0  0
   26.2840  -12.0739  -16.8230 C   0  0  0  0  0  0  0  0  0  0  0  0
   25.8058  -11.8096  -15.6694 O   0  0  0  0  0  0  0  0  0  0  0  0
   26.6885  -10.9863  -17.5890 N   0  0  0  0  0  0  0  0  0  0  0  0
   26.6666   -9.6067  -17.1435 C   0  0  1  0  0  0  0  0  0  0  0  0
   27.8063   -8.8075  -17.7639 C   0  0  0  0  0  0  0  0  0  0  0  0
   29.4150   -9.3744  -17.1991 S   0  0  0  0  0  0  0  0  0  0  0  0
   25.4112   -8.9290  -17.5626 C   0  0  0  0  0  0  0  0  0  0  0  0
   25.1743   -8.8527  -18.7950 O   0  0  0  0  0  0  0  0  0  0  0  0
   24.4827   -8.3741  -16.6747 N   0  0  0  0  0  0  0  0  0  0  0  0
   23.2922   -7.6474  -17.0595 C   0  0  1  0  0  0  0  0  0  0  0  0
   22.1189   -8.3584  -16.3793 C   0  0  0  0  0  0  0  0  0  0  0  0
   20.8017   -7.7505  -16.7977 C   0  0  0  0  0  0  0  0  0  0  0  0
   19.7043   -8.5093  -16.0952 C   0  0  0  0  0  0  0  0  0  0  0  0
   18.3317   -8.1163  -16.6161 C   0  0  0  0  0  0  0  0  0  0  0  0
   17.3631   -8.9373  -15.9129 N   0  0  0  0  0  0  0  0  0  0  0  0
   23.3025   -6.2601  -16.4831 C   0  0  0  0  0  0  0  0  0  0  0  0
   24.0455   -5.9772  -15.5084 O   0  0  0  0  0  0  0  0  0  0  0  0
   22.5041   -5.2588  -16.9995 O   0  0  0  0  0  0  0  0  0  0  0  0
  2  1  1  6
  3  2  1  0
  4  5  1  6
  4  2  1  0
  6  4  1  0
  6  7  2  0
  8  6  1  0
  9  8  1  0
  9 12  1  0
  9 10  1  6
 11 10  1  0
 12 13  2  0
 12 14  1  0
 14 15  1  0
 15 21  1  0
 15 16  1  1
 16 17  1  0
 18 19  1  0
 18 17  1  0
 20 19  1  0
 21 22  2  0
 21 23  1  0
M  END
$$$$
