VCK.pdb
     RDKit          3D

 23 22  0  0  1  0  0  0  0  0999 V2000
   19.0558  -13.9150  -18.2993 C   0  0  0  0  0  0  0  0  0  0  0  0
   19.9844  -13.1791  -19.2586 C   0  0  2  0  0  0  0  0  0  0  0  0
   20.0190  -14.0106  -20.5196 C   0  0  0  0  0  0  0  0  0  0  0  0
   21.3807  -13.2214  -18.6315 C   0  0  2  0  0  0  0  0  0  0  0  0
   21.6688  -14.6402  -18.2818 N   0  0  0  0  0  0  0  0  0  0  0  0
   21.4929  -12.3877  -17.4218 C   0  0  0  0  0  0  0  0  0  0  0  0
   20.7714  -12.6982  -16.4156 O   0  0  0  0  0  0  0  0  0  0  0  0
   22.3224  -11.2821  -17.2707 N   0  0  0  0  0  0  0  0  0  0  0  0
   22.3880  -10.4534  -16.0828 C   0  0  1  0  0  0  0  0  0  0  0  0
   23.8314  -10.2064  -15.6605 C   0  0  0  0  0  0  0  0  0  0  0  0
   24.5610  -11.6470  -14.8727 S   0  0  0  0  0  0  0  0  0  0  0  0
   21.7958   -9.1125  -16.3324 C   0  0  0  0  0  0  0  0  0  0  0  0
   22.1447   -8.5074  -17.3777 O   0  0  0  0  0  0  0  0  0  0  0  0
   20.8792   -8.4865  -15.4801 N   0  0  0  0  0  0  0  0  0  0  0  0
   20.2603   -7.2010  -15.7208 C   0  0  1  0  0  0  0  0  0  0  0  0
   18.8000   -7.3409  -15.2816 C   0  0  0  0  0  0  0  0  0  0  0  0
   18.0073   -8.1430  -16.2855 C   0  0  0  0  0  0  0  0  0  0  0  0
   16.5799   -8.1976  -15.8026 C   0  0  0  0  0  0  0  0  0  0  0  0
   15.6942   -8.9722  -16.7645 C   0  0  0  0  0  0  0  0  0  0  0  0
   14.3355   -8.8651  -16.2653 N   0  0  0  0  0  0  0  0  0  0  0  0
   20.8451   -6.1489  -14.8218 C   0  0  0  0  0  0  0  0  0  0  0  0
   20.4490   -4.9571  -14.8889 O   0  0  0  0  0  0  0  0  0  0  0  0
   21.8279   -6.4528  -13.9007 O   0  0  0  0  0  0  0  0  0  0  0  0
  2  1  1  1
  3  2  1  0
  4  5  1  1
  4  2  1  0
  6  4  1  0
  6  7  2  0
  8  6  1  0
  9  8  1  0
  9 12  1  0
  9 10  1  6
 11 10  1  0
 12 13  2  0
 12 14  1  0
 14 15  1  0
 15 21  1  0
 15 16  1  1
 16 17  1  0
 18 19  1  0
 18 17  1  0
 20 19  1  0
 21 22  2  0
 21 23  1  0
M  END
$$$$
