VCK.pdb
     RDKit          3D

 23 22  0  0  1  0  0  0  0  0999 V2000
   28.7693  -18.3473  -16.2375 C   0  0  0  0  0  0  0  0  0  0  0  0
   27.4801  -18.8541  -15.6008 C   0  0  2  0  0  0  0  0  0  0  0  0
   27.1004  -17.8253  -14.5615 C   0  0  0  0  0  0  0  0  0  0  0  0
   27.8369  -20.1504  -14.8677 C   0  0  2  0  0  0  0  0  0  0  0  0
   28.3463  -21.1114  -15.8851 N   0  0  0  0  0  0  0  0  0  0  0  0
   26.6883  -20.7473  -14.1638 C   0  0  0  0  0  0  0  0  0  0  0  0
   25.7655  -21.2748  -14.8705 O   0  0  0  0  0  0  0  0  0  0  0  0
   26.5139  -20.7922  -12.7851 N   0  0  0  0  0  0  0  0  0  0  0  0
   25.3617  -21.3631  -12.1152 C   0  0  1  0  0  0  0  0  0  0  0  0
   25.5267  -21.3221  -10.6007 C   0  0  0  0  0  0  0  0  0  0  0  0
   25.8501  -19.6597  -10.0008 S   0  0  0  0  0  0  0  0  0  0  0  0
   24.1290  -20.5884  -12.4172 C   0  0  0  0  0  0  0  0  0  0  0  0
   24.2595  -19.3661  -12.6810 O   0  0  0  0  0  0  0  0  0  0  0  0
   22.8400  -21.1333  -12.4258 N   0  0  0  0  0  0  0  0  0  0  0  0
   21.6539  -20.4613  -12.9107 C   0  0  1  0  0  0  0  0  0  0  0  0
   21.8459  -20.2915  -14.4204 C   0  0  0  0  0  0  0  0  0  0  0  0
   20.6051  -19.7192  -15.0627 C   0  0  0  0  0  0  0  0  0  0  0  0
   20.8484  -19.6540  -16.5494 C   0  0  0  0  0  0  0  0  0  0  0  0
   19.6678  -19.0382  -17.2820 C   0  0  0  0  0  0  0  0  0  0  0  0
   20.0395  -18.9520  -18.6825 N   0  0  0  0  0  0  0  0  0  0  0  0
   20.4434  -21.3385  -12.7616 C   0  0  0  0  0  0  0  0  0  0  0  0
   20.5683  -22.5779  -12.5878 O   0  0  0  0  0  0  0  0  0  0  0  0
   19.1653  -20.8179  -12.8100 O   0  0  0  0  0  0  0  0  0  0  0  0
  2  1  1  1
  3  2  1  0
  4  5  1  6
  4  2  1  0
  6  4  1  0
  6  7  2  0
  8  6  1  0
  9  8  1  0
  9 12  1  0
  9 10  1  1
 11 10  1  0
 12 13  2  0
 12 14  1  0
 14 15  1  0
 15 21  1  0
 15 16  1  6
 16 17  1  0
 18 19  1  0
 18 17  1  0
 20 19  1  0
 21 22  2  0
 21 23  1  0
M  END
$$$$
