VCK.pdb
     RDKit          3D

 23 22  0  0  1  0  0  0  0  0999 V2000
   19.0871  -11.7373  -16.7289 C   0  0  0  0  0  0  0  0  0  0  0  0
   19.3459  -10.8963  -15.4840 C   0  0  2  0  0  0  0  0  0  0  0  0
   18.2578  -11.2649  -14.5028 C   0  0  0  0  0  0  0  0  0  0  0  0
   19.1324   -9.4361  -15.8930 C   0  0  2  0  0  0  0  0  0  0  0  0
   20.0870   -9.1389  -16.9969 N   0  0  0  0  0  0  0  0  0  0  0  0
   19.3566   -8.4905  -14.7855 C   0  0  0  0  0  0  0  0  0  0  0  0
   18.6781   -8.6536  -13.7166 O   0  0  0  0  0  0  0  0  0  0  0  0
   20.2501   -7.4252  -14.7945 N   0  0  0  0  0  0  0  0  0  0  0  0
   20.4290   -6.4863  -13.7043 C   0  0  1  0  0  0  0  0  0  0  0  0
   21.5856   -5.5330  -13.9803 C   0  0  0  0  0  0  0  0  0  0  0  0
   21.8065   -4.3376  -12.6573 S   0  0  0  0  0  0  0  0  0  0  0  0
   19.2237   -5.6333  -13.5294 C   0  0  0  0  0  0  0  0  0  0  0  0
   18.6926   -5.1568  -14.5646 O   0  0  0  0  0  0  0  0  0  0  0  0
   18.6476   -5.3302  -12.2906 N   0  0  0  0  0  0  0  0  0  0  0  0
   17.5098   -4.4590  -12.0909 C   0  0  1  0  0  0  0  0  0  0  0  0
   17.0256   -4.7096  -10.6600 C   0  0  0  0  0  0  0  0  0  0  0  0
   15.7397   -3.9674  -10.3860 C   0  0  0  0  0  0  0  0  0  0  0  0
   15.2727   -4.3557   -9.0059 C   0  0  0  0  0  0  0  0  0  0  0  0
   13.9305   -3.7254   -8.6725 C   0  0  0  0  0  0  0  0  0  0  0  0
   13.4905   -4.3096   -7.4187 N   0  0  0  0  0  0  0  0  0  0  0  0
   17.9288   -3.0166  -12.1204 C   0  0  0  0  0  0  0  0  0  0  0  0
   19.1089   -2.6867  -11.8367 O   0  0  0  0  0  0  0  0  0  0  0  0
   17.0403   -2.0144  -12.4567 O   0  0  0  0  0  0  0  0  0  0  0  0
  2  1  1  6
  3  2  1  0
  4  5  1  6
  4  2  1  0
  6  4  1  0
  6  7  2  0
  8  6  1  0
  9  8  1  0
  9 12  1  0
  9 10  1  6
 11 10  1  0
 12 13  2  0
 12 14  1  0
 14 15  1  0
 15 21  1  0
 15 16  1  1
 16 17  1  0
 18 19  1  0
 18 17  1  0
 20 19  1  0
 21 22  2  0
 21 23  1  0
M  END
$$$$
