SPL.pdb
     RDKit          3D

 22 22  0  0  1  0  0  0  0  0999 V2000
   18.9822  -14.6642  -18.3112 O   0  0  0  0  0  0  0  0  0  0  0  0
   19.6929  -13.5130  -17.9683 C   0  0  0  0  0  0  0  0  0  0  0  0
   20.5539  -13.0656  -19.1584 C   0  0  2  0  0  0  0  0  0  0  0  0
   21.5160  -14.1430  -19.3415 N   0  0  0  0  0  0  0  0  0  0  0  0
   21.2310  -11.7984  -18.8585 C   0  0  0  0  0  0  0  0  0  0  0  0
   22.4312  -11.8519  -18.4590 O   0  0  0  0  0  0  0  0  0  0  0  0
   20.6470  -10.5237  -18.9814 N   0  0  0  0  0  0  0  0  0  0  0  0
   19.2802  -10.3123  -19.4825 C   0  0  0  0  0  0  0  0  0  0  0  0
   19.3505   -8.9553  -20.1831 C   0  0  0  0  0  0  0  0  0  0  0  0
   20.2974   -8.2106  -19.2667 C   0  0  0  0  0  0  0  0  0  0  0  0
   21.2117   -9.2356  -18.6707 C   0  0  1  0  0  0  0  0  0  0  0  0
   21.3553   -9.0144  -17.2079 C   0  0  0  0  0  0  0  0  0  0  0  0
   20.6808   -9.6529  -16.3595 O   0  0  0  0  0  0  0  0  0  0  0  0
   25.6930  -10.0618  -15.5792 C   0  0  0  0  0  0  0  0  0  0  0  0
   24.7142   -8.9976  -15.9411 C   0  0  2  0  0  0  0  0  0  0  0  0
   25.4435   -7.7100  -16.1862 C   0  0  0  0  0  0  0  0  0  0  0  0
   23.6253   -8.8109  -14.9153 C   0  0  0  0  0  0  0  0  0  0  0  0
   22.5753   -7.8400  -15.3405 C   0  0  2  0  0  0  0  0  0  0  0  0
   22.2737   -8.0613  -16.7445 N   0  0  0  0  0  0  0  0  0  0  0  0
   23.1204   -6.4670  -15.1541 C   0  0  0  0  0  0  0  0  0  0  0  0
   23.4278   -5.9919  -14.0304 O   0  0  0  0  0  0  0  0  0  0  0  0
   23.3075   -5.6519  -16.2621 O   0  0  0  0  0  0  0  0  0  0  0  0
  2  1  1  0
  3  5  1  0
  3  2  1  0
  3  4  1  1
  5  6  2  0
  5  7  1  0
  7 11  1  0
  8  7  1  0
  9  8  1  0
  9 10  1  0
 10 11  1  0
 11 12  1  1
 12 13  2  0
 12 19  1  0
 15 16  1  1
 15 14  1  0
 17 15  1  0
 18 20  1  0
 18 17  1  6
 19 18  1  0
 20 22  1  0
 21 20  2  0
M  END
$$$$
