SPL.pdb
     RDKit          3D

 22 22  0  0  1  0  0  0  0  0999 V2000
   22.3584  -19.0367  -13.7573 O   0  0  0  0  0  0  0  0  0  0  0  0
   22.9469  -19.5615  -12.6058 C   0  0  0  0  0  0  0  0  0  0  0  0
   23.7258  -20.8363  -12.9606 C   0  0  2  0  0  0  0  0  0  0  0  0
   22.7012  -21.8552  -13.1398 N   0  0  0  0  0  0  0  0  0  0  0  0
   24.6461  -21.1980  -11.8760 C   0  0  0  0  0  0  0  0  0  0  0  0
   24.1734  -21.8383  -10.8912 O   0  0  0  0  0  0  0  0  0  0  0  0
   26.0185  -20.8873  -11.8461 N   0  0  0  0  0  0  0  0  0  0  0  0
   26.6931  -20.1301  -12.9117 C   0  0  0  0  0  0  0  0  0  0  0  0
   28.1141  -20.6938  -12.9210 C   0  0  0  0  0  0  0  0  0  0  0  0
   28.3400  -20.9208  -11.4417 C   0  0  0  0  0  0  0  0  0  0  0  0
   26.9994  -21.2162  -10.8440 C   0  0  1  0  0  0  0  0  0  0  0  0
   26.8107  -20.4452   -9.5873 C   0  0  0  0  0  0  0  0  0  0  0  0
   26.2619  -19.3134   -9.5661 O   0  0  0  0  0  0  0  0  0  0  0  0
   29.5755  -20.6117   -4.0957 C   0  0  0  0  0  0  0  0  0  0  0  0
   28.4078  -20.1471   -4.8972 C   0  0  2  0  0  0  0  0  0  0  0  0
   27.1673  -20.2103   -4.0564 C   0  0  0  0  0  0  0  0  0  0  0  0
   28.2232  -20.9094   -6.1846 C   0  0  0  0  0  0  0  0  0  0  0  0
   27.2380  -20.2758   -7.1087 C   0  0  2  0  0  0  0  0  0  0  0  0
   27.2569  -20.9893   -8.3743 N   0  0  0  0  0  0  0  0  0  0  0  0
   27.6558  -18.8627   -7.3224 C   0  0  0  0  0  0  0  0  0  0  0  0
   27.0444  -17.8792   -6.8307 O   0  0  0  0  0  0  0  0  0  0  0  0
   28.7735  -18.5927   -8.1002 O   0  0  0  0  0  0  0  0  0  0  0  0
  2  1  1  0
  3  5  1  0
  3  2  1  0
  3  4  1  1
  5  6  2  0
  5  7  1  0
  7 11  1  0
  8  7  1  0
  9  8  1  0
  9 10  1  0
 10 11  1  0
 11 12  1  1
 12 13  2  0
 12 19  1  0
 15 16  1  1
 15 14  1  0
 17 15  1  0
 18 20  1  0
 18 17  1  1
 19 18  1  0
 20 22  1  0
 21 20  2  0
M  END
$$$$
