SPL.pdb
     RDKit          3D

 22 22  0  0  1  0  0  0  0  0999 V2000
   21.8885  -18.1527  -11.6192 O   0  0  0  0  0  0  0  0  0  0  0  0
   22.3069  -18.7526  -12.8078 C   0  0  0  0  0  0  0  0  0  0  0  0
   22.3323  -20.2780  -12.6338 C   0  0  2  0  0  0  0  0  0  0  0  0
   20.9613  -20.6321  -12.2947 N   0  0  0  0  0  0  0  0  0  0  0  0
   23.2572  -20.6599  -11.5600 C   0  0  0  0  0  0  0  0  0  0  0  0
   22.8325  -20.6029  -10.3686 O   0  0  0  0  0  0  0  0  0  0  0  0
   24.5845  -21.0866  -11.7532 N   0  0  0  0  0  0  0  0  0  0  0  0
   25.2376  -21.1044  -13.0712 C   0  0  0  0  0  0  0  0  0  0  0  0
   26.2089  -22.2819  -12.9849 C   0  0  0  0  0  0  0  0  0  0  0  0
   26.6689  -22.1667  -11.5475 C   0  0  0  0  0  0  0  0  0  0  0  0
   25.5313  -21.5676  -10.7803 C   0  0  1  0  0  0  0  0  0  0  0  0
   26.0222  -20.4900   -9.8819 C   0  0  0  0  0  0  0  0  0  0  0  0
   26.1541  -19.2993  -10.2659 O   0  0  0  0  0  0  0  0  0  0  0  0
   28.3476  -20.4798   -4.1062 C   0  0  0  0  0  0  0  0  0  0  0  0
   28.1964  -19.8095   -5.4289 C   0  0  2  0  0  0  0  0  0  0  0  0
   27.8197  -18.3726   -5.2210 C   0  0  0  0  0  0  0  0  0  0  0  0
   27.2109  -20.4965   -6.3397 C   0  0  0  0  0  0  0  0  0  0  0  0
   27.3061  -20.0452   -7.7586 C   0  0  2  0  0  0  0  0  0  0  0  0
   26.3538  -20.8000   -8.5550 N   0  0  0  0  0  0  0  0  0  0  0  0
   28.6897  -20.3222   -8.2340 C   0  0  0  0  0  0  0  0  0  0  0  0
   29.0281  -21.4012   -8.7854 O   0  0  0  0  0  0  0  0  0  0  0  0
   29.6725  -19.3555   -8.0713 O   0  0  0  0  0  0  0  0  0  0  0  0
  2  1  1  0
  3  5  1  0
  3  2  1  0
  3  4  1  1
  5  6  2  0
  5  7  1  0
  7 11  1  0
  8  7  1  0
  9  8  1  0
  9 10  1  0
 10 11  1  0
 11 12  1  6
 12 13  2  0
 12 19  1  0
 15 16  1  1
 15 14  1  0
 17 15  1  0
 18 20  1  0
 18 17  1  1
 19 18  1  0
 20 22  1  0
 21 20  2  0
M  END
$$$$
