SPL.pdb
     RDKit          3D

 22 22  0  0  1  0  0  0  0  0999 V2000
   22.9583  -19.3608  -11.5366 O   0  0  0  0  0  0  0  0  0  0  0  0
   23.3479  -19.5801  -12.8587 C   0  0  0  0  0  0  0  0  0  0  0  0
   23.8332  -21.0281  -13.0191 C   0  0  2  0  0  0  0  0  0  0  0  0
   22.6198  -21.8308  -12.9624 N   0  0  0  0  0  0  0  0  0  0  0  0
   24.7548  -21.3871  -11.9347 C   0  0  0  0  0  0  0  0  0  0  0  0
   24.2937  -22.0646  -10.9696 O   0  0  0  0  0  0  0  0  0  0  0  0
   26.1168  -21.0353  -11.8848 N   0  0  0  0  0  0  0  0  0  0  0  0
   26.7805  -20.2462  -12.9339 C   0  0  0  0  0  0  0  0  0  0  0  0
   28.2181  -20.7666  -12.9321 C   0  0  0  0  0  0  0  0  0  0  0  0
   28.4333  -21.0031  -11.4527 C   0  0  0  0  0  0  0  0  0  0  0  0
   27.0953  -21.3456  -10.8745 C   0  0  1  0  0  0  0  0  0  0  0  0
   26.8685  -20.5947   -9.6120 C   0  0  0  0  0  0  0  0  0  0  0  0
   26.2371  -19.5071   -9.5779 O   0  0  0  0  0  0  0  0  0  0  0  0
   29.7612  -20.4212   -4.2272 C   0  0  0  0  0  0  0  0  0  0  0  0
   28.4699  -20.1873   -4.9339 C   0  0  2  0  0  0  0  0  0  0  0  0
   27.3305  -20.5058   -4.0118 C   0  0  0  0  0  0  0  0  0  0  0  0
   28.3459  -20.9549   -6.2254 C   0  0  0  0  0  0  0  0  0  0  0  0
   27.2930  -20.4140   -7.1336 C   0  0  2  0  0  0  0  0  0  0  0  0
   27.3722  -21.1077   -8.4079 N   0  0  0  0  0  0  0  0  0  0  0  0
   27.5634  -18.9636   -7.3336 C   0  0  0  0  0  0  0  0  0  0  0  0
   28.4836  -18.5273   -8.0724 O   0  0  0  0  0  0  0  0  0  0  0  0
   26.7729  -18.0268   -6.6820 O   0  0  0  0  0  0  0  0  0  0  0  0
  2  1  1  0
  3  5  1  0
  3  2  1  0
  3  4  1  1
  5  6  2  0
  5  7  1  0
  7 11  1  0
  8  7  1  0
  9  8  1  0
  9 10  1  0
 10 11  1  0
 11 12  1  1
 12 13  2  0
 12 19  1  0
 15 16  1  1
 15 14  1  0
 17 15  1  0
 18 20  1  0
 18 17  1  1
 19 18  1  0
 20 22  1  0
 21 20  2  0
M  END
$$$$
