SPL.pdb
     RDKit          3D

 22 22  0  0  1  0  0  0  0  0999 V2000
   15.7653  -11.4449  -15.8357 O   0  0  0  0  0  0  0  0  0  0  0  0
   16.5489  -10.3048  -16.0195 C   0  0  0  0  0  0  0  0  0  0  0  0
   16.8254  -10.1057  -17.5168 C   0  0  2  0  0  0  0  0  0  0  0  0
   17.5884  -11.2821  -17.9092 N   0  0  0  0  0  0  0  0  0  0  0  0
   17.5967   -8.8773  -17.7407 C   0  0  0  0  0  0  0  0  0  0  0  0
   18.8498   -8.9865  -17.8852 O   0  0  0  0  0  0  0  0  0  0  0  0
   17.0488   -7.5825  -17.8079 N   0  0  0  0  0  0  0  0  0  0  0  0
   15.6115   -7.3105  -17.6528 C   0  0  0  0  0  0  0  0  0  0  0  0
   15.3706   -6.0875  -18.5380 C   0  0  0  0  0  0  0  0  0  0  0  0
   16.6518   -5.3145  -18.3103 C   0  0  0  0  0  0  0  0  0  0  0  0
   17.7186   -6.3267  -18.0286 C   0  0  1  0  0  0  0  0  0  0  0  0
   18.5382   -5.9054  -16.8624 C   0  0  0  0  0  0  0  0  0  0  0  0
   18.2431   -6.2212  -15.6810 O   0  0  0  0  0  0  0  0  0  0  0  0
   24.4260   -5.4455  -15.8908 C   0  0  0  0  0  0  0  0  0  0  0  0
   23.0639   -5.0630  -15.4217 C   0  0  2  0  0  0  0  0  0  0  0  0
   22.7755   -5.7428  -14.1161 C   0  0  0  0  0  0  0  0  0  0  0  0
   21.9800   -5.3528  -16.4286 C   0  0  0  0  0  0  0  0  0  0  0  0
   20.6495   -4.8025  -16.0372 C   0  0  2  0  0  0  0  0  0  0  0  0
   19.6851   -5.1267  -17.0745 N   0  0  0  0  0  0  0  0  0  0  0  0
   20.7833   -3.3243  -15.9198 C   0  0  0  0  0  0  0  0  0  0  0  0
   20.7646   -2.5477  -16.9096 O   0  0  0  0  0  0  0  0  0  0  0  0
   20.9373   -2.7514  -14.6648 O   0  0  0  0  0  0  0  0  0  0  0  0
  2  1  1  0
  3  5  1  0
  3  2  1  0
  3  4  1  1
  5  6  2  0
  5  7  1  0
  7 11  1  0
  8  7  1  0
  9  8  1  0
  9 10  1  0
 10 11  1  0
 11 12  1  1
 12 13  2  0
 12 19  1  0
 15 16  1  1
 15 14  1  0
 17 15  1  0
 18 20  1  0
 18 17  1  6
 19 18  1  0
 20 22  1  0
 21 20  2  0
M  END
$$$$
