SPL.pdb
     RDKit          3D

 22 22  0  0  1  0  0  0  0  0999 V2000
   19.3035  -19.0686  -15.1620 O   0  0  0  0  0  0  0  0  0  0  0  0
   19.5968  -20.3860  -14.8067 C   0  0  0  0  0  0  0  0  0  0  0  0
   21.0419  -20.4718  -14.2945 C   0  0  2  0  0  0  0  0  0  0  0  0
   21.7639  -21.1718  -15.3474 N   0  0  0  0  0  0  0  0  0  0  0  0
   21.0986  -21.2160  -13.0308 C   0  0  0  0  0  0  0  0  0  0  0  0
   21.2906  -22.4660  -13.0912 O   0  0  0  0  0  0  0  0  0  0  0  0
   20.9559  -20.6452  -11.7521 N   0  0  0  0  0  0  0  0  0  0  0  0
   20.8420  -19.1957  -11.5287 C   0  0  0  0  0  0  0  0  0  0  0  0
   21.4957  -18.9810  -10.1635 C   0  0  0  0  0  0  0  0  0  0  0  0
   21.0483  -20.2295   -9.4342 C   0  0  0  0  0  0  0  0  0  0  0  0
   20.8956  -21.2995  -10.4704 C   0  0  1  0  0  0  0  0  0  0  0  0
   19.6226  -22.0396  -10.2679 C   0  0  0  0  0  0  0  0  0  0  0  0
   18.5863  -21.7956  -10.9381 O   0  0  0  0  0  0  0  0  0  0  0  0
   17.5922  -26.1078   -6.0243 C   0  0  0  0  0  0  0  0  0  0  0  0
   17.4315  -25.4728   -7.3632 C   0  0  2  0  0  0  0  0  0  0  0  0
   17.1262  -26.5287   -8.3839 C   0  0  0  0  0  0  0  0  0  0  0  0
   18.6224  -24.6492   -7.7828 C   0  0  0  0  0  0  0  0  0  0  0  0
   18.3619  -23.8068   -8.9863 C   0  0  2  0  0  0  0  0  0  0  0  0
   19.5623  -23.0493   -9.2966 N   0  0  0  0  0  0  0  0  0  0  0  0
   17.2496  -22.8730   -8.6580 C   0  0  0  0  0  0  0  0  0  0  0  0
   16.0590  -23.0621   -9.0184 O   0  0  0  0  0  0  0  0  0  0  0  0
   17.5159  -21.7292   -7.9179 O   0  0  0  0  0  0  0  0  0  0  0  0
  2  1  1  0
  3  5  1  0
  3  2  1  0
  3  4  1  6
  5  6  2  0
  5  7  1  0
  7 11  1  0
  8  7  1  0
  9  8  1  0
  9 10  1  0
 10 11  1  0
 11 12  1  1
 12 13  2  0
 12 19  1  0
 15 16  1  6
 15 14  1  0
 17 15  1  0
 18 20  1  0
 18 17  1  1
 19 18  1  0
 20 22  1  0
 21 20  2  0
M  END
$$$$
