SPL.pdb
     RDKit          3D

 22 22  0  0  1  0  0  0  0  0999 V2000
   23.3733  -19.8337  -11.8217 O   0  0  0  0  0  0  0  0  0  0  0  0
   23.7810  -20.0178  -13.1436 C   0  0  0  0  0  0  0  0  0  0  0  0
   24.5561  -21.3379  -13.2645 C   0  0  2  0  0  0  0  0  0  0  0  0
   23.5276  -22.3528  -13.4438 N   0  0  0  0  0  0  0  0  0  0  0  0
   25.3400  -21.5896  -12.0495 C   0  0  0  0  0  0  0  0  0  0  0  0
   24.7897  -22.2491  -11.1193 O   0  0  0  0  0  0  0  0  0  0  0  0
   26.6614  -21.1531  -11.8379 N   0  0  0  0  0  0  0  0  0  0  0  0
   27.3969  -20.3238  -12.8049 C   0  0  0  0  0  0  0  0  0  0  0  0
   28.8532  -20.7529  -12.6255 C   0  0  0  0  0  0  0  0  0  0  0  0
   28.9020  -20.9759  -11.1293 C   0  0  0  0  0  0  0  0  0  0  0  0
   27.5277  -21.4017  -10.7145 C   0  0  1  0  0  0  0  0  0  0  0  0
   27.1033  -20.6667   -9.4942 C   0  0  0  0  0  0  0  0  0  0  0  0
   26.3377  -19.6696   -9.5392 O   0  0  0  0  0  0  0  0  0  0  0  0
   29.3797  -19.4837   -5.4775 C   0  0  0  0  0  0  0  0  0  0  0  0
   28.4154  -20.4376   -4.8595 C   0  0  2  0  0  0  0  0  0  0  0  0
   29.1194  -21.2554   -3.8176 C   0  0  0  0  0  0  0  0  0  0  0  0
   27.7247  -21.3259   -5.8627 C   0  0  0  0  0  0  0  0  0  0  0  0
   27.0807  -20.5687   -6.9753 C   0  0  2  0  0  0  0  0  0  0  0  0
   27.5672  -21.0913   -8.2407 N   0  0  0  0  0  0  0  0  0  0  0  0
   27.4703  -19.1380   -6.8396 C   0  0  0  0  0  0  0  0  0  0  0  0
   28.4252  -18.6185   -7.4730 O   0  0  0  0  0  0  0  0  0  0  0  0
   26.7581  -18.3167   -5.9763 O   0  0  0  0  0  0  0  0  0  0  0  0
  2  1  1  0
  3  5  1  0
  3  2  1  0
  3  4  1  1
  5  6  2  0
  5  7  1  0
  7 11  1  0
  8  7  1  0
  9  8  1  0
  9 10  1  0
 10 11  1  0
 11 12  1  1
 12 13  2  0
 12 19  1  0
 15 16  1  1
 15 14  1  0
 17 15  1  0
 18 20  1  0
 18 17  1  1
 19 18  1  0
 20 22  1  0
 21 20  2  0
M  END
$$$$
