SPL.pdb
     RDKit          3D

 22 22  0  0  1  0  0  0  0  0999 V2000
   21.2246  -30.9399  -10.7191 O   0  0  0  0  0  0  0  0  0  0  0  0
   21.6376  -31.7347   -9.6488 C   0  0  0  0  0  0  0  0  0  0  0  0
   22.3511  -32.9857  -10.1815 C   0  0  2  0  0  0  0  0  0  0  0  0
   21.2757  -33.9132  -10.5029 N   0  0  0  0  0  0  0  0  0  0  0  0
   23.2436  -33.5457   -9.1598 C   0  0  0  0  0  0  0  0  0  0  0  0
   22.7231  -34.2470   -8.2431 O   0  0  0  0  0  0  0  0  0  0  0  0
   24.6387  -33.3629   -9.1205 N   0  0  0  0  0  0  0  0  0  0  0  0
   25.3715  -32.5639  -10.1146 C   0  0  0  0  0  0  0  0  0  0  0  0
   26.7359  -33.2478  -10.2035 C   0  0  0  0  0  0  0  0  0  0  0  0
   26.9504  -33.6440   -8.7585 C   0  0  0  0  0  0  0  0  0  0  0  0
   25.5926  -33.8785   -8.1725 C   0  0  1  0  0  0  0  0  0  0  0  0
   25.4827  -33.2262   -6.8415 C   0  0  0  0  0  0  0  0  0  0  0  0
   24.9302  -32.1073   -6.6819 O   0  0  0  0  0  0  0  0  0  0  0  0
   23.1570  -32.8360   -2.8749 C   0  0  0  0  0  0  0  0  0  0  0  0
   22.9041  -33.5973   -4.1311 C   0  0  2  0  0  0  0  0  0  0  0  0
   21.6207  -34.3628   -4.0019 C   0  0  0  0  0  0  0  0  0  0  0  0
   24.0386  -34.5124   -4.5160 C   0  0  0  0  0  0  0  0  0  0  0  0
   25.3794  -33.8674   -4.4056 C   0  0  2  0  0  0  0  0  0  0  0  0
   26.0107  -33.8723   -5.7143 N   0  0  0  0  0  0  0  0  0  0  0  0
   26.1946  -34.6689   -3.4517 C   0  0  0  0  0  0  0  0  0  0  0  0
   26.5284  -35.8636   -3.6618 O   0  0  0  0  0  0  0  0  0  0  0  0
   26.6191  -34.0894   -2.2639 O   0  0  0  0  0  0  0  0  0  0  0  0
  2  1  1  0
  3  5  1  0
  3  2  1  0
  3  4  1  1
  5  6  2  0
  5  7  1  0
  7 11  1  0
  8  7  1  0
  9  8  1  0
  9 10  1  0
 10 11  1  0
 11 12  1  1
 12 13  2  0
 12 19  1  0
 15 16  1  1
 15 14  1  0
 17 15  1  0
 18 20  1  0
 18 17  1  6
 19 18  1  0
 20 22  1  0
 21 20  2  0
M  END
$$$$
