YGP.pdb
     RDKit          3D

 24 25  0  0  1  0  0  0  0  0999 V2000
   26.6214  -20.6770   -8.3772 O   0  0  0  0  0  0  0  0  0  0  0  0
   26.0904  -20.9404   -9.6313 C   0  0  0  0  0  0  0  0  0  0  0  0
   24.7092  -20.9465   -9.7929 C   0  0  0  0  0  0  0  0  0  0  0  0
   24.1506  -21.2053  -11.0286 C   0  0  0  0  0  0  0  0  0  0  0  0
   24.9602  -21.4613  -12.1190 C   0  0  0  0  0  0  0  0  0  0  0  0
   24.4432  -21.7467  -13.4723 C   0  0  0  0  0  0  0  0  0  0  0  0
   23.3632  -20.7687  -13.7996 C   0  0  2  0  0  0  0  0  0  0  0  0
   22.2361  -21.3714  -14.4581 N   0  0  0  0  0  0  0  0  0  0  0  0
   23.9010  -19.6286  -14.5995 C   0  0  0  0  0  0  0  0  0  0  0  0
   23.3597  -19.2994  -15.6754 O   0  0  0  0  0  0  0  0  0  0  0  0
   26.3285  -21.4518  -11.9433 C   0  0  0  0  0  0  0  0  0  0  0  0
   26.8917  -21.1966  -10.7235 C   0  0  0  0  0  0  0  0  0  0  0  0
   25.0371  -18.9135  -14.1324 N   0  0  0  0  0  0  0  0  0  0  0  0
   25.5515  -17.8356  -14.9493 C   0  0  0  0  0  0  0  0  0  0  0  0
   25.9366  -18.3154  -16.3027 C   0  0  0  0  0  0  0  0  0  0  0  0
   25.2146  -19.1556  -16.8707 O   0  0  0  0  0  0  0  0  0  0  0  0
   27.0968  -17.8324  -16.9377 N   0  0  0  0  0  0  0  0  0  0  0  0
   28.0884  -16.9621  -16.3713 C   0  0  0  0  0  0  0  0  0  0  0  0
   28.7241  -16.2463  -17.5696 C   0  0  0  0  0  0  0  0  0  0  0  0
   27.9932  -16.7850  -18.7739 C   0  0  0  0  0  0  0  0  0  0  0  0
   27.5001  -18.1297  -18.2866 C   0  0  1  0  0  0  0  0  0  0  0  0
   28.5828  -19.1560  -18.2916 C   0  0  0  0  0  0  0  0  0  0  0  0
   29.1364  -19.6372  -19.4685 O   0  0  0  0  0  0  0  0  0  0  0  0
   29.0386  -19.6280  -17.2172 O   0  0  0  0  0  0  0  0  0  0  0  0
  2  3  2  0
  2  1  1  0
  4  3  1  0
  5  4  2  0
  6  7  1  0
  6  5  1  0
  7  9  1  0
  7  8  1  6
  9 10  2  0
  9 13  1  0
 11  5  1  0
 11 12  2  0
 12  2  1  0
 13 14  1  0
 14 15  1  0
 15 17  1  0
 15 16  2  0
 17 18  1  0
 18 19  1  0
 20 19  1  0
 21 17  1  0
 21 20  1  0
 21 22  1  1
 23 22  1  0
 24 22  2  0
M  END
$$$$
