YGP.pdb
     RDKit          3D

 24 25  0  0  1  0  0  0  0  0999 V2000
   25.8153  -19.9655   -5.1449 O   0  0  0  0  0  0  0  0  0  0  0  0
   26.0753  -20.2640   -6.4743 C   0  0  0  0  0  0  0  0  0  0  0  0
   25.3405  -21.2662   -7.0984 C   0  0  0  0  0  0  0  0  0  0  0  0
   25.5760  -21.5862   -8.4206 C   0  0  0  0  0  0  0  0  0  0  0  0
   26.5461  -20.9124   -9.1380 C   0  0  0  0  0  0  0  0  0  0  0  0
   26.8594  -21.1933  -10.5534 C   0  0  0  0  0  0  0  0  0  0  0  0
   26.0750  -20.2653  -11.4215 C   0  0  2  0  0  0  0  0  0  0  0  0
   24.6890  -20.6315  -11.5319 N   0  0  0  0  0  0  0  0  0  0  0  0
   26.7024  -20.1392  -12.7704 C   0  0  0  0  0  0  0  0  0  0  0  0
   26.5398  -21.0305  -13.6297 O   0  0  0  0  0  0  0  0  0  0  0  0
   27.2670  -19.9207   -8.5055 C   0  0  0  0  0  0  0  0  0  0  0  0
   27.0414  -19.5961   -7.1964 C   0  0  0  0  0  0  0  0  0  0  0  0
   27.4899  -18.9967  -13.0777 N   0  0  0  0  0  0  0  0  0  0  0  0
   28.0638  -18.8964  -14.4022 C   0  0  0  0  0  0  0  0  0  0  0  0
   27.0714  -18.3930  -15.3880 C   0  0  0  0  0  0  0  0  0  0  0  0
   25.9490  -18.0374  -14.9833 O   0  0  0  0  0  0  0  0  0  0  0  0
   27.3881  -18.3168  -16.7579 N   0  0  0  0  0  0  0  0  0  0  0  0
   28.5948  -18.7726  -17.3884 C   0  0  0  0  0  0  0  0  0  0  0  0
   28.7310  -17.9195  -18.6557 C   0  0  0  0  0  0  0  0  0  0  0  0
   27.5399  -16.9945  -18.6289 C   0  0  0  0  0  0  0  0  0  0  0  0
   26.5461  -17.7605  -17.7836 C   0  0  1  0  0  0  0  0  0  0  0  0
   25.8788  -18.8485  -18.5558 C   0  0  0  0  0  0  0  0  0  0  0  0
   26.2900  -20.1703  -18.4720 O   0  0  0  0  0  0  0  0  0  0  0  0
   24.9082  -18.6050  -19.3197 O   0  0  0  0  0  0  0  0  0  0  0  0
  2  3  2  0
  2  1  1  0
  4  3  1  0
  5  4  2  0
  6  7  1  0
  6  5  1  0
  7  9  1  0
  7  8  1  6
  9 10  2  0
  9 13  1  0
 11  5  1  0
 11 12  2  0
 12  2  1  0
 13 14  1  0
 14 15  1  0
 15 17  1  0
 15 16  2  0
 17 18  1  0
 18 19  1  0
 20 19  1  0
 21 17  1  0
 21 20  1  0
 21 22  1  6
 23 22  1  0
 24 22  2  0
M  END
$$$$
