YGP.pdb
     RDKit          3D

 24 25  0  0  1  0  0  0  0  0999 V2000
   19.7778  -21.7565   -9.2096 O   0  0  0  0  0  0  0  0  0  0  0  0
   20.5376  -21.6326  -10.3634 C   0  0  0  0  0  0  0  0  0  0  0  0
   20.3598  -22.5515  -11.3919 C   0  0  0  0  0  0  0  0  0  0  0  0
   21.1010  -22.4547  -12.5526 C   0  0  0  0  0  0  0  0  0  0  0  0
   22.0288  -21.4416  -12.7038 C   0  0  0  0  0  0  0  0  0  0  0  0
   22.8604  -21.2681  -13.9115 C   0  0  0  0  0  0  0  0  0  0  0  0
   22.2294  -20.2445  -14.7970 C   0  0  2  0  0  0  0  0  0  0  0  0
   20.9461  -20.6496  -15.3030 N   0  0  0  0  0  0  0  0  0  0  0  0
   23.1471  -19.8659  -15.9122 C   0  0  0  0  0  0  0  0  0  0  0  0
   23.0640  -20.4345  -17.0207 O   0  0  0  0  0  0  0  0  0  0  0  0
   22.1942  -20.5375  -11.6750 C   0  0  0  0  0  0  0  0  0  0  0  0
   21.4650  -20.6247  -10.5215 C   0  0  0  0  0  0  0  0  0  0  0  0
   24.1216  -18.8513  -15.7098 N   0  0  0  0  0  0  0  0  0  0  0  0
   25.0116  -18.5283  -16.8040 C   0  0  0  0  0  0  0  0  0  0  0  0
   25.8997  -19.6727  -17.1383 C   0  0  0  0  0  0  0  0  0  0  0  0
   25.4229  -20.6437  -17.7545 O   0  0  0  0  0  0  0  0  0  0  0  0
   27.2581  -19.6657  -16.7677 N   0  0  0  0  0  0  0  0  0  0  0  0
   27.9262  -18.6786  -15.9672 C   0  0  0  0  0  0  0  0  0  0  0  0
   29.3992  -18.7520  -16.3885 C   0  0  0  0  0  0  0  0  0  0  0  0
   29.4432  -19.8160  -17.4566 C   0  0  0  0  0  0  0  0  0  0  0  0
   28.2316  -20.6613  -17.1308 C   0  0  1  0  0  0  0  0  0  0  0  0
   28.4858  -21.5823  -15.9853 C   0  0  0  0  0  0  0  0  0  0  0  0
   29.3098  -22.6919  -16.1008 O   0  0  0  0  0  0  0  0  0  0  0  0
   27.9567  -21.3849  -14.8601 O   0  0  0  0  0  0  0  0  0  0  0  0
  2  3  2  0
  2  1  1  0
  4  3  1  0
  5  4  2  0
  6  7  1  0
  6  5  1  0
  7  9  1  0
  7  8  1  6
  9 10  2  0
  9 13  1  0
 11  5  1  0
 11 12  2  0
 12  2  1  0
 13 14  1  0
 14 15  1  0
 15 17  1  0
 15 16  2  0
 17 18  1  0
 18 19  1  0
 20 19  1  0
 21 17  1  0
 21 20  1  0
 21 22  1  1
 23 22  1  0
 24 22  2  0
M  END
$$$$
