YGP.pdb
     RDKit          3D

 24 25  0  0  1  0  0  0  0  0999 V2000
   16.8965  -24.3525   -7.8963 O   0  0  0  0  0  0  0  0  0  0  0  0
   17.6525  -24.1526   -9.0420 C   0  0  0  0  0  0  0  0  0  0  0  0
   17.0122  -23.7751  -10.2173 C   0  0  0  0  0  0  0  0  0  0  0  0
   17.7373  -23.5687  -11.3738 C   0  0  0  0  0  0  0  0  0  0  0  0
   19.1092  -23.7354  -11.3747 C   0  0  0  0  0  0  0  0  0  0  0  0
   19.9566  -23.5346  -12.5672 C   0  0  0  0  0  0  0  0  0  0  0  0
   20.5443  -22.1624  -12.5242 C   0  0  2  0  0  0  0  0  0  0  0  0
   19.6801  -21.1603  -13.0863 N   0  0  0  0  0  0  0  0  0  0  0  0
   21.8864  -22.1367  -13.1776 C   0  0  0  0  0  0  0  0  0  0  0  0
   21.9921  -22.2903  -14.4122 O   0  0  0  0  0  0  0  0  0  0  0  0
   19.7305  -24.1101  -10.2012 C   0  0  0  0  0  0  0  0  0  0  0  0
   19.0214  -24.3170   -9.0505 C   0  0  0  0  0  0  0  0  0  0  0  0
   23.0512  -21.9361  -12.3883 N   0  0  0  0  0  0  0  0  0  0  0  0
   24.3405  -21.9962  -13.0423 C   0  0  0  0  0  0  0  0  0  0  0  0
   24.6964  -20.6932  -13.6632 C   0  0  0  0  0  0  0  0  0  0  0  0
   23.9501  -19.7144  -13.4764 O   0  0  0  0  0  0  0  0  0  0  0  0
   25.8563  -20.5605  -14.4504 N   0  0  0  0  0  0  0  0  0  0  0  0
   26.8015  -21.5929  -14.7703 C   0  0  0  0  0  0  0  0  0  0  0  0
   28.1183  -20.8575  -15.0489 C   0  0  0  0  0  0  0  0  0  0  0  0
   27.7985  -19.3987  -14.8379 C   0  0  0  0  0  0  0  0  0  0  0  0
   26.3065  -19.3490  -15.0830 C   0  0  1  0  0  0  0  0  0  0  0  0
   25.9794  -19.3695  -16.5383 C   0  0  0  0  0  0  0  0  0  0  0  0
   26.1202  -18.2474  -17.3410 O   0  0  0  0  0  0  0  0  0  0  0  0
   25.5592  -20.4163  -17.0974 O   0  0  0  0  0  0  0  0  0  0  0  0
  2  3  2  0
  2  1  1  0
  4  3  1  0
  5  4  2  0
  6  7  1  0
  6  5  1  0
  7  9  1  0
  7  8  1  6
  9 10  2  0
  9 13  1  0
 11  5  1  0
 11 12  2  0
 12  2  1  0
 13 14  1  0
 14 15  1  0
 15 17  1  0
 15 16  2  0
 17 18  1  0
 18 19  1  0
 20 19  1  0
 21 17  1  0
 21 20  1  0
 21 22  1  6
 23 22  1  0
 24 22  2  0
M  END
$$$$
