YGP.pdb
     RDKit          3D

 24 25  0  0  1  0  0  0  0  0999 V2000
   21.0890  -21.1416  -15.3747 O   0  0  0  0  0  0  0  0  0  0  0  0
   21.9610  -20.8994  -14.3235 C   0  0  0  0  0  0  0  0  0  0  0  0
   21.8758  -21.6854  -13.1796 C   0  0  0  0  0  0  0  0  0  0  0  0
   22.7297  -21.4687  -12.1167 C   0  0  0  0  0  0  0  0  0  0  0  0
   23.6793  -20.4666  -12.1793 C   0  0  0  0  0  0  0  0  0  0  0  0
   24.6288  -20.1703  -11.0880 C   0  0  0  0  0  0  0  0  0  0  0  0
   25.9395  -20.8186  -11.3906 C   0  0  2  0  0  0  0  0  0  0  0  0
   25.8334  -22.2376  -11.5967 N   0  0  0  0  0  0  0  0  0  0  0  0
   26.9451  -20.5072  -10.3319 C   0  0  0  0  0  0  0  0  0  0  0  0
   27.1203  -19.3308   -9.9521 O   0  0  0  0  0  0  0  0  0  0  0  0
   23.7518  -19.6949  -13.3206 C   0  0  0  0  0  0  0  0  0  0  0  0
   22.9107  -19.9015  -14.3789 C   0  0  0  0  0  0  0  0  0  0  0  0
   27.7078  -21.5576   -9.7530 N   0  0  0  0  0  0  0  0  0  0  0  0
   28.6624  -21.2214   -8.7189 C   0  0  0  0  0  0  0  0  0  0  0  0
   27.9817  -20.7751   -7.4750 C   0  0  0  0  0  0  0  0  0  0  0  0
   26.7373  -20.7794   -7.4358 O   0  0  0  0  0  0  0  0  0  0  0  0
   28.7248  -20.3532   -6.3559 N   0  0  0  0  0  0  0  0  0  0  0  0
   30.1466  -20.1647   -6.2888 C   0  0  0  0  0  0  0  0  0  0  0  0
   30.5056  -20.3503   -4.8093 C   0  0  0  0  0  0  0  0  0  0  0  0
   29.1953  -20.6596   -4.1294 C   0  0  0  0  0  0  0  0  0  0  0  0
   28.1831  -20.0316   -5.0621 C   0  0  1  0  0  0  0  0  0  0  0  0
   28.1035  -18.5526   -4.8846 C   0  0  0  0  0  0  0  0  0  0  0  0
   27.5058  -17.9749   -3.7744 O   0  0  0  0  0  0  0  0  0  0  0  0
   28.5805  -17.7662   -5.7441 O   0  0  0  0  0  0  0  0  0  0  0  0
  2  3  2  0
  2  1  1  0
  4  3  1  0
  5  4  2  0
  6  7  1  0
  6  5  1  0
  7  9  1  0
  7  8  1  1
  9 10  2  0
  9 13  1  0
 11  5  1  0
 11 12  2  0
 12  2  1  0
 13 14  1  0
 14 15  1  0
 15 17  1  0
 15 16  2  0
 17 18  1  0
 18 19  1  0
 20 19  1  0
 21 17  1  0
 21 20  1  0
 21 22  1  1
 23 22  1  0
 24 22  2  0
M  END
$$$$
