NED.pdb
     RDKit          3D

 26 25  0  0  1  0  0  0  0  0999 V2000
    8.1671  -13.2249   16.1119 N   0  0  0  0  0  0  0  0  0  0  0  0
    7.1471  -13.0745   17.1109 C   0  0  0  0  0  0  0  0  0  0  0  0
    6.1173  -12.4832   16.7572 O   0  0  0  0  0  0  0  0  0  0  0  0
    7.3269  -13.5938   18.4608 C   0  0  0  0  0  0  0  0  0  0  0  0
    8.6570  -14.2155   18.7247 C   0  0  2  0  0  0  0  0  0  0  0  0
    8.9417  -15.1750   17.6295 N   0  0  0  0  0  0  0  0  0  0  0  0
    8.7049  -14.9934   20.0016 C   0  0  0  0  0  0  0  0  0  0  0  0
    8.4675  -14.4820   21.1052 O   0  0  0  0  0  0  0  0  0  0  0  0
    9.0352  -16.3821   19.9625 N   0  0  0  0  0  0  0  0  0  0  0  0
    9.1699  -17.1294   21.1930 C   0  0  1  0  0  0  0  0  0  0  0  0
    8.6646  -18.5329   21.0382 C   0  0  0  0  0  0  0  0  0  0  0  0
    8.7343  -19.3787   22.2609 C   0  0  0  0  0  0  0  0  0  0  0  0
    8.3039  -20.7597   22.0043 C   0  0  0  0  0  0  0  0  0  0  0  0
    8.0880  -21.2073   20.8712 O   0  0  0  0  0  0  0  0  0  0  0  0
   10.6426  -17.2625   21.5039 C   0  0  0  0  0  0  0  0  0  0  0  0
   11.5180  -17.1942   20.6061 O   0  0  0  0  0  0  0  0  0  0  0  0
    8.1288  -21.6110   23.0945 O   0  0  0  0  0  0  0  0  0  0  0  0
   11.0800  -17.4721   22.8378 N   0  0  0  0  0  0  0  0  0  0  0  0
   12.5459  -17.5370   23.0998 C   0  0  1  0  0  0  0  0  0  0  0  0
   13.1539  -16.2239   22.6873 C   0  0  0  0  0  0  0  0  0  0  0  0
   14.5854  -16.3534   22.4149 C   0  0  0  0  0  0  0  0  0  0  0  0
   15.2093  -17.4180   22.4627 O   0  0  0  0  0  0  0  0  0  0  0  0
   12.7042  -17.7071   24.5805 C   0  0  0  0  0  0  0  0  0  0  0  0
   13.7925  -18.4592   25.0400 O   0  0  0  0  0  0  0  0  0  0  0  0
   15.3268  -15.2049   22.0736 O   0  0  0  0  0  0  0  0  0  0  0  0
   11.9071  -17.2054   25.3871 O   0  0  0  0  0  0  0  0  0  0  0  0
  1  2  1  0
  2  3  2  0
  4  2  1  0
  5  4  1  0
  5  6  1  6
  7  8  2  0
  7  5  1  0
  9  7  1  0
 10 11  1  6
 10  9  1  0
 11 12  1  0
 13 12  1  0
 13 17  1  0
 14 13  2  0
 15 10  1  0
 16 15  2  0
 18 15  1  0
 19 20  1  1
 19 18  1  0
 20 21  1  0
 21 25  1  0
 21 22  2  0
 23 24  1  0
 23 19  1  0
 26 23  2  0
M  END
$$$$
