NED.pdb
     RDKit          3D

 26 25  0  0  1  0  0  0  0  0999 V2000
    7.9042  -12.5000   18.8453 N   0  0  0  0  0  0  0  0  0  0  0  0
    8.2092  -13.3807   17.7534 C   0  0  0  0  0  0  0  0  0  0  0  0
    7.5060  -13.2606   16.7403 O   0  0  0  0  0  0  0  0  0  0  0  0
    9.2883  -14.3561   17.8458 C   0  0  0  0  0  0  0  0  0  0  0  0
    8.9625  -15.7087   17.3073 C   0  0  2  0  0  0  0  0  0  0  0  0
    7.8188  -16.2492   18.0824 N   0  0  0  0  0  0  0  0  0  0  0  0
   10.0825  -16.6897   17.4523 C   0  0  0  0  0  0  0  0  0  0  0  0
   10.2401  -17.3790   18.4701 O   0  0  0  0  0  0  0  0  0  0  0  0
   11.0149  -16.8498   16.3826 N   0  0  0  0  0  0  0  0  0  0  0  0
   12.0783  -17.8238   16.4883 C   0  0  1  0  0  0  0  0  0  0  0  0
   12.2995  -18.5350   15.1866 C   0  0  0  0  0  0  0  0  0  0  0  0
   11.2604  -19.5345   14.8168 C   0  0  0  0  0  0  0  0  0  0  0  0
   11.5518  -20.1872   13.5333 C   0  0  0  0  0  0  0  0  0  0  0  0
   12.5339  -19.9089   12.8342 O   0  0  0  0  0  0  0  0  0  0  0  0
   13.3665  -17.0854   16.7689 C   0  0  0  0  0  0  0  0  0  0  0  0
   13.5674  -15.9198   16.3468 O   0  0  0  0  0  0  0  0  0  0  0  0
   10.6756  -21.1717   13.0784 O   0  0  0  0  0  0  0  0  0  0  0  0
   14.3972  -17.6998   17.5269 N   0  0  0  0  0  0  0  0  0  0  0  0
   15.6343  -16.9162   17.8048 C   0  0  1  0  0  0  0  0  0  0  0  0
   15.9275  -17.0107   19.2776 C   0  0  0  0  0  0  0  0  0  0  0  0
   17.2510  -16.4774   19.6002 C   0  0  0  0  0  0  0  0  0  0  0  0
   17.8227  -15.5954   18.9520 O   0  0  0  0  0  0  0  0  0  0  0  0
   16.7383  -17.5829   17.0412 C   0  0  0  0  0  0  0  0  0  0  0  0
   16.6446  -18.9636   16.8268 O   0  0  0  0  0  0  0  0  0  0  0  0
   17.9428  -16.9847   20.7180 O   0  0  0  0  0  0  0  0  0  0  0  0
   17.7108  -16.9482   16.6060 O   0  0  0  0  0  0  0  0  0  0  0  0
  1  2  1  0
  2  3  2  0
  4  2  1  0
  5  4  1  0
  5  6  1  1
  7  8  2  0
  7  5  1  0
  9  7  1  0
 10 11  1  6
 10  9  1  0
 11 12  1  0
 13 12  1  0
 13 17  1  0
 14 13  2  0
 15 10  1  0
 16 15  2  0
 18 15  1  0
 19 20  1  1
 19 18  1  0
 20 21  1  0
 21 25  1  0
 21 22  2  0
 23 24  1  0
 23 19  1  0
 26 23  2  0
M  END
$$$$
