NED.pdb
     RDKit          3D

 26 25  0  0  1  0  0  0  0  0999 V2000
    8.6974  -13.2972   16.5266 N   0  0  0  0  0  0  0  0  0  0  0  0
    7.8683  -13.8636   17.5526 C   0  0  0  0  0  0  0  0  0  0  0  0
    6.6510  -13.6567   17.4492 O   0  0  0  0  0  0  0  0  0  0  0  0
    8.4404  -14.6363   18.6481 C   0  0  0  0  0  0  0  0  0  0  0  0
    9.9287  -14.7372   18.6377 C   0  0  2  0  0  0  0  0  0  0  0  0
   10.2919  -16.1593   18.4212 N   0  0  0  0  0  0  0  0  0  0  0  0
   10.5599  -14.3238   19.9294 C   0  0  0  0  0  0  0  0  0  0  0  0
   10.8395  -13.1448   20.1897 O   0  0  0  0  0  0  0  0  0  0  0  0
   10.8571  -15.3165   20.9119 N   0  0  0  0  0  0  0  0  0  0  0  0
   11.4238  -14.9292   22.1845 C   0  0  1  0  0  0  0  0  0  0  0  0
   10.7673  -15.6575   23.3194 C   0  0  0  0  0  0  0  0  0  0  0  0
   10.5176  -17.1072   23.0927 C   0  0  0  0  0  0  0  0  0  0  0  0
   10.8901  -17.9219   24.2571 C   0  0  0  0  0  0  0  0  0  0  0  0
   10.9826  -19.1553   24.2250 O   0  0  0  0  0  0  0  0  0  0  0  0
   12.8704  -15.3654   22.2077 C   0  0  0  0  0  0  0  0  0  0  0  0
   13.6364  -15.0691   23.1577 O   0  0  0  0  0  0  0  0  0  0  0  0
   11.1528  -17.2717   25.4622 O   0  0  0  0  0  0  0  0  0  0  0  0
   13.4079  -16.1310   21.1403 N   0  0  0  0  0  0  0  0  0  0  0  0
   14.8004  -15.8426   20.6939 C   0  0  1  0  0  0  0  0  0  0  0  0
   14.8718  -14.3954   20.2881 C   0  0  0  0  0  0  0  0  0  0  0  0
   15.1188  -14.2481   18.8537 C   0  0  0  0  0  0  0  0  0  0  0  0
   14.9723  -15.1528   18.0259 O   0  0  0  0  0  0  0  0  0  0  0  0
   15.6813  -16.0615   21.8865 C   0  0  0  0  0  0  0  0  0  0  0  0
   17.0624  -15.9016   21.7181 O   0  0  0  0  0  0  0  0  0  0  0  0
   15.5536  -13.0040   18.3552 O   0  0  0  0  0  0  0  0  0  0  0  0
   15.2196  -16.3744   22.9942 O   0  0  0  0  0  0  0  0  0  0  0  0
  1  2  1  0
  2  3  2  0
  4  2  1  0
  5  4  1  0
  5  6  1  1
  7  8  2  0
  7  5  1  0
  9  7  1  0
 10 11  1  1
 10  9  1  0
 11 12  1  0
 13 12  1  0
 13 17  1  0
 14 13  2  0
 15 10  1  0
 16 15  2  0
 18 15  1  0
 19 20  1  1
 19 18  1  0
 20 21  1  0
 21 25  1  0
 21 22  2  0
 23 24  1  0
 23 19  1  0
 26 23  2  0
M  END
$$$$
