NED.pdb
     RDKit          3D

 26 25  0  0  1  0  0  0  0  0999 V2000
   12.2041  -13.2402   18.7771 N   0  0  0  0  0  0  0  0  0  0  0  0
   11.6241  -14.5357   18.5620 C   0  0  0  0  0  0  0  0  0  0  0  0
   12.0717  -15.4583   19.2573 O   0  0  0  0  0  0  0  0  0  0  0  0
   10.5685  -14.7388   17.5776 C   0  0  0  0  0  0  0  0  0  0  0  0
    9.2246  -14.2327   17.9816 C   0  0  2  0  0  0  0  0  0  0  0  0
    9.3626  -12.8013   18.3463 N   0  0  0  0  0  0  0  0  0  0  0  0
    8.6644  -14.9302   19.1806 C   0  0  0  0  0  0  0  0  0  0  0  0
    8.2951  -14.3226   20.1956 O   0  0  0  0  0  0  0  0  0  0  0  0
    8.5438  -16.3530   19.1691 N   0  0  0  0  0  0  0  0  0  0  0  0
    8.0265  -17.0454   20.3283 C   0  0  1  0  0  0  0  0  0  0  0  0
    8.0725  -18.5328   20.1420 C   0  0  0  0  0  0  0  0  0  0  0  0
    7.4136  -19.3339   21.2095 C   0  0  0  0  0  0  0  0  0  0  0  0
    7.5297  -20.7786   20.9691 C   0  0  0  0  0  0  0  0  0  0  0  0
    7.1225  -21.3338   19.9411 O   0  0  0  0  0  0  0  0  0  0  0  0
    8.9409  -16.7562   21.4960 C   0  0  0  0  0  0  0  0  0  0  0  0
    8.4996  -16.6097   22.6625 O   0  0  0  0  0  0  0  0  0  0  0  0
    8.1298  -21.5660   21.9508 O   0  0  0  0  0  0  0  0  0  0  0  0
   10.3419  -16.6398   21.3007 N   0  0  0  0  0  0  0  0  0  0  0  0
   11.2304  -16.7016   22.4960 C   0  0  1  0  0  0  0  0  0  0  0  0
   10.4577  -17.3339   23.6217 C   0  0  0  0  0  0  0  0  0  0  0  0
   11.2617  -17.4334   24.8397 C   0  0  0  0  0  0  0  0  0  0  0  0
   12.4319  -17.0503   24.9343 O   0  0  0  0  0  0  0  0  0  0  0  0
   12.3764  -17.5938   22.1260 C   0  0  0  0  0  0  0  0  0  0  0  0
   13.6594  -17.0331   22.0971 O   0  0  0  0  0  0  0  0  0  0  0  0
   10.6901  -17.9997   25.9964 O   0  0  0  0  0  0  0  0  0  0  0  0
   12.2125  -18.7920   21.8514 O   0  0  0  0  0  0  0  0  0  0  0  0
  1  2  1  0
  2  3  2  0
  4  2  1  0
  5  4  1  0
  5  6  1  1
  7  8  2  0
  7  5  1  0
  9  7  1  0
 10 11  1  6
 10  9  1  0
 11 12  1  0
 13 12  1  0
 13 17  1  0
 14 13  2  0
 15 10  1  0
 16 15  2  0
 18 15  1  0
 19 20  1  1
 19 18  1  0
 20 21  1  0
 21 25  1  0
 21 22  2  0
 23 24  1  0
 23 19  1  0
 26 23  2  0
M  END
$$$$
