NED.pdb
     RDKit          3D

 26 25  0  0  1  0  0  0  0  0999 V2000
    7.2347  -12.3898   18.3884 N   0  0  0  0  0  0  0  0  0  0  0  0
    7.2791  -13.3329   19.4699 C   0  0  0  0  0  0  0  0  0  0  0  0
    6.3142  -13.3205   20.2471 O   0  0  0  0  0  0  0  0  0  0  0  0
    8.4025  -14.2473   19.6316 C   0  0  0  0  0  0  0  0  0  0  0  0
    9.5280  -14.0377   18.6751 C   0  0  2  0  0  0  0  0  0  0  0  0
    9.0576  -14.4182   17.3205 N   0  0  0  0  0  0  0  0  0  0  0  0
   10.7228  -14.8881   18.9704 C   0  0  0  0  0  0  0  0  0  0  0  0
   10.6395  -16.1050   19.1900 O   0  0  0  0  0  0  0  0  0  0  0  0
   12.0179  -14.2875   19.0029 N   0  0  0  0  0  0  0  0  0  0  0  0
   13.1889  -15.1031   19.2360 C   0  0  1  0  0  0  0  0  0  0  0  0
   14.4389  -14.4049   18.7897 C   0  0  0  0  0  0  0  0  0  0  0  0
   15.6993  -15.1801   18.9506 C   0  0  0  0  0  0  0  0  0  0  0  0
   16.8620  -14.4660   18.4060 C   0  0  0  0  0  0  0  0  0  0  0  0
   17.6512  -13.8163   19.1030 O   0  0  0  0  0  0  0  0  0  0  0  0
   13.3420  -15.2912   20.7275 C   0  0  0  0  0  0  0  0  0  0  0  0
   13.3479  -14.3177   21.5208 O   0  0  0  0  0  0  0  0  0  0  0  0
   17.0882  -14.5227   17.0313 O   0  0  0  0  0  0  0  0  0  0  0  0
   13.4862  -16.5917   21.2773 N   0  0  0  0  0  0  0  0  0  0  0  0
   13.5067  -16.7344   22.7609 C   0  0  1  0  0  0  0  0  0  0  0  0
   12.4234  -17.7023   23.1532 C   0  0  0  0  0  0  0  0  0  0  0  0
   11.2351  -17.0099   23.6518 C   0  0  0  0  0  0  0  0  0  0  0  0
   11.1524  -15.7864   23.7973 O   0  0  0  0  0  0  0  0  0  0  0  0
   14.8400  -17.3224   23.1114 C   0  0  0  0  0  0  0  0  0  0  0  0
   15.1745  -17.4234   24.4675 O   0  0  0  0  0  0  0  0  0  0  0  0
   10.0952  -17.7626   23.9973 O   0  0  0  0  0  0  0  0  0  0  0  0
   15.6339  -17.7120   22.2419 O   0  0  0  0  0  0  0  0  0  0  0  0
  1  2  1  0
  2  3  2  0
  4  2  1  0
  5  4  1  0
  5  6  1  6
  7  8  2  0
  7  5  1  0
  9  7  1  0
 10 11  1  1
 10  9  1  0
 11 12  1  0
 13 12  1  0
 13 17  1  0
 14 13  2  0
 15 10  1  0
 16 15  2  0
 18 15  1  0
 19 20  1  6
 19 18  1  0
 20 21  1  0
 21 25  1  0
 21 22  2  0
 23 24  1  0
 23 19  1  0
 26 23  2  0
M  END
$$$$
