YNH.pdb
     RDKit          3D

 31 32  0  0  1  0  0  0  0  0999 V2000
    7.2241  -12.8820   15.9878 O   0  0  0  0  0  0  0  0  0  0  0  0
    7.8359  -13.5367   17.0400 C   0  0  0  0  0  0  0  0  0  0  0  0
    7.5063  -13.1945   18.3355 C   0  0  0  0  0  0  0  0  0  0  0  0
    8.1135  -13.8442   19.3625 C   0  0  0  0  0  0  0  0  0  0  0  0
    9.0465  -14.8324   19.1603 C   0  0  0  0  0  0  0  0  0  0  0  0
    9.6655  -15.4969   20.3030 C   0  0  0  0  0  0  0  0  0  0  0  0
    9.7644  -17.0093   20.1442 C   0  0  2  0  0  0  0  0  0  0  0  0
    8.4742  -17.5771   19.7952 N   0  0  0  0  0  0  0  0  0  0  0  0
   10.2778  -17.5511   21.4197 C   0  0  0  0  0  0  0  0  0  0  0  0
    9.5650  -18.3651   22.0548 O   0  0  0  0  0  0  0  0  0  0  0  0
    9.3907  -15.1901   17.8825 C   0  0  0  0  0  0  0  0  0  0  0  0
    8.7737  -14.5299   16.8349 C   0  0  0  0  0  0  0  0  0  0  0  0
   14.5390  -20.2233   23.1686 N   0  0  0  0  0  0  0  0  0  0  0  0
   14.7278  -18.8092   23.0397 C   0  0  0  0  0  0  0  0  0  0  0  0
   15.7182  -18.2984   23.6206 O   0  0  0  0  0  0  0  0  0  0  0  0
   13.7716  -18.0275   22.2461 C   0  0  0  0  0  0  0  0  0  0  0  0
   12.3818  -17.9959   22.7505 C   0  0  2  0  0  0  0  0  0  0  0  0
   11.5465  -17.1381   21.8800 N   0  0  0  0  0  0  0  0  0  0  0  0
   12.2642  -17.4795   24.1238 C   0  0  0  0  0  0  0  0  0  0  0  0
   12.9608  -17.9968   25.0661 O   0  0  0  0  0  0  0  0  0  0  0  0
   11.4193  -16.4203   24.4835 N   0  0  0  0  0  0  0  0  0  0  0  0
   10.4704  -16.6139   25.6091 C   0  0  1  0  0  0  0  0  0  0  0  0
    9.2161  -17.1526   24.9746 C   0  0  0  0  0  0  0  0  0  0  0  0
    8.4106  -16.0649   24.3994 C   0  0  0  0  0  0  0  0  0  0  0  0
    8.7917  -14.7258   24.4999 C   0  0  0  0  0  0  0  0  0  0  0  0
    7.8319  -14.0113   23.8665 N   0  0  0  0  0  0  0  0  0  0  0  0
    6.8956  -14.8212   23.3888 C   0  0  0  0  0  0  0  0  0  0  0  0
    7.2756  -16.0580   23.7282 N   0  0  0  0  0  0  0  0  0  0  0  0
   11.0767  -17.6419   26.4915 C   0  0  0  0  0  0  0  0  0  0  0  0
   11.7775  -18.6030   26.0503 O   0  0  0  0  0  0  0  0  0  0  0  0
   10.9213  -17.6249   27.8659 O   0  0  0  0  0  0  0  0  0  0  0  0
  2  1  1  0
  2 12  2  0
  3  2  1  0
  4  3  2  0
  4  5  1  0
  5  6  1  0
  5 11  2  0
  7  6  1  0
  7  8  1  1
  9 18  1  0
  9  7  1  0
 10  9  2  0
 11 12  1  0
 13 14  1  0
 14 16  1  0
 14 15  2  0
 17 16  1  6
 17 18  1  0
 19 17  1  0
 19 21  1  0
 20 19  2  0
 22 21  1  0
 22 23  1  6
 22 29  1  0
 24 23  1  0
 24 28  1  0
 25 24  2  0
 26 25  1  0
 26 27  1  0
 27 28  2  0
 29 30  2  0
 29 31  1  0
M  END
$$$$
