YNH.pdb
     RDKit          3D

 31 32  0  0  1  0  0  0  0  0999 V2000
    8.2444  -12.3834   17.0344 O   0  0  0  0  0  0  0  0  0  0  0  0
    7.9988  -12.9686   18.2621 C   0  0  0  0  0  0  0  0  0  0  0  0
    8.7927  -12.6389   19.3415 C   0  0  0  0  0  0  0  0  0  0  0  0
    8.5428  -13.2198   20.5439 C   0  0  0  0  0  0  0  0  0  0  0  0
    7.5265  -14.1259   20.7273 C   0  0  0  0  0  0  0  0  0  0  0  0
    7.3042  -14.7173   22.0432 C   0  0  0  0  0  0  0  0  0  0  0  0
    8.5166  -15.4654   22.5842 C   0  0  2  0  0  0  0  0  0  0  0  0
    9.0131  -16.4184   21.6074 N   0  0  0  0  0  0  0  0  0  0  0  0
    8.0991  -16.1280   23.8375 C   0  0  0  0  0  0  0  0  0  0  0  0
    7.4182  -15.4732   24.6631 O   0  0  0  0  0  0  0  0  0  0  0  0
    6.7241  -14.4696   19.6703 C   0  0  0  0  0  0  0  0  0  0  0  0
    6.9767  -13.8795   18.4448 C   0  0  0  0  0  0  0  0  0  0  0  0
    5.8499  -18.7932   23.8792 N   0  0  0  0  0  0  0  0  0  0  0  0
    6.7048  -19.8743   24.2697 C   0  0  0  0  0  0  0  0  0  0  0  0
    6.3905  -21.0311   23.8924 O   0  0  0  0  0  0  0  0  0  0  0  0
    7.8945  -19.5904   25.0816 C   0  0  0  0  0  0  0  0  0  0  0  0
    8.1799  -18.1622   25.3380 C   0  0  2  0  0  0  0  0  0  0  0  0
    8.4773  -17.4688   24.0643 N   0  0  0  0  0  0  0  0  0  0  0  0
    9.3229  -17.9414   26.2386 C   0  0  0  0  0  0  0  0  0  0  0  0
   10.5179  -18.1311   25.8179 O   0  0  0  0  0  0  0  0  0  0  0  0
    9.1910  -17.5167   27.5680 N   0  0  0  0  0  0  0  0  0  0  0  0
   10.4110  -17.4070   28.4074 C   0  0  1  0  0  0  0  0  0  0  0  0
   10.1960  -16.1789   29.2510 C   0  0  0  0  0  0  0  0  0  0  0  0
    9.9095  -15.0079   28.4087 C   0  0  0  0  0  0  0  0  0  0  0  0
   10.3049  -14.9405   27.0716 C   0  0  0  0  0  0  0  0  0  0  0  0
    9.8803  -13.7399   26.6121 N   0  0  0  0  0  0  0  0  0  0  0  0
    9.2554  -13.0739   27.5748 C   0  0  0  0  0  0  0  0  0  0  0  0
    9.2901  -13.8691   28.6500 N   0  0  0  0  0  0  0  0  0  0  0  0
   10.4344  -18.6172   29.2665 C   0  0  0  0  0  0  0  0  0  0  0  0
    9.5141  -19.4903   29.2530 O   0  0  0  0  0  0  0  0  0  0  0  0
   11.4676  -18.8818   30.1473 O   0  0  0  0  0  0  0  0  0  0  0  0
  2  1  1  0
  2 12  2  0
  3  2  1  0
  4  3  2  0
  4  5  1  0
  5  6  1  0
  5 11  2  0
  7  6  1  0
  7  8  1  6
  9 18  1  0
  9  7  1  0
 10  9  2  0
 11 12  1  0
 13 14  1  0
 14 16  1  0
 14 15  2  0
 17 16  1  6
 17 18  1  0
 19 17  1  0
 19 21  1  0
 20 19  2  0
 22 21  1  0
 22 23  1  1
 22 29  1  0
 24 23  1  0
 24 28  1  0
 25 24  2  0
 26 25  1  0
 26 27  1  0
 27 28  2  0
 29 30  2  0
 29 31  1  0
M  END
$$$$
