YNH.pdb
     RDKit          3D

 31 32  0  0  1  0  0  0  0  0999 V2000
    6.0138  -10.8055   27.5047 O   0  0  0  0  0  0  0  0  0  0  0  0
    6.4175  -12.0701   27.1203 C   0  0  0  0  0  0  0  0  0  0  0  0
    5.4748  -12.9816   26.6906 C   0  0  0  0  0  0  0  0  0  0  0  0
    5.8821  -14.2220   26.3149 C   0  0  0  0  0  0  0  0  0  0  0  0
    7.2011  -14.6053   26.3464 C   0  0  0  0  0  0  0  0  0  0  0  0
    7.5803  -15.9518   25.9296 C   0  0  0  0  0  0  0  0  0  0  0  0
    8.8931  -16.0001   25.1572 C   0  0  2  0  0  0  0  0  0  0  0  0
    9.3266  -14.6631   24.7921 N   0  0  0  0  0  0  0  0  0  0  0  0
    8.6713  -16.8510   23.9694 C   0  0  0  0  0  0  0  0  0  0  0  0
    8.4288  -18.0697   24.1425 O   0  0  0  0  0  0  0  0  0  0  0  0
    8.1563  -13.7177   26.7696 C   0  0  0  0  0  0  0  0  0  0  0  0
    7.7439  -12.4539   27.1527 C   0  0  0  0  0  0  0  0  0  0  0  0
    6.4540  -14.3206   20.9972 N   0  0  0  0  0  0  0  0  0  0  0  0
    6.4500  -15.6433   21.5471 C   0  0  0  0  0  0  0  0  0  0  0  0
    5.7952  -15.8333   22.6028 O   0  0  0  0  0  0  0  0  0  0  0  0
    7.1991  -16.7057   20.8649 C   0  0  0  0  0  0  0  0  0  0  0  0
    8.5090  -17.0577   21.4541 C   0  0  2  0  0  0  0  0  0  0  0  0
    8.7388  -16.2687   22.6854 N   0  0  0  0  0  0  0  0  0  0  0  0
    9.6464  -16.8117   20.5529 C   0  0  0  0  0  0  0  0  0  0  0  0
    9.6738  -17.3515   19.3915 O   0  0  0  0  0  0  0  0  0  0  0  0
   10.7358  -15.9946   20.8855 N   0  0  0  0  0  0  0  0  0  0  0  0
   11.8056  -15.7848   19.8773 C   0  0  1  0  0  0  0  0  0  0  0  0
   11.8340  -14.2984   19.6410 C   0  0  0  0  0  0  0  0  0  0  0  0
   10.6297  -13.8589   18.9202 C   0  0  0  0  0  0  0  0  0  0  0  0
    9.7118  -14.7652   18.3866 C   0  0  0  0  0  0  0  0  0  0  0  0
    8.7423  -14.0218   17.8032 N   0  0  0  0  0  0  0  0  0  0  0  0
    9.0064  -12.7291   17.9447 C   0  0  0  0  0  0  0  0  0  0  0  0
   10.1560  -12.6642   18.6256 N   0  0  0  0  0  0  0  0  0  0  0  0
   13.0712  -16.2229   20.5172 C   0  0  0  0  0  0  0  0  0  0  0  0
   13.1165  -16.7325   21.6782 O   0  0  0  0  0  0  0  0  0  0  0  0
   14.2984  -16.1076   19.8896 O   0  0  0  0  0  0  0  0  0  0  0  0
  2  1  1  0
  2 12  2  0
  3  2  1  0
  4  3  2  0
  4  5  1  0
  5  6  1  0
  5 11  2  0
  7  6  1  0
  7  8  1  6
  9 18  1  0
  9  7  1  0
 10  9  2  0
 11 12  1  0
 13 14  1  0
 14 16  1  0
 14 15  2  0
 17 16  1  6
 17 18  1  0
 19 17  1  0
 19 21  1  0
 20 19  2  0
 22 21  1  0
 22 23  1  1
 22 29  1  0
 24 23  1  0
 24 28  1  0
 25 24  2  0
 26 25  1  0
 26 27  1  0
 27 28  2  0
 29 30  2  0
 29 31  1  0
M  END
$$$$
