YNH.pdb
     RDKit          3D

 31 32  0  0  1  0  0  0  0  0999 V2000
    6.3500  -12.6443   19.3862 O   0  0  0  0  0  0  0  0  0  0  0  0
    7.6489  -13.1158   19.3655 C   0  0  0  0  0  0  0  0  0  0  0  0
    8.6702  -12.2733   18.9766 C   0  0  0  0  0  0  0  0  0  0  0  0
    9.9434  -12.7467   18.9598 C   0  0  0  0  0  0  0  0  0  0  0  0
   10.2547  -14.0365   19.3163 C   0  0  0  0  0  0  0  0  0  0  0  0
   11.6418  -14.4896   19.2800 C   0  0  0  0  0  0  0  0  0  0  0  0
   12.1369  -14.8139   17.8757 C   0  0  2  0  0  0  0  0  0  0  0  0
   11.2155  -15.7080   17.1972 N   0  0  0  0  0  0  0  0  0  0  0  0
   13.4825  -15.4094   18.0122 C   0  0  0  0  0  0  0  0  0  0  0  0
   13.6146  -16.6418   17.8178 O   0  0  0  0  0  0  0  0  0  0  0  0
    9.2576  -14.8926   19.7063 C   0  0  0  0  0  0  0  0  0  0  0  0
    7.9601  -14.4129   19.7242 C   0  0  0  0  0  0  0  0  0  0  0  0
   16.6711  -12.1896   16.4449 N   0  0  0  0  0  0  0  0  0  0  0  0
   16.9667  -13.5583   16.7472 C   0  0  0  0  0  0  0  0  0  0  0  0
   17.2587  -14.3166   15.7886 O   0  0  0  0  0  0  0  0  0  0  0  0
   16.9174  -14.0111   18.1428 C   0  0  0  0  0  0  0  0  0  0  0  0
   15.9548  -15.0936   18.4406 C   0  0  2  0  0  0  0  0  0  0  0  0
   14.5700  -14.5775   18.3548 N   0  0  0  0  0  0  0  0  0  0  0  0
   16.1248  -15.6826   19.7787 C   0  0  0  0  0  0  0  0  0  0  0  0
   15.9657  -14.9589   20.8237 O   0  0  0  0  0  0  0  0  0  0  0  0
   16.4530  -17.0278   19.9971 N   0  0  0  0  0  0  0  0  0  0  0  0
   16.5159  -17.5303   21.3930 C   0  0  1  0  0  0  0  0  0  0  0  0
   16.4093  -19.0273   21.2748 C   0  0  0  0  0  0  0  0  0  0  0  0
   15.0166  -19.4367   21.0389 C   0  0  0  0  0  0  0  0  0  0  0  0
   13.9548  -18.5334   21.1114 C   0  0  0  0  0  0  0  0  0  0  0  0
   12.8348  -19.2443   20.8409 N   0  0  0  0  0  0  0  0  0  0  0  0
   13.1412  -20.5145   20.6093 C   0  0  0  0  0  0  0  0  0  0  0  0
   14.4702  -20.5981   20.7369 N   0  0  0  0  0  0  0  0  0  0  0  0
   17.8557  -17.1545   21.9098 C   0  0  0  0  0  0  0  0  0  0  0  0
   18.7685  -16.6717   21.1728 O   0  0  0  0  0  0  0  0  0  0  0  0
   18.2063  -17.3034   23.2395 O   0  0  0  0  0  0  0  0  0  0  0  0
  2  1  1  0
  2 12  2  0
  3  2  1  0
  4  3  2  0
  4  5  1  0
  5  6  1  0
  5 11  2  0
  7  6  1  0
  7  8  1  1
  9 18  1  0
  9  7  1  0
 10  9  2  0
 11 12  1  0
 13 14  1  0
 14 16  1  0
 14 15  2  0
 17 16  1  1
 17 18  1  0
 19 17  1  0
 19 21  1  0
 20 19  2  0
 22 21  1  0
 22 23  1  6
 22 29  1  0
 24 23  1  0
 24 28  1  0
 25 24  2  0
 26 25  1  0
 26 27  1  0
 27 28  2  0
 29 30  2  0
 29 31  1  0
M  END
$$$$
