YNH.pdb
     RDKit          3D

 31 32  0  0  1  0  0  0  0  0999 V2000
    7.9201  -11.5077   17.8321 O   0  0  0  0  0  0  0  0  0  0  0  0
    8.2884  -12.4705   18.7526 C   0  0  0  0  0  0  0  0  0  0  0  0
    9.6148  -12.8358   18.8582 C   0  0  0  0  0  0  0  0  0  0  0  0
    9.9662  -13.7832   19.7663 C   0  0  0  0  0  0  0  0  0  0  0  0
    9.0485  -14.3937   20.5865 C   0  0  0  0  0  0  0  0  0  0  0  0
    9.4846  -15.4048   21.5447 C   0  0  0  0  0  0  0  0  0  0  0  0
   10.0606  -16.6537   20.8882 C   0  0  2  0  0  0  0  0  0  0  0  0
    9.1075  -17.2347   19.9592 N   0  0  0  0  0  0  0  0  0  0  0  0
   10.4168  -17.5935   21.9717 C   0  0  0  0  0  0  0  0  0  0  0  0
    9.5294  -18.3627   22.4132 O   0  0  0  0  0  0  0  0  0  0  0  0
    7.7248  -14.0479   20.5004 C   0  0  0  0  0  0  0  0  0  0  0  0
    7.3645  -13.0834   19.5764 C   0  0  0  0  0  0  0  0  0  0  0  0
   13.2330  -20.1456   21.4394 N   0  0  0  0  0  0  0  0  0  0  0  0
   14.1588  -19.5468   22.3541 C   0  0  0  0  0  0  0  0  0  0  0  0
   15.3829  -19.7614   22.1679 O   0  0  0  0  0  0  0  0  0  0  0  0
   13.6469  -18.7198   23.4537 C   0  0  0  0  0  0  0  0  0  0  0  0
   12.1787  -18.5528   23.5116 C   0  0  2  0  0  0  0  0  0  0  0  0
   11.7366  -17.5960   22.4721 N   0  0  0  0  0  0  0  0  0  0  0  0
   11.6924  -18.0529   24.8078 C   0  0  0  0  0  0  0  0  0  0  0  0
   12.1302  -16.9426   25.2729 O   0  0  0  0  0  0  0  0  0  0  0  0
   10.7461  -18.7267   25.5924 N   0  0  0  0  0  0  0  0  0  0  0  0
   10.3126  -18.1129   26.8731 C   0  0  1  0  0  0  0  0  0  0  0  0
    8.8180  -18.2900   26.9054 C   0  0  0  0  0  0  0  0  0  0  0  0
    8.1729  -17.4949   25.8497 C   0  0  0  0  0  0  0  0  0  0  0  0
    8.6250  -16.2218   25.4980 C   0  0  0  0  0  0  0  0  0  0  0  0
    7.8105  -15.7925   24.5054 N   0  0  0  0  0  0  0  0  0  0  0  0
    6.8964  -16.7140   24.2297 C   0  0  0  0  0  0  0  0  0  0  0  0
    7.1433  -17.7326   25.0610 N   0  0  0  0  0  0  0  0  0  0  0  0
   10.9437  -18.9134   27.9521 C   0  0  0  0  0  0  0  0  0  0  0  0
   10.7070  -18.7191   29.1832 O   0  0  0  0  0  0  0  0  0  0  0  0
   11.8390  -19.9349   27.6910 O   0  0  0  0  0  0  0  0  0  0  0  0
  2  1  1  0
  2 12  2  0
  3  2  1  0
  4  3  2  0
  4  5  1  0
  5  6  1  0
  5 11  2  0
  7  6  1  0
  7  8  1  6
  9 18  1  0
  9  7  1  0
 10  9  2  0
 11 12  1  0
 13 14  1  0
 14 16  1  0
 14 15  2  0
 17 16  1  1
 17 18  1  0
 19 17  1  0
 19 21  1  0
 20 19  2  0
 22 21  1  0
 22 23  1  1
 22 29  1  0
 24 23  1  0
 24 28  1  0
 25 24  2  0
 26 25  1  0
 26 27  1  0
 27 28  2  0
 29 30  2  0
 29 31  1  0
M  END
$$$$
