YNH.pdb
     RDKit          3D

 31 32  0  0  1  0  0  0  0  0999 V2000
   22.7958  -12.8146   14.3720 O   0  0  0  0  0  0  0  0  0  0  0  0
   21.5913  -12.8433   15.0490 C   0  0  0  0  0  0  0  0  0  0  0  0
   20.9326  -11.6595   15.3116 C   0  0  0  0  0  0  0  0  0  0  0  0
   19.7492  -11.6988   15.9777 C   0  0  0  0  0  0  0  0  0  0  0  0
   19.1810  -12.8758   16.4015 C   0  0  0  0  0  0  0  0  0  0  0  0
   17.9062  -12.8567   17.1122 C   0  0  0  0  0  0  0  0  0  0  0  0
   16.6968  -12.9594   16.1907 C   0  0  2  0  0  0  0  0  0  0  0  0
   16.6350  -11.8209   15.2914 N   0  0  0  0  0  0  0  0  0  0  0  0
   15.4977  -13.0484   17.0499 C   0  0  0  0  0  0  0  0  0  0  0  0
   14.9513  -11.9840   17.4279 O   0  0  0  0  0  0  0  0  0  0  0  0
   19.8162  -14.0648   16.1526 C   0  0  0  0  0  0  0  0  0  0  0  0
   21.0215  -14.0274   15.4744 C   0  0  0  0  0  0  0  0  0  0  0  0
   10.4345  -14.5661   18.1046 N   0  0  0  0  0  0  0  0  0  0  0  0
   11.5087  -15.5099   18.1901 C   0  0  0  0  0  0  0  0  0  0  0  0
   11.3221  -16.5441   18.8792 O   0  0  0  0  0  0  0  0  0  0  0  0
   12.7636  -15.2344   17.4797 C   0  0  0  0  0  0  0  0  0  0  0  0
   13.7878  -14.4839   18.2379 C   0  0  2  0  0  0  0  0  0  0  0  0
   15.0079  -14.3205   17.4156 N   0  0  0  0  0  0  0  0  0  0  0  0
   14.1865  -15.1362   19.4956 C   0  0  0  0  0  0  0  0  0  0  0  0
   13.3528  -15.2274   20.4639 O   0  0  0  0  0  0  0  0  0  0  0  0
   15.4560  -15.6895   19.7128 N   0  0  0  0  0  0  0  0  0  0  0  0
   15.7367  -16.3441   21.0158 C   0  0  1  0  0  0  0  0  0  0  0  0
   16.5252  -17.5791   20.6711 C   0  0  0  0  0  0  0  0  0  0  0  0
   15.6362  -18.6589   20.2164 C   0  0  0  0  0  0  0  0  0  0  0  0
   14.2502  -18.5931   20.3689 C   0  0  0  0  0  0  0  0  0  0  0  0
   13.7576  -19.7402   19.8449 N   0  0  0  0  0  0  0  0  0  0  0  0
   14.7457  -20.4973   19.3853 C   0  0  0  0  0  0  0  0  0  0  0  0
   15.8705  -19.8140   19.6253 N   0  0  0  0  0  0  0  0  0  0  0  0
   16.5837  -15.3967   21.7827 C   0  0  0  0  0  0  0  0  0  0  0  0
   17.0982  -14.3583   21.2664 O   0  0  0  0  0  0  0  0  0  0  0  0
   16.8734  -15.5784   23.1230 O   0  0  0  0  0  0  0  0  0  0  0  0
  2  1  1  0
  2 12  2  0
  3  2  1  0
  4  3  2  0
  4  5  1  0
  5  6  1  0
  5 11  2  0
  7  6  1  0
  7  8  1  6
  9 18  1  0
  9  7  1  0
 10  9  2  0
 11 12  1  0
 13 14  1  0
 14 16  1  0
 14 15  2  0
 17 16  1  6
 17 18  1  0
 19 17  1  0
 19 21  1  0
 20 19  2  0
 22 21  1  0
 22 23  1  6
 22 29  1  0
 24 23  1  0
 24 28  1  0
 25 24  2  0
 26 25  1  0
 26 27  1  0
 27 28  2  0
 29 30  2  0
 29 31  1  0
M  END
$$$$
