YNH.pdb
     RDKit          3D

 31 32  0  0  1  0  0  0  0  0999 V2000
    7.4569  -13.2541   15.3208 O   0  0  0  0  0  0  0  0  0  0  0  0
    7.4711  -13.6711   16.6383 C   0  0  0  0  0  0  0  0  0  0  0  0
    7.1067  -14.9666   16.9437 C   0  0  0  0  0  0  0  0  0  0  0  0
    7.1242  -15.3664   18.2419 C   0  0  0  0  0  0  0  0  0  0  0  0
    7.4917  -14.5278   19.2662 C   0  0  0  0  0  0  0  0  0  0  0  0
    7.4924  -15.0133   20.6428 C   0  0  0  0  0  0  0  0  0  0  0  0
    8.8683  -14.9784   21.2971 C   0  0  2  0  0  0  0  0  0  0  0  0
    9.9045  -15.3199   20.3387 N   0  0  0  0  0  0  0  0  0  0  0  0
    8.8367  -15.9221   22.4340 C   0  0  0  0  0  0  0  0  0  0  0  0
    7.8423  -15.9054   23.1988 O   0  0  0  0  0  0  0  0  0  0  0  0
    7.8577  -13.2362   18.9883 C   0  0  0  0  0  0  0  0  0  0  0  0
    7.8408  -12.8267   17.6669 C   0  0  0  0  0  0  0  0  0  0  0  0
   12.7149  -18.5083   21.6645 N   0  0  0  0  0  0  0  0  0  0  0  0
   12.2804  -18.2952   23.0128 C   0  0  0  0  0  0  0  0  0  0  0  0
   13.0442  -17.6527   23.7764 O   0  0  0  0  0  0  0  0  0  0  0  0
   10.9806  -18.8276   23.4399 C   0  0  0  0  0  0  0  0  0  0  0  0
    9.9212  -17.8277   23.6944 C   0  0  2  0  0  0  0  0  0  0  0  0
    9.9199  -16.8073   22.6219 N   0  0  0  0  0  0  0  0  0  0  0  0
   10.0727  -17.1209   24.9765 C   0  0  0  0  0  0  0  0  0  0  0  0
   10.9663  -16.2124   25.1072 O   0  0  0  0  0  0  0  0  0  0  0  0
    9.2757  -17.3764   26.1010 N   0  0  0  0  0  0  0  0  0  0  0  0
    9.5273  -16.6058   27.3451 C   0  0  1  0  0  0  0  0  0  0  0  0
    8.1777  -16.0859   27.7626 C   0  0  0  0  0  0  0  0  0  0  0  0
    7.7992  -14.9098   26.9649 C   0  0  0  0  0  0  0  0  0  0  0  0
    8.6795  -14.3102   26.0625 C   0  0  0  0  0  0  0  0  0  0  0  0
    8.0073  -13.2718   25.5122 N   0  0  0  0  0  0  0  0  0  0  0  0
    6.7819  -13.1985   26.0161 C   0  0  0  0  0  0  0  0  0  0  0  0
    6.6874  -14.2045   26.8928 N   0  0  0  0  0  0  0  0  0  0  0  0
   10.0283  -17.5823   28.3445 C   0  0  0  0  0  0  0  0  0  0  0  0
   10.1326  -18.8235   28.1037 O   0  0  0  0  0  0  0  0  0  0  0  0
   10.4206  -17.2066   29.6166 O   0  0  0  0  0  0  0  0  0  0  0  0
  2  1  1  0
  2 12  2  0
  3  2  1  0
  4  3  2  0
  4  5  1  0
  5  6  1  0
  5 11  2  0
  7  6  1  0
  7  8  1  6
  9 18  1  0
  9  7  1  0
 10  9  2  0
 11 12  1  0
 13 14  1  0
 14 16  1  0
 14 15  2  0
 17 16  1  6
 17 18  1  0
 19 17  1  0
 19 21  1  0
 20 19  2  0
 22 21  1  0
 22 23  1  1
 22 29  1  0
 24 23  1  0
 24 28  1  0
 25 24  2  0
 26 25  1  0
 26 27  1  0
 27 28  2  0
 29 30  2  0
 29 31  1  0
M  END
$$$$
