YNH.pdb
     RDKit          3D

 31 32  0  0  1  0  0  0  0  0999 V2000
    6.8526  -12.7582   15.7441 O   0  0  0  0  0  0  0  0  0  0  0  0
    7.1015  -13.1863   17.0343 C   0  0  0  0  0  0  0  0  0  0  0  0
    8.0722  -14.1417   17.2565 C   0  0  0  0  0  0  0  0  0  0  0  0
    8.3090  -14.5556   18.5286 C   0  0  0  0  0  0  0  0  0  0  0  0
    7.6170  -14.0580   19.6062 C   0  0  0  0  0  0  0  0  0  0  0  0
    7.9156  -14.5398   20.9513 C   0  0  0  0  0  0  0  0  0  0  0  0
    8.1077  -16.0497   21.0256 C   0  0  2  0  0  0  0  0  0  0  0  0
    7.0058  -16.7426   20.3816 N   0  0  0  0  0  0  0  0  0  0  0  0
    8.2230  -16.4069   22.4550 C   0  0  0  0  0  0  0  0  0  0  0  0
    8.2671  -15.4822   23.3017 O   0  0  0  0  0  0  0  0  0  0  0  0
    6.6479  -13.1082   19.4111 C   0  0  0  0  0  0  0  0  0  0  0  0
    6.4049  -12.6851   18.1166 C   0  0  0  0  0  0  0  0  0  0  0  0
    5.9673  -18.2489   22.9760 N   0  0  0  0  0  0  0  0  0  0  0  0
    6.2601  -19.2729   23.9340 C   0  0  0  0  0  0  0  0  0  0  0  0
    5.3514  -20.0992   24.1996 O   0  0  0  0  0  0  0  0  0  0  0  0
    7.5894  -19.3142   24.5558 C   0  0  0  0  0  0  0  0  0  0  0  0
    8.4983  -18.1969   24.2201 C   0  0  2  0  0  0  0  0  0  0  0  0
    8.2790  -17.7692   22.8200 N   0  0  0  0  0  0  0  0  0  0  0  0
    9.9241  -18.5336   24.3612 C   0  0  0  0  0  0  0  0  0  0  0  0
   10.5889  -18.9498   23.3484 O   0  0  0  0  0  0  0  0  0  0  0  0
   10.6314  -18.4201   25.5662 N   0  0  0  0  0  0  0  0  0  0  0  0
   12.1044  -18.2392   25.5157 C   0  0  1  0  0  0  0  0  0  0  0  0
   12.3084  -16.8165   25.0680 C   0  0  0  0  0  0  0  0  0  0  0  0
   12.7433  -16.7658   23.6641 C   0  0  0  0  0  0  0  0  0  0  0  0
   12.9478  -17.9214   22.9080 C   0  0  0  0  0  0  0  0  0  0  0  0
   13.3360  -17.5053   21.6795 N   0  0  0  0  0  0  0  0  0  0  0  0
   13.3817  -16.1798   21.6361 C   0  0  0  0  0  0  0  0  0  0  0  0
   13.0171  -15.7624   22.8536 N   0  0  0  0  0  0  0  0  0  0  0  0
   12.5919  -18.4101   26.9072 C   0  0  0  0  0  0  0  0  0  0  0  0
   11.8228  -18.3817   27.9157 O   0  0  0  0  0  0  0  0  0  0  0  0
   13.9270  -18.6149   27.2056 O   0  0  0  0  0  0  0  0  0  0  0  0
  2  1  1  0
  2 12  2  0
  3  2  1  0
  4  3  2  0
  4  5  1  0
  5  6  1  0
  5 11  2  0
  7  6  1  0
  7  8  1  1
  9 18  1  0
  9  7  1  0
 10  9  2  0
 11 12  1  0
 13 14  1  0
 14 16  1  0
 14 15  2  0
 17 16  1  6
 17 18  1  0
 19 17  1  0
 19 21  1  0
 20 19  2  0
 22 21  1  0
 22 23  1  1
 22 29  1  0
 24 23  1  0
 24 28  1  0
 25 24  2  0
 26 25  1  0
 26 27  1  0
 27 28  2  0
 29 30  2  0
 29 31  1  0
M  END
$$$$
