NHD.pdb
     RDKit          3D

 27 27  0  0  1  0  0  0  0  0999 V2000
   28.6492  -10.5157  -16.8029 N   0  0  0  0  0  0  0  0  0  0  0  0
   27.5207  -11.0075  -16.1254 C   0  0  0  0  0  0  0  0  0  0  0  0
   27.6206  -12.0708  -15.4423 O   0  0  0  0  0  0  0  0  0  0  0  0
   26.2498  -10.2601  -16.2407 C   0  0  0  0  0  0  0  0  0  0  0  0
   25.0376  -11.1831  -16.2765 C   0  0  2  0  0  0  0  0  0  0  0  0
   24.9919  -11.8411  -17.5984 N   0  0  0  0  0  0  0  0  0  0  0  0
   23.8493  -10.3004  -16.2061 C   0  0  0  0  0  0  0  0  0  0  0  0
   23.4962   -9.6140  -17.2141 O   0  0  0  0  0  0  0  0  0  0  0  0
   23.0552  -10.1716  -15.0374 N   0  0  0  0  0  0  0  0  0  0  0  0
   21.8978   -9.2757  -15.0776 C   0  0  1  0  0  0  0  0  0  0  0  0
   20.9091   -9.8911  -14.0746 C   0  0  0  0  0  0  0  0  0  0  0  0
   20.1490  -10.9986  -14.6789 C   0  0  0  0  0  0  0  0  0  0  0  0
   20.1972  -11.4354  -15.9663 C   0  0  0  0  0  0  0  0  0  0  0  0
   19.3448  -12.4619  -16.0680 N   0  0  0  0  0  0  0  0  0  0  0  0
   18.7781  -12.6560  -14.8568 C   0  0  0  0  0  0  0  0  0  0  0  0
   19.2755  -11.7472  -13.9890 N   0  0  0  0  0  0  0  0  0  0  0  0
   22.2489   -7.9098  -14.6788 C   0  0  0  0  0  0  0  0  0  0  0  0
   23.3246   -7.6949  -14.0632 O   0  0  0  0  0  0  0  0  0  0  0  0
   21.3963   -6.8325  -14.9760 N   0  0  0  0  0  0  0  0  0  0  0  0
   21.7286   -5.4480  -14.7964 C   0  0  1  0  0  0  0  0  0  0  0  0
   23.0435   -5.0431  -15.4831 C   0  0  0  0  0  0  0  0  0  0  0  0
   23.3556   -3.6278  -15.3168 C   0  0  0  0  0  0  0  0  0  0  0  0
   23.1798   -2.8139  -16.2640 O   0  0  0  0  0  0  0  0  0  0  0  0
   20.6341   -4.5257  -15.1467 C   0  0  0  0  0  0  0  0  0  0  0  0
   20.6070   -3.3806  -14.6361 O   0  0  0  0  0  0  0  0  0  0  0  0
   23.8546   -3.1116  -14.1178 O   0  0  0  0  0  0  0  0  0  0  0  0
   19.6255   -4.8709  -16.0245 O   0  0  0  0  0  0  0  0  0  0  0  0
  2  3  2  0
  2  1  1  0
  4  2  1  0
  5  4  1  0
  5  7  1  0
  5  6  1  6
  7  8  2  0
  9 10  1  0
  9  7  1  0
 11 12  1  0
 10 11  1  1
 12 16  1  0
 13 14  1  0
 13 12  2  0
 14 15  1  0
 15 16  2  0
 17 10  1  0
 17 18  2  0
 19 17  1  0
 20 19  1  0
 20 24  1  0
 20 21  1  6
 22 23  2  0
 22 21  1  0
 24 25  2  0
 24 27  1  0
 26 22  1  0
M  END
$$$$
