NHD.pdb
     RDKit          3D

 27 27  0  0  1  0  0  0  0  0999 V2000
   28.1388  -17.5245  -16.1904 N   0  0  0  0  0  0  0  0  0  0  0  0
   27.1449  -16.9951  -17.0308 C   0  0  0  0  0  0  0  0  0  0  0  0
   27.3680  -15.9122  -17.6512 O   0  0  0  0  0  0  0  0  0  0  0  0
   25.8659  -17.7269  -17.1557 C   0  0  0  0  0  0  0  0  0  0  0  0
   25.8811  -19.0504  -16.4003 C   0  0  2  0  0  0  0  0  0  0  0  0
   26.7280  -20.0033  -17.1469 N   0  0  0  0  0  0  0  0  0  0  0  0
   24.4973  -19.5764  -16.4690 C   0  0  0  0  0  0  0  0  0  0  0  0
   24.0456  -20.0615  -17.5519 O   0  0  0  0  0  0  0  0  0  0  0  0
   23.6158  -19.5690  -15.3573 N   0  0  0  0  0  0  0  0  0  0  0  0
   22.2698  -20.1181  -15.5327 C   0  0  1  0  0  0  0  0  0  0  0  0
   22.4133  -21.5991  -15.1475 C   0  0  0  0  0  0  0  0  0  0  0  0
   21.1232  -22.3047  -15.2329 C   0  0  0  0  0  0  0  0  0  0  0  0
   20.5894  -22.9341  -16.3144 C   0  0  0  0  0  0  0  0  0  0  0  0
   19.4082  -23.4367  -15.9365 N   0  0  0  0  0  0  0  0  0  0  0  0
   19.2164  -23.1212  -14.6366 C   0  0  0  0  0  0  0  0  0  0  0  0
   20.2813  -22.4163  -14.1946 N   0  0  0  0  0  0  0  0  0  0  0  0
   21.2913  -19.4555  -14.6659 C   0  0  0  0  0  0  0  0  0  0  0  0
   21.6860  -18.7247  -13.7212 O   0  0  0  0  0  0  0  0  0  0  0  0
   19.9120  -19.6267  -14.8766 N   0  0  0  0  0  0  0  0  0  0  0  0
   18.8905  -18.7466  -14.3853 C   0  0  1  0  0  0  0  0  0  0  0  0
   19.1349  -17.2708  -14.7414 C   0  0  0  0  0  0  0  0  0  0  0  0
   18.3953  -16.3522  -13.8827 C   0  0  0  0  0  0  0  0  0  0  0  0
   17.8668  -16.7565  -12.8114 O   0  0  0  0  0  0  0  0  0  0  0  0
   17.5242  -19.1661  -14.7442 C   0  0  0  0  0  0  0  0  0  0  0  0
   17.1777  -19.1686  -15.9494 O   0  0  0  0  0  0  0  0  0  0  0  0
   18.2405  -14.9997  -14.1986 O   0  0  0  0  0  0  0  0  0  0  0  0
   16.5980  -19.5627  -13.7998 O   0  0  0  0  0  0  0  0  0  0  0  0
  2  3  2  0
  2  1  1  0
  4  2  1  0
  5  4  1  0
  5  7  1  0
  5  6  1  6
  7  8  2  0
  9 10  1  0
  9  7  1  0
 11 12  1  0
 10 11  1  1
 12 16  1  0
 13 14  1  0
 13 12  2  0
 14 15  1  0
 15 16  2  0
 17 10  1  0
 17 18  2  0
 19 17  1  0
 20 19  1  0
 20 24  1  0
 20 21  1  6
 22 23  2  0
 22 21  1  0
 24 25  2  0
 24 27  1  0
 26 22  1  0
M  END
$$$$
