NHD.pdb
     RDKit          3D

 27 27  0  0  1  0  0  0  0  0999 V2000
   28.2010  -21.0162   -9.8312 N   0  0  0  0  0  0  0  0  0  0  0  0
   28.5264  -20.9719  -11.1974 C   0  0  0  0  0  0  0  0  0  0  0  0
   29.7327  -21.1297  -11.5542 O   0  0  0  0  0  0  0  0  0  0  0  0
   27.4395  -20.7373  -12.1723 C   0  0  0  0  0  0  0  0  0  0  0  0
   26.0869  -20.5489  -11.4959 C   0  0  2  0  0  0  0  0  0  0  0  0
   25.7713  -21.7756  -10.7356 N   0  0  0  0  0  0  0  0  0  0  0  0
   25.0906  -20.4655  -12.5898 C   0  0  0  0  0  0  0  0  0  0  0  0
   25.1952  -19.5764  -13.4900 O   0  0  0  0  0  0  0  0  0  0  0  0
   23.9871  -21.3512  -12.6938 N   0  0  0  0  0  0  0  0  0  0  0  0
   23.0763  -21.1978  -13.8301 C   0  0  1  0  0  0  0  0  0  0  0  0
   22.9058  -22.6257  -14.3725 C   0  0  0  0  0  0  0  0  0  0  0  0
   24.1494  -23.1193  -14.9886 C   0  0  0  0  0  0  0  0  0  0  0  0
   24.8389  -24.2505  -14.6791 C   0  0  0  0  0  0  0  0  0  0  0  0
   25.9009  -24.3011  -15.4915 N   0  0  0  0  0  0  0  0  0  0  0  0
   25.8662  -23.2138  -16.2930 C   0  0  0  0  0  0  0  0  0  0  0  0
   24.7777  -22.4751  -15.9833 N   0  0  0  0  0  0  0  0  0  0  0  0
   21.7811  -20.6462  -13.4226 C   0  0  0  0  0  0  0  0  0  0  0  0
   21.2871  -20.9655  -12.3106 O   0  0  0  0  0  0  0  0  0  0  0  0
   21.0804  -19.7620  -14.2612 N   0  0  0  0  0  0  0  0  0  0  0  0
   19.7825  -19.2181  -13.9802 C   0  0  1  0  0  0  0  0  0  0  0  0
   19.4040  -18.0412  -14.8947 C   0  0  0  0  0  0  0  0  0  0  0  0
   19.4192  -18.3971  -16.3094 C   0  0  0  0  0  0  0  0  0  0  0  0
   19.8750  -19.5103  -16.6885 O   0  0  0  0  0  0  0  0  0  0  0  0
   18.7124  -20.2304  -13.9378 C   0  0  0  0  0  0  0  0  0  0  0  0
   17.6158  -19.9447  -13.4006 O   0  0  0  0  0  0  0  0  0  0  0  0
   18.9350  -17.5367  -17.2984 O   0  0  0  0  0  0  0  0  0  0  0  0
   18.8659  -21.4947  -14.4715 O   0  0  0  0  0  0  0  0  0  0  0  0
  2  3  2  0
  2  1  1  0
  4  2  1  0
  5  4  1  0
  5  7  1  0
  5  6  1  1
  7  8  2  0
  9 10  1  0
  9  7  1  0
 11 12  1  0
 10 11  1  1
 12 16  1  0
 13 14  1  0
 13 12  2  0
 14 15  1  0
 15 16  2  0
 17 10  1  0
 17 18  2  0
 19 17  1  0
 20 19  1  0
 20 24  1  0
 20 21  1  6
 22 23  2  0
 22 21  1  0
 24 25  2  0
 24 27  1  0
 26 22  1  0
M  END
$$$$
