NHD.pdb
     RDKit          3D

 27 27  0  0  1  0  0  0  0  0999 V2000
   20.3367  -13.3748  -19.0625 N   0  0  0  0  0  0  0  0  0  0  0  0
   19.5800  -12.4141  -18.3705 C   0  0  0  0  0  0  0  0  0  0  0  0
   18.3415  -12.3029  -18.6178 O   0  0  0  0  0  0  0  0  0  0  0  0
   20.2656  -11.5616  -17.3755 C   0  0  0  0  0  0  0  0  0  0  0  0
   21.7654  -11.8268  -17.3227 C   0  0  2  0  0  0  0  0  0  0  0  0
   21.9903  -13.0855  -16.5827 N   0  0  0  0  0  0  0  0  0  0  0  0
   22.3434  -10.7435  -16.4929 C   0  0  0  0  0  0  0  0  0  0  0  0
   22.0848  -10.6752  -15.2517 O   0  0  0  0  0  0  0  0  0  0  0  0
   23.1980   -9.7422  -17.0220 N   0  0  0  0  0  0  0  0  0  0  0  0
   23.6625   -8.6798  -16.1277 C   0  0  1  0  0  0  0  0  0  0  0  0
   25.1536   -8.5260  -16.4670 C   0  0  0  0  0  0  0  0  0  0  0  0
   25.9315   -9.6922  -16.0148 C   0  0  0  0  0  0  0  0  0  0  0  0
   25.4643  -10.8256  -15.4249 C   0  0  0  0  0  0  0  0  0  0  0  0
   26.5203  -11.6126  -15.1884 N   0  0  0  0  0  0  0  0  0  0  0  0
   27.6258  -10.9718  -15.6280 C   0  0  0  0  0  0  0  0  0  0  0  0
   27.2641   -9.7758  -16.1429 N   0  0  0  0  0  0  0  0  0  0  0  0
   22.9514   -7.4195  -16.3595 C   0  0  0  0  0  0  0  0  0  0  0  0
   22.5833   -7.1137  -17.5229 O   0  0  0  0  0  0  0  0  0  0  0  0
   22.6742   -6.5442  -15.2951 N   0  0  0  0  0  0  0  0  0  0  0  0
   21.8781   -5.3544  -15.3960 C   0  0  1  0  0  0  0  0  0  0  0  0
   21.0064   -5.0977  -14.1556 C   0  0  0  0  0  0  0  0  0  0  0  0
   20.1279   -3.9434  -14.3111 C   0  0  0  0  0  0  0  0  0  0  0  0
   20.5340   -2.7827  -14.0310 O   0  0  0  0  0  0  0  0  0  0  0  0
   22.6496   -4.1551  -15.7673 C   0  0  0  0  0  0  0  0  0  0  0  0
   23.8175   -4.0154  -15.3323 O   0  0  0  0  0  0  0  0  0  0  0  0
   18.8146   -4.0646  -14.7732 O   0  0  0  0  0  0  0  0  0  0  0  0
   22.1369   -3.1669  -16.5844 O   0  0  0  0  0  0  0  0  0  0  0  0
  2  3  2  0
  2  1  1  0
  4  2  1  0
  5  4  1  0
  5  7  1  0
  5  6  1  1
  7  8  2  0
  9 10  1  0
  9  7  1  0
 11 12  1  0
 10 11  1  6
 12 16  1  0
 13 14  1  0
 13 12  2  0
 14 15  1  0
 15 16  2  0
 17 10  1  0
 17 18  2  0
 19 17  1  0
 20 19  1  0
 20 24  1  0
 20 21  1  1
 22 23  2  0
 22 21  1  0
 24 25  2  0
 24 27  1  0
 26 22  1  0
M  END
$$$$
