NHD.pdb
     RDKit          3D

 27 27  0  0  1  0  0  0  0  0999 V2000
   19.4483  -16.9079  -13.5595 N   0  0  0  0  0  0  0  0  0  0  0  0
   19.1296  -15.8006  -14.3638 C   0  0  0  0  0  0  0  0  0  0  0  0
   17.9620  -15.6995  -14.8471 O   0  0  0  0  0  0  0  0  0  0  0  0
   20.1796  -14.7911  -14.6192 C   0  0  0  0  0  0  0  0  0  0  0  0
   20.0578  -14.1682  -16.0048 C   0  0  2  0  0  0  0  0  0  0  0  0
   20.4936  -15.1655  -17.0038 N   0  0  0  0  0  0  0  0  0  0  0  0
   21.0513  -13.0695  -16.0481 C   0  0  0  0  0  0  0  0  0  0  0  0
   21.9117  -12.9422  -15.1232 O   0  0  0  0  0  0  0  0  0  0  0  0
   21.0990  -12.1169  -17.0985 N   0  0  0  0  0  0  0  0  0  0  0  0
   22.0936  -11.0451  -17.0215 C   0  0  1  0  0  0  0  0  0  0  0  0
   22.5241  -10.8242  -18.4803 C   0  0  0  0  0  0  0  0  0  0  0  0
   23.4915  -11.8456  -18.9165 C   0  0  0  0  0  0  0  0  0  0  0  0
   24.0542  -12.8320  -18.1674 C   0  0  0  0  0  0  0  0  0  0  0  0
   24.8679  -13.5248  -18.9725 N   0  0  0  0  0  0  0  0  0  0  0  0
   24.8071  -12.9723  -20.2041 C   0  0  0  0  0  0  0  0  0  0  0  0
   23.9517  -11.9264  -20.1739 N   0  0  0  0  0  0  0  0  0  0  0  0
   21.5293   -9.8140  -16.4615 C   0  0  0  0  0  0  0  0  0  0  0  0
   20.2962   -9.5875  -16.5648 O   0  0  0  0  0  0  0  0  0  0  0  0
   22.3506   -8.8789  -15.8081 N   0  0  0  0  0  0  0  0  0  0  0  0
   21.8848   -7.6814  -15.1690 C   0  0  1  0  0  0  0  0  0  0  0  0
   22.9504   -7.0058  -14.2901 C   0  0  0  0  0  0  0  0  0  0  0  0
   22.4486   -5.8201  -13.6042 C   0  0  0  0  0  0  0  0  0  0  0  0
   22.5277   -4.6826  -14.1431 O   0  0  0  0  0  0  0  0  0  0  0  0
   21.2643   -6.7182  -16.0957 C   0  0  0  0  0  0  0  0  0  0  0  0
   21.8504   -6.4286  -17.1659 O   0  0  0  0  0  0  0  0  0  0  0  0
   21.8626   -5.8854  -12.3371 O   0  0  0  0  0  0  0  0  0  0  0  0
   20.0501   -6.1144  -15.8346 O   0  0  0  0  0  0  0  0  0  0  0  0
  2  3  2  0
  2  1  1  0
  4  2  1  0
  5  4  1  0
  5  7  1  0
  5  6  1  6
  7  8  2  0
  9 10  1  0
  9  7  1  0
 11 12  1  0
 10 11  1  6
 12 16  1  0
 13 14  1  0
 13 12  2  0
 14 15  1  0
 15 16  2  0
 17 10  1  0
 17 18  2  0
 19 17  1  0
 20 19  1  0
 20 24  1  0
 20 21  1  6
 22 23  2  0
 22 21  1  0
 24 25  2  0
 24 27  1  0
 26 22  1  0
M  END
$$$$
