NHD.pdb
     RDKit          3D

 27 27  0  0  1  0  0  0  0  0999 V2000
   27.3010  -10.2781  -19.7056 N   0  0  0  0  0  0  0  0  0  0  0  0
   26.8410   -8.9504  -19.7169 C   0  0  0  0  0  0  0  0  0  0  0  0
   27.6688   -8.0078  -19.9001 O   0  0  0  0  0  0  0  0  0  0  0  0
   25.3978   -8.7040  -19.5091 C   0  0  0  0  0  0  0  0  0  0  0  0
   24.6291   -9.9861  -19.2128 C   0  0  2  0  0  0  0  0  0  0  0  0
   24.2692  -10.6209  -20.4974 N   0  0  0  0  0  0  0  0  0  0  0  0
   23.3562   -9.5635  -18.5827 C   0  0  0  0  0  0  0  0  0  0  0  0
   22.5193   -8.8611  -19.2295 O   0  0  0  0  0  0  0  0  0  0  0  0
   23.0051   -9.9086  -17.2521 N   0  0  0  0  0  0  0  0  0  0  0  0
   21.7005   -9.4807  -16.7431 C   0  0  1  0  0  0  0  0  0  0  0  0
   21.2103  -10.6753  -15.9095 C   0  0  0  0  0  0  0  0  0  0  0  0
   19.8535  -10.4446  -15.3847 C   0  0  0  0  0  0  0  0  0  0  0  0
   19.0267   -9.3969  -15.6484 C   0  0  0  0  0  0  0  0  0  0  0  0
   17.8973   -9.6015  -14.9605 N   0  0  0  0  0  0  0  0  0  0  0  0
   18.0262  -10.7623  -14.2810 C   0  0  0  0  0  0  0  0  0  0  0  0
   19.2425  -11.2905  -14.5418 N   0  0  0  0  0  0  0  0  0  0  0  0
   21.8057   -8.2813  -15.9076 C   0  0  0  0  0  0  0  0  0  0  0  0
   22.8363   -8.0921  -15.2116 O   0  0  0  0  0  0  0  0  0  0  0  0
   20.7660   -7.3358  -15.8731 N   0  0  0  0  0  0  0  0  0  0  0  0
   20.7807   -6.1265  -15.1004 C   0  0  1  0  0  0  0  0  0  0  0  0
   22.0989   -5.3437  -15.2190 C   0  0  0  0  0  0  0  0  0  0  0  0
   22.0898   -4.1021  -14.4532 C   0  0  0  0  0  0  0  0  0  0  0  0
   21.2417   -3.9158  -13.5385 O   0  0  0  0  0  0  0  0  0  0  0  0
   19.6162   -5.2560  -15.3403 C   0  0  0  0  0  0  0  0  0  0  0  0
   19.0861   -5.2363  -16.4767 O   0  0  0  0  0  0  0  0  0  0  0  0
   23.0074   -3.0750  -14.6899 O   0  0  0  0  0  0  0  0  0  0  0  0
   19.0756   -4.4523  -14.3560 O   0  0  0  0  0  0  0  0  0  0  0  0
  2  3  2  0
  2  1  1  0
  4  2  1  0
  5  4  1  0
  5  7  1  0
  5  6  1  6
  7  8  2  0
  9 10  1  0
  9  7  1  0
 11 12  1  0
 10 11  1  1
 12 16  1  0
 13 14  1  0
 13 12  2  0
 14 15  1  0
 15 16  2  0
 17 10  1  0
 17 18  2  0
 19 17  1  0
 20 19  1  0
 20 24  1  0
 20 21  1  6
 22 23  2  0
 22 21  1  0
 24 25  2  0
 24 27  1  0
 26 22  1  0
M  END
$$$$
