NHD.pdb
     RDKit          3D

 27 27  0  0  1  0  0  0  0  0999 V2000
   23.7539   -9.4064  -20.4208 N   0  0  0  0  0  0  0  0  0  0  0  0
   23.3286   -8.0672  -20.4218 C   0  0  0  0  0  0  0  0  0  0  0  0
   23.8134   -7.2621  -21.2728 O   0  0  0  0  0  0  0  0  0  0  0  0
   22.3266   -7.6464  -19.4189 C   0  0  0  0  0  0  0  0  0  0  0  0
   21.9647   -8.7710  -18.4563 C   0  0  2  0  0  0  0  0  0  0  0  0
   20.9912   -9.6599  -19.1232 N   0  0  0  0  0  0  0  0  0  0  0  0
   21.2446   -8.1301  -17.3307 C   0  0  0  0  0  0  0  0  0  0  0  0
   20.0755   -7.6634  -17.4962 O   0  0  0  0  0  0  0  0  0  0  0  0
   21.8045   -8.0014  -16.0334 N   0  0  0  0  0  0  0  0  0  0  0  0
   21.0368   -7.2867  -15.0117 C   0  0  1  0  0  0  0  0  0  0  0  0
   21.0228   -8.2455  -13.8106 C   0  0  0  0  0  0  0  0  0  0  0  0
   20.1269   -9.3906  -14.0466 C   0  0  0  0  0  0  0  0  0  0  0  0
   20.4736  -10.6625  -14.3824 C   0  0  0  0  0  0  0  0  0  0  0  0
   19.3404  -11.3656  -14.4921 N   0  0  0  0  0  0  0  0  0  0  0  0
   18.3069  -10.5366  -14.2263 C   0  0  0  0  0  0  0  0  0  0  0  0
   18.7917   -9.3061  -13.9488 N   0  0  0  0  0  0  0  0  0  0  0  0
   21.6655   -6.0147  -14.6449 C   0  0  0  0  0  0  0  0  0  0  0  0
   22.8560   -5.9994  -14.2388 O   0  0  0  0  0  0  0  0  0  0  0  0
   20.9531   -4.8066  -14.7408 N   0  0  0  0  0  0  0  0  0  0  0  0
   21.5414   -3.4991  -14.6803 C   0  0  1  0  0  0  0  0  0  0  0  0
   22.7181   -3.3148  -15.6529 C   0  0  0  0  0  0  0  0  0  0  0  0
   23.2842   -1.9710  -15.6070 C   0  0  0  0  0  0  0  0  0  0  0  0
   22.6727   -0.9966  -16.1240 O   0  0  0  0  0  0  0  0  0  0  0  0
   20.5642   -2.4033  -14.8067 C   0  0  0  0  0  0  0  0  0  0  0  0
   19.6071   -2.5216  -15.6083 O   0  0  0  0  0  0  0  0  0  0  0  0
   24.5115   -1.7010  -14.9956 O   0  0  0  0  0  0  0  0  0  0  0  0
   20.6567   -1.2385  -14.0708 O   0  0  0  0  0  0  0  0  0  0  0  0
  2  3  2  0
  2  1  1  0
  4  2  1  0
  5  4  1  0
  5  7  1  0
  5  6  1  6
  7  8  2  0
  9 10  1  0
  9  7  1  0
 11 12  1  0
 10 11  1  1
 12 16  1  0
 13 14  1  0
 13 12  2  0
 14 15  1  0
 15 16  2  0
 17 10  1  0
 17 18  2  0
 19 17  1  0
 20 19  1  0
 20 24  1  0
 20 21  1  6
 22 23  2  0
 22 21  1  0
 24 25  2  0
 24 27  1  0
 26 22  1  0
M  END
$$$$
