NHD.pdb
     RDKit          3D

 27 27  0  0  1  0  0  0  0  0999 V2000
   19.9636  -38.4872  -13.9416 N   0  0  0  0  0  0  0  0  0  0  0  0
   21.0999  -37.7434  -13.5809 C   0  0  0  0  0  0  0  0  0  0  0  0
   21.7711  -38.0892  -12.5625 O   0  0  0  0  0  0  0  0  0  0  0  0
   21.4680  -36.5748  -14.4091 C   0  0  0  0  0  0  0  0  0  0  0  0
   22.9581  -36.5375  -14.7264 C   0  0  2  0  0  0  0  0  0  0  0  0
   23.3440  -37.8409  -15.3050 N   0  0  0  0  0  0  0  0  0  0  0  0
   23.6519  -36.4364  -13.4208 C   0  0  0  0  0  0  0  0  0  0  0  0
   24.5421  -37.2818  -13.0972 O   0  0  0  0  0  0  0  0  0  0  0  0
   23.3696  -35.4152  -12.4770 N   0  0  0  0  0  0  0  0  0  0  0  0
   24.2498  -35.2789  -11.3149 C   0  0  1  0  0  0  0  0  0  0  0  0
   24.1311  -33.7974  -10.9233 C   0  0  0  0  0  0  0  0  0  0  0  0
   25.0452  -33.4577   -9.8193 C   0  0  0  0  0  0  0  0  0  0  0  0
   26.0129  -34.2403   -9.2700 C   0  0  0  0  0  0  0  0  0  0  0  0
   26.5962  -33.5261   -8.3005 N   0  0  0  0  0  0  0  0  0  0  0  0
   25.9954  -32.3167   -8.2531 C   0  0  0  0  0  0  0  0  0  0  0  0
   25.0290  -32.2698   -9.1966 N   0  0  0  0  0  0  0  0  0  0  0  0
   23.8278  -36.1379  -10.2050 C   0  0  0  0  0  0  0  0  0  0  0  0
   22.6056  -36.3790  -10.0302 O   0  0  0  0  0  0  0  0  0  0  0  0
   24.7742  -36.6981   -9.3295 N   0  0  0  0  0  0  0  0  0  0  0  0
   24.4761  -37.6483   -8.2962 C   0  0  1  0  0  0  0  0  0  0  0  0
   25.6795  -38.5227   -7.9068 C   0  0  0  0  0  0  0  0  0  0  0  0
   25.3022  -39.8969   -7.5949 C   0  0  0  0  0  0  0  0  0  0  0  0
   24.0900  -40.2448   -7.5816 O   0  0  0  0  0  0  0  0  0  0  0  0
   23.8396  -37.0518   -7.1085 C   0  0  0  0  0  0  0  0  0  0  0  0
   24.2747  -35.9657   -6.6572 O   0  0  0  0  0  0  0  0  0  0  0  0
   26.2505  -40.8808   -7.3021 O   0  0  0  0  0  0  0  0  0  0  0  0
   22.7711  -37.6431   -6.4639 O   0  0  0  0  0  0  0  0  0  0  0  0
  2  3  2  0
  2  1  1  0
  4  2  1  0
  5  4  1  0
  5  7  1  0
  5  6  1  1
  7  8  2  0
  9 10  1  0
  9  7  1  0
 11 12  1  0
 10 11  1  1
 12 16  1  0
 13 14  1  0
 13 12  2  0
 14 15  1  0
 15 16  2  0
 17 10  1  0
 17 18  2  0
 19 17  1  0
 20 19  1  0
 20 24  1  0
 20 21  1  1
 22 23  2  0
 22 21  1  0
 24 25  2  0
 24 27  1  0
 26 22  1  0
M  END
$$$$
