NHD.pdb
     RDKit          3D

 27 27  0  0  1  0  0  0  0  0999 V2000
   15.2337  -15.4490  -15.7110 N   0  0  0  0  0  0  0  0  0  0  0  0
   16.3400  -15.4947  -14.8458 C   0  0  0  0  0  0  0  0  0  0  0  0
   16.4866  -16.4922  -14.0771 O   0  0  0  0  0  0  0  0  0  0  0  0
   17.2949  -14.3657  -14.8642 C   0  0  0  0  0  0  0  0  0  0  0  0
   16.9229  -13.3108  -15.8993 C   0  0  2  0  0  0  0  0  0  0  0  0
   17.3328  -13.8004  -17.2315 N   0  0  0  0  0  0  0  0  0  0  0  0
   17.7723  -12.1325  -15.6060 C   0  0  0  0  0  0  0  0  0  0  0  0
   17.6589  -11.5154  -14.5023 O   0  0  0  0  0  0  0  0  0  0  0  0
   18.7384  -11.6348  -16.5182 N   0  0  0  0  0  0  0  0  0  0  0  0
   19.5535  -10.4883  -16.1119 C   0  0  1  0  0  0  0  0  0  0  0  0
   20.8320  -10.6164  -16.9553 C   0  0  0  0  0  0  0  0  0  0  0  0
   21.7805   -9.5279  -16.6634 C   0  0  0  0  0  0  0  0  0  0  0  0
   22.3469   -9.2169  -15.4662 C   0  0  0  0  0  0  0  0  0  0  0  0
   23.1430   -8.1605  -15.6678 N   0  0  0  0  0  0  0  0  0  0  0  0
   23.0687   -7.8245  -16.9745 C   0  0  0  0  0  0  0  0  0  0  0  0
   22.2215   -8.6728  -17.5981 N   0  0  0  0  0  0  0  0  0  0  0  0
   18.8828   -9.2148  -16.3879 C   0  0  0  0  0  0  0  0  0  0  0  0
   18.1979   -9.0825  -17.4347 O   0  0  0  0  0  0  0  0  0  0  0  0
   18.9953   -8.1347  -15.4952 N   0  0  0  0  0  0  0  0  0  0  0  0
   18.4546   -6.8244  -15.7189 C   0  0  1  0  0  0  0  0  0  0  0  0
   17.2726   -6.4871  -14.7950 C   0  0  0  0  0  0  0  0  0  0  0  0
   16.6874   -5.1815  -15.0794 C   0  0  0  0  0  0  0  0  0  0  0  0
   16.7812   -4.6702  -16.2286 O   0  0  0  0  0  0  0  0  0  0  0  0
   19.4683   -5.7549  -15.7055 C   0  0  0  0  0  0  0  0  0  0  0  0
   20.3204   -5.7261  -14.7859 O   0  0  0  0  0  0  0  0  0  0  0  0
   16.0028   -4.4453  -14.1087 O   0  0  0  0  0  0  0  0  0  0  0  0
   19.5224   -4.7721  -16.6740 O   0  0  0  0  0  0  0  0  0  0  0  0
  2  3  2  0
  2  1  1  0
  4  2  1  0
  5  4  1  0
  5  7  1  0
  5  6  1  6
  7  8  2  0
  9 10  1  0
  9  7  1  0
 11 12  1  0
 10 11  1  6
 12 16  1  0
 13 14  1  0
 13 12  2  0
 14 15  1  0
 15 16  2  0
 17 10  1  0
 17 18  2  0
 19 17  1  0
 20 19  1  0
 20 24  1  0
 20 21  1  1
 22 23  2  0
 22 21  1  0
 24 25  2  0
 24 27  1  0
 26 22  1  0
M  END
$$$$
