NHD.pdb
     RDKit          3D

 27 27  0  0  1  0  0  0  0  0999 V2000
   25.9993  -23.9514  -15.6192 N   0  0  0  0  0  0  0  0  0  0  0  0
   24.8657  -23.5254  -16.3319 C   0  0  0  0  0  0  0  0  0  0  0  0
   24.9078  -23.4831  -17.5983 O   0  0  0  0  0  0  0  0  0  0  0  0
   23.6600  -23.1367  -15.5690 C   0  0  0  0  0  0  0  0  0  0  0  0
   23.0970  -21.7949  -16.0220 C   0  0  2  0  0  0  0  0  0  0  0  0
   24.0714  -20.7399  -15.6756 N   0  0  0  0  0  0  0  0  0  0  0  0
   21.8989  -21.5504  -15.1848 C   0  0  0  0  0  0  0  0  0  0  0  0
   21.8443  -21.9891  -13.9946 O   0  0  0  0  0  0  0  0  0  0  0  0
   20.7688  -20.8304  -15.6511 N   0  0  0  0  0  0  0  0  0  0  0  0
   19.6196  -20.6828  -14.7559 C   0  0  1  0  0  0  0  0  0  0  0  0
   19.0619  -19.2887  -15.0844 C   0  0  0  0  0  0  0  0  0  0  0  0
   19.7038  -18.2458  -14.2660 C   0  0  0  0  0  0  0  0  0  0  0  0
   20.6372  -18.4113  -13.2902 C   0  0  0  0  0  0  0  0  0  0  0  0
   20.9372  -17.1952  -12.8195 N   0  0  0  0  0  0  0  0  0  0  0  0
   20.1976  -16.2903  -13.4977 C   0  0  0  0  0  0  0  0  0  0  0  0
   19.4281  -16.9398  -14.3990 N   0  0  0  0  0  0  0  0  0  0  0  0
   18.6032  -21.7110  -14.9959 C   0  0  0  0  0  0  0  0  0  0  0  0
   18.4257  -22.1557  -16.1591 O   0  0  0  0  0  0  0  0  0  0  0  0
   17.8209  -22.2089  -13.9394 N   0  0  0  0  0  0  0  0  0  0  0  0
   16.7093  -23.1038  -14.0913 C   0  0  1  0  0  0  0  0  0  0  0  0
   16.2683  -23.7571  -12.7710 C   0  0  0  0  0  0  0  0  0  0  0  0
   15.2243  -24.7589  -12.9571 C   0  0  0  0  0  0  0  0  0  0  0  0
   15.2397  -25.5269  -13.9574 O   0  0  0  0  0  0  0  0  0  0  0  0
   15.5646  -22.5109  -14.8053 C   0  0  0  0  0  0  0  0  0  0  0  0
   15.2117  -21.3381  -14.5358 O   0  0  0  0  0  0  0  0  0  0  0  0
   14.1735  -24.9162  -12.0493 O   0  0  0  0  0  0  0  0  0  0  0  0
   14.8560  -23.1983  -15.7708 O   0  0  0  0  0  0  0  0  0  0  0  0
  2  3  2  0
  2  1  1  0
  4  2  1  0
  5  4  1  0
  5  7  1  0
  5  6  1  1
  7  8  2  0
  9 10  1  0
  9  7  1  0
 11 12  1  0
 10 11  1  6
 12 16  1  0
 13 14  1  0
 13 12  2  0
 14 15  1  0
 15 16  2  0
 17 10  1  0
 17 18  2  0
 19 17  1  0
 20 19  1  0
 20 24  1  0
 20 21  1  1
 22 23  2  0
 22 21  1  0
 24 25  2  0
 24 27  1  0
 26 22  1  0
M  END
$$$$
