NHD.pdb
     RDKit          3D

 27 27  0  0  1  0  0  0  0  0999 V2000
   22.0837  -11.4180  -21.0361 N   0  0  0  0  0  0  0  0  0  0  0  0
   21.9623  -11.8450  -19.7029 C   0  0  0  0  0  0  0  0  0  0  0  0
   22.7250  -12.7616  -19.2723 O   0  0  0  0  0  0  0  0  0  0  0  0
   20.9381  -11.2049  -18.8496 C   0  0  0  0  0  0  0  0  0  0  0  0
   21.5506  -10.2673  -17.8160 C   0  0  2  0  0  0  0  0  0  0  0  0
   22.3829  -11.0687  -16.8953 N   0  0  0  0  0  0  0  0  0  0  0  0
   20.4184   -9.7478  -17.0132 C   0  0  0  0  0  0  0  0  0  0  0  0
   19.4375   -9.1737  -17.5791 O   0  0  0  0  0  0  0  0  0  0  0  0
   20.3642   -9.8568  -15.5996 N   0  0  0  0  0  0  0  0  0  0  0  0
   19.2339   -9.2460  -14.8973 C   0  0  1  0  0  0  0  0  0  0  0  0
   19.1975   -9.9682  -13.5411 C   0  0  0  0  0  0  0  0  0  0  0  0
   18.0389   -9.5439  -12.7364 C   0  0  0  0  0  0  0  0  0  0  0  0
   17.0740   -8.6471  -13.0760 C   0  0  0  0  0  0  0  0  0  0  0  0
   16.2217   -8.5744  -12.0471 N   0  0  0  0  0  0  0  0  0  0  0  0
   16.6560   -9.4173  -11.0843 C   0  0  0  0  0  0  0  0  0  0  0  0
   17.7872  -10.0227  -11.5090 N   0  0  0  0  0  0  0  0  0  0  0  0
   19.4223   -7.8053  -14.7060 C   0  0  0  0  0  0  0  0  0  0  0  0
   20.4917   -7.3758  -14.2015 O   0  0  0  0  0  0  0  0  0  0  0  0
   18.4201   -6.8932  -15.0798 N   0  0  0  0  0  0  0  0  0  0  0  0
   18.5465   -5.4649  -15.0230 C   0  0  1  0  0  0  0  0  0  0  0  0
   18.7979   -4.8203  -16.3962 C   0  0  0  0  0  0  0  0  0  0  0  0
   18.9475   -3.3711  -16.3216 C   0  0  0  0  0  0  0  0  0  0  0  0
   19.6107   -2.8393  -15.3899 O   0  0  0  0  0  0  0  0  0  0  0  0
   17.4398   -4.7999  -14.3126 C   0  0  0  0  0  0  0  0  0  0  0  0
   17.5016   -3.5666  -14.0941 O   0  0  0  0  0  0  0  0  0  0  0  0
   18.3744   -2.5142  -17.2650 O   0  0  0  0  0  0  0  0  0  0  0  0
   16.3235   -5.4837  -13.8731 O   0  0  0  0  0  0  0  0  0  0  0  0
  2  3  2  0
  2  1  1  0
  4  2  1  0
  5  4  1  0
  5  7  1  0
  5  6  1  1
  7  8  2  0
  9 10  1  0
  9  7  1  0
 11 12  1  0
 10 11  1  1
 12 16  1  0
 13 14  1  0
 13 12  2  0
 14 15  1  0
 15 16  2  0
 17 10  1  0
 17 18  2  0
 19 17  1  0
 20 19  1  0
 20 24  1  0
 20 21  1  6
 22 23  2  0
 22 21  1  0
 24 25  2  0
 24 27  1  0
 26 22  1  0
M  END
$$$$
