NHD.pdb
     RDKit          3D

 27 27  0  0  1  0  0  0  0  0999 V2000
   25.0023  -18.0140  -17.5863 N   0  0  0  0  0  0  0  0  0  0  0  0
   25.4190  -19.3031  -17.2131 C   0  0  0  0  0  0  0  0  0  0  0  0
   26.6216  -19.6500  -17.4152 O   0  0  0  0  0  0  0  0  0  0  0  0
   24.4283  -20.2122  -16.5977 C   0  0  0  0  0  0  0  0  0  0  0  0
   23.0610  -19.5572  -16.4422 C   0  0  2  0  0  0  0  0  0  0  0  0
   23.2588  -18.1744  -15.9615 N   0  0  0  0  0  0  0  0  0  0  0  0
   22.3794  -20.2881  -15.3480 C   0  0  0  0  0  0  0  0  0  0  0  0
   22.1692  -21.5368  -15.4406 O   0  0  0  0  0  0  0  0  0  0  0  0
   21.9311  -19.6525  -14.1614 N   0  0  0  0  0  0  0  0  0  0  0  0
   21.2313  -20.4606  -13.1607 C   0  0  1  0  0  0  0  0  0  0  0  0
   21.9104  -20.0884  -11.8331 C   0  0  0  0  0  0  0  0  0  0  0  0
   23.2115  -20.7631  -11.6864 C   0  0  0  0  0  0  0  0  0  0  0  0
   23.8246  -21.5898  -12.5759 C   0  0  0  0  0  0  0  0  0  0  0  0
   24.9861  -21.9675  -12.0293 N   0  0  0  0  0  0  0  0  0  0  0  0
   25.0880  -21.3797  -10.8168 C   0  0  0  0  0  0  0  0  0  0  0  0
   23.9854  -20.6293  -10.5990 N   0  0  0  0  0  0  0  0  0  0  0  0
   19.8001  -20.1493  -13.1094 C   0  0  0  0  0  0  0  0  0  0  0  0
   19.4135  -18.9598  -13.2430 O   0  0  0  0  0  0  0  0  0  0  0  0
   18.8499  -21.1662  -12.9117 N   0  0  0  0  0  0  0  0  0  0  0  0
   17.5099  -21.1493  -13.4249 C   0  0  1  0  0  0  0  0  0  0  0  0
   17.4343  -20.7952  -14.9194 C   0  0  0  0  0  0  0  0  0  0  0  0
   16.0660  -20.7633  -15.4242 C   0  0  0  0  0  0  0  0  0  0  0  0
   15.0901  -20.6508  -14.6332 O   0  0  0  0  0  0  0  0  0  0  0  0
   16.7447  -22.3721  -13.1239 C   0  0  0  0  0  0  0  0  0  0  0  0
   17.1156  -23.4661  -13.6120 O   0  0  0  0  0  0  0  0  0  0  0  0
   15.7736  -20.8522  -16.7879 O   0  0  0  0  0  0  0  0  0  0  0  0
   15.6242  -22.3661  -12.3167 O   0  0  0  0  0  0  0  0  0  0  0  0
  2  3  2  0
  2  1  1  0
  4  2  1  0
  5  4  1  0
  5  7  1  0
  5  6  1  1
  7  8  2  0
  9 10  1  0
  9  7  1  0
 11 12  1  0
 10 11  1  1
 12 16  1  0
 13 14  1  0
 13 12  2  0
 14 15  1  0
 15 16  2  0
 17 10  1  0
 17 18  2  0
 19 17  1  0
 20 19  1  0
 20 24  1  0
 20 21  1  6
 22 23  2  0
 22 21  1  0
 24 25  2  0
 24 27  1  0
 26 22  1  0
M  END
$$$$
