FWV.pdb
     RDKit          3D

 33 35  0  0  1  0  0  0  0  0999 V2000
   25.2052  -18.4862  -18.8531 N   0  0  0  0  0  0  0  0  0  0  0  0
   25.1464  -17.7319  -17.6364 C   0  0  1  0  0  0  0  0  0  0  0  0
   23.7989  -17.0030  -17.5857 C   0  0  0  0  0  0  0  0  0  0  0  0
   23.8947  -15.8541  -18.5145 C   0  0  0  0  0  0  0  0  0  0  0  0
   23.3343  -15.9682  -19.7557 C   0  0  0  0  0  0  0  0  0  0  0  0
   23.4212  -14.9098  -20.6152 C   0  0  0  0  0  0  0  0  0  0  0  0
   24.0505  -13.7439  -20.2708 C   0  0  0  0  0  0  0  0  0  0  0  0
   24.6118  -13.6250  -19.0327 C   0  0  0  0  0  0  0  0  0  0  0  0
   24.5267  -14.6914  -18.1604 C   0  0  0  0  0  0  0  0  0  0  0  0
   25.2063  -18.6848  -16.5038 C   0  0  0  0  0  0  0  0  0  0  0  0
   24.5743  -19.7618  -16.5942 O   0  0  0  0  0  0  0  0  0  0  0  0
   25.9192  -18.4889  -15.3170 N   0  0  0  0  0  0  0  0  0  0  0  0
   25.9587  -19.3796  -14.2162 C   0  0  1  0  0  0  0  0  0  0  0  0
   26.9723  -19.1233  -13.1622 C   0  0  0  0  0  0  0  0  0  0  0  0
   26.9836  -20.2197  -12.1297 C   0  0  0  0  0  0  0  0  0  0  0  0
   27.3463  -21.5390  -12.2732 C   0  0  0  0  0  0  0  0  0  0  0  0
   27.2081  -22.1851  -11.0918 N   0  0  0  0  0  0  0  0  0  0  0  0
   26.7606  -21.3241  -10.1619 C   0  0  0  0  0  0  0  0  0  0  0  0
   26.4543  -21.4517   -8.8224 C   0  0  0  0  0  0  0  0  0  0  0  0
   26.0007  -20.3891   -8.0672 C   0  0  0  0  0  0  0  0  0  0  0  0
   25.8543  -19.1682   -8.6843 C   0  0  0  0  0  0  0  0  0  0  0  0
   26.1656  -19.0528  -10.0313 C   0  0  0  0  0  0  0  0  0  0  0  0
   26.6177  -20.1040  -10.7923 C   0  0  0  0  0  0  0  0  0  0  0  0
   24.6008  -19.3902  -13.6068 C   0  0  0  0  0  0  0  0  0  0  0  0
   23.9378  -18.3432  -13.3967 O   0  0  0  0  0  0  0  0  0  0  0  0
   21.3608  -20.7133  -14.6545 C   0  0  0  0  0  0  0  0  0  0  0  0
   21.6665  -21.4027  -13.3302 C   0  0  2  0  0  0  0  0  0  0  0  0
   20.3575  -21.3652  -12.5445 C   0  0  0  0  0  0  0  0  0  0  0  0
   22.7005  -20.6637  -12.5491 C   0  0  2  0  0  0  0  0  0  0  0  0
   23.9838  -20.6175  -13.2282 N   0  0  0  0  0  0  0  0  0  0  0  0
   22.8214  -21.2681  -11.2044 C   0  0  0  0  0  0  0  0  0  0  0  0
   23.8302  -22.1510  -10.9072 O   0  0  0  0  0  0  0  0  0  0  0  0
   22.0024  -20.9981  -10.2747 O   0  0  0  0  0  0  0  0  0  0  0  0
  2  1  1  6
  2  3  1  0
  3  4  1  0
  4  5  2  0
  4  9  1  0
  5  6  1  0
  6  7  2  0
  8  7  1  0
  9  8  2  0
 10 12  1  0
 10  2  1  0
 11 10  2  0
 13 12  1  0
 13 14  1  1
 15 14  1  0
 15 16  2  0
 17 16  1  0
 18 23  2  0
 18 17  1  0
 19 18  1  0
 20 21  1  0
 20 19  2  0
 21 22  2  0
 22 23  1  0
 23 15  1  0
 24 13  1  0
 25 24  2  0
 27 26  1  6
 27 29  1  0
 27 28  1  0
 29 30  1  6
 30 24  1  0
 31 32  1  0
 31 29  1  0
 33 31  2  0
M  END
$$$$
