FWV.pdb
     RDKit          3D

 33 35  0  0  1  0  0  0  0  0999 V2000
   27.7314  -20.2959  -14.8438 N   0  0  0  0  0  0  0  0  0  0  0  0
   27.3534  -19.2360  -13.9569 C   0  0  1  0  0  0  0  0  0  0  0  0
   26.1170  -18.5399  -14.5370 C   0  0  0  0  0  0  0  0  0  0  0  0
   26.5887  -17.6696  -15.6378 C   0  0  0  0  0  0  0  0  0  0  0  0
   26.2399  -17.9899  -16.9197 C   0  0  0  0  0  0  0  0  0  0  0  0
   26.6738  -17.1888  -17.9379 C   0  0  0  0  0  0  0  0  0  0  0  0
   27.4441  -16.0799  -17.7121 C   0  0  0  0  0  0  0  0  0  0  0  0
   27.7951  -15.7558  -16.4339 C   0  0  0  0  0  0  0  0  0  0  0  0
   27.3593  -16.5619  -15.4015 C   0  0  0  0  0  0  0  0  0  0  0  0
   26.9841  -19.8384  -12.6549 C   0  0  0  0  0  0  0  0  0  0  0  0
   26.4223  -20.9574  -12.6515 O   0  0  0  0  0  0  0  0  0  0  0  0
   27.2099  -19.2607  -11.4018 N   0  0  0  0  0  0  0  0  0  0  0  0
   26.8613  -19.8284  -10.1516 C   0  0  1  0  0  0  0  0  0  0  0  0
   27.5289  -19.2859   -8.9416 C   0  0  0  0  0  0  0  0  0  0  0  0
   27.3504  -20.1987   -7.7572 C   0  0  0  0  0  0  0  0  0  0  0  0
   26.9857  -21.5251   -7.7348 C   0  0  0  0  0  0  0  0  0  0  0  0
   26.9420  -21.9686   -6.4567 N   0  0  0  0  0  0  0  0  0  0  0  0
   27.2703  -20.9654   -5.6247 C   0  0  0  0  0  0  0  0  0  0  0  0
   27.3809  -20.8710   -4.2524 C   0  0  0  0  0  0  0  0  0  0  0  0
   27.7436  -19.6974   -3.6228 C   0  0  0  0  0  0  0  0  0  0  0  0
   28.0002  -18.5934   -4.4027 C   0  0  0  0  0  0  0  0  0  0  0  0
   27.8855  -18.7012   -5.7811 C   0  0  0  0  0  0  0  0  0  0  0  0
   27.5253  -19.8645   -6.4180 C   0  0  0  0  0  0  0  0  0  0  0  0
   25.3858  -19.7004  -10.0038 C   0  0  0  0  0  0  0  0  0  0  0  0
   24.7922  -18.5925  -10.0063 O   0  0  0  0  0  0  0  0  0  0  0  0
   22.7321  -22.6255  -11.3116 C   0  0  0  0  0  0  0  0  0  0  0  0
   22.3872  -21.1961  -10.9110 C   0  0  2  0  0  0  0  0  0  0  0  0
   22.8547  -20.3268  -12.0763 C   0  0  0  0  0  0  0  0  0  0  0  0
   23.1270  -20.7724   -9.6869 C   0  0  2  0  0  0  0  0  0  0  0  0
   24.5679  -20.8570   -9.8497 N   0  0  0  0  0  0  0  0  0  0  0  0
   22.6645  -21.5757   -8.5341 C   0  0  0  0  0  0  0  0  0  0  0  0
   21.3760  -21.4802   -8.0692 O   0  0  0  0  0  0  0  0  0  0  0  0
   23.4346  -22.3817   -7.9297 O   0  0  0  0  0  0  0  0  0  0  0  0
  2  1  1  6
  2  3  1  0
  3  4  1  0
  4  5  2  0
  4  9  1  0
  5  6  1  0
  6  7  2  0
  8  7  1  0
  9  8  2  0
 10 12  1  0
 10  2  1  0
 11 10  2  0
 13 12  1  0
 13 14  1  1
 15 14  1  0
 15 16  2  0
 17 16  1  0
 18 23  2  0
 18 17  1  0
 19 18  1  0
 20 21  1  0
 20 19  2  0
 21 22  2  0
 22 23  1  0
 23 15  1  0
 24 13  1  0
 25 24  2  0
 27 26  1  6
 27 29  1  0
 27 28  1  0
 29 30  1  6
 30 24  1  0
 31 32  1  0
 31 29  1  0
 33 31  2  0
M  END
$$$$
