FWV.pdb
     RDKit          3D

 33 35  0  0  1  0  0  0  0  0999 V2000
   25.1673  -21.1742  -14.4531 N   0  0  0  0  0  0  0  0  0  0  0  0
   24.7352  -20.1139  -13.5917 C   0  0  1  0  0  0  0  0  0  0  0  0
   23.2590  -19.8246  -13.8865 C   0  0  0  0  0  0  0  0  0  0  0  0
   23.2075  -19.1365  -15.1963 C   0  0  0  0  0  0  0  0  0  0  0  0
   23.7324  -17.8786  -15.2952 C   0  0  0  0  0  0  0  0  0  0  0  0
   23.6863  -17.2409  -16.5025 C   0  0  0  0  0  0  0  0  0  0  0  0
   23.1320  -17.8227  -17.6108 C   0  0  0  0  0  0  0  0  0  0  0  0
   22.6065  -19.0785  -17.5173 C   0  0  0  0  0  0  0  0  0  0  0  0
   22.6506  -19.7273  -16.2997 C   0  0  0  0  0  0  0  0  0  0  0  0
   24.8496  -20.5858  -12.1922 C   0  0  0  0  0  0  0  0  0  0  0  0
   24.3893  -21.7133  -11.9016 O   0  0  0  0  0  0  0  0  0  0  0  0
   25.4373  -19.8732  -11.1425 N   0  0  0  0  0  0  0  0  0  0  0  0
   25.5258  -20.3027   -9.7955 C   0  0  1  0  0  0  0  0  0  0  0  0
   26.4947  -19.6032   -8.9145 C   0  0  0  0  0  0  0  0  0  0  0  0
   26.5940  -20.2677   -7.5667 C   0  0  0  0  0  0  0  0  0  0  0  0
   25.8812  -21.3368   -7.0749 C   0  0  0  0  0  0  0  0  0  0  0  0
   26.2835  -21.6165   -5.8132 N   0  0  0  0  0  0  0  0  0  0  0  0
   27.2509  -20.7561   -5.4520 C   0  0  0  0  0  0  0  0  0  0  0  0
   27.9944  -20.5961   -4.3006 C   0  0  0  0  0  0  0  0  0  0  0  0
   28.9525  -19.6105   -4.1749 C   0  0  0  0  0  0  0  0  0  0  0  0
   29.1620  -18.7672   -5.2416 C   0  0  0  0  0  0  0  0  0  0  0  0
   28.4081  -18.9385   -6.3936 C   0  0  0  0  0  0  0  0  0  0  0  0
   27.4519  -19.9162   -6.5292 C   0  0  0  0  0  0  0  0  0  0  0  0
   24.1612  -20.2042   -9.2092 C   0  0  0  0  0  0  0  0  0  0  0  0
   23.5472  -19.1144   -9.0863 O   0  0  0  0  0  0  0  0  0  0  0  0
   21.3870  -23.0643   -9.7802 C   0  0  0  0  0  0  0  0  0  0  0  0
   21.0871  -21.7145   -9.1395 C   0  0  2  0  0  0  0  0  0  0  0  0
   21.0879  -20.7121  -10.2916 C   0  0  0  0  0  0  0  0  0  0  0  0
   22.1502  -21.3143   -8.1724 C   0  0  2  0  0  0  0  0  0  0  0  0
   23.4806  -21.3699   -8.7529 N   0  0  0  0  0  0  0  0  0  0  0  0
   22.0522  -22.1586   -6.9619 C   0  0  0  0  0  0  0  0  0  0  0  0
   23.0849  -22.9785   -6.5786 O   0  0  0  0  0  0  0  0  0  0  0  0
   21.0158  -22.1612   -6.2313 O   0  0  0  0  0  0  0  0  0  0  0  0
  2  1  1  6
  2  3  1  0
  3  4  1  0
  4  5  2  0
  4  9  1  0
  5  6  1  0
  6  7  2  0
  8  7  1  0
  9  8  2  0
 10 12  1  0
 10  2  1  0
 11 10  2  0
 13 12  1  0
 13 14  1  1
 15 14  1  0
 15 16  2  0
 17 16  1  0
 18 23  2  0
 18 17  1  0
 19 18  1  0
 20 21  1  0
 20 19  2  0
 21 22  2  0
 22 23  1  0
 23 15  1  0
 24 13  1  0
 25 24  2  0
 27 26  1  6
 27 29  1  0
 27 28  1  0
 29 30  1  6
 30 24  1  0
 31 32  1  0
 31 29  1  0
 33 31  2  0
M  END
$$$$
