FWV.pdb
     RDKit          3D

 33 35  0  0  1  0  0  0  0  0999 V2000
   28.0547  -21.4140  -15.1102 N   0  0  0  0  0  0  0  0  0  0  0  0
   27.6566  -20.2843  -14.3241 C   0  0  1  0  0  0  0  0  0  0  0  0
   26.5139  -19.5683  -15.0532 C   0  0  0  0  0  0  0  0  0  0  0  0
   27.1185  -18.4454  -15.8048 C   0  0  0  0  0  0  0  0  0  0  0  0
   27.3946  -18.6203  -17.1318 C   0  0  0  0  0  0  0  0  0  0  0  0
   27.9528  -17.5859  -17.8283 C   0  0  0  0  0  0  0  0  0  0  0  0
   28.2422  -16.3851  -17.2382 C   0  0  0  0  0  0  0  0  0  0  0  0
   27.9686  -16.2054  -15.9135 C   0  0  0  0  0  0  0  0  0  0  0  0
   27.4045  -17.2473  -15.2052 C   0  0  0  0  0  0  0  0  0  0  0  0
   27.1435  -20.7863  -13.0283 C   0  0  0  0  0  0  0  0  0  0  0  0
   26.4220  -21.8096  -13.0266 O   0  0  0  0  0  0  0  0  0  0  0  0
   27.3959  -20.2109  -11.7793 N   0  0  0  0  0  0  0  0  0  0  0  0
   26.9416  -20.7043  -10.5314 C   0  0  1  0  0  0  0  0  0  0  0  0
   27.8169  -20.4942   -9.3508 C   0  0  0  0  0  0  0  0  0  0  0  0
   27.0632  -20.6960   -8.0627 C   0  0  0  0  0  0  0  0  0  0  0  0
   25.8614  -21.3326   -7.8544 C   0  0  0  0  0  0  0  0  0  0  0  0
   25.5389  -21.2881   -6.5406 N   0  0  0  0  0  0  0  0  0  0  0  0
   26.5011  -20.6349   -5.8667 C   0  0  0  0  0  0  0  0  0  0  0  0
   26.6724  -20.3115   -4.5362 C   0  0  0  0  0  0  0  0  0  0  0  0
   27.7763  -19.6168   -4.0845 C   0  0  0  0  0  0  0  0  0  0  0  0
   28.7291  -19.2410   -5.0032 C   0  0  0  0  0  0  0  0  0  0  0  0
   28.5451  -19.5722   -6.3379 C   0  0  0  0  0  0  0  0  0  0  0  0
   27.4501  -20.2634   -6.7982 C   0  0  0  0  0  0  0  0  0  0  0  0
   25.6075  -20.0964  -10.2746 C   0  0  0  0  0  0  0  0  0  0  0  0
   25.4558  -18.8890   -9.9597 O   0  0  0  0  0  0  0  0  0  0  0  0
   22.3974  -21.7489  -12.3566 C   0  0  0  0  0  0  0  0  0  0  0  0
   22.5466  -20.3188  -11.8515 C   0  0  2  0  0  0  0  0  0  0  0  0
   23.5568  -19.6629  -12.7903 C   0  0  0  0  0  0  0  0  0  0  0  0
   23.1012  -20.2775  -10.4672 C   0  0  2  0  0  0  0  0  0  0  0  0
   24.4207  -20.8782  -10.3778 N   0  0  0  0  0  0  0  0  0  0  0  0
   22.1480  -20.9248   -9.5397 C   0  0  0  0  0  0  0  0  0  0  0  0
   20.8980  -20.4002   -9.3206 O   0  0  0  0  0  0  0  0  0  0  0  0
   22.4437  -21.9854   -8.9107 O   0  0  0  0  0  0  0  0  0  0  0  0
  2  1  1  6
  2  3  1  0
  3  4  1  0
  4  5  2  0
  4  9  1  0
  5  6  1  0
  6  7  2  0
  8  7  1  0
  9  8  2  0
 10 12  1  0
 10  2  1  0
 11 10  2  0
 13 12  1  0
 13 14  1  1
 15 14  1  0
 15 16  2  0
 17 16  1  0
 18 23  2  0
 18 17  1  0
 19 18  1  0
 20 21  1  0
 20 19  2  0
 21 22  2  0
 22 23  1  0
 23 15  1  0
 24 13  1  0
 25 24  2  0
 27 26  1  6
 27 29  1  0
 27 28  1  0
 29 30  1  6
 30 24  1  0
 31 32  1  0
 31 29  1  0
 33 31  2  0
M  END
$$$$
