FWV.pdb
     RDKit          3D

 33 35  0  0  1  0  0  0  0  0999 V2000
   27.2034  -18.7954   -8.6916 N   0  0  0  0  0  0  0  0  0  0  0  0
   26.8125  -20.1642   -8.8550 C   0  0  1  0  0  0  0  0  0  0  0  0
   26.1614  -20.6385   -7.5508 C   0  0  0  0  0  0  0  0  0  0  0  0
   27.1573  -20.4383   -6.4738 C   0  0  0  0  0  0  0  0  0  0  0  0
   28.3689  -21.0617   -6.5795 C   0  0  0  0  0  0  0  0  0  0  0  0
   29.2900  -20.8791   -5.5872 C   0  0  0  0  0  0  0  0  0  0  0  0
   29.0358  -20.0936   -4.4954 C   0  0  0  0  0  0  0  0  0  0  0  0
   27.8276  -19.4690   -4.3851 C   0  0  0  0  0  0  0  0  0  0  0  0
   26.8933  -19.6501   -5.3849 C   0  0  0  0  0  0  0  0  0  0  0  0
   25.7989  -20.2250   -9.9336 C   0  0  0  0  0  0  0  0  0  0  0  0
   24.9116  -19.3425   -9.9711 O   0  0  0  0  0  0  0  0  0  0  0  0
   25.7401  -21.1980  -10.9360 N   0  0  0  0  0  0  0  0  0  0  0  0
   25.1907  -21.0238  -12.2300 C   0  0  1  0  0  0  0  0  0  0  0  0
   25.9775  -21.5291  -13.3832 C   0  0  0  0  0  0  0  0  0  0  0  0
   27.1492  -20.6330  -13.6864 C   0  0  0  0  0  0  0  0  0  0  0  0
   28.4834  -20.8324  -13.4159 C   0  0  0  0  0  0  0  0  0  0  0  0
   29.2051  -19.7757  -13.8569 N   0  0  0  0  0  0  0  0  0  0  0  0
   28.3802  -18.8743  -14.4168 C   0  0  0  0  0  0  0  0  0  0  0  0
   28.5834  -17.6454  -15.0108 C   0  0  0  0  0  0  0  0  0  0  0  0
   27.5439  -16.8948  -15.5218 C   0  0  0  0  0  0  0  0  0  0  0  0
   26.2683  -17.4018  -15.4287 C   0  0  0  0  0  0  0  0  0  0  0  0
   26.0773  -18.6383  -14.8293 C   0  0  0  0  0  0  0  0  0  0  0  0
   27.1049  -19.3937  -14.3173 C   0  0  0  0  0  0  0  0  0  0  0  0
   23.8459  -21.6616  -12.2292 C   0  0  0  0  0  0  0  0  0  0  0  0
   23.6168  -22.7727  -11.6881 O   0  0  0  0  0  0  0  0  0  0  0  0
   20.7653  -19.8431  -11.0450 C   0  0  0  0  0  0  0  0  0  0  0  0
   20.3958  -20.4995  -12.3698 C   0  0  2  0  0  0  0  0  0  0  0  0
   19.0535  -21.1838  -12.1203 C   0  0  0  0  0  0  0  0  0  0  0  0
   21.3857  -21.5439  -12.7632 C   0  0  2  0  0  0  0  0  0  0  0  0
   22.7381  -21.0222  -12.8571 N   0  0  0  0  0  0  0  0  0  0  0  0
   20.9574  -22.1690  -14.0335 C   0  0  0  0  0  0  0  0  0  0  0  0
   20.4494  -23.4444  -14.0653 O   0  0  0  0  0  0  0  0  0  0  0  0
   21.0413  -21.5569  -15.1409 O   0  0  0  0  0  0  0  0  0  0  0  0
  2  1  1  1
  2  3  1  0
  3  4  1  0
  4  5  2  0
  4  9  1  0
  5  6  1  0
  6  7  2  0
  8  7  1  0
  9  8  2  0
 10 12  1  0
 10  2  1  0
 11 10  2  0
 13 12  1  0
 13 14  1  6
 15 14  1  0
 15 16  2  0
 17 16  1  0
 18 23  2  0
 18 17  1  0
 19 18  1  0
 20 21  1  0
 20 19  2  0
 21 22  2  0
 22 23  1  0
 23 15  1  0
 24 13  1  0
 25 24  2  0
 27 26  1  1
 27 29  1  0
 27 28  1  0
 29 30  1  6
 30 24  1  0
 31 32  1  0
 31 29  1  0
 33 31  2  0
M  END
$$$$
