FWV.pdb
     RDKit          3D

 33 35  0  0  1  0  0  0  0  0999 V2000
   25.9464  -19.2232  -14.8099 N   0  0  0  0  0  0  0  0  0  0  0  0
   26.9536  -19.1442  -13.7939 C   0  0  1  0  0  0  0  0  0  0  0  0
   27.5647  -17.7388  -13.8292 C   0  0  0  0  0  0  0  0  0  0  0  0
   28.3515  -17.6419  -15.0795 C   0  0  0  0  0  0  0  0  0  0  0  0
   27.9222  -16.7897  -16.0578 C   0  0  0  0  0  0  0  0  0  0  0  0
   28.6460  -16.6981  -17.2129 C   0  0  0  0  0  0  0  0  0  0  0  0
   29.7834  -17.4318  -17.4177 C   0  0  0  0  0  0  0  0  0  0  0  0
   30.2162  -18.2842  -16.4440 C   0  0  0  0  0  0  0  0  0  0  0  0
   29.4886  -18.3805  -15.2750 C   0  0  0  0  0  0  0  0  0  0  0  0
   26.2952  -19.3357  -12.4808 C   0  0  0  0  0  0  0  0  0  0  0  0
   25.4221  -18.5124  -12.1237 O   0  0  0  0  0  0  0  0  0  0  0  0
   26.5640  -20.3738  -11.5835 N   0  0  0  0  0  0  0  0  0  0  0  0
   25.8832  -20.6140  -10.3647 C   0  0  1  0  0  0  0  0  0  0  0  0
   24.9259  -21.7481  -10.3254 C   0  0  0  0  0  0  0  0  0  0  0  0
   23.6920  -21.4566  -11.1383 C   0  0  0  0  0  0  0  0  0  0  0  0
   23.4320  -21.7601  -12.4548 C   0  0  0  0  0  0  0  0  0  0  0  0
   22.1987  -21.3173  -12.7940 N   0  0  0  0  0  0  0  0  0  0  0  0
   21.6294  -20.7242  -11.7307 C   0  0  0  0  0  0  0  0  0  0  0  0
   20.4084  -20.1141  -11.5278 C   0  0  0  0  0  0  0  0  0  0  0  0
   20.0526  -19.5673  -10.3114 C   0  0  0  0  0  0  0  0  0  0  0  0
   20.9558  -19.6407   -9.2761 C   0  0  0  0  0  0  0  0  0  0  0  0
   22.1799  -20.2566   -9.4929 C   0  0  0  0  0  0  0  0  0  0  0  0
   22.5442  -20.8041  -10.6996 C   0  0  0  0  0  0  0  0  0  0  0  0
   26.9167  -20.8003   -9.3099 C   0  0  0  0  0  0  0  0  0  0  0  0
   28.1131  -21.0863   -9.5683 O   0  0  0  0  0  0  0  0  0  0  0  0
   29.7760  -19.9774   -5.9953 C   0  0  0  0  0  0  0  0  0  0  0  0
   28.6823  -19.7719   -7.0364 C   0  0  2  0  0  0  0  0  0  0  0  0
   28.1199  -18.3791   -6.7609 C   0  0  0  0  0  0  0  0  0  0  0  0
   27.5767  -20.7609   -6.8779 C   0  0  2  0  0  0  0  0  0  0  0  0
   26.5826  -20.6584   -7.9320 N   0  0  0  0  0  0  0  0  0  0  0  0
   26.9658  -20.6004   -5.5404 C   0  0  0  0  0  0  0  0  0  0  0  0
   27.6946  -20.8027   -4.3944 O   0  0  0  0  0  0  0  0  0  0  0  0
   25.7496  -20.2716   -5.3967 O   0  0  0  0  0  0  0  0  0  0  0  0
  2  1  1  6
  2  3  1  0
  3  4  1  0
  4  5  2  0
  4  9  1  0
  5  6  1  0
  6  7  2  0
  8  7  1  0
  9  8  2  0
 10 12  1  0
 10  2  1  0
 11 10  2  0
 13 12  1  0
 13 14  1  6
 15 14  1  0
 15 16  2  0
 17 16  1  0
 18 23  2  0
 18 17  1  0
 19 18  1  0
 20 21  1  0
 20 19  2  0
 21 22  2  0
 22 23  1  0
 23 15  1  0
 24 13  1  0
 25 24  2  0
 27 26  1  1
 27 29  1  0
 27 28  1  0
 29 30  1  6
 30 24  1  0
 31 32  1  0
 31 29  1  0
 33 31  2  0
M  END
$$$$
