FWV.pdb
     RDKit          3D

 33 35  0  0  1  0  0  0  0  0999 V2000
   27.1130  -22.0345  -11.3895 N   0  0  0  0  0  0  0  0  0  0  0  0
   26.3307  -21.1840  -10.5425 C   0  0  1  0  0  0  0  0  0  0  0  0
   27.0590  -19.8425  -10.4016 C   0  0  0  0  0  0  0  0  0  0  0  0
   27.8063  -19.8894   -9.1246 C   0  0  0  0  0  0  0  0  0  0  0  0
   29.1465  -20.1549   -9.1607 C   0  0  0  0  0  0  0  0  0  0  0  0
   29.8390  -20.1992   -7.9838 C   0  0  0  0  0  0  0  0  0  0  0  0
   29.2323  -19.9863   -6.7753 C   0  0  0  0  0  0  0  0  0  0  0  0
   27.8945  -19.7209   -6.7339 C   0  0  0  0  0  0  0  0  0  0  0  0
   27.1900  -19.6751   -7.9200 C   0  0  0  0  0  0  0  0  0  0  0  0
   25.0307  -20.9432  -11.2107 C   0  0  0  0  0  0  0  0  0  0  0  0
   24.8567  -21.4009  -12.3630 O   0  0  0  0  0  0  0  0  0  0  0  0
   23.9562  -20.2370  -10.6616 N   0  0  0  0  0  0  0  0  0  0  0  0
   22.5841  -20.5314  -10.8554 C   0  0  1  0  0  0  0  0  0  0  0  0
   21.6164  -19.9633   -9.8833 C   0  0  0  0  0  0  0  0  0  0  0  0
   20.2082  -20.4030  -10.1859 C   0  0  0  0  0  0  0  0  0  0  0  0
   19.2544  -19.7799  -10.9571 C   0  0  0  0  0  0  0  0  0  0  0  0
   18.1181  -20.5153  -10.9665 N   0  0  0  0  0  0  0  0  0  0  0  0
   18.2934  -21.6173  -10.2175 C   0  0  0  0  0  0  0  0  0  0  0  0
   17.4775  -22.6822   -9.8941 C   0  0  0  0  0  0  0  0  0  0  0  0
   17.9036  -23.7160   -9.0848 C   0  0  0  0  0  0  0  0  0  0  0  0
   19.1872  -23.6693   -8.5917 C   0  0  0  0  0  0  0  0  0  0  0  0
   19.9976  -22.5934   -8.9242 C   0  0  0  0  0  0  0  0  0  0  0  0
   19.5834  -21.5592   -9.7288 C   0  0  0  0  0  0  0  0  0  0  0  0
   22.2260  -20.0864  -12.2299 C   0  0  0  0  0  0  0  0  0  0  0  0
   22.5720  -18.9730  -12.6996 O   0  0  0  0  0  0  0  0  0  0  0  0
   21.3087  -21.0979  -16.8799 C   0  0  0  0  0  0  0  0  0  0  0  0
   21.6645  -21.5116  -15.4569 C   0  0  2  0  0  0  0  0  0  0  0  0
   20.9732  -22.8564  -15.2431 C   0  0  0  0  0  0  0  0  0  0  0  0
   21.1299  -20.5474  -14.4520 C   0  0  2  0  0  0  0  0  0  0  0  0
   21.4580  -20.9252  -13.0883 N   0  0  0  0  0  0  0  0  0  0  0  0
   19.6692  -20.4075  -14.6382 C   0  0  0  0  0  0  0  0  0  0  0  0
   18.7814  -20.9169  -13.7228 O   0  0  0  0  0  0  0  0  0  0  0  0
   19.1780  -19.8148  -15.6458 O   0  0  0  0  0  0  0  0  0  0  0  0
  2  1  1  6
  2  3  1  0
  3  4  1  0
  4  5  2  0
  4  9  1  0
  5  6  1  0
  6  7  2  0
  8  7  1  0
  9  8  2  0
 10 12  1  0
 10  2  1  0
 11 10  2  0
 13 12  1  0
 13 14  1  1
 15 14  1  0
 15 16  2  0
 17 16  1  0
 18 23  2  0
 18 17  1  0
 19 18  1  0
 20 21  1  0
 20 19  2  0
 21 22  2  0
 22 23  1  0
 23 15  1  0
 24 13  1  0
 25 24  2  0
 27 26  1  6
 27 29  1  0
 27 28  1  0
 29 30  1  1
 30 24  1  0
 31 32  1  0
 31 29  1  0
 33 31  2  0
M  END
$$$$
