FWV.pdb
     RDKit          3D

 33 35  0  0  1  0  0  0  0  0999 V2000
   28.2879  -21.3261  -15.8498 N   0  0  0  0  0  0  0  0  0  0  0  0
   28.0900  -20.4876  -14.7050 C   0  0  1  0  0  0  0  0  0  0  0  0
   27.5607  -19.1318  -15.1863 C   0  0  0  0  0  0  0  0  0  0  0  0
   28.6638  -18.4754  -15.9238 C   0  0  0  0  0  0  0  0  0  0  0  0
   28.6645  -18.5361  -17.2891 C   0  0  0  0  0  0  0  0  0  0  0  0
   29.6812  -17.9315  -17.9728 C   0  0  0  0  0  0  0  0  0  0  0  0
   30.6944  -17.2698  -17.3328 C   0  0  0  0  0  0  0  0  0  0  0  0
   30.6983  -17.2063  -15.9697 C   0  0  0  0  0  0  0  0  0  0  0  0
   29.6734  -17.8155  -15.2742 C   0  0  0  0  0  0  0  0  0  0  0  0
   27.0569  -21.1168  -13.8499 C   0  0  0  0  0  0  0  0  0  0  0  0
   26.1310  -21.7542  -14.4013 O   0  0  0  0  0  0  0  0  0  0  0  0
   27.0193  -21.0641  -12.4532 N   0  0  0  0  0  0  0  0  0  0  0  0
   26.0339  -21.6581  -11.6268 C   0  0  1  0  0  0  0  0  0  0  0  0
   26.3996  -21.9372  -10.2152 C   0  0  0  0  0  0  0  0  0  0  0  0
   26.6331  -20.6649   -9.4441 C   0  0  0  0  0  0  0  0  0  0  0  0
   26.1179  -19.4094   -9.6704 C   0  0  0  0  0  0  0  0  0  0  0  0
   26.5853  -18.5456   -8.7390 N   0  0  0  0  0  0  0  0  0  0  0  0
   27.4021  -19.1986   -7.8947 C   0  0  0  0  0  0  0  0  0  0  0  0
   28.1303  -18.8079   -6.7895 C   0  0  0  0  0  0  0  0  0  0  0  0
   28.9129  -19.6918   -6.0744 C   0  0  0  0  0  0  0  0  0  0  0  0
   28.9586  -21.0028   -6.4894 C   0  0  0  0  0  0  0  0  0  0  0  0
   28.2220  -21.3830   -7.6019 C   0  0  0  0  0  0  0  0  0  0  0  0
   27.4398  -20.5114   -8.3209 C   0  0  0  0  0  0  0  0  0  0  0  0
   24.8354  -20.7763  -11.6638 C   0  0  0  0  0  0  0  0  0  0  0  0
   24.9043  -19.5374  -11.8645 O   0  0  0  0  0  0  0  0  0  0  0  0
   22.2882  -22.1105  -14.0769 C   0  0  0  0  0  0  0  0  0  0  0  0
   22.3397  -20.6943  -13.5163 C   0  0  2  0  0  0  0  0  0  0  0  0
   23.6698  -20.1183  -13.9974 C   0  0  0  0  0  0  0  0  0  0  0  0
   22.3425  -20.6911  -12.0245 C   0  0  2  0  0  0  0  0  0  0  0  0
   23.5307  -21.3148  -11.4685 N   0  0  0  0  0  0  0  0  0  0  0  0
   21.1089  -21.3422  -11.5324 C   0  0  0  0  0  0  0  0  0  0  0  0
   21.1509  -22.5512  -10.8827 O   0  0  0  0  0  0  0  0  0  0  0  0
   19.9667  -20.8144  -11.6895 O   0  0  0  0  0  0  0  0  0  0  0  0
  2  1  1  6
  2  3  1  0
  3  4  1  0
  4  5  2  0
  4  9  1  0
  5  6  1  0
  6  7  2  0
  8  7  1  0
  9  8  2  0
 10 12  1  0
 10  2  1  0
 11 10  2  0
 13 12  1  0
 13 14  1  1
 15 14  1  0
 15 16  2  0
 17 16  1  0
 18 23  2  0
 18 17  1  0
 19 18  1  0
 20 21  1  0
 20 19  2  0
 21 22  2  0
 22 23  1  0
 23 15  1  0
 24 13  1  0
 25 24  2  0
 27 26  1  1
 27 29  1  0
 27 28  1  0
 29 30  1  1
 30 24  1  0
 31 32  1  0
 31 29  1  0
 33 31  2  0
M  END
$$$$
