WIH.pdb
     RDKit          3D

 33 35  0  0  1  0  0  0  0  0999 V2000
    9.8507  -15.7069   21.3134 N   0  0  0  0  0  0  0  0  0  0  0  0
    8.6620  -15.3218   22.0425 C   0  0  1  0  0  0  0  0  0  0  0  0
    7.4134  -16.0164   21.5738 C   0  0  0  0  0  0  0  0  0  0  0  0
    7.0863  -15.7390   20.1626 C   0  0  0  0  0  0  0  0  0  0  0  0
    6.5167  -16.5189   19.2009 C   0  0  0  0  0  0  0  0  0  0  0  0
    6.4153  -15.8384   18.0477 N   0  0  0  0  0  0  0  0  0  0  0  0
    6.9219  -14.6060   18.2574 C   0  0  0  0  0  0  0  0  0  0  0  0
    7.0708  -13.5049   17.4410 C   0  0  0  0  0  0  0  0  0  0  0  0
    7.6244  -12.3278   17.8813 C   0  0  0  0  0  0  0  0  0  0  0  0
    8.0523  -12.2324   19.1914 C   0  0  0  0  0  0  0  0  0  0  0  0
    7.9014  -13.3397   20.0079 C   0  0  0  0  0  0  0  0  0  0  0  0
    7.3460  -14.5211   19.5674 C   0  0  0  0  0  0  0  0  0  0  0  0
    8.8513  -15.4229   23.5080 C   0  0  0  0  0  0  0  0  0  0  0  0
    9.8304  -16.0561   23.9688 O   0  0  0  0  0  0  0  0  0  0  0  0
    6.0901  -11.6032   26.3304 C   0  0  0  0  0  0  0  0  0  0  0  0
    7.1946  -12.4977   25.7813 C   0  0  0  0  0  0  0  0  0  0  0  0
    7.3277  -13.7646   26.5559 C   0  0  2  0  0  0  0  0  0  0  0  0
    7.8186  -13.5380   27.9679 C   0  0  0  0  0  0  0  0  0  0  0  0
    8.2242  -14.7734   25.8799 C   0  0  2  0  0  0  0  0  0  0  0  0
    7.9642  -14.8282   24.4428 N   0  0  0  0  0  0  0  0  0  0  0  0
    8.1832  -16.1023   26.5185 C   0  0  0  0  0  0  0  0  0  0  0  0
    7.0794  -16.6575   26.6934 O   0  0  0  0  0  0  0  0  0  0  0  0
    9.3681  -16.7391   26.9295 N   0  0  0  0  0  0  0  0  0  0  0  0
    9.4046  -18.0808   27.5583 C   0  0  1  0  0  0  0  0  0  0  0  0
   10.0837  -19.0194   26.6048 C   0  0  0  0  0  0  0  0  0  0  0  0
   10.3601  -20.3469   27.1634 C   0  0  0  0  0  0  0  0  0  0  0  0
   10.0093  -20.7081   28.4828 C   0  0  0  0  0  0  0  0  0  0  0  0
   10.4017  -21.9765   28.6686 N   0  0  0  0  0  0  0  0  0  0  0  0
   10.9800  -22.4476   27.5529 C   0  0  0  0  0  0  0  0  0  0  0  0
   10.9375  -21.4411   26.6694 N   0  0  0  0  0  0  0  0  0  0  0  0
   10.0813  -17.9749   28.8572 C   0  0  0  0  0  0  0  0  0  0  0  0
   10.7137  -16.9545   29.1759 O   0  0  0  0  0  0  0  0  0  0  0  0
   10.0535  -19.0119   29.8038 O   0  0  0  0  0  0  0  0  0  0  0  0
  2  1  1  6
  2  3  1  0
  3  4  1  0
  4  5  2  0
  5  6  1  0
  7  6  1  0
  8  7  2  0
  9  8  1  0
 10 11  1  0
 10  9  2  0
 11 12  2  0
 12  4  1  0
 12  7  1  0
 13 20  1  0
 13  2  1  0
 14 13  2  0
 16 15  1  0
 17 19  1  0
 17 16  1  0
 17 18  1  1
 19 20  1  6
 21 19  1  0
 22 21  2  0
 23 21  1  0
 24 25  1  6
 24 23  1  0
 25 26  1  0
 26 27  2  0
 26 30  1  0
 27 28  1  0
 28 29  1  0
 30 29  2  0
 31 24  1  0
 32 31  2  0
 33 31  1  0
M  END
$$$$
