WIH.pdb
     RDKit          3D

 33 35  0  0  1  0  0  0  0  0999 V2000
    6.7507  -16.9672   25.4636 N   0  0  0  0  0  0  0  0  0  0  0  0
    7.3023  -15.8885   24.6730 C   0  0  1  0  0  0  0  0  0  0  0  0
    8.4800  -15.2090   25.3150 C   0  0  0  0  0  0  0  0  0  0  0  0
    8.1330  -14.4864   26.5531 C   0  0  0  0  0  0  0  0  0  0  0  0
    8.3987  -14.7631   27.8609 C   0  0  0  0  0  0  0  0  0  0  0  0
    7.8768  -13.8136   28.6542 N   0  0  0  0  0  0  0  0  0  0  0  0
    7.2663  -12.9109   27.8594 C   0  0  0  0  0  0  0  0  0  0  0  0
    6.5767  -11.7467   28.1247 C   0  0  0  0  0  0  0  0  0  0  0  0
    6.0306  -10.9689   27.1333 C   0  0  0  0  0  0  0  0  0  0  0  0
    6.1716  -11.3590   25.8156 C   0  0  0  0  0  0  0  0  0  0  0  0
    6.8643  -12.5281   25.5531 C   0  0  0  0  0  0  0  0  0  0  0  0
    7.4129  -13.3091   26.5468 C   0  0  0  0  0  0  0  0  0  0  0  0
    7.5786  -16.3057   23.2790 C   0  0  0  0  0  0  0  0  0  0  0  0
    7.7549  -17.5183   23.0135 O   0  0  0  0  0  0  0  0  0  0  0  0
    7.1466  -12.2955   19.7344 C   0  0  0  0  0  0  0  0  0  0  0  0
    7.1211  -13.7947   20.0056 C   0  0  0  0  0  0  0  0  0  0  0  0
    8.4925  -14.3645   20.1365 C   0  0  2  0  0  0  0  0  0  0  0  0
    9.1008  -14.7371   18.8034 C   0  0  0  0  0  0  0  0  0  0  0  0
    8.5440  -15.5634   21.0523 C   0  0  2  0  0  0  0  0  0  0  0  0
    7.6570  -15.3865   22.2003 N   0  0  0  0  0  0  0  0  0  0  0  0
    9.9171  -15.9331   21.4435 C   0  0  0  0  0  0  0  0  0  0  0  0
   10.2988  -15.7022   22.6090 O   0  0  0  0  0  0  0  0  0  0  0  0
   10.7903  -16.5352   20.5197 N   0  0  0  0  0  0  0  0  0  0  0  0
   11.7777  -17.5795   20.8821 C   0  0  1  0  0  0  0  0  0  0  0  0
   11.0359  -18.7111   21.5309 C   0  0  0  0  0  0  0  0  0  0  0  0
   11.8971  -19.7972   22.0097 C   0  0  0  0  0  0  0  0  0  0  0  0
   13.3056  -19.7513   21.9191 C   0  0  0  0  0  0  0  0  0  0  0  0
   13.7780  -20.8919   22.4416 N   0  0  0  0  0  0  0  0  0  0  0  0
   12.7618  -21.6623   22.8597 C   0  0  0  0  0  0  0  0  0  0  0  0
   11.6465  -20.9727   22.5843 N   0  0  0  0  0  0  0  0  0  0  0  0
   12.5100  -17.9766   19.6729 C   0  0  0  0  0  0  0  0  0  0  0  0
   13.7468  -17.8845   19.6062 O   0  0  0  0  0  0  0  0  0  0  0  0
   11.8599  -18.4772   18.5332 O   0  0  0  0  0  0  0  0  0  0  0  0
  2  1  1  1
  2  3  1  0
  3  4  1  0
  4  5  2  0
  5  6  1  0
  7  6  1  0
  8  7  2  0
  9  8  1  0
 10 11  1  0
 10  9  2  0
 11 12  2  0
 12  4  1  0
 12  7  1  0
 13 20  1  0
 13  2  1  0
 14 13  2  0
 16 15  1  0
 17 19  1  0
 17 16  1  0
 17 18  1  6
 19 20  1  1
 21 19  1  0
 22 21  2  0
 23 21  1  0
 24 25  1  6
 24 23  1  0
 25 26  1  0
 26 27  2  0
 26 30  1  0
 27 28  1  0
 28 29  1  0
 30 29  2  0
 31 24  1  0
 32 31  2  0
 33 31  1  0
M  END
$$$$
