WIH.pdb
     RDKit          3D

 33 35  0  0  1  0  0  0  0  0999 V2000
    7.1639  -18.9465   27.1117 N   0  0  0  0  0  0  0  0  0  0  0  0
    8.0957  -17.8730   26.8428 C   0  0  1  0  0  0  0  0  0  0  0  0
    9.5270  -18.2261   27.1392 C   0  0  0  0  0  0  0  0  0  0  0  0
   10.0352  -17.6095   28.3789 C   0  0  0  0  0  0  0  0  0  0  0  0
   10.4218  -18.1594   29.5645 C   0  0  0  0  0  0  0  0  0  0  0  0
   10.8150  -17.2000   30.4179 N   0  0  0  0  0  0  0  0  0  0  0  0
   10.6845  -16.0158   29.7856 C   0  0  0  0  0  0  0  0  0  0  0  0
   10.9381  -14.7167   30.1719 C   0  0  0  0  0  0  0  0  0  0  0  0
   10.7277  -13.6439   29.3406 C   0  0  0  0  0  0  0  0  0  0  0  0
   10.2432  -13.8637   28.0658 C   0  0  0  0  0  0  0  0  0  0  0  0
    9.9896  -15.1689   27.6815 C   0  0  0  0  0  0  0  0  0  0  0  0
   10.2005  -16.2460   28.5144 C   0  0  0  0  0  0  0  0  0  0  0  0
    7.9197  -17.3112   25.4838 C   0  0  0  0  0  0  0  0  0  0  0  0
    7.4226  -18.0182   24.5754 O   0  0  0  0  0  0  0  0  0  0  0  0
    6.2912  -12.7102   25.5868 C   0  0  0  0  0  0  0  0  0  0  0  0
    6.3144  -13.9499   24.7013 C   0  0  0  0  0  0  0  0  0  0  0  0
    7.5518  -14.0248   23.8732 C   0  0  2  0  0  0  0  0  0  0  0  0
    7.3466  -13.5092   22.4668 C   0  0  0  0  0  0  0  0  0  0  0  0
    8.1289  -15.4181   23.8064 C   0  0  2  0  0  0  0  0  0  0  0  0
    8.2918  -15.9843   25.1439 N   0  0  0  0  0  0  0  0  0  0  0  0
    9.3614  -15.4949   23.0000 C   0  0  0  0  0  0  0  0  0  0  0  0
   10.2964  -14.7053   23.2443 O   0  0  0  0  0  0  0  0  0  0  0  0
    9.4864  -16.4410   21.9667 N   0  0  0  0  0  0  0  0  0  0  0  0
   10.6824  -16.5570   21.0988 C   0  0  1  0  0  0  0  0  0  0  0  0
   11.0331  -15.1825   20.6097 C   0  0  0  0  0  0  0  0  0  0  0  0
   12.2405  -15.1308   19.7790 C   0  0  0  0  0  0  0  0  0  0  0  0
   13.3765  -14.3686   20.1298 C   0  0  0  0  0  0  0  0  0  0  0  0
   14.2890  -14.5416   19.1630 N   0  0  0  0  0  0  0  0  0  0  0  0
   13.8085  -15.3649   18.2183 C   0  0  0  0  0  0  0  0  0  0  0  0
   12.5752  -15.6992   18.6216 N   0  0  0  0  0  0  0  0  0  0  0  0
   11.7595  -17.1991   21.8629 C   0  0  0  0  0  0  0  0  0  0  0  0
   12.3117  -18.2350   21.4571 O   0  0  0  0  0  0  0  0  0  0  0  0
   12.2215  -16.6842   23.0850 O   0  0  0  0  0  0  0  0  0  0  0  0
  2  1  1  6
  2  3  1  0
  3  4  1  0
  4  5  2  0
  5  6  1  0
  7  6  1  0
  8  7  2  0
  9  8  1  0
 10 11  1  0
 10  9  2  0
 11 12  2  0
 12  4  1  0
 12  7  1  0
 13 20  1  0
 13  2  1  0
 14 13  2  0
 16 15  1  0
 17 19  1  0
 17 16  1  0
 17 18  1  6
 19 20  1  1
 21 19  1  0
 22 21  2  0
 23 21  1  0
 24 25  1  1
 24 23  1  0
 25 26  1  0
 26 27  2  0
 26 30  1  0
 27 28  1  0
 28 29  1  0
 30 29  2  0
 31 24  1  0
 32 31  2  0
 33 31  1  0
M  END
$$$$
