WIH.pdb
     RDKit          3D

 33 35  0  0  1  0  0  0  0  0999 V2000
   10.4118  -15.0261   21.2828 N   0  0  0  0  0  0  0  0  0  0  0  0
    9.1784  -15.1284   22.0319 C   0  0  1  0  0  0  0  0  0  0  0  0
    8.2469  -16.1924   21.5210 C   0  0  0  0  0  0  0  0  0  0  0  0
    7.5638  -15.8174   20.2687 C   0  0  0  0  0  0  0  0  0  0  0  0
    6.7841  -16.5418   19.4173 C   0  0  0  0  0  0  0  0  0  0  0  0
    6.3764  -15.7763   18.3921 N   0  0  0  0  0  0  0  0  0  0  0  0
    6.8932  -14.5439   18.5750 C   0  0  0  0  0  0  0  0  0  0  0  0
    6.8046  -13.3756   17.8481 C   0  0  0  0  0  0  0  0  0  0  0  0
    7.4270  -12.2145   18.2363 C   0  0  0  0  0  0  0  0  0  0  0  0
    8.1736  -12.2059   19.3986 C   0  0  0  0  0  0  0  0  0  0  0  0
    8.2604  -13.3804   20.1256 C   0  0  0  0  0  0  0  0  0  0  0  0
    7.6363  -14.5458   19.7373 C   0  0  0  0  0  0  0  0  0  0  0  0
    9.4201  -15.2380   23.4890 C   0  0  0  0  0  0  0  0  0  0  0  0
   10.5108  -15.6923   23.9085 O   0  0  0  0  0  0  0  0  0  0  0  0
    6.1117  -12.1953   26.7480 C   0  0  0  0  0  0  0  0  0  0  0  0
    7.3254  -12.8415   26.0915 C   0  0  0  0  0  0  0  0  0  0  0  0
    7.6257  -14.1841   26.6658 C   0  0  2  0  0  0  0  0  0  0  0  0
    8.0159  -14.1221   28.1253 C   0  0  0  0  0  0  0  0  0  0  0  0
    8.6979  -14.9221   25.9015 C   0  0  2  0  0  0  0  0  0  0  0  0
    8.4621  -14.8479   24.4610 N   0  0  0  0  0  0  0  0  0  0  0  0
    8.8990  -16.3038   26.3766 C   0  0  0  0  0  0  0  0  0  0  0  0
    8.4199  -17.2481   25.7163 O   0  0  0  0  0  0  0  0  0  0  0  0
    9.6176  -16.5601   27.5582 N   0  0  0  0  0  0  0  0  0  0  0  0
   10.2245  -17.8729   27.8828 C   0  0  1  0  0  0  0  0  0  0  0  0
   11.2372  -18.1885   26.8216 C   0  0  0  0  0  0  0  0  0  0  0  0
   10.6771  -18.8345   25.6302 C   0  0  0  0  0  0  0  0  0  0  0  0
    9.3726  -19.3744   25.5965 C   0  0  0  0  0  0  0  0  0  0  0  0
    9.1816  -19.8841   24.3714 N   0  0  0  0  0  0  0  0  0  0  0  0
   10.2799  -19.7041   23.6215 C   0  0  0  0  0  0  0  0  0  0  0  0
   11.1580  -19.0703   24.4105 N   0  0  0  0  0  0  0  0  0  0  0  0
   10.7939  -17.8082   29.2348 C   0  0  0  0  0  0  0  0  0  0  0  0
   11.3459  -18.7933   29.7520 O   0  0  0  0  0  0  0  0  0  0  0  0
   10.7464  -16.6403   30.0132 O   0  0  0  0  0  0  0  0  0  0  0  0
  2  1  1  6
  2  3  1  0
  3  4  1  0
  4  5  2  0
  5  6  1  0
  7  6  1  0
  8  7  2  0
  9  8  1  0
 10 11  1  0
 10  9  2  0
 11 12  2  0
 12  4  1  0
 12  7  1  0
 13 20  1  0
 13  2  1  0
 14 13  2  0
 16 15  1  0
 17 19  1  0
 17 16  1  0
 17 18  1  1
 19 20  1  6
 21 19  1  0
 22 21  2  0
 23 21  1  0
 24 25  1  6
 24 23  1  0
 25 26  1  0
 26 27  2  0
 26 30  1  0
 27 28  1  0
 28 29  1  0
 30 29  2  0
 31 24  1  0
 32 31  2  0
 33 31  1  0
M  END
$$$$
