WIH.pdb
     RDKit          3D

 33 35  0  0  1  0  0  0  0  0999 V2000
    6.3262  -18.0973   24.6853 N   0  0  0  0  0  0  0  0  0  0  0  0
    6.8888  -16.8250   24.2880 C   0  0  1  0  0  0  0  0  0  0  0  0
    7.7225  -16.1724   25.3557 C   0  0  0  0  0  0  0  0  0  0  0  0
    7.0573  -15.0202   25.9925 C   0  0  0  0  0  0  0  0  0  0  0  0
    5.7546  -14.8084   26.3324 C   0  0  0  0  0  0  0  0  0  0  0  0
    5.6097  -13.5970   26.8936 N   0  0  0  0  0  0  0  0  0  0  0  0
    6.8257  -13.0139   26.9204 C   0  0  0  0  0  0  0  0  0  0  0  0
    7.2658  -11.7901   27.3785 C   0  0  0  0  0  0  0  0  0  0  0  0
    8.5811  -11.4021   27.3029 C   0  0  0  0  0  0  0  0  0  0  0  0
    9.5074  -12.2637   26.7478 C   0  0  0  0  0  0  0  0  0  0  0  0
    9.0619  -13.4911   26.2889 C   0  0  0  0  0  0  0  0  0  0  0  0
    7.7428  -13.8816   26.3644 C   0  0  0  0  0  0  0  0  0  0  0  0
    7.5959  -16.9109   22.9895 C   0  0  0  0  0  0  0  0  0  0  0  0
    8.0332  -18.0154   22.5884 O   0  0  0  0  0  0  0  0  0  0  0  0
    7.9024  -12.3376   19.3791 C   0  0  0  0  0  0  0  0  0  0  0  0
    8.4432  -13.4235   20.3010 C   0  0  0  0  0  0  0  0  0  0  0  0
    7.9474  -14.7779   19.9237 C   0  0  2  0  0  0  0  0  0  0  0  0
    6.4386  -14.8514   19.8585 C   0  0  0  0  0  0  0  0  0  0  0  0
    8.4529  -15.8640   20.8422 C   0  0  2  0  0  0  0  0  0  0  0  0
    7.8115  -15.7846   22.1530 N   0  0  0  0  0  0  0  0  0  0  0  0
    9.9245  -15.9090   20.9285 C   0  0  0  0  0  0  0  0  0  0  0  0
   10.5948  -15.0558   20.3119 O   0  0  0  0  0  0  0  0  0  0  0  0
   10.5698  -16.8990   21.6913 N   0  0  0  0  0  0  0  0  0  0  0  0
   12.0399  -17.0863   21.7204 C   0  0  1  0  0  0  0  0  0  0  0  0
   12.6648  -15.7762   22.1008 C   0  0  0  0  0  0  0  0  0  0  0  0
   13.3192  -15.0780   20.9895 C   0  0  0  0  0  0  0  0  0  0  0  0
   13.1269  -15.4435   19.6391 C   0  0  0  0  0  0  0  0  0  0  0  0
   13.8638  -14.6111   18.8900 N   0  0  0  0  0  0  0  0  0  0  0  0
   14.5135  -13.7381   19.6754 C   0  0  0  0  0  0  0  0  0  0  0  0
   14.1625  -14.0485   20.9307 N   0  0  0  0  0  0  0  0  0  0  0  0
   12.3582  -18.1784   22.6490 C   0  0  0  0  0  0  0  0  0  0  0  0
   11.4847  -18.6920   23.3672 O   0  0  0  0  0  0  0  0  0  0  0  0
   13.6563  -18.6985   22.7777 O   0  0  0  0  0  0  0  0  0  0  0  0
  2  1  1  1
  2  3  1  0
  3  4  1  0
  4  5  2  0
  5  6  1  0
  7  6  1  0
  8  7  2  0
  9  8  1  0
 10 11  1  0
 10  9  2  0
 11 12  2  0
 12  4  1  0
 12  7  1  0
 13 20  1  0
 13  2  1  0
 14 13  2  0
 16 15  1  0
 17 19  1  0
 17 16  1  0
 17 18  1  1
 19 20  1  1
 21 19  1  0
 22 21  2  0
 23 21  1  0
 24 25  1  1
 24 23  1  0
 25 26  1  0
 26 27  2  0
 26 30  1  0
 27 28  1  0
 28 29  1  0
 30 29  2  0
 31 24  1  0
 32 31  2  0
 33 31  1  0
M  END
$$$$
