WIH.pdb
     RDKit          3D

 33 35  0  0  1  0  0  0  0  0999 V2000
    6.5142  -17.6623   23.9153 N   0  0  0  0  0  0  0  0  0  0  0  0
    7.1910  -16.4007   23.7072 C   0  0  1  0  0  0  0  0  0  0  0  0
    7.9903  -15.9399   24.8946 C   0  0  0  0  0  0  0  0  0  0  0  0
    7.2048  -15.1369   25.8504 C   0  0  0  0  0  0  0  0  0  0  0  0
    6.1534  -15.4670   26.6524 C   0  0  0  0  0  0  0  0  0  0  0  0
    5.7525  -14.3984   27.3598 N   0  0  0  0  0  0  0  0  0  0  0  0
    6.5470  -13.3635   27.0178 C   0  0  0  0  0  0  0  0  0  0  0  0
    6.5933  -12.0465   27.4232 C   0  0  0  0  0  0  0  0  0  0  0  0
    7.5117  -11.1528   26.9290 C   0  0  0  0  0  0  0  0  0  0  0  0
    8.4292  -11.5796   25.9887 C   0  0  0  0  0  0  0  0  0  0  0  0
    8.3797  -12.9023   25.5840 C   0  0  0  0  0  0  0  0  0  0  0  0
    7.4590  -13.7998   26.0791 C   0  0  0  0  0  0  0  0  0  0  0  0
    7.9808  -16.3933   22.4543 C   0  0  0  0  0  0  0  0  0  0  0  0
    8.2801  -17.4766   21.8985 O   0  0  0  0  0  0  0  0  0  0  0  0
    7.3129  -11.8951   19.4208 C   0  0  0  0  0  0  0  0  0  0  0  0
    7.4456  -13.3495   19.8554 C   0  0  0  0  0  0  0  0  0  0  0  0
    8.8652  -13.8047   19.8657 C   0  0  2  0  0  0  0  0  0  0  0  0
    9.4819  -13.8284   18.4854 C   0  0  0  0  0  0  0  0  0  0  0  0
    9.0413  -15.1603   20.5059 C   0  0  2  0  0  0  0  0  0  0  0  0
    8.4291  -15.1988   21.8324 N   0  0  0  0  0  0  0  0  0  0  0  0
   10.4429  -15.6194   20.5106 C   0  0  0  0  0  0  0  0  0  0  0  0
   11.0890  -15.6067   19.4429 O   0  0  0  0  0  0  0  0  0  0  0  0
   11.0480  -16.0690   21.6980 N   0  0  0  0  0  0  0  0  0  0  0  0
   12.5067  -16.2873   21.8457 C   0  0  1  0  0  0  0  0  0  0  0  0
   13.1987  -14.9843   21.5718 C   0  0  0  0  0  0  0  0  0  0  0  0
   13.5837  -14.7920   20.1699 C   0  0  0  0  0  0  0  0  0  0  0  0
   13.2441  -15.7100   19.1520 C   0  0  0  0  0  0  0  0  0  0  0  0
   13.7458  -15.2370   18.0024 N   0  0  0  0  0  0  0  0  0  0  0  0
   14.3833  -14.0765   18.2212 C   0  0  0  0  0  0  0  0  0  0  0  0
   14.2656  -13.8400   19.5348 N   0  0  0  0  0  0  0  0  0  0  0  0
   12.7706  -16.8194   23.1886 C   0  0  0  0  0  0  0  0  0  0  0  0
   11.8476  -17.0397   23.9900 O   0  0  0  0  0  0  0  0  0  0  0  0
   14.0694  -17.1059   23.6396 O   0  0  0  0  0  0  0  0  0  0  0  0
  2  1  1  1
  2  3  1  0
  3  4  1  0
  4  5  2  0
  5  6  1  0
  7  6  1  0
  8  7  2  0
  9  8  1  0
 10 11  1  0
 10  9  2  0
 11 12  2  0
 12  4  1  0
 12  7  1  0
 13 20  1  0
 13  2  1  0
 14 13  2  0
 16 15  1  0
 17 19  1  0
 17 16  1  0
 17 18  1  6
 19 20  1  1
 21 19  1  0
 22 21  2  0
 23 21  1  0
 24 25  1  1
 24 23  1  0
 25 26  1  0
 26 27  2  0
 26 30  1  0
 27 28  1  0
 28 29  1  0
 30 29  2  0
 31 24  1  0
 32 31  2  0
 33 31  1  0
M  END
$$$$
