WIH.pdb
     RDKit          3D

 33 35  0  0  1  0  0  0  0  0999 V2000
    5.8952  -17.9599   24.5897 N   0  0  0  0  0  0  0  0  0  0  0  0
    6.5450  -16.6899   24.3493 C   0  0  1  0  0  0  0  0  0  0  0  0
    7.0877  -16.0431   25.5935 C   0  0  0  0  0  0  0  0  0  0  0  0
    6.2611  -14.9208   26.0757 C   0  0  0  0  0  0  0  0  0  0  0  0
    4.9365  -14.8482   26.3884 C   0  0  0  0  0  0  0  0  0  0  0  0
    4.6184  -13.6058   26.7865 N   0  0  0  0  0  0  0  0  0  0  0  0
    5.7423  -12.8620   26.7335 C   0  0  0  0  0  0  0  0  0  0  0  0
    6.0035  -11.5402   27.0263 C   0  0  0  0  0  0  0  0  0  0  0  0
    7.2541  -10.9877   26.8971 C   0  0  0  0  0  0  0  0  0  0  0  0
    8.2982  -11.7781   26.4571 C   0  0  0  0  0  0  0  0  0  0  0  0
    8.0324  -13.1043   26.1640 C   0  0  0  0  0  0  0  0  0  0  0  0
    6.7782  -13.6598   26.2935 C   0  0  0  0  0  0  0  0  0  0  0  0
    7.5543  -16.7773   23.2689 C   0  0  0  0  0  0  0  0  0  0  0  0
    8.1249  -17.8688   23.0343 O   0  0  0  0  0  0  0  0  0  0  0  0
    7.5285  -12.4853   19.9674 C   0  0  0  0  0  0  0  0  0  0  0  0
    7.5725  -13.9914   20.1943 C   0  0  0  0  0  0  0  0  0  0  0  0
    8.9320  -14.4601   20.5875 C   0  0  2  0  0  0  0  0  0  0  0  0
    9.8547  -14.6381   19.4031 C   0  0  0  0  0  0  0  0  0  0  0  0
    8.9023  -15.7419   21.3842 C   0  0  2  0  0  0  0  0  0  0  0  0
    7.9208  -15.6668   22.4645 N   0  0  0  0  0  0  0  0  0  0  0  0
   10.2361  -16.1619   21.8530 C   0  0  0  0  0  0  0  0  0  0  0  0
   10.7928  -15.5112   22.7608 O   0  0  0  0  0  0  0  0  0  0  0  0
   10.8785  -17.2778   21.2868 N   0  0  0  0  0  0  0  0  0  0  0  0
   12.2173  -17.7559   21.7062 C   0  0  1  0  0  0  0  0  0  0  0  0
   12.4727  -19.0690   21.0264 C   0  0  0  0  0  0  0  0  0  0  0  0
   13.7725  -19.6679   21.3462 C   0  0  0  0  0  0  0  0  0  0  0  0
   14.6789  -19.0835   22.2579 C   0  0  0  0  0  0  0  0  0  0  0  0
   15.7568  -19.8785   22.3164 N   0  0  0  0  0  0  0  0  0  0  0  0
   15.5964  -20.9322   21.5009 C   0  0  0  0  0  0  0  0  0  0  0  0
   14.3927  -20.7726   20.9342 N   0  0  0  0  0  0  0  0  0  0  0  0
   13.2104  -16.7247   21.3795 C   0  0  0  0  0  0  0  0  0  0  0  0
   14.1284  -16.4385   22.1657 O   0  0  0  0  0  0  0  0  0  0  0  0
   13.1784  -16.0091   20.1715 O   0  0  0  0  0  0  0  0  0  0  0  0
  2  1  1  1
  2  3  1  0
  3  4  1  0
  4  5  2  0
  5  6  1  0
  7  6  1  0
  8  7  2  0
  9  8  1  0
 10 11  1  0
 10  9  2  0
 11 12  2  0
 12  4  1  0
 12  7  1  0
 13 20  1  0
 13  2  1  0
 14 13  2  0
 16 15  1  0
 17 19  1  0
 17 16  1  0
 17 18  1  6
 19 20  1  1
 21 19  1  0
 22 21  2  0
 23 21  1  0
 24 25  1  6
 24 23  1  0
 25 26  1  0
 26 27  2  0
 26 30  1  0
 27 28  1  0
 28 29  1  0
 30 29  2  0
 31 24  1  0
 32 31  2  0
 33 31  1  0
M  END
$$$$
