WIH.pdb
     RDKit          3D

 33 35  0  0  1  0  0  0  0  0999 V2000
    8.5028  -17.4325   22.7154 N   0  0  0  0  0  0  0  0  0  0  0  0
    8.9202  -16.0487   22.7789 C   0  0  1  0  0  0  0  0  0  0  0  0
    7.7857  -15.0688   22.6630 C   0  0  0  0  0  0  0  0  0  0  0  0
    6.9984  -14.9385   23.9035 C   0  0  0  0  0  0  0  0  0  0  0  0
    6.3248  -15.8641   24.6431 C   0  0  0  0  0  0  0  0  0  0  0  0
    5.7437  -15.2808   25.7039 N   0  0  0  0  0  0  0  0  0  0  0  0
    6.0396  -13.9657   25.6569 C   0  0  0  0  0  0  0  0  0  0  0  0
    5.7162  -12.9048   26.4761 C   0  0  0  0  0  0  0  0  0  0  0  0
    6.1410  -11.6226   26.2272 C   0  0  0  0  0  0  0  0  0  0  0  0
    6.9228  -11.3752   25.1156 C   0  0  0  0  0  0  0  0  0  0  0  0
    7.2453  -12.4425   24.2955 C   0  0  0  0  0  0  0  0  0  0  0  0
    6.8200  -13.7292   24.5442 C   0  0  0  0  0  0  0  0  0  0  0  0
    9.7831  -15.7814   23.9526 C   0  0  0  0  0  0  0  0  0  0  0  0
   10.3294  -14.6606   24.0837 O   0  0  0  0  0  0  0  0  0  0  0  0
   10.9936  -13.6215   28.6777 C   0  0  0  0  0  0  0  0  0  0  0  0
   11.4092  -14.9030   27.9660 C   0  0  0  0  0  0  0  0  0  0  0  0
   10.5002  -15.2352   26.8320 C   0  0  2  0  0  0  0  0  0  0  0  0
    9.0520  -15.3388   27.2541 C   0  0  0  0  0  0  0  0  0  0  0  0
   10.8953  -16.5042   26.1164 C   0  0  2  0  0  0  0  0  0  0  0  0
   10.0323  -16.7474   24.9623 N   0  0  0  0  0  0  0  0  0  0  0  0
   10.9882  -17.6696   27.0155 C   0  0  0  0  0  0  0  0  0  0  0  0
    9.9662  -18.0509   27.6219 O   0  0  0  0  0  0  0  0  0  0  0  0
   12.2092  -18.3447   27.1935 N   0  0  0  0  0  0  0  0  0  0  0  0
   12.3299  -19.6636   27.8590 C   0  0  1  0  0  0  0  0  0  0  0  0
   13.6547  -20.2548   27.4757 C   0  0  0  0  0  0  0  0  0  0  0  0
   13.7519  -20.6468   26.0659 C   0  0  0  0  0  0  0  0  0  0  0  0
   12.6522  -20.5952   25.1815 C   0  0  0  0  0  0  0  0  0  0  0  0
   13.0811  -21.0182   23.9839 N   0  0  0  0  0  0  0  0  0  0  0  0
   14.3834  -21.3363   24.0473 C   0  0  0  0  0  0  0  0  0  0  0  0
   14.7532  -21.1007   25.3135 N   0  0  0  0  0  0  0  0  0  0  0  0
   12.1684  -19.4782   29.3067 C   0  0  0  0  0  0  0  0  0  0  0  0
   12.0543  -20.4480   30.0742 O   0  0  0  0  0  0  0  0  0  0  0  0
   12.1328  -18.2060   29.9002 O   0  0  0  0  0  0  0  0  0  0  0  0
  2  1  1  1
  2  3  1  0
  3  4  1  0
  4  5  2  0
  5  6  1  0
  7  6  1  0
  8  7  2  0
  9  8  1  0
 10 11  1  0
 10  9  2  0
 11 12  2  0
 12  4  1  0
 12  7  1  0
 13 20  1  0
 13  2  1  0
 14 13  2  0
 16 15  1  0
 17 19  1  0
 17 16  1  0
 17 18  1  1
 19 20  1  6
 21 19  1  0
 22 21  2  0
 23 21  1  0
 24 25  1  1
 24 23  1  0
 25 26  1  0
 26 27  2  0
 26 30  1  0
 27 28  1  0
 28 29  1  0
 30 29  2  0
 31 24  1  0
 32 31  2  0
 33 31  1  0
M  END
$$$$
