PIN.pdb
     RDKit          3D

 24 24  0  0  1  0  0  0  0  0999 V2000
    7.0097  -14.7992   20.8449 N   0  0  0  0  0  0  0  0  0  0  0  0
    6.1708  -13.8964   20.1147 C   0  0  0  0  0  0  0  0  0  0  0  0
    7.1101  -12.9236   19.4006 C   0  0  0  0  0  0  0  0  0  0  0  0
    8.2551  -12.8631   20.4049 C   0  0  0  0  0  0  0  0  0  0  0  0
    8.3404  -14.2867   20.8606 C   0  0  1  0  0  0  0  0  0  0  0  0
    8.8391  -14.3149   22.2831 C   0  0  0  0  0  0  0  0  0  0  0  0
   10.0849  -14.1309   22.4053 O   0  0  0  0  0  0  0  0  0  0  0  0
    5.8670  -11.8413   25.9497 C   0  0  0  0  0  0  0  0  0  0  0  0
    7.0035  -12.4631   25.1602 C   0  0  0  0  0  0  0  0  0  0  0  0
    7.2298  -13.8815   25.6338 C   0  0  2  0  0  0  0  0  0  0  0  0
    7.8983  -13.7452   27.0104 C   0  0  0  0  0  0  0  0  0  0  0  0
    8.2673  -14.5543   24.7246 C   0  0  2  0  0  0  0  0  0  0  0  0
    7.9452  -14.5322   23.3448 N   0  0  0  0  0  0  0  0  0  0  0  0
    8.5929  -15.8679   25.2570 C   0  0  0  0  0  0  0  0  0  0  0  0
    7.7462  -16.8004   25.4187 O   0  0  0  0  0  0  0  0  0  0  0  0
   11.2835  -19.0953   23.3384 N   0  0  0  0  0  0  0  0  0  0  0  0
   11.7385  -17.9938   24.1530 C   0  0  0  0  0  0  0  0  0  0  0  0
   12.2587  -17.0505   23.5262 O   0  0  0  0  0  0  0  0  0  0  0  0
   11.5755  -18.0343   25.6071 C   0  0  0  0  0  0  0  0  0  0  0  0
   10.2270  -17.6075   26.1146 C   0  0  2  0  0  0  0  0  0  0  0  0
    9.9190  -16.2453   25.6574 N   0  0  0  0  0  0  0  0  0  0  0  0
   10.1607  -17.5197   27.6035 C   0  0  0  0  0  0  0  0  0  0  0  0
   10.2660  -16.4106   28.2333 O   0  0  0  0  0  0  0  0  0  0  0  0
    9.9811  -18.6217   28.4158 O   0  0  0  0  0  0  0  0  0  0  0  0
  2  1  1  0
  3  2  1  0
  4  5  1  0
  4  3  1  0
  5  1  1  0
  5  6  1  1
  6  7  2  0
  8  9  1  0
  9 10  1  0
 10 12  1  0
 10 11  1  1
 12 13  1  6
 13  6  1  0
 14 12  1  0
 15 14  2  0
 17 16  1  0
 17 18  2  0
 19 17  1  0
 20 19  1  1
 20 21  1  0
 21 14  1  0
 22 24  1  0
 22 20  1  0
 23 22  2  0
M  END
$$$$
