PIN.pdb
     RDKit          3D

 24 24  0  0  1  0  0  0  0  0999 V2000
    9.5350  -17.5962   15.9354 N   0  0  0  0  0  0  0  0  0  0  0  0
    9.5944  -18.9680   15.5275 C   0  0  0  0  0  0  0  0  0  0  0  0
    8.3427  -19.6373   16.0964 C   0  0  0  0  0  0  0  0  0  0  0  0
    8.1604  -18.8311   17.3771 C   0  0  0  0  0  0  0  0  0  0  0  0
    8.5184  -17.4496   16.9247 C   0  0  1  0  0  0  0  0  0  0  0  0
    9.1009  -16.6900   18.0895 C   0  0  0  0  0  0  0  0  0  0  0  0
   10.3618  -16.7494   18.1759 O   0  0  0  0  0  0  0  0  0  0  0  0
    6.7612  -12.0631   19.9881 C   0  0  0  0  0  0  0  0  0  0  0  0
    7.7957  -13.1175   19.6421 C   0  0  0  0  0  0  0  0  0  0  0  0
    7.7296  -14.2400   20.6535 C   0  0  2  0  0  0  0  0  0  0  0  0
    8.3698  -13.6716   21.9292 C   0  0  0  0  0  0  0  0  0  0  0  0
    8.6448  -15.3834   20.1942 C   0  0  2  0  0  0  0  0  0  0  0  0
    8.2612  -15.9919   18.9733 N   0  0  0  0  0  0  0  0  0  0  0  0
    8.8534  -16.3053   21.2994 C   0  0  0  0  0  0  0  0  0  0  0  0
    8.1287  -17.3237   21.5236 O   0  0  0  0  0  0  0  0  0  0  0  0
   11.0904  -20.6298   22.7603 N   0  0  0  0  0  0  0  0  0  0  0  0
   11.7896  -19.4254   22.3807 C   0  0  0  0  0  0  0  0  0  0  0  0
   13.0263  -19.4606   22.5312 O   0  0  0  0  0  0  0  0  0  0  0  0
   11.0490  -18.2743   21.8617 C   0  0  0  0  0  0  0  0  0  0  0  0
   10.5399  -17.3161   22.9013 C   0  0  2  0  0  0  0  0  0  0  0  0
    9.9116  -16.1540   22.2580 N   0  0  0  0  0  0  0  0  0  0  0  0
   11.6259  -16.7293   23.7411 C   0  0  0  0  0  0  0  0  0  0  0  0
   12.2407  -15.6541   23.4189 O   0  0  0  0  0  0  0  0  0  0  0  0
   12.0513  -17.2961   24.9261 O   0  0  0  0  0  0  0  0  0  0  0  0
  2  1  1  0
  3  2  1  0
  4  5  1  0
  4  3  1  0
  5  1  1  0
  5  6  1  1
  6  7  2  0
  8  9  1  0
  9 10  1  0
 10 12  1  0
 10 11  1  1
 12 13  1  6
 13  6  1  0
 14 12  1  0
 15 14  2  0
 17 16  1  0
 17 18  2  0
 19 17  1  0
 20 19  1  6
 20 21  1  0
 21 14  1  0
 22 24  1  0
 22 20  1  0
 23 22  2  0
M  END
$$$$
