PIN.pdb
     RDKit          3D

 24 24  0  0  1  0  0  0  0  0999 V2000
    8.2251  -14.6024   19.9607 N   0  0  0  0  0  0  0  0  0  0  0  0
    8.0337  -15.6679   19.0226 C   0  0  0  0  0  0  0  0  0  0  0  0
    6.7277  -16.3570   19.4197 C   0  0  0  0  0  0  0  0  0  0  0  0
    6.7604  -16.1542   20.9300 C   0  0  0  0  0  0  0  0  0  0  0  0
    7.3103  -14.7662   21.0424 C   0  0  1  0  0  0  0  0  0  0  0  0
    8.0811  -14.6494   22.3329 C   0  0  0  0  0  0  0  0  0  0  0  0
    9.3315  -14.7994   22.2118 O   0  0  0  0  0  0  0  0  0  0  0  0
    5.9842  -11.4333   26.2788 C   0  0  0  0  0  0  0  0  0  0  0  0
    6.9898  -12.1416   25.3907 C   0  0  0  0  0  0  0  0  0  0  0  0
    7.1726  -13.5642   25.8705 C   0  0  2  0  0  0  0  0  0  0  0  0
    8.0632  -13.4577   27.1179 C   0  0  0  0  0  0  0  0  0  0  0  0
    7.9913  -14.3426   24.8314 C   0  0  2  0  0  0  0  0  0  0  0  0
    7.4099  -14.3937   23.5402 N   0  0  0  0  0  0  0  0  0  0  0  0
    8.3681  -15.6333   25.3855 C   0  0  0  0  0  0  0  0  0  0  0  0
    7.5405  -16.5500   25.6814 O   0  0  0  0  0  0  0  0  0  0  0  0
   12.0906  -20.1061   24.8985 N   0  0  0  0  0  0  0  0  0  0  0  0
   12.0290  -18.9842   25.8048 C   0  0  0  0  0  0  0  0  0  0  0  0
   12.5026  -19.1922   26.9388 O   0  0  0  0  0  0  0  0  0  0  0  0
   11.4415  -17.7158   25.3706 C   0  0  0  0  0  0  0  0  0  0  0  0
   10.1016  -17.3905   25.9680 C   0  0  2  0  0  0  0  0  0  0  0  0
    9.7285  -16.0038   25.6563 N   0  0  0  0  0  0  0  0  0  0  0  0
   10.0945  -17.4469   27.4599 C   0  0  0  0  0  0  0  0  0  0  0  0
   10.3348  -16.4229   28.1889 O   0  0  0  0  0  0  0  0  0  0  0  0
    9.8293  -18.6017   28.1687 O   0  0  0  0  0  0  0  0  0  0  0  0
  2  1  1  0
  3  2  1  0
  4  5  1  0
  4  3  1  0
  5  1  1  0
  5  6  1  1
  6  7  2  0
  8  9  1  0
  9 10  1  0
 10 12  1  0
 10 11  1  1
 12 13  1  6
 13  6  1  0
 14 12  1  0
 15 14  2  0
 17 16  1  0
 17 18  2  0
 19 17  1  0
 20 19  1  1
 20 21  1  0
 21 14  1  0
 22 24  1  0
 22 20  1  0
 23 22  2  0
M  END
$$$$
