RSV.pdb
     RDKit          3D

 25 24  0  0  1  0  0  0  0  0999 V2000
   10.0891  -15.3378   16.5222 N   0  0  0  0  0  0  0  0  0  0  0  0
    8.9873  -14.4401   16.3247 C   0  0  0  0  0  0  0  0  0  0  0  0
    8.7212  -13.9639   15.1600 N   0  0  0  0  0  0  0  0  0  0  0  0
    8.1646  -14.0582   17.4158 N   0  0  0  0  0  0  0  0  0  0  0  0
    8.7531  -13.5193   18.6162 C   0  0  0  0  0  0  0  0  0  0  0  0
    7.5735  -13.1366   19.5209 C   0  0  0  0  0  0  0  0  0  0  0  0
    7.7475  -13.7892   20.8711 C   0  0  0  0  0  0  0  0  0  0  0  0
    7.4017  -15.2411   20.8629 C   0  0  2  0  0  0  0  0  0  0  0  0
    6.0890  -15.4979   20.3088 N   0  0  0  0  0  0  0  0  0  0  0  0
    7.4730  -15.7171   22.2897 C   0  0  0  0  0  0  0  0  0  0  0  0
    6.4944  -15.5063   23.0562 O   0  0  0  0  0  0  0  0  0  0  0  0
    7.8897  -13.3867   15.0144 O   0  0  0  0  0  0  0  0  0  0  0  0
   10.2280  -18.5822   23.5191 C   0  0  0  0  0  0  0  0  0  0  0  0
    8.9843  -18.4248   24.1271 C   0  0  1  0  0  0  0  0  0  0  0  0
    8.5785  -16.9658   24.1330 N   0  0  0  0  0  0  0  0  0  0  0  0
    8.5913  -16.3928   22.8147 C   0  0  0  0  0  0  0  0  0  0  0  0
    9.4305  -16.1628   25.0219 O   0  0  0  0  0  0  0  0  0  0  0  0
   10.4832  -15.6583   24.5579 C   0  0  0  0  0  0  0  0  0  0  0  0
    8.6829  -13.1705   26.9193 C   0  0  1  0  0  0  0  0  0  0  0  0
    9.2758  -14.1350   27.9402 C   0  0  0  0  0  0  0  0  0  0  0  0
   10.1291  -13.4076   28.9305 C   0  0  2  0  0  0  0  0  0  0  0  0
   10.0688  -15.1888   27.1912 N   0  0  0  0  0  0  0  0  0  0  0  0
    9.1296  -15.9221   26.3881 C   0  0  0  0  0  0  0  0  0  0  0  0
   10.8481  -16.0427   28.0976 O   0  0  0  0  0  0  0  0  0  0  0  0
   11.9225  -15.6317   28.5877 O   0  0  0  0  0  0  0  0  0  0  0  0
  1  2  1  0
  2  3  2  0
  4  2  1  0
  4  5  1  0
  6  5  1  0
  6  7  1  0
  7  8  1  0
  8 10  1  0
  8  9  1  1
 10 11  2  0
 13 12  1  0
 14 13  1  6
 14 16  1  0
 15 10  1  0
 15 14  1  0
 16 22  1  0
 16 17  2  0
 19 18  1  1
 19 21  1  0
 20 19  1  0
 21 23  1  0
 21 22  1  6
 23 24  2  0
 23 25  1  0
M  END
$$$$
