RSV.pdb
     RDKit          3D

 25 24  0  0  1  0  0  0  0  0999 V2000
    8.9533  -15.1320   16.8669 N   0  0  0  0  0  0  0  0  0  0  0  0
    8.0989  -14.2120   16.1723 C   0  0  0  0  0  0  0  0  0  0  0  0
    8.2827  -13.9481   14.9271 N   0  0  0  0  0  0  0  0  0  0  0  0
    7.0284  -13.5719   16.8486 N   0  0  0  0  0  0  0  0  0  0  0  0
    6.6436  -14.0003   18.1701 C   0  0  0  0  0  0  0  0  0  0  0  0
    7.7253  -13.4569   19.1140 C   0  0  0  0  0  0  0  0  0  0  0  0
    7.4111  -13.8789   20.5290 C   0  0  0  0  0  0  0  0  0  0  0  0
    8.4055  -14.8455   21.0808 C   0  0  2  0  0  0  0  0  0  0  0  0
    8.3855  -16.1191   20.3924 N   0  0  0  0  0  0  0  0  0  0  0  0
    8.0759  -15.0300   22.5383 C   0  0  0  0  0  0  0  0  0  0  0  0
    7.8093  -14.0169   23.2399 O   0  0  0  0  0  0  0  0  0  0  0  0
    7.6033  -13.3834   14.4119 O   0  0  0  0  0  0  0  0  0  0  0  0
    7.9233  -18.8232   24.5801 C   0  0  0  0  0  0  0  0  0  0  0  0
    7.0277  -17.7825   24.8168 C   0  0  1  0  0  0  0  0  0  0  0  0
    7.6849  -16.4458   24.5439 N   0  0  0  0  0  0  0  0  0  0  0  0
    8.0508  -16.2922   23.1623 C   0  0  0  0  0  0  0  0  0  0  0  0
    8.8693  -16.2339   25.3884 O   0  0  0  0  0  0  0  0  0  0  0  0
   10.0077  -16.4273   24.8938 C   0  0  0  0  0  0  0  0  0  0  0  0
    9.2691  -13.2648   27.5663 C   0  0  1  0  0  0  0  0  0  0  0  0
    9.7797  -14.4338   28.4010 C   0  0  0  0  0  0  0  0  0  0  0  0
   11.0225  -14.0577   29.1440 C   0  0  2  0  0  0  0  0  0  0  0  0
   10.0209  -15.6087   27.4728 N   0  0  0  0  0  0  0  0  0  0  0  0
    8.8003  -15.8195   26.7443 C   0  0  0  0  0  0  0  0  0  0  0  0
   10.4770  -16.8020   28.1980 O   0  0  0  0  0  0  0  0  0  0  0  0
    9.6565  -17.6684   28.5717 O   0  0  0  0  0  0  0  0  0  0  0  0
  1  2  1  0
  2  3  2  0
  4  2  1  0
  4  5  1  0
  6  5  1  0
  6  7  1  0
  7  8  1  0
  8 10  1  0
  8  9  1  6
 10 11  2  0
 13 12  1  0
 14 13  1  6
 14 16  1  0
 15 10  1  0
 15 14  1  0
 16 22  1  0
 16 17  2  0
 19 18  1  1
 19 21  1  0
 20 19  1  0
 21 23  1  0
 21 22  1  6
 23 24  2  0
 23 25  1  0
M  END
$$$$
