RSV.pdb
     RDKit          3D

 25 24  0  0  1  0  0  0  0  0999 V2000
    8.8225  -11.7387   17.7973 N   0  0  0  0  0  0  0  0  0  0  0  0
    8.9416  -12.9222   18.5998 C   0  0  0  0  0  0  0  0  0  0  0  0
   10.0268  -13.1828   19.2390 N   0  0  0  0  0  0  0  0  0  0  0  0
    7.8591  -13.8332   18.7051 N   0  0  0  0  0  0  0  0  0  0  0  0
    7.7002  -14.6397   19.8892 C   0  0  0  0  0  0  0  0  0  0  0  0
    6.3673  -15.3800   19.7113 C   0  0  0  0  0  0  0  0  0  0  0  0
    5.9441  -15.9714   21.0343 C   0  0  0  0  0  0  0  0  0  0  0  0
    6.7423  -17.1739   21.4145 C   0  0  2  0  0  0  0  0  0  0  0  0
    6.1420  -18.4088   20.9551 N   0  0  0  0  0  0  0  0  0  0  0  0
    6.8536  -17.1697   22.9161 C   0  0  0  0  0  0  0  0  0  0  0  0
    5.8065  -17.2834   23.6091 O   0  0  0  0  0  0  0  0  0  0  0  0
   10.1011  -14.0282   19.8097 O   0  0  0  0  0  0  0  0  0  0  0  0
   10.3410  -18.0015   25.0458 C   0  0  0  0  0  0  0  0  0  0  0  0
    9.0540  -18.1221   25.5654 C   0  0  1  0  0  0  0  0  0  0  0  0
    8.1601  -17.0252   25.0260 N   0  0  0  0  0  0  0  0  0  0  0  0
    8.0832  -17.0434   23.5907 C   0  0  0  0  0  0  0  0  0  0  0  0
    8.5934  -15.6940   25.4742 O   0  0  0  0  0  0  0  0  0  0  0  0
    9.4614  -15.0824   24.8031 C   0  0  0  0  0  0  0  0  0  0  0  0
    6.5894  -13.3735   28.2638 C   0  0  1  0  0  0  0  0  0  0  0  0
    7.5997  -12.8192   27.2658 C   0  0  0  0  0  0  0  0  0  0  0  0
    6.9417  -12.4981   25.9612 C   0  0  1  0  0  0  0  0  0  0  0  0
    8.7056  -13.8427   27.0935 N   0  0  0  0  0  0  0  0  0  0  0  0
    8.0829  -15.0532   26.6334 C   0  0  0  0  0  0  0  0  0  0  0  0
    9.4879  -14.0241   28.3236 O   0  0  0  0  0  0  0  0  0  0  0  0
   10.1867  -13.0898   28.7735 O   0  0  0  0  0  0  0  0  0  0  0  0
  1  2  1  0
  2  3  2  0
  4  2  1  0
  4  5  1  0
  6  5  1  0
  6  7  1  0
  7  8  1  0
  8 10  1  0
  8  9  1  1
 10 11  2  0
 13 12  1  0
 14 13  1  1
 14 16  1  0
 15 10  1  0
 15 14  1  0
 16 22  1  0
 16 17  2  0
 19 18  1  1
 19 21  1  0
 20 19  1  0
 21 23  1  0
 21 22  1  6
 23 24  2  0
 23 25  1  0
M  END
$$$$
