RSV.pdb
     RDKit          3D

 25 24  0  0  1  0  0  0  0  0999 V2000
   10.1019  -14.4401   17.4025 N   0  0  0  0  0  0  0  0  0  0  0  0
    8.9568  -14.0897   16.6120 C   0  0  0  0  0  0  0  0  0  0  0  0
    8.8133  -14.5422   15.4166 N   0  0  0  0  0  0  0  0  0  0  0  0
    7.9544  -13.2331   17.1359 N   0  0  0  0  0  0  0  0  0  0  0  0
    7.5712  -13.3254   18.5224 C   0  0  0  0  0  0  0  0  0  0  0  0
    7.5181  -14.8264   18.8392 C   0  0  0  0  0  0  0  0  0  0  0  0
    7.0126  -15.0218   20.2483 C   0  0  0  0  0  0  0  0  0  0  0  0
    6.9122  -16.4598   20.6349 C   0  0  2  0  0  0  0  0  0  0  0  0
    5.9118  -17.1738   19.8696 N   0  0  0  0  0  0  0  0  0  0  0  0
    6.5777  -16.4972   22.1025 C   0  0  0  0  0  0  0  0  0  0  0  0
    5.3738  -16.3856   22.4602 O   0  0  0  0  0  0  0  0  0  0  0  0
    8.0013  -14.2742   14.8557 O   0  0  0  0  0  0  0  0  0  0  0  0
    8.7811  -18.2936   25.0404 C   0  0  0  0  0  0  0  0  0  0  0  0
    7.4695  -17.8649   25.2329 C   0  0  1  0  0  0  0  0  0  0  0  0
    7.2257  -16.5614   24.5015 N   0  0  0  0  0  0  0  0  0  0  0  0
    7.5543  -16.6522   23.1051 C   0  0  0  0  0  0  0  0  0  0  0  0
    7.9682  -15.4459   25.1057 O   0  0  0  0  0  0  0  0  0  0  0  0
    9.1266  -15.1943   24.6898 C   0  0  0  0  0  0  0  0  0  0  0  0
    6.2705  -12.7694   27.8367 C   0  0  1  0  0  0  0  0  0  0  0  0
    7.4634  -12.4027   26.9612 C   0  0  0  0  0  0  0  0  0  0  0  0
    7.0121  -11.8253   25.6570 C   0  0  1  0  0  0  0  0  0  0  0  0
    8.3017  -13.6500   26.7565 N   0  0  0  0  0  0  0  0  0  0  0  0
    7.4470  -14.6284   26.1425 C   0  0  0  0  0  0  0  0  0  0  0  0
    8.9127  -14.1173   28.0081 O   0  0  0  0  0  0  0  0  0  0  0  0
    8.4992  -15.1576   28.5651 O   0  0  0  0  0  0  0  0  0  0  0  0
  1  2  1  0
  2  3  2  0
  4  2  1  0
  4  5  1  0
  6  5  1  0
  6  7  1  0
  7  8  1  0
  8 10  1  0
  8  9  1  6
 10 11  2  0
 13 12  1  0
 14 13  1  6
 14 16  1  0
 15 10  1  0
 15 14  1  0
 16 22  1  0
 16 17  2  0
 19 18  1  1
 19 21  1  0
 20 19  1  0
 21 23  1  0
 21 22  1  6
 23 24  2  0
 23 25  1  0
M  END
$$$$
