KGG.pdb
     RDKit          3D

 18 17  0  0  1  0  0  0  0  0999 V2000
    3.9872  -20.2689   22.6497 N   0  0  0  0  0  0  0  0  0  0  0  0
    4.1987  -19.1351   21.8523 C   0  0  1  0  0  0  0  0  0  0  0  0
    3.0481  -18.2863   21.4674 C   0  0  0  0  0  0  0  0  0  0  0  0
    1.8653  -18.9150   20.8773 C   0  0  0  0  0  0  0  0  0  0  0  0
    1.7785  -19.3951   19.5127 C   0  0  0  0  0  0  0  0  0  0  0  0
    0.5897  -20.0019   18.9134 C   0  0  0  0  0  0  0  0  0  0  0  0
    0.7463  -20.5823   17.6042 N   0  0  0  0  0  0  0  0  0  0  0  0
    5.2685  -18.2297   22.4525 C   0  0  0  0  0  0  0  0  0  0  0  0
    5.8087  -17.3356   21.7532 O   0  0  0  0  0  0  0  0  0  0  0  0
    5.6872  -18.3601   23.7993 N   0  0  0  0  0  0  0  0  0  0  0  0
    6.6685  -17.4636   24.3750 C   0  0  0  0  0  0  0  0  0  0  0  0
    7.0947  -17.9111   25.7253 C   0  0  0  0  0  0  0  0  0  0  0  0
    6.3916  -18.7775   26.3041 O   0  0  0  0  0  0  0  0  0  0  0  0
    8.2335  -17.4231   26.3886 N   0  0  0  0  0  0  0  0  0  0  0  0
    8.5152  -17.6485   27.7883 C   0  0  0  0  0  0  0  0  0  0  0  0
    9.3954  -18.8200   27.9093 C   0  0  0  0  0  0  0  0  0  0  0  0
    9.7262  -19.2939   29.1599 O   0  0  0  0  0  0  0  0  0  0  0  0
    9.8462  -19.3904   26.8989 O   0  0  0  0  0  0  0  0  0  0  0  0
  2  1  1  1
  3  2  1  0
  4  3  1  0
  5  6  1  0
  5  4  1  0
  7  6  1  0
  8  2  1  0
  8  9  2  0
 10  8  1  0
 11 10  1  0
 11 12  1  0
 12 14  1  0
 13 12  2  0
 14 15  1  0
 15 16  1  0
 16 17  1  0
 18 16  2  0
M  END
$$$$
