KGG.pdb
     RDKit          3D

 18 17  0  0  1  0  0  0  0  0999 V2000
    6.7777  -18.6629   24.1454 N   0  0  0  0  0  0  0  0  0  0  0  0
    6.3744  -17.3201   24.1554 C   0  0  1  0  0  0  0  0  0  0  0  0
    6.8643  -16.4169   25.2217 C   0  0  0  0  0  0  0  0  0  0  0  0
    7.3801  -16.9952   26.4635 C   0  0  0  0  0  0  0  0  0  0  0  0
    8.7387  -17.4610   26.6563 C   0  0  0  0  0  0  0  0  0  0  0  0
    9.2646  -18.0122   27.9054 C   0  0  0  0  0  0  0  0  0  0  0  0
   10.6150  -18.5133   27.8768 N   0  0  0  0  0  0  0  0  0  0  0  0
    6.6481  -16.6513   22.8129 C   0  0  0  0  0  0  0  0  0  0  0  0
    6.7563  -17.3437   21.7692 O   0  0  0  0  0  0  0  0  0  0  0  0
    6.7885  -15.2470   22.6931 N   0  0  0  0  0  0  0  0  0  0  0  0
    6.8809  -14.6052   21.3980 C   0  0  0  0  0  0  0  0  0  0  0  0
    8.2781  -14.5818   20.8959 C   0  0  0  0  0  0  0  0  0  0  0  0
    8.5000  -13.9906   19.8091 O   0  0  0  0  0  0  0  0  0  0  0  0
    9.3602  -15.1801   21.5637 N   0  0  0  0  0  0  0  0  0  0  0  0
   10.7204  -15.1697   21.0751 C   0  0  0  0  0  0  0  0  0  0  0  0
   11.5842  -15.8202   22.0713 C   0  0  0  0  0  0  0  0  0  0  0  0
   12.6471  -16.5888   21.6494 O   0  0  0  0  0  0  0  0  0  0  0  0
   11.3699  -15.6873   23.2902 O   0  0  0  0  0  0  0  0  0  0  0  0
  2  1  1  6
  3  2  1  0
  4  3  1  0
  5  6  1  0
  5  4  1  0
  7  6  1  0
  8  2  1  0
  8  9  2  0
 10  8  1  0
 11 10  1  0
 11 12  1  0
 12 14  1  0
 13 12  2  0
 14 15  1  0
 15 16  1  0
 16 17  1  0
 18 16  2  0
M  END
$$$$
