KGG.pdb
     RDKit          3D

 18 17  0  0  1  0  0  0  0  0999 V2000
    8.4129  -17.5158   22.0079 N   0  0  0  0  0  0  0  0  0  0  0  0
    9.0594  -16.2979   22.2624 C   0  0  1  0  0  0  0  0  0  0  0  0
   10.0129  -16.1975   23.3907 C   0  0  0  0  0  0  0  0  0  0  0  0
    9.6784  -16.8356   24.6649 C   0  0  0  0  0  0  0  0  0  0  0  0
   10.5759  -16.9395   25.7978 C   0  0  0  0  0  0  0  0  0  0  0  0
   10.2435  -17.5758   27.0727 C   0  0  0  0  0  0  0  0  0  0  0  0
   11.2956  -17.6537   28.0538 N   0  0  0  0  0  0  0  0  0  0  0  0
    9.7554  -15.7705   21.0127 C   0  0  0  0  0  0  0  0  0  0  0  0
    9.9002  -16.5103   20.0067 O   0  0  0  0  0  0  0  0  0  0  0  0
   10.2570  -14.4479   20.9393 N   0  0  0  0  0  0  0  0  0  0  0  0
   10.8621  -13.9360   19.7270 C   0  0  0  0  0  0  0  0  0  0  0  0
   12.2047  -14.5256   19.4928 C   0  0  0  0  0  0  0  0  0  0  0  0
   12.3034  -15.4316   18.6271 O   0  0  0  0  0  0  0  0  0  0  0  0
   13.3644  -14.1299   20.1807 N   0  0  0  0  0  0  0  0  0  0  0  0
   14.6777  -14.6842   19.9416 C   0  0  0  0  0  0  0  0  0  0  0  0
   15.3889  -14.7820   21.2248 C   0  0  0  0  0  0  0  0  0  0  0  0
   16.6157  -14.1719   21.3689 O   0  0  0  0  0  0  0  0  0  0  0  0
   14.8993  -15.4076   22.1832 O   0  0  0  0  0  0  0  0  0  0  0  0
  2  1  1  6
  3  2  1  0
  4  3  1  0
  5  6  1  0
  5  4  1  0
  7  6  1  0
  8  2  1  0
  8  9  2  0
 10  8  1  0
 11 10  1  0
 11 12  1  0
 12 14  1  0
 13 12  2  0
 14 15  1  0
 15 16  1  0
 16 17  1  0
 18 16  2  0
M  END
$$$$
