KGG.pdb
     RDKit          3D

 18 17  0  0  1  0  0  0  0  0999 V2000
    9.3812  -14.2632   24.1281 N   0  0  0  0  0  0  0  0  0  0  0  0
    8.1029  -14.6852   23.7362 C   0  0  1  0  0  0  0  0  0  0  0  0
    6.9132  -14.1892   24.4647 C   0  0  0  0  0  0  0  0  0  0  0  0
    7.0984  -13.2702   25.5890 C   0  0  0  0  0  0  0  0  0  0  0  0
    6.0256  -12.7270   26.3978 C   0  0  0  0  0  0  0  0  0  0  0  0
    6.2107  -11.8376   27.5446 C   0  0  0  0  0  0  0  0  0  0  0  0
    5.0177  -11.3620   28.1972 N   0  0  0  0  0  0  0  0  0  0  0  0
    7.8744  -14.4454   22.2480 C   0  0  0  0  0  0  0  0  0  0  0  0
    6.9237  -15.0126   21.6522 O   0  0  0  0  0  0  0  0  0  0  0  0
    8.7114  -13.5881   21.4927 N   0  0  0  0  0  0  0  0  0  0  0  0
    8.5504  -13.4452   20.0604 C   0  0  0  0  0  0  0  0  0  0  0  0
    9.7360  -13.9497   19.3221 C   0  0  0  0  0  0  0  0  0  0  0  0
    9.7209  -13.8730   18.0676 O   0  0  0  0  0  0  0  0  0  0  0  0
   10.8675  -14.5048   19.9438 N   0  0  0  0  0  0  0  0  0  0  0  0
   12.0519  -14.9354   19.2360 C   0  0  0  0  0  0  0  0  0  0  0  0
   13.0400  -15.4103   20.2158 C   0  0  0  0  0  0  0  0  0  0  0  0
   14.3425  -15.6200   19.8189 O   0  0  0  0  0  0  0  0  0  0  0  0
   12.7175  -15.6259   21.3986 O   0  0  0  0  0  0  0  0  0  0  0  0
  2  1  1  1
  3  2  1  0
  4  3  1  0
  5  6  1  0
  5  4  1  0
  7  6  1  0
  8  2  1  0
  8  9  2  0
 10  8  1  0
 11 10  1  0
 11 12  1  0
 12 14  1  0
 13 12  2  0
 14 15  1  0
 15 16  1  0
 16 17  1  0
 18 16  2  0
M  END
$$$$
