KGG.pdb
     RDKit          3D

 18 17  0  0  1  0  0  0  0  0999 V2000
    2.8915  -23.2559   21.7349 N   0  0  0  0  0  0  0  0  0  0  0  0
    1.7765  -22.5560   22.2173 C   0  0  1  0  0  0  0  0  0  0  0  0
    1.2523  -22.8568   23.5690 C   0  0  0  0  0  0  0  0  0  0  0  0
    1.8358  -23.9634   24.3290 C   0  0  0  0  0  0  0  0  0  0  0  0
    1.3556  -24.4260   25.6157 C   0  0  0  0  0  0  0  0  0  0  0  0
    1.8703  -25.5947   26.3298 C   0  0  0  0  0  0  0  0  0  0  0  0
    1.2983  -25.8698   27.6231 N   0  0  0  0  0  0  0  0  0  0  0  0
    1.9865  -21.0490   22.1211 C   0  0  0  0  0  0  0  0  0  0  0  0
    1.0735  -20.2574   22.4679 O   0  0  0  0  0  0  0  0  0  0  0  0
    3.1990  -20.4930   21.6449 N   0  0  0  0  0  0  0  0  0  0  0  0
    3.4388  -19.0649   21.6771 C   0  0  0  0  0  0  0  0  0  0  0  0
    4.4603  -18.7030   22.6923 C   0  0  0  0  0  0  0  0  0  0  0  0
    4.8202  -17.5005   22.7580 O   0  0  0  0  0  0  0  0  0  0  0  0
    5.0439  -19.6242   23.5787 N   0  0  0  0  0  0  0  0  0  0  0  0
    6.1005  -19.2964   24.5089 C   0  0  0  0  0  0  0  0  0  0  0  0
    7.3910  -19.4004   23.8121 C   0  0  0  0  0  0  0  0  0  0  0  0
    8.3284  -18.4027   23.9674 O   0  0  0  0  0  0  0  0  0  0  0  0
    7.6498  -20.3763   23.0840 O   0  0  0  0  0  0  0  0  0  0  0  0
  2  1  1  1
  3  2  1  0
  4  3  1  0
  5  6  1  0
  5  4  1  0
  7  6  1  0
  8  2  1  0
  8  9  2  0
 10  8  1  0
 11 10  1  0
 11 12  1  0
 12 14  1  0
 13 12  2  0
 14 15  1  0
 15 16  1  0
 16 17  1  0
 18 16  2  0
M  END
$$$$
