KGG.pdb
     RDKit          3D

 18 17  0  0  1  0  0  0  0  0999 V2000
   -7.5415  -22.8020   21.4789 N   0  0  0  0  0  0  0  0  0  0  0  0
   -7.9057  -21.5583   22.0139 C   0  0  1  0  0  0  0  0  0  0  0  0
   -9.3178  -21.3042   22.3795 C   0  0  0  0  0  0  0  0  0  0  0  0
  -10.2767  -22.4090   22.3282 C   0  0  0  0  0  0  0  0  0  0  0  0
  -11.6866  -22.2949   22.6430 C   0  0  0  0  0  0  0  0  0  0  0  0
  -12.6362  -23.4079   22.6441 C   0  0  0  0  0  0  0  0  0  0  0  0
  -14.0002  -23.0979   22.9887 N   0  0  0  0  0  0  0  0  0  0  0  0
   -7.0389  -21.1991   23.2157 C   0  0  0  0  0  0  0  0  0  0  0  0
   -7.2026  -20.1044   23.8118 O   0  0  0  0  0  0  0  0  0  0  0  0
   -6.0326  -22.0714   23.6979 N   0  0  0  0  0  0  0  0  0  0  0  0
   -5.2635  -21.7547   24.8837 C   0  0  0  0  0  0  0  0  0  0  0  0
   -5.9336  -22.2385   26.1174 C   0  0  0  0  0  0  0  0  0  0  0  0
   -6.3113  -23.4370   26.1471 O   0  0  0  0  0  0  0  0  0  0  0  0
   -6.1677  -21.4362   27.2472 N   0  0  0  0  0  0  0  0  0  0  0  0
   -6.7722  -21.9145   28.4699 C   0  0  0  0  0  0  0  0  0  0  0  0
   -5.7089  -22.3938   29.3653 C   0  0  0  0  0  0  0  0  0  0  0  0
   -5.1091  -21.5131   30.2387 O   0  0  0  0  0  0  0  0  0  0  0  0
   -5.3422  -23.5832   29.3462 O   0  0  0  0  0  0  0  0  0  0  0  0
  2  1  1  1
  3  2  1  0
  4  3  1  0
  5  6  1  0
  5  4  1  0
  7  6  1  0
  8  2  1  0
  8  9  2  0
 10  8  1  0
 11 10  1  0
 11 12  1  0
 12 14  1  0
 13 12  2  0
 14 15  1  0
 15 16  1  0
 16 17  1  0
 18 16  2  0
M  END
$$$$
