KGG.pdb
     RDKit          3D

 18 17  0  0  1  0  0  0  0  0999 V2000
    8.6658  -17.0871   21.1305 N   0  0  0  0  0  0  0  0  0  0  0  0
    8.3198  -15.8794   21.7532 C   0  0  1  0  0  0  0  0  0  0  0  0
    7.5847  -14.8462   20.9887 C   0  0  0  0  0  0  0  0  0  0  0  0
    8.0532  -14.4826   19.6504 C   0  0  0  0  0  0  0  0  0  0  0  0
    7.3282  -13.6383   18.7222 C   0  0  0  0  0  0  0  0  0  0  0  0
    7.7362  -13.3681   17.3434 C   0  0  0  0  0  0  0  0  0  0  0  0
    6.8448  -12.5632   16.5478 N   0  0  0  0  0  0  0  0  0  0  0  0
    7.5640  -16.1257   23.0541 C   0  0  0  0  0  0  0  0  0  0  0  0
    6.3496  -15.8152   23.1513 O   0  0  0  0  0  0  0  0  0  0  0  0
    8.1916  -16.7045   24.1843 N   0  0  0  0  0  0  0  0  0  0  0  0
    7.4491  -16.9977   25.3928 C   0  0  0  0  0  0  0  0  0  0  0  0
    8.3308  -17.5287   26.4631 C   0  0  0  0  0  0  0  0  0  0  0  0
    9.5467  -17.6950   26.1914 O   0  0  0  0  0  0  0  0  0  0  0  0
    7.8848  -17.8539   27.7555 N   0  0  0  0  0  0  0  0  0  0  0  0
    8.7595  -18.2151   28.8480 C   0  0  0  0  0  0  0  0  0  0  0  0
    9.1397  -19.6277   28.7003 C   0  0  0  0  0  0  0  0  0  0  0  0
    9.9478  -20.2157   29.6486 O   0  0  0  0  0  0  0  0  0  0  0  0
    8.7425  -20.3006   27.7313 O   0  0  0  0  0  0  0  0  0  0  0  0
  2  1  1  6
  3  2  1  0
  4  3  1  0
  5  6  1  0
  5  4  1  0
  7  6  1  0
  8  2  1  0
  8  9  2  0
 10  8  1  0
 11 10  1  0
 11 12  1  0
 12 14  1  0
 13 12  2  0
 14 15  1  0
 15 16  1  0
 16 17  1  0
 18 16  2  0
M  END
$$$$
