EFQ.pdb
     RDKit          3D

 30 30  0  0  1  0  0  0  0  0999 V2000
    7.9002  -14.7201   20.7847 N   0  0  0  0  0  0  0  0  0  0  0  0
    8.1390  -15.8629   21.6245 C   0  0  1  0  0  0  0  0  0  0  0  0
    9.1839  -16.7410   20.9696 C   0  0  0  0  0  0  0  0  0  0  0  0
    8.7970  -17.1489   19.5808 C   0  0  0  0  0  0  0  0  0  0  0  0
    9.8046  -18.1135   19.0727 C   0  0  0  0  0  0  0  0  0  0  0  0
    9.8340  -19.3049   19.4691 O   0  0  0  0  0  0  0  0  0  0  0  0
    8.6906  -15.4363   22.9383 C   0  0  0  0  0  0  0  0  0  0  0  0
    9.5964  -14.5545   22.9496 O   0  0  0  0  0  0  0  0  0  0  0  0
   10.7541  -17.7297   18.1369 O   0  0  0  0  0  0  0  0  0  0  0  0
    8.2438  -15.9757   24.1684 N   0  0  0  0  0  0  0  0  0  0  0  0
    8.7685  -15.5171   25.4134 C   0  0  1  0  0  0  0  0  0  0  0  0
    7.7255  -15.1045   26.3957 C   0  0  0  0  0  0  0  0  0  0  0  0
    7.2535  -13.7350   26.3422 C   0  0  0  0  0  0  0  0  0  0  0  0
    5.9712  -13.4929   25.9017 C   0  0  0  0  0  0  0  0  0  0  0  0
    5.4644  -12.1962   25.8288 C   0  0  0  0  0  0  0  0  0  0  0  0
    6.2406  -11.1191   26.1986 C   0  0  0  0  0  0  0  0  0  0  0  0
    7.5187  -11.3985   26.6345 C   0  0  0  0  0  0  0  0  0  0  0  0
    8.0380  -12.6504   26.7157 C   0  0  0  0  0  0  0  0  0  0  0  0
    9.8473  -16.3777   25.9482 C   0  0  0  0  0  0  0  0  0  0  0  0
    9.6070  -17.0790   26.9935 O   0  0  0  0  0  0  0  0  0  0  0  0
    9.5036  -21.4606   24.1866 N   0  0  0  0  0  0  0  0  0  0  0  0
   10.6496  -21.2316   24.9605 C   0  0  0  0  0  0  0  0  0  0  0  0
   10.8872  -21.9075   25.9730 O   0  0  0  0  0  0  0  0  0  0  0  0
   11.6105  -20.1595   24.5729 C   0  0  0  0  0  0  0  0  0  0  0  0
   10.9648  -18.8066   24.5872 C   0  0  0  0  0  0  0  0  0  0  0  0
   11.8071  -17.8172   25.2913 C   0  0  2  0  0  0  0  0  0  0  0  0
   11.1467  -16.5167   25.4154 N   0  0  0  0  0  0  0  0  0  0  0  0
   13.1440  -17.7105   24.7172 C   0  0  0  0  0  0  0  0  0  0  0  0
   14.0401  -18.7518   25.0176 O   0  0  0  0  0  0  0  0  0  0  0  0
   13.6103  -16.8199   23.9926 O   0  0  0  0  0  0  0  0  0  0  0  0
  2  1  1  6
  3  2  1  0
  3  4  1  0
  4  5  1  0
  5  6  2  0
  5  9  1  0
  7  2  1  0
  7  8  2  0
 10  7  1  0
 11 19  1  0
 11 10  1  0
 11 12  1  1
 13 18  2  0
 13 12  1  0
 14 13  1  0
 15 14  2  0
 16 15  1  0
 16 17  2  0
 17 18  1  0
 19 27  1  0
 20 19  2  0
 22 21  1  0
 22 23  2  0
 24 25  1  0
 24 22  1  0
 26 25  1  6
 26 28  1  0
 27 26  1  0
 28 30  2  0
 28 29  1  0
M  END
$$$$
