EFQ.pdb
     RDKit          3D

 30 30  0  0  1  0  0  0  0  0999 V2000
    9.5557  -18.6350   21.6527 N   0  0  0  0  0  0  0  0  0  0  0  0
   10.7659  -17.9601   22.0375 C   0  0  1  0  0  0  0  0  0  0  0  0
   11.5567  -17.6257   20.7906 C   0  0  0  0  0  0  0  0  0  0  0  0
   10.7225  -17.7024   19.5485 C   0  0  0  0  0  0  0  0  0  0  0  0
   11.5673  -17.3270   18.3869 C   0  0  0  0  0  0  0  0  0  0  0  0
   11.1040  -17.2909   17.2201 O   0  0  0  0  0  0  0  0  0  0  0  0
   10.4511  -16.6721   22.7116 C   0  0  0  0  0  0  0  0  0  0  0  0
   11.4122  -15.9537   23.1091 O   0  0  0  0  0  0  0  0  0  0  0  0
   12.9057  -17.0013   18.5515 O   0  0  0  0  0  0  0  0  0  0  0  0
    9.1257  -16.2225   22.9238 N   0  0  0  0  0  0  0  0  0  0  0  0
    8.8249  -15.2437   23.9173 C   0  0  1  0  0  0  0  0  0  0  0  0
    7.5693  -14.4827   23.6579 C   0  0  0  0  0  0  0  0  0  0  0  0
    7.1860  -13.4673   24.6187 C   0  0  0  0  0  0  0  0  0  0  0  0
    7.8798  -12.2775   24.6377 C   0  0  0  0  0  0  0  0  0  0  0  0
    7.5556  -11.2657   25.5403 C   0  0  0  0  0  0  0  0  0  0  0  0
    6.5260  -11.4340   26.4409 C   0  0  0  0  0  0  0  0  0  0  0  0
    5.8534  -12.6370   26.3935 C   0  0  0  0  0  0  0  0  0  0  0  0
    6.1474  -13.6392   25.5258 C   0  0  0  0  0  0  0  0  0  0  0  0
    8.9992  -15.7392   25.3010 C   0  0  0  0  0  0  0  0  0  0  0  0
    9.3731  -14.9100   26.2037 O   0  0  0  0  0  0  0  0  0  0  0  0
    7.3206  -20.6821   28.7372 N   0  0  0  0  0  0  0  0  0  0  0  0
    7.3243  -20.7074   27.3357 C   0  0  0  0  0  0  0  0  0  0  0  0
    7.2117  -21.7734   26.7117 O   0  0  0  0  0  0  0  0  0  0  0  0
    7.4656  -19.4381   26.5663 C   0  0  0  0  0  0  0  0  0  0  0  0
    7.5317  -18.2461   27.4732 C   0  0  0  0  0  0  0  0  0  0  0  0
    8.7074  -17.4042   27.1683 C   0  0  2  0  0  0  0  0  0  0  0  0
    8.7890  -17.0612   25.7476 N   0  0  0  0  0  0  0  0  0  0  0  0
    9.9507  -17.9740   27.6761 C   0  0  0  0  0  0  0  0  0  0  0  0
   10.9623  -18.2151   26.7295 O   0  0  0  0  0  0  0  0  0  0  0  0
   10.2471  -18.2815   28.8394 O   0  0  0  0  0  0  0  0  0  0  0  0
  2  1  1  6
  3  2  1  0
  3  4  1  0
  4  5  1  0
  5  6  2  0
  5  9  1  0
  7  2  1  0
  7  8  2  0
 10  7  1  0
 11 19  1  0
 11 10  1  0
 11 12  1  1
 13 18  2  0
 13 12  1  0
 14 13  1  0
 15 14  2  0
 16 15  1  0
 16 17  2  0
 17 18  1  0
 19 27  1  0
 20 19  2  0
 22 21  1  0
 22 23  2  0
 24 25  1  0
 24 22  1  0
 26 25  1  6
 26 28  1  0
 27 26  1  0
 28 30  2  0
 28 29  1  0
M  END
$$$$
