EFQ.pdb
     RDKit          3D

 30 30  0  0  1  0  0  0  0  0999 V2000
   10.2272  -16.3586   19.4887 N   0  0  0  0  0  0  0  0  0  0  0  0
    9.0469  -16.6655   20.2510 C   0  0  1  0  0  0  0  0  0  0  0  0
    8.9962  -18.1591   20.4932 C   0  0  0  0  0  0  0  0  0  0  0  0
   10.3408  -18.8053   20.3546 C   0  0  0  0  0  0  0  0  0  0  0  0
   10.1792  -20.2727   20.5110 C   0  0  0  0  0  0  0  0  0  0  0  0
   10.1035  -21.0365   19.5169 O   0  0  0  0  0  0  0  0  0  0  0  0
    9.1047  -16.0102   21.5850 C   0  0  0  0  0  0  0  0  0  0  0  0
   10.1305  -16.1967   22.2999 O   0  0  0  0  0  0  0  0  0  0  0  0
   10.1057  -20.8543   21.7684 O   0  0  0  0  0  0  0  0  0  0  0  0
    8.0626  -15.1912   22.0820 N   0  0  0  0  0  0  0  0  0  0  0  0
    8.1147  -14.6417   23.3976 C   0  0  1  0  0  0  0  0  0  0  0  0
    7.0866  -13.5936   23.6580 C   0  0  0  0  0  0  0  0  0  0  0  0
    7.0281  -13.0231   24.9892 C   0  0  0  0  0  0  0  0  0  0  0  0
    7.9766  -12.0932   25.3538 C   0  0  0  0  0  0  0  0  0  0  0  0
    7.9697  -11.5119   26.6210 C   0  0  0  0  0  0  0  0  0  0  0  0
    7.0067  -11.8568   27.5445 C   0  0  0  0  0  0  0  0  0  0  0  0
    6.0734  -12.7904   27.1455 C   0  0  0  0  0  0  0  0  0  0  0  0
    6.0560  -13.3724   25.9189 C   0  0  0  0  0  0  0  0  0  0  0  0
    8.2679  -15.6653   24.4556 C   0  0  0  0  0  0  0  0  0  0  0  0
    7.5384  -16.7172   24.3973 O   0  0  0  0  0  0  0  0  0  0  0  0
   12.5431  -18.7428   23.5665 N   0  0  0  0  0  0  0  0  0  0  0  0
   12.3823  -19.2531   24.8622 C   0  0  0  0  0  0  0  0  0  0  0  0
   13.0329  -20.2345   25.2519 O   0  0  0  0  0  0  0  0  0  0  0  0
   11.4153  -18.6157   25.8010 C   0  0  0  0  0  0  0  0  0  0  0  0
   10.7294  -17.4392   25.1742 C   0  0  0  0  0  0  0  0  0  0  0  0
    9.7807  -16.8070   26.1146 C   0  0  2  0  0  0  0  0  0  0  0  0
    9.1572  -15.6090   25.5499 N   0  0  0  0  0  0  0  0  0  0  0  0
   10.3718  -16.5620   27.4257 C   0  0  0  0  0  0  0  0  0  0  0  0
   10.3521  -15.2325   27.8836 O   0  0  0  0  0  0  0  0  0  0  0  0
   10.8975  -17.3695   28.2048 O   0  0  0  0  0  0  0  0  0  0  0  0
  2  1  1  6
  3  2  1  0
  3  4  1  0
  4  5  1  0
  5  6  2  0
  5  9  1  0
  7  2  1  0
  7  8  2  0
 10  7  1  0
 11 19  1  0
 11 10  1  0
 11 12  1  1
 13 18  2  0
 13 12  1  0
 14 13  1  0
 15 14  2  0
 16 15  1  0
 16 17  2  0
 17 18  1  0
 19 27  1  0
 20 19  2  0
 22 21  1  0
 22 23  2  0
 24 25  1  0
 24 22  1  0
 26 25  1  6
 26 28  1  0
 27 26  1  0
 28 30  2  0
 28 29  1  0
M  END
$$$$
