EFQ.pdb
     RDKit          3D

 30 30  0  0  1  0  0  0  0  0999 V2000
    8.6258  -18.3657   20.2957 N   0  0  0  0  0  0  0  0  0  0  0  0
    9.9121  -17.7910   20.5850 C   0  0  1  0  0  0  0  0  0  0  0  0
   10.4202  -17.0822   19.3476 C   0  0  0  0  0  0  0  0  0  0  0  0
   10.4595  -17.9821   18.1504 C   0  0  0  0  0  0  0  0  0  0  0  0
   11.0184  -17.2216   17.0046 C   0  0  0  0  0  0  0  0  0  0  0  0
   12.1692  -16.7201   17.0457 O   0  0  0  0  0  0  0  0  0  0  0  0
    9.7942  -16.7658   21.6562 C   0  0  0  0  0  0  0  0  0  0  0  0
   10.8402  -16.1551   22.0184 O   0  0  0  0  0  0  0  0  0  0  0  0
   10.2843  -17.0374   15.8419 O   0  0  0  0  0  0  0  0  0  0  0  0
    8.5644  -16.4492   22.2817 N   0  0  0  0  0  0  0  0  0  0  0  0
    8.4999  -15.5204   23.3627 C   0  0  1  0  0  0  0  0  0  0  0  0
    7.5534  -14.3909   23.1358 C   0  0  0  0  0  0  0  0  0  0  0  0
    7.5251  -13.7902   21.8169 C   0  0  0  0  0  0  0  0  0  0  0  0
    8.2151  -12.6165   21.6084 C   0  0  0  0  0  0  0  0  0  0  0  0
    8.2225  -11.9937   20.3612 C   0  0  0  0  0  0  0  0  0  0  0  0
    7.5347  -12.5424   19.3004 C   0  0  0  0  0  0  0  0  0  0  0  0
    6.8554  -13.7173   19.5450 C   0  0  0  0  0  0  0  0  0  0  0  0
    6.8308  -14.3452   20.7486 C   0  0  0  0  0  0  0  0  0  0  0  0
    8.4157  -16.1696   24.6901 C   0  0  0  0  0  0  0  0  0  0  0  0
    8.4721  -15.4307   25.7356 O   0  0  0  0  0  0  0  0  0  0  0  0
    6.7025  -21.9935   26.6726 N   0  0  0  0  0  0  0  0  0  0  0  0
    7.1182  -21.3432   27.8427 C   0  0  0  0  0  0  0  0  0  0  0  0
    7.0251  -21.8923   28.9510 O   0  0  0  0  0  0  0  0  0  0  0  0
    7.6848  -19.9661   27.7706 C   0  0  0  0  0  0  0  0  0  0  0  0
    7.6514  -19.4267   26.3722 C   0  0  0  0  0  0  0  0  0  0  0  0
    8.3300  -18.1167   26.2856 C   0  0  2  0  0  0  0  0  0  0  0  0
    8.2722  -17.5517   24.9365 N   0  0  0  0  0  0  0  0  0  0  0  0
    9.6884  -18.1539   26.8162 C   0  0  0  0  0  0  0  0  0  0  0  0
    9.8233  -17.9862   28.2059 O   0  0  0  0  0  0  0  0  0  0  0  0
   10.7565  -18.3134   26.2086 O   0  0  0  0  0  0  0  0  0  0  0  0
  2  1  1  6
  3  2  1  0
  3  4  1  0
  4  5  1  0
  5  6  2  0
  5  9  1  0
  7  2  1  0
  7  8  2  0
 10  7  1  0
 11 19  1  0
 11 10  1  0
 11 12  1  6
 13 18  2  0
 13 12  1  0
 14 13  1  0
 15 14  2  0
 16 15  1  0
 16 17  2  0
 17 18  1  0
 19 27  1  0
 20 19  2  0
 22 21  1  0
 22 23  2  0
 24 25  1  0
 24 22  1  0
 26 25  1  6
 26 28  1  0
 27 26  1  0
 28 30  2  0
 28 29  1  0
M  END
$$$$
