EFQ.pdb
     RDKit          3D

 30 30  0  0  1  0  0  0  0  0999 V2000
   10.5659  -16.5924   19.4868 N   0  0  0  0  0  0  0  0  0  0  0  0
    9.2506  -16.5166   20.0633 C   0  0  1  0  0  0  0  0  0  0  0  0
    8.7005  -17.9192   20.2118 C   0  0  0  0  0  0  0  0  0  0  0  0
    9.7398  -18.8933   20.6763 C   0  0  0  0  0  0  0  0  0  0  0  0
    9.1041  -20.2259   20.8310 C   0  0  0  0  0  0  0  0  0  0  0  0
    8.6701  -20.8671   19.8422 O   0  0  0  0  0  0  0  0  0  0  0  0
    9.3141  -15.9274   21.4275 C   0  0  0  0  0  0  0  0  0  0  0  0
   10.3937  -16.0343   22.0764 O   0  0  0  0  0  0  0  0  0  0  0  0
    8.9669  -20.8121   22.0809 O   0  0  0  0  0  0  0  0  0  0  0  0
    8.2197  -15.2560   22.0238 N   0  0  0  0  0  0  0  0  0  0  0  0
    8.3169  -14.6969   23.3328 C   0  0  1  0  0  0  0  0  0  0  0  0
    7.2651  -13.6855   23.6395 C   0  0  0  0  0  0  0  0  0  0  0  0
    7.2644  -13.0943   24.9630 C   0  0  0  0  0  0  0  0  0  0  0  0
    6.2934  -13.4801   25.8604 C   0  0  0  0  0  0  0  0  0  0  0  0
    6.2435  -12.9444   27.1466 C   0  0  0  0  0  0  0  0  0  0  0  0
    7.1715  -12.0098   27.5524 C   0  0  0  0  0  0  0  0  0  0  0  0
    8.1287  -11.6471   26.6284 C   0  0  0  0  0  0  0  0  0  0  0  0
    8.2012  -12.1520   25.3700 C   0  0  0  0  0  0  0  0  0  0  0  0
    8.5599  -15.7077   24.3862 C   0  0  0  0  0  0  0  0  0  0  0  0
    7.6699  -16.6079   24.5852 O   0  0  0  0  0  0  0  0  0  0  0  0
   12.3556  -18.9758   23.8530 N   0  0  0  0  0  0  0  0  0  0  0  0
   12.9313  -17.8642   24.4835 C   0  0  0  0  0  0  0  0  0  0  0  0
   14.0550  -17.4513   24.1588 O   0  0  0  0  0  0  0  0  0  0  0  0
   12.1924  -17.1540   25.5663 C   0  0  0  0  0  0  0  0  0  0  0  0
   10.8860  -17.8219   25.8744 C   0  0  0  0  0  0  0  0  0  0  0  0
    9.8490  -16.8326   26.2347 C   0  0  2  0  0  0  0  0  0  0  0  0
    9.6984  -15.7926   25.2157 N   0  0  0  0  0  0  0  0  0  0  0  0
   10.0432  -16.2795   27.5707 C   0  0  0  0  0  0  0  0  0  0  0  0
   10.1788  -17.2067   28.6193 O   0  0  0  0  0  0  0  0  0  0  0  0
   10.1057  -15.0920   27.9192 O   0  0  0  0  0  0  0  0  0  0  0  0
  2  1  1  1
  3  2  1  0
  3  4  1  0
  4  5  1  0
  5  6  2  0
  5  9  1  0
  7  2  1  0
  7  8  2  0
 10  7  1  0
 11 19  1  0
 11 10  1  0
 11 12  1  1
 13 18  2  0
 13 12  1  0
 14 13  1  0
 15 14  2  0
 16 15  1  0
 16 17  2  0
 17 18  1  0
 19 27  1  0
 20 19  2  0
 22 21  1  0
 22 23  2  0
 24 25  1  0
 24 22  1  0
 26 25  1  6
 26 28  1  0
 27 26  1  0
 28 30  2  0
 28 29  1  0
M  END
$$$$
