EFQ.pdb
     RDKit          3D

 30 30  0  0  1  0  0  0  0  0999 V2000
    9.3595  -17.5638   20.5230 N   0  0  0  0  0  0  0  0  0  0  0  0
   10.4346  -17.5896   21.4779 C   0  0  1  0  0  0  0  0  0  0  0  0
   11.7271  -17.2473   20.7680 C   0  0  0  0  0  0  0  0  0  0  0  0
   11.8900  -18.0023   19.4841 C   0  0  0  0  0  0  0  0  0  0  0  0
   13.1891  -17.6235   18.8737 C   0  0  0  0  0  0  0  0  0  0  0  0
   14.1729  -18.4042   18.8817 O   0  0  0  0  0  0  0  0  0  0  0  0
   10.2253  -16.5535   22.5243 C   0  0  0  0  0  0  0  0  0  0  0  0
   11.1870  -16.2814   23.2984 O   0  0  0  0  0  0  0  0  0  0  0  0
   13.3622  -16.3865   18.2699 O   0  0  0  0  0  0  0  0  0  0  0  0
    8.9993  -15.8647   22.6861 N   0  0  0  0  0  0  0  0  0  0  0  0
    8.7418  -15.0709   23.8433 C   0  0  1  0  0  0  0  0  0  0  0  0
    7.6138  -14.1095   23.6803 C   0  0  0  0  0  0  0  0  0  0  0  0
    7.2097  -13.3417   24.8414 C   0  0  0  0  0  0  0  0  0  0  0  0
    7.8165  -12.1278   25.0770 C   0  0  0  0  0  0  0  0  0  0  0  0
    7.4684  -11.3470   26.1783 C   0  0  0  0  0  0  0  0  0  0  0  0
    6.5021  -11.7750   27.0628 C   0  0  0  0  0  0  0  0  0  0  0  0
    5.9159  -12.9944   26.7960 C   0  0  0  0  0  0  0  0  0  0  0  0
    6.2350  -13.7752   25.7320 C   0  0  0  0  0  0  0  0  0  0  0  0
    8.7421  -15.8503   25.1015 C   0  0  0  0  0  0  0  0  0  0  0  0
    7.8946  -16.8029   25.2296 O   0  0  0  0  0  0  0  0  0  0  0  0
   11.6485  -20.1112   26.1242 N   0  0  0  0  0  0  0  0  0  0  0  0
   12.4282  -18.9895   26.4384 C   0  0  0  0  0  0  0  0  0  0  0  0
   13.6586  -18.9978   26.2824 O   0  0  0  0  0  0  0  0  0  0  0  0
   11.7817  -17.7560   26.9708 C   0  0  0  0  0  0  0  0  0  0  0  0
   10.2868  -17.8705   26.9696 C   0  0  0  0  0  0  0  0  0  0  0  0
    9.6498  -16.5873   27.3324 C   0  0  2  0  0  0  0  0  0  0  0  0
    9.6004  -15.6556   26.2046 N   0  0  0  0  0  0  0  0  0  0  0  0
   10.2385  -15.9877   28.5250 C   0  0  0  0  0  0  0  0  0  0  0  0
   10.3384  -16.8144   29.6582 O   0  0  0  0  0  0  0  0  0  0  0  0
   10.6686  -14.8366   28.6852 O   0  0  0  0  0  0  0  0  0  0  0  0
  2  1  1  6
  3  2  1  0
  3  4  1  0
  4  5  1  0
  5  6  2  0
  5  9  1  0
  7  2  1  0
  7  8  2  0
 10  7  1  0
 11 19  1  0
 11 10  1  0
 11 12  1  6
 13 18  2  0
 13 12  1  0
 14 13  1  0
 15 14  2  0
 16 15  1  0
 16 17  2  0
 17 18  1  0
 19 27  1  0
 20 19  2  0
 22 21  1  0
 22 23  2  0
 24 25  1  0
 24 22  1  0
 26 25  1  6
 26 28  1  0
 27 26  1  0
 28 30  2  0
 28 29  1  0
M  END
$$$$
