WPY.pdb
     RDKit          3D

 34 37  0  0  1  0  0  0  0  0999 V2000
    6.2404  -18.4668   24.6430 N   0  0  0  0  0  0  0  0  0  0  0  0
    6.8695  -17.2359   24.3182 C   0  0  1  0  0  0  0  0  0  0  0  0
    7.5675  -16.7293   25.5628 C   0  0  0  0  0  0  0  0  0  0  0  0
    6.9367  -15.4914   26.0785 C   0  0  0  0  0  0  0  0  0  0  0  0
    5.6642  -15.3952   26.5999 C   0  0  0  0  0  0  0  0  0  0  0  0
    5.3977  -14.1455   26.9734 N   0  0  0  0  0  0  0  0  0  0  0  0
    6.4915  -13.4167   26.6997 C   0  0  0  0  0  0  0  0  0  0  0  0
    6.7546  -12.0900   26.8812 C   0  0  0  0  0  0  0  0  0  0  0  0
    7.9746  -11.5720   26.5123 C   0  0  0  0  0  0  0  0  0  0  0  0
    8.9303  -12.3867   25.9611 C   0  0  0  0  0  0  0  0  0  0  0  0
    8.7039  -13.7366   25.7602 C   0  0  0  0  0  0  0  0  0  0  0  0
    7.4689  -14.2154   26.1435 C   0  0  0  0  0  0  0  0  0  0  0  0
    7.7223  -17.2180   23.1340 C   0  0  0  0  0  0  0  0  0  0  0  0
    8.0164  -18.3693   22.6518 O   0  0  0  0  0  0  0  0  0  0  0  0
    8.2532  -16.0888   22.4687 N   0  0  0  0  0  0  0  0  0  0  0  0
    8.0412  -14.6846   22.7045 C   0  0  0  0  0  0  0  0  0  0  0  0
    8.1836  -14.0698   21.3311 C   0  0  0  0  0  0  0  0  0  0  0  0
    8.5671  -15.1686   20.3993 C   0  0  0  0  0  0  0  0  0  0  0  0
    9.1755  -16.1695   21.3608 C   0  0  1  0  0  0  0  0  0  0  0  0
   10.5211  -15.7894   21.8319 C   0  0  0  0  0  0  0  0  0  0  0  0
   11.0803  -14.7904   21.3548 O   0  0  0  0  0  0  0  0  0  0  0  0
    9.2018  -15.9231   29.3252 O   0  0  0  0  0  0  0  0  0  0  0  0
    9.8117  -15.6336   28.1128 C   0  0  0  0  0  0  0  0  0  0  0  0
   10.3394  -14.3914   27.8101 C   0  0  0  0  0  0  0  0  0  0  0  0
   10.9383  -14.1395   26.5951 C   0  0  0  0  0  0  0  0  0  0  0  0
   11.0354  -15.1189   25.6299 C   0  0  0  0  0  0  0  0  0  0  0  0
   11.6838  -14.7782   24.3507 C   0  0  0  0  0  0  0  0  0  0  0  0
   12.2914  -15.9796   23.6435 C   0  0  2  0  0  0  0  0  0  0  0  0
   11.2271  -16.5248   22.8268 N   0  0  0  0  0  0  0  0  0  0  0  0
   12.7019  -17.0350   24.6045 C   0  0  0  0  0  0  0  0  0  0  0  0
   11.9492  -18.0327   24.8732 O   0  0  0  0  0  0  0  0  0  0  0  0
   10.5185  -16.3618   25.9065 C   0  0  0  0  0  0  0  0  0  0  0  0
    9.9297  -16.5870   27.1182 C   0  0  0  0  0  0  0  0  0  0  0  0
   13.9173  -17.0302   25.2816 O   0  0  0  0  0  0  0  0  0  0  0  0
  2  1  1  1
  2 13  1  0
  2  3  1  0
  4  3  1  0
  4  5  2  0
  6  5  1  0
  7  6  1  0
  8  7  2  0
  9  8  1  0
 10  9  2  0
 10 11  1  0
 11 12  2  0
 12  7  1  0
 12  4  1  0
 13 14  2  0
 15 13  1  0
 15 16  1  0
 17 16  1  0
 18 19  1  0
 18 17  1  0
 19 15  1  0
 19 20  1  1
 21 20  2  0
 22 23  1  0
 23 24  2  0
 24 25  1  0
 26 27  1  0
 26 25  2  0
 28 27  1  1
 28 29  1  0
 29 20  1  0
 30 28  1  0
 31 30  2  0
 32 26  1  0
 33 32  2  0
 33 23  1  0
 34 30  1  0
M  END
$$$$
