WPY.pdb
     RDKit          3D

 34 37  0  0  1  0  0  0  0  0999 V2000
    5.8617  -18.3844   24.0426 N   0  0  0  0  0  0  0  0  0  0  0  0
    6.5838  -17.1702   23.8991 C   0  0  1  0  0  0  0  0  0  0  0  0
    7.1749  -16.8201   25.2485 C   0  0  0  0  0  0  0  0  0  0  0  0
    6.5620  -15.5947   25.8132 C   0  0  0  0  0  0  0  0  0  0  0  0
    5.3838  -15.5413   26.5271 C   0  0  0  0  0  0  0  0  0  0  0  0
    5.1069  -14.2917   26.8931 N   0  0  0  0  0  0  0  0  0  0  0  0
    6.0997  -13.5201   26.4223 C   0  0  0  0  0  0  0  0  0  0  0  0
    6.3102  -12.1747   26.5114 C   0  0  0  0  0  0  0  0  0  0  0  0
    7.4247  -11.6112   25.9342 C   0  0  0  0  0  0  0  0  0  0  0  0
    8.3277  -12.3991   25.2674 C   0  0  0  0  0  0  0  0  0  0  0  0
    8.1516  -13.7666   25.1540 C   0  0  0  0  0  0  0  0  0  0  0  0
    7.0223  -14.2912   25.7464 C   0  0  0  0  0  0  0  0  0  0  0  0
    7.5540  -17.0990   22.8113 C   0  0  0  0  0  0  0  0  0  0  0  0
    7.8908  -18.2263   22.3012 O   0  0  0  0  0  0  0  0  0  0  0  0
    8.1558  -15.9419   22.2647 N   0  0  0  0  0  0  0  0  0  0  0  0
    8.0066  -14.5563   22.6257 C   0  0  0  0  0  0  0  0  0  0  0  0
    8.2133  -13.8261   21.3187 C   0  0  0  0  0  0  0  0  0  0  0  0
    8.5660  -14.8528   20.2968 C   0  0  0  0  0  0  0  0  0  0  0  0
    9.1006  -15.9674   21.1732 C   0  0  1  0  0  0  0  0  0  0  0  0
   10.4509  -15.7010   21.7051 C   0  0  0  0  0  0  0  0  0  0  0  0
   11.1096  -14.7483   21.2615 O   0  0  0  0  0  0  0  0  0  0  0  0
   10.0507  -16.2917   29.6576 O   0  0  0  0  0  0  0  0  0  0  0  0
   10.4386  -15.9454   28.3710 C   0  0  0  0  0  0  0  0  0  0  0  0
   11.0208  -14.7302   28.0587 C   0  0  0  0  0  0  0  0  0  0  0  0
   11.3937  -14.4202   26.7690 C   0  0  0  0  0  0  0  0  0  0  0  0
   11.2004  -15.3118   25.7357 C   0  0  0  0  0  0  0  0  0  0  0  0
   11.6180  -14.9119   24.3798 C   0  0  0  0  0  0  0  0  0  0  0  0
   12.1584  -16.0660   23.5499 C   0  0  2  0  0  0  0  0  0  0  0  0
   11.0508  -16.4972   22.7226 N   0  0  0  0  0  0  0  0  0  0  0  0
   12.5550  -17.2175   24.4000 C   0  0  0  0  0  0  0  0  0  0  0  0
   13.5841  -17.1745   25.1572 O   0  0  0  0  0  0  0  0  0  0  0  0
   10.6236  -16.5262   26.0203 C   0  0  0  0  0  0  0  0  0  0  0  0
   10.2626  -16.8104   27.3065 C   0  0  0  0  0  0  0  0  0  0  0  0
   11.8547  -18.4188   24.4460 O   0  0  0  0  0  0  0  0  0  0  0  0
  2  1  1  1
  2 13  1  0
  2  3  1  0
  4  3  1  0
  4  5  2  0
  6  5  1  0
  7  6  1  0
  8  7  2  0
  9  8  1  0
 10  9  2  0
 10 11  1  0
 11 12  2  0
 12  7  1  0
 12  4  1  0
 13 14  2  0
 15 13  1  0
 15 16  1  0
 17 16  1  0
 18 19  1  0
 18 17  1  0
 19 15  1  0
 19 20  1  1
 21 20  2  0
 22 23  1  0
 23 24  2  0
 24 25  1  0
 26 27  1  0
 26 25  2  0
 28 27  1  1
 28 29  1  0
 29 20  1  0
 30 28  1  0
 31 30  2  0
 32 26  1  0
 33 32  2  0
 33 23  1  0
 34 30  1  0
M  END
$$$$
