WPY.pdb
     RDKit          3D

 34 37  0  0  1  0  0  0  0  0999 V2000
    6.5958  -18.1383   25.4505 N   0  0  0  0  0  0  0  0  0  0  0  0
    6.3374  -17.3125   24.3246 C   0  0  1  0  0  0  0  0  0  0  0  0
    5.8478  -15.9734   24.8345 C   0  0  0  0  0  0  0  0  0  0  0  0
    6.8610  -15.3089   25.6877 C   0  0  0  0  0  0  0  0  0  0  0  0
    7.8649  -15.9450   26.3863 C   0  0  0  0  0  0  0  0  0  0  0  0
    8.6067  -15.0662   27.0569 N   0  0  0  0  0  0  0  0  0  0  0  0
    8.0945  -13.8515   26.8025 C   0  0  0  0  0  0  0  0  0  0  0  0
    8.4688  -12.6116   27.2324 C   0  0  0  0  0  0  0  0  0  0  0  0
    7.7700  -11.4995   26.8230 C   0  0  0  0  0  0  0  0  0  0  0  0
    6.6952  -11.6329   25.9817 C   0  0  0  0  0  0  0  0  0  0  0  0
    6.2830  -12.8713   25.5229 C   0  0  0  0  0  0  0  0  0  0  0  0
    7.0102  -13.9595   25.9568 C   0  0  0  0  0  0  0  0  0  0  0  0
    7.3984  -17.1951   23.3296 C   0  0  0  0  0  0  0  0  0  0  0  0
    7.9896  -18.2916   23.0252 O   0  0  0  0  0  0  0  0  0  0  0  0
    7.8413  -16.0235   22.6730 N   0  0  0  0  0  0  0  0  0  0  0  0
    7.4517  -14.6499   22.8566 C   0  0  0  0  0  0  0  0  0  0  0  0
    7.6202  -14.0476   21.4807 C   0  0  0  0  0  0  0  0  0  0  0  0
    8.1945  -15.1104   20.6069 C   0  0  0  0  0  0  0  0  0  0  0  0
    8.8440  -16.0154   21.6342 C   0  0  1  0  0  0  0  0  0  0  0  0
   10.0992  -15.4714   22.1872 C   0  0  0  0  0  0  0  0  0  0  0  0
   10.2040  -14.2525   22.3911 O   0  0  0  0  0  0  0  0  0  0  0  0
    9.3854  -14.6320   29.3007 O   0  0  0  0  0  0  0  0  0  0  0  0
    9.9496  -15.2247   28.1800 C   0  0  0  0  0  0  0  0  0  0  0  0
   10.1020  -16.5927   28.0447 C   0  0  0  0  0  0  0  0  0  0  0  0
   10.6670  -17.1468   26.9168 C   0  0  0  0  0  0  0  0  0  0  0  0
   11.1043  -16.3567   25.8752 C   0  0  0  0  0  0  0  0  0  0  0  0
   11.7040  -17.0163   24.7013 C   0  0  0  0  0  0  0  0  0  0  0  0
   12.1236  -16.0428   23.6110 C   0  0  2  0  0  0  0  0  0  0  0  0
   11.2209  -16.2895   22.5059 N   0  0  0  0  0  0  0  0  0  0  0  0
   13.5023  -16.3148   23.1303 C   0  0  0  0  0  0  0  0  0  0  0  0
   13.7360  -17.1407   22.1830 O   0  0  0  0  0  0  0  0  0  0  0  0
   10.9639  -14.9942   25.9856 C   0  0  0  0  0  0  0  0  0  0  0  0
   10.4007  -14.4688   27.1135 C   0  0  0  0  0  0  0  0  0  0  0  0
   14.6367  -15.7062   23.6581 O   0  0  0  0  0  0  0  0  0  0  0  0
  2  1  1  1
  2 13  1  0
  2  3  1  0
  4  3  1  0
  4  5  2  0
  6  5  1  0
  7  6  1  0
  8  7  2  0
  9  8  1  0
 10  9  2  0
 10 11  1  0
 11 12  2  0
 12  7  1  0
 12  4  1  0
 13 14  2  0
 15 13  1  0
 15 16  1  0
 17 16  1  0
 18 19  1  0
 18 17  1  0
 19 15  1  0
 19 20  1  1
 21 20  2  0
 22 23  1  0
 23 24  2  0
 24 25  1  0
 26 27  1  0
 26 25  2  0
 28 27  1  1
 28 29  1  0
 29 20  1  0
 30 28  1  0
 31 30  2  0
 32 26  1  0
 33 32  2  0
 33 23  1  0
 34 30  1  0
M  END
$$$$
