PKS.pdb
     RDKit          3D

 23 23  0  0  1  0  0  0  0  0999 V2000
   22.4049  -21.3965  -14.4549 N   0  0  0  0  0  0  0  0  0  0  0  0
   22.9566  -20.1035  -14.8881 C   0  0  0  0  0  0  0  0  0  0  0  0
   21.7593  -19.1608  -14.9377 C   0  0  0  0  0  0  0  0  0  0  0  0
   20.6756  -19.9084  -14.1905 C   0  0  0  0  0  0  0  0  0  0  0  0
   21.4672  -20.9501  -13.4343 C   0  0  1  0  0  0  0  0  0  0  0  0
   20.6110  -22.0601  -12.9572 C   0  0  0  0  0  0  0  0  0  0  0  0
   20.4298  -23.0256  -13.7283 O   0  0  0  0  0  0  0  0  0  0  0  0
   19.9883  -22.0969  -11.6906 N   0  0  0  0  0  0  0  0  0  0  0  0
   19.1314  -23.2013  -11.2702 C   0  0  1  0  0  0  0  0  0  0  0  0
   19.3338  -23.3535   -9.7775 C   0  0  0  0  0  0  0  0  0  0  0  0
   18.4469  -24.3982   -9.1817 C   0  0  0  0  0  0  0  0  0  0  0  0
   18.6683  -24.4354   -7.6990 C   0  0  0  0  0  0  0  0  0  0  0  0
   17.8333  -25.4983   -7.0183 C   0  0  0  0  0  0  0  0  0  0  0  0
   18.1882  -25.4568   -5.5985 N   0  0  0  0  0  0  0  0  0  0  0  0
   17.7197  -22.8547  -11.5776 C   0  0  0  0  0  0  0  0  0  0  0  0
   17.2909  -21.6673  -11.3744 O   0  0  0  0  0  0  0  0  0  0  0  0
   13.8719  -23.8670  -14.1818 O   0  0  0  0  0  0  0  0  0  0  0  0
   15.1122  -24.2547  -13.6950 C   0  0  0  0  0  0  0  0  0  0  0  0
   15.5099  -23.4435  -12.4758 C   0  0  2  0  0  0  0  0  0  0  0  0
   16.8297  -23.8290  -12.0984 N   0  0  0  0  0  0  0  0  0  0  0  0
   14.5190  -23.5417  -11.4077 C   0  0  0  0  0  0  0  0  0  0  0  0
   13.4280  -22.7010  -11.3912 O   0  0  0  0  0  0  0  0  0  0  0  0
   14.6544  -24.3887  -10.5020 O   0  0  0  0  0  0  0  0  0  0  0  0
  1  5  1  0
  1  2  1  0
  2  3  1  0
  4  3  1  0
  5  4  1  0
  5  6  1  6
  7  6  2  0
  8  6  1  0
  9  8  1  0
 10 11  1  0
  9 10  1  1
 11 12  1  0
 12 13  1  0
 13 14  1  0
 15  9  1  0
 15 16  2  0
 18 17  1  0
 19 18  1  6
 19 20  1  0
 20 15  1  0
 21 19  1  0
 22 21  1  0
 23 21  2  0
M  END
$$$$
