PKS.pdb
     RDKit          3D

 23 23  0  0  1  0  0  0  0  0999 V2000
   24.0440  -12.7388  -15.3647 N   0  0  0  0  0  0  0  0  0  0  0  0
   24.8784  -13.9120  -15.6670 C   0  0  0  0  0  0  0  0  0  0  0  0
   24.4511  -14.3503  -17.0635 C   0  0  0  0  0  0  0  0  0  0  0  0
   23.6497  -13.1766  -17.5846 C   0  0  0  0  0  0  0  0  0  0  0  0
   24.0698  -12.0625  -16.6540 C   0  0  1  0  0  0  0  0  0  0  0  0
   23.1256  -10.9223  -16.6908 C   0  0  0  0  0  0  0  0  0  0  0  0
   23.0906  -10.2316  -17.7307 O   0  0  0  0  0  0  0  0  0  0  0  0
   22.2652  -10.5670  -15.6294 N   0  0  0  0  0  0  0  0  0  0  0  0
   21.2792   -9.4967  -15.7442 C   0  0  1  0  0  0  0  0  0  0  0  0
   20.0179  -10.0061  -15.0793 C   0  0  0  0  0  0  0  0  0  0  0  0
   19.2045  -10.8758  -15.9821 C   0  0  0  0  0  0  0  0  0  0  0  0
   17.9154  -11.2169  -15.2961 C   0  0  0  0  0  0  0  0  0  0  0  0
   17.0315  -12.1087  -16.1410 C   0  0  0  0  0  0  0  0  0  0  0  0
   15.8686  -12.4399  -15.3157 N   0  0  0  0  0  0  0  0  0  0  0  0
   21.7958   -8.2936  -15.0419 C   0  0  0  0  0  0  0  0  0  0  0  0
   22.4166   -8.4155  -13.9307 O   0  0  0  0  0  0  0  0  0  0  0  0
   22.9307   -3.6358  -15.3620 O   0  0  0  0  0  0  0  0  0  0  0  0
   22.4270   -4.7881  -15.9487 C   0  0  0  0  0  0  0  0  0  0  0  0
   22.1583   -5.8668  -14.9160 C   0  0  2  0  0  0  0  0  0  0  0  0
   21.6101   -6.9979  -15.5890 N   0  0  0  0  0  0  0  0  0  0  0  0
   21.3509   -5.3702  -13.8051 C   0  0  0  0  0  0  0  0  0  0  0  0
   21.9552   -4.8058  -12.7034 O   0  0  0  0  0  0  0  0  0  0  0  0
   20.1070   -5.4540  -13.8467 O   0  0  0  0  0  0  0  0  0  0  0  0
  1  5  1  0
  1  2  1  0
  2  3  1  0
  4  3  1  0
  5  4  1  0
  5  6  1  1
  7  6  2  0
  8  6  1  0
  9  8  1  0
 10 11  1  0
  9 10  1  1
 11 12  1  0
 12 13  1  0
 13 14  1  0
 15  9  1  0
 15 16  2  0
 18 17  1  0
 19 18  1  6
 19 20  1  0
 20 15  1  0
 21 19  1  0
 22 21  1  0
 23 21  2  0
M  END
$$$$
