PKS.pdb
     RDKit          3D

 23 23  0  0  1  0  0  0  0  0999 V2000
   24.8014  -11.4858  -15.2889 N   0  0  0  0  0  0  0  0  0  0  0  0
   25.9580  -12.3485  -15.5753 C   0  0  0  0  0  0  0  0  0  0  0  0
   26.0404  -12.4050  -17.0968 C   0  0  0  0  0  0  0  0  0  0  0  0
   25.1309  -11.2841  -17.5529 C   0  0  0  0  0  0  0  0  0  0  0  0
   24.9910  -10.4536  -16.2982 C   0  0  1  0  0  0  0  0  0  0  0  0
   23.8300   -9.5368  -16.3656 C   0  0  0  0  0  0  0  0  0  0  0  0
   23.8646   -8.6182  -17.2110 O   0  0  0  0  0  0  0  0  0  0  0  0
   22.6901   -9.6341  -15.5383 N   0  0  0  0  0  0  0  0  0  0  0  0
   21.4998   -8.8145  -15.7440 C   0  0  1  0  0  0  0  0  0  0  0  0
   20.3129   -9.6998  -15.4282 C   0  0  0  0  0  0  0  0  0  0  0  0
   20.0444  -10.7041  -16.5016 C   0  0  0  0  0  0  0  0  0  0  0  0
   18.7957  -11.4599  -16.1584 C   0  0  0  0  0  0  0  0  0  0  0  0
   18.4356  -12.4861  -17.2109 C   0  0  0  0  0  0  0  0  0  0  0  0
   17.2919  -13.2338  -16.6853 N   0  0  0  0  0  0  0  0  0  0  0  0
   21.5527   -7.6541  -14.8177 C   0  0  0  0  0  0  0  0  0  0  0  0
   21.6658   -7.8423  -13.5580 O   0  0  0  0  0  0  0  0  0  0  0  0
   22.3212   -3.7522  -16.1695 O   0  0  0  0  0  0  0  0  0  0  0  0
   22.6985   -4.3100  -14.9561 C   0  0  0  0  0  0  0  0  0  0  0  0
   21.6248   -5.2323  -14.4096 C   0  0  2  0  0  0  0  0  0  0  0  0
   21.4790   -6.3264  -15.3121 N   0  0  0  0  0  0  0  0  0  0  0  0
   20.3863   -4.5158  -14.1178 C   0  0  0  0  0  0  0  0  0  0  0  0
   20.3693   -3.5101  -13.1767 O   0  0  0  0  0  0  0  0  0  0  0  0
   19.3341   -4.8103  -14.7198 O   0  0  0  0  0  0  0  0  0  0  0  0
  1  5  1  0
  1  2  1  0
  2  3  1  0
  4  3  1  0
  5  4  1  0
  5  6  1  6
  7  6  2  0
  8  6  1  0
  9  8  1  0
 10 11  1  0
  9 10  1  1
 11 12  1  0
 12 13  1  0
 13 14  1  0
 15  9  1  0
 15 16  2  0
 18 17  1  0
 19 18  1  6
 19 20  1  0
 20 15  1  0
 21 19  1  0
 22 21  1  0
 23 21  2  0
M  END
$$$$
