PKS.pdb
     RDKit          3D

 23 23  0  0  1  0  0  0  0  0999 V2000
   23.6550  -11.2179  -15.4644 N   0  0  0  0  0  0  0  0  0  0  0  0
   24.7040  -12.2371  -15.6222 C   0  0  0  0  0  0  0  0  0  0  0  0
   24.8710  -12.4009  -17.1289 C   0  0  0  0  0  0  0  0  0  0  0  0
   24.1458  -11.2050  -17.7081 C   0  0  0  0  0  0  0  0  0  0  0  0
   24.0395  -10.2848  -16.5141 C   0  0  1  0  0  0  0  0  0  0  0  0
   23.0148   -9.2342  -16.7121 C   0  0  0  0  0  0  0  0  0  0  0  0
   23.3123   -8.2636  -17.4394 O   0  0  0  0  0  0  0  0  0  0  0  0
   21.7273   -9.2592  -16.1334 N   0  0  0  0  0  0  0  0  0  0  0  0
   20.7137   -8.2521  -16.4323 C   0  0  1  0  0  0  0  0  0  0  0  0
   19.4016   -8.9952  -16.5684 C   0  0  0  0  0  0  0  0  0  0  0  0
   18.2584   -8.0874  -16.8873 C   0  0  0  0  0  0  0  0  0  0  0  0
   16.9962   -8.8953  -16.9390 C   0  0  0  0  0  0  0  0  0  0  0  0
   15.7754   -8.0408  -17.2035 C   0  0  0  0  0  0  0  0  0  0  0  0
   14.6131   -8.9110  -17.0166 N   0  0  0  0  0  0  0  0  0  0  0  0
   20.6562   -7.2833  -15.3073 C   0  0  0  0  0  0  0  0  0  0  0  0
   20.5208   -7.7008  -14.1063 O   0  0  0  0  0  0  0  0  0  0  0  0
   23.0262   -5.2433  -13.8991 O   0  0  0  0  0  0  0  0  0  0  0  0
   22.0639   -4.3311  -14.3084 C   0  0  0  0  0  0  0  0  0  0  0  0
   20.7007   -4.9834  -14.4442 C   0  0  2  0  0  0  0  0  0  0  0  0
   20.7499   -5.8879  -15.5452 N   0  0  0  0  0  0  0  0  0  0  0  0
   19.6276   -3.9957  -14.5165 C   0  0  0  0  0  0  0  0  0  0  0  0
   19.1866   -3.3625  -13.3754 O   0  0  0  0  0  0  0  0  0  0  0  0
   19.1025   -3.7185  -15.6135 O   0  0  0  0  0  0  0  0  0  0  0  0
  1  5  1  0
  1  2  1  0
  2  3  1  0
  4  3  1  0
  5  4  1  0
  5  6  1  6
  7  6  2  0
  8  6  1  0
  9  8  1  0
 10 11  1  0
  9 10  1  1
 11 12  1  0
 12 13  1  0
 13 14  1  0
 15  9  1  0
 15 16  2  0
 18 17  1  0
 19 18  1  6
 19 20  1  0
 20 15  1  0
 21 19  1  0
 22 21  1  0
 23 21  2  0
M  END
$$$$
