SIQ.pdb
     RDKit          3D

 24 23  0  0  1  0  0  0  0  0999 V2000
    8.2874  -17.7032   21.8070 O   0  0  0  0  0  0  0  0  0  0  0  0
    7.0291  -17.1286   21.9210 C   0  0  0  0  0  0  0  0  0  0  0  0
    7.1529  -15.6441   21.6108 C   0  0  2  0  0  0  0  0  0  0  0  0
    7.6998  -15.4804   20.2820 N   0  0  0  0  0  0  0  0  0  0  0  0
    8.0528  -14.9772   22.5773 C   0  0  0  0  0  0  0  0  0  0  0  0
    9.2071  -14.6409   22.2206 O   0  0  0  0  0  0  0  0  0  0  0  0
    5.9323  -11.8303   26.5110 C   0  0  0  0  0  0  0  0  0  0  0  0
    6.9043  -12.2655   25.4375 C   0  0  0  0  0  0  0  0  0  0  0  0
    7.7308  -13.3943   25.9789 C   0  0  2  0  0  0  0  0  0  0  0  0
    8.6856  -12.8644   27.0202 C   0  0  0  0  0  0  0  0  0  0  0  0
    8.4561  -14.1647   24.9207 C   0  0  2  0  0  0  0  0  0  0  0  0
    7.6100  -14.7174   23.9093 N   0  0  0  0  0  0  0  0  0  0  0  0
    9.2689  -15.2398   25.5830 C   0  0  0  0  0  0  0  0  0  0  0  0
    8.6289  -16.2545   25.9635 O   0  0  0  0  0  0  0  0  0  0  0  0
   11.0191  -16.8510   30.3259 N   0  0  0  0  0  0  0  0  0  0  0  0
   10.8959  -18.0405   29.5814 C   0  0  0  0  0  0  0  0  0  0  0  0
   10.5644  -19.0868   30.1547 O   0  0  0  0  0  0  0  0  0  0  0  0
   11.1822  -17.9518   28.1118 C   0  0  0  0  0  0  0  0  0  0  0  0
   10.4903  -16.7772   27.4868 C   0  0  0  0  0  0  0  0  0  0  0  0
   11.3584  -16.2145   26.3996 C   0  0  2  0  0  0  0  0  0  0  0  0
   10.6687  -15.0868   25.7521 N   0  0  0  0  0  0  0  0  0  0  0  0
   11.6053  -17.2276   25.3626 C   0  0  0  0  0  0  0  0  0  0  0  0
   10.7233  -17.4612   24.3275 O   0  0  0  0  0  0  0  0  0  0  0  0
   12.6692  -17.9162   25.4253 O   0  0  0  0  0  0  0  0  0  0  0  0
  2  1  1  0
  2  3  1  0
  3  4  1  6
  5 12  1  0
  5  3  1  0
  6  5  2  0
  7  8  1  0
  9  8  1  0
  9 11  1  0
  9 10  1  1
 11 12  1  6
 13 21  1  0
 13 11  1  0
 14 13  2  0
 16 15  1  0
 17 16  2  0
 18 16  1  0
 19 18  1  0
 20 19  1  1
 20 21  1  0
 22 20  1  0
 23 22  1  0
 24 22  2  0
M  END
$$$$
