SIQ.pdb
     RDKit          3D

 24 23  0  0  1  0  0  0  0  0999 V2000
    7.8658  -20.2330   18.7497 O   0  0  0  0  0  0  0  0  0  0  0  0
    6.8810  -19.2898   18.4911 C   0  0  0  0  0  0  0  0  0  0  0  0
    7.5085  -18.1489   17.7037 C   0  0  2  0  0  0  0  0  0  0  0  0
    8.2549  -18.6936   16.5911 N   0  0  0  0  0  0  0  0  0  0  0  0
    8.4323  -17.3671   18.5546 C   0  0  0  0  0  0  0  0  0  0  0  0
    9.6710  -17.5117   18.4217 O   0  0  0  0  0  0  0  0  0  0  0  0
    6.6699  -12.4413   20.4928 C   0  0  0  0  0  0  0  0  0  0  0  0
    7.5220  -13.4950   19.8217 C   0  0  0  0  0  0  0  0  0  0  0  0
    8.0642  -14.4082   20.8811 C   0  0  2  0  0  0  0  0  0  0  0  0
    8.9778  -13.6306   21.7962 C   0  0  0  0  0  0  0  0  0  0  0  0
    8.7504  -15.6193   20.3317 C   0  0  2  0  0  0  0  0  0  0  0  0
    7.9171  -16.4527   19.5222 N   0  0  0  0  0  0  0  0  0  0  0  0
    9.3351  -16.3984   21.4746 C   0  0  0  0  0  0  0  0  0  0  0  0
    8.5063  -16.9793   22.2226 O   0  0  0  0  0  0  0  0  0  0  0  0
   13.8469  -20.2301   21.3662 N   0  0  0  0  0  0  0  0  0  0  0  0
   12.5188  -20.6537   21.5698 C   0  0  0  0  0  0  0  0  0  0  0  0
   12.2006  -21.8174   21.2908 O   0  0  0  0  0  0  0  0  0  0  0  0
   11.5625  -19.6395   22.1236 C   0  0  0  0  0  0  0  0  0  0  0  0
   12.2085  -18.2935   22.2636 C   0  0  0  0  0  0  0  0  0  0  0  0
   11.1957  -17.3109   22.7742 C   0  0  2  0  0  0  0  0  0  0  0  0
   10.7391  -16.4537   21.6680 N   0  0  0  0  0  0  0  0  0  0  0  0
   11.7979  -16.4311   23.7871 C   0  0  0  0  0  0  0  0  0  0  0  0
   12.3449  -15.2036   23.4741 O   0  0  0  0  0  0  0  0  0  0  0  0
   11.8188  -16.8186   24.9951 O   0  0  0  0  0  0  0  0  0  0  0  0
  2  1  1  0
  2  3  1  0
  3  4  1  6
  5 12  1  0
  5  3  1  0
  6  5  2  0
  7  8  1  0
  9  8  1  0
  9 11  1  0
  9 10  1  6
 11 12  1  1
 13 21  1  0
 13 11  1  0
 14 13  2  0
 16 15  1  0
 17 16  2  0
 18 16  1  0
 19 18  1  0
 20 19  1  6
 20 21  1  0
 22 20  1  0
 23 22  1  0
 24 22  2  0
M  END
$$$$
