SIQ.pdb
     RDKit          3D

 24 23  0  0  1  0  0  0  0  0999 V2000
    6.9818  -17.3585   21.4958 O   0  0  0  0  0  0  0  0  0  0  0  0
    6.0397  -16.3446   21.3915 C   0  0  0  0  0  0  0  0  0  0  0  0
    6.7773  -15.0212   21.2497 C   0  0  2  0  0  0  0  0  0  0  0  0
    7.5689  -15.0459   20.0395 N   0  0  0  0  0  0  0  0  0  0  0  0
    7.6798  -14.7952   22.3999 C   0  0  0  0  0  0  0  0  0  0  0  0
    8.9177  -14.9331   22.2540 O   0  0  0  0  0  0  0  0  0  0  0  0
    5.9348  -11.4559   26.5381 C   0  0  0  0  0  0  0  0  0  0  0  0
    6.8214  -12.0329   25.4575 C   0  0  0  0  0  0  0  0  0  0  0  0
    7.2794  -13.3916   25.8987 C   0  0  2  0  0  0  0  0  0  0  0  0
    8.1645  -13.2544   27.1130 C   0  0  0  0  0  0  0  0  0  0  0  0
    7.9591  -14.1728   24.8183 C   0  0  2  0  0  0  0  0  0  0  0  0
    7.1449  -14.4219   23.6697 N   0  0  0  0  0  0  0  0  0  0  0  0
    8.4647  -15.4600   25.4036 C   0  0  0  0  0  0  0  0  0  0  0  0
    7.5878  -16.3226   25.6698 O   0  0  0  0  0  0  0  0  0  0  0  0
   10.9649  -20.9273   24.7568 N   0  0  0  0  0  0  0  0  0  0  0  0
   11.5247  -19.7159   24.3056 C   0  0  0  0  0  0  0  0  0  0  0  0
   11.6317  -19.5096   23.0893 O   0  0  0  0  0  0  0  0  0  0  0  0
   11.9616  -18.7393   25.3568 C   0  0  0  0  0  0  0  0  0  0  0  0
   11.4916  -17.3497   25.0456 C   0  0  0  0  0  0  0  0  0  0  0  0
   10.2675  -17.0488   25.8602 C   0  0  2  0  0  0  0  0  0  0  0  0
    9.8513  -15.6561   25.6285 N   0  0  0  0  0  0  0  0  0  0  0  0
   10.5590  -17.1835   27.2953 C   0  0  0  0  0  0  0  0  0  0  0  0
   10.6729  -16.0948   28.1354 O   0  0  0  0  0  0  0  0  0  0  0  0
   10.7160  -18.3463   27.7780 O   0  0  0  0  0  0  0  0  0  0  0  0
  2  1  1  0
  2  3  1  0
  3  4  1  6
  5 12  1  0
  5  3  1  0
  6  5  2  0
  7  8  1  0
  9  8  1  0
  9 11  1  0
  9 10  1  1
 11 12  1  6
 13 21  1  0
 13 11  1  0
 14 13  2  0
 16 15  1  0
 17 16  2  0
 18 16  1  0
 19 18  1  0
 20 19  1  6
 20 21  1  0
 22 20  1  0
 23 22  1  0
 24 22  2  0
M  END
$$$$
