SIQ.pdb
     RDKit          3D

 24 23  0  0  1  0  0  0  0  0999 V2000
    8.6093  -20.1713   18.5765 O   0  0  0  0  0  0  0  0  0  0  0  0
    7.5109  -19.4385   18.1491 C   0  0  0  0  0  0  0  0  0  0  0  0
    8.0165  -18.2124   17.4032 C   0  0  2  0  0  0  0  0  0  0  0  0
    8.9673  -18.6279   16.3956 N   0  0  0  0  0  0  0  0  0  0  0  0
    8.6886  -17.2732   18.3278 C   0  0  0  0  0  0  0  0  0  0  0  0
    9.9396  -17.1856   18.3227 O   0  0  0  0  0  0  0  0  0  0  0  0
    7.5219  -12.1032   21.4054 C   0  0  0  0  0  0  0  0  0  0  0  0
    8.3937  -13.3340   21.2964 C   0  0  0  0  0  0  0  0  0  0  0  0
    7.7131  -14.3153   20.3886 C   0  0  2  0  0  0  0  0  0  0  0  0
    6.3373  -14.6259   20.9246 C   0  0  0  0  0  0  0  0  0  0  0  0
    8.5020  -15.5668   20.1629 C   0  0  2  0  0  0  0  0  0  0  0  0
    7.9175  -16.4705   19.2216 N   0  0  0  0  0  0  0  0  0  0  0  0
    8.7190  -16.2416   21.4868 C   0  0  0  0  0  0  0  0  0  0  0  0
    7.7744  -16.9672   21.8932 O   0  0  0  0  0  0  0  0  0  0  0  0
   13.7266  -18.9749   23.0677 N   0  0  0  0  0  0  0  0  0  0  0  0
   13.7950  -17.5802   22.8815 C   0  0  0  0  0  0  0  0  0  0  0  0
   14.8757  -17.0582   22.5767 O   0  0  0  0  0  0  0  0  0  0  0  0
   12.5224  -16.8091   23.0704 C   0  0  0  0  0  0  0  0  0  0  0  0
   11.3466  -17.7231   23.2462 C   0  0  0  0  0  0  0  0  0  0  0  0
   10.1002  -16.9005   23.3950 C   0  0  2  0  0  0  0  0  0  0  0  0
    9.9261  -16.0500   22.2063 N   0  0  0  0  0  0  0  0  0  0  0  0
   10.2096  -16.0070   24.5578 C   0  0  0  0  0  0  0  0  0  0  0  0
   10.2306  -16.4758   25.8554 O   0  0  0  0  0  0  0  0  0  0  0  0
   10.2831  -14.7559   24.3594 O   0  0  0  0  0  0  0  0  0  0  0  0
  2  1  1  0
  2  3  1  0
  3  4  1  6
  5 12  1  0
  5  3  1  0
  6  5  2  0
  7  8  1  0
  9  8  1  0
  9 11  1  0
  9 10  1  1
 11 12  1  6
 13 21  1  0
 13 11  1  0
 14 13  2  0
 16 15  1  0
 17 16  2  0
 18 16  1  0
 19 18  1  0
 20 19  1  6
 20 21  1  0
 22 20  1  0
 23 22  1  0
 24 22  2  0
M  END
$$$$
