SIQ.pdb
     RDKit          3D

 24 23  0  0  1  0  0  0  0  0999 V2000
   12.5978  -17.4913   18.1358 O   0  0  0  0  0  0  0  0  0  0  0  0
   12.1574  -16.7033   17.0816 C   0  0  0  0  0  0  0  0  0  0  0  0
   12.3937  -15.2448   17.4454 C   0  0  2  0  0  0  0  0  0  0  0  0
   13.8129  -14.9689   17.4048 N   0  0  0  0  0  0  0  0  0  0  0  0
   11.8949  -14.9541   18.8076 C   0  0  0  0  0  0  0  0  0  0  0  0
   12.6974  -14.9332   19.7711 O   0  0  0  0  0  0  0  0  0  0  0  0
    7.2939  -11.8793   19.2390 C   0  0  0  0  0  0  0  0  0  0  0  0
    8.7101  -12.3593   19.4641 C   0  0  0  0  0  0  0  0  0  0  0  0
    8.6560  -13.6375   20.2474 C   0  0  2  0  0  0  0  0  0  0  0  0
    8.1270  -13.3568   21.6324 C   0  0  0  0  0  0  0  0  0  0  0  0
    9.9657  -14.3594   20.3037 C   0  0  2  0  0  0  0  0  0  0  0  0
   10.5074  -14.6986   19.0248 N   0  0  0  0  0  0  0  0  0  0  0  0
    9.8009  -15.5850   21.1558 C   0  0  0  0  0  0  0  0  0  0  0  0
    9.3277  -16.5963   20.5751 O   0  0  0  0  0  0  0  0  0  0  0  0
   14.1092  -18.0141   20.8138 N   0  0  0  0  0  0  0  0  0  0  0  0
   13.8456  -18.7619   21.9782 C   0  0  0  0  0  0  0  0  0  0  0  0
   14.5211  -19.7711   22.2203 O   0  0  0  0  0  0  0  0  0  0  0  0
   12.7386  -18.2697   22.8624 C   0  0  0  0  0  0  0  0  0  0  0  0
   12.0594  -17.0682   22.2759 C   0  0  0  0  0  0  0  0  0  0  0  0
   10.7923  -16.7989   23.0337 C   0  0  2  0  0  0  0  0  0  0  0  0
   10.1667  -15.5670   22.5260 N   0  0  0  0  0  0  0  0  0  0  0  0
   11.0815  -16.5849   24.4596 C   0  0  0  0  0  0  0  0  0  0  0  0
   10.7775  -15.4068   25.1105 O   0  0  0  0  0  0  0  0  0  0  0  0
   11.6361  -17.5191   25.1151 O   0  0  0  0  0  0  0  0  0  0  0  0
  2  1  1  0
  2  3  1  0
  3  4  1  1
  5 12  1  0
  5  3  1  0
  6  5  2  0
  7  8  1  0
  9  8  1  0
  9 11  1  0
  9 10  1  1
 11 12  1  6
 13 21  1  0
 13 11  1  0
 14 13  2  0
 16 15  1  0
 17 16  2  0
 18 16  1  0
 19 18  1  0
 20 19  1  6
 20 21  1  0
 22 20  1  0
 23 22  1  0
 24 22  2  0
M  END
$$$$
