SIQ.pdb
     RDKit          3D

 24 23  0  0  1  0  0  0  0  0999 V2000
    6.2041  -16.7248   20.1827 O   0  0  0  0  0  0  0  0  0  0  0  0
    6.9676  -16.6071   21.3358 C   0  0  0  0  0  0  0  0  0  0  0  0
    7.5465  -15.2007   21.3829 C   0  0  2  0  0  0  0  0  0  0  0  0
    8.4830  -15.0357   20.2931 N   0  0  0  0  0  0  0  0  0  0  0  0
    8.2596  -14.9669   22.6579 C   0  0  0  0  0  0  0  0  0  0  0  0
    9.4790  -15.2461   22.7472 O   0  0  0  0  0  0  0  0  0  0  0  0
    6.1687  -11.3565   26.3711 C   0  0  0  0  0  0  0  0  0  0  0  0
    7.1643  -12.0620   25.4780 C   0  0  0  0  0  0  0  0  0  0  0  0
    7.3979  -13.4383   26.0270 C   0  0  2  0  0  0  0  0  0  0  0  0
    8.1046  -13.3365   27.3563 C   0  0  0  0  0  0  0  0  0  0  0  0
    8.1374  -14.3385   25.0877 C   0  0  2  0  0  0  0  0  0  0  0  0
    7.5638  -14.4264   23.7810 N   0  0  0  0  0  0  0  0  0  0  0  0
    8.2477  -15.6986   25.7148 C   0  0  0  0  0  0  0  0  0  0  0  0
    7.1608  -16.3033   25.9065 O   0  0  0  0  0  0  0  0  0  0  0  0
   12.3979  -20.3414   24.4988 N   0  0  0  0  0  0  0  0  0  0  0  0
   12.0602  -19.0181   24.1534 C   0  0  0  0  0  0  0  0  0  0  0  0
   12.2534  -18.6220   22.9963 O   0  0  0  0  0  0  0  0  0  0  0  0
   11.4767  -18.1633   25.2390 C   0  0  0  0  0  0  0  0  0  0  0  0
   10.0575  -18.5457   25.5368 C   0  0  0  0  0  0  0  0  0  0  0  0
    9.5029  -17.6139   26.5744 C   0  0  2  0  0  0  0  0  0  0  0  0
    9.5150  -16.2361   26.0565 N   0  0  0  0  0  0  0  0  0  0  0  0
   10.3409  -17.6325   27.7828 C   0  0  0  0  0  0  0  0  0  0  0  0
   11.0413  -16.5262   28.2180 O   0  0  0  0  0  0  0  0  0  0  0  0
   10.4259  -18.7096   28.4480 O   0  0  0  0  0  0  0  0  0  0  0  0
  2  1  1  0
  2  3  1  0
  3  4  1  6
  5 12  1  0
  5  3  1  0
  6  5  2  0
  7  8  1  0
  9  8  1  0
  9 11  1  0
  9 10  1  1
 11 12  1  6
 13 21  1  0
 13 11  1  0
 14 13  2  0
 16 15  1  0
 17 16  2  0
 18 16  1  0
 19 18  1  0
 20 19  1  6
 20 21  1  0
 22 20  1  0
 23 22  1  0
 24 22  2  0
M  END
$$$$
