AFM.pdb
     RDKit          3D

 25 25  0  0  1  0  0  0  0  0999 V2000
   27.6283  -17.8248  -14.4262 C   0  0  0  0  0  0  0  0  0  0  0  0
   28.2770  -19.0097  -13.7453 C   0  0  2  0  0  0  0  0  0  0  0  0
   29.1548  -19.7458  -14.6176 N   0  0  0  0  0  0  0  0  0  0  0  0
   27.2688  -19.9324  -13.1579 C   0  0  0  0  0  0  0  0  0  0  0  0
   26.9328  -20.9856  -13.7899 O   0  0  0  0  0  0  0  0  0  0  0  0
   26.6429  -19.7152  -11.9162 N   0  0  0  0  0  0  0  0  0  0  0  0
   25.7201  -20.6538  -11.2878 C   0  0  1  0  0  0  0  0  0  0  0  0
   25.5192  -20.1780   -9.8811 C   0  0  0  0  0  0  0  0  0  0  0  0
   26.6895  -20.3205   -9.0034 C   0  0  0  0  0  0  0  0  0  0  0  0
   27.6695  -21.2635   -9.2170 C   0  0  0  0  0  0  0  0  0  0  0  0
   28.7707  -21.3795   -8.3741 C   0  0  0  0  0  0  0  0  0  0  0  0
   28.8896  -20.5321   -7.2959 C   0  0  0  0  0  0  0  0  0  0  0  0
   27.9150  -19.5925   -7.0812 C   0  0  0  0  0  0  0  0  0  0  0  0
   26.8175  -19.4778   -7.9224 C   0  0  0  0  0  0  0  0  0  0  0  0
   24.4803  -20.8004  -12.0644 C   0  0  0  0  0  0  0  0  0  0  0  0
   23.9393  -19.7707  -12.5403 O   0  0  0  0  0  0  0  0  0  0  0  0
   22.7510  -26.6659  -14.4623 C   0  0  0  0  0  0  0  0  0  0  0  0
   21.5769  -25.6013  -15.3112 S   0  0  0  0  0  0  0  0  0  0  0  0
   21.5131  -23.9686  -14.6035 C   0  0  0  0  0  0  0  0  0  0  0  0
   22.6534  -23.5322  -13.7805 C   0  0  0  0  0  0  0  0  0  0  0  0
   22.6579  -22.1579  -13.1971 C   0  0  2  0  0  0  0  0  0  0  0  0
   23.8470  -22.0392  -12.3154 N   0  0  0  0  0  0  0  0  0  0  0  0
   21.4621  -21.7918  -12.4568 C   0  0  0  0  0  0  0  0  0  0  0  0
   21.2875  -21.8405  -11.2151 O   0  0  0  0  0  0  0  0  0  0  0  0
   20.3497  -21.3240  -13.1804 O   0  0  0  0  0  0  0  0  0  0  0  0
  2  1  1  6
  2  3  1  0
  4  2  1  0
  4  5  2  0
  6  4  1  0
  7  6  1  0
  7  8  1  1
  8  9  1  0
  9 10  2  0
  9 14  1  0
 10 11  1  0
 11 12  2  0
 13 12  1  0
 14 13  2  0
 15  7  1  0
 16 15  2  0
 18 17  1  0
 19 18  1  0
 20 19  1  0
 21 20  1  1
 21 22  1  0
 22 15  1  0
 23 21  1  0
 24 23  2  0
 25 23  1  0
M  END
$$$$
