AFM.pdb
     RDKit          3D

 25 25  0  0  1  0  0  0  0  0999 V2000
   15.0295  -10.3443  -11.9163 C   0  0  0  0  0  0  0  0  0  0  0  0
   16.5381  -10.3973  -11.8188 C   0  0  2  0  0  0  0  0  0  0  0  0
   17.0211  -11.6391  -11.2727 N   0  0  0  0  0  0  0  0  0  0  0  0
   17.0834   -9.2601  -11.0300 C   0  0  0  0  0  0  0  0  0  0  0  0
   17.2318   -9.3787   -9.7708 O   0  0  0  0  0  0  0  0  0  0  0  0
   17.4570   -8.0268  -11.5958 N   0  0  0  0  0  0  0  0  0  0  0  0
   18.0271   -6.9171  -10.8401 C   0  0  1  0  0  0  0  0  0  0  0  0
   19.2502   -6.4766  -11.5855 C   0  0  0  0  0  0  0  0  0  0  0  0
   20.3633   -7.4364  -11.5763 C   0  0  0  0  0  0  0  0  0  0  0  0
   21.1408   -7.6636  -10.4631 C   0  0  0  0  0  0  0  0  0  0  0  0
   22.1889   -8.5790  -10.4760 C   0  0  0  0  0  0  0  0  0  0  0  0
   22.4611   -9.2795  -11.6292 C   0  0  0  0  0  0  0  0  0  0  0  0
   21.6883   -9.0550  -12.7387 C   0  0  0  0  0  0  0  0  0  0  0  0
   20.6435   -8.1420  -12.7246 C   0  0  0  0  0  0  0  0  0  0  0  0
   17.0393   -5.8532  -10.6071 C   0  0  0  0  0  0  0  0  0  0  0  0
   16.4635   -5.3351  -11.5968 O   0  0  0  0  0  0  0  0  0  0  0  0
   12.1277   -2.6999   -5.1708 C   0  0  0  0  0  0  0  0  0  0  0  0
   13.3924   -3.8966   -5.6194 S   0  0  0  0  0  0  0  0  0  0  0  0
   14.0439   -3.6093   -7.2514 C   0  0  0  0  0  0  0  0  0  0  0  0
   15.0195   -4.5768   -7.7812 C   0  0  0  0  0  0  0  0  0  0  0  0
   15.6234   -4.3519   -9.1278 C   0  0  2  0  0  0  0  0  0  0  0  0
   16.6889   -5.3672   -9.3266 N   0  0  0  0  0  0  0  0  0  0  0  0
   16.1667   -3.0228   -9.3525 C   0  0  0  0  0  0  0  0  0  0  0  0
   17.3390   -2.6303   -9.1370 O   0  0  0  0  0  0  0  0  0  0  0  0
   15.3106   -2.0338   -9.8711 O   0  0  0  0  0  0  0  0  0  0  0  0
  2  1  1  1
  2  3  1  0
  4  2  1  0
  4  5  2  0
  6  4  1  0
  7  6  1  0
  7  8  1  6
  8  9  1  0
  9 10  2  0
  9 14  1  0
 10 11  1  0
 11 12  2  0
 13 12  1  0
 14 13  2  0
 15  7  1  0
 16 15  2  0
 18 17  1  0
 19 18  1  0
 20 19  1  0
 21 20  1  1
 21 22  1  0
 22 15  1  0
 23 21  1  0
 24 23  2  0
 25 23  1  0
M  END
$$$$
