AFM.pdb
     RDKit          3D

 25 25  0  0  1  0  0  0  0  0999 V2000
   14.8185  -30.3654   -5.5104 C   0  0  0  0  0  0  0  0  0  0  0  0
   16.1876  -29.7593   -5.7260 C   0  0  2  0  0  0  0  0  0  0  0  0
   17.0078  -30.5324   -6.6222 N   0  0  0  0  0  0  0  0  0  0  0  0
   16.9104  -29.5510   -4.4427 C   0  0  0  0  0  0  0  0  0  0  0  0
   17.3331  -30.5567   -3.7857 O   0  0  0  0  0  0  0  0  0  0  0  0
   17.1666  -28.2828   -3.8889 N   0  0  0  0  0  0  0  0  0  0  0  0
   17.7840  -28.0668   -2.5852 C   0  0  1  0  0  0  0  0  0  0  0  0
   18.5500  -26.7826   -2.6831 C   0  0  0  0  0  0  0  0  0  0  0  0
   19.1464  -26.3167   -1.4231 C   0  0  0  0  0  0  0  0  0  0  0  0
   18.4307  -25.6247   -0.4722 C   0  0  0  0  0  0  0  0  0  0  0  0
   19.0152  -25.1947    0.7153 C   0  0  0  0  0  0  0  0  0  0  0  0
   20.3440  -25.4650    0.9520 C   0  0  0  0  0  0  0  0  0  0  0  0
   21.0584  -26.1538    0.0066 C   0  0  0  0  0  0  0  0  0  0  0  0
   20.4745  -26.5821   -1.1770 C   0  0  0  0  0  0  0  0  0  0  0  0
   16.7921  -28.1036   -1.5006 C   0  0  0  0  0  0  0  0  0  0  0  0
   15.7389  -27.4286   -1.6209 O   0  0  0  0  0  0  0  0  0  0  0  0
   15.1587  -33.2616    1.8496 C   0  0  0  0  0  0  0  0  0  0  0  0
   14.7068  -32.0474    3.0964 S   0  0  0  0  0  0  0  0  0  0  0  0
   14.9291  -30.3766    2.5222 C   0  0  0  0  0  0  0  0  0  0  0  0
   15.8229  -30.1591    1.3724 C   0  0  0  0  0  0  0  0  0  0  0  0
   15.9697  -28.7871    0.8024 C   0  0  2  0  0  0  0  0  0  0  0  0
   16.9457  -28.8580   -0.3147 N   0  0  0  0  0  0  0  0  0  0  0  0
   16.3810  -27.7614    1.7463 C   0  0  0  0  0  0  0  0  0  0  0  0
   15.6529  -26.9176    2.3228 O   0  0  0  0  0  0  0  0  0  0  0  0
   17.7456  -27.6722    2.0780 O   0  0  0  0  0  0  0  0  0  0  0  0
  2  1  1  1
  2  3  1  0
  4  2  1  0
  4  5  2  0
  6  4  1  0
  7  6  1  0
  7  8  1  6
  8  9  1  0
  9 10  2  0
  9 14  1  0
 10 11  1  0
 11 12  2  0
 13 12  1  0
 14 13  2  0
 15  7  1  0
 16 15  2  0
 18 17  1  0
 19 18  1  0
 20 19  1  0
 21 20  1  1
 21 22  1  0
 22 15  1  0
 23 21  1  0
 24 23  2  0
 25 23  1  0
M  END
$$$$
