VPD.pdb
     RDKit          3D

 23 23  0  0  1  0  0  0  0  0999 V2000
   13.0804  -10.5447   -9.3520 C   0  0  0  0  0  0  0  0  0  0  0  0
   12.1894  -11.2508  -10.3711 C   0  0  2  0  0  0  0  0  0  0  0  0
   11.2945  -12.2327   -9.6921 C   0  0  0  0  0  0  0  0  0  0  0  0
   13.1561  -11.9042  -11.3626 C   0  0  2  0  0  0  0  0  0  0  0  0
   13.9416  -12.8595  -10.5360 N   0  0  0  0  0  0  0  0  0  0  0  0
   14.1094  -10.8723  -11.8557 C   0  0  0  0  0  0  0  0  0  0  0  0
   15.1847  -10.7443  -11.1618 O   0  0  0  0  0  0  0  0  0  0  0  0
   13.9000  -10.0653  -13.0001 N   0  0  0  0  0  0  0  0  0  0  0  0
   12.7828  -10.0923  -13.9157 C   0  0  0  0  0  0  0  0  0  0  0  0
   13.4203   -9.6440  -15.2538 C   0  0  0  0  0  0  0  0  0  0  0  0
   14.2918   -8.5182  -14.7401 C   0  0  0  0  0  0  0  0  0  0  0  0
   14.8363   -9.0579  -13.4673 C   0  0  1  0  0  0  0  0  0  0  0  0
   14.9955   -8.0441  -12.4062 C   0  0  0  0  0  0  0  0  0  0  0  0
   14.2793   -8.0577  -11.3706 O   0  0  0  0  0  0  0  0  0  0  0  0
   15.9616   -6.9923  -12.4833 N   0  0  0  0  0  0  0  0  0  0  0  0
   16.1330   -5.9878  -11.4846 C   0  0  1  0  0  0  0  0  0  0  0  0
   16.6429   -6.6379  -10.2181 C   0  0  0  0  0  0  0  0  0  0  0  0
   16.7892   -5.5767   -9.1902 C   0  0  0  0  0  0  0  0  0  0  0  0
   16.0933   -4.5243   -9.1979 O   0  0  0  0  0  0  0  0  0  0  0  0
   17.0526   -4.9004  -11.8928 C   0  0  0  0  0  0  0  0  0  0  0  0
   17.9188   -5.0092  -12.7836 O   0  0  0  0  0  0  0  0  0  0  0  0
   17.7103   -5.6794   -8.1478 O   0  0  0  0  0  0  0  0  0  0  0  0
   16.9479   -3.6774  -11.2452 O   0  0  0  0  0  0  0  0  0  0  0  0
  2  1  1  1
  2  3  1  0
  4  2  1  0
  4  5  1  1
  6  4  1  0
  6  8  1  0
  7  6  2  0
  8 12  1  0
  9  8  1  0
 10 11  1  0
 10  9  1  0
 11 12  1  0
 12 13  1  1
 13 15  1  0
 14 13  2  0
 15 16  1  0
 16 20  1  0
 17 18  1  0
 16 17  1  1
 18 22  1  0
 19 18  2  0
 20 21  2  0
 20 23  1  0
M  END
$$$$
