VPD.pdb
     RDKit          3D

 23 23  0  0  1  0  0  0  0  0999 V2000
   24.1719  -22.0766  -13.8762 C   0  0  0  0  0  0  0  0  0  0  0  0
   25.6708  -21.8226  -13.7355 C   0  0  2  0  0  0  0  0  0  0  0  0
   26.3624  -23.0420  -13.2245 C   0  0  0  0  0  0  0  0  0  0  0  0
   25.7862  -20.6249  -12.7885 C   0  0  2  0  0  0  0  0  0  0  0  0
   24.9930  -21.0219  -11.5942 N   0  0  0  0  0  0  0  0  0  0  0  0
   25.0924  -19.4589  -13.4014 C   0  0  0  0  0  0  0  0  0  0  0  0
   23.8579  -19.3195  -13.0686 O   0  0  0  0  0  0  0  0  0  0  0  0
   25.6992  -18.5374  -14.2888 N   0  0  0  0  0  0  0  0  0  0  0  0
   27.0888  -18.4576  -14.6755 C   0  0  0  0  0  0  0  0  0  0  0  0
   27.2842  -16.9474  -14.9567 C   0  0  0  0  0  0  0  0  0  0  0  0
   25.9988  -16.6740  -15.7074 C   0  0  0  0  0  0  0  0  0  0  0  0
   24.9873  -17.4614  -14.9558 C   0  0  1  0  0  0  0  0  0  0  0  0
   23.9380  -18.0562  -15.8069 C   0  0  0  0  0  0  0  0  0  0  0  0
   23.9270  -19.2865  -16.0744 O   0  0  0  0  0  0  0  0  0  0  0  0
   22.8776  -17.2838  -16.3768 N   0  0  0  0  0  0  0  0  0  0  0  0
   21.5853  -17.8036  -16.6858 C   0  0  1  0  0  0  0  0  0  0  0  0
   21.1921  -18.8038  -15.6219 C   0  0  0  0  0  0  0  0  0  0  0  0
   19.9128  -19.4311  -16.0391 C   0  0  0  0  0  0  0  0  0  0  0  0
   19.5439  -19.4824  -17.2446 O   0  0  0  0  0  0  0  0  0  0  0  0
   20.5408  -16.7592  -16.7996 C   0  0  0  0  0  0  0  0  0  0  0  0
   20.4062  -15.8093  -16.0025 O   0  0  0  0  0  0  0  0  0  0  0  0
   19.0362  -20.0049  -15.1183 O   0  0  0  0  0  0  0  0  0  0  0  0
   19.6505  -16.8372  -17.8614 O   0  0  0  0  0  0  0  0  0  0  0  0
  2  1  1  1
  2  3  1  0
  4  2  1  0
  4  5  1  1
  6  4  1  0
  6  8  1  0
  7  6  2  0
  8 12  1  0
  9  8  1  0
 10 11  1  0
 10  9  1  0
 11 12  1  0
 12 13  1  6
 13 15  1  0
 14 13  2  0
 15 16  1  0
 16 20  1  0
 17 18  1  0
 16 17  1  1
 18 22  1  0
 19 18  2  0
 20 21  2  0
 20 23  1  0
M  END
$$$$
