VPD.pdb
     RDKit          3D

 23 23  0  0  1  0  0  0  0  0999 V2000
   18.5795  -12.0227  -19.1735 C   0  0  0  0  0  0  0  0  0  0  0  0
   19.0551  -10.9509  -18.1957 C   0  0  2  0  0  0  0  0  0  0  0  0
   20.0161  -10.0242  -18.8619 C   0  0  0  0  0  0  0  0  0  0  0  0
   19.6756  -11.7223  -17.0276 C   0  0  2  0  0  0  0  0  0  0  0  0
   18.5324  -12.4574  -16.4230 N   0  0  0  0  0  0  0  0  0  0  0  0
   20.1527  -10.7484  -16.0076 C   0  0  0  0  0  0  0  0  0  0  0  0
   19.2397  -10.0018  -15.4944 O   0  0  0  0  0  0  0  0  0  0  0  0
   21.4997  -10.6134  -15.5926 N   0  0  0  0  0  0  0  0  0  0  0  0
   22.6481  -11.3676  -16.0390 C   0  0  0  0  0  0  0  0  0  0  0  0
   23.5709  -11.3625  -14.7955 C   0  0  0  0  0  0  0  0  0  0  0  0
   23.3989   -9.9191  -14.3739 C   0  0  0  0  0  0  0  0  0  0  0  0
   21.9493   -9.6696  -14.5843 C   0  0  1  0  0  0  0  0  0  0  0  0
   21.6384   -8.3050  -15.0539 C   0  0  0  0  0  0  0  0  0  0  0  0
   21.6170   -8.0203  -16.2803 O   0  0  0  0  0  0  0  0  0  0  0  0
   21.3446   -7.2295  -14.1580 N   0  0  0  0  0  0  0  0  0  0  0  0
   21.2120   -5.8668  -14.5594 C   0  0  1  0  0  0  0  0  0  0  0  0
   19.7863   -5.4223  -14.3217 C   0  0  0  0  0  0  0  0  0  0  0  0
   19.6578   -4.0272  -14.8129 C   0  0  0  0  0  0  0  0  0  0  0  0
   20.1769   -3.6385  -15.8952 O   0  0  0  0  0  0  0  0  0  0  0  0
   22.1435   -4.9519  -13.8593 C   0  0  0  0  0  0  0  0  0  0  0  0
   22.5952   -5.1498  -12.7136 O   0  0  0  0  0  0  0  0  0  0  0  0
   18.9514   -3.0560  -14.1034 O   0  0  0  0  0  0  0  0  0  0  0  0
   22.5439   -3.7971  -14.5166 O   0  0  0  0  0  0  0  0  0  0  0  0
  2  1  1  6
  2  3  1  0
  4  2  1  0
  4  5  1  1
  6  4  1  0
  6  8  1  0
  7  6  2  0
  8 12  1  0
  9  8  1  0
 10 11  1  0
 10  9  1  0
 11 12  1  0
 12 13  1  6
 13 15  1  0
 14 13  2  0
 15 16  1  0
 16 20  1  0
 17 18  1  0
 16 17  1  1
 18 22  1  0
 19 18  2  0
 20 21  2  0
 20 23  1  0
M  END
$$$$
