VPD.pdb
     RDKit          3D

 23 23  0  0  1  0  0  0  0  0999 V2000
   18.8006   -9.6623  -18.0831 C   0  0  0  0  0  0  0  0  0  0  0  0
   19.6885  -10.8095  -18.5591 C   0  0  2  0  0  0  0  0  0  0  0  0
   19.0571  -11.5164  -19.7114 C   0  0  0  0  0  0  0  0  0  0  0  0
   19.8744  -11.7067  -17.3323 C   0  0  2  0  0  0  0  0  0  0  0  0
   18.4936  -12.1244  -16.9690 N   0  0  0  0  0  0  0  0  0  0  0  0
   20.3877  -10.8801  -16.2054 C   0  0  0  0  0  0  0  0  0  0  0  0
   19.4889  -10.2504  -15.5346 O   0  0  0  0  0  0  0  0  0  0  0  0
   21.7536  -10.7622  -15.8515 N   0  0  0  0  0  0  0  0  0  0  0  0
   22.8787  -11.4897  -16.3917 C   0  0  0  0  0  0  0  0  0  0  0  0
   23.8621  -11.5444  -15.1968 C   0  0  0  0  0  0  0  0  0  0  0  0
   23.7108  -10.1245  -14.6952 C   0  0  0  0  0  0  0  0  0  0  0  0
   22.2524   -9.8689  -14.8206 C   0  0  1  0  0  0  0  0  0  0  0  0
   21.9179   -8.4834  -15.2049 C   0  0  0  0  0  0  0  0  0  0  0  0
   21.4501   -8.2108  -16.3417 O   0  0  0  0  0  0  0  0  0  0  0  0
   22.1009   -7.3728  -14.3224 N   0  0  0  0  0  0  0  0  0  0  0  0
   21.8176   -6.0185  -14.6705 C   0  0  1  0  0  0  0  0  0  0  0  0
   20.3367   -5.8824  -14.9443 C   0  0  0  0  0  0  0  0  0  0  0  0
   20.0845   -4.4908  -15.3963 C   0  0  0  0  0  0  0  0  0  0  0  0
   20.8479   -3.8904  -16.2017 O   0  0  0  0  0  0  0  0  0  0  0  0
   22.2248   -5.0444  -13.6313 C   0  0  0  0  0  0  0  0  0  0  0  0
   22.5469   -3.8620  -13.8634 O   0  0  0  0  0  0  0  0  0  0  0  0
   18.9822   -3.7588  -14.9552 O   0  0  0  0  0  0  0  0  0  0  0  0
   22.2512   -5.4694  -12.3104 O   0  0  0  0  0  0  0  0  0  0  0  0
  2  1  1  1
  2  3  1  0
  4  2  1  0
  4  5  1  1
  6  4  1  0
  6  8  1  0
  7  6  2  0
  8 12  1  0
  9  8  1  0
 10 11  1  0
 10  9  1  0
 11 12  1  0
 12 13  1  6
 13 15  1  0
 14 13  2  0
 15 16  1  0
 16 20  1  0
 17 18  1  0
 16 17  1  1
 18 22  1  0
 19 18  2  0
 20 21  2  0
 20 23  1  0
M  END
$$$$
