VPD.pdb
     RDKit          3D

 23 23  0  0  1  0  0  0  0  0999 V2000
   15.4868  -18.8994  -15.8064 C   0  0  0  0  0  0  0  0  0  0  0  0
   16.9750  -18.6905  -16.0760 C   0  0  2  0  0  0  0  0  0  0  0  0
   17.1834  -17.5282  -16.9881 C   0  0  0  0  0  0  0  0  0  0  0  0
   17.4636  -20.0150  -16.6689 C   0  0  2  0  0  0  0  0  0  0  0  0
   16.6107  -20.2173  -17.8709 N   0  0  0  0  0  0  0  0  0  0  0  0
   17.1415  -21.1150  -15.7188 C   0  0  0  0  0  0  0  0  0  0  0  0
   15.9036  -21.4626  -15.6831 O   0  0  0  0  0  0  0  0  0  0  0  0
   18.0887  -21.7683  -14.8938 N   0  0  0  0  0  0  0  0  0  0  0  0
   19.5193  -21.5714  -14.8533 C   0  0  0  0  0  0  0  0  0  0  0  0
   20.0491  -22.9640  -14.4315 C   0  0  0  0  0  0  0  0  0  0  0  0
   19.0336  -23.2932  -13.3587 C   0  0  0  0  0  0  0  0  0  0  0  0
   17.7535  -22.8075  -13.9361 C   0  0  1  0  0  0  0  0  0  0  0  0
   16.8245  -22.2388  -12.9397 C   0  0  0  0  0  0  0  0  0  0  0  0
   16.8716  -21.0230  -12.6153 O   0  0  0  0  0  0  0  0  0  0  0  0
   15.8222  -23.0214  -12.2850 N   0  0  0  0  0  0  0  0  0  0  0  0
   14.9036  -22.5038  -11.3238 C   0  0  1  0  0  0  0  0  0  0  0  0
   13.4962  -22.8518  -11.7539 C   0  0  0  0  0  0  0  0  0  0  0  0
   12.5606  -22.2718  -10.7578 C   0  0  0  0  0  0  0  0  0  0  0  0
   12.6042  -21.0592  -10.4118 O   0  0  0  0  0  0  0  0  0  0  0  0
   15.1435  -23.0029   -9.9497 C   0  0  0  0  0  0  0  0  0  0  0  0
   15.5511  -24.1502   -9.6794 O   0  0  0  0  0  0  0  0  0  0  0  0
   11.5709  -23.0367  -10.1405 O   0  0  0  0  0  0  0  0  0  0  0  0
   14.9008  -22.1413   -8.8891 O   0  0  0  0  0  0  0  0  0  0  0  0
  2  1  1  6
  2  3  1  0
  4  2  1  0
  4  5  1  6
  6  4  1  0
  6  8  1  0
  7  6  2  0
  8 12  1  0
  9  8  1  0
 10 11  1  0
 10  9  1  0
 11 12  1  0
 12 13  1  1
 13 15  1  0
 14 13  2  0
 15 16  1  0
 16 20  1  0
 17 18  1  0
 16 17  1  6
 18 22  1  0
 19 18  2  0
 20 21  2  0
 20 23  1  0
M  END
$$$$
