VPD.pdb
     RDKit          3D

 23 23  0  0  1  0  0  0  0  0999 V2000
   28.3920  -18.8041  -16.5413 C   0  0  0  0  0  0  0  0  0  0  0  0
   27.0993  -19.1229  -15.7942 C   0  0  2  0  0  0  0  0  0  0  0  0
   26.6398  -17.9369  -15.0141 C   0  0  0  0  0  0  0  0  0  0  0  0
   27.4341  -20.3292  -14.9126 C   0  0  2  0  0  0  0  0  0  0  0  0
   27.8660  -21.3792  -15.8738 N   0  0  0  0  0  0  0  0  0  0  0  0
   26.1828  -20.8176  -14.2706 C   0  0  0  0  0  0  0  0  0  0  0  0
   25.3052  -21.2994  -15.0781 O   0  0  0  0  0  0  0  0  0  0  0  0
   25.9260  -20.7818  -12.8786 N   0  0  0  0  0  0  0  0  0  0  0  0
   26.8346  -20.4206  -11.8152 C   0  0  0  0  0  0  0  0  0  0  0  0
   26.3274  -21.2683  -10.6228 C   0  0  0  0  0  0  0  0  0  0  0  0
   24.8378  -21.0708  -10.8034 C   0  0  0  0  0  0  0  0  0  0  0  0
   24.6563  -21.1487  -12.2761 C   0  0  1  0  0  0  0  0  0  0  0  0
   23.6147  -20.2433  -12.8001 C   0  0  0  0  0  0  0  0  0  0  0  0
   23.9108  -19.2059  -13.4494 O   0  0  0  0  0  0  0  0  0  0  0  0
   22.2177  -20.4816  -12.6072 N   0  0  0  0  0  0  0  0  0  0  0  0
   21.2022  -20.0744  -13.5229 C   0  0  1  0  0  0  0  0  0  0  0  0
   21.6407  -20.4224  -14.9277 C   0  0  0  0  0  0  0  0  0  0  0  0
   20.6435  -19.8533  -15.8688 C   0  0  0  0  0  0  0  0  0  0  0  0
   20.4090  -18.6158  -15.9420 O   0  0  0  0  0  0  0  0  0  0  0  0
   19.8801  -20.6834  -13.2473 C   0  0  0  0  0  0  0  0  0  0  0  0
   19.6615  -21.9112  -13.2292 O   0  0  0  0  0  0  0  0  0  0  0  0
   19.9010  -20.6570  -16.7339 O   0  0  0  0  0  0  0  0  0  0  0  0
   18.8105  -19.8370  -12.9914 O   0  0  0  0  0  0  0  0  0  0  0  0
  2  1  1  1
  2  3  1  0
  4  2  1  0
  4  5  1  6
  6  4  1  0
  6  8  1  0
  7  6  2  0
  8 12  1  0
  9  8  1  0
 10 11  1  0
 10  9  1  0
 11 12  1  0
 12 13  1  6
 13 15  1  0
 14 13  2  0
 15 16  1  0
 16 20  1  0
 17 18  1  0
 16 17  1  6
 18 22  1  0
 19 18  2  0
 20 21  2  0
 20 23  1  0
M  END
$$$$
