VPD.pdb
     RDKit          3D

 23 23  0  0  1  0  0  0  0  0999 V2000
   20.3058  -10.4596  -19.0428 C   0  0  0  0  0  0  0  0  0  0  0  0
   21.2960  -11.4850  -18.4959 C   0  0  2  0  0  0  0  0  0  0  0  0
   21.3609  -12.6780  -19.3896 C   0  0  0  0  0  0  0  0  0  0  0  0
   20.7927  -11.8154  -17.0880 C   0  0  2  0  0  0  0  0  0  0  0  0
   19.4039  -12.3048  -17.2989 N   0  0  0  0  0  0  0  0  0  0  0  0
   20.6932  -10.5533  -16.3045 C   0  0  0  0  0  0  0  0  0  0  0  0
   19.6000   -9.8947  -16.4640 O   0  0  0  0  0  0  0  0  0  0  0  0
   21.6961  -10.0679  -15.4308 N   0  0  0  0  0  0  0  0  0  0  0  0
   22.9545  -10.6891  -15.0881 C   0  0  0  0  0  0  0  0  0  0  0  0
   23.2088  -10.1847  -13.6463 C   0  0  0  0  0  0  0  0  0  0  0  0
   22.7991   -8.7383  -13.8214 C   0  0  0  0  0  0  0  0  0  0  0  0
   21.5945   -8.8243  -14.6872 C   0  0  1  0  0  0  0  0  0  0  0  0
   21.4704   -7.7146  -15.6528 C   0  0  0  0  0  0  0  0  0  0  0  0
   21.7580   -7.8659  -16.8693 O   0  0  0  0  0  0  0  0  0  0  0  0
   21.0208   -6.4104  -15.2750 N   0  0  0  0  0  0  0  0  0  0  0  0
   20.9190   -5.3072  -16.1739 C   0  0  1  0  0  0  0  0  0  0  0  0
   19.9932   -5.6835  -17.3089 C   0  0  0  0  0  0  0  0  0  0  0  0
   19.8752   -4.5076  -18.2075 C   0  0  0  0  0  0  0  0  0  0  0  0
   20.8576   -3.7675  -18.4887 O   0  0  0  0  0  0  0  0  0  0  0  0
   20.4384   -4.0629  -15.5293 C   0  0  0  0  0  0  0  0  0  0  0  0
   20.4460   -2.9407  -16.0736 O   0  0  0  0  0  0  0  0  0  0  0  0
   18.6642   -4.1477  -18.7985 O   0  0  0  0  0  0  0  0  0  0  0  0
   19.9457   -4.1451  -14.2345 O   0  0  0  0  0  0  0  0  0  0  0  0
  2  1  1  6
  2  3  1  0
  4  2  1  0
  4  5  1  6
  6  4  1  0
  6  8  1  0
  7  6  2  0
  8 12  1  0
  9  8  1  0
 10 11  1  0
 10  9  1  0
 11 12  1  0
 12 13  1  6
 13 15  1  0
 14 13  2  0
 15 16  1  0
 16 20  1  0
 17 18  1  0
 16 17  1  6
 18 22  1  0
 19 18  2  0
 20 21  2  0
 20 23  1  0
M  END
$$$$
