VPD.pdb
     RDKit          3D

 23 23  0  0  1  0  0  0  0  0999 V2000
   25.8395  -18.4107  -16.3956 C   0  0  0  0  0  0  0  0  0  0  0  0
   26.8847  -18.1199  -15.3213 C   0  0  2  0  0  0  0  0  0  0  0  0
   27.8822  -17.1272  -15.8169 C   0  0  0  0  0  0  0  0  0  0  0  0
   27.5046  -19.4798  -14.9881 C   0  0  2  0  0  0  0  0  0  0  0  0
   27.9291  -20.0238  -16.3060 N   0  0  0  0  0  0  0  0  0  0  0  0
   26.4381  -20.3805  -14.4706 C   0  0  0  0  0  0  0  0  0  0  0  0
   25.8055  -21.0515  -15.3673 O   0  0  0  0  0  0  0  0  0  0  0  0
   26.1048  -20.5293  -13.1026 N   0  0  0  0  0  0  0  0  0  0  0  0
   26.7885  -19.9789  -11.9552 C   0  0  0  0  0  0  0  0  0  0  0  0
   26.5118  -21.0281  -10.8505 C   0  0  0  0  0  0  0  0  0  0  0  0
   25.0499  -21.2974  -11.1350 C   0  0  0  0  0  0  0  0  0  0  0  0
   24.9868  -21.3206  -12.6193 C   0  0  1  0  0  0  0  0  0  0  0  0
   23.7420  -20.7539  -13.1749 C   0  0  0  0  0  0  0  0  0  0  0  0
   23.5917  -19.5120  -13.3190 O   0  0  0  0  0  0  0  0  0  0  0  0
   22.6383  -21.5677  -13.5812 N   0  0  0  0  0  0  0  0  0  0  0  0
   21.3635  -21.0544  -13.9647 C   0  0  1  0  0  0  0  0  0  0  0  0
   20.9732  -21.6560  -15.2960 C   0  0  0  0  0  0  0  0  0  0  0  0
   20.9384  -20.5600  -16.2969 C   0  0  0  0  0  0  0  0  0  0  0  0
   20.7433  -20.7695  -17.5256 O   0  0  0  0  0  0  0  0  0  0  0  0
   20.2986  -21.3138  -12.9681 C   0  0  0  0  0  0  0  0  0  0  0  0
   20.2583  -22.3160  -12.2267 O   0  0  0  0  0  0  0  0  0  0  0  0
   21.1206  -19.2247  -15.9372 O   0  0  0  0  0  0  0  0  0  0  0  0
   19.2757  -20.3838  -12.8465 O   0  0  0  0  0  0  0  0  0  0  0  0
  2  1  1  6
  2  3  1  0
  4  2  1  0
  4  5  1  6
  6  4  1  0
  6  8  1  0
  7  6  2  0
  8 12  1  0
  9  8  1  0
 10 11  1  0
 10  9  1  0
 11 12  1  0
 12 13  1  1
 13 15  1  0
 14 13  2  0
 15 16  1  0
 16 20  1  0
 17 18  1  0
 16 17  1  6
 18 22  1  0
 19 18  2  0
 20 21  2  0
 20 23  1  0
M  END
$$$$
