GKY.pdb
     RDKit          3D

 26 26  0  0  1  0  0  0  0  0999 V2000
    7.5243  -12.1453   18.9977 N   0  0  0  0  0  0  0  0  0  0  0  0
    8.5957  -12.7962   19.7138 C   0  0  0  0  0  0  0  0  0  0  0  0
    8.0852  -13.8962   20.5807 C   0  0  0  0  0  0  0  0  0  0  0  0
    6.9475  -13.7756   21.0666 O   0  0  0  0  0  0  0  0  0  0  0  0
    8.8710  -15.0484   20.8459 N   0  0  0  0  0  0  0  0  0  0  0  0
    8.4418  -16.0999   21.7366 C   0  0  1  0  0  0  0  0  0  0  0  0
    8.8926  -17.4529   21.1808 C   0  0  0  0  0  0  0  0  0  0  0  0
    7.9090  -18.0016   20.1757 C   0  0  0  0  0  0  0  0  0  0  0  0
    8.4487  -19.3152   19.6883 C   0  0  0  0  0  0  0  0  0  0  0  0
    7.6238  -19.9112   18.5698 C   0  0  0  0  0  0  0  0  0  0  0  0
    8.0974  -21.1836   18.1099 N   0  0  0  0  0  0  0  0  0  0  0  0
    9.0978  -15.9759   23.0604 C   0  0  0  0  0  0  0  0  0  0  0  0
   10.2949  -15.6129   23.0976 O   0  0  0  0  0  0  0  0  0  0  0  0
    5.7842  -10.6283   26.0899 O   0  0  0  0  0  0  0  0  0  0  0  0
    6.3656  -11.9058   26.2237 C   0  0  0  0  0  0  0  0  0  0  0  0
    5.6361  -13.0483   25.9992 C   0  0  0  0  0  0  0  0  0  0  0  0
    6.2154  -14.2888   26.1331 C   0  0  0  0  0  0  0  0  0  0  0  0
    7.5569  -14.4464   26.4994 C   0  0  0  0  0  0  0  0  0  0  0  0
    8.1504  -15.7930   26.6532 C   0  0  0  0  0  0  0  0  0  0  0  0
    9.0942  -16.0894   25.5412 C   0  0  2  0  0  0  0  0  0  0  0  0
    8.4329  -16.2484   24.2689 N   0  0  0  0  0  0  0  0  0  0  0  0
   10.0236  -17.2047   25.7641 C   0  0  0  0  0  0  0  0  0  0  0  0
   11.0286  -17.0672   26.7075 O   0  0  0  0  0  0  0  0  0  0  0  0
    8.2706  -13.2781   26.7202 C   0  0  0  0  0  0  0  0  0  0  0  0
    7.6898  -12.0383   26.5859 C   0  0  0  0  0  0  0  0  0  0  0  0
    9.9207  -18.2559   25.1251 O   0  0  0  0  0  0  0  0  0  0  0  0
  1  2  1  0
  3  4  2  0
  3  2  1  0
  5  3  1  0
  6  7  1  6
  6  5  1  0
  8  7  1  0
  8  9  1  0
  9 10  1  0
 11 10  1  0
 12  6  1  0
 12 21  1  0
 13 12  2  0
 15 14  1  0
 15 16  2  0
 17 16  1  0
 18 17  2  0
 19 18  1  0
 20 21  1  0
 20 19  1  1
 22 20  1  0
 23 22  1  0
 24 25  2  0
 24 18  1  0
 25 15  1  0
 26 22  2  0
M  END
$$$$
