GKY.pdb
     RDKit          3D

 26 26  0  0  1  0  0  0  0  0999 V2000
    4.8161  -19.9262   22.7911 N   0  0  0  0  0  0  0  0  0  0  0  0
    4.8178  -18.5323   23.1668 C   0  0  0  0  0  0  0  0  0  0  0  0
    6.0055  -17.8189   22.6168 C   0  0  0  0  0  0  0  0  0  0  0  0
    7.0744  -18.4474   22.5290 O   0  0  0  0  0  0  0  0  0  0  0  0
    5.9231  -16.4629   22.2045 N   0  0  0  0  0  0  0  0  0  0  0  0
    7.0809  -15.6887   21.8260 C   0  0  1  0  0  0  0  0  0  0  0  0
    6.6268  -14.3803   21.1741 C   0  0  0  0  0  0  0  0  0  0  0  0
    7.7820  -13.6343   20.5513 C   0  0  0  0  0  0  0  0  0  0  0  0
    7.8058  -13.9795   19.0903 C   0  0  0  0  0  0  0  0  0  0  0  0
    8.9029  -13.2638   18.3348 C   0  0  0  0  0  0  0  0  0  0  0  0
    8.9787  -13.6128   16.9465 N   0  0  0  0  0  0  0  0  0  0  0  0
    7.8648  -15.2869   23.0185 C   0  0  0  0  0  0  0  0  0  0  0  0
    7.2977  -14.5995   23.8972 O   0  0  0  0  0  0  0  0  0  0  0  0
    5.4393  -11.8112   27.2806 O   0  0  0  0  0  0  0  0  0  0  0  0
    6.3569  -12.8034   26.8786 C   0  0  0  0  0  0  0  0  0  0  0  0
    7.6910  -12.5172   26.7162 C   0  0  0  0  0  0  0  0  0  0  0  0
    8.5759  -13.4944   26.3237 C   0  0  0  0  0  0  0  0  0  0  0  0
    8.1675  -14.8095   26.0739 C   0  0  0  0  0  0  0  0  0  0  0  0
    9.1375  -15.8372   25.6360 C   0  0  0  0  0  0  0  0  0  0  0  0
    9.8978  -15.3777   24.4418 C   0  0  2  0  0  0  0  0  0  0  0  0
    9.2122  -15.6449   23.2010 N   0  0  0  0  0  0  0  0  0  0  0  0
   11.2915  -15.8322   24.3504 C   0  0  0  0  0  0  0  0  0  0  0  0
   12.1902  -15.4546   25.3347 O   0  0  0  0  0  0  0  0  0  0  0  0
    6.8166  -15.0719   26.2450 C   0  0  0  0  0  0  0  0  0  0  0  0
    5.9329  -14.0935   26.6376 C   0  0  0  0  0  0  0  0  0  0  0  0
   11.6691  -16.5417   23.4135 O   0  0  0  0  0  0  0  0  0  0  0  0
  1  2  1  0
  3  4  2  0
  3  2  1  0
  5  3  1  0
  6  7  1  1
  6  5  1  0
  8  7  1  0
  8  9  1  0
  9 10  1  0
 11 10  1  0
 12  6  1  0
 12 21  1  0
 13 12  2  0
 15 14  1  0
 15 16  2  0
 17 16  1  0
 18 17  2  0
 19 18  1  0
 20 21  1  0
 20 19  1  1
 22 20  1  0
 23 22  1  0
 24 25  2  0
 24 18  1  0
 25 15  1  0
 26 22  2  0
M  END
$$$$
