GKY.pdb
     RDKit          3D

 26 26  0  0  1  0  0  0  0  0999 V2000
   10.1704  -17.7059   17.1143 N   0  0  0  0  0  0  0  0  0  0  0  0
   10.6565  -18.1503   18.3990 C   0  0  0  0  0  0  0  0  0  0  0  0
    9.8974  -17.5228   19.5181 C   0  0  0  0  0  0  0  0  0  0  0  0
    9.8761  -16.2818   19.5846 O   0  0  0  0  0  0  0  0  0  0  0  0
    9.2181  -18.3147   20.4808 N   0  0  0  0  0  0  0  0  0  0  0  0
    8.4552  -17.7442   21.5651 C   0  0  1  0  0  0  0  0  0  0  0  0
    7.5735  -18.8273   22.1915 C   0  0  0  0  0  0  0  0  0  0  0  0
    6.2371  -18.9325   21.4975 C   0  0  0  0  0  0  0  0  0  0  0  0
    6.3767  -19.9517   20.4037 C   0  0  0  0  0  0  0  0  0  0  0  0
    5.1489  -20.0439   19.5258 C   0  0  0  0  0  0  0  0  0  0  0  0
    5.2769  -20.9704   18.4394 N   0  0  0  0  0  0  0  0  0  0  0  0
    9.3462  -17.2783   22.6546 C   0  0  0  0  0  0  0  0  0  0  0  0
   10.3881  -17.9310   22.8889 O   0  0  0  0  0  0  0  0  0  0  0  0
    5.1406  -12.2233   26.6884 O   0  0  0  0  0  0  0  0  0  0  0  0
    6.3491  -12.6967   26.1378 C   0  0  0  0  0  0  0  0  0  0  0  0
    6.4543  -12.9973   24.8012 C   0  0  0  0  0  0  0  0  0  0  0  0
    7.6393  -13.4584   24.2764 C   0  0  0  0  0  0  0  0  0  0  0  0
    8.7800  -13.6415   25.0662 C   0  0  0  0  0  0  0  0  0  0  0  0
   10.0373  -14.1553   24.4794 C   0  0  0  0  0  0  0  0  0  0  0  0
   10.0184  -15.6413   24.3968 C   0  0  2  0  0  0  0  0  0  0  0  0
    9.0695  -16.1393   23.4311 N   0  0  0  0  0  0  0  0  0  0  0  0
    9.8574  -16.3560   25.6699 C   0  0  0  0  0  0  0  0  0  0  0  0
   10.8896  -16.3299   26.5935 O   0  0  0  0  0  0  0  0  0  0  0  0
    8.6473  -13.3310   26.4113 C   0  0  0  0  0  0  0  0  0  0  0  0
    7.4615  -12.8700   26.9345 C   0  0  0  0  0  0  0  0  0  0  0  0
    8.8206  -16.9754   25.9249 O   0  0  0  0  0  0  0  0  0  0  0  0
  1  2  1  0
  3  4  2  0
  3  2  1  0
  5  3  1  0
  6  7  1  1
  6  5  1  0
  8  7  1  0
  8  9  1  0
  9 10  1  0
 11 10  1  0
 12  6  1  0
 12 21  1  0
 13 12  2  0
 15 14  1  0
 15 16  2  0
 17 16  1  0
 18 17  2  0
 19 18  1  0
 20 21  1  0
 20 19  1  1
 22 20  1  0
 23 22  1  0
 24 25  2  0
 24 18  1  0
 25 15  1  0
 26 22  2  0
M  END
$$$$
