GKY.pdb
     RDKit          3D

 26 26  0  0  1  0  0  0  0  0999 V2000
    6.1229  -19.1892   19.7519 N   0  0  0  0  0  0  0  0  0  0  0  0
    7.3918  -18.7251   20.2606 C   0  0  0  0  0  0  0  0  0  0  0  0
    7.7978  -17.4385   19.6267 C   0  0  0  0  0  0  0  0  0  0  0  0
    7.0245  -16.9265   18.7991 O   0  0  0  0  0  0  0  0  0  0  0  0
    9.0293  -16.8133   19.9553 N   0  0  0  0  0  0  0  0  0  0  0  0
   10.0081  -17.4218   20.8242 C   0  0  1  0  0  0  0  0  0  0  0  0
   11.3718  -17.4271   20.1291 C   0  0  0  0  0  0  0  0  0  0  0  0
   11.6661  -18.7592   19.4830 C   0  0  0  0  0  0  0  0  0  0  0  0
   11.4738  -18.5941   18.0030 C   0  0  0  0  0  0  0  0  0  0  0  0
   11.6596  -19.8854   17.2383 C   0  0  0  0  0  0  0  0  0  0  0  0
   11.5285  -19.7461   15.8177 N   0  0  0  0  0  0  0  0  0  0  0  0
   10.1944  -16.6212   22.0581 C   0  0  0  0  0  0  0  0  0  0  0  0
   10.1685  -15.3734   21.9651 O   0  0  0  0  0  0  0  0  0  0  0  0
   10.5111  -13.7908   30.3307 O   0  0  0  0  0  0  0  0  0  0  0  0
   10.2237  -14.4310   29.1078 C   0  0  0  0  0  0  0  0  0  0  0  0
   10.4037  -15.7842   28.9516 C   0  0  0  0  0  0  0  0  0  0  0  0
   10.1193  -16.3965   27.7532 C   0  0  0  0  0  0  0  0  0  0  0  0
    9.6394  -15.6822   26.6495 C   0  0  0  0  0  0  0  0  0  0  0  0
    9.3578  -16.3631   25.3665 C   0  0  0  0  0  0  0  0  0  0  0  0
   10.5693  -16.3935   24.5024 C   0  0  2  0  0  0  0  0  0  0  0  0
   10.3980  -17.2040   23.3213 N   0  0  0  0  0  0  0  0  0  0  0  0
   11.8294  -16.7441   25.1705 C   0  0  0  0  0  0  0  0  0  0  0  0
   12.6465  -15.7308   25.6444 O   0  0  0  0  0  0  0  0  0  0  0  0
    9.4665  -14.3186   26.8333 C   0  0  0  0  0  0  0  0  0  0  0  0
    9.7515  -13.7077   28.0325 C   0  0  0  0  0  0  0  0  0  0  0  0
   12.1668  -17.9229   25.3139 O   0  0  0  0  0  0  0  0  0  0  0  0
  1  2  1  0
  3  4  2  0
  3  2  1  0
  5  3  1  0
  6  7  1  6
  6  5  1  0
  8  7  1  0
  8  9  1  0
  9 10  1  0
 11 10  1  0
 12  6  1  0
 12 21  1  0
 13 12  2  0
 15 14  1  0
 15 16  2  0
 17 16  1  0
 18 17  2  0
 19 18  1  0
 20 21  1  0
 20 19  1  1
 22 20  1  0
 23 22  1  0
 24 25  2  0
 24 18  1  0
 25 15  1  0
 26 22  2  0
M  END
$$$$
