GKY.pdb
     RDKit          3D

 26 26  0  0  1  0  0  0  0  0999 V2000
    4.3134  -20.3250   23.2092 N   0  0  0  0  0  0  0  0  0  0  0  0
    4.2331  -18.8872   23.1068 C   0  0  0  0  0  0  0  0  0  0  0  0
    5.5174  -18.3002   22.6292 C   0  0  0  0  0  0  0  0  0  0  0  0
    6.5174  -19.0376   22.5915 O   0  0  0  0  0  0  0  0  0  0  0  0
    5.6006  -16.9408   22.2285 N   0  0  0  0  0  0  0  0  0  0  0  0
    6.8465  -16.3050   21.8725 C   0  0  1  0  0  0  0  0  0  0  0  0
    6.5653  -15.1144   20.9527 C   0  0  0  0  0  0  0  0  0  0  0  0
    7.8314  -14.5731   20.3339 C   0  0  0  0  0  0  0  0  0  0  0  0
    7.4314  -13.5387   19.3218 C   0  0  0  0  0  0  0  0  0  0  0  0
    8.6130  -12.9499   18.5844 C   0  0  0  0  0  0  0  0  0  0  0  0
    8.2824  -11.8306   17.7520 N   0  0  0  0  0  0  0  0  0  0  0  0
    7.5129  -15.7348   23.0678 C   0  0  0  0  0  0  0  0  0  0  0  0
    6.8375  -15.0134   23.8359 O   0  0  0  0  0  0  0  0  0  0  0  0
   11.0822  -14.5032   30.7163 O   0  0  0  0  0  0  0  0  0  0  0  0
   10.4544  -14.8540   29.5036 C   0  0  0  0  0  0  0  0  0  0  0  0
   10.3148  -16.1680   29.1269 C   0  0  0  0  0  0  0  0  0  0  0  0
    9.7001  -16.4969   27.9411 C   0  0  0  0  0  0  0  0  0  0  0  0
    9.1937  -15.5238   27.0721 C   0  0  0  0  0  0  0  0  0  0  0  0
    8.5524  -15.9044   25.7942 C   0  0  0  0  0  0  0  0  0  0  0  0
    9.4297  -15.5731   24.6384 C   0  0  2  0  0  0  0  0  0  0  0  0
    8.8653  -15.9702   23.3715 N   0  0  0  0  0  0  0  0  0  0  0  0
   10.8211  -16.0339   24.7319 C   0  0  0  0  0  0  0  0  0  0  0  0
   11.1225  -17.3430   24.3938 O   0  0  0  0  0  0  0  0  0  0  0  0
    9.3474  -14.2058   27.4755 C   0  0  0  0  0  0  0  0  0  0  0  0
    9.9624  -13.8787   28.6617 C   0  0  0  0  0  0  0  0  0  0  0  0
   11.7192  -15.2738   25.1057 O   0  0  0  0  0  0  0  0  0  0  0  0
  1  2  1  0
  3  4  2  0
  3  2  1  0
  5  3  1  0
  6  7  1  6
  6  5  1  0
  8  7  1  0
  8  9  1  0
  9 10  1  0
 11 10  1  0
 12  6  1  0
 12 21  1  0
 13 12  2  0
 15 14  1  0
 15 16  2  0
 17 16  1  0
 18 17  2  0
 19 18  1  0
 20 21  1  0
 20 19  1  1
 22 20  1  0
 23 22  1  0
 24 25  2  0
 24 18  1  0
 25 15  1  0
 26 22  2  0
M  END
$$$$
