GKY.pdb
     RDKit          3D

 26 26  0  0  1  0  0  0  0  0999 V2000
    4.5200  -19.4563   22.8052 N   0  0  0  0  0  0  0  0  0  0  0  0
    4.7199  -18.0311   22.9189 C   0  0  0  0  0  0  0  0  0  0  0  0
    6.1123  -17.6432   22.5544 C   0  0  0  0  0  0  0  0  0  0  0  0
    6.9787  -18.5341   22.5310 O   0  0  0  0  0  0  0  0  0  0  0  0
    6.4432  -16.2982   22.2427 N   0  0  0  0  0  0  0  0  0  0  0  0
    7.7811  -15.8821   21.8960 C   0  0  1  0  0  0  0  0  0  0  0  0
    7.7164  -14.5849   21.0861 C   0  0  0  0  0  0  0  0  0  0  0  0
    7.6125  -14.8540   19.6044 C   0  0  0  0  0  0  0  0  0  0  0  0
    7.9694  -13.5826   18.8897 C   0  0  0  0  0  0  0  0  0  0  0  0
    7.8967  -13.7138   17.3850 C   0  0  0  0  0  0  0  0  0  0  0  0
    8.3441  -12.5511   16.6759 N   0  0  0  0  0  0  0  0  0  0  0  0
    8.5671  -15.5539   23.1095 C   0  0  0  0  0  0  0  0  0  0  0  0
    7.9833  -14.9828   24.0578 O   0  0  0  0  0  0  0  0  0  0  0  0
    9.9885  -14.1781   30.6694 O   0  0  0  0  0  0  0  0  0  0  0  0
    9.9633  -14.8009   29.4048 C   0  0  0  0  0  0  0  0  0  0  0  0
   10.3514  -16.1094   29.2464 C   0  0  0  0  0  0  0  0  0  0  0  0
   10.3219  -16.7053   28.0070 C   0  0  0  0  0  0  0  0  0  0  0  0
    9.9014  -16.0185   26.8624 C   0  0  0  0  0  0  0  0  0  0  0  0
    9.8959  -16.6784   25.5382 C   0  0  0  0  0  0  0  0  0  0  0  0
   10.5892  -15.8401   24.5223 C   0  0  2  0  0  0  0  0  0  0  0  0
    9.9342  -15.8565   23.2371 N   0  0  0  0  0  0  0  0  0  0  0  0
   12.0269  -16.0884   24.3536 C   0  0  0  0  0  0  0  0  0  0  0  0
   12.5085  -16.4418   23.1037 O   0  0  0  0  0  0  0  0  0  0  0  0
    9.5152  -14.6998   27.0493 C   0  0  0  0  0  0  0  0  0  0  0  0
    9.5452  -14.1053   28.2896 C   0  0  0  0  0  0  0  0  0  0  0  0
   12.8061  -15.9869   25.3057 O   0  0  0  0  0  0  0  0  0  0  0  0
  1  2  1  0
  3  4  2  0
  3  2  1  0
  5  3  1  0
  6  7  1  6
  6  5  1  0
  8  7  1  0
  8  9  1  0
  9 10  1  0
 11 10  1  0
 12  6  1  0
 12 21  1  0
 13 12  2  0
 15 14  1  0
 15 16  2  0
 17 16  1  0
 18 17  2  0
 19 18  1  0
 20 21  1  0
 20 19  1  1
 22 20  1  0
 23 22  1  0
 24 25  2  0
 24 18  1  0
 25 15  1  0
 26 22  2  0
M  END
$$$$
