GKY.pdb
     RDKit          3D

 26 26  0  0  1  0  0  0  0  0999 V2000
    5.0137  -19.8834   23.0791 N   0  0  0  0  0  0  0  0  0  0  0  0
    4.9855  -18.4409   23.1307 C   0  0  0  0  0  0  0  0  0  0  0  0
    6.2345  -17.8490   22.5722 C   0  0  0  0  0  0  0  0  0  0  0  0
    7.1944  -18.6088   22.3571 O   0  0  0  0  0  0  0  0  0  0  0  0
    6.3292  -16.4602   22.2931 N   0  0  0  0  0  0  0  0  0  0  0  0
    7.5723  -15.8157   21.9432 C   0  0  1  0  0  0  0  0  0  0  0  0
    7.2841  -14.6032   21.0547 C   0  0  0  0  0  0  0  0  0  0  0  0
    8.2427  -14.5204   19.8915 C   0  0  0  0  0  0  0  0  0  0  0  0
    7.7894  -13.3895   19.0140 C   0  0  0  0  0  0  0  0  0  0  0  0
    8.5597  -13.3078   17.7153 C   0  0  0  0  0  0  0  0  0  0  0  0
    8.1744  -12.2111   16.8765 N   0  0  0  0  0  0  0  0  0  0  0  0
    8.2477  -15.2744   23.1470 C   0  0  0  0  0  0  0  0  0  0  0  0
    7.6776  -14.3626   23.7873 O   0  0  0  0  0  0  0  0  0  0  0  0
    6.1180  -10.9898   27.1556 O   0  0  0  0  0  0  0  0  0  0  0  0
    6.7396  -12.2140   26.8350 C   0  0  0  0  0  0  0  0  0  0  0  0
    6.0169  -13.2726   26.3400 C   0  0  0  0  0  0  0  0  0  0  0  0
    6.6356  -14.4617   26.0310 C   0  0  0  0  0  0  0  0  0  0  0  0
    8.0117  -14.6497   26.2030 C   0  0  0  0  0  0  0  0  0  0  0  0
    8.6490  -15.9450   25.8789 C   0  0  0  0  0  0  0  0  0  0  0  0
    9.8330  -15.7506   24.9981 C   0  0  2  0  0  0  0  0  0  0  0  0
    9.4957  -15.7413   23.5956 N   0  0  0  0  0  0  0  0  0  0  0  0
   10.9670  -16.6539   25.2333 C   0  0  0  0  0  0  0  0  0  0  0  0
   12.0048  -16.2355   26.0500 O   0  0  0  0  0  0  0  0  0  0  0  0
    8.7178  -13.5663   26.7039 C   0  0  0  0  0  0  0  0  0  0  0  0
    8.0975  -12.3778   27.0124 C   0  0  0  0  0  0  0  0  0  0  0  0
   11.0062  -17.7738   24.7155 O   0  0  0  0  0  0  0  0  0  0  0  0
  1  2  1  0
  3  4  2  0
  3  2  1  0
  5  3  1  0
  6  7  1  6
  6  5  1  0
  8  7  1  0
  8  9  1  0
  9 10  1  0
 11 10  1  0
 12  6  1  0
 12 21  1  0
 13 12  2  0
 15 14  1  0
 15 16  2  0
 17 16  1  0
 18 17  2  0
 19 18  1  0
 20 21  1  0
 20 19  1  1
 22 20  1  0
 23 22  1  0
 24 25  2  0
 24 18  1  0
 25 15  1  0
 26 22  2  0
M  END
$$$$
