GKY.pdb
     RDKit          3D

 26 26  0  0  1  0  0  0  0  0999 V2000
    4.6682  -19.9499   23.1337 N   0  0  0  0  0  0  0  0  0  0  0  0
    4.8030  -18.5330   23.3757 C   0  0  0  0  0  0  0  0  0  0  0  0
    6.0294  -17.9822   22.7317 C   0  0  0  0  0  0  0  0  0  0  0  0
    6.9928  -18.7488   22.5609 O   0  0  0  0  0  0  0  0  0  0  0  0
    6.0992  -16.6241   22.3242 N   0  0  0  0  0  0  0  0  0  0  0  0
    7.3215  -16.0060   21.8689 C   0  0  1  0  0  0  0  0  0  0  0  0
    6.9854  -14.8521   20.9211 C   0  0  0  0  0  0  0  0  0  0  0  0
    8.1919  -14.4067   20.1307 C   0  0  0  0  0  0  0  0  0  0  0  0
    7.7077  -13.4774   19.0553 C   0  0  0  0  0  0  0  0  0  0  0  0
    8.8145  -13.0187   18.1326 C   0  0  0  0  0  0  0  0  0  0  0  0
    8.3584  -12.2503   17.0116 N   0  0  0  0  0  0  0  0  0  0  0  0
    8.0587  -15.3904   22.9983 C   0  0  0  0  0  0  0  0  0  0  0  0
    7.5869  -14.3556   23.5208 O   0  0  0  0  0  0  0  0  0  0  0  0
    5.8252  -11.0990   27.1215 O   0  0  0  0  0  0  0  0  0  0  0  0
    6.4778  -12.3059   26.7969 C   0  0  0  0  0  0  0  0  0  0  0  0
    5.7998  -13.5008   26.7791 C   0  0  0  0  0  0  0  0  0  0  0  0
    6.4483  -14.6713   26.4605 C   0  0  0  0  0  0  0  0  0  0  0  0
    7.8110  -14.7029   26.1433 C   0  0  0  0  0  0  0  0  0  0  0  0
    8.4879  -15.9784   25.8211 C   0  0  0  0  0  0  0  0  0  0  0  0
    9.6267  -15.7566   24.8888 C   0  0  2  0  0  0  0  0  0  0  0  0
    9.2596  -15.9191   23.5032 N   0  0  0  0  0  0  0  0  0  0  0  0
   10.8509  -16.5165   25.1738 C   0  0  0  0  0  0  0  0  0  0  0  0
   11.5930  -16.2025   26.3007 O   0  0  0  0  0  0  0  0  0  0  0  0
    8.4719  -13.4839   26.1686 C   0  0  0  0  0  0  0  0  0  0  0  0
    7.8218  -12.3142   26.4874 C   0  0  0  0  0  0  0  0  0  0  0  0
   11.2240  -17.4253   24.4263 O   0  0  0  0  0  0  0  0  0  0  0  0
  1  2  1  0
  3  4  2  0
  3  2  1  0
  5  3  1  0
  6  7  1  6
  6  5  1  0
  8  7  1  0
  8  9  1  0
  9 10  1  0
 11 10  1  0
 12  6  1  0
 12 21  1  0
 13 12  2  0
 15 14  1  0
 15 16  2  0
 17 16  1  0
 18 17  2  0
 19 18  1  0
 20 21  1  0
 20 19  1  1
 22 20  1  0
 23 22  1  0
 24 25  2  0
 24 18  1  0
 25 15  1  0
 26 22  2  0
M  END
$$$$
