GKY.pdb
     RDKit          3D

 26 26  0  0  1  0  0  0  0  0999 V2000
   14.6774  -15.5453   18.5244 N   0  0  0  0  0  0  0  0  0  0  0  0
   14.0158  -16.6964   19.0914 C   0  0  0  0  0  0  0  0  0  0  0  0
   12.8564  -16.2984   19.9395 C   0  0  0  0  0  0  0  0  0  0  0  0
   12.7946  -15.1187   20.3264 O   0  0  0  0  0  0  0  0  0  0  0  0
   11.8510  -17.2348   20.2970 N   0  0  0  0  0  0  0  0  0  0  0  0
   10.6751  -16.8705   21.0505 C   0  0  1  0  0  0  0  0  0  0  0  0
    9.6414  -17.9953   20.9553 C   0  0  0  0  0  0  0  0  0  0  0  0
    9.0424  -18.0904   19.5730 C   0  0  0  0  0  0  0  0  0  0  0  0
    8.0743  -19.2381   19.5796 C   0  0  0  0  0  0  0  0  0  0  0  0
    7.4455  -19.4847   18.2267 C   0  0  0  0  0  0  0  0  0  0  0  0
    6.6683  -20.6871   18.1551 N   0  0  0  0  0  0  0  0  0  0  0  0
   10.9878  -16.7396   22.4938 C   0  0  0  0  0  0  0  0  0  0  0  0
   11.9606  -17.3810   22.9505 O   0  0  0  0  0  0  0  0  0  0  0  0
   10.6746  -15.2352   31.1247 O   0  0  0  0  0  0  0  0  0  0  0  0
   10.4168  -15.1601   29.7406 C   0  0  0  0  0  0  0  0  0  0  0  0
    9.5681  -16.0476   29.1241 C   0  0  0  0  0  0  0  0  0  0  0  0
    9.3250  -15.9633   27.7729 C   0  0  0  0  0  0  0  0  0  0  0  0
    9.9211  -14.9838   26.9705 C   0  0  0  0  0  0  0  0  0  0  0  0
    9.6556  -14.9265   25.5161 C   0  0  0  0  0  0  0  0  0  0  0  0
   10.5339  -15.8735   24.7765 C   0  0  2  0  0  0  0  0  0  0  0  0
   10.2397  -15.9286   23.3652 N   0  0  0  0  0  0  0  0  0  0  0  0
   10.6196  -17.2342   25.3226 C   0  0  0  0  0  0  0  0  0  0  0  0
    9.6014  -18.1344   25.0539 O   0  0  0  0  0  0  0  0  0  0  0  0
   10.7731  -14.1009   27.6169 C   0  0  0  0  0  0  0  0  0  0  0  0
   11.0152  -14.1866   28.9684 C   0  0  0  0  0  0  0  0  0  0  0  0
   11.5813  -17.5830   26.0135 O   0  0  0  0  0  0  0  0  0  0  0  0
  1  2  1  0
  3  4  2  0
  3  2  1  0
  5  3  1  0
  6  7  1  1
  6  5  1  0
  8  7  1  0
  8  9  1  0
  9 10  1  0
 11 10  1  0
 12  6  1  0
 12 21  1  0
 13 12  2  0
 15 14  1  0
 15 16  2  0
 17 16  1  0
 18 17  2  0
 19 18  1  0
 20 21  1  0
 20 19  1  1
 22 20  1  0
 23 22  1  0
 24 25  2  0
 24 18  1  0
 25 15  1  0
 26 22  2  0
M  END
$$$$
