RQE.pdb
     RDKit          3D

 30 29  0  0  1  0  0  0  0  0999 V2000
   28.3221  -22.8720  -20.9338 N   0  0  0  0  0  0  0  0  0  0  0  0
   29.4530  -22.2612  -20.3219 C   0  0  0  0  0  0  0  0  0  0  0  0
   30.5118  -22.0643  -21.0229 N   0  0  0  0  0  0  0  0  0  0  0  0
   29.4107  -21.8725  -18.9552 N   0  0  0  0  0  0  0  0  0  0  0  0
   28.2099  -22.2000  -18.1939 C   0  0  0  0  0  0  0  0  0  0  0  0
   28.5188  -22.3247  -16.7396 C   0  0  0  0  0  0  0  0  0  0  0  0
   27.2931  -22.6360  -15.9519 C   0  0  0  0  0  0  0  0  0  0  0  0
   26.5300  -21.3807  -15.6232 C   0  0  2  0  0  0  0  0  0  0  0  0
   27.4548  -20.4923  -14.9540 N   0  0  0  0  0  0  0  0  0  0  0  0
   25.4296  -21.6870  -14.6359 C   0  0  0  0  0  0  0  0  0  0  0  0
   24.5133  -22.4632  -14.9736 O   0  0  0  0  0  0  0  0  0  0  0  0
   31.3729  -21.6328  -20.6741 N   0  0  0  0  0  0  0  0  0  0  0  0
   25.0361  -19.9966   -8.6481 C   0  0  0  0  0  0  0  0  0  0  0  0
   26.0812  -20.8348   -9.1522 O   0  0  0  0  0  0  0  0  0  0  0  0
   27.1080  -20.9740   -8.4810 C   0  0  0  0  0  0  0  0  0  0  0  0
   25.8606  -21.5059  -10.4909 C   0  0  0  0  0  0  0  0  0  0  0  0
   24.6288  -20.9139  -11.0476 C   0  0  2  0  0  0  0  0  0  0  0  0
   24.2406  -21.3637  -12.4423 N   0  0  0  0  0  0  0  0  0  0  0  0
   25.3910  -21.1325  -13.3441 C   0  0  0  0  0  0  0  0  0  0  0  0
   23.0886  -20.5389  -12.8732 O   0  0  0  0  0  0  0  0  0  0  0  0
   23.2625  -19.3331  -13.1186 N   0  0  0  0  0  0  0  0  0  0  0  0
   21.7651  -21.0617  -13.0268 C   0  0  1  0  0  0  0  0  0  0  0  0
   20.7457  -20.3624  -13.8050 C   0  0  0  0  0  0  0  0  0  0  0  0
   21.3389  -20.0464  -15.1274 C   0  0  0  0  0  0  0  0  0  0  0  0
   20.5308  -19.3159  -16.1174 C   0  0  0  0  0  0  0  0  0  0  0  0
   21.0992  -19.0692  -17.4345 O   0  0  0  0  0  0  0  0  0  0  0  0
   21.2074  -19.8569  -18.3964 C   0  0  0  0  0  0  0  0  0  0  0  0
   19.4199  -20.9480  -13.7551 O   0  0  0  0  0  0  0  0  0  0  0  0
   19.3074  -22.1981  -13.5766 O   0  0  0  0  0  0  0  0  0  0  0  0
   21.5951  -17.7559  -17.6478 O   0  0  0  0  0  0  0  0  0  0  0  0
  1  2  1  0
  2  3  2  0
  4  5  1  0
  4  2  1  0
  6  5  1  0
  7  6  1  0
  8 10  1  0
  8  7  1  0
  8  9  1  1
 10 11  2  0
 13 15  1  0
 13 12  1  0
 14 13  2  0
 17 16  1  1
 16 15  1  0
 18 17  1  0
 18 10  1  0
 19 20  2  0
 19 17  1  0
 21 19  1  0
 22 27  1  0
 22 21  1  0
 22 23  1  1
 24 25  1  0
 24 23  1  0
 25 26  2  0
 27 30  1  0
 28 27  2  0
 29 25  1  0
M  END
$$$$
