RQE.pdb
     RDKit          3D

 30 29  0  0  1  0  0  0  0  0999 V2000
   18.7655  -14.1770  -14.7106 N   0  0  0  0  0  0  0  0  0  0  0  0
   17.9076  -14.6713  -15.7334 C   0  0  0  0  0  0  0  0  0  0  0  0
   17.3758  -15.8329  -15.5951 N   0  0  0  0  0  0  0  0  0  0  0  0
   17.6413  -13.8897  -16.8907 N   0  0  0  0  0  0  0  0  0  0  0  0
   18.4181  -12.6690  -17.0781 C   0  0  0  0  0  0  0  0  0  0  0  0
   17.5318  -11.4689  -17.0812 C   0  0  0  0  0  0  0  0  0  0  0  0
   16.7442  -11.3760  -15.8199 C   0  0  0  0  0  0  0  0  0  0  0  0
   15.7935  -10.2095  -15.8624 C   0  0  2  0  0  0  0  0  0  0  0  0
   14.9481  -10.4011  -17.0205 N   0  0  0  0  0  0  0  0  0  0  0  0
   16.5571   -8.9269  -16.0888 C   0  0  0  0  0  0  0  0  0  0  0  0
   16.9212   -8.6363  -17.2459 O   0  0  0  0  0  0  0  0  0  0  0  0
   16.7545  -16.2773  -16.2776 N   0  0  0  0  0  0  0  0  0  0  0  0
   14.9749   -3.9637  -15.2433 C   0  0  0  0  0  0  0  0  0  0  0  0
   16.2795   -3.3835  -15.1418 O   0  0  0  0  0  0  0  0  0  0  0  0
   16.4115   -2.1752  -15.3574 C   0  0  0  0  0  0  0  0  0  0  0  0
   17.4287   -4.2969  -14.7724 C   0  0  0  0  0  0  0  0  0  0  0  0
   16.8490   -5.6464  -14.6282 C   0  0  1  0  0  0  0  0  0  0  0  0
   17.5995   -6.7738  -15.3091 N   0  0  0  0  0  0  0  0  0  0  0  0
   16.8788   -8.0394  -15.0463 C   0  0  0  0  0  0  0  0  0  0  0  0
   18.9541   -6.8323  -14.7136 O   0  0  0  0  0  0  0  0  0  0  0  0
   19.1026   -7.3417  -13.5898 N   0  0  0  0  0  0  0  0  0  0  0  0
   20.1211   -6.3283  -15.3715 C   0  0  1  0  0  0  0  0  0  0  0  0
   21.4351   -6.3497  -14.7338 C   0  0  0  0  0  0  0  0  0  0  0  0
   22.3964   -6.8994  -15.7210 C   0  0  0  0  0  0  0  0  0  0  0  0
   22.2793   -8.3103  -16.1238 C   0  0  0  0  0  0  0  0  0  0  0  0
   23.2420   -8.8448  -17.0758 O   0  0  0  0  0  0  0  0  0  0  0  0
   24.2272   -9.5793  -16.8585 C   0  0  0  0  0  0  0  0  0  0  0  0
   21.7900   -5.1454  -14.0080 O   0  0  0  0  0  0  0  0  0  0  0  0
   21.1735   -4.0683  -14.2674 O   0  0  0  0  0  0  0  0  0  0  0  0
   23.0269   -8.4782  -18.4306 O   0  0  0  0  0  0  0  0  0  0  0  0
  1  2  1  0
  2  3  2  0
  4  5  1  0
  4  2  1  0
  6  5  1  0
  7  6  1  0
  8 10  1  0
  8  7  1  0
  8  9  1  6
 10 11  2  0
 13 15  1  0
 13 12  1  0
 14 13  2  0
 17 16  1  6
 16 15  1  0
 18 17  1  0
 18 10  1  0
 19 20  2  0
 19 17  1  0
 21 19  1  0
 22 27  1  0
 22 21  1  0
 22 23  1  1
 24 25  1  0
 24 23  1  0
 25 26  2  0
 27 30  1  0
 28 27  2  0
 29 25  1  0
M  END
$$$$
