RQE.pdb
     RDKit          3D

 30 29  0  0  1  0  0  0  0  0999 V2000
   14.9292  -26.8365  -13.2128 N   0  0  0  0  0  0  0  0  0  0  0  0
   16.0746  -27.6672  -13.0573 C   0  0  0  0  0  0  0  0  0  0  0  0
   15.9282  -28.8482  -12.5725 N   0  0  0  0  0  0  0  0  0  0  0  0
   17.3621  -27.1975  -13.4351 N   0  0  0  0  0  0  0  0  0  0  0  0
   18.0165  -26.2330  -12.5575 C   0  0  0  0  0  0  0  0  0  0  0  0
   17.4312  -24.8718  -12.7316 C   0  0  0  0  0  0  0  0  0  0  0  0
   18.4363  -23.9177  -13.2788 C   0  0  0  0  0  0  0  0  0  0  0  0
   19.1253  -23.1661  -12.1713 C   0  0  2  0  0  0  0  0  0  0  0  0
   18.0867  -22.5506  -11.3746 N   0  0  0  0  0  0  0  0  0  0  0  0
   19.9557  -22.0437  -12.7456 C   0  0  0  0  0  0  0  0  0  0  0  0
   19.4686  -20.8965  -12.7969 O   0  0  0  0  0  0  0  0  0  0  0  0
   16.6956  -29.4919  -12.3572 N   0  0  0  0  0  0  0  0  0  0  0  0
   25.8185  -22.6477  -14.2510 C   0  0  0  0  0  0  0  0  0  0  0  0
   25.7326  -21.2962  -14.7147 O   0  0  0  0  0  0  0  0  0  0  0  0
   26.7350  -20.7720  -15.2088 C   0  0  0  0  0  0  0  0  0  0  0  0
   24.4039  -20.5858  -14.5689 C   0  0  0  0  0  0  0  0  0  0  0  0
   23.4734  -21.5728  -13.9878 C   0  0  1  0  0  0  0  0  0  0  0  0
   22.0386  -21.1170  -13.8102 N   0  0  0  0  0  0  0  0  0  0  0  0
   21.2625  -22.2350  -13.2289 C   0  0  0  0  0  0  0  0  0  0  0  0
   21.5082  -20.7789  -15.1509 O   0  0  0  0  0  0  0  0  0  0  0  0
   20.9266  -21.6550  -15.8132 N   0  0  0  0  0  0  0  0  0  0  0  0
   21.6286  -19.4779  -15.7354 C   0  0  2  0  0  0  0  0  0  0  0  0
   21.0030  -19.1461  -17.0130 C   0  0  0  0  0  0  0  0  0  0  0  0
   21.6630  -19.9699  -18.0553 C   0  0  0  0  0  0  0  0  0  0  0  0
   22.1079  -19.3246  -19.3012 C   0  0  0  0  0  0  0  0  0  0  0  0
   23.5275  -19.0551  -19.4773 O   0  0  0  0  0  0  0  0  0  0  0  0
   24.5025  -19.6694  -18.9984 C   0  0  0  0  0  0  0  0  0  0  0  0
   19.5548  -19.0736  -16.9920 O   0  0  0  0  0  0  0  0  0  0  0  0
   18.9575  -19.0514  -15.8740 O   0  0  0  0  0  0  0  0  0  0  0  0
   23.8386  -17.9441  -20.3050 O   0  0  0  0  0  0  0  0  0  0  0  0
  1  2  1  0
  2  3  2  0
  4  5  1  0
  4  2  1  0
  6  5  1  0
  7  6  1  0
  8 10  1  0
  8  7  1  0
  8  9  1  1
 10 11  2  0
 13 15  1  0
 13 12  1  0
 14 13  2  0
 17 16  1  1
 16 15  1  0
 18 17  1  0
 18 10  1  0
 19 20  2  0
 19 17  1  0
 21 19  1  0
 22 27  1  0
 22 21  1  0
 22 23  1  1
 24 25  1  0
 24 23  1  0
 25 26  2  0
 27 30  1  0
 28 27  2  0
 29 25  1  0
M  END
$$$$
