RQE.pdb
     RDKit          3D

 30 29  0  0  1  0  0  0  0  0999 V2000
   29.5361  -16.7597  -19.7292 N   0  0  0  0  0  0  0  0  0  0  0  0
   28.2528  -16.5926  -20.3221 C   0  0  0  0  0  0  0  0  0  0  0  0
   28.1267  -16.7464  -21.5916 N   0  0  0  0  0  0  0  0  0  0  0  0
   27.1261  -16.2623  -19.5206 N   0  0  0  0  0  0  0  0  0  0  0  0
   27.2700  -16.3672  -18.0724 C   0  0  0  0  0  0  0  0  0  0  0  0
   27.1897  -17.7901  -17.6309 C   0  0  0  0  0  0  0  0  0  0  0  0
   27.2658  -17.9002  -16.1471 C   0  0  0  0  0  0  0  0  0  0  0  0
   27.3381  -19.3408  -15.7162 C   0  0  2  0  0  0  0  0  0  0  0  0
   28.1519  -20.0294  -16.6939 N   0  0  0  0  0  0  0  0  0  0  0  0
   25.9659  -19.9680  -15.7731 C   0  0  0  0  0  0  0  0  0  0  0  0
   25.4804  -20.2600  -16.8844 O   0  0  0  0  0  0  0  0  0  0  0  0
   27.2514  -16.6310  -22.1112 N   0  0  0  0  0  0  0  0  0  0  0  0
   23.7029  -24.5347  -12.8938 C   0  0  0  0  0  0  0  0  0  0  0  0
   24.4675  -24.5753  -14.1031 O   0  0  0  0  0  0  0  0  0  0  0  0
   24.9435  -25.6537  -14.4700 C   0  0  0  0  0  0  0  0  0  0  0  0
   24.6473  -23.2800  -14.8655 C   0  0  0  0  0  0  0  0  0  0  0  0
   23.9432  -22.2444  -14.0848 C   0  0  2  0  0  0  0  0  0  0  0  0
   23.8685  -20.8670  -14.7135 N   0  0  0  0  0  0  0  0  0  0  0  0
   25.2054  -20.2392  -14.6216 C   0  0  0  0  0  0  0  0  0  0  0  0
   22.8855  -20.0752  -13.9390 O   0  0  0  0  0  0  0  0  0  0  0  0
   23.1892  -19.6725  -12.8031 N   0  0  0  0  0  0  0  0  0  0  0  0
   21.5848  -19.7411  -14.4341 C   0  0  1  0  0  0  0  0  0  0  0  0
   20.6248  -18.9875  -13.6314 C   0  0  0  0  0  0  0  0  0  0  0  0
   20.0166  -17.9636  -14.5160 C   0  0  0  0  0  0  0  0  0  0  0  0
   19.0002  -17.0538  -13.9631 C   0  0  0  0  0  0  0  0  0  0  0  0
   18.3054  -16.1522  -14.8705 O   0  0  0  0  0  0  0  0  0  0  0  0
   18.4280  -14.9157  -14.9857 C   0  0  0  0  0  0  0  0  0  0  0  0
   19.7571  -19.7897  -12.7907 O   0  0  0  0  0  0  0  0  0  0  0  0
   19.0875  -19.2187  -11.8781 O   0  0  0  0  0  0  0  0  0  0  0  0
   17.3637  -16.7669  -15.7374 O   0  0  0  0  0  0  0  0  0  0  0  0
  1  2  1  0
  2  3  2  0
  4  5  1  0
  4  2  1  0
  6  5  1  0
  7  6  1  0
  8 10  1  0
  8  7  1  0
  8  9  1  6
 10 11  2  0
 13 15  1  0
 13 12  1  0
 14 13  2  0
 17 16  1  6
 16 15  1  0
 18 17  1  0
 18 10  1  0
 19 20  2  0
 19 17  1  0
 21 19  1  0
 22 27  1  0
 22 21  1  0
 22 23  1  1
 24 25  1  0
 24 23  1  0
 25 26  2  0
 27 30  1  0
 28 27  2  0
 29 25  1  0
M  END
$$$$
