RQE.pdb
     RDKit          3D

 30 29  0  0  1  0  0  0  0  0999 V2000
   26.2514  -10.6959  -15.2713 N   0  0  0  0  0  0  0  0  0  0  0  0
   25.4072   -9.6952  -15.8302 C   0  0  0  0  0  0  0  0  0  0  0  0
   25.8999   -8.8652  -16.6785 N   0  0  0  0  0  0  0  0  0  0  0  0
   24.0378   -9.6168  -15.4569 N   0  0  0  0  0  0  0  0  0  0  0  0
   23.3840  -10.8441  -15.0152 C   0  0  0  0  0  0  0  0  0  0  0  0
   22.1573  -11.1136  -15.8205 C   0  0  0  0  0  0  0  0  0  0  0  0
   21.3602  -12.2274  -15.2341 C   0  0  0  0  0  0  0  0  0  0  0  0
   20.1295  -12.5011  -16.0567 C   0  0  2  0  0  0  0  0  0  0  0  0
   20.5851  -12.9516  -17.3536 N   0  0  0  0  0  0  0  0  0  0  0  0
   19.3639  -11.2202  -16.2855 C   0  0  0  0  0  0  0  0  0  0  0  0
   19.6783  -10.4916  -17.2479 O   0  0  0  0  0  0  0  0  0  0  0  0
   25.3766   -8.1081  -17.1284 N   0  0  0  0  0  0  0  0  0  0  0  0
   13.7627  -10.5688  -14.3111 C   0  0  0  0  0  0  0  0  0  0  0  0
   13.7401   -9.3793  -15.1071 O   0  0  0  0  0  0  0  0  0  0  0  0
   12.6549   -8.8370  -15.3355 C   0  0  0  0  0  0  0  0  0  0  0  0
   15.0620   -8.8545  -15.6251 C   0  0  0  0  0  0  0  0  0  0  0  0
   16.0737   -9.8671  -15.2658 C   0  0  2  0  0  0  0  0  0  0  0  0
   17.4739   -9.6327  -15.7972 N   0  0  0  0  0  0  0  0  0  0  0  0
   18.3051  -10.8086  -15.4562 C   0  0  0  0  0  0  0  0  0  0  0  0
   18.0096   -8.4255  -15.1273 O   0  0  0  0  0  0  0  0  0  0  0  0
   18.9095   -8.5499  -14.2792 N   0  0  0  0  0  0  0  0  0  0  0  0
   17.5424   -7.1020  -15.4076 C   0  0  1  0  0  0  0  0  0  0  0  0
   18.2169   -5.9186  -14.8799 C   0  0  0  0  0  0  0  0  0  0  0  0
   19.6593   -6.0525  -15.2000 C   0  0  0  0  0  0  0  0  0  0  0  0
   20.5709   -4.9454  -14.8688 C   0  0  0  0  0  0  0  0  0  0  0  0
   21.9656   -5.0474  -15.2727 O   0  0  0  0  0  0  0  0  0  0  0  0
   22.8922   -5.6770  -14.7227 C   0  0  0  0  0  0  0  0  0  0  0  0
   17.5547   -4.6571  -15.1506 O   0  0  0  0  0  0  0  0  0  0  0  0
   16.6863   -4.6053  -16.0729 O   0  0  0  0  0  0  0  0  0  0  0  0
   22.3127   -4.3333  -16.4499 O   0  0  0  0  0  0  0  0  0  0  0  0
  1  2  1  0
  2  3  2  0
  4  5  1  0
  4  2  1  0
  6  5  1  0
  7  6  1  0
  8 10  1  0
  8  7  1  0
  8  9  1  6
 10 11  2  0
 13 15  1  0
 13 12  1  0
 14 13  2  0
 17 16  1  6
 16 15  1  0
 18 17  1  0
 18 10  1  0
 19 20  2  0
 19 17  1  0
 21 19  1  0
 22 27  1  0
 22 21  1  0
 22 23  1  1
 24 25  1  0
 24 23  1  0
 25 26  2  0
 27 30  1  0
 28 27  2  0
 29 25  1  0
M  END
$$$$
