RQE.pdb
     RDKit          3D

 30 29  0  0  1  0  0  0  0  0999 V2000
   29.1032  -20.7756  -20.1813 N   0  0  0  0  0  0  0  0  0  0  0  0
   28.4740  -20.0080  -19.1610 C   0  0  0  0  0  0  0  0  0  0  0  0
   28.0264  -18.8377  -19.4464 N   0  0  0  0  0  0  0  0  0  0  0  0
   28.3406  -20.5297  -17.8454 N   0  0  0  0  0  0  0  0  0  0  0  0
   28.6530  -21.9401  -17.6402 C   0  0  0  0  0  0  0  0  0  0  0  0
   28.3964  -22.3423  -16.2266 C   0  0  0  0  0  0  0  0  0  0  0  0
   27.0181  -22.8832  -16.0608 C   0  0  0  0  0  0  0  0  0  0  0  0
   26.0079  -21.7700  -15.9805 C   0  0  2  0  0  0  0  0  0  0  0  0
   26.7412  -20.5610  -15.6757 N   0  0  0  0  0  0  0  0  0  0  0  0
   25.0644  -22.0091  -14.8264 C   0  0  0  0  0  0  0  0  0  0  0  0
   24.3851  -23.0551  -14.8076 O   0  0  0  0  0  0  0  0  0  0  0  0
   27.5668  -18.2085  -18.7813 N   0  0  0  0  0  0  0  0  0  0  0  0
   25.0877  -19.9574   -8.9679 C   0  0  0  0  0  0  0  0  0  0  0  0
   26.1351  -20.7260   -9.5689 O   0  0  0  0  0  0  0  0  0  0  0  0
   27.1872  -20.8887   -8.9439 C   0  0  0  0  0  0  0  0  0  0  0  0
   25.8854  -21.2977  -10.9480 C   0  0  0  0  0  0  0  0  0  0  0  0
   24.5793  -20.7651  -11.3818 C   0  0  2  0  0  0  0  0  0  0  0  0
   23.9928  -21.3728  -12.6406 N   0  0  0  0  0  0  0  0  0  0  0  0
   24.9158  -21.0989  -13.7645 C   0  0  0  0  0  0  0  0  0  0  0  0
   22.6887  -20.7163  -12.8879 O   0  0  0  0  0  0  0  0  0  0  0  0
   22.5496  -19.5145  -12.6032 N   0  0  0  0  0  0  0  0  0  0  0  0
   21.5618  -21.3990  -13.4470 C   0  0  1  0  0  0  0  0  0  0  0  0
   20.2346  -20.7901  -13.4886 C   0  0  0  0  0  0  0  0  0  0  0  0
   19.3871  -21.6373  -14.3630 C   0  0  0  0  0  0  0  0  0  0  0  0
   19.9345  -22.1160  -15.6427 C   0  0  0  0  0  0  0  0  0  0  0  0
   19.0170  -22.3506  -16.7482 O   0  0  0  0  0  0  0  0  0  0  0  0
   18.2661  -21.5367  -17.3237 C   0  0  0  0  0  0  0  0  0  0  0  0
   19.7094  -20.3641  -12.2058 O   0  0  0  0  0  0  0  0  0  0  0  0
   19.8323  -21.1338  -11.2059 O   0  0  0  0  0  0  0  0  0  0  0  0
   18.9748  -23.6848  -17.2322 O   0  0  0  0  0  0  0  0  0  0  0  0
  1  2  1  0
  2  3  2  0
  4  5  1  0
  4  2  1  0
  6  5  1  0
  7  6  1  0
  8 10  1  0
  8  7  1  0
  8  9  1  1
 10 11  2  0
 13 15  1  0
 13 12  1  0
 14 13  2  0
 17 16  1  1
 16 15  1  0
 18 17  1  0
 18 10  1  0
 19 20  2  0
 19 17  1  0
 21 19  1  0
 22 27  1  0
 22 21  1  0
 22 23  1  1
 24 25  1  0
 24 23  1  0
 25 26  2  0
 27 30  1  0
 28 27  2  0
 29 25  1  0
M  END
$$$$
