IYS.pdb
     RDKit          3D

 27 27  0  0  1  0  0  0  0  0999 V2000
    6.8889  -16.1399   17.2316 C   0  0  0  0  0  0  0  0  0  0  0  0
    6.8378  -14.9315   18.1199 C   0  0  0  0  0  0  0  0  0  0  0  0
    7.5717  -15.1338   19.4228 C   0  0  2  0  0  0  0  0  0  0  0  0
    7.1428  -16.3677   20.1458 C   0  0  0  0  0  0  0  0  0  0  0  0
    7.4948  -13.8990   20.2646 C   0  0  2  0  0  0  0  0  0  0  0  0
    7.8441  -12.7527   19.4765 N   0  0  0  0  0  0  0  0  0  0  0  0
    8.3274  -14.0264   21.4868 C   0  0  0  0  0  0  0  0  0  0  0  0
    9.5820  -13.9946   21.4116 O   0  0  0  0  0  0  0  0  0  0  0  0
   10.6497  -15.2930   29.9488 O   0  0  0  0  0  0  0  0  0  0  0  0
    9.9752  -14.9204   28.8036 C   0  0  0  0  0  0  0  0  0  0  0  0
    9.1903  -15.8799   28.1769 C   0  0  0  0  0  0  0  0  0  0  0  0
    8.4963  -15.5606   27.0312 C   0  0  0  0  0  0  0  0  0  0  0  0
    8.5389  -14.3166   26.4611 C   0  0  0  0  0  0  0  0  0  0  0  0
    7.7614  -14.0513   25.2242 C   0  0  0  0  0  0  0  0  0  0  0  0
    8.5871  -14.3300   23.9817 C   0  0  2  0  0  0  0  0  0  0  0  0
    7.7621  -14.1876   22.7783 N   0  0  0  0  0  0  0  0  0  0  0  0
    9.0678  -15.7356   24.0050 C   0  0  0  0  0  0  0  0  0  0  0  0
    8.2703  -16.7319   23.9631 O   0  0  0  0  0  0  0  0  0  0  0  0
    9.3202  -13.3608   27.0845 C   0  0  0  0  0  0  0  0  0  0  0  0
   10.0274  -13.6689   28.2433 C   0  0  0  0  0  0  0  0  0  0  0  0
   12.6312  -16.9138   22.5932 O   0  0  0  0  0  0  0  0  0  0  0  0
   11.5872  -17.8048   22.8639 C   0  0  0  0  0  0  0  0  0  0  0  0
   10.8977  -17.4126   24.1551 C   0  0  2  0  0  0  0  0  0  0  0  0
   10.4547  -16.0398   24.0761 N   0  0  0  0  0  0  0  0  0  0  0  0
   11.8362  -17.5694   25.2987 C   0  0  0  0  0  0  0  0  0  0  0  0
   12.4541  -18.7900   25.5180 O   0  0  0  0  0  0  0  0  0  0  0  0
   12.0446  -16.5849   26.0395 O   0  0  0  0  0  0  0  0  0  0  0  0
  1  2  1  0
  3  4  1  1
  3  2  1  0
  5  6  1  6
  5  3  1  0
  7  5  1  0
  8  7  2  0
  9 10  1  0
 10 11  2  0
 10 20  1  0
 11 12  1  0
 12 13  2  0
 13 14  1  0
 15 14  1  1
 15 16  1  0
 16  7  1  0
 17 18  2  0
 17 15  1  0
 19 13  1  0
 20 19  2  0
 21 22  1  0
 23 22  1  6
 23 24  1  0
 24 17  1  0
 25 23  1  0
 26 25  1  0
 27 25  2  0
M  END
$$$$
