IYS.pdb
     RDKit          3D

 27 27  0  0  1  0  0  0  0  0999 V2000
    6.8138  -12.1442   18.8082 C   0  0  0  0  0  0  0  0  0  0  0  0
    6.8399  -13.4976   19.4560 C   0  0  0  0  0  0  0  0  0  0  0  0
    8.0682  -13.7141   20.3054 C   0  0  2  0  0  0  0  0  0  0  0  0
    9.3376  -13.4166   19.5779 C   0  0  0  0  0  0  0  0  0  0  0  0
    8.0457  -15.0780   20.9207 C   0  0  2  0  0  0  0  0  0  0  0  0
    6.6889  -15.4924   21.1313 N   0  0  0  0  0  0  0  0  0  0  0  0
    8.8554  -15.1225   22.1639 C   0  0  0  0  0  0  0  0  0  0  0  0
   10.1089  -15.0402   22.1136 O   0  0  0  0  0  0  0  0  0  0  0  0
   11.0962  -15.0940   30.7337 O   0  0  0  0  0  0  0  0  0  0  0  0
   10.4041  -14.9740   29.5455 C   0  0  0  0  0  0  0  0  0  0  0  0
    9.7722  -16.1076   29.0505 C   0  0  0  0  0  0  0  0  0  0  0  0
    9.0680  -16.0428   27.8688 C   0  0  0  0  0  0  0  0  0  0  0  0
    8.9538  -14.8920   27.1362 C   0  0  0  0  0  0  0  0  0  0  0  0
    8.1764  -14.9039   25.8711 C   0  0  0  0  0  0  0  0  0  0  0  0
    9.0631  -15.2183   24.6802 C   0  0  2  0  0  0  0  0  0  0  0  0
    8.2686  -15.2575   23.4489 N   0  0  0  0  0  0  0  0  0  0  0  0
    9.6616  -16.5682   24.8445 C   0  0  0  0  0  0  0  0  0  0  0  0
    8.9513  -17.6141   25.0232 O   0  0  0  0  0  0  0  0  0  0  0  0
    9.5827  -13.7629   27.6285 C   0  0  0  0  0  0  0  0  0  0  0  0
   10.2981  -13.8131   28.8215 C   0  0  0  0  0  0  0  0  0  0  0  0
   12.8603  -17.7181   22.9781 O   0  0  0  0  0  0  0  0  0  0  0  0
   12.0570  -18.6445   23.6518 C   0  0  0  0  0  0  0  0  0  0  0  0
   11.6317  -18.0784   24.9915 C   0  0  2  0  0  0  0  0  0  0  0  0
   11.0698  -16.7599   24.8099 N   0  0  0  0  0  0  0  0  0  0  0  0
   12.8041  -18.0002   25.9040 C   0  0  0  0  0  0  0  0  0  0  0  0
   13.5223  -19.1477   26.1996 O   0  0  0  0  0  0  0  0  0  0  0  0
   13.1134  -16.8893   26.3850 O   0  0  0  0  0  0  0  0  0  0  0  0
  1  2  1  0
  3  4  1  6
  3  2  1  0
  5  6  1  1
  5  3  1  0
  7  5  1  0
  8  7  2  0
  9 10  1  0
 10 11  2  0
 10 20  1  0
 11 12  1  0
 12 13  2  0
 13 14  1  0
 15 14  1  1
 15 16  1  0
 16  7  1  0
 17 18  2  0
 17 15  1  0
 19 13  1  0
 20 19  2  0
 21 22  1  0
 23 22  1  6
 23 24  1  0
 24 17  1  0
 25 23  1  0
 26 25  1  0
 27 25  2  0
M  END
$$$$
