IYS.pdb
     RDKit          3D

 27 27  0  0  1  0  0  0  0  0999 V2000
    7.1820  -11.8786   20.7048 C   0  0  0  0  0  0  0  0  0  0  0  0
    7.3989  -13.2935   21.1558 C   0  0  0  0  0  0  0  0  0  0  0  0
    8.3451  -14.0531   20.2587 C   0  0  2  0  0  0  0  0  0  0  0  0
    7.9229  -14.0421   18.8266 C   0  0  0  0  0  0  0  0  0  0  0  0
    8.5824  -15.4302   20.7941 C   0  0  2  0  0  0  0  0  0  0  0  0
    7.3913  -16.2167   20.6536 N   0  0  0  0  0  0  0  0  0  0  0  0
    9.0763  -15.3875   22.1932 C   0  0  0  0  0  0  0  0  0  0  0  0
   10.1893  -14.8684   22.4626 O   0  0  0  0  0  0  0  0  0  0  0  0
    6.4194  -10.6356   27.2604 O   0  0  0  0  0  0  0  0  0  0  0  0
    6.6540  -11.9311   26.8456 C   0  0  0  0  0  0  0  0  0  0  0  0
    7.9451  -12.4262   26.9775 C   0  0  0  0  0  0  0  0  0  0  0  0
    8.2333  -13.7124   26.5790 C   0  0  0  0  0  0  0  0  0  0  0  0
    7.2922  -14.5518   26.0460 C   0  0  0  0  0  0  0  0  0  0  0  0
    7.6827  -15.9257   25.6402 C   0  0  0  0  0  0  0  0  0  0  0  0
    8.8368  -15.9042   24.6549 C   0  0  2  0  0  0  0  0  0  0  0  0
    8.3328  -15.9196   23.2784 N   0  0  0  0  0  0  0  0  0  0  0  0
    9.6598  -17.1300   24.8212 C   0  0  0  0  0  0  0  0  0  0  0  0
    9.2033  -18.2980   24.5809 O   0  0  0  0  0  0  0  0  0  0  0  0
    6.0065  -14.0595   25.9144 C   0  0  0  0  0  0  0  0  0  0  0  0
    5.7002  -12.7613   26.3128 C   0  0  0  0  0  0  0  0  0  0  0  0
   14.0394  -19.0884   25.3331 O   0  0  0  0  0  0  0  0  0  0  0  0
   13.2702  -17.9267   25.2060 C   0  0  0  0  0  0  0  0  0  0  0  0
   11.8026  -18.2595   25.3835 C   0  0  2  0  0  0  0  0  0  0  0  0
   11.0098  -17.0580   25.2609 N   0  0  0  0  0  0  0  0  0  0  0  0
   11.5796  -18.8704   26.7215 C   0  0  0  0  0  0  0  0  0  0  0  0
   12.1407  -20.1025   27.0163 O   0  0  0  0  0  0  0  0  0  0  0  0
   10.8843  -18.2491   27.5533 O   0  0  0  0  0  0  0  0  0  0  0  0
  1  2  1  0
  3  4  1  6
  3  2  1  0
  5  6  1  1
  5  3  1  0
  7  5  1  0
  8  7  2  0
  9 10  1  0
 10 11  2  0
 10 20  1  0
 11 12  1  0
 12 13  2  0
 13 14  1  0
 15 14  1  1
 15 16  1  0
 16  7  1  0
 17 18  2  0
 17 15  1  0
 19 13  1  0
 20 19  2  0
 21 22  1  0
 23 22  1  1
 23 24  1  0
 24 17  1  0
 25 23  1  0
 26 25  1  0
 27 25  2  0
M  END
$$$$
