IYS.pdb
     RDKit          3D

 27 27  0  0  1  0  0  0  0  0999 V2000
    9.5053  -20.7195   20.6352 C   0  0  0  0  0  0  0  0  0  0  0  0
    9.4187  -19.4654   19.8156 C   0  0  0  0  0  0  0  0  0  0  0  0
    8.0353  -18.8627   19.8161 C   0  0  2  0  0  0  0  0  0  0  0  0
    7.0658  -19.6323   18.9813 C   0  0  0  0  0  0  0  0  0  0  0  0
    8.0968  -17.4100   19.4620 C   0  0  2  0  0  0  0  0  0  0  0  0
    8.9801  -17.2196   18.3482 N   0  0  0  0  0  0  0  0  0  0  0  0
    8.4730  -16.5838   20.6364 C   0  0  0  0  0  0  0  0  0  0  0  0
    9.6787  -16.3113   20.8662 O   0  0  0  0  0  0  0  0  0  0  0  0
    7.7054  -12.0299   28.2277 O   0  0  0  0  0  0  0  0  0  0  0  0
    7.4994  -12.5691   26.9738 C   0  0  0  0  0  0  0  0  0  0  0  0
    6.7192  -13.7150   26.8854 C   0  0  0  0  0  0  0  0  0  0  0  0
    6.4824  -14.2937   25.6585 C   0  0  0  0  0  0  0  0  0  0  0  0
    6.9871  -13.7881   24.4906 C   0  0  0  0  0  0  0  0  0  0  0  0
    6.6860  -14.4710   23.2069 C   0  0  0  0  0  0  0  0  0  0  0  0
    7.8852  -15.2517   22.7013 C   0  0  2  0  0  0  0  0  0  0  0  0
    7.5108  -16.0685   21.5431 N   0  0  0  0  0  0  0  0  0  0  0  0
    8.3500  -16.1920   23.7536 C   0  0  0  0  0  0  0  0  0  0  0  0
    7.6400  -17.1743   24.1551 O   0  0  0  0  0  0  0  0  0  0  0  0
    7.7640  -12.6473   24.5780 C   0  0  0  0  0  0  0  0  0  0  0  0
    8.0121  -12.0512   25.8112 C   0  0  0  0  0  0  0  0  0  0  0  0
   12.2549  -16.6854   24.3739 O   0  0  0  0  0  0  0  0  0  0  0  0
   11.3603  -17.6670   24.8137 C   0  0  0  0  0  0  0  0  0  0  0  0
   10.0919  -17.0149   25.3259 C   0  0  2  0  0  0  0  0  0  0  0  0
    9.6223  -16.0394   24.3694 N   0  0  0  0  0  0  0  0  0  0  0  0
   10.3553  -16.3490   26.6299 C   0  0  0  0  0  0  0  0  0  0  0  0
   10.8001  -17.0989   27.7068 O   0  0  0  0  0  0  0  0  0  0  0  0
   10.1664  -15.1172   26.7203 O   0  0  0  0  0  0  0  0  0  0  0  0
  1  2  1  0
  3  4  1  6
  3  2  1  0
  5  6  1  6
  5  3  1  0
  7  5  1  0
  8  7  2  0
  9 10  1  0
 10 11  2  0
 10 20  1  0
 11 12  1  0
 12 13  2  0
 13 14  1  0
 15 14  1  1
 15 16  1  0
 16  7  1  0
 17 18  2  0
 17 15  1  0
 19 13  1  0
 20 19  2  0
 21 22  1  0
 23 22  1  6
 23 24  1  0
 24 17  1  0
 25 23  1  0
 26 25  1  0
 27 25  2  0
M  END
$$$$
