IYS.pdb
     RDKit          3D

 27 27  0  0  1  0  0  0  0  0999 V2000
    7.8603  -12.1406   28.1939 C   0  0  0  0  0  0  0  0  0  0  0  0
    7.5916  -13.5710   27.8275 C   0  0  0  0  0  0  0  0  0  0  0  0
    6.8737  -13.7100   26.5075 C   0  0  2  0  0  0  0  0  0  0  0  0
    5.5574  -13.0058   26.4849 C   0  0  0  0  0  0  0  0  0  0  0  0
    6.7802  -15.1500   26.1113 C   0  0  2  0  0  0  0  0  0  0  0  0
    7.7704  -15.9118   26.8158 N   0  0  0  0  0  0  0  0  0  0  0  0
    6.8768  -15.3118   24.6390 C   0  0  0  0  0  0  0  0  0  0  0  0
    6.0284  -15.9982   24.0145 O   0  0  0  0  0  0  0  0  0  0  0  0
    8.1201  -13.6845   16.1428 O   0  0  0  0  0  0  0  0  0  0  0  0
    8.1380  -13.5846   17.5194 C   0  0  0  0  0  0  0  0  0  0  0  0
    7.0184  -14.0272   18.2123 C   0  0  0  0  0  0  0  0  0  0  0  0
    6.9844  -13.9502   19.5868 C   0  0  0  0  0  0  0  0  0  0  0  0
    8.0208  -13.4482   20.3270 C   0  0  0  0  0  0  0  0  0  0  0  0
    7.9070  -13.3989   21.8067 C   0  0  0  0  0  0  0  0  0  0  0  0
    7.9485  -14.7904   22.4111 C   0  0  2  0  0  0  0  0  0  0  0  0
    7.9110  -14.7124   23.8744 N   0  0  0  0  0  0  0  0  0  0  0  0
    9.2286  -15.4539   22.0523 C   0  0  0  0  0  0  0  0  0  0  0  0
    9.6095  -15.5958   20.8419 O   0  0  0  0  0  0  0  0  0  0  0  0
    9.1359  -13.0074   19.6378 C   0  0  0  0  0  0  0  0  0  0  0  0
    9.1848  -13.0789   18.2485 C   0  0  0  0  0  0  0  0  0  0  0  0
   11.8836  -16.8388   24.9945 O   0  0  0  0  0  0  0  0  0  0  0  0
   12.3766  -16.3654   23.7738 C   0  0  0  0  0  0  0  0  0  0  0  0
   11.3493  -16.5891   22.6824 C   0  0  2  0  0  0  0  0  0  0  0  0
   10.0988  -15.9676   23.0523 N   0  0  0  0  0  0  0  0  0  0  0  0
   11.1399  -18.0473   22.4747 C   0  0  0  0  0  0  0  0  0  0  0  0
    9.9013  -18.6083   22.7411 O   0  0  0  0  0  0  0  0  0  0  0  0
   12.0975  -18.7351   22.0609 O   0  0  0  0  0  0  0  0  0  0  0  0
  1  2  1  0
  3  4  1  1
  3  2  1  0
  5  6  1  1
  5  3  1  0
  7  5  1  0
  8  7  2  0
  9 10  1  0
 10 11  2  0
 10 20  1  0
 11 12  1  0
 12 13  2  0
 13 14  1  0
 15 14  1  6
 15 16  1  0
 16  7  1  0
 17 18  2  0
 17 15  1  0
 19 13  1  0
 20 19  2  0
 21 22  1  0
 23 22  1  1
 23 24  1  0
 24 17  1  0
 25 23  1  0
 26 25  1  0
 27 25  2  0
M  END
$$$$
