IYS.pdb
     RDKit          3D

 27 27  0  0  1  0  0  0  0  0999 V2000
    6.6900  -12.3685   18.4704 C   0  0  0  0  0  0  0  0  0  0  0  0
    6.9881  -13.6951   19.1057 C   0  0  0  0  0  0  0  0  0  0  0  0
    8.0894  -13.6149   20.1341 C   0  0  2  0  0  0  0  0  0  0  0  0
    9.3185  -12.9424   19.6181 C   0  0  0  0  0  0  0  0  0  0  0  0
    8.3571  -14.9652   20.7211 C   0  0  2  0  0  0  0  0  0  0  0  0
    7.1242  -15.6833   20.8670 N   0  0  0  0  0  0  0  0  0  0  0  0
    9.1103  -14.8597   21.9958 C   0  0  0  0  0  0  0  0  0  0  0  0
   10.3293  -14.5518   21.9943 O   0  0  0  0  0  0  0  0  0  0  0  0
   11.1758  -15.7617   30.5732 O   0  0  0  0  0  0  0  0  0  0  0  0
   10.5120  -15.5069   29.3901 C   0  0  0  0  0  0  0  0  0  0  0  0
    9.8517  -16.5661   28.7805 C   0  0  0  0  0  0  0  0  0  0  0  0
    9.1739  -16.3663   27.5986 C   0  0  0  0  0  0  0  0  0  0  0  0
    9.1138  -15.1490   26.9752 C   0  0  0  0  0  0  0  0  0  0  0  0
    8.3619  -15.0151   25.7017 C   0  0  0  0  0  0  0  0  0  0  0  0
    9.2814  -15.1409   24.5009 C   0  0  2  0  0  0  0  0  0  0  0  0
    8.5059  -15.0961   23.2577 N   0  0  0  0  0  0  0  0  0  0  0  0
    9.9647  -16.4598   24.5298 C   0  0  0  0  0  0  0  0  0  0  0  0
    9.3431  -17.5567   24.3278 O   0  0  0  0  0  0  0  0  0  0  0  0
    9.7710  -14.0939   27.5815 C   0  0  0  0  0  0  0  0  0  0  0  0
   10.4603  -14.2806   28.7764 C   0  0  0  0  0  0  0  0  0  0  0  0
   13.4922  -19.1128   23.2859 O   0  0  0  0  0  0  0  0  0  0  0  0
   12.8619  -17.8699   23.4082 C   0  0  0  0  0  0  0  0  0  0  0  0
   12.0301  -17.8371   24.6744 C   0  0  2  0  0  0  0  0  0  0  0  0
   11.3592  -16.5626   24.7867 N   0  0  0  0  0  0  0  0  0  0  0  0
   12.9034  -18.0479   25.8602 C   0  0  0  0  0  0  0  0  0  0  0  0
   13.5890  -19.2433   26.0048 O   0  0  0  0  0  0  0  0  0  0  0  0
   12.9966  -17.1308   26.7038 O   0  0  0  0  0  0  0  0  0  0  0  0
  1  2  1  0
  3  4  1  6
  3  2  1  0
  5  6  1  1
  5  3  1  0
  7  5  1  0
  8  7  2  0
  9 10  1  0
 10 11  2  0
 10 20  1  0
 11 12  1  0
 12 13  2  0
 13 14  1  0
 15 14  1  1
 15 16  1  0
 16  7  1  0
 17 18  2  0
 17 15  1  0
 19 13  1  0
 20 19  2  0
 21 22  1  0
 23 22  1  6
 23 24  1  0
 24 17  1  0
 25 23  1  0
 26 25  1  0
 27 25  2  0
M  END
$$$$
