IYS.pdb
     RDKit          3D

 27 27  0  0  1  0  0  0  0  0999 V2000
    7.7707  -11.5258   20.0037 C   0  0  0  0  0  0  0  0  0  0  0  0
    7.7128  -12.8747   20.6589 C   0  0  0  0  0  0  0  0  0  0  0  0
    8.3298  -13.9611   19.8128 C   0  0  2  0  0  0  0  0  0  0  0  0
    7.7345  -14.0419   18.4460 C   0  0  0  0  0  0  0  0  0  0  0  0
    8.3120  -15.2673   20.5429 C   0  0  2  0  0  0  0  0  0  0  0  0
    6.9592  -15.7186   20.6960 N   0  0  0  0  0  0  0  0  0  0  0  0
    9.0314  -15.1715   21.8377 C   0  0  0  0  0  0  0  0  0  0  0  0
   10.2611  -14.9112   21.8679 O   0  0  0  0  0  0  0  0  0  0  0  0
   10.8539  -14.9536   30.4861 O   0  0  0  0  0  0  0  0  0  0  0  0
   10.2192  -14.8692   29.2632 C   0  0  0  0  0  0  0  0  0  0  0  0
    9.6371  -16.0248   28.7582 C   0  0  0  0  0  0  0  0  0  0  0  0
    8.9913  -15.9957   27.5423 C   0  0  0  0  0  0  0  0  0  0  0  0
    8.8890  -14.8603   26.7843 C   0  0  0  0  0  0  0  0  0  0  0  0
    8.1759  -14.9108   25.4828 C   0  0  0  0  0  0  0  0  0  0  0  0
    9.1062  -15.3276   24.3584 C   0  0  2  0  0  0  0  0  0  0  0  0
    8.3820  -15.3649   23.0844 N   0  0  0  0  0  0  0  0  0  0  0  0
    9.6046  -16.7052   24.6059 C   0  0  0  0  0  0  0  0  0  0  0  0
    8.8191  -17.7027   24.7412 O   0  0  0  0  0  0  0  0  0  0  0  0
    9.4684  -13.7093   27.2865 C   0  0  0  0  0  0  0  0  0  0  0  0
   10.1245  -13.7234   28.5142 C   0  0  0  0  0  0  0  0  0  0  0  0
   12.9972  -17.5771   23.3010 O   0  0  0  0  0  0  0  0  0  0  0  0
   12.4923  -18.7199   23.9305 C   0  0  0  0  0  0  0  0  0  0  0  0
   11.4583  -18.3233   24.9649 C   0  0  2  0  0  0  0  0  0  0  0  0
   10.9960  -16.9796   24.7047 N   0  0  0  0  0  0  0  0  0  0  0  0
   12.0520  -18.3921   26.3272 C   0  0  0  0  0  0  0  0  0  0  0  0
   12.5702  -19.5905   26.7911 O   0  0  0  0  0  0  0  0  0  0  0  0
   12.0677  -17.3556   27.0249 O   0  0  0  0  0  0  0  0  0  0  0  0
  1  2  1  0
  3  4  1  6
  3  2  1  0
  5  6  1  1
  5  3  1  0
  7  5  1  0
  8  7  2  0
  9 10  1  0
 10 11  2  0
 10 20  1  0
 11 12  1  0
 12 13  2  0
 13 14  1  0
 15 14  1  1
 15 16  1  0
 16  7  1  0
 17 18  2  0
 17 15  1  0
 19 13  1  0
 20 19  2  0
 21 22  1  0
 23 22  1  6
 23 24  1  0
 24 17  1  0
 25 23  1  0
 26 25  1  0
 27 25  2  0
M  END
$$$$
