MMV.pdb
     RDKit          3D

 24 23  0  0  1  0  0  0  0  0999 V2000
   31.1096  -17.7111  -15.7948 C   0  0  0  0  0  0  0  0  0  0  0  0
   29.5004  -17.1987  -16.4151 S   0  0  0  0  0  0  0  0  0  0  0  0
   28.3478  -18.6148  -16.5075 C   0  0  0  0  0  0  0  0  0  0  0  0
   28.7675  -19.6006  -15.4631 C   0  0  0  0  0  0  0  0  0  0  0  0
   27.9014  -20.8269  -15.4208 C   0  0  2  0  0  0  0  0  0  0  0  0
   26.8545  -20.7480  -16.3931 N   0  0  0  0  0  0  0  0  0  0  0  0
   27.3724  -21.0875  -14.0468 C   0  0  0  0  0  0  0  0  0  0  0  0
   28.1698  -21.4815  -13.1641 O   0  0  0  0  0  0  0  0  0  0  0  0
   28.0517  -20.6217   -8.6633 C   0  0  0  0  0  0  0  0  0  0  0  0
   26.4394  -19.8306   -8.6399 S   0  0  0  0  0  0  0  0  0  0  0  0
   25.4441  -20.4872  -10.0249 C   0  0  0  0  0  0  0  0  0  0  0  0
   26.2179  -20.3481  -11.3031 C   0  0  0  0  0  0  0  0  0  0  0  0
   25.3976  -20.9486  -12.4329 C   0  0  2  0  0  0  0  0  0  0  0  0
   26.0145  -20.9049  -13.7175 N   0  0  0  0  0  0  0  0  0  0  0  0
   23.9742  -20.6513  -12.3850 C   0  0  0  0  0  0  0  0  0  0  0  0
   23.6322  -19.4491  -12.1691 O   0  0  0  0  0  0  0  0  0  0  0  0
   21.2049  -23.3752  -14.0146 C   0  0  0  0  0  0  0  0  0  0  0  0
   21.2498  -21.8938  -14.3212 C   0  0  2  0  0  0  0  0  0  0  0  0
   22.2602  -21.6969  -15.4238 C   0  0  0  0  0  0  0  0  0  0  0  0
   21.6377  -21.1546  -13.0623 C   0  0  2  0  0  0  0  0  0  0  0  0
   22.9282  -21.5953  -12.5602 N   0  0  0  0  0  0  0  0  0  0  0  0
   20.5814  -21.3707  -12.0408 C   0  0  0  0  0  0  0  0  0  0  0  0
   19.3326  -20.8198  -12.1603 O   0  0  0  0  0  0  0  0  0  0  0  0
   20.8440  -22.0822  -11.0352 O   0  0  0  0  0  0  0  0  0  0  0  0
  1  2  1  0
  2  3  1  0
  4  5  1  0
  4  3  1  0
  5  6  1  6
  7  5  1  0
  8  7  2  0
  9 10  1  0
 10 11  1  0
 13 12  1  1
 12 11  1  0
 13 14  1  0
 14  7  1  0
 15 21  1  0
 15 13  1  0
 16 15  2  0
 18 17  1  1
 18 20  1  0
 18 19  1  0
 20 22  1  0
 20 21  1  1
 22 23  1  0
 24 22  2  0
M  END
$$$$
