MMV.pdb
     RDKit          3D

 24 23  0  0  1  0  0  0  0  0999 V2000
   27.5920  -19.0776  -16.0999 C   0  0  0  0  0  0  0  0  0  0  0  0
   29.0457  -19.9865  -15.5544 S   0  0  0  0  0  0  0  0  0  0  0  0
   28.8888  -20.4926  -13.8046 C   0  0  0  0  0  0  0  0  0  0  0  0
   27.8292  -19.6365  -13.1858 C   0  0  0  0  0  0  0  0  0  0  0  0
   26.6952  -20.4262  -12.5976 C   0  0  2  0  0  0  0  0  0  0  0  0
   25.5666  -20.4342  -13.4772 N   0  0  0  0  0  0  0  0  0  0  0  0
   26.3353  -19.9475  -11.2276 C   0  0  0  0  0  0  0  0  0  0  0  0
   26.0352  -18.7404  -11.0758 O   0  0  0  0  0  0  0  0  0  0  0  0
   22.9286  -22.9507   -6.1757 C   0  0  0  0  0  0  0  0  0  0  0  0
   22.7950  -21.1638   -6.2973 S   0  0  0  0  0  0  0  0  0  0  0  0
   24.3839  -20.4972   -6.9064 C   0  0  0  0  0  0  0  0  0  0  0  0
   24.6209  -20.9793   -8.3077 C   0  0  0  0  0  0  0  0  0  0  0  0
   25.9917  -20.5018   -8.7580 C   0  0  2  0  0  0  0  0  0  0  0  0
   26.3239  -20.8066  -10.1106 N   0  0  0  0  0  0  0  0  0  0  0  0
   27.0527  -20.6637   -7.7759 C   0  0  0  0  0  0  0  0  0  0  0  0
   27.7991  -21.6840   -7.8802 O   0  0  0  0  0  0  0  0  0  0  0  0
   30.5533  -19.5433   -4.7854 C   0  0  0  0  0  0  0  0  0  0  0  0
   29.4942  -19.1050   -5.7738 C   0  0  2  0  0  0  0  0  0  0  0  0
   29.0400  -17.7276   -5.3592 C   0  0  0  0  0  0  0  0  0  0  0  0
   28.3631  -20.1056   -5.7405 C   0  0  2  0  0  0  0  0  0  0  0  0
   27.3276  -19.7736   -6.7044 N   0  0  0  0  0  0  0  0  0  0  0  0
   27.8013  -20.1408   -4.3659 C   0  0  0  0  0  0  0  0  0  0  0  0
   26.4891  -19.8409   -4.1103 O   0  0  0  0  0  0  0  0  0  0  0  0
   28.5561  -20.4560   -3.4082 O   0  0  0  0  0  0  0  0  0  0  0  0
  1  2  1  0
  2  3  1  0
  4  5  1  0
  4  3  1  0
  5  6  1  6
  7  5  1  0
  8  7  2  0
  9 10  1  0
 10 11  1  0
 13 12  1  1
 12 11  1  0
 13 14  1  0
 14  7  1  0
 15 21  1  0
 15 13  1  0
 16 15  2  0
 18 17  1  1
 18 20  1  0
 18 19  1  0
 20 22  1  0
 20 21  1  6
 22 23  1  0
 24 22  2  0
M  END
$$$$
