MMV.pdb
     RDKit          3D

 24 23  0  0  1  0  0  0  0  0999 V2000
   20.9364  -27.2548  -11.9893 C   0  0  0  0  0  0  0  0  0  0  0  0
   21.1959  -27.8248  -13.6760 S   0  0  0  0  0  0  0  0  0  0  0  0
   22.5376  -26.8870  -14.4900 C   0  0  0  0  0  0  0  0  0  0  0  0
   22.2709  -25.4333  -14.2570 C   0  0  0  0  0  0  0  0  0  0  0  0
   23.3310  -24.5354  -14.8277 C   0  0  2  0  0  0  0  0  0  0  0  0
   24.6300  -24.9195  -14.3664 N   0  0  0  0  0  0  0  0  0  0  0  0
   23.0435  -23.0932  -14.5575 C   0  0  0  0  0  0  0  0  0  0  0  0
   21.9035  -22.6497  -14.8295 O   0  0  0  0  0  0  0  0  0  0  0  0
   26.5760  -19.7184  -10.3992 C   0  0  0  0  0  0  0  0  0  0  0  0
   25.2861  -20.8645   -9.9006 S   0  0  0  0  0  0  0  0  0  0  0  0
   24.1347  -21.0965  -11.3006 C   0  0  0  0  0  0  0  0  0  0  0  0
   24.6546  -20.3587  -12.4996 C   0  0  0  0  0  0  0  0  0  0  0  0
   23.8928  -20.8321  -13.7265 C   0  0  2  0  0  0  0  0  0  0  0  0
   24.0089  -22.2245  -14.0103 N   0  0  0  0  0  0  0  0  0  0  0  0
   23.9418  -19.9301  -14.8670 C   0  0  0  0  0  0  0  0  0  0  0  0
   25.0840  -19.5492  -15.2660 O   0  0  0  0  0  0  0  0  0  0  0  0
   20.8920  -19.3912  -17.6665 C   0  0  0  0  0  0  0  0  0  0  0  0
   22.3562  -19.1541  -17.9677 C   0  0  2  0  0  0  0  0  0  0  0  0
   22.9525  -20.4840  -18.3566 C   0  0  0  0  0  0  0  0  0  0  0  0
   23.0132  -18.5805  -16.7345 C   0  0  2  0  0  0  0  0  0  0  0  0
   22.8157  -19.4363  -15.5768 N   0  0  0  0  0  0  0  0  0  0  0  0
   22.4517  -17.2286  -16.4832 C   0  0  0  0  0  0  0  0  0  0  0  0
   22.7435  -16.1601  -17.2897 O   0  0  0  0  0  0  0  0  0  0  0  0
   21.6845  -17.0620  -15.4984 O   0  0  0  0  0  0  0  0  0  0  0  0
  1  2  1  0
  2  3  1  0
  4  5  1  0
  4  3  1  0
  5  6  1  1
  7  5  1  0
  8  7  2  0
  9 10  1  0
 10 11  1  0
 13 12  1  1
 12 11  1  0
 13 14  1  0
 14  7  1  0
 15 21  1  0
 15 13  1  0
 16 15  2  0
 18 17  1  1
 18 20  1  0
 18 19  1  0
 20 22  1  0
 20 21  1  1
 22 23  1  0
 24 22  2  0
M  END
$$$$
