MMV.pdb
     RDKit          3D

 24 23  0  0  1  0  0  0  0  0999 V2000
   21.0439  -18.3154  -16.3072 C   0  0  0  0  0  0  0  0  0  0  0  0
   20.8973  -18.2268  -18.0981 S   0  0  0  0  0  0  0  0  0  0  0  0
   20.3788  -16.5581  -18.6356 C   0  0  0  0  0  0  0  0  0  0  0  0
   20.8695  -15.5862  -17.6093 C   0  0  0  0  0  0  0  0  0  0  0  0
   20.7883  -14.1554  -18.0587 C   0  0  2  0  0  0  0  0  0  0  0  0
   21.3469  -13.9971  -19.3665 N   0  0  0  0  0  0  0  0  0  0  0  0
   21.4093  -13.2245  -17.0669 C   0  0  0  0  0  0  0  0  0  0  0  0
   20.9658  -13.2170  -15.8950 O   0  0  0  0  0  0  0  0  0  0  0  0
   27.2152  -12.4964  -14.8977 C   0  0  0  0  0  0  0  0  0  0  0  0
   26.9140  -10.7564  -15.2255 S   0  0  0  0  0  0  0  0  0  0  0  0
   25.1229  -10.5118  -15.4936 C   0  0  0  0  0  0  0  0  0  0  0  0
   24.6153  -11.5557  -16.4448 C   0  0  0  0  0  0  0  0  0  0  0  0
   23.1135  -11.3804  -16.5987 C   0  0  2  0  0  0  0  0  0  0  0  0
   22.4701  -12.3619  -17.4083 N   0  0  0  0  0  0  0  0  0  0  0  0
   22.6687  -10.0056  -16.7674 C   0  0  0  0  0  0  0  0  0  0  0  0
   23.0711   -9.3798  -17.7947 O   0  0  0  0  0  0  0  0  0  0  0  0
   19.0781   -8.5083  -15.4185 C   0  0  0  0  0  0  0  0  0  0  0  0
   19.8650   -8.0135  -16.6130 C   0  0  2  0  0  0  0  0  0  0  0  0
   19.5933   -8.9654  -17.7512 C   0  0  0  0  0  0  0  0  0  0  0  0
   21.3291   -7.9802  -16.2429 C   0  0  2  0  0  0  0  0  0  0  0  0
   21.8178   -9.2990  -15.8771 N   0  0  0  0  0  0  0  0  0  0  0  0
   21.5125   -7.0277  -15.1182 C   0  0  0  0  0  0  0  0  0  0  0  0
   21.4437   -5.6711  -15.2975 O   0  0  0  0  0  0  0  0  0  0  0  0
   21.7382   -7.4832  -13.9659 O   0  0  0  0  0  0  0  0  0  0  0  0
  1  2  1  0
  2  3  1  0
  4  5  1  0
  4  3  1  0
  5  6  1  6
  7  5  1  0
  8  7  2  0
  9 10  1  0
 10 11  1  0
 13 12  1  6
 12 11  1  0
 13 14  1  0
 14  7  1  0
 15 21  1  0
 15 13  1  0
 16 15  2  0
 18 17  1  1
 18 20  1  0
 18 19  1  0
 20 22  1  0
 20 21  1  1
 22 23  1  0
 24 22  2  0
M  END
$$$$
