MMV.pdb
     RDKit          3D

 24 23  0  0  1  0  0  0  0  0999 V2000
   16.8178  -19.1130  -15.7919 C   0  0  0  0  0  0  0  0  0  0  0  0
   15.3844  -18.0782  -16.1259 S   0  0  0  0  0  0  0  0  0  0  0  0
   15.8523  -16.5925  -17.0831 C   0  0  0  0  0  0  0  0  0  0  0  0
   16.7250  -15.7523  -16.2049 C   0  0  0  0  0  0  0  0  0  0  0  0
   17.1292  -14.4518  -16.8379 C   0  0  2  0  0  0  0  0  0  0  0  0
   17.7971  -14.6745  -18.0836 N   0  0  0  0  0  0  0  0  0  0  0  0
   17.9425  -13.6093  -15.9081 C   0  0  0  0  0  0  0  0  0  0  0  0
   18.3679  -14.1275  -14.8493 O   0  0  0  0  0  0  0  0  0  0  0  0
   24.3280  -10.9513  -13.7800 C   0  0  0  0  0  0  0  0  0  0  0  0
   23.1950  -12.0741  -14.6054 S   0  0  0  0  0  0  0  0  0  0  0  0
   21.5885  -11.2307  -14.8232 C   0  0  0  0  0  0  0  0  0  0  0  0
   20.6438  -12.1408  -15.5522 C   0  0  0  0  0  0  0  0  0  0  0  0
   19.2909  -11.4553  -15.6505 C   0  0  2  0  0  0  0  0  0  0  0  0
   18.2425  -12.2605  -16.1846 N   0  0  0  0  0  0  0  0  0  0  0  0
   19.3341  -10.0691  -16.0899 C   0  0  0  0  0  0  0  0  0  0  0  0
   19.7487   -9.8385  -17.2663 O   0  0  0  0  0  0  0  0  0  0  0  0
   16.9875   -7.0392  -14.5745 C   0  0  0  0  0  0  0  0  0  0  0  0
   17.5803   -7.0208  -15.9670 C   0  0  2  0  0  0  0  0  0  0  0  0
   16.6595   -7.8209  -16.8543 C   0  0  0  0  0  0  0  0  0  0  0  0
   18.9660   -7.6192  -15.9068 C   0  0  2  0  0  0  0  0  0  0  0  0
   18.9500   -8.9451  -15.3123 N   0  0  0  0  0  0  0  0  0  0  0  0
   19.8418   -6.7096  -15.1247 C   0  0  0  0  0  0  0  0  0  0  0  0
   20.3022   -5.5259  -15.6386 O   0  0  0  0  0  0  0  0  0  0  0  0
   20.1698   -7.0387  -13.9540 O   0  0  0  0  0  0  0  0  0  0  0  0
  1  2  1  0
  2  3  1  0
  4  5  1  0
  4  3  1  0
  5  6  1  6
  7  5  1  0
  8  7  2  0
  9 10  1  0
 10 11  1  0
 13 12  1  6
 12 11  1  0
 13 14  1  0
 14  7  1  0
 15 21  1  0
 15 13  1  0
 16 15  2  0
 18 17  1  1
 18 20  1  0
 18 19  1  0
 20 22  1  0
 20 21  1  1
 22 23  1  0
 24 22  2  0
M  END
$$$$
