MMV.pdb
     RDKit          3D

 24 23  0  0  1  0  0  0  0  0999 V2000
   28.5827  -17.1003  -16.2489 C   0  0  0  0  0  0  0  0  0  0  0  0
   28.3561  -18.0180  -17.7798 S   0  0  0  0  0  0  0  0  0  0  0  0
   26.6482  -17.8414  -18.4079 C   0  0  0  0  0  0  0  0  0  0  0  0
   25.7649  -17.5746  -17.2301 C   0  0  0  0  0  0  0  0  0  0  0  0
   24.8493  -18.7190  -16.9023 C   0  0  2  0  0  0  0  0  0  0  0  0
   24.3223  -19.3106  -18.0939 N   0  0  0  0  0  0  0  0  0  0  0  0
   23.7685  -18.3126  -15.9524 C   0  0  0  0  0  0  0  0  0  0  0  0
   24.0880  -17.6828  -14.9173 O   0  0  0  0  0  0  0  0  0  0  0  0
   18.2388  -16.1498  -17.9717 C   0  0  0  0  0  0  0  0  0  0  0  0
   19.2479  -15.1791  -16.8467 S   0  0  0  0  0  0  0  0  0  0  0  0
   20.6480  -16.2075  -16.2793 C   0  0  0  0  0  0  0  0  0  0  0  0
   20.1559  -17.5914  -15.9717 C   0  0  0  0  0  0  0  0  0  0  0  0
   21.2905  -18.3780  -15.3362 C   0  0  2  0  0  0  0  0  0  0  0  0
   22.4117  -18.6145  -16.1846 N   0  0  0  0  0  0  0  0  0  0  0  0
   20.8729  -19.4836  -14.4878 C   0  0  0  0  0  0  0  0  0  0  0  0
   20.8003  -20.6346  -15.0160 O   0  0  0  0  0  0  0  0  0  0  0  0
   19.9966  -21.7694  -10.2532 C   0  0  0  0  0  0  0  0  0  0  0  0
   20.4577  -20.4952  -10.9273 C   0  0  2  0  0  0  0  0  0  0  0  0
   19.7648  -19.3483  -10.2346 C   0  0  0  0  0  0  0  0  0  0  0  0
   20.0975  -20.5696  -12.3923 C   0  0  2  0  0  0  0  0  0  0  0  0
   20.5377  -19.3861  -13.1115 N   0  0  0  0  0  0  0  0  0  0  0  0
   18.6260  -20.7325  -12.5113 C   0  0  0  0  0  0  0  0  0  0  0  0
   18.0180  -21.9533  -12.3796 O   0  0  0  0  0  0  0  0  0  0  0  0
   17.9180  -19.7164  -12.7402 O   0  0  0  0  0  0  0  0  0  0  0  0
  1  2  1  0
  2  3  1  0
  4  5  1  0
  4  3  1  0
  5  6  1  6
  7  5  1  0
  8  7  2  0
  9 10  1  0
 10 11  1  0
 13 12  1  6
 12 11  1  0
 13 14  1  0
 14  7  1  0
 15 21  1  0
 15 13  1  0
 16 15  2  0
 18 17  1  1
 18 20  1  0
 18 19  1  0
 20 22  1  0
 20 21  1  6
 22 23  1  0
 24 22  2  0
M  END
$$$$
