MMV.pdb
     RDKit          3D

 24 23  0  0  1  0  0  0  0  0999 V2000
   17.9484   -7.0535  -21.5920 C   0  0  0  0  0  0  0  0  0  0  0  0
   18.0900   -8.6926  -22.3202 S   0  0  0  0  0  0  0  0  0  0  0  0
   17.7975   -9.9962  -21.0722 C   0  0  0  0  0  0  0  0  0  0  0  0
   17.8913   -9.3529  -19.7246 C   0  0  0  0  0  0  0  0  0  0  0  0
   18.2574  -10.3149  -18.6309 C   0  0  2  0  0  0  0  0  0  0  0  0
   17.2410  -11.3077  -18.4609 N   0  0  0  0  0  0  0  0  0  0  0  0
   18.5716   -9.6088  -17.3509 C   0  0  0  0  0  0  0  0  0  0  0  0
   17.6268   -9.1114  -16.6950 O   0  0  0  0  0  0  0  0  0  0  0  0
   23.6662  -10.7745  -13.0888 C   0  0  0  0  0  0  0  0  0  0  0  0
   22.3053   -9.9295  -12.2766 S   0  0  0  0  0  0  0  0  0  0  0  0
   21.4550   -8.8744  -13.5027 C   0  0  0  0  0  0  0  0  0  0  0  0
   21.1335   -9.6887  -14.7216 C   0  0  0  0  0  0  0  0  0  0  0  0
   20.3433   -8.8216  -15.6878 C   0  0  2  0  0  0  0  0  0  0  0  0
   19.8884   -9.4869  -16.8639 N   0  0  0  0  0  0  0  0  0  0  0  0
   20.8551   -7.4709  -15.8620 C   0  0  0  0  0  0  0  0  0  0  0  0
   21.7569   -7.2927  -16.7360 O   0  0  0  0  0  0  0  0  0  0  0  0
   20.5851   -2.6747  -16.0031 C   0  0  0  0  0  0  0  0  0  0  0  0
   19.9381   -4.0335  -15.8425 C   0  0  2  0  0  0  0  0  0  0  0  0
   18.8680   -3.8962  -14.7882 C   0  0  0  0  0  0  0  0  0  0  0  0
   21.0021   -5.0272  -15.4399 C   0  0  2  0  0  0  0  0  0  0  0  0
   20.4304   -6.3279  -15.1347 N   0  0  0  0  0  0  0  0  0  0  0  0
   21.7309   -4.4907  -14.2622 C   0  0  0  0  0  0  0  0  0  0  0  0
   21.5589   -5.0075  -13.0050 O   0  0  0  0  0  0  0  0  0  0  0  0
   22.5306   -3.5316  -14.4268 O   0  0  0  0  0  0  0  0  0  0  0  0
  1  2  1  0
  2  3  1  0
  4  5  1  0
  4  3  1  0
  5  6  1  1
  7  5  1  0
  8  7  2  0
  9 10  1  0
 10 11  1  0
 13 12  1  6
 12 11  1  0
 13 14  1  0
 14  7  1  0
 15 21  1  0
 15 13  1  0
 16 15  2  0
 18 17  1  1
 18 20  1  0
 18 19  1  0
 20 22  1  0
 20 21  1  1
 22 23  1  0
 24 22  2  0
M  END
$$$$
