MMV.pdb
     RDKit          3D

 24 23  0  0  1  0  0  0  0  0999 V2000
   19.0060  -26.7138  -10.4153 C   0  0  0  0  0  0  0  0  0  0  0  0
   18.5422  -27.1062   -8.7219 S   0  0  0  0  0  0  0  0  0  0  0  0
   18.4500  -25.5955   -7.6964 C   0  0  0  0  0  0  0  0  0  0  0  0
   19.0260  -24.4737   -8.5017 C   0  0  0  0  0  0  0  0  0  0  0  0
   19.1759  -23.1985   -7.7227 C   0  0  2  0  0  0  0  0  0  0  0  0
   17.9016  -22.7054   -7.2977 N   0  0  0  0  0  0  0  0  0  0  0  0
   19.9505  -22.1698   -8.4826 C   0  0  0  0  0  0  0  0  0  0  0  0
   19.3446  -21.1587   -8.9078 O   0  0  0  0  0  0  0  0  0  0  0  0
   26.1169  -19.5572   -7.4844 C   0  0  0  0  0  0  0  0  0  0  0  0
   26.1078  -20.2685   -9.1336 S   0  0  0  0  0  0  0  0  0  0  0  0
   24.3819  -20.3446   -9.7297 C   0  0  0  0  0  0  0  0  0  0  0  0
   23.6064  -21.3128   -8.8852 C   0  0  0  0  0  0  0  0  0  0  0  0
   22.1954  -21.4163   -9.4402 C   0  0  2  0  0  0  0  0  0  0  0  0
   21.3309  -22.3025   -8.7330 N   0  0  0  0  0  0  0  0  0  0  0  0
   22.1057  -21.4419  -10.8921 C   0  0  0  0  0  0  0  0  0  0  0  0
   22.3775  -22.5334  -11.4783 O   0  0  0  0  0  0  0  0  0  0  0  0
   20.5059  -18.3443  -13.2950 C   0  0  0  0  0  0  0  0  0  0  0  0
   20.4051  -19.7996  -13.6984 C   0  0  2  0  0  0  0  0  0  0  0  0
   19.1123  -20.3310  -13.1313 C   0  0  0  0  0  0  0  0  0  0  0  0
   21.6056  -20.5341  -13.1498 C   0  0  2  0  0  0  0  0  0  0  0  0
   21.7380  -20.3449  -11.7151 N   0  0  0  0  0  0  0  0  0  0  0  0
   22.8207  -20.0482  -13.8522 C   0  0  0  0  0  0  0  0  0  0  0  0
   23.0918  -20.3865  -15.1520 O   0  0  0  0  0  0  0  0  0  0  0  0
   23.6247  -19.3029  -13.2322 O   0  0  0  0  0  0  0  0  0  0  0  0
  1  2  1  0
  2  3  1  0
  4  5  1  0
  4  3  1  0
  5  6  1  6
  7  5  1  0
  8  7  2  0
  9 10  1  0
 10 11  1  0
 13 12  1  6
 12 11  1  0
 13 14  1  0
 14  7  1  0
 15 21  1  0
 15 13  1  0
 16 15  2  0
 18 17  1  1
 18 20  1  0
 18 19  1  0
 20 22  1  0
 20 21  1  1
 22 23  1  0
 24 22  2  0
M  END
$$$$
