RQF.pdb
     RDKit          3D

 32 32  0  0  1  0  0  0  0  0999 V2000
   31.9402  -24.9671  -18.2844 N   0  0  0  0  0  0  0  0  0  0  0  0
   31.1104  -24.9775  -17.1351 C   0  0  0  0  0  0  0  0  0  0  0  0
   31.5174  -25.6454  -16.1073 N   0  0  0  0  0  0  0  0  0  0  0  0
   29.8631  -24.2780  -17.0771 N   0  0  0  0  0  0  0  0  0  0  0  0
   29.3942  -23.4615  -18.1626 C   0  0  0  0  0  0  0  0  0  0  0  0
   29.6896  -21.9973  -18.0355 C   0  0  0  0  0  0  0  0  0  0  0  0
   28.5336  -21.1403  -17.6564 C   0  0  0  0  0  0  0  0  0  0  0  0
   27.2255  -21.6423  -18.2419 C   0  0  2  0  0  0  0  0  0  0  0  0
   26.9725  -21.1419  -19.5476 N   0  0  0  0  0  0  0  0  0  0  0  0
   26.1657  -21.3975  -17.2462 C   0  0  0  0  0  0  0  0  0  0  0  0
   25.6051  -20.2724  -17.2728 O   0  0  0  0  0  0  0  0  0  0  0  0
   30.9211  -25.6861  -15.2599 N   0  0  0  0  0  0  0  0  0  0  0  0
   21.2791  -23.1326  -14.3600 C   0  0  0  0  0  0  0  0  0  0  0  0
   21.5347  -23.3094  -15.7512 O   0  0  0  0  0  0  0  0  0  0  0  0
   20.5516  -23.2578  -16.5532 C   0  0  0  0  0  0  0  0  0  0  0  0
   22.9081  -23.5430  -16.2056 C   0  0  0  0  0  0  0  0  0  0  0  0
   23.9656  -23.3837  -15.1770 C   0  0  2  0  0  0  0  0  0  0  0  0
   24.7851  -22.1408  -15.3424 N   0  0  0  0  0  0  0  0  0  0  0  0
   25.8187  -22.3920  -16.3222 C   0  0  0  0  0  0  0  0  0  0  0  0
   25.5203  -21.7603  -14.0895 O   0  0  0  0  0  0  0  0  0  0  0  0
   26.7404  -22.0278  -14.0151 N   0  0  0  0  0  0  0  0  0  0  0  0
   24.9161  -21.1184  -12.9922 C   0  0  2  0  0  0  0  0  0  0  0  0
   25.6619  -20.7669  -11.7892 C   0  0  0  0  0  0  0  0  0  0  0  0
   25.1238  -19.5046  -11.1651 C   0  0  0  0  0  0  0  0  0  0  0  0
   23.6800  -19.7373  -10.8394 C   0  0  0  0  0  0  0  0  0  0  0  0
   22.6958  -19.6733  -11.7988 C   0  0  0  0  0  0  0  0  0  0  0  0
   21.3531  -19.8895  -11.5400 C   0  0  0  0  0  0  0  0  0  0  0  0
   20.9755  -20.1879  -10.2410 C   0  0  0  0  0  0  0  0  0  0  0  0
   21.9600  -20.2544   -9.2684 C   0  0  0  0  0  0  0  0  0  0  0  0
   23.2887  -20.0366   -9.5429 C   0  0  0  0  0  0  0  0  0  0  0  0
   25.7930  -21.8948  -10.8680 O   0  0  0  0  0  0  0  0  0  0  0  0
   26.5346  -21.7531   -9.8639 O   0  0  0  0  0  0  0  0  0  0  0  0
  2  3  2  0
  2  1  1  0
  4  2  1  0
  5  4  1  0
  6  5  1  0
  7  6  1  0
  8  9  1  6
  8  7  1  0
 10 18  1  0
 10  8  1  0
 11 10  2  0
 13 12  1  0
 14 13  2  0
 15 13  1  0
 16 15  1  0
 17 18  1  0
 17 16  1  6
 19 17  1  0
 20 19  2  0
 21 19  1  0
 22 23  1  1
 22 21  1  0
 23 24  1  0
 24 25  2  0
 25 26  1  0
 27 26  2  0
 28 27  1  0
 29 24  1  0
 29 28  2  0
 30 32  1  0
 30 22  1  0
 31 30  2  0
M  END
$$$$
