RQF.pdb
     RDKit          3D

 32 32  0  0  1  0  0  0  0  0999 V2000
   28.8991  -34.9763  -16.4323 N   0  0  0  0  0  0  0  0  0  0  0  0
   29.9688  -34.5270  -17.2469 C   0  0  0  0  0  0  0  0  0  0  0  0
   30.7204  -35.4215  -17.7974 N   0  0  0  0  0  0  0  0  0  0  0  0
   30.2320  -33.1395  -17.4795 N   0  0  0  0  0  0  0  0  0  0  0  0
   29.4916  -32.1004  -16.8185 C   0  0  0  0  0  0  0  0  0  0  0  0
   28.6870  -31.2147  -17.7215 C   0  0  0  0  0  0  0  0  0  0  0  0
   27.8733  -30.1724  -17.0390 C   0  0  0  0  0  0  0  0  0  0  0  0
   28.7260  -29.2131  -16.2274 C   0  0  2  0  0  0  0  0  0  0  0  0
   29.1482  -29.7591  -14.9852 N   0  0  0  0  0  0  0  0  0  0  0  0
   28.0056  -27.9287  -16.1502 C   0  0  0  0  0  0  0  0  0  0  0  0
   27.2205  -27.7710  -15.1808 O   0  0  0  0  0  0  0  0  0  0  0  0
   31.4448  -35.1265  -18.4782 N   0  0  0  0  0  0  0  0  0  0  0  0
   30.3199  -22.5167  -18.1509 C   0  0  0  0  0  0  0  0  0  0  0  0
   28.9889  -22.1657  -17.7807 O   0  0  0  0  0  0  0  0  0  0  0  0
   28.6541  -20.9420  -17.8347 C   0  0  0  0  0  0  0  0  0  0  0  0
   28.0609  -23.2163  -17.3538 C   0  0  0  0  0  0  0  0  0  0  0  0
   28.6098  -24.5946  -17.3324 C   0  0  1  0  0  0  0  0  0  0  0  0
   27.5986  -25.6407  -16.9762 N   0  0  0  0  0  0  0  0  0  0  0  0
   28.2054  -26.9448  -17.1274 C   0  0  0  0  0  0  0  0  0  0  0  0
   26.4205  -25.6490  -17.9074 O   0  0  0  0  0  0  0  0  0  0  0  0
   26.6155  -25.9521  -19.1057 N   0  0  0  0  0  0  0  0  0  0  0  0
   25.1070  -25.3358  -17.5101 C   0  0  2  0  0  0  0  0  0  0  0  0
   23.9950  -25.3062  -18.4532 C   0  0  0  0  0  0  0  0  0  0  0  0
   22.6717  -25.2646  -17.7326 C   0  0  0  0  0  0  0  0  0  0  0  0
   21.5889  -25.2737  -18.7681 C   0  0  0  0  0  0  0  0  0  0  0  0
   21.2001  -26.4284  -19.4074 C   0  0  0  0  0  0  0  0  0  0  0  0
   20.1998  -26.4799  -20.3630 C   0  0  0  0  0  0  0  0  0  0  0  0
   19.5508  -25.3024  -20.6971 C   0  0  0  0  0  0  0  0  0  0  0  0
   19.9360  -24.1349  -20.0584 C   0  0  0  0  0  0  0  0  0  0  0  0
   20.9316  -24.1018  -19.1119 C   0  0  0  0  0  0  0  0  0  0  0  0
   24.1639  -24.2774  -19.4784 O   0  0  0  0  0  0  0  0  0  0  0  0
   24.7782  -23.2274  -19.1646 O   0  0  0  0  0  0  0  0  0  0  0  0
  2  3  2  0
  2  1  1  0
  4  2  1  0
  5  4  1  0
  6  5  1  0
  7  6  1  0
  8  9  1  1
  8  7  1  0
 10 18  1  0
 10  8  1  0
 11 10  2  0
 13 12  1  0
 14 13  2  0
 15 13  1  0
 16 15  1  0
 17 18  1  0
 17 16  1  1
 19 17  1  0
 20 19  2  0
 21 19  1  0
 22 23  1  6
 22 21  1  0
 23 24  1  0
 24 25  2  0
 25 26  1  0
 27 26  2  0
 28 27  1  0
 29 24  1  0
 29 28  2  0
 30 32  1  0
 30 22  1  0
 31 30  2  0
M  END
$$$$
