RQF.pdb
     RDKit          3D

 32 32  0  0  1  0  0  0  0  0999 V2000
   26.6074  -20.8922   -9.5227 N   0  0  0  0  0  0  0  0  0  0  0  0
   25.4447  -20.8885  -10.3337 C   0  0  0  0  0  0  0  0  0  0  0  0
   24.3004  -20.7990   -9.7415 N   0  0  0  0  0  0  0  0  0  0  0  0
   25.4991  -20.9716  -11.7616 N   0  0  0  0  0  0  0  0  0  0  0  0
   26.7332  -21.1780  -12.4681 C   0  0  0  0  0  0  0  0  0  0  0  0
   27.3047  -19.9588  -13.1270 C   0  0  0  0  0  0  0  0  0  0  0  0
   27.2280  -19.9373  -14.6129 C   0  0  0  0  0  0  0  0  0  0  0  0
   27.3068  -21.3288  -15.2159 C   0  0  2  0  0  0  0  0  0  0  0  0
   28.2673  -21.4295  -16.2583 N   0  0  0  0  0  0  0  0  0  0  0  0
   25.9358  -21.7435  -15.5666 C   0  0  0  0  0  0  0  0  0  0  0  0
   25.3508  -21.0841  -16.4632 O   0  0  0  0  0  0  0  0  0  0  0  0
   23.4315  -20.8758  -10.3022 N   0  0  0  0  0  0  0  0  0  0  0  0
   23.0554  -27.1938  -13.9425 C   0  0  0  0  0  0  0  0  0  0  0  0
   22.0094  -26.3893  -14.4815 O   0  0  0  0  0  0  0  0  0  0  0  0
   20.8519  -26.9010  -14.5855 C   0  0  0  0  0  0  0  0  0  0  0  0
   22.3005  -25.0138  -14.8942 C   0  0  0  0  0  0  0  0  0  0  0  0
   23.7092  -24.5753  -14.7355 C   0  0  1  0  0  0  0  0  0  0  0  0
   23.9601  -23.1734  -15.1996 N   0  0  0  0  0  0  0  0  0  0  0  0
   25.3350  -22.8278  -14.9137 C   0  0  0  0  0  0  0  0  0  0  0  0
   23.1405  -22.1603  -14.4533 O   0  0  0  0  0  0  0  0  0  0  0  0
   23.4843  -21.8642  -13.2871 N   0  0  0  0  0  0  0  0  0  0  0  0
   22.0064  -21.5226  -14.9901 C   0  0  1  0  0  0  0  0  0  0  0  0
   21.2304  -20.5476  -14.2325 C   0  0  0  0  0  0  0  0  0  0  0  0
   21.8555  -19.1779  -14.3077 C   0  0  0  0  0  0  0  0  0  0  0  0
   21.8635  -18.7595  -15.7463 C   0  0  0  0  0  0  0  0  0  0  0  0
   20.7106  -18.4097  -16.4110 C   0  0  0  0  0  0  0  0  0  0  0  0
   20.6770  -18.0105  -17.7362 C   0  0  0  0  0  0  0  0  0  0  0  0
   21.8714  -17.9589  -18.4360 C   0  0  0  0  0  0  0  0  0  0  0  0
   23.0372  -18.3095  -17.7745 C   0  0  0  0  0  0  0  0  0  0  0  0
   23.0524  -18.7040  -16.4583 C   0  0  0  0  0  0  0  0  0  0  0  0
   19.8080  -20.5881  -14.5689 O   0  0  0  0  0  0  0  0  0  0  0  0
   19.0236  -19.8677  -13.9025 O   0  0  0  0  0  0  0  0  0  0  0  0
  2  3  2  0
  2  1  1  0
  4  2  1  0
  5  4  1  0
  6  5  1  0
  7  6  1  0
  8  9  1  6
  8  7  1  0
 10 18  1  0
 10  8  1  0
 11 10  2  0
 13 12  1  0
 14 13  2  0
 15 13  1  0
 16 15  1  0
 17 18  1  0
 17 16  1  6
 19 17  1  0
 20 19  2  0
 21 19  1  0
 22 23  1  1
 22 21  1  0
 23 24  1  0
 24 25  2  0
 25 26  1  0
 27 26  2  0
 28 27  1  0
 29 24  1  0
 29 28  2  0
 30 32  1  0
 30 22  1  0
 31 30  2  0
M  END
$$$$
