RQF.pdb
     RDKit          3D

 32 32  0  0  1  0  0  0  0  0999 V2000
   27.6754  -28.4538  -16.7411 N   0  0  0  0  0  0  0  0  0  0  0  0
   26.2848  -28.6060  -16.9706 C   0  0  0  0  0  0  0  0  0  0  0  0
   25.8082  -29.8062  -16.9935 N   0  0  0  0  0  0  0  0  0  0  0  0
   25.4081  -27.4917  -17.1666 N   0  0  0  0  0  0  0  0  0  0  0  0
   25.8297  -26.1380  -16.9330 C   0  0  0  0  0  0  0  0  0  0  0  0
   26.3156  -25.8500  -15.5444 C   0  0  0  0  0  0  0  0  0  0  0  0
   25.4981  -24.8792  -14.7673 C   0  0  0  0  0  0  0  0  0  0  0  0
   25.4909  -23.4966  -15.3954 C   0  0  2  0  0  0  0  0  0  0  0  0
   26.3628  -23.3888  -16.5123 N   0  0  0  0  0  0  0  0  0  0  0  0
   25.7068  -22.5137  -14.3176 C   0  0  0  0  0  0  0  0  0  0  0  0
   26.8841  -22.1098  -14.1396 O   0  0  0  0  0  0  0  0  0  0  0  0
   24.8027  -29.9491  -17.2027 N   0  0  0  0  0  0  0  0  0  0  0  0
   20.8580  -18.9102  -12.7303 C   0  0  0  0  0  0  0  0  0  0  0  0
   21.8860  -18.3401  -13.5367 O   0  0  0  0  0  0  0  0  0  0  0  0
   21.6262  -17.2730  -14.1741 C   0  0  0  0  0  0  0  0  0  0  0  0
   23.1942  -18.9969  -13.6038 C   0  0  0  0  0  0  0  0  0  0  0  0
   23.3589  -20.1990  -12.7498 C   0  0  2  0  0  0  0  0  0  0  0  0
   24.7236  -20.8116  -12.8279 N   0  0  0  0  0  0  0  0  0  0  0  0
   24.6300  -22.0665  -13.5406 C   0  0  0  0  0  0  0  0  0  0  0  0
   25.2760  -21.1704  -11.4784 O   0  0  0  0  0  0  0  0  0  0  0  0
   24.8587  -22.2130  -10.9263 N   0  0  0  0  0  0  0  0  0  0  0  0
   26.2381  -20.4014  -10.7972 C   0  0  2  0  0  0  0  0  0  0  0  0
   26.5824  -20.6447   -9.4011 C   0  0  0  0  0  0  0  0  0  0  0  0
   27.7881  -19.8389   -8.9898 C   0  0  0  0  0  0  0  0  0  0  0  0
   27.9926  -20.0434   -7.5197 C   0  0  0  0  0  0  0  0  0  0  0  0
   28.7473  -21.0823   -7.0253 C   0  0  0  0  0  0  0  0  0  0  0  0
   28.9663  -21.3007   -5.6759 C   0  0  0  0  0  0  0  0  0  0  0  0
   28.3939  -20.4243   -4.7684 C   0  0  0  0  0  0  0  0  0  0  0  0
   27.6322  -19.3754   -5.2575 C   0  0  0  0  0  0  0  0  0  0  0  0
   27.4248  -19.1735   -6.6007 C   0  0  0  0  0  0  0  0  0  0  0  0
   25.4281  -20.5115   -8.5134 O   0  0  0  0  0  0  0  0  0  0  0  0
   25.3408  -21.2976   -7.5374 O   0  0  0  0  0  0  0  0  0  0  0  0
  2  3  2  0
  2  1  1  0
  4  2  1  0
  5  4  1  0
  6  5  1  0
  7  6  1  0
  8  9  1  6
  8  7  1  0
 10 18  1  0
 10  8  1  0
 11 10  2  0
 13 12  1  0
 14 13  2  0
 15 13  1  0
 16 15  1  0
 17 18  1  0
 17 16  1  6
 19 17  1  0
 20 19  2  0
 21 19  1  0
 22 23  1  1
 22 21  1  0
 23 24  1  0
 24 25  2  0
 25 26  1  0
 27 26  2  0
 28 27  1  0
 29 24  1  0
 29 28  2  0
 30 32  1  0
 30 22  1  0
 31 30  2  0
M  END
$$$$
