RQF.pdb
     RDKit          3D

 32 32  0  0  1  0  0  0  0  0999 V2000
   32.5854  -26.0053  -17.4726 N   0  0  0  0  0  0  0  0  0  0  0  0
   31.4630  -26.5399  -18.1539 C   0  0  0  0  0  0  0  0  0  0  0  0
   31.3935  -27.8233  -18.2808 N   0  0  0  0  0  0  0  0  0  0  0  0
   30.4207  -25.7174  -18.6886 N   0  0  0  0  0  0  0  0  0  0  0  0
   30.0077  -24.4975  -18.0514 C   0  0  0  0  0  0  0  0  0  0  0  0
   30.0581  -24.5096  -16.5532 C   0  0  0  0  0  0  0  0  0  0  0  0
   29.5297  -23.2900  -15.8839 C   0  0  0  0  0  0  0  0  0  0  0  0
   28.5948  -22.4977  -16.7807 C   0  0  2  0  0  0  0  0  0  0  0  0
   29.2495  -21.9399  -17.9119 N   0  0  0  0  0  0  0  0  0  0  0  0
   27.8610  -21.5423  -15.9303 C   0  0  0  0  0  0  0  0  0  0  0  0
   28.1309  -20.3230  -16.0760 O   0  0  0  0  0  0  0  0  0  0  0  0
   30.6088  -28.2385  -18.8166 N   0  0  0  0  0  0  0  0  0  0  0  0
   22.4620  -21.3368  -13.3979 C   0  0  0  0  0  0  0  0  0  0  0  0
   22.8905  -22.3297  -14.3266 O   0  0  0  0  0  0  0  0  0  0  0  0
   22.2084  -23.3965  -14.4218 C   0  0  0  0  0  0  0  0  0  0  0  0
   24.0912  -22.0902  -15.1317 C   0  0  0  0  0  0  0  0  0  0  0  0
   24.8263  -20.8348  -14.8393 C   0  0  1  0  0  0  0  0  0  0  0  0
   26.1661  -21.0542  -14.2064 N   0  0  0  0  0  0  0  0  0  0  0  0
   26.9102  -21.9999  -15.0086 C   0  0  0  0  0  0  0  0  0  0  0  0
   26.0687  -21.6873  -12.8481 O   0  0  0  0  0  0  0  0  0  0  0  0
   26.6943  -22.7519  -12.6453 N   0  0  0  0  0  0  0  0  0  0  0  0
   25.3143  -21.1516  -11.7875 C   0  0  1  0  0  0  0  0  0  0  0  0
   25.8265  -21.0860  -10.4236 C   0  0  0  0  0  0  0  0  0  0  0  0
   27.1708  -20.4053  -10.3796 C   0  0  0  0  0  0  0  0  0  0  0  0
   27.6168  -20.3703   -8.9497 C   0  0  0  0  0  0  0  0  0  0  0  0
   27.0923  -19.4778   -8.0433 C   0  0  0  0  0  0  0  0  0  0  0  0
   27.4717  -19.4188   -6.7132 C   0  0  0  0  0  0  0  0  0  0  0  0
   28.4348  -20.3086   -6.2660 C   0  0  0  0  0  0  0  0  0  0  0  0
   28.9684  -21.2108   -7.1720 C   0  0  0  0  0  0  0  0  0  0  0  0
   28.5803  -21.2553   -8.4894 C   0  0  0  0  0  0  0  0  0  0  0  0
   24.8408  -20.5507   -9.4856 O   0  0  0  0  0  0  0  0  0  0  0  0
   24.2228  -19.5066   -9.8116 O   0  0  0  0  0  0  0  0  0  0  0  0
  2  3  2  0
  2  1  1  0
  4  2  1  0
  5  4  1  0
  6  5  1  0
  7  6  1  0
  8  9  1  6
  8  7  1  0
 10 18  1  0
 10  8  1  0
 11 10  2  0
 13 12  1  0
 14 13  2  0
 15 13  1  0
 16 15  1  0
 17 18  1  0
 17 16  1  6
 19 17  1  0
 20 19  2  0
 21 19  1  0
 22 23  1  1
 22 21  1  0
 23 24  1  0
 24 25  2  0
 25 26  1  0
 27 26  2  0
 28 27  1  0
 29 24  1  0
 29 28  2  0
 30 32  1  0
 30 22  1  0
 31 30  2  0
M  END
$$$$
