RQF.pdb
     RDKit          3D

 32 32  0  0  1  0  0  0  0  0999 V2000
   30.9889  -27.2184  -18.1558 N   0  0  0  0  0  0  0  0  0  0  0  0
   32.2141  -26.5789  -17.8402 C   0  0  0  0  0  0  0  0  0  0  0  0
   33.2786  -26.9895  -18.4455 N   0  0  0  0  0  0  0  0  0  0  0  0
   32.3048  -25.5077  -16.8952 N   0  0  0  0  0  0  0  0  0  0  0  0
   31.1573  -24.7378  -16.5010 C   0  0  0  0  0  0  0  0  0  0  0  0
   30.4556  -24.0198  -17.6142 C   0  0  0  0  0  0  0  0  0  0  0  0
   29.3603  -23.1033  -17.1963 C   0  0  0  0  0  0  0  0  0  0  0  0
   27.9964  -23.7687  -17.2535 C   0  0  2  0  0  0  0  0  0  0  0  0
   27.6528  -24.2211  -18.5560 N   0  0  0  0  0  0  0  0  0  0  0  0
   27.0270  -22.8591  -16.6154 C   0  0  0  0  0  0  0  0  0  0  0  0
   26.7010  -21.8288  -17.2581 O   0  0  0  0  0  0  0  0  0  0  0  0
   34.1945  -26.5678  -18.2036 N   0  0  0  0  0  0  0  0  0  0  0  0
   21.5544  -23.9494  -15.5518 C   0  0  0  0  0  0  0  0  0  0  0  0
   21.6828  -22.8729  -14.6264 O   0  0  0  0  0  0  0  0  0  0  0  0
   20.6349  -22.4534  -14.0447 C   0  0  0  0  0  0  0  0  0  0  0  0
   23.0049  -22.2911  -14.3796 C   0  0  0  0  0  0  0  0  0  0  0  0
   24.1386  -22.9393  -15.0841 C   0  0  1  0  0  0  0  0  0  0  0  0
   25.4692  -22.3225  -14.7800 N   0  0  0  0  0  0  0  0  0  0  0  0
   26.5078  -23.1536  -15.3478 C   0  0  0  0  0  0  0  0  0  0  0  0
   25.7655  -22.2797  -13.3084 O   0  0  0  0  0  0  0  0  0  0  0  0
   26.1025  -23.3432  -12.7416 N   0  0  0  0  0  0  0  0  0  0  0  0
   25.6870  -21.1109  -12.5282 C   0  0  1  0  0  0  0  0  0  0  0  0
   26.1017  -21.0792  -11.1304 C   0  0  0  0  0  0  0  0  0  0  0  0
   27.3419  -20.2415  -10.9499 C   0  0  0  0  0  0  0  0  0  0  0  0
   27.6397  -20.1792   -9.4829 C   0  0  0  0  0  0  0  0  0  0  0  0
   26.9357  -19.3613   -8.6293 C   0  0  0  0  0  0  0  0  0  0  0  0
   27.1748  -19.2810   -7.2681 C   0  0  0  0  0  0  0  0  0  0  0  0
   28.1802  -20.0685   -6.7313 C   0  0  0  0  0  0  0  0  0  0  0  0
   28.8943  -20.8951   -7.5836 C   0  0  0  0  0  0  0  0  0  0  0  0
   28.6438  -20.9622   -8.9330 C   0  0  0  0  0  0  0  0  0  0  0  0
   24.9995  -20.7385  -10.2320 O   0  0  0  0  0  0  0  0  0  0  0  0
   24.1305  -19.9306  -10.6447 O   0  0  0  0  0  0  0  0  0  0  0  0
  2  3  2  0
  2  1  1  0
  4  2  1  0
  5  4  1  0
  6  5  1  0
  7  6  1  0
  8  9  1  6
  8  7  1  0
 10 18  1  0
 10  8  1  0
 11 10  2  0
 13 12  1  0
 14 13  2  0
 15 13  1  0
 16 15  1  0
 17 18  1  0
 17 16  1  6
 19 17  1  0
 20 19  2  0
 21 19  1  0
 22 23  1  1
 22 21  1  0
 23 24  1  0
 24 25  2  0
 25 26  1  0
 27 26  2  0
 28 27  1  0
 29 24  1  0
 29 28  2  0
 30 32  1  0
 30 22  1  0
 31 30  2  0
M  END
$$$$
