RQF.pdb
     RDKit          3D

 32 32  0  0  1  0  0  0  0  0999 V2000
   27.5183  -20.6709   -8.2428 N   0  0  0  0  0  0  0  0  0  0  0  0
   26.2412  -20.7015   -8.8574 C   0  0  0  0  0  0  0  0  0  0  0  0
   25.2207  -20.3732   -8.1370 N   0  0  0  0  0  0  0  0  0  0  0  0
   26.0523  -21.0706  -10.2273 N   0  0  0  0  0  0  0  0  0  0  0  0
   27.1492  -21.4508  -11.0741 C   0  0  0  0  0  0  0  0  0  0  0  0
   27.5632  -20.4237  -12.0845 C   0  0  0  0  0  0  0  0  0  0  0  0
   26.8230  -20.4588  -13.3750 C   0  0  0  0  0  0  0  0  0  0  0  0
   26.1704  -21.8060  -13.6304 C   0  0  2  0  0  0  0  0  0  0  0  0
   26.9922  -22.6884  -14.3822 N   0  0  0  0  0  0  0  0  0  0  0  0
   24.8267  -21.5552  -14.1838 C   0  0  0  0  0  0  0  0  0  0  0  0
   24.6975  -21.6395  -15.4316 O   0  0  0  0  0  0  0  0  0  0  0  0
   24.2723  -20.4078   -8.5550 N   0  0  0  0  0  0  0  0  0  0  0  0
   19.3662  -21.9781  -11.0187 C   0  0  0  0  0  0  0  0  0  0  0  0
   18.9847  -21.4494  -12.2863 O   0  0  0  0  0  0  0  0  0  0  0  0
   17.7486  -21.2676  -12.5131 C   0  0  0  0  0  0  0  0  0  0  0  0
   20.0195  -21.1373  -13.2757 C   0  0  0  0  0  0  0  0  0  0  0  0
   21.4214  -21.3170  -12.8242 C   0  0  2  0  0  0  0  0  0  0  0  0
   22.4386  -21.0177  -13.8822 N   0  0  0  0  0  0  0  0  0  0  0  0
   23.7586  -21.2385  -13.3341 C   0  0  0  0  0  0  0  0  0  0  0  0
   22.4284  -19.5767  -14.3049 O   0  0  0  0  0  0  0  0  0  0  0  0
   22.6832  -18.7056  -13.4434 N   0  0  0  0  0  0  0  0  0  0  0  0
   22.1493  -19.1480  -15.6161 C   0  0  1  0  0  0  0  0  0  0  0  0
   22.0538  -17.7363  -15.9694 C   0  0  0  0  0  0  0  0  0  0  0  0
   23.1215  -17.3504  -16.9611 C   0  0  0  0  0  0  0  0  0  0  0  0
   24.4299  -17.3178  -16.2319 C   0  0  0  0  0  0  0  0  0  0  0  0
   24.6610  -16.4547  -15.1855 C   0  0  0  0  0  0  0  0  0  0  0  0
   25.8520  -16.3992  -14.4820 C   0  0  0  0  0  0  0  0  0  0  0  0
   26.8718  -17.2614  -14.8502 C   0  0  0  0  0  0  0  0  0  0  0  0
   26.6478  -18.1340  -15.9028 C   0  0  0  0  0  0  0  0  0  0  0  0
   25.4591  -18.1755  -16.5908 C   0  0  0  0  0  0  0  0  0  0  0  0
   20.6966  -17.3508  -16.3534 O   0  0  0  0  0  0  0  0  0  0  0  0
   19.8425  -18.2613  -16.4943 O   0  0  0  0  0  0  0  0  0  0  0  0
  2  3  2  0
  2  1  1  0
  4  2  1  0
  5  4  1  0
  6  5  1  0
  7  6  1  0
  8  9  1  6
  8  7  1  0
 10 18  1  0
 10  8  1  0
 11 10  2  0
 13 12  1  0
 14 13  2  0
 15 13  1  0
 16 15  1  0
 17 18  1  0
 17 16  1  6
 19 17  1  0
 20 19  2  0
 21 19  1  0
 22 23  1  6
 22 21  1  0
 23 24  1  0
 24 25  2  0
 25 26  1  0
 27 26  2  0
 28 27  1  0
 29 24  1  0
 29 28  2  0
 30 32  1  0
 30 22  1  0
 31 30  2  0
M  END
$$$$
