DHS.pdb
     RDKit          3D

 25 25  0  0  1  0  0  0  0  0999 V2000
   13.3976  -16.7619   17.9239 N   0  0  0  0  0  0  0  0  0  0  0  0
   13.7749  -15.3943   18.2316 C   0  0  1  0  0  0  0  0  0  0  0  0
   13.7345  -14.5483   16.9977 C   0  0  0  0  0  0  0  0  0  0  0  0
   14.8088  -15.0201   16.0871 C   0  0  0  0  0  0  0  0  0  0  0  0
   15.7061  -15.7995   16.5232 O   0  0  0  0  0  0  0  0  0  0  0  0
   12.8837  -14.8872   19.3063 C   0  0  0  0  0  0  0  0  0  0  0  0
   13.0379  -13.7228   19.8137 O   0  0  0  0  0  0  0  0  0  0  0  0
   14.9014  -14.6573   14.7561 O   0  0  0  0  0  0  0  0  0  0  0  0
   11.8187  -15.6733   19.8195 N   0  0  0  0  0  0  0  0  0  0  0  0
   11.0282  -15.2083   20.9880 C   0  0  1  0  0  0  0  0  0  0  0  0
    9.5746  -15.3398   20.6830 C   0  0  0  0  0  0  0  0  0  0  0  0
    8.9891  -14.3902   19.7575 C   0  0  0  0  0  0  0  0  0  0  0  0
    9.4677  -13.3201   19.0496 C   0  0  0  0  0  0  0  0  0  0  0  0
    8.4488  -12.8350   18.2794 N   0  0  0  0  0  0  0  0  0  0  0  0
    7.3813  -13.5800   18.5037 C   0  0  0  0  0  0  0  0  0  0  0  0
    7.6806  -14.5128   19.3808 N   0  0  0  0  0  0  0  0  0  0  0  0
   11.3151  -16.2133   22.0905 C   0  0  0  0  0  0  0  0  0  0  0  0
   11.7944  -17.3054   21.7950 O   0  0  0  0  0  0  0  0  0  0  0  0
    9.6108  -15.7429   25.8100 O   0  0  0  0  0  0  0  0  0  0  0  0
   10.9417  -16.2183   25.8550 C   0  0  0  0  0  0  0  0  0  0  0  0
   11.2991  -16.8693   24.5285 C   0  0  2  0  0  0  0  0  0  0  0  0
   11.0482  -15.9339   23.4500 N   0  0  0  0  0  0  0  0  0  0  0  0
   10.4868  -18.1090   24.3551 C   0  0  0  0  0  0  0  0  0  0  0  0
    9.6061  -18.1691   23.4811 O   0  0  0  0  0  0  0  0  0  0  0  0
   10.7035  -19.2102   25.1665 O   0  0  0  0  0  0  0  0  0  0  0  0
  2  1  1  6
  2  3  1  0
  3  4  1  0
  4  5  2  0
  6  2  1  0
  7  6  2  0
  8  4  1  0
  9  6  1  0
 10 11  1  6
 10  9  1  0
 11 12  1  0
 12 13  2  0
 13 14  1  0
 15 14  1  0
 16 12  1  0
 16 15  2  0
 17 22  1  0
 17 10  1  0
 18 17  2  0
 19 20  1  0
 21 20  1  1
 21 22  1  0
 23 21  1  0
 23 25  1  0
 24 23  2  0
M  END
$$$$
