DHS.pdb
     RDKit          3D

 25 25  0  0  1  0  0  0  0  0999 V2000
    9.6922  -17.9034   19.9607 N   0  0  0  0  0  0  0  0  0  0  0  0
   10.5479  -17.4159   21.0273 C   0  0  1  0  0  0  0  0  0  0  0  0
   11.4627  -16.3460   20.5190 C   0  0  0  0  0  0  0  0  0  0  0  0
   12.6095  -17.0090   19.8473 C   0  0  0  0  0  0  0  0  0  0  0  0
   12.6814  -17.0137   18.5833 O   0  0  0  0  0  0  0  0  0  0  0  0
    9.6908  -16.9547   22.1493 C   0  0  0  0  0  0  0  0  0  0  0  0
    8.7740  -16.0787   21.9787 O   0  0  0  0  0  0  0  0  0  0  0  0
   13.6356  -17.6409   20.5253 O   0  0  0  0  0  0  0  0  0  0  0  0
    9.8507  -17.4664   23.4639 N   0  0  0  0  0  0  0  0  0  0  0  0
    8.9726  -17.0040   24.5692 C   0  0  1  0  0  0  0  0  0  0  0  0
    8.3033  -18.1820   25.1921 C   0  0  0  0  0  0  0  0  0  0  0  0
    7.2058  -18.7958   24.4712 C   0  0  0  0  0  0  0  0  0  0  0  0
    6.6198  -18.5825   23.2521 C   0  0  0  0  0  0  0  0  0  0  0  0
    5.6492  -19.5285   23.0801 N   0  0  0  0  0  0  0  0  0  0  0  0
    5.6383  -20.2978   24.1539 C   0  0  0  0  0  0  0  0  0  0  0  0
    6.5579  -19.8795   24.9955 N   0  0  0  0  0  0  0  0  0  0  0  0
    9.9154  -16.4538   25.6257 C   0  0  0  0  0  0  0  0  0  0  0  0
   11.0761  -16.8554   25.6596 O   0  0  0  0  0  0  0  0  0  0  0  0
    8.4640  -13.6070   28.1760 O   0  0  0  0  0  0  0  0  0  0  0  0
    9.8707  -13.5912   28.0332 C   0  0  0  0  0  0  0  0  0  0  0  0
   10.3600  -14.9697   27.6192 C   0  0  2  0  0  0  0  0  0  0  0  0
    9.5012  -15.4918   26.5748 N   0  0  0  0  0  0  0  0  0  0  0  0
   10.3554  -15.8702   28.8092 C   0  0  0  0  0  0  0  0  0  0  0  0
    9.6373  -16.8836   28.8306 O   0  0  0  0  0  0  0  0  0  0  0  0
   11.1520  -15.5886   29.9065 O   0  0  0  0  0  0  0  0  0  0  0  0
  2  1  1  6
  2  3  1  0
  3  4  1  0
  4  5  2  0
  6  2  1  0
  7  6  2  0
  8  4  1  0
  9  6  1  0
 10 11  1  1
 10  9  1  0
 11 12  1  0
 12 13  2  0
 13 14  1  0
 15 14  1  0
 16 12  1  0
 16 15  2  0
 17 22  1  0
 17 10  1  0
 18 17  2  0
 19 20  1  0
 21 20  1  1
 21 22  1  0
 23 21  1  0
 23 25  1  0
 24 23  2  0
M  END
$$$$
