DHS.pdb
     RDKit          3D

 25 25  0  0  1  0  0  0  0  0999 V2000
   14.5709  -13.6865   18.0289 N   0  0  0  0  0  0  0  0  0  0  0  0
   13.5884  -14.7331   17.8128 C   0  0  1  0  0  0  0  0  0  0  0  0
   14.2063  -16.0820   18.0094 C   0  0  0  0  0  0  0  0  0  0  0  0
   13.6802  -16.9820   16.9516 C   0  0  0  0  0  0  0  0  0  0  0  0
   13.5906  -16.5664   15.7591 O   0  0  0  0  0  0  0  0  0  0  0  0
   12.4333  -14.4924   18.7151 C   0  0  0  0  0  0  0  0  0  0  0  0
   11.5128  -13.6544   18.4196 O   0  0  0  0  0  0  0  0  0  0  0  0
   13.2689  -18.2816   17.1838 O   0  0  0  0  0  0  0  0  0  0  0  0
   12.2988  -15.1828   19.9484 N   0  0  0  0  0  0  0  0  0  0  0  0
   11.0680  -15.0384   20.7675 C   0  0  1  0  0  0  0  0  0  0  0  0
    9.8858  -15.4474   19.9561 C   0  0  0  0  0  0  0  0  0  0  0  0
    9.0499  -14.4002   19.4032 C   0  0  0  0  0  0  0  0  0  0  0  0
    9.0755  -13.0316   19.4408 C   0  0  0  0  0  0  0  0  0  0  0  0
    8.0470  -12.5698   18.6690 N   0  0  0  0  0  0  0  0  0  0  0  0
    7.4114  -13.6160   18.1728 C   0  0  0  0  0  0  0  0  0  0  0  0
    7.9922  -14.7168   18.5969 N   0  0  0  0  0  0  0  0  0  0  0  0
   11.1966  -16.0766   21.8690 C   0  0  0  0  0  0  0  0  0  0  0  0
   11.6436  -17.1878   21.5950 O   0  0  0  0  0  0  0  0  0  0  0  0
    9.2998  -15.6564   25.4223 O   0  0  0  0  0  0  0  0  0  0  0  0
   10.6518  -16.0243   25.6123 C   0  0  0  0  0  0  0  0  0  0  0  0
   11.2034  -16.6310   24.3322 C   0  0  2  0  0  0  0  0  0  0  0  0
   10.8180  -15.8068   23.2038 N   0  0  0  0  0  0  0  0  0  0  0  0
   10.6765  -18.0188   24.1797 C   0  0  0  0  0  0  0  0  0  0  0  0
   10.9966  -18.9072   24.9867 O   0  0  0  0  0  0  0  0  0  0  0  0
    9.8232  -18.3357   23.1361 O   0  0  0  0  0  0  0  0  0  0  0  0
  2  1  1  1
  2  3  1  0
  3  4  1  0
  4  5  2  0
  6  2  1  0
  7  6  2  0
  8  4  1  0
  9  6  1  0
 10 11  1  6
 10  9  1  0
 11 12  1  0
 12 13  2  0
 13 14  1  0
 15 14  1  0
 16 12  1  0
 16 15  2  0
 17 22  1  0
 17 10  1  0
 18 17  2  0
 19 20  1  0
 21 20  1  1
 21 22  1  0
 23 21  1  0
 23 25  1  0
 24 23  2  0
M  END
$$$$
