DHS.pdb
     RDKit          3D

 25 25  0  0  1  0  0  0  0  0999 V2000
   11.9135  -17.4216   16.9856 N   0  0  0  0  0  0  0  0  0  0  0  0
   11.3476  -18.1588   18.1009 C   0  0  1  0  0  0  0  0  0  0  0  0
   12.1464  -19.3950   18.3724 C   0  0  0  0  0  0  0  0  0  0  0  0
   11.8822  -20.3582   17.2731 C   0  0  0  0  0  0  0  0  0  0  0  0
   10.6902  -20.6729   16.9852 O   0  0  0  0  0  0  0  0  0  0  0  0
   11.2700  -17.2542   19.2764 C   0  0  0  0  0  0  0  0  0  0  0  0
   12.1616  -16.3641   19.4996 O   0  0  0  0  0  0  0  0  0  0  0  0
   12.8762  -20.9538   16.5188 O   0  0  0  0  0  0  0  0  0  0  0  0
   10.2009  -17.3370   20.2069 N   0  0  0  0  0  0  0  0  0  0  0  0
   10.0986  -16.3720   21.3316 C   0  0  1  0  0  0  0  0  0  0  0  0
    8.8252  -15.6059   21.2089 C   0  0  0  0  0  0  0  0  0  0  0  0
    8.8085  -14.4591   20.3226 C   0  0  0  0  0  0  0  0  0  0  0  0
    9.7410  -13.8456   19.5293 C   0  0  0  0  0  0  0  0  0  0  0  0
    9.1214  -12.8273   18.8616 N   0  0  0  0  0  0  0  0  0  0  0  0
    7.8528  -12.8145   19.2292 C   0  0  0  0  0  0  0  0  0  0  0  0
    7.6442  -13.7784   20.0989 N   0  0  0  0  0  0  0  0  0  0  0  0
    9.9524  -17.2261   22.5794 C   0  0  0  0  0  0  0  0  0  0  0  0
    9.3887  -18.3147   22.4968 O   0  0  0  0  0  0  0  0  0  0  0  0
   12.9610  -18.2223   24.3136 O   0  0  0  0  0  0  0  0  0  0  0  0
   11.6784  -18.7890   24.4963 C   0  0  0  0  0  0  0  0  0  0  0  0
   10.7006  -17.7132   24.9410 C   0  0  2  0  0  0  0  0  0  0  0  0
   10.4446  -16.8094   23.8371 N   0  0  0  0  0  0  0  0  0  0  0  0
   11.2752  -16.9784   26.1057 C   0  0  0  0  0  0  0  0  0  0  0  0
   11.5164  -17.5724   27.1697 O   0  0  0  0  0  0  0  0  0  0  0  0
   11.5477  -15.6235   26.0167 O   0  0  0  0  0  0  0  0  0  0  0  0
  2  1  1  6
  2  3  1  0
  3  4  1  0
  4  5  2  0
  6  2  1  0
  7  6  2  0
  8  4  1  0
  9  6  1  0
 10 11  1  6
 10  9  1  0
 11 12  1  0
 12 13  2  0
 13 14  1  0
 15 14  1  0
 16 12  1  0
 16 15  2  0
 17 22  1  0
 17 10  1  0
 18 17  2  0
 19 20  1  0
 21 20  1  6
 21 22  1  0
 23 21  1  0
 23 25  1  0
 24 23  2  0
M  END
$$$$
