DHS.pdb
     RDKit          3D

 25 25  0  0  1  0  0  0  0  0999 V2000
   11.1047  -17.1936   15.9787 N   0  0  0  0  0  0  0  0  0  0  0  0
   10.7896  -17.8723   17.2227 C   0  0  1  0  0  0  0  0  0  0  0  0
   11.6945  -19.0473   17.4235 C   0  0  0  0  0  0  0  0  0  0  0  0
   11.3748  -20.0519   16.3774 C   0  0  0  0  0  0  0  0  0  0  0  0
   12.3006  -20.5232   15.6538 O   0  0  0  0  0  0  0  0  0  0  0  0
   10.8693  -16.8885   18.3327 C   0  0  0  0  0  0  0  0  0  0  0  0
   11.7262  -15.9384   18.3285 O   0  0  0  0  0  0  0  0  0  0  0  0
   10.0987  -20.5234   16.1300 O   0  0  0  0  0  0  0  0  0  0  0  0
    9.9965  -16.9586   19.4502 N   0  0  0  0  0  0  0  0  0  0  0  0
   10.0839  -15.9573   20.5441 C   0  0  1  0  0  0  0  0  0  0  0  0
    8.7495  -15.3205   20.7366 C   0  0  0  0  0  0  0  0  0  0  0  0
    8.2959  -14.3827   19.7287 C   0  0  0  0  0  0  0  0  0  0  0  0
    8.3753  -13.0241   19.5768 C   0  0  0  0  0  0  0  0  0  0  0  0
    7.8129  -12.7012   18.3743 N   0  0  0  0  0  0  0  0  0  0  0  0
    7.4029  -13.8204   17.8051 C   0  0  0  0  0  0  0  0  0  0  0  0
    7.6808  -14.8347   18.5945 N   0  0  0  0  0  0  0  0  0  0  0  0
   10.3463  -16.7638   21.8045 C   0  0  0  0  0  0  0  0  0  0  0  0
    9.5882  -17.6866   22.0932 O   0  0  0  0  0  0  0  0  0  0  0  0
   13.5791  -15.7705   24.2609 O   0  0  0  0  0  0  0  0  0  0  0  0
   13.2644  -17.1410   24.1124 C   0  0  0  0  0  0  0  0  0  0  0  0
   11.7825  -17.2975   23.8111 C   0  0  2  0  0  0  0  0  0  0  0  0
   11.4371  -16.4876   22.6598 N   0  0  0  0  0  0  0  0  0  0  0  0
   10.9919  -16.8837   25.0072 C   0  0  0  0  0  0  0  0  0  0  0  0
   10.1712  -15.9544   24.9301 O   0  0  0  0  0  0  0  0  0  0  0  0
   11.1621  -17.5301   26.2200 O   0  0  0  0  0  0  0  0  0  0  0  0
  2  1  1  6
  2  3  1  0
  3  4  1  0
  4  5  2  0
  6  2  1  0
  7  6  2  0
  8  4  1  0
  9  6  1  0
 10 11  1  1
 10  9  1  0
 11 12  1  0
 12 13  2  0
 13 14  1  0
 15 14  1  0
 16 12  1  0
 16 15  2  0
 17 22  1  0
 17 10  1  0
 18 17  2  0
 19 20  1  0
 21 20  1  1
 21 22  1  0
 23 21  1  0
 23 25  1  0
 24 23  2  0
M  END
$$$$
