DHS.pdb
     RDKit          3D

 25 25  0  0  1  0  0  0  0  0999 V2000
   11.0406  -15.7998   15.4638 N   0  0  0  0  0  0  0  0  0  0  0  0
   12.1881  -16.2549   16.2279 C   0  0  1  0  0  0  0  0  0  0  0  0
   13.4427  -16.1165   15.4236 C   0  0  0  0  0  0  0  0  0  0  0  0
   13.3599  -17.0658   14.2843 C   0  0  0  0  0  0  0  0  0  0  0  0
   12.9655  -16.6575   13.1526 O   0  0  0  0  0  0  0  0  0  0  0  0
   12.2373  -15.4985   17.5052 C   0  0  0  0  0  0  0  0  0  0  0  0
   12.9184  -14.4219   17.6230 O   0  0  0  0  0  0  0  0  0  0  0  0
   13.6931  -18.4046   14.3746 O   0  0  0  0  0  0  0  0  0  0  0  0
   11.5291  -15.9371   18.6549 N   0  0  0  0  0  0  0  0  0  0  0  0
   11.5612  -15.1466   19.9121 C   0  0  1  0  0  0  0  0  0  0  0  0
   10.1710  -14.9811   20.4253 C   0  0  0  0  0  0  0  0  0  0  0  0
    9.3078  -14.0346   19.7470 C   0  0  0  0  0  0  0  0  0  0  0  0
    9.4483  -13.2182   18.6566 C   0  0  0  0  0  0  0  0  0  0  0  0
    8.2549  -12.5870   18.4465 N   0  0  0  0  0  0  0  0  0  0  0  0
    7.4092  -13.0005   19.3732 C   0  0  0  0  0  0  0  0  0  0  0  0
    8.0154  -13.8635   20.1585 N   0  0  0  0  0  0  0  0  0  0  0  0
   12.2755  -16.0291   20.9215 C   0  0  0  0  0  0  0  0  0  0  0  0
   11.7555  -17.0884   21.2640 O   0  0  0  0  0  0  0  0  0  0  0  0
   16.1376  -16.2972   21.0031 O   0  0  0  0  0  0  0  0  0  0  0  0
   15.3719  -17.2144   21.7593 C   0  0  0  0  0  0  0  0  0  0  0  0
   14.2321  -16.4838   22.4509 C   0  0  2  0  0  0  0  0  0  0  0  0
   13.5227  -15.6718   21.4822 N   0  0  0  0  0  0  0  0  0  0  0  0
   14.7853  -15.6378   23.5485 C   0  0  0  0  0  0  0  0  0  0  0  0
   14.6989  -14.3997   23.4954 O   0  0  0  0  0  0  0  0  0  0  0  0
   15.4030  -16.2212   24.6421 O   0  0  0  0  0  0  0  0  0  0  0  0
  2  1  1  6
  2  3  1  0
  3  4  1  0
  4  5  2  0
  6  2  1  0
  7  6  2  0
  8  4  1  0
  9  6  1  0
 10 11  1  1
 10  9  1  0
 11 12  1  0
 12 13  2  0
 13 14  1  0
 15 14  1  0
 16 12  1  0
 16 15  2  0
 17 22  1  0
 17 10  1  0
 18 17  2  0
 19 20  1  0
 21 20  1  6
 21 22  1  0
 23 21  1  0
 23 25  1  0
 24 23  2  0
M  END
$$$$
