VLM.pdb
     RDKit          3D

 24 23  0  0  1  0  0  0  0  0999 V2000
    6.4726  -17.3006   19.4971 C   0  0  0  0  0  0  0  0  0  0  0  0
    7.4097  -16.4225   20.2502 C   0  0  2  0  0  0  0  0  0  0  0  0
    8.4657  -15.9236   19.2789 C   0  0  0  0  0  0  0  0  0  0  0  0
    8.0556  -17.0449   21.4552 C   0  0  2  0  0  0  0  0  0  0  0  0
    6.9892  -17.6937   22.2767 N   0  0  0  0  0  0  0  0  0  0  0  0
    8.8086  -16.1110   22.2985 C   0  0  0  0  0  0  0  0  0  0  0  0
    9.8855  -15.5987   21.8797 O   0  0  0  0  0  0  0  0  0  0  0  0
    6.1784  -12.8589   26.1150 C   0  0  0  0  0  0  0  0  0  0  0  0
    7.0343  -13.2089   24.8742 C   0  0  1  0  0  0  0  0  0  0  0  0
    7.5243  -11.8613   24.3724 C   0  0  0  0  0  0  0  0  0  0  0  0
    8.1408  -14.0637   25.3955 C   0  0  0  0  0  0  0  0  0  0  0  0
    9.0016  -14.7439   24.3957 C   0  0  2  0  0  0  0  0  0  0  0  0
    8.3636  -15.7506   23.5889 N   0  0  0  0  0  0  0  0  0  0  0  0
   10.1586  -15.3281   25.0999 C   0  0  0  0  0  0  0  0  0  0  0  0
   10.9456  -14.5803   25.7222 O   0  0  0  0  0  0  0  0  0  0  0  0
   10.4662  -13.7350   30.1132 C   0  0  0  0  0  0  0  0  0  0  0  0
   10.4063  -15.4777   29.6564 S   0  0  0  0  0  0  0  0  0  0  0  0
   11.2644  -15.7967   28.1104 C   0  0  0  0  0  0  0  0  0  0  0  0
   10.7599  -17.0883   27.5177 C   0  0  0  0  0  0  0  0  0  0  0  0
   11.3439  -17.2661   26.1165 C   0  0  2  0  0  0  0  0  0  0  0  0
   10.4436  -16.7215   25.1171 N   0  0  0  0  0  0  0  0  0  0  0  0
   11.6733  -18.6756   25.8296 C   0  0  0  0  0  0  0  0  0  0  0  0
   10.6730  -19.5603   25.5234 O   0  0  0  0  0  0  0  0  0  0  0  0
   12.8802  -19.0372   25.8735 O   0  0  0  0  0  0  0  0  0  0  0  0
  2  1  1  6
  2  3  1  0
  4  6  1  0
  4  2  1  0
  4  5  1  1
  6  7  2  0
  9 11  1  0
  9  8  1  1
 10  9  1  0
 12 11  1  1
 13 12  1  0
 13  6  1  0
 14 15  2  0
 14 12  1  0
 16 17  1  0
 17 18  1  0
 18 19  1  0
 20 19  1  1
 20 21  1  0
 20 22  1  0
 21 14  1  0
 22 24  2  0
 22 23  1  0
M  END
$$$$
