VLM.pdb
     RDKit          3D

 24 23  0  0  1  0  0  0  0  0999 V2000
   10.2068  -20.8930   20.9254 C   0  0  0  0  0  0  0  0  0  0  0  0
   10.2956  -19.4989   21.4400 C   0  0  2  0  0  0  0  0  0  0  0  0
    9.4180  -19.4001   22.6761 C   0  0  0  0  0  0  0  0  0  0  0  0
    9.9418  -18.4202   20.4563 C   0  0  2  0  0  0  0  0  0  0  0  0
   10.7928  -18.5963   19.2406 N   0  0  0  0  0  0  0  0  0  0  0  0
   10.1039  -17.0529   20.9608 C   0  0  0  0  0  0  0  0  0  0  0  0
   11.2555  -16.5996   21.2177 O   0  0  0  0  0  0  0  0  0  0  0  0
    6.6332  -12.6430   19.7624 C   0  0  0  0  0  0  0  0  0  0  0  0
    7.8895  -13.5437   19.8341 C   0  0  1  0  0  0  0  0  0  0  0  0
    9.0194  -12.6375   19.3757 C   0  0  0  0  0  0  0  0  0  0  0  0
    8.0092  -13.9277   21.2711 C   0  0  0  0  0  0  0  0  0  0  0  0
    9.1161  -14.8461   21.6381 C   0  0  2  0  0  0  0  0  0  0  0  0
    8.9970  -16.2023   21.1711 N   0  0  0  0  0  0  0  0  0  0  0  0
    9.2615  -14.8348   23.1060 C   0  0  0  0  0  0  0  0  0  0  0  0
    9.5492  -13.7664   23.6905 O   0  0  0  0  0  0  0  0  0  0  0  0
    5.7847  -11.8246   26.4234 C   0  0  0  0  0  0  0  0  0  0  0  0
    6.8229  -13.0407   27.2556 S   0  0  0  0  0  0  0  0  0  0  0  0
    8.0999  -13.6888   26.1704 C   0  0  0  0  0  0  0  0  0  0  0  0
    7.7279  -15.0860   25.7421 C   0  0  0  0  0  0  0  0  0  0  0  0
    8.9933  -15.8538   25.3607 C   0  0  2  0  0  0  0  0  0  0  0  0
    9.0912  -15.9892   23.9192 N   0  0  0  0  0  0  0  0  0  0  0  0
    9.0651  -17.1678   26.0285 C   0  0  0  0  0  0  0  0  0  0  0  0
    9.1815  -17.2335   27.3920 O   0  0  0  0  0  0  0  0  0  0  0  0
    9.0171  -18.2106   25.3216 O   0  0  0  0  0  0  0  0  0  0  0  0
  2  1  1  6
  2  3  1  0
  4  6  1  0
  4  2  1  0
  4  5  1  6
  6  7  2  0
  9 11  1  0
  9  8  1  1
 10  9  1  0
 12 11  1  1
 13 12  1  0
 13  6  1  0
 14 15  2  0
 14 12  1  0
 16 17  1  0
 17 18  1  0
 18 19  1  0
 20 19  1  6
 20 21  1  0
 20 22  1  0
 21 14  1  0
 22 24  2  0
 22 23  1  0
M  END
$$$$
