VLM.pdb
     RDKit          3D

 24 23  0  0  1  0  0  0  0  0999 V2000
    5.9451  -16.3028   20.0053 C   0  0  0  0  0  0  0  0  0  0  0  0
    7.2084  -17.0716   19.8334 C   0  0  2  0  0  0  0  0  0  0  0  0
    6.8747  -18.3623   19.1051 C   0  0  0  0  0  0  0  0  0  0  0  0
    7.9685  -17.3617   21.0961 C   0  0  2  0  0  0  0  0  0  0  0  0
    7.1280  -18.2482   21.9567 N   0  0  0  0  0  0  0  0  0  0  0  0
    8.3560  -16.1747   21.8651 C   0  0  0  0  0  0  0  0  0  0  0  0
    9.3174  -15.4503   21.4799 O   0  0  0  0  0  0  0  0  0  0  0  0
    7.4056  -11.8292   24.8100 C   0  0  0  0  0  0  0  0  0  0  0  0
    7.3854  -13.0764   25.7258 C   0  0  1  0  0  0  0  0  0  0  0  0
    6.3098  -12.7629   26.7519 C   0  0  0  0  0  0  0  0  0  0  0  0
    7.0104  -14.2090   24.8295 C   0  0  0  0  0  0  0  0  0  0  0  0
    8.0048  -14.6243   23.8087 C   0  0  2  0  0  0  0  0  0  0  0  0
    7.6771  -15.7992   23.0446 N   0  0  0  0  0  0  0  0  0  0  0  0
    9.3064  -14.8109   24.4772 C   0  0  0  0  0  0  0  0  0  0  0  0
    9.9658  -13.8100   24.8368 O   0  0  0  0  0  0  0  0  0  0  0  0
    9.8568  -13.4251   29.2527 C   0  0  0  0  0  0  0  0  0  0  0  0
   10.5397  -15.0295   29.7099 S   0  0  0  0  0  0  0  0  0  0  0  0
   11.1545  -15.9294   28.2815 C   0  0  0  0  0  0  0  0  0  0  0  0
   10.1397  -15.8517   27.1689 C   0  0  0  0  0  0  0  0  0  0  0  0
   10.8006  -16.2520   25.8501 C   0  0  2  0  0  0  0  0  0  0  0  0
    9.8736  -16.0872   24.7458 N   0  0  0  0  0  0  0  0  0  0  0  0
   11.3403  -17.6246   25.8965 C   0  0  0  0  0  0  0  0  0  0  0  0
   10.8765  -18.5689   25.0189 O   0  0  0  0  0  0  0  0  0  0  0  0
   12.2249  -17.8997   26.7515 O   0  0  0  0  0  0  0  0  0  0  0  0
  2  1  1  1
  2  3  1  0
  4  6  1  0
  4  2  1  0
  4  5  1  1
  6  7  2  0
  9 11  1  0
  9  8  1  6
 10  9  1  0
 12 11  1  1
 13 12  1  0
 13  6  1  0
 14 15  2  0
 14 12  1  0
 16 17  1  0
 17 18  1  0
 18 19  1  0
 20 19  1  1
 20 21  1  0
 20 22  1  0
 21 14  1  0
 22 24  2  0
 22 23  1  0
M  END
$$$$
