VLM.pdb
     RDKit          3D

 24 23  0  0  1  0  0  0  0  0999 V2000
    7.5455  -18.4187   18.8110 C   0  0  0  0  0  0  0  0  0  0  0  0
    8.0550  -17.2423   19.5680 C   0  0  2  0  0  0  0  0  0  0  0  0
    9.2298  -16.6640   18.7979 C   0  0  0  0  0  0  0  0  0  0  0  0
    8.4409  -17.5067   20.9955 C   0  0  2  0  0  0  0  0  0  0  0  0
    7.3469  -18.2955   21.6389 N   0  0  0  0  0  0  0  0  0  0  0  0
    8.6981  -16.3040   21.7941 C   0  0  0  0  0  0  0  0  0  0  0  0
    9.6410  -15.5215   21.4841 O   0  0  0  0  0  0  0  0  0  0  0  0
    7.3253  -12.0763   24.7558 C   0  0  0  0  0  0  0  0  0  0  0  0
    7.3202  -13.3449   25.6419 C   0  0  1  0  0  0  0  0  0  0  0  0
    6.1719  -13.1142   26.6094 C   0  0  0  0  0  0  0  0  0  0  0  0
    7.0597  -14.4735   24.7010 C   0  0  0  0  0  0  0  0  0  0  0  0
    8.1293  -14.8056   23.7269 C   0  0  2  0  0  0  0  0  0  0  0  0
    7.9113  -15.9772   22.9198 N   0  0  0  0  0  0  0  0  0  0  0  0
    9.4021  -14.9352   24.4611 C   0  0  0  0  0  0  0  0  0  0  0  0
   10.0205  -13.9058   24.8128 O   0  0  0  0  0  0  0  0  0  0  0  0
   10.3765  -13.0888   29.1295 C   0  0  0  0  0  0  0  0  0  0  0  0
   11.3811  -14.5524   28.8159 S   0  0  0  0  0  0  0  0  0  0  0  0
   10.3720  -16.0138   28.5438 C   0  0  0  0  0  0  0  0  0  0  0  0
    9.6706  -15.8945   27.2142 C   0  0  0  0  0  0  0  0  0  0  0  0
   10.6067  -16.3669   26.1022 C   0  0  2  0  0  0  0  0  0  0  0  0
    9.9855  -16.1864   24.8032 N   0  0  0  0  0  0  0  0  0  0  0  0
   11.0392  -17.7639   26.2999 C   0  0  0  0  0  0  0  0  0  0  0  0
   12.2118  -18.0273   26.9577 O   0  0  0  0  0  0  0  0  0  0  0  0
   10.3123  -18.6925   25.8543 O   0  0  0  0  0  0  0  0  0  0  0  0
  2  1  1  6
  2  3  1  0
  4  6  1  0
  4  2  1  0
  4  5  1  1
  6  7  2  0
  9 11  1  0
  9  8  1  6
 10  9  1  0
 12 11  1  1
 13 12  1  0
 13  6  1  0
 14 15  2  0
 14 12  1  0
 16 17  1  0
 17 18  1  0
 18 19  1  0
 20 19  1  1
 20 21  1  0
 20 22  1  0
 21 14  1  0
 22 24  2  0
 22 23  1  0
M  END
$$$$
