VLM.pdb
     RDKit          3D

 24 23  0  0  1  0  0  0  0  0999 V2000
    6.2741  -15.4597   20.3578 C   0  0  0  0  0  0  0  0  0  0  0  0
    7.3701  -16.4290   20.0834 C   0  0  2  0  0  0  0  0  0  0  0  0
    6.7785  -17.5986   19.3154 C   0  0  0  0  0  0  0  0  0  0  0  0
    8.1213  -16.9176   21.2890 C   0  0  2  0  0  0  0  0  0  0  0  0
    7.1963  -17.7559   22.1104 N   0  0  0  0  0  0  0  0  0  0  0  0
    8.6838  -15.8579   22.1322 C   0  0  0  0  0  0  0  0  0  0  0  0
    9.6496  -15.1564   21.7165 O   0  0  0  0  0  0  0  0  0  0  0  0
    5.9522  -12.7567   26.1746 C   0  0  0  0  0  0  0  0  0  0  0  0
    6.7808  -13.0574   24.9028 C   0  0  1  0  0  0  0  0  0  0  0  0
    7.3846  -11.7141   24.5300 C   0  0  0  0  0  0  0  0  0  0  0  0
    7.8091  -14.0482   25.3357 C   0  0  0  0  0  0  0  0  0  0  0  0
    8.7220  -14.5787   24.2924 C   0  0  2  0  0  0  0  0  0  0  0  0
    8.1728  -15.5822   23.4190 N   0  0  0  0  0  0  0  0  0  0  0  0
    9.9311  -15.1021   24.9557 C   0  0  0  0  0  0  0  0  0  0  0  0
   10.8576  -14.3181   25.2605 O   0  0  0  0  0  0  0  0  0  0  0  0
   10.0770  -13.9169   29.5095 C   0  0  0  0  0  0  0  0  0  0  0  0
   10.8868  -15.3882   30.1644 S   0  0  0  0  0  0  0  0  0  0  0  0
   11.0540  -16.6731   28.9198 C   0  0  0  0  0  0  0  0  0  0  0  0
   10.2105  -16.3186   27.7212 C   0  0  0  0  0  0  0  0  0  0  0  0
   10.8814  -16.8476   26.4538 C   0  0  2  0  0  0  0  0  0  0  0  0
   10.1154  -16.4749   25.2790 N   0  0  0  0  0  0  0  0  0  0  0  0
   11.0991  -18.3060   26.5111 C   0  0  0  0  0  0  0  0  0  0  0  0
   11.9264  -18.8342   27.4669 O   0  0  0  0  0  0  0  0  0  0  0  0
   10.5127  -19.0401   25.6705 O   0  0  0  0  0  0  0  0  0  0  0  0
  2  1  1  1
  2  3  1  0
  4  6  1  0
  4  2  1  0
  4  5  1  1
  6  7  2  0
  9 11  1  0
  9  8  1  1
 10  9  1  0
 12 11  1  1
 13 12  1  0
 13  6  1  0
 14 15  2  0
 14 12  1  0
 16 17  1  0
 17 18  1  0
 18 19  1  0
 20 19  1  1
 20 21  1  0
 20 22  1  0
 21 14  1  0
 22 24  2  0
 22 23  1  0
M  END
$$$$
