VLM.pdb
     RDKit          3D

 24 23  0  0  1  0  0  0  0  0999 V2000
    8.9886  -18.8793   21.3583 C   0  0  0  0  0  0  0  0  0  0  0  0
    7.6281  -18.3036   21.1738 C   0  0  2  0  0  0  0  0  0  0  0  0
    6.9484  -19.0622   20.0468 C   0  0  0  0  0  0  0  0  0  0  0  0
    7.5788  -16.8245   20.9167 C   0  0  2  0  0  0  0  0  0  0  0  0
    8.2073  -16.5579   19.5874 N   0  0  0  0  0  0  0  0  0  0  0  0
    8.2424  -16.0027   21.9340 C   0  0  0  0  0  0  0  0  0  0  0  0
    9.3924  -15.5248   21.7180 O   0  0  0  0  0  0  0  0  0  0  0  0
    5.8539  -12.5986   25.8454 C   0  0  0  0  0  0  0  0  0  0  0  0
    6.7606  -13.0753   24.6855 C   0  0  1  0  0  0  0  0  0  0  0  0
    7.7236  -11.9200   24.4717 C   0  0  0  0  0  0  0  0  0  0  0  0
    7.4392  -14.2996   25.2025 C   0  0  0  0  0  0  0  0  0  0  0  0
    8.3032  -15.0477   24.2553 C   0  0  2  0  0  0  0  0  0  0  0  0
    7.6293  -15.7148   23.1726 N   0  0  0  0  0  0  0  0  0  0  0  0
    9.0992  -16.0231   25.0241 C   0  0  0  0  0  0  0  0  0  0  0  0
    8.5312  -17.0046   25.5531 O   0  0  0  0  0  0  0  0  0  0  0  0
    9.8957  -13.4398   29.6549 C   0  0  0  0  0  0  0  0  0  0  0  0
   10.9626  -14.7832   30.2085 S   0  0  0  0  0  0  0  0  0  0  0  0
   11.3639  -15.9162   28.8730 C   0  0  0  0  0  0  0  0  0  0  0  0
   10.7522  -15.4112   27.5905 C   0  0  0  0  0  0  0  0  0  0  0  0
   11.1123  -16.3606   26.4481 C   0  0  2  0  0  0  0  0  0  0  0  0
   10.5057  -15.9164   25.2069 N   0  0  0  0  0  0  0  0  0  0  0  0
   10.7463  -17.7571   26.7536 C   0  0  0  0  0  0  0  0  0  0  0  0
   11.7228  -18.6621   27.0771 O   0  0  0  0  0  0  0  0  0  0  0  0
    9.5309  -18.0889   26.7095 O   0  0  0  0  0  0  0  0  0  0  0  0
  2  1  1  6
  2  3  1  0
  4  6  1  0
  4  2  1  0
  4  5  1  6
  6  7  2  0
  9 11  1  0
  9  8  1  1
 10  9  1  0
 12 11  1  1
 13 12  1  0
 13  6  1  0
 14 15  2  0
 14 12  1  0
 16 17  1  0
 17 18  1  0
 18 19  1  0
 20 19  1  1
 20 21  1  0
 20 22  1  0
 21 14  1  0
 22 24  2  0
 22 23  1  0
M  END
$$$$
