VLM.pdb
     RDKit          3D

 24 23  0  0  1  0  0  0  0  0999 V2000
    8.1331  -19.0568   19.3948 C   0  0  0  0  0  0  0  0  0  0  0  0
    8.5678  -18.2433   20.5634 C   0  0  2  0  0  0  0  0  0  0  0  0
    7.8414  -18.7641   21.7917 C   0  0  0  0  0  0  0  0  0  0  0  0
    8.3759  -16.7596   20.4286 C   0  0  2  0  0  0  0  0  0  0  0  0
    9.1418  -16.2940   19.2329 N   0  0  0  0  0  0  0  0  0  0  0  0
    8.7919  -15.9786   21.5980 C   0  0  0  0  0  0  0  0  0  0  0  0
   10.0147  -15.7266   21.7952 O   0  0  0  0  0  0  0  0  0  0  0  0
    6.3313  -12.1060   25.7156 C   0  0  0  0  0  0  0  0  0  0  0  0
    7.5000  -13.1000   25.5134 C   0  0  1  0  0  0  0  0  0  0  0  0
    7.4325  -14.0015   26.7343 C   0  0  0  0  0  0  0  0  0  0  0  0
    7.1791  -13.8229   24.2481 C   0  0  0  0  0  0  0  0  0  0  0  0
    8.2245  -14.7200   23.6953 C   0  0  2  0  0  0  0  0  0  0  0  0
    7.8562  -15.4823   22.5313 N   0  0  0  0  0  0  0  0  0  0  0  0
    8.6698  -15.6301   24.7674 C   0  0  0  0  0  0  0  0  0  0  0  0
    7.8720  -15.9519   25.6762 O   0  0  0  0  0  0  0  0  0  0  0  0
    9.2194  -13.6823   29.5788 C   0  0  0  0  0  0  0  0  0  0  0  0
   10.9388  -13.6001   29.0437 S   0  0  0  0  0  0  0  0  0  0  0  0
   11.3774  -14.9788   27.9783 C   0  0  0  0  0  0  0  0  0  0  0  0
   10.1868  -15.3527   27.1318 C   0  0  0  0  0  0  0  0  0  0  0  0
   10.5970  -16.4275   26.1254 C   0  0  2  0  0  0  0  0  0  0  0  0
    9.9803  -16.1787   24.8356 N   0  0  0  0  0  0  0  0  0  0  0  0
   10.2912  -17.7865   26.6124 C   0  0  0  0  0  0  0  0  0  0  0  0
    8.9954  -18.1358   26.8878 O   0  0  0  0  0  0  0  0  0  0  0  0
   11.2391  -18.6033   26.7656 O   0  0  0  0  0  0  0  0  0  0  0  0
  2  1  1  6
  2  3  1  0
  4  6  1  0
  4  2  1  0
  4  5  1  6
  6  7  2  0
  9 11  1  0
  9  8  1  1
 10  9  1  0
 12 11  1  1
 13 12  1  0
 13  6  1  0
 14 15  2  0
 14 12  1  0
 16 17  1  0
 17 18  1  0
 18 19  1  0
 20 19  1  1
 20 21  1  0
 20 22  1  0
 21 14  1  0
 22 24  2  0
 22 23  1  0
M  END
$$$$
