VLM.pdb
     RDKit          3D

 24 23  0  0  1  0  0  0  0  0999 V2000
    6.5054  -15.7254   19.8432 C   0  0  0  0  0  0  0  0  0  0  0  0
    7.6278  -16.6878   19.6690 C   0  0  2  0  0  0  0  0  0  0  0  0
    7.1294  -17.8367   18.8092 C   0  0  0  0  0  0  0  0  0  0  0  0
    8.2397  -17.2078   20.9385 C   0  0  2  0  0  0  0  0  0  0  0  0
    7.2268  -18.0589   21.6333 N   0  0  0  0  0  0  0  0  0  0  0  0
    8.7093  -16.1708   21.8627 C   0  0  0  0  0  0  0  0  0  0  0  0
    9.7418  -15.4940   21.5916 O   0  0  0  0  0  0  0  0  0  0  0  0
    5.7678  -13.1593   26.0781 C   0  0  0  0  0  0  0  0  0  0  0  0
    6.6351  -13.3108   24.8056 C   0  0  1  0  0  0  0  0  0  0  0  0
    7.4388  -12.0228   24.7517 C   0  0  0  0  0  0  0  0  0  0  0  0
    7.4879  -14.5089   25.0586 C   0  0  0  0  0  0  0  0  0  0  0  0
    8.4633  -14.8825   24.0038 C   0  0  2  0  0  0  0  0  0  0  0  0
    8.0337  -15.8900   23.0701 N   0  0  0  0  0  0  0  0  0  0  0  0
    9.7142  -15.3099   24.6585 C   0  0  0  0  0  0  0  0  0  0  0  0
   10.7271  -14.5779   24.5939 O   0  0  0  0  0  0  0  0  0  0  0  0
   11.0000  -13.0545   28.9077 C   0  0  0  0  0  0  0  0  0  0  0  0
   10.9492  -14.6968   29.6492 S   0  0  0  0  0  0  0  0  0  0  0  0
   10.5686  -15.9688   28.4387 C   0  0  0  0  0  0  0  0  0  0  0  0
   11.2929  -15.6644   27.1516 C   0  0  0  0  0  0  0  0  0  0  0  0
   11.0447  -16.7924   26.1505 C   0  0  2  0  0  0  0  0  0  0  0  0
    9.8456  -16.5308   25.3761 N   0  0  0  0  0  0  0  0  0  0  0  0
   10.9803  -18.1116   26.8088 C   0  0  0  0  0  0  0  0  0  0  0  0
    9.8384  -18.8631   26.7181 O   0  0  0  0  0  0  0  0  0  0  0  0
   11.9880  -18.5210   27.4461 O   0  0  0  0  0  0  0  0  0  0  0  0
  2  1  1  1
  2  3  1  0
  4  6  1  0
  4  2  1  0
  4  5  1  1
  6  7  2  0
  9 11  1  0
  9  8  1  1
 10  9  1  0
 12 11  1  1
 13 12  1  0
 13  6  1  0
 14 15  2  0
 14 12  1  0
 16 17  1  0
 17 18  1  0
 18 19  1  0
 20 19  1  1
 20 21  1  0
 20 22  1  0
 21 14  1  0
 22 24  2  0
 22 23  1  0
M  END
$$$$
