FSN.pdb
     RDKit          3D

 26 26  0  0  1  0  0  0  0  0999 V2000
    8.8042  -16.8935   19.3002 N   0  0  0  0  0  0  0  0  0  0  0  0
    9.8253  -16.2060   20.0296 C   0  0  1  0  0  0  0  0  0  0  0  0
    9.1885  -15.4483   21.1705 C   0  0  0  0  0  0  0  0  0  0  0  0
    8.3634  -14.3498   20.6107 C   0  0  0  0  0  0  0  0  0  0  0  0
    8.9230  -13.2005   20.0635 C   0  0  0  0  0  0  0  0  0  0  0  0
    8.1391  -12.1945   19.5503 C   0  0  0  0  0  0  0  0  0  0  0  0
    6.7529  -12.2919   19.5607 C   0  0  0  0  0  0  0  0  0  0  0  0
    6.1946  -13.4153   20.0952 C   0  0  0  0  0  0  0  0  0  0  0  0
    6.9821  -14.4262   20.6109 C   0  0  0  0  0  0  0  0  0  0  0  0
   10.9091  -17.1122   20.5126 C   0  0  0  0  0  0  0  0  0  0  0  0
   10.7519  -17.7304   21.5725 O   0  0  0  0  0  0  0  0  0  0  0  0
   15.3910  -18.9738   19.6126 O   0  0  0  0  0  0  0  0  0  0  0  0
   14.3867  -18.0959   19.2452 C   0  0  0  0  0  0  0  0  0  0  0  0
   13.2641  -18.0189   20.2544 C   0  0  2  0  0  0  0  0  0  0  0  0
   12.1257  -17.2949   19.7966 N   0  0  0  0  0  0  0  0  0  0  0  0
   13.8354  -17.4982   21.5232 C   0  0  0  0  0  0  0  0  0  0  0  0
   13.5853  -16.3136   21.8523 O   0  0  0  0  0  0  0  0  0  0  0  0
   16.2678  -16.9318   25.8704 N   0  0  0  0  0  0  0  0  0  0  0  0
   15.4186  -18.0816   26.0613 C   0  0  0  0  0  0  0  0  0  0  0  0
   15.2635  -18.5238   27.2101 O   0  0  0  0  0  0  0  0  0  0  0  0
   14.8100  -18.6192   24.8247 C   0  0  0  0  0  0  0  0  0  0  0  0
   15.1952  -17.7585   23.6428 C   0  0  2  0  0  0  0  0  0  0  0  0
   14.6527  -18.2572   22.3971 N   0  0  0  0  0  0  0  0  0  0  0  0
   16.6535  -17.5873   23.5954 C   0  0  0  0  0  0  0  0  0  0  0  0
   17.2849  -16.5254   24.2071 O   0  0  0  0  0  0  0  0  0  0  0  0
   17.3497  -18.4248   22.9844 O   0  0  0  0  0  0  0  0  0  0  0  0
  2  1  1  1
  3  2  1  0
  4  5  2  0
  4  3  1  0
  6  5  1  0
  7  6  2  0
  8  7  1  0
  8  9  2  0
  9  4  1  0
 10  2  1  0
 11 10  2  0
 13 12  1  0
 14 15  1  0
 14 13  1  6
 15 10  1  0
 16 14  1  0
 17 16  2  0
 19 21  1  0
 19 18  1  0
 20 19  2  0
 22 21  1  1
 22 24  1  0
 22 23  1  0
 23 16  1  0
 24 25  1  0
 26 24  2  0
M  END
$$$$
