FSN.pdb
     RDKit          3D

 26 26  0  0  1  0  0  0  0  0999 V2000
    8.0062  -16.1313   21.6917 N   0  0  0  0  0  0  0  0  0  0  0  0
    8.0802  -15.1211   22.7023 C   0  0  1  0  0  0  0  0  0  0  0  0
    7.0496  -14.0566   22.4092 C   0  0  0  0  0  0  0  0  0  0  0  0
    7.2560  -13.5621   21.0259 C   0  0  0  0  0  0  0  0  0  0  0  0
    6.4557  -13.9644   19.9624 C   0  0  0  0  0  0  0  0  0  0  0  0
    6.6651  -13.4932   18.6879 C   0  0  0  0  0  0  0  0  0  0  0  0
    7.6892  -12.5938   18.4171 C   0  0  0  0  0  0  0  0  0  0  0  0
    8.4795  -12.1933   19.4536 C   0  0  0  0  0  0  0  0  0  0  0  0
    8.2694  -12.6665   20.7341 C   0  0  0  0  0  0  0  0  0  0  0  0
    7.9268  -15.6650   24.0843 C   0  0  0  0  0  0  0  0  0  0  0  0
    7.4965  -14.9272   24.9792 O   0  0  0  0  0  0  0  0  0  0  0  0
    6.6444  -19.2883   25.1614 O   0  0  0  0  0  0  0  0  0  0  0  0
    6.9738  -18.2997   26.0716 C   0  0  0  0  0  0  0  0  0  0  0  0
    8.2525  -17.5725   25.7244 C   0  0  2  0  0  0  0  0  0  0  0  0
    8.2584  -17.0089   24.4160 N   0  0  0  0  0  0  0  0  0  0  0  0
    9.3824  -18.5024   25.9817 C   0  0  0  0  0  0  0  0  0  0  0  0
    9.4638  -19.5514   25.2982 O   0  0  0  0  0  0  0  0  0  0  0  0
   13.4565  -17.0880   25.3413 N   0  0  0  0  0  0  0  0  0  0  0  0
   12.8930  -18.3931   25.5832 C   0  0  0  0  0  0  0  0  0  0  0  0
   12.5420  -19.0802   24.6116 O   0  0  0  0  0  0  0  0  0  0  0  0
   12.7951  -18.7752   27.0090 C   0  0  0  0  0  0  0  0  0  0  0  0
   11.3953  -19.2544   27.3205 C   0  0  2  0  0  0  0  0  0  0  0  0
   10.3859  -18.2826   26.9575 N   0  0  0  0  0  0  0  0  0  0  0  0
   11.3028  -19.6660   28.7277 C   0  0  0  0  0  0  0  0  0  0  0  0
   10.3667  -19.1297   29.5860 O   0  0  0  0  0  0  0  0  0  0  0  0
   12.0924  -20.5275   29.1679 O   0  0  0  0  0  0  0  0  0  0  0  0
  2  1  1  6
  3  2  1  0
  4  5  2  0
  4  3  1  0
  6  5  1  0
  7  6  2  0
  8  7  1  0
  8  9  2  0
  9  4  1  0
 10  2  1  0
 11 10  2  0
 13 12  1  0
 14 15  1  0
 14 13  1  6
 15 10  1  0
 16 14  1  0
 17 16  2  0
 19 21  1  0
 19 18  1  0
 20 19  2  0
 22 21  1  1
 22 24  1  0
 22 23  1  0
 23 16  1  0
 24 25  1  0
 26 24  2  0
M  END
$$$$
