FSN.pdb
     RDKit          3D

 26 26  0  0  1  0  0  0  0  0999 V2000
    8.5144  -16.0278   21.7461 N   0  0  0  0  0  0  0  0  0  0  0  0
    9.8500  -15.5573   21.5405 C   0  0  1  0  0  0  0  0  0  0  0  0
    9.8286  -14.0512   21.4293 C   0  0  0  0  0  0  0  0  0  0  0  0
    8.8017  -13.6619   20.4319 C   0  0  0  0  0  0  0  0  0  0  0  0
    9.0031  -13.7955   19.0626 C   0  0  0  0  0  0  0  0  0  0  0  0
    8.0374  -13.4281   18.1556 C   0  0  0  0  0  0  0  0  0  0  0  0
    6.8201  -12.9078   18.5783 C   0  0  0  0  0  0  0  0  0  0  0  0
    6.6132  -12.7729   19.9194 C   0  0  0  0  0  0  0  0  0  0  0  0
    7.5833  -13.1420   20.8307 C   0  0  0  0  0  0  0  0  0  0  0  0
   10.7996  -16.0141   22.5982 C   0  0  0  0  0  0  0  0  0  0  0  0
   11.8982  -15.4555   22.7055 O   0  0  0  0  0  0  0  0  0  0  0  0
    9.5720  -18.7461   25.6289 O   0  0  0  0  0  0  0  0  0  0  0  0
   10.7174  -17.9831   25.7712 C   0  0  0  0  0  0  0  0  0  0  0  0
   11.3758  -17.6455   24.4532 C   0  0  2  0  0  0  0  0  0  0  0  0
   10.4892  -17.0748   23.4951 N   0  0  0  0  0  0  0  0  0  0  0  0
   12.0721  -18.8670   23.9729 C   0  0  0  0  0  0  0  0  0  0  0  0
   11.5457  -19.5338   23.0496 O   0  0  0  0  0  0  0  0  0  0  0  0
   14.9869  -21.1401   21.5190 N   0  0  0  0  0  0  0  0  0  0  0  0
   14.9764  -19.7154   21.2964 C   0  0  0  0  0  0  0  0  0  0  0  0
   15.2193  -19.2883   20.1571 O   0  0  0  0  0  0  0  0  0  0  0  0
   14.6670  -18.9001   22.4914 C   0  0  0  0  0  0  0  0  0  0  0  0
   14.4069  -19.8003   23.6780 C   0  0  2  0  0  0  0  0  0  0  0  0
   13.3044  -19.3352   24.4922 N   0  0  0  0  0  0  0  0  0  0  0  0
   15.6415  -19.9865   24.4521 C   0  0  0  0  0  0  0  0  0  0  0  0
   16.1186  -19.0192   25.3107 O   0  0  0  0  0  0  0  0  0  0  0  0
   16.2845  -21.0506   24.3346 O   0  0  0  0  0  0  0  0  0  0  0  0
  2  1  1  1
  3  2  1  0
  4  5  2  0
  4  3  1  0
  6  5  1  0
  7  6  2  0
  8  7  1  0
  8  9  2  0
  9  4  1  0
 10  2  1  0
 11 10  2  0
 13 12  1  0
 14 15  1  0
 14 13  1  1
 15 10  1  0
 16 14  1  0
 17 16  2  0
 19 21  1  0
 19 18  1  0
 20 19  2  0
 22 21  1  6
 22 24  1  0
 22 23  1  0
 23 16  1  0
 24 25  1  0
 26 24  2  0
M  END
$$$$
