FSN.pdb
     RDKit          3D

 26 26  0  0  1  0  0  0  0  0999 V2000
    6.7218  -16.1425   25.8672 N   0  0  0  0  0  0  0  0  0  0  0  0
    7.6580  -15.4946   25.0006 C   0  0  1  0  0  0  0  0  0  0  0  0
    8.4509  -14.4873   25.7992 C   0  0  0  0  0  0  0  0  0  0  0  0
    7.5237  -13.4472   26.3083 C   0  0  0  0  0  0  0  0  0  0  0  0
    6.2590  -13.2452   25.7669 C   0  0  0  0  0  0  0  0  0  0  0  0
    5.4158  -12.2749   26.2544 C   0  0  0  0  0  0  0  0  0  0  0  0
    5.8004  -11.4580   27.3108 C   0  0  0  0  0  0  0  0  0  0  0  0
    7.0390  -11.6484   27.8485 C   0  0  0  0  0  0  0  0  0  0  0  0
    7.8862  -12.6232   27.3588 C   0  0  0  0  0  0  0  0  0  0  0  0
    8.5530  -16.4528   24.2865 C   0  0  0  0  0  0  0  0  0  0  0  0
    8.8267  -17.5352   24.8193 O   0  0  0  0  0  0  0  0  0  0  0  0
   10.4033  -15.6006   20.3510 O   0  0  0  0  0  0  0  0  0  0  0  0
    9.9559  -16.8327   20.7939 C   0  0  0  0  0  0  0  0  0  0  0  0
   10.0304  -16.9889   22.2954 C   0  0  2  0  0  0  0  0  0  0  0  0
    9.1083  -16.1686   23.0070 N   0  0  0  0  0  0  0  0  0  0  0  0
   11.4463  -16.7881   22.6983 C   0  0  0  0  0  0  0  0  0  0  0  0
   11.8169  -15.6378   23.0354 O   0  0  0  0  0  0  0  0  0  0  0  0
   15.9109  -16.9471   22.4777 N   0  0  0  0  0  0  0  0  0  0  0  0
   15.2987  -15.9527   23.3239 C   0  0  0  0  0  0  0  0  0  0  0  0
   15.8874  -14.8746   23.4985 O   0  0  0  0  0  0  0  0  0  0  0  0
   13.9964  -16.3454   23.9054 C   0  0  0  0  0  0  0  0  0  0  0  0
   13.6484  -17.7563   23.4878 C   0  0  2  0  0  0  0  0  0  0  0  0
   12.4177  -17.8191   22.7285 N   0  0  0  0  0  0  0  0  0  0  0  0
   13.6349  -18.6421   24.6596 C   0  0  0  0  0  0  0  0  0  0  0  0
   13.8982  -19.9916   24.5586 O   0  0  0  0  0  0  0  0  0  0  0  0
   13.3781  -18.1663   25.7852 O   0  0  0  0  0  0  0  0  0  0  0  0
  2  1  1  1
  3  2  1  0
  4  5  2  0
  4  3  1  0
  6  5  1  0
  7  6  2  0
  8  7  1  0
  8  9  2  0
  9  4  1  0
 10  2  1  0
 11 10  2  0
 13 12  1  0
 14 15  1  0
 14 13  1  6
 15 10  1  0
 16 14  1  0
 17 16  2  0
 19 21  1  0
 19 18  1  0
 20 19  2  0
 22 21  1  1
 22 24  1  0
 22 23  1  0
 23 16  1  0
 24 25  1  0
 26 24  2  0
M  END
$$$$
