FSN.pdb
     RDKit          3D

 26 26  0  0  1  0  0  0  0  0999 V2000
    5.9645  -17.7677   25.5332 N   0  0  0  0  0  0  0  0  0  0  0  0
    6.5741  -16.5239   25.1745 C   0  0  1  0  0  0  0  0  0  0  0  0
    7.1223  -15.8683   26.4197 C   0  0  0  0  0  0  0  0  0  0  0  0
    6.7815  -14.4248   26.3872 C   0  0  0  0  0  0  0  0  0  0  0  0
    7.1134  -13.5562   27.4211 C   0  0  0  0  0  0  0  0  0  0  0  0
    6.7875  -12.2216   27.3701 C   0  0  0  0  0  0  0  0  0  0  0  0
    6.1114  -11.6916   26.2778 C   0  0  0  0  0  0  0  0  0  0  0  0
    5.7815  -12.5355   25.2588 C   0  0  0  0  0  0  0  0  0  0  0  0
    6.1089  -13.8764   25.3098 C   0  0  0  0  0  0  0  0  0  0  0  0
    7.6260  -16.6701   24.1251 C   0  0  0  0  0  0  0  0  0  0  0  0
    8.5227  -17.5078   24.2816 O   0  0  0  0  0  0  0  0  0  0  0  0
    7.6464  -14.0374   20.7574 O   0  0  0  0  0  0  0  0  0  0  0  0
    8.1999  -15.2977   20.6175 C   0  0  0  0  0  0  0  0  0  0  0  0
    8.6406  -15.9038   21.9301 C   0  0  2  0  0  0  0  0  0  0  0  0
    7.6386  -15.8780   22.9425 N   0  0  0  0  0  0  0  0  0  0  0  0
    9.9106  -15.2424   22.3265 C   0  0  0  0  0  0  0  0  0  0  0  0
    9.8522  -14.1923   23.0106 O   0  0  0  0  0  0  0  0  0  0  0  0
   12.8796  -16.9162   26.1096 N   0  0  0  0  0  0  0  0  0  0  0  0
   12.8806  -17.5232   24.8015 C   0  0  0  0  0  0  0  0  0  0  0  0
   13.7915  -18.3144   24.5124 O   0  0  0  0  0  0  0  0  0  0  0  0
   11.7586  -17.1193   23.9261 C   0  0  0  0  0  0  0  0  0  0  0  0
   12.2229  -16.0692   22.9423 C   0  0  2  0  0  0  0  0  0  0  0  0
   11.1981  -15.7225   21.9809 N   0  0  0  0  0  0  0  0  0  0  0  0
   13.4763  -16.4928   22.3039 C   0  0  0  0  0  0  0  0  0  0  0  0
   14.0498  -17.7196   22.5623 O   0  0  0  0  0  0  0  0  0  0  0  0
   14.0460  -15.7243   21.5012 O   0  0  0  0  0  0  0  0  0  0  0  0
  2  1  1  1
  3  2  1  0
  4  5  2  0
  4  3  1  0
  6  5  1  0
  7  6  2  0
  8  7  1  0
  8  9  2  0
  9  4  1  0
 10  2  1  0
 11 10  2  0
 13 12  1  0
 14 15  1  0
 14 13  1  6
 15 10  1  0
 16 14  1  0
 17 16  2  0
 19 21  1  0
 19 18  1  0
 20 19  2  0
 22 21  1  6
 22 24  1  0
 22 23  1  0
 23 16  1  0
 24 25  1  0
 26 24  2  0
M  END
$$$$
