FSN.pdb
     RDKit          3D

 26 26  0  0  1  0  0  0  0  0999 V2000
    5.5242  -16.9245   24.1008 N   0  0  0  0  0  0  0  0  0  0  0  0
    6.7268  -16.2705   24.5172 C   0  0  1  0  0  0  0  0  0  0  0  0
    6.5720  -15.8244   25.9518 C   0  0  0  0  0  0  0  0  0  0  0  0
    6.8927  -14.3786   26.0381 C   0  0  0  0  0  0  0  0  0  0  0  0
    5.9233  -13.3901   25.9091 C   0  0  0  0  0  0  0  0  0  0  0  0
    6.2431  -12.0556   25.9925 C   0  0  0  0  0  0  0  0  0  0  0  0
    7.5532  -11.6463   26.2097 C   0  0  0  0  0  0  0  0  0  0  0  0
    8.5111  -12.6083   26.3375 C   0  0  0  0  0  0  0  0  0  0  0  0
    8.1900  -13.9491   26.2538 C   0  0  0  0  0  0  0  0  0  0  0  0
    7.9443  -17.1154   24.3356 C   0  0  0  0  0  0  0  0  0  0  0  0
    7.9891  -18.2319   24.8664 O   0  0  0  0  0  0  0  0  0  0  0  0
   11.5704  -15.5259   22.6118 O   0  0  0  0  0  0  0  0  0  0  0  0
   11.1774  -16.8190   22.3154 C   0  0  0  0  0  0  0  0  0  0  0  0
   10.2668  -17.4194   23.3618 C   0  0  2  0  0  0  0  0  0  0  0  0
    9.0643  -16.6844   23.5702 N   0  0  0  0  0  0  0  0  0  0  0  0
   11.0699  -17.6175   24.5961 C   0  0  0  0  0  0  0  0  0  0  0  0
   11.3035  -16.6241   25.3258 O   0  0  0  0  0  0  0  0  0  0  0  0
   11.6019  -19.1778   28.6213 N   0  0  0  0  0  0  0  0  0  0  0  0
   11.8377  -20.4784   28.0449 C   0  0  0  0  0  0  0  0  0  0  0  0
   11.5404  -21.4858   28.7053 O   0  0  0  0  0  0  0  0  0  0  0  0
   12.4264  -20.4614   26.6878 C   0  0  0  0  0  0  0  0  0  0  0  0
   12.4600  -19.0461   26.1569 C   0  0  2  0  0  0  0  0  0  0  0  0
   11.5957  -18.8664   25.0100 N   0  0  0  0  0  0  0  0  0  0  0  0
   13.8458  -18.6389   25.8891 C   0  0  0  0  0  0  0  0  0  0  0  0
   14.2854  -18.3342   24.6184 O   0  0  0  0  0  0  0  0  0  0  0  0
   14.6569  -18.5638   26.8356 O   0  0  0  0  0  0  0  0  0  0  0  0
  2  1  1  1
  3  2  1  0
  4  5  2  0
  4  3  1  0
  6  5  1  0
  7  6  2  0
  8  7  1  0
  8  9  2  0
  9  4  1  0
 10  2  1  0
 11 10  2  0
 13 12  1  0
 14 15  1  0
 14 13  1  6
 15 10  1  0
 16 14  1  0
 17 16  2  0
 19 21  1  0
 19 18  1  0
 20 19  2  0
 22 21  1  6
 22 24  1  0
 22 23  1  0
 23 16  1  0
 24 25  1  0
 26 24  2  0
M  END
$$$$
