FSN.pdb
     RDKit          3D

 26 26  0  0  1  0  0  0  0  0999 V2000
    6.4945  -16.5904   26.0356 N   0  0  0  0  0  0  0  0  0  0  0  0
    7.0142  -15.7053   25.0387 C   0  0  1  0  0  0  0  0  0  0  0  0
    8.0130  -14.7730   25.6822 C   0  0  0  0  0  0  0  0  0  0  0  0
    7.2932  -13.5766   26.1835 C   0  0  0  0  0  0  0  0  0  0  0  0
    5.9518  -13.3408   25.9033 C   0  0  0  0  0  0  0  0  0  0  0  0
    5.3044  -12.2249   26.3783 C   0  0  0  0  0  0  0  0  0  0  0  0
    5.9718  -11.2889   27.1591 C   0  0  0  0  0  0  0  0  0  0  0  0
    7.2876  -11.5113   27.4395 C   0  0  0  0  0  0  0  0  0  0  0  0
    7.9382  -12.6324   26.9623 C   0  0  0  0  0  0  0  0  0  0  0  0
    7.6089  -16.4234   23.8726 C   0  0  0  0  0  0  0  0  0  0  0  0
    8.1203  -17.5365   24.0457 O   0  0  0  0  0  0  0  0  0  0  0  0
    8.1119  -14.3095   20.0737 O   0  0  0  0  0  0  0  0  0  0  0  0
    8.1119  -15.6906   20.1566 C   0  0  0  0  0  0  0  0  0  0  0  0
    8.5237  -16.2057   21.5167 C   0  0  2  0  0  0  0  0  0  0  0  0
    7.6112  -15.8744   22.5594 N   0  0  0  0  0  0  0  0  0  0  0  0
    9.9142  -15.7469   21.7687 C   0  0  0  0  0  0  0  0  0  0  0  0
   10.0923  -14.7509   22.5105 O   0  0  0  0  0  0  0  0  0  0  0  0
   13.4103  -19.1425   24.2923 N   0  0  0  0  0  0  0  0  0  0  0  0
   13.2228  -17.7531   23.9548 C   0  0  0  0  0  0  0  0  0  0  0  0
   14.1003  -16.9376   24.2780 O   0  0  0  0  0  0  0  0  0  0  0  0
   11.9644  -17.4499   23.2386 C   0  0  0  0  0  0  0  0  0  0  0  0
   12.2623  -16.6701   21.9780 C   0  0  2  0  0  0  0  0  0  0  0  0
   11.0662  -16.3650   21.2223 N   0  0  0  0  0  0  0  0  0  0  0  0
   13.2735  -17.3717   21.1759 C   0  0  0  0  0  0  0  0  0  0  0  0
   12.9778  -18.5154   20.4652 O   0  0  0  0  0  0  0  0  0  0  0  0
   14.4388  -16.9252   21.1311 O   0  0  0  0  0  0  0  0  0  0  0  0
  2  1  1  1
  3  2  1  0
  4  5  2  0
  4  3  1  0
  6  5  1  0
  7  6  2  0
  8  7  1  0
  8  9  2  0
  9  4  1  0
 10  2  1  0
 11 10  2  0
 13 12  1  0
 14 15  1  0
 14 13  1  6
 15 10  1  0
 16 14  1  0
 17 16  2  0
 19 21  1  0
 19 18  1  0
 20 19  2  0
 22 21  1  1
 22 24  1  0
 22 23  1  0
 23 16  1  0
 24 25  1  0
 26 24  2  0
M  END
$$$$
