FSN.pdb
     RDKit          3D

 26 26  0  0  1  0  0  0  0  0999 V2000
   12.8674  -14.6437   18.6828 N   0  0  0  0  0  0  0  0  0  0  0  0
   11.7229  -14.5264   19.5334 C   0  0  1  0  0  0  0  0  0  0  0  0
   10.5172  -15.0835   18.8143 C   0  0  0  0  0  0  0  0  0  0  0  0
    9.4030  -14.1108   18.9289 C   0  0  0  0  0  0  0  0  0  0  0  0
    9.5341  -12.9019   19.6033 C   0  0  0  0  0  0  0  0  0  0  0  0
    8.4878  -12.0151   19.6974 C   0  0  0  0  0  0  0  0  0  0  0  0
    7.2564  -12.2977   19.1187 C   0  0  0  0  0  0  0  0  0  0  0  0
    7.1179  -13.4809   18.4551 C   0  0  0  0  0  0  0  0  0  0  0  0
    8.1690  -14.3720   18.3605 C   0  0  0  0  0  0  0  0  0  0  0  0
   11.9146  -15.1764   20.8638 C   0  0  0  0  0  0  0  0  0  0  0  0
   12.8443  -15.9783   21.0157 O   0  0  0  0  0  0  0  0  0  0  0  0
    8.8298  -15.4303   23.7913 O   0  0  0  0  0  0  0  0  0  0  0  0
   10.0889  -15.0585   24.2279 C   0  0  0  0  0  0  0  0  0  0  0  0
   11.1926  -15.4645   23.2784 C   0  0  2  0  0  0  0  0  0  0  0  0
   11.0640  -14.9083   21.9731 N   0  0  0  0  0  0  0  0  0  0  0  0
   11.2745  -16.9480   23.2926 C   0  0  0  0  0  0  0  0  0  0  0  0
   10.3158  -17.6064   22.8219 O   0  0  0  0  0  0  0  0  0  0  0  0
   13.8036  -20.0571   21.4521 N   0  0  0  0  0  0  0  0  0  0  0  0
   14.3305  -19.3415   22.5878 C   0  0  0  0  0  0  0  0  0  0  0  0
   15.2102  -18.4874   22.3983 O   0  0  0  0  0  0  0  0  0  0  0  0
   13.7420  -19.7206   23.8911 C   0  0  0  0  0  0  0  0  0  0  0  0
   12.3675  -19.1074   24.0353 C   0  0  2  0  0  0  0  0  0  0  0  0
   12.3743  -17.6781   23.8071 N   0  0  0  0  0  0  0  0  0  0  0  0
   11.7859  -19.4691   25.3349 C   0  0  0  0  0  0  0  0  0  0  0  0
   11.3729  -18.5160   26.2414 O   0  0  0  0  0  0  0  0  0  0  0  0
   11.6583  -20.6744   25.6356 O   0  0  0  0  0  0  0  0  0  0  0  0
  2  1  1  6
  3  2  1  0
  4  5  2  0
  4  3  1  0
  6  5  1  0
  7  6  2  0
  8  7  1  0
  8  9  2  0
  9  4  1  0
 10  2  1  0
 11 10  2  0
 13 12  1  0
 14 15  1  0
 14 13  1  1
 15 10  1  0
 16 14  1  0
 17 16  2  0
 19 21  1  0
 19 18  1  0
 20 19  2  0
 22 21  1  1
 22 24  1  0
 22 23  1  0
 23 16  1  0
 24 25  1  0
 26 24  2  0
M  END
$$$$
