CYA.pdb
     RDKit          3D

 24 24  0  0  1  0  0  0  0  0999 V2000
   11.1054  -15.9431   12.6342 N   0  0  0  0  0  0  0  0  0  0  0  0
   10.6848  -16.2639   13.9692 C   0  0  1  0  0  0  0  0  0  0  0  0
   10.1462  -17.6866   14.0018 C   0  0  0  0  0  0  0  0  0  0  0  0
    8.3655  -17.6488   14.3368 S   0  0  0  0  0  0  0  0  0  0  0  0
   11.8117  -16.1461   14.9310 C   0  0  0  0  0  0  0  0  0  0  0  0
   12.9605  -16.5155   14.5778 O   0  0  0  0  0  0  0  0  0  0  0  0
   16.7391  -13.9192   21.9003 O   0  0  0  0  0  0  0  0  0  0  0  0
   15.7298  -14.0546   20.9545 C   0  0  0  0  0  0  0  0  0  0  0  0
   14.4583  -14.3572   21.3532 C   0  0  0  0  0  0  0  0  0  0  0  0
   13.4569  -14.4893   20.3869 C   0  0  0  0  0  0  0  0  0  0  0  0
   13.7580  -14.3153   19.0582 C   0  0  0  0  0  0  0  0  0  0  0  0
   12.7258  -14.4890   18.0347 C   0  0  0  0  0  0  0  0  0  0  0  0
   12.8057  -15.7121   17.1949 C   0  0  2  0  0  0  0  0  0  0  0  0
   11.6616  -15.6337   16.2418 N   0  0  0  0  0  0  0  0  0  0  0  0
   12.7867  -17.0068   17.8734 C   0  0  0  0  0  0  0  0  0  0  0  0
   11.6855  -17.5102   18.3233 O   0  0  0  0  0  0  0  0  0  0  0  0
   15.0456  -14.0118   18.6916 C   0  0  0  0  0  0  0  0  0  0  0  0
   16.0494  -13.8768   19.6280 C   0  0  0  0  0  0  0  0  0  0  0  0
   14.8341  -20.0785   18.2472 C   0  0  0  0  0  0  0  0  0  0  0  0
   13.8796  -19.0567   18.8233 C   0  0  2  0  0  0  0  0  0  0  0  0
   13.9150  -17.8098   18.0928 N   0  0  0  0  0  0  0  0  0  0  0  0
   14.0974  -18.9634   20.2601 C   0  0  0  0  0  0  0  0  0  0  0  0
   14.4129  -17.8922   20.8050 O   0  0  0  0  0  0  0  0  0  0  0  0
   13.9501  -20.0949   21.0417 O   0  0  0  0  0  0  0  0  0  0  0  0
  2  1  1  6
  2  3  1  0
  3  4  1  0
  5  6  2  0
  5  2  1  0
  7  8  1  0
  8 18  2  0
  9 10  2  0
  9  8  1  0
 10 11  1  0
 11 12  1  0
 11 17  2  0
 13 14  1  0
 13 12  1  1
 14  5  1  0
 15 13  1  0
 16 15  2  0
 18 17  1  0
 20 19  1  6
 20 21  1  0
 21 15  1  0
 22 24  1  0
 22 20  1  0
 23 22  2  0
M  END
$$$$
