CYA.pdb
     RDKit          3D

 24 24  0  0  1  0  0  0  0  0999 V2000
    7.6001  -12.6731   19.2435 N   0  0  0  0  0  0  0  0  0  0  0  0
    7.2741  -13.8755   19.9576 C   0  0  1  0  0  0  0  0  0  0  0  0
    7.4472  -15.0739   19.0361 C   0  0  0  0  0  0  0  0  0  0  0  0
    6.9962  -16.5873   19.9252 S   0  0  0  0  0  0  0  0  0  0  0  0
    8.1454  -14.0461   21.1495 C   0  0  0  0  0  0  0  0  0  0  0  0
    9.3721  -13.7870   21.0547 O   0  0  0  0  0  0  0  0  0  0  0  0
   10.4107  -14.8828   29.6850 O   0  0  0  0  0  0  0  0  0  0  0  0
    9.7522  -14.7434   28.4690 C   0  0  0  0  0  0  0  0  0  0  0  0
    9.2180  -15.8402   27.8535 C   0  0  0  0  0  0  0  0  0  0  0  0
    8.5596  -15.6794   26.6309 C   0  0  0  0  0  0  0  0  0  0  0  0
    8.4570  -14.4321   26.0654 C   0  0  0  0  0  0  0  0  0  0  0  0
    7.8036  -14.2575   24.7670 C   0  0  0  0  0  0  0  0  0  0  0  0
    8.6035  -14.5841   23.5584 C   0  0  2  0  0  0  0  0  0  0  0  0
    7.6640  -14.4907   22.4041 N   0  0  0  0  0  0  0  0  0  0  0  0
    9.2905  -15.8740   23.5241 C   0  0  0  0  0  0  0  0  0  0  0  0
    8.6405  -16.9732   23.3305 O   0  0  0  0  0  0  0  0  0  0  0  0
    9.0048  -13.3510   26.7103 C   0  0  0  0  0  0  0  0  0  0  0  0
    9.6588  -13.4864   27.9171 C   0  0  0  0  0  0  0  0  0  0  0  0
   12.4653  -17.4677   22.7998 C   0  0  0  0  0  0  0  0  0  0  0  0
   11.3125  -17.3402   23.7703 C   0  0  2  0  0  0  0  0  0  0  0  0
   10.6727  -16.0468   23.6847 N   0  0  0  0  0  0  0  0  0  0  0  0
   11.7621  -17.7458   25.0946 C   0  0  0  0  0  0  0  0  0  0  0  0
   11.6127  -17.0143   26.0879 O   0  0  0  0  0  0  0  0  0  0  0  0
   12.3718  -18.9769   25.2546 O   0  0  0  0  0  0  0  0  0  0  0  0
  2  1  1  6
  2  3  1  0
  3  4  1  0
  5  6  2  0
  5  2  1  0
  7  8  1  0
  8 18  2  0
  9 10  2  0
  9  8  1  0
 10 11  1  0
 11 12  1  0
 11 17  2  0
 13 14  1  0
 13 12  1  1
 14  5  1  0
 15 13  1  0
 16 15  2  0
 18 17  1  0
 20 19  1  6
 20 21  1  0
 21 15  1  0
 22 24  1  0
 22 20  1  0
 23 22  2  0
M  END
$$$$
