CYA.pdb
     RDKit          3D

 24 24  0  0  1  0  0  0  0  0999 V2000
    7.8272  -12.8953   19.5295 N   0  0  0  0  0  0  0  0  0  0  0  0
    7.5083  -14.0285   20.3519 C   0  0  1  0  0  0  0  0  0  0  0  0
    7.6850  -15.3057   19.5439 C   0  0  0  0  0  0  0  0  0  0  0  0
    6.1411  -15.6867   18.6746 S   0  0  0  0  0  0  0  0  0  0  0  0
    8.3828  -14.0850   21.5522 C   0  0  0  0  0  0  0  0  0  0  0  0
    9.5230  -13.5570   21.5057 O   0  0  0  0  0  0  0  0  0  0  0  0
   10.4397  -14.7493   30.1937 O   0  0  0  0  0  0  0  0  0  0  0  0
    9.8512  -14.6980   28.9358 C   0  0  0  0  0  0  0  0  0  0  0  0
    9.6031  -13.4896   28.3480 C   0  0  0  0  0  0  0  0  0  0  0  0
    9.0104  -13.4589   27.0824 C   0  0  0  0  0  0  0  0  0  0  0  0
    8.6861  -14.6329   26.4477 C   0  0  0  0  0  0  0  0  0  0  0  0
    8.0300  -14.6121   25.1391 C   0  0  0  0  0  0  0  0  0  0  0  0
    8.9090  -14.6464   23.9418 C   0  0  2  0  0  0  0  0  0  0  0  0
    7.9981  -14.7093   22.7628 N   0  0  0  0  0  0  0  0  0  0  0  0
    9.8965  -15.7205   23.8521 C   0  0  0  0  0  0  0  0  0  0  0  0
   10.8770  -15.7994   24.6892 O   0  0  0  0  0  0  0  0  0  0  0  0
    8.9490  -15.8300   27.0661 C   0  0  0  0  0  0  0  0  0  0  0  0
    9.5330  -15.8840   28.3145 C   0  0  0  0  0  0  0  0  0  0  0  0
   11.5058  -17.8792   21.4487 C   0  0  0  0  0  0  0  0  0  0  0  0
   10.8745  -17.7886   22.8200 C   0  0  2  0  0  0  0  0  0  0  0  0
    9.8808  -16.7412   22.8909 N   0  0  0  0  0  0  0  0  0  0  0  0
   11.9284  -17.7403   23.8236 C   0  0  0  0  0  0  0  0  0  0  0  0
   11.9808  -16.8351   24.6732 O   0  0  0  0  0  0  0  0  0  0  0  0
   12.8983  -18.7264   23.8343 O   0  0  0  0  0  0  0  0  0  0  0  0
  2  1  1  6
  2  3  1  0
  3  4  1  0
  5  6  2  0
  5  2  1  0
  7  8  1  0
  8 18  2  0
  9 10  2  0
  9  8  1  0
 10 11  1  0
 11 12  1  0
 11 17  2  0
 13 14  1  0
 13 12  1  1
 14  5  1  0
 15 13  1  0
 16 15  2  0
 18 17  1  0
 20 19  1  6
 20 21  1  0
 21 15  1  0
 22 24  1  0
 22 20  1  0
 23 22  2  0
M  END
$$$$
