CYA.pdb
     RDKit          3D

 24 24  0  0  1  0  0  0  0  0999 V2000
    7.8913  -12.8908   19.6831 N   0  0  0  0  0  0  0  0  0  0  0  0
    7.2522  -13.7682   20.6232 C   0  0  1  0  0  0  0  0  0  0  0  0
    6.8499  -15.0563   19.9203 C   0  0  0  0  0  0  0  0  0  0  0  0
    6.0209  -16.1531   21.1011 S   0  0  0  0  0  0  0  0  0  0  0  0
    8.1569  -14.0926   21.7569 C   0  0  0  0  0  0  0  0  0  0  0  0
    9.3956  -14.1618   21.5526 O   0  0  0  0  0  0  0  0  0  0  0  0
   10.6413  -15.3338   30.2431 O   0  0  0  0  0  0  0  0  0  0  0  0
   10.0021  -15.0385   29.0449 C   0  0  0  0  0  0  0  0  0  0  0  0
    9.9932  -13.7553   28.5754 C   0  0  0  0  0  0  0  0  0  0  0  0
    9.3450  -13.4783   27.3683 C   0  0  0  0  0  0  0  0  0  0  0  0
    8.7289  -14.4893   26.6722 C   0  0  0  0  0  0  0  0  0  0  0  0
    8.0142  -14.2043   25.4268 C   0  0  0  0  0  0  0  0  0  0  0  0
    8.6814  -14.5984   24.1592 C   0  0  2  0  0  0  0  0  0  0  0  0
    7.6949  -14.3315   23.0732 N   0  0  0  0  0  0  0  0  0  0  0  0
    9.1716  -15.9709   24.0454 C   0  0  0  0  0  0  0  0  0  0  0  0
    8.3551  -16.9687   23.9693 O   0  0  0  0  0  0  0  0  0  0  0  0
    8.7566  -15.7676   27.1719 C   0  0  0  0  0  0  0  0  0  0  0  0
    9.3902  -16.0637   28.3609 C   0  0  0  0  0  0  0  0  0  0  0  0
   11.8745  -17.9384   22.7286 C   0  0  0  0  0  0  0  0  0  0  0  0
   10.9842  -17.7028   23.9282 C   0  0  2  0  0  0  0  0  0  0  0  0
   10.5252  -16.3341   24.0019 N   0  0  0  0  0  0  0  0  0  0  0  0
   11.6458  -18.2212   25.1173 C   0  0  0  0  0  0  0  0  0  0  0  0
   12.0404  -19.3975   25.1852 O   0  0  0  0  0  0  0  0  0  0  0  0
   11.8417  -17.3849   26.2014 O   0  0  0  0  0  0  0  0  0  0  0  0
  2  1  1  6
  2  3  1  0
  3  4  1  0
  5  6  2  0
  5  2  1  0
  7  8  1  0
  8 18  2  0
  9 10  2  0
  9  8  1  0
 10 11  1  0
 11 12  1  0
 11 17  2  0
 13 14  1  0
 13 12  1  1
 14  5  1  0
 15 13  1  0
 16 15  2  0
 18 17  1  0
 20 19  1  6
 20 21  1  0
 21 15  1  0
 22 24  1  0
 22 20  1  0
 23 22  2  0
M  END
$$$$
