CYA.pdb
     RDKit          3D

 24 24  0  0  1  0  0  0  0  0999 V2000
    5.8246  -13.9499   20.6083 N   0  0  0  0  0  0  0  0  0  0  0  0
    6.3735  -15.1448   21.1854 C   0  0  1  0  0  0  0  0  0  0  0  0
    6.9965  -15.9961   20.0889 C   0  0  0  0  0  0  0  0  0  0  0  0
    7.6444  -17.5272   20.8102 S   0  0  0  0  0  0  0  0  0  0  0  0
    7.4087  -14.8243   22.2025 C   0  0  0  0  0  0  0  0  0  0  0  0
    8.1716  -13.8431   22.0130 O   0  0  0  0  0  0  0  0  0  0  0  0
   11.0440  -14.5047   30.3181 O   0  0  0  0  0  0  0  0  0  0  0  0
   10.2780  -14.6739   29.1708 C   0  0  0  0  0  0  0  0  0  0  0  0
    9.7853  -13.5821   28.5131 C   0  0  0  0  0  0  0  0  0  0  0  0
    9.0170  -13.7729   27.3611 C   0  0  0  0  0  0  0  0  0  0  0  0
    8.7670  -15.0442   26.9055 C   0  0  0  0  0  0  0  0  0  0  0  0
    7.9318  -15.2575   25.7222 C   0  0  0  0  0  0  0  0  0  0  0  0
    8.5902  -15.1239   24.3971 C   0  0  2  0  0  0  0  0  0  0  0  0
    7.5862  -15.5734   23.3902 N   0  0  0  0  0  0  0  0  0  0  0  0
    9.8467  -15.8404   24.1854 C   0  0  0  0  0  0  0  0  0  0  0  0
   10.9309  -15.4824   24.7892 O   0  0  0  0  0  0  0  0  0  0  0  0
    9.2771  -16.1194   27.5898 C   0  0  0  0  0  0  0  0  0  0  0  0
   10.0376  -15.9546   28.7287 C   0  0  0  0  0  0  0  0  0  0  0  0
   12.2651  -16.8499   22.4079 C   0  0  0  0  0  0  0  0  0  0  0  0
   11.2476  -17.6624   23.1771 C   0  0  2  0  0  0  0  0  0  0  0  0
   10.0002  -16.9513   23.3436 N   0  0  0  0  0  0  0  0  0  0  0  0
   11.8665  -18.1636   24.3962 C   0  0  0  0  0  0  0  0  0  0  0  0
   11.3662  -17.9588   25.5150 O   0  0  0  0  0  0  0  0  0  0  0  0
   13.0423  -18.8870   24.3101 O   0  0  0  0  0  0  0  0  0  0  0  0
  2  1  1  6
  2  3  1  0
  3  4  1  0
  5  6  2  0
  5  2  1  0
  7  8  1  0
  8 18  2  0
  9 10  2  0
  9  8  1  0
 10 11  1  0
 11 12  1  0
 11 17  2  0
 13 14  1  0
 13 12  1  1
 14  5  1  0
 15 13  1  0
 16 15  2  0
 18 17  1  0
 20 19  1  1
 20 21  1  0
 21 15  1  0
 22 24  1  0
 22 20  1  0
 23 22  2  0
M  END
$$$$
