CYA.pdb
     RDKit          3D

 24 24  0  0  1  0  0  0  0  0999 V2000
    7.0635  -19.3648   20.3811 N   0  0  0  0  0  0  0  0  0  0  0  0
    6.6674  -18.7507   21.6172 C   0  0  1  0  0  0  0  0  0  0  0  0
    6.3970  -19.8305   22.6547 C   0  0  0  0  0  0  0  0  0  0  0  0
    4.9548  -20.8042   22.1486 S   0  0  0  0  0  0  0  0  0  0  0  0
    7.7235  -17.8375   22.1266 C   0  0  0  0  0  0  0  0  0  0  0  0
    8.9315  -18.1487   21.9696 O   0  0  0  0  0  0  0  0  0  0  0  0
    7.8637  -12.9795   17.5106 O   0  0  0  0  0  0  0  0  0  0  0  0
    7.9540  -13.3124   18.8570 C   0  0  0  0  0  0  0  0  0  0  0  0
    9.1762  -13.5511   19.4196 C   0  0  0  0  0  0  0  0  0  0  0  0
    9.2462  -13.8846   20.7753 C   0  0  0  0  0  0  0  0  0  0  0  0
    8.0965  -13.9683   21.5218 C   0  0  0  0  0  0  0  0  0  0  0  0
    8.1545  -14.3543   22.9328 C   0  0  0  0  0  0  0  0  0  0  0  0
    8.5669  -15.7492   23.2356 C   0  0  2  0  0  0  0  0  0  0  0  0
    7.4409  -16.6187   22.7886 N   0  0  0  0  0  0  0  0  0  0  0  0
    8.9124  -16.0724   24.6187 C   0  0  0  0  0  0  0  0  0  0  0  0
    9.8928  -15.4830   25.2186 O   0  0  0  0  0  0  0  0  0  0  0  0
    6.8846  -13.7222   20.9256 C   0  0  0  0  0  0  0  0  0  0  0  0
    6.7920  -13.3916   19.5897 C   0  0  0  0  0  0  0  0  0  0  0  0
    7.5541  -17.7422   27.6501 C   0  0  0  0  0  0  0  0  0  0  0  0
    8.7014  -17.4408   26.7120 C   0  0  2  0  0  0  0  0  0  0  0  0
    8.2393  -17.0136   25.4107 N   0  0  0  0  0  0  0  0  0  0  0  0
    9.6303  -18.5621   26.7253 C   0  0  0  0  0  0  0  0  0  0  0  0
    9.9499  -19.1583   25.6830 O   0  0  0  0  0  0  0  0  0  0  0  0
   10.1729  -18.9771   27.9280 O   0  0  0  0  0  0  0  0  0  0  0  0
  2  1  1  6
  2  3  1  0
  3  4  1  0
  5  6  2  0
  5  2  1  0
  7  8  1  0
  8 18  2  0
  9 10  2  0
  9  8  1  0
 10 11  1  0
 11 12  1  0
 11 17  2  0
 13 14  1  0
 13 12  1  1
 14  5  1  0
 15 13  1  0
 16 15  2  0
 18 17  1  0
 20 19  1  1
 20 21  1  0
 21 15  1  0
 22 24  1  0
 22 20  1  0
 23 22  2  0
M  END
$$$$
