CYA.pdb
     RDKit          3D

 24 24  0  0  1  0  0  0  0  0999 V2000
    8.3115  -18.0893   19.9933 N   0  0  0  0  0  0  0  0  0  0  0  0
    8.6035  -16.7658   20.4678 C   0  0  1  0  0  0  0  0  0  0  0  0
    7.6581  -15.7721   19.8089 C   0  0  0  0  0  0  0  0  0  0  0  0
    8.0231  -14.1027   20.4124 S   0  0  0  0  0  0  0  0  0  0  0  0
    8.4528  -16.6783   21.9438 C   0  0  0  0  0  0  0  0  0  0  0  0
    7.4810  -17.2538   22.4963 O   0  0  0  0  0  0  0  0  0  0  0  0
   10.3618  -16.8064   30.4577 O   0  0  0  0  0  0  0  0  0  0  0  0
   10.3865  -16.6921   29.0728 C   0  0  0  0  0  0  0  0  0  0  0  0
   10.9012  -15.5681   28.4907 C   0  0  0  0  0  0  0  0  0  0  0  0
   10.9171  -15.4719   27.0963 C   0  0  0  0  0  0  0  0  0  0  0  0
   10.4198  -16.4987   26.3317 C   0  0  0  0  0  0  0  0  0  0  0  0
   10.3960  -16.3926   24.8718 C   0  0  0  0  0  0  0  0  0  0  0  0
    9.1255  -15.9418   24.2475 C   0  0  2  0  0  0  0  0  0  0  0  0
    9.3558  -15.9727   22.7745 N   0  0  0  0  0  0  0  0  0  0  0  0
    8.6051  -14.6309   24.6317 C   0  0  0  0  0  0  0  0  0  0  0  0
    9.1933  -13.5426   24.2603 O   0  0  0  0  0  0  0  0  0  0  0  0
    9.9099  -17.6143   26.9484 C   0  0  0  0  0  0  0  0  0  0  0  0
    9.8841  -17.7305   28.3226 C   0  0  0  0  0  0  0  0  0  0  0  0
    5.5903  -13.1410   26.3506 C   0  0  0  0  0  0  0  0  0  0  0  0
    7.0226  -13.1235   25.8656 C   0  0  2  0  0  0  0  0  0  0  0  0
    7.4552  -14.4244   25.4071 N   0  0  0  0  0  0  0  0  0  0  0  0
    7.8570  -12.4912   26.8777 C   0  0  0  0  0  0  0  0  0  0  0  0
    8.7781  -13.1052   27.4420 O   0  0  0  0  0  0  0  0  0  0  0  0
    7.6207  -11.1727   27.2222 O   0  0  0  0  0  0  0  0  0  0  0  0
  2  1  1  6
  2  3  1  0
  3  4  1  0
  5  6  2  0
  5  2  1  0
  7  8  1  0
  8 18  2  0
  9 10  2  0
  9  8  1  0
 10 11  1  0
 11 12  1  0
 11 17  2  0
 13 14  1  0
 13 12  1  1
 14  5  1  0
 15 13  1  0
 16 15  2  0
 18 17  1  0
 20 19  1  1
 20 21  1  0
 21 15  1  0
 22 24  1  0
 22 20  1  0
 23 22  2  0
M  END
$$$$
