CYA.pdb
     RDKit          3D

 24 24  0  0  1  0  0  0  0  0999 V2000
   10.4472  -16.5940   18.6282 N   0  0  0  0  0  0  0  0  0  0  0  0
    9.3927  -17.0404   19.4946 C   0  0  1  0  0  0  0  0  0  0  0  0
    9.4973  -18.5465   19.6846 C   0  0  0  0  0  0  0  0  0  0  0  0
    8.1885  -19.1041   20.8073 S   0  0  0  0  0  0  0  0  0  0  0  0
    9.4684  -16.3744   20.8212 C   0  0  0  0  0  0  0  0  0  0  0  0
   10.5824  -16.2773   21.3960 O   0  0  0  0  0  0  0  0  0  0  0  0
    6.9261  -11.9795   28.1036 O   0  0  0  0  0  0  0  0  0  0  0  0
    7.0101  -12.5630   26.8450 C   0  0  0  0  0  0  0  0  0  0  0  0
    5.9604  -13.2908   26.3597 C   0  0  0  0  0  0  0  0  0  0  0  0
    6.0642  -13.8700   25.0917 C   0  0  0  0  0  0  0  0  0  0  0  0
    7.2098  -13.7034   24.3527 C   0  0  0  0  0  0  0  0  0  0  0  0
    7.3446  -14.3373   23.0400 C   0  0  0  0  0  0  0  0  0  0  0  0
    8.4983  -15.2534   22.8470 C   0  0  2  0  0  0  0  0  0  0  0  0
    8.3395  -15.8354   21.4833 N   0  0  0  0  0  0  0  0  0  0  0  0
    8.6827  -16.3305   23.8179 C   0  0  0  0  0  0  0  0  0  0  0  0
    8.0368  -17.4441   23.7124 O   0  0  0  0  0  0  0  0  0  0  0  0
    8.2459  -12.9660   24.8698 C   0  0  0  0  0  0  0  0  0  0  0  0
    8.1653  -12.3857   26.1185 C   0  0  0  0  0  0  0  0  0  0  0  0
   10.9085  -18.2992   24.6580 C   0  0  0  0  0  0  0  0  0  0  0  0
   10.0737  -17.4444   25.5852 C   0  0  2  0  0  0  0  0  0  0  0  0
    9.5500  -16.2738   24.9182 N   0  0  0  0  0  0  0  0  0  0  0  0
   10.8247  -17.2018   26.8090 C   0  0  0  0  0  0  0  0  0  0  0  0
   11.9830  -16.7528   26.7868 O   0  0  0  0  0  0  0  0  0  0  0  0
   10.2360  -17.4773   28.0299 O   0  0  0  0  0  0  0  0  0  0  0  0
  2  1  1  6
  2  3  1  0
  3  4  1  0
  5  6  2  0
  5  2  1  0
  7  8  1  0
  8 18  2  0
  9 10  2  0
  9  8  1  0
 10 11  1  0
 11 12  1  0
 11 17  2  0
 13 14  1  0
 13 12  1  1
 14  5  1  0
 15 13  1  0
 16 15  2  0
 18 17  1  0
 20 19  1  6
 20 21  1  0
 21 15  1  0
 22 24  1  0
 22 20  1  0
 23 22  2  0
M  END
$$$$
