CYA.pdb
     RDKit          3D

 24 24  0  0  1  0  0  0  0  0999 V2000
    5.6845  -19.0858   19.8802 N   0  0  0  0  0  0  0  0  0  0  0  0
    5.6228  -18.8040   21.2870 C   0  0  1  0  0  0  0  0  0  0  0  0
    5.4270  -20.1028   22.0550 C   0  0  0  0  0  0  0  0  0  0  0  0
    5.3462  -19.7464   23.8301 S   0  0  0  0  0  0  0  0  0  0  0  0
    6.8669  -18.1411   21.7576 C   0  0  0  0  0  0  0  0  0  0  0  0
    7.9764  -18.5349   21.3161 O   0  0  0  0  0  0  0  0  0  0  0  0
    8.1507  -12.2788   18.3697 O   0  0  0  0  0  0  0  0  0  0  0  0
    8.1022  -12.9779   19.5699 C   0  0  0  0  0  0  0  0  0  0  0  0
    6.8964  -13.2474   20.1535 C   0  0  0  0  0  0  0  0  0  0  0  0
    6.8684  -13.9516   21.3606 C   0  0  0  0  0  0  0  0  0  0  0  0
    8.0425  -14.3622   21.9431 C   0  0  0  0  0  0  0  0  0  0  0  0
    8.0274  -15.0666   23.2263 C   0  0  0  0  0  0  0  0  0  0  0  0
    8.1738  -16.5446   23.1878 C   0  0  2  0  0  0  0  0  0  0  0  0
    6.8725  -17.0754   22.6890 N   0  0  0  0  0  0  0  0  0  0  0  0
    8.5339  -17.2262   24.4299 C   0  0  0  0  0  0  0  0  0  0  0  0
    7.7639  -17.1799   25.4659 O   0  0  0  0  0  0  0  0  0  0  0  0
    9.2369  -14.0752   21.3303 C   0  0  0  0  0  0  0  0  0  0  0  0
    9.2881  -13.3815   20.1392 C   0  0  0  0  0  0  0  0  0  0  0  0
   10.9626  -19.8016   25.6674 C   0  0  0  0  0  0  0  0  0  0  0  0
   10.0541  -18.6097   25.8699 C   0  0  2  0  0  0  0  0  0  0  0  0
    9.7027  -17.9775   24.6184 N   0  0  0  0  0  0  0  0  0  0  0  0
   10.6325  -17.7413   26.8857 C   0  0  0  0  0  0  0  0  0  0  0  0
   10.8991  -18.1569   28.0259 O   0  0  0  0  0  0  0  0  0  0  0  0
   10.8932  -16.4186   26.5764 O   0  0  0  0  0  0  0  0  0  0  0  0
  2  1  1  6
  2  3  1  0
  3  4  1  0
  5  6  2  0
  5  2  1  0
  7  8  1  0
  8 18  2  0
  9 10  2  0
  9  8  1  0
 10 11  1  0
 11 12  1  0
 11 17  2  0
 13 14  1  0
 13 12  1  1
 14  5  1  0
 15 13  1  0
 16 15  2  0
 18 17  1  0
 20 19  1  6
 20 21  1  0
 21 15  1  0
 22 24  1  0
 22 20  1  0
 23 22  2  0
M  END
$$$$
