CHL.pdb
     RDKit          3D

 25 25  0  0  1  0  0  0  0  0999 V2000
    7.8725  -15.2900   17.2466 N   0  0  0  0  0  0  0  0  0  0  0  0
    8.5450  -14.7450   18.4074 C   0  0  1  0  0  0  0  0  0  0  0  0
    8.4102  -13.2382   18.3853 C   0  0  0  0  0  0  0  0  0  0  0  0
    9.1809  -12.4812   19.8441 S   0  0  0  0  0  0  0  0  0  0  0  0
    7.9617  -15.3025   19.6659 C   0  0  0  0  0  0  0  0  0  0  0  0
    6.6900  -15.3812   19.7199 O   0  0  0  0  0  0  0  0  0  0  0  0
    8.7763  -15.7220   20.7431 N   0  0  0  0  0  0  0  0  0  0  0  0
    8.1971  -16.2573   21.9261 C   0  0  1  0  0  0  0  0  0  0  0  0
    8.6317  -17.7061   22.0519 C   0  0  0  0  0  0  0  0  0  0  0  0
    8.0505  -18.3843   23.2307 C   0  0  0  0  0  0  0  0  0  0  0  0
    7.1418  -17.7948   24.1053 C   0  0  0  0  0  0  0  0  0  0  0  0
    6.8484  -18.7167   25.0409 N   0  0  0  0  0  0  0  0  0  0  0  0
    7.5461  -19.8473   24.7675 C   0  0  0  0  0  0  0  0  0  0  0  0
    8.2704  -19.6339   23.6692 N   0  0  0  0  0  0  0  0  0  0  0  0
    8.5078  -15.4777   23.1417 C   0  0  0  0  0  0  0  0  0  0  0  0
    9.7049  -15.1758   23.3529 O   0  0  0  0  0  0  0  0  0  0  0  0
    7.4362  -11.2484   26.5991 C   0  0  0  0  0  0  0  0  0  0  0  0
    6.6422  -12.5063   26.7197 C   0  0  1  0  0  0  0  0  0  0  0  0
    5.2066  -12.0624   27.0460 C   0  0  0  0  0  0  0  0  0  0  0  0
    6.6982  -13.4138   25.5792 C   0  0  0  0  0  0  0  0  0  0  0  0
    7.9091  -14.1931   25.2470 C   0  0  2  0  0  0  0  0  0  0  0  0
    7.5395  -15.0552   24.0744 N   0  0  0  0  0  0  0  0  0  0  0  0
    8.3466  -15.1201   26.2784 C   0  0  0  0  0  0  0  0  0  0  0  0
    7.7053  -16.2173   26.4260 O   0  0  0  0  0  0  0  0  0  0  0  0
    9.4228  -14.9485   27.1449 O   0  0  0  0  0  0  0  0  0  0  0  0
  2  1  1  6
  2  5  1  0
  3  2  1  0
  4  3  1  0
  5  7  1  0
  6  5  2  0
  7  8  1  0
  8  9  1  1
  9 10  1  0
 10 11  2  0
 12 11  1  0
 13 12  1  0
 14 10  1  0
 14 13  2  0
 15 22  1  0
 15  8  1  0
 16 15  2  0
 18 19  1  6
 18 17  1  0
 20 18  1  0
 21 20  1  1
 21 22  1  0
 23 21  1  0
 24 23  2  0
 25 23  1  0
M  END
$$$$
