CHL.pdb
     RDKit          3D

 25 25  0  0  1  0  0  0  0  0999 V2000
    6.7598  -20.7412   23.3809 N   0  0  0  0  0  0  0  0  0  0  0  0
    6.4637  -19.4127   23.8751 C   0  0  1  0  0  0  0  0  0  0  0  0
    6.7536  -19.3698   25.3595 C   0  0  0  0  0  0  0  0  0  0  0  0
    6.2525  -17.7845   26.0882 S   0  0  0  0  0  0  0  0  0  0  0  0
    7.2789  -18.3873   23.1546 C   0  0  0  0  0  0  0  0  0  0  0  0
    8.4954  -18.6882   22.9181 O   0  0  0  0  0  0  0  0  0  0  0  0
    6.7314  -17.1463   22.7547 N   0  0  0  0  0  0  0  0  0  0  0  0
    7.5604  -16.1298   22.2061 C   0  0  1  0  0  0  0  0  0  0  0  0
    6.7023  -15.2474   21.3181 C   0  0  0  0  0  0  0  0  0  0  0  0
    7.4736  -14.1810   20.6434 C   0  0  0  0  0  0  0  0  0  0  0  0
    8.3787  -14.4029   19.6090 C   0  0  0  0  0  0  0  0  0  0  0  0
    8.8740  -13.2009   19.2611 N   0  0  0  0  0  0  0  0  0  0  0  0
    8.3028  -12.2541   20.0468 C   0  0  0  0  0  0  0  0  0  0  0  0
    7.4568  -12.8597   20.8797 N   0  0  0  0  0  0  0  0  0  0  0  0
    8.2903  -15.3481   23.2252 C   0  0  0  0  0  0  0  0  0  0  0  0
    9.1890  -14.5693   22.8320 O   0  0  0  0  0  0  0  0  0  0  0  0
    5.5804  -12.7572   26.8719 C   0  0  0  0  0  0  0  0  0  0  0  0
    6.7417  -13.0199   25.9721 C   0  0  1  0  0  0  0  0  0  0  0  0
    7.3484  -11.6413   25.6627 C   0  0  0  0  0  0  0  0  0  0  0  0
    7.7355  -13.9670   26.4649 C   0  0  0  0  0  0  0  0  0  0  0  0
    8.7688  -14.5570   25.5886 C   0  0  2  0  0  0  0  0  0  0  0  0
    8.0355  -15.4271   24.6089 N   0  0  0  0  0  0  0  0  0  0  0  0
    9.7088  -15.4433   26.2559 C   0  0  0  0  0  0  0  0  0  0  0  0
   10.4889  -14.9513   27.1427 O   0  0  0  0  0  0  0  0  0  0  0  0
    9.8553  -16.8109   26.0395 O   0  0  0  0  0  0  0  0  0  0  0  0
  2  1  1  6
  2  5  1  0
  3  2  1  0
  4  3  1  0
  5  7  1  0
  6  5  2  0
  7  8  1  0
  8  9  1  1
  9 10  1  0
 10 11  2  0
 12 11  1  0
 13 12  1  0
 14 10  1  0
 14 13  2  0
 15 22  1  0
 15  8  1  0
 16 15  2  0
 18 19  1  1
 18 17  1  0
 20 18  1  0
 21 20  1  1
 21 22  1  0
 23 21  1  0
 24 23  2  0
 25 23  1  0
M  END
$$$$
