CHL.pdb
     RDKit          3D

 25 25  0  0  1  0  0  0  0  0999 V2000
    6.7597  -17.5335   19.4258 N   0  0  0  0  0  0  0  0  0  0  0  0
    7.8720  -16.6671   19.7557 C   0  0  1  0  0  0  0  0  0  0  0  0
    7.4584  -15.2315   19.5163 C   0  0  0  0  0  0  0  0  0  0  0  0
    6.2230  -14.6856   20.7293 S   0  0  0  0  0  0  0  0  0  0  0  0
    8.2878  -16.8598   21.1787 C   0  0  0  0  0  0  0  0  0  0  0  0
    7.3730  -17.2000   21.9997 O   0  0  0  0  0  0  0  0  0  0  0  0
    9.6263  -16.6749   21.5959 N   0  0  0  0  0  0  0  0  0  0  0  0
   10.0020  -16.8947   22.9494 C   0  0  1  0  0  0  0  0  0  0  0  0
   11.4441  -17.3676   22.9692 C   0  0  0  0  0  0  0  0  0  0  0  0
   11.5973  -18.7349   23.5118 C   0  0  0  0  0  0  0  0  0  0  0  0
   10.5889  -19.4353   24.1683 C   0  0  0  0  0  0  0  0  0  0  0  0
   11.1045  -20.6306   24.5098 N   0  0  0  0  0  0  0  0  0  0  0  0
   12.3915  -20.6836   24.0847 C   0  0  0  0  0  0  0  0  0  0  0  0
   12.6785  -19.5301   23.4820 N   0  0  0  0  0  0  0  0  0  0  0  0
    9.7918  -15.7197   23.8196 C   0  0  0  0  0  0  0  0  0  0  0  0
   10.0218  -14.5865   23.3381 O   0  0  0  0  0  0  0  0  0  0  0  0
    6.0792  -12.6094   26.6964 C   0  0  0  0  0  0  0  0  0  0  0  0
    7.4547  -12.6770   26.1212 C   0  0  1  0  0  0  0  0  0  0  0  0
    8.3875  -12.1142   27.2063 C   0  0  0  0  0  0  0  0  0  0  0  0
    7.8867  -13.9843   25.6396 C   0  0  0  0  0  0  0  0  0  0  0  0
    9.1955  -14.5675   26.0009 C   0  0  2  0  0  0  0  0  0  0  0  0
    9.3493  -15.7988   25.1553 N   0  0  0  0  0  0  0  0  0  0  0  0
    9.3041  -15.0327   27.3743 C   0  0  0  0  0  0  0  0  0  0  0  0
   10.0401  -14.3732   28.1867 O   0  0  0  0  0  0  0  0  0  0  0  0
    8.6716  -16.1439   27.9256 O   0  0  0  0  0  0  0  0  0  0  0  0
  2  1  1  1
  2  5  1  0
  3  2  1  0
  4  3  1  0
  5  7  1  0
  6  5  2  0
  7  8  1  0
  8  9  1  6
  9 10  1  0
 10 11  2  0
 12 11  1  0
 13 12  1  0
 14 10  1  0
 14 13  2  0
 15 22  1  0
 15  8  1  0
 16 15  2  0
 18 19  1  1
 18 17  1  0
 20 18  1  0
 21 20  1  1
 21 22  1  0
 23 21  1  0
 24 23  2  0
 25 23  1  0
M  END
$$$$
