CHL.pdb
     RDKit          3D

 25 25  0  0  1  0  0  0  0  0999 V2000
    7.5076  -14.1081   18.5338 N   0  0  0  0  0  0  0  0  0  0  0  0
    8.6897  -14.1749   19.3675 C   0  0  1  0  0  0  0  0  0  0  0  0
    9.0776  -12.7705   19.7754 C   0  0  0  0  0  0  0  0  0  0  0  0
    7.7851  -11.9912   20.7842 S   0  0  0  0  0  0  0  0  0  0  0  0
    8.4368  -15.0180   20.5759 C   0  0  0  0  0  0  0  0  0  0  0  0
    7.2168  -15.2005   20.8996 O   0  0  0  0  0  0  0  0  0  0  0  0
    9.4945  -15.5854   21.3237 N   0  0  0  0  0  0  0  0  0  0  0  0
    9.2266  -16.4061   22.4533 C   0  0  1  0  0  0  0  0  0  0  0  0
   10.0848  -17.6534   22.3461 C   0  0  0  0  0  0  0  0  0  0  0  0
    9.4946  -18.6882   21.4695 C   0  0  0  0  0  0  0  0  0  0  0  0
    9.1951  -18.4974   20.1234 C   0  0  0  0  0  0  0  0  0  0  0  0
    8.6781  -19.6552   19.6721 N   0  0  0  0  0  0  0  0  0  0  0  0
    8.6519  -20.5449   20.6957 C   0  0  0  0  0  0  0  0  0  0  0  0
    9.1487  -19.9479   21.7787 N   0  0  0  0  0  0  0  0  0  0  0  0
    9.4136  -15.7138   23.7448 C   0  0  0  0  0  0  0  0  0  0  0  0
   10.4610  -15.0458   23.9042 O   0  0  0  0  0  0  0  0  0  0  0  0
    5.5879  -12.8631   26.4716 C   0  0  0  0  0  0  0  0  0  0  0  0
    6.9470  -13.2647   26.0040 C   0  0  1  0  0  0  0  0  0  0  0  0
    7.8582  -12.0595   26.2894 C   0  0  0  0  0  0  0  0  0  0  0  0
    7.4767  -14.5059   26.5576 C   0  0  0  0  0  0  0  0  0  0  0  0
    8.7630  -15.0838   26.1156 C   0  0  2  0  0  0  0  0  0  0  0  0
    8.4856  -15.7609   24.8044 N   0  0  0  0  0  0  0  0  0  0  0  0
    9.2976  -16.1263   26.9769 C   0  0  0  0  0  0  0  0  0  0  0  0
    9.0045  -17.3442   26.7167 O   0  0  0  0  0  0  0  0  0  0  0  0
   10.1252  -15.9453   28.0819 O   0  0  0  0  0  0  0  0  0  0  0  0
  2  1  1  6
  2  5  1  0
  3  2  1  0
  4  3  1  0
  5  7  1  0
  6  5  2  0
  7  8  1  0
  8  9  1  1
  9 10  1  0
 10 11  2  0
 12 11  1  0
 13 12  1  0
 14 10  1  0
 14 13  2  0
 15 22  1  0
 15  8  1  0
 16 15  2  0
 18 19  1  1
 18 17  1  0
 20 18  1  0
 21 20  1  1
 21 22  1  0
 23 21  1  0
 24 23  2  0
 25 23  1  0
M  END
$$$$
