CHL.pdb
     RDKit          3D

 25 25  0  0  1  0  0  0  0  0999 V2000
    7.3661  -14.0407   18.5541 N   0  0  0  0  0  0  0  0  0  0  0  0
    8.5900  -14.1949   19.3124 C   0  0  1  0  0  0  0  0  0  0  0  0
    9.2042  -12.8292   19.5284 C   0  0  0  0  0  0  0  0  0  0  0  0
    8.1866  -11.8111   20.6346 S   0  0  0  0  0  0  0  0  0  0  0  0
    8.3184  -14.8581   20.6245 C   0  0  0  0  0  0  0  0  0  0  0  0
    7.1164  -14.8142   21.0484 O   0  0  0  0  0  0  0  0  0  0  0  0
    9.3403  -15.5020   21.3600 N   0  0  0  0  0  0  0  0  0  0  0  0
    9.0289  -16.2767   22.5107 C   0  0  1  0  0  0  0  0  0  0  0  0
    9.7596  -17.6025   22.4004 C   0  0  0  0  0  0  0  0  0  0  0  0
    9.0857  -18.5614   21.4983 C   0  0  0  0  0  0  0  0  0  0  0  0
    7.9157  -18.2869   20.7955 C   0  0  0  0  0  0  0  0  0  0  0  0
    7.6162  -19.3941   20.0914 N   0  0  0  0  0  0  0  0  0  0  0  0
    8.5622  -20.3338   20.3403 C   0  0  0  0  0  0  0  0  0  0  0  0
    9.4466  -19.8179   21.1935 N   0  0  0  0  0  0  0  0  0  0  0  0
    9.3202  -15.5873   23.7843 C   0  0  0  0  0  0  0  0  0  0  0  0
   10.4589  -15.0868   23.9313 O   0  0  0  0  0  0  0  0  0  0  0  0
    5.6662  -12.4674   26.5150 C   0  0  0  0  0  0  0  0  0  0  0  0
    6.9533  -12.9701   25.9511 C   0  0  1  0  0  0  0  0  0  0  0  0
    7.9024  -11.7604   25.9378 C   0  0  0  0  0  0  0  0  0  0  0  0
    7.5380  -14.1286   26.6170 C   0  0  0  0  0  0  0  0  0  0  0  0
    8.7685  -14.7848   26.1278 C   0  0  2  0  0  0  0  0  0  0  0  0
    8.3952  -15.4602   24.8398 N   0  0  0  0  0  0  0  0  0  0  0  0
    9.2804  -15.8460   26.9799 C   0  0  0  0  0  0  0  0  0  0  0  0
    9.7789  -15.5314   28.1155 O   0  0  0  0  0  0  0  0  0  0  0  0
    9.2821  -17.2091   26.6960 O   0  0  0  0  0  0  0  0  0  0  0  0
  2  1  1  1
  2  5  1  0
  3  2  1  0
  4  3  1  0
  5  7  1  0
  6  5  2  0
  7  8  1  0
  8  9  1  6
  9 10  1  0
 10 11  2  0
 12 11  1  0
 13 12  1  0
 14 10  1  0
 14 13  2  0
 15 22  1  0
 15  8  1  0
 16 15  2  0
 18 19  1  1
 18 17  1  0
 20 18  1  0
 21 20  1  1
 21 22  1  0
 23 21  1  0
 24 23  2  0
 25 23  1  0
M  END
$$$$
