VGC.pdb
     RDKit          3D

 18 17  0  0  1  0  0  0  0  0999 V2000
   17.2399  -14.1478  -17.1775 C   0  0  0  0  0  0  0  0  0  0  0  0
   17.2723  -12.9630  -16.2369 C   0  0  1  0  0  0  0  0  0  0  0  0
   17.9657  -13.4316  -14.9688 C   0  0  0  0  0  0  0  0  0  0  0  0
   17.9892  -11.7874  -16.8631 C   0  0  2  0  0  0  0  0  0  0  0  0
   19.2956  -12.2129  -17.2720 N   0  0  0  0  0  0  0  0  0  0  0  0
   18.0407  -10.6316  -15.9267 C   0  0  0  0  0  0  0  0  0  0  0  0
   16.9863  -10.0216  -15.6300 O   0  0  0  0  0  0  0  0  0  0  0  0
   19.2741  -10.2104  -15.3637 N   0  0  0  0  0  0  0  0  0  0  0  0
   19.4363   -9.1084  -14.4851 C   0  0  0  0  0  0  0  0  0  0  0  0
   20.4303   -8.0966  -14.8839 C   0  0  0  0  0  0  0  0  0  0  0  0
   21.3795   -8.4649  -15.6636 O   0  0  0  0  0  0  0  0  0  0  0  0
   20.4378   -6.7362  -14.4858 N   0  0  0  0  0  0  0  0  0  0  0  0
   21.3796   -5.7375  -14.9054 C   0  0  1  0  0  0  0  0  0  0  0  0
   20.8203   -4.5921  -15.6648 C   0  0  0  0  0  0  0  0  0  0  0  0
   19.6423   -5.2855  -16.8897 S   0  0  0  0  0  0  0  0  0  0  0  0
   22.2989   -5.2821  -13.8051 C   0  0  0  0  0  0  0  0  0  0  0  0
   23.4681   -4.6422  -14.1399 O   0  0  0  0  0  0  0  0  0  0  0  0
   22.0326   -5.4638  -12.6075 O   0  0  0  0  0  0  0  0  0  0  0  0
  2  1  1  6
  2  3  1  0
  4  2  1  0
  4  5  1  1
  6  7  2  0
  6  4  1  0
  8  6  1  0
  9  8  1  0
  9 10  1  0
 10 12  1  0
 11 10  2  0
 12 13  1  0
 13 14  1  1
 13 16  1  0
 14 15  1  0
 16 18  2  0
 16 17  1  0
M  END
$$$$
