VGC.pdb
     RDKit          3D

 18 17  0  0  1  0  0  0  0  0999 V2000
   18.9439  -11.5991  -21.3425 C   0  0  0  0  0  0  0  0  0  0  0  0
   19.3530  -11.0690  -19.9856 C   0  0  1  0  0  0  0  0  0  0  0  0
   18.0699  -10.7644  -19.2312 C   0  0  0  0  0  0  0  0  0  0  0  0
   20.2123  -12.0692  -19.2443 C   0  0  2  0  0  0  0  0  0  0  0  0
   19.5835  -13.3553  -19.3171 N   0  0  0  0  0  0  0  0  0  0  0  0
   20.4473  -11.6357  -17.8400 C   0  0  0  0  0  0  0  0  0  0  0  0
   19.6839  -12.0332  -16.9284 O   0  0  0  0  0  0  0  0  0  0  0  0
   21.5295  -10.7745  -17.5197 N   0  0  0  0  0  0  0  0  0  0  0  0
   21.7997  -10.2480  -16.2303 C   0  0  0  0  0  0  0  0  0  0  0  0
   20.8983   -9.1823  -15.7584 C   0  0  0  0  0  0  0  0  0  0  0  0
   20.0267   -8.7274  -16.5820 O   0  0  0  0  0  0  0  0  0  0  0  0
   20.8992   -8.6050  -14.4639 N   0  0  0  0  0  0  0  0  0  0  0  0
   20.0559   -7.5336  -14.0152 C   0  0  1  0  0  0  0  0  0  0  0  0
   19.6097   -7.6032  -12.6019 C   0  0  0  0  0  0  0  0  0  0  0  0
   18.9680   -9.3005  -12.3257 S   0  0  0  0  0  0  0  0  0  0  0  0
   20.5832   -6.1694  -14.3674 C   0  0  0  0  0  0  0  0  0  0  0  0
   19.7434   -5.0864  -14.2633 O   0  0  0  0  0  0  0  0  0  0  0  0
   21.7511   -5.9926  -14.7455 O   0  0  0  0  0  0  0  0  0  0  0  0
  2  1  1  6
  2  3  1  0
  4  2  1  0
  4  5  1  1
  6  7  2  0
  6  4  1  0
  8  6  1  0
  9  8  1  0
  9 10  1  0
 10 12  1  0
 11 10  2  0
 12 13  1  0
 13 14  1  1
 13 16  1  0
 14 15  1  0
 16 18  2  0
 16 17  1  0
M  END
$$$$
