VGC.pdb
     RDKit          3D

 18 17  0  0  1  0  0  0  0  0999 V2000
   21.3278  -18.5857  -14.4553 C   0  0  0  0  0  0  0  0  0  0  0  0
   21.0233  -19.3374  -13.1779 C   0  0  1  0  0  0  0  0  0  0  0  0
   19.8961  -20.3043  -13.4988 C   0  0  0  0  0  0  0  0  0  0  0  0
   22.2487  -20.0597  -12.6633 C   0  0  2  0  0  0  0  0  0  0  0  0
   22.7844  -20.8636  -13.7224 N   0  0  0  0  0  0  0  0  0  0  0  0
   21.9268  -20.8641  -11.4530 C   0  0  0  0  0  0  0  0  0  0  0  0
   21.5460  -22.0521  -11.5768 O   0  0  0  0  0  0  0  0  0  0  0  0
   22.0465  -20.2998  -10.1559 N   0  0  0  0  0  0  0  0  0  0  0  0
   21.8141  -20.9926   -8.9398 C   0  0  0  0  0  0  0  0  0  0  0  0
   20.5027  -21.6504   -8.8037 C   0  0  0  0  0  0  0  0  0  0  0  0
   19.4955  -21.1016   -9.3772 O   0  0  0  0  0  0  0  0  0  0  0  0
   20.2434  -22.8489   -8.0928 N   0  0  0  0  0  0  0  0  0  0  0  0
   18.9784  -23.5210   -8.0013 C   0  0  1  0  0  0  0  0  0  0  0  0
   18.6744  -24.4886   -9.0843 C   0  0  0  0  0  0  0  0  0  0  0  0
   16.8847  -24.8788   -8.9671 S   0  0  0  0  0  0  0  0  0  0  0  0
   18.7069  -24.1028   -6.6408 C   0  0  0  0  0  0  0  0  0  0  0  0
   19.7494  -24.2328   -5.7548 O   0  0  0  0  0  0  0  0  0  0  0  0
   17.5724  -24.4652   -6.2944 O   0  0  0  0  0  0  0  0  0  0  0  0
  2  1  1  6
  2  3  1  0
  4  2  1  0
  4  5  1  6
  6  7  2  0
  6  4  1  0
  8  6  1  0
  9  8  1  0
  9 10  1  0
 10 12  1  0
 11 10  2  0
 12 13  1  0
 13 14  1  6
 13 16  1  0
 14 15  1  0
 16 18  2  0
 16 17  1  0
M  END
$$$$
