VGC.pdb
     RDKit          3D

 18 17  0  0  1  0  0  0  0  0999 V2000
   18.0168  -12.1747  -20.3395 C   0  0  0  0  0  0  0  0  0  0  0  0
   17.6077  -11.3679  -19.1265 C   0  0  1  0  0  0  0  0  0  0  0  0
   17.3084  -12.3652  -18.0201 C   0  0  0  0  0  0  0  0  0  0  0  0
   18.6954  -10.3970  -18.7235 C   0  0  2  0  0  0  0  0  0  0  0  0
   19.9070  -11.1317  -18.5061 N   0  0  0  0  0  0  0  0  0  0  0  0
   18.2924   -9.6085  -17.5272 C   0  0  0  0  0  0  0  0  0  0  0  0
   17.3710   -8.7632  -17.6186 O   0  0  0  0  0  0  0  0  0  0  0  0
   18.9415   -9.8031  -16.2797 N   0  0  0  0  0  0  0  0  0  0  0  0
   18.6089   -9.1344  -15.0734 C   0  0  0  0  0  0  0  0  0  0  0  0
   19.1483   -7.7728  -14.9120 C   0  0  0  0  0  0  0  0  0  0  0  0
   18.3818   -6.7868  -15.2035 O   0  0  0  0  0  0  0  0  0  0  0  0
   20.4494   -7.4424  -14.4569 N   0  0  0  0  0  0  0  0  0  0  0  0
   20.9648   -6.1175  -14.2586 C   0  0  1  0  0  0  0  0  0  0  0  0
   22.0143   -5.9749  -13.2196 C   0  0  0  0  0  0  0  0  0  0  0  0
   21.5737   -7.1179  -11.8527 S   0  0  0  0  0  0  0  0  0  0  0  0
   21.3496   -5.4273  -15.5388 C   0  0  0  0  0  0  0  0  0  0  0  0
   21.6601   -4.0890  -15.5035 O   0  0  0  0  0  0  0  0  0  0  0  0
   21.3975   -6.0290  -16.6223 O   0  0  0  0  0  0  0  0  0  0  0  0
  2  1  1  6
  2  3  1  0
  4  2  1  0
  4  5  1  1
  6  7  2  0
  6  4  1  0
  8  6  1  0
  9  8  1  0
  9 10  1  0
 10 12  1  0
 11 10  2  0
 12 13  1  0
 13 14  1  1
 13 16  1  0
 14 15  1  0
 16 18  2  0
 16 17  1  0
M  END
$$$$
