SIM.pdb
     RDKit          3D

 23 22  0  0  1  0  0  0  0  0999 V2000
    8.1065  -20.6376   20.2022 O   0  0  0  0  0  0  0  0  0  0  0  0
    7.3418  -19.6236   20.7401 C   0  0  0  0  0  0  0  0  0  0  0  0
    7.2829  -18.4519   19.7778 C   0  0  2  0  0  0  0  0  0  0  0  0
    7.6136  -18.8239   18.4399 N   0  0  0  0  0  0  0  0  0  0  0  0
    8.1811  -17.3973   20.3240 C   0  0  0  0  0  0  0  0  0  0  0  0
    9.3958  -17.4970   20.0073 O   0  0  0  0  0  0  0  0  0  0  0  0
    6.8601  -12.3399   19.4934 C   0  0  0  0  0  0  0  0  0  0  0  0
    7.8053  -13.5519   19.6300 C   0  0  0  0  0  0  0  0  0  0  0  0
    7.7559  -13.9110   21.0918 C   0  0  2  0  0  0  0  0  0  0  0  0
    8.3814  -12.7351   21.8434 C   0  0  0  0  0  0  0  0  0  0  0  0
    8.4921  -15.1764   21.4247 C   0  0  2  0  0  0  0  0  0  0  0  0
    7.7146  -16.3459   21.1462 N   0  0  0  0  0  0  0  0  0  0  0  0
    9.0570  -15.2316   22.7715 C   0  0  0  0  0  0  0  0  0  0  0  0
    9.8696  -14.3791   23.1957 O   0  0  0  0  0  0  0  0  0  0  0  0
    7.2675  -11.5781   27.3029 C   0  0  0  0  0  0  0  0  0  0  0  0
    6.1303  -12.7635   26.5411 S   0  0  0  0  0  0  0  0  0  0  0  0
    6.7446  -14.3965   26.3662 C   0  0  0  0  0  0  0  0  0  0  0  0
    7.2891  -14.9281   25.1308 C   0  0  0  0  0  0  0  0  0  0  0  0
    8.2808  -15.9896   25.0500 C   0  0  2  0  0  0  0  0  0  0  0  0
    8.7028  -16.2750   23.6774 N   0  0  0  0  0  0  0  0  0  0  0  0
    8.0269  -17.2359   25.7714 C   0  0  0  0  0  0  0  0  0  0  0  0
    7.5185  -18.2936   25.3890 O   0  0  0  0  0  0  0  0  0  0  0  0
    8.4133  -17.2955   27.1593 O   0  0  0  0  0  0  0  0  0  0  0  0
  2  1  1  0
  3  4  1  6
  3  2  1  0
  5  3  1  0
  6  5  2  0
  8  7  1  0
  9  8  1  0
  9 11  1  0
  9 10  1  1
 11 13  1  0
 11 12  1  1
 12  5  1  0
 13 20  1  0
 14 13  2  0
 15 16  1  0
 17 16  1  0
 18 17  1  0
 19 18  1  6
 19 21  1  0
 20 19  1  0
 21 22  2  0
 21 23  1  0
M  END
$$$$
