SIM.pdb
     RDKit          3D

 23 22  0  0  1  0  0  0  0  0999 V2000
    7.2205  -18.2245   20.8316 O   0  0  0  0  0  0  0  0  0  0  0  0
    7.9169  -17.5243   21.7944 C   0  0  0  0  0  0  0  0  0  0  0  0
    7.9322  -16.0463   21.4516 C   0  0  2  0  0  0  0  0  0  0  0  0
    8.6523  -15.7694   20.2505 N   0  0  0  0  0  0  0  0  0  0  0  0
    8.4856  -15.3326   22.6356 C   0  0  0  0  0  0  0  0  0  0  0  0
    9.7420  -15.2977   22.7139 O   0  0  0  0  0  0  0  0  0  0  0  0
    6.8327  -11.1991   26.8229 C   0  0  0  0  0  0  0  0  0  0  0  0
    7.8954  -12.2613   26.4717 C   0  0  0  0  0  0  0  0  0  0  0  0
    7.2915  -13.0433   25.3350 C   0  0  2  0  0  0  0  0  0  0  0  0
    6.0085  -13.6715   25.8809 C   0  0  0  0  0  0  0  0  0  0  0  0
    8.1941  -14.1161   24.7979 C   0  0  2  0  0  0  0  0  0  0  0  0
    7.6659  -14.7286   23.6164 N   0  0  0  0  0  0  0  0  0  0  0  0
    8.6081  -15.1253   25.7705 C   0  0  0  0  0  0  0  0  0  0  0  0
    7.8997  -16.1180   26.0531 O   0  0  0  0  0  0  0  0  0  0  0  0
   14.3427  -19.9212   27.9546 C   0  0  0  0  0  0  0  0  0  0  0  0
   13.7857  -18.4512   27.0561 S   0  0  0  0  0  0  0  0  0  0  0  0
   12.2407  -17.7947   27.5629 C   0  0  0  0  0  0  0  0  0  0  0  0
   11.5752  -16.6885   26.9005 C   0  0  0  0  0  0  0  0  0  0  0  0
   10.3313  -16.0806   27.3475 C   0  0  2  0  0  0  0  0  0  0  0  0
    9.8570  -15.0236   26.4524 N   0  0  0  0  0  0  0  0  0  0  0  0
   10.2290  -15.6483   28.7407 C   0  0  0  0  0  0  0  0  0  0  0  0
   10.2712  -16.3014   29.7872 O   0  0  0  0  0  0  0  0  0  0  0  0
   10.0486  -14.2401   28.9920 O   0  0  0  0  0  0  0  0  0  0  0  0
  2  1  1  0
  3  4  1  6
  3  2  1  0
  5  3  1  0
  6  5  2  0
  8  7  1  0
  9  8  1  0
  9 11  1  0
  9 10  1  1
 11 13  1  0
 11 12  1  6
 12  5  1  0
 13 20  1  0
 14 13  2  0
 15 16  1  0
 17 16  1  0
 18 17  1  0
 19 18  1  6
 19 21  1  0
 20 19  1  0
 21 22  2  0
 21 23  1  0
M  END
$$$$
