SIM.pdb
     RDKit          3D

 23 22  0  0  1  0  0  0  0  0999 V2000
   11.4702  -13.4629   18.5486 O   0  0  0  0  0  0  0  0  0  0  0  0
   10.4752  -13.4084   19.5022 C   0  0  0  0  0  0  0  0  0  0  0  0
    9.1918  -13.9975   18.9471 C   0  0  2  0  0  0  0  0  0  0  0  0
    8.4625  -13.0671   18.1469 N   0  0  0  0  0  0  0  0  0  0  0  0
    8.4079  -14.5004   20.1090 C   0  0  0  0  0  0  0  0  0  0  0  0
    7.6192  -13.6717   20.6352 O   0  0  0  0  0  0  0  0  0  0  0  0
    6.4195  -19.5739   20.1879 C   0  0  0  0  0  0  0  0  0  0  0  0
    6.5269  -18.0366   20.2656 C   0  0  0  0  0  0  0  0  0  0  0  0
    7.3748  -17.7748   21.4825 C   0  0  2  0  0  0  0  0  0  0  0  0
    6.5675  -18.2720   22.6825 C   0  0  0  0  0  0  0  0  0  0  0  0
    7.7251  -16.3270   21.6703 C   0  0  2  0  0  0  0  0  0  0  0  0
    8.5307  -15.8203   20.6006 N   0  0  0  0  0  0  0  0  0  0  0  0
    8.3068  -15.9910   22.9683 C   0  0  0  0  0  0  0  0  0  0  0  0
    9.5109  -16.1990   23.2402 O   0  0  0  0  0  0  0  0  0  0  0  0
    6.4912  -10.4398   26.3623 C   0  0  0  0  0  0  0  0  0  0  0  0
    6.9761  -11.6448   27.6238 S   0  0  0  0  0  0  0  0  0  0  0  0
    7.7765  -13.0859   27.0259 C   0  0  0  0  0  0  0  0  0  0  0  0
    7.4513  -13.7284   25.7663 C   0  0  0  0  0  0  0  0  0  0  0  0
    8.1183  -14.9100   25.2409 C   0  0  2  0  0  0  0  0  0  0  0  0
    7.5170  -15.4019   23.9999 N   0  0  0  0  0  0  0  0  0  0  0  0
    8.3827  -16.0229   26.1517 C   0  0  0  0  0  0  0  0  0  0  0  0
    7.8326  -17.1232   26.2530 O   0  0  0  0  0  0  0  0  0  0  0  0
    9.4491  -15.8643   27.1091 O   0  0  0  0  0  0  0  0  0  0  0  0
  2  1  1  0
  3  4  1  1
  3  2  1  0
  5  3  1  0
  6  5  2  0
  8  7  1  0
  9  8  1  0
  9 11  1  0
  9 10  1  1
 11 13  1  0
 11 12  1  6
 12  5  1  0
 13 20  1  0
 14 13  2  0
 15 16  1  0
 17 16  1  0
 18 17  1  0
 19 18  1  1
 19 21  1  0
 20 19  1  0
 21 22  2  0
 21 23  1  0
M  END
$$$$
