SIM.pdb
     RDKit          3D

 23 22  0  0  1  0  0  0  0  0999 V2000
    6.4686  -20.6413   24.1360 O   0  0  0  0  0  0  0  0  0  0  0  0
    6.7526  -19.3163   23.8791 C   0  0  0  0  0  0  0  0  0  0  0  0
    6.4424  -18.9907   22.4300 C   0  0  2  0  0  0  0  0  0  0  0  0
    6.4546  -20.1473   21.5934 N   0  0  0  0  0  0  0  0  0  0  0  0
    7.4217  -17.9548   21.9995 C   0  0  0  0  0  0  0  0  0  0  0  0
    8.4694  -18.3882   21.4516 O   0  0  0  0  0  0  0  0  0  0  0  0
    7.6674  -12.0975   20.3883 C   0  0  0  0  0  0  0  0  0  0  0  0
    8.5311  -13.3003   20.8222 C   0  0  0  0  0  0  0  0  0  0  0  0
    7.5371  -14.3566   21.2280 C   0  0  2  0  0  0  0  0  0  0  0  0
    6.6065  -13.6998   22.2485 C   0  0  0  0  0  0  0  0  0  0  0  0
    8.1704  -15.5776   21.8297 C   0  0  2  0  0  0  0  0  0  0  0  0
    7.2029  -16.5707   22.1871 N   0  0  0  0  0  0  0  0  0  0  0  0
    9.0899  -15.3204   22.9362 C   0  0  0  0  0  0  0  0  0  0  0  0
    9.2949  -14.1708   23.3874 O   0  0  0  0  0  0  0  0  0  0  0  0
    9.9345  -12.5634   28.6025 C   0  0  0  0  0  0  0  0  0  0  0  0
    9.4146  -14.2799   28.3534 S   0  0  0  0  0  0  0  0  0  0  0  0
   10.3195  -15.1777   27.1493 C   0  0  0  0  0  0  0  0  0  0  0  0
    9.8380  -15.4419   25.8063 C   0  0  0  0  0  0  0  0  0  0  0  0
   10.5777  -16.1721   24.7882 C   0  0  2  0  0  0  0  0  0  0  0  0
    9.8064  -16.3835   23.5619 N   0  0  0  0  0  0  0  0  0  0  0  0
   11.2623  -17.4050   25.1749 C   0  0  0  0  0  0  0  0  0  0  0  0
   12.1123  -17.6098   26.0462 O   0  0  0  0  0  0  0  0  0  0  0  0
   10.9291  -18.6087   24.4546 O   0  0  0  0  0  0  0  0  0  0  0  0
  2  1  1  0
  3  4  1  6
  3  2  1  0
  5  3  1  0
  6  5  2  0
  8  7  1  0
  9  8  1  0
  9 11  1  0
  9 10  1  1
 11 13  1  0
 11 12  1  1
 12  5  1  0
 13 20  1  0
 14 13  2  0
 15 16  1  0
 17 16  1  0
 18 17  1  0
 19 18  1  1
 19 21  1  0
 20 19  1  0
 21 22  2  0
 21 23  1  0
M  END
$$$$
