SIM.pdb
     RDKit          3D

 23 22  0  0  1  0  0  0  0  0999 V2000
    9.4130  -18.4926   21.5574 O   0  0  0  0  0  0  0  0  0  0  0  0
    9.9572  -17.6743   20.5896 C   0  0  0  0  0  0  0  0  0  0  0  0
    9.2933  -16.3106   20.6299 C   0  0  2  0  0  0  0  0  0  0  0  0
    9.7556  -15.4447   19.5934 N   0  0  0  0  0  0  0  0  0  0  0  0
    9.5243  -15.7564   21.9927 C   0  0  0  0  0  0  0  0  0  0  0  0
   10.6820  -15.3123   22.2124 O   0  0  0  0  0  0  0  0  0  0  0  0
    6.5457  -12.8045   26.2831 C   0  0  0  0  0  0  0  0  0  0  0  0
    7.8689  -13.5388   25.9818 C   0  0  0  0  0  0  0  0  0  0  0  0
    7.5528  -14.4276   24.8078 C   0  0  2  0  0  0  0  0  0  0  0  0
    6.4765  -15.4030   25.2862 C   0  0  0  0  0  0  0  0  0  0  0  0
    8.7397  -15.1915   24.2961 C   0  0  2  0  0  0  0  0  0  0  0  0
    8.5184  -15.7244   22.9857 N   0  0  0  0  0  0  0  0  0  0  0  0
    9.2547  -16.2188   25.1991 C   0  0  0  0  0  0  0  0  0  0  0  0
    8.8146  -17.3907   25.2058 O   0  0  0  0  0  0  0  0  0  0  0  0
   10.0359  -12.5169   28.2820 C   0  0  0  0  0  0  0  0  0  0  0  0
   10.5199  -13.9379   29.2945 S   0  0  0  0  0  0  0  0  0  0  0  0
   11.6374  -15.0591   28.5404 C   0  0  0  0  0  0  0  0  0  0  0  0
   11.3283  -16.4508   28.2703 C   0  0  0  0  0  0  0  0  0  0  0  0
   10.8694  -16.9654   26.9891 C   0  0  2  0  0  0  0  0  0  0  0  0
   10.2980  -15.9286   26.1277 N   0  0  0  0  0  0  0  0  0  0  0  0
   10.0201  -18.1557   26.9809 C   0  0  0  0  0  0  0  0  0  0  0  0
    8.8173  -18.2833   27.2268 O   0  0  0  0  0  0  0  0  0  0  0  0
   10.6353  -19.4134   26.6363 O   0  0  0  0  0  0  0  0  0  0  0  0
  2  1  1  0
  3  4  1  6
  3  2  1  0
  5  3  1  0
  6  5  2  0
  8  7  1  0
  9  8  1  0
  9 11  1  0
  9 10  1  1
 11 13  1  0
 11 12  1  6
 12  5  1  0
 13 20  1  0
 14 13  2  0
 15 16  1  0
 17 16  1  0
 18 17  1  0
 19 18  1  1
 19 21  1  0
 20 19  1  0
 21 22  2  0
 21 23  1  0
M  END
$$$$
