SIM.pdb
     RDKit          3D

 23 22  0  0  1  0  0  0  0  0999 V2000
    7.5799  -20.5707   20.9684 O   0  0  0  0  0  0  0  0  0  0  0  0
    7.4399  -19.2244   21.2335 C   0  0  0  0  0  0  0  0  0  0  0  0
    7.9191  -18.4094   20.0467 C   0  0  2  0  0  0  0  0  0  0  0  0
    8.8563  -19.1190   19.2368 N   0  0  0  0  0  0  0  0  0  0  0  0
    8.4702  -17.1369   20.5893 C   0  0  0  0  0  0  0  0  0  0  0  0
    9.7254  -17.0760   20.6699 O   0  0  0  0  0  0  0  0  0  0  0  0
    7.0974  -12.3880   18.8271 C   0  0  0  0  0  0  0  0  0  0  0  0
    7.8390  -13.6410   19.3379 C   0  0  0  0  0  0  0  0  0  0  0  0
    7.6270  -13.6280   20.8290 C   0  0  2  0  0  0  0  0  0  0  0  0
    8.3235  -12.3700   21.3499 C   0  0  0  0  0  0  0  0  0  0  0  0
    8.1781  -14.8389   21.5246 C   0  0  2  0  0  0  0  0  0  0  0  0
    7.6495  -16.0583   20.9920 N   0  0  0  0  0  0  0  0  0  0  0  0
    8.0789  -14.8179   22.9826 C   0  0  0  0  0  0  0  0  0  0  0  0
    7.2866  -14.0644   23.5922 O   0  0  0  0  0  0  0  0  0  0  0  0
    6.0556  -11.7651   26.8946 C   0  0  0  0  0  0  0  0  0  0  0  0
    7.2133  -13.0021   26.2558 S   0  0  0  0  0  0  0  0  0  0  0  0
    6.6121  -14.6487   26.2093 C   0  0  0  0  0  0  0  0  0  0  0  0
    7.3662  -15.7708   25.6826 C   0  0  0  0  0  0  0  0  0  0  0  0
    8.7527  -15.7072   25.2462 C   0  0  2  0  0  0  0  0  0  0  0  0
    8.8925  -15.6676   23.7893 N   0  0  0  0  0  0  0  0  0  0  0  0
    9.7077  -16.6535   25.8212 C   0  0  0  0  0  0  0  0  0  0  0  0
   10.3499  -17.5650   25.2919 O   0  0  0  0  0  0  0  0  0  0  0  0
    9.9823  -16.5513   27.2330 O   0  0  0  0  0  0  0  0  0  0  0  0
  2  1  1  0
  3  4  1  1
  3  2  1  0
  5  3  1  0
  6  5  2  0
  8  7  1  0
  9  8  1  0
  9 11  1  0
  9 10  1  1
 11 13  1  0
 11 12  1  6
 12  5  1  0
 13 20  1  0
 14 13  2  0
 15 16  1  0
 17 16  1  0
 18 17  1  0
 19 18  1  6
 19 21  1  0
 20 19  1  0
 21 22  2  0
 21 23  1  0
M  END
$$$$
