SIM.pdb
     RDKit          3D

 23 22  0  0  1  0  0  0  0  0999 V2000
   10.6628  -19.5523   20.7542 O   0  0  0  0  0  0  0  0  0  0  0  0
   11.7048  -19.0855   19.9805 C   0  0  0  0  0  0  0  0  0  0  0  0
   11.3175  -17.7723   19.3264 C   0  0  2  0  0  0  0  0  0  0  0  0
   12.3550  -17.2442   18.5002 N   0  0  0  0  0  0  0  0  0  0  0  0
   10.9203  -16.8438   20.4208 C   0  0  0  0  0  0  0  0  0  0  0  0
   11.8669  -16.2636   21.0150 O   0  0  0  0  0  0  0  0  0  0  0  0
    6.6686  -13.4325   19.9825 C   0  0  0  0  0  0  0  0  0  0  0  0
    8.0843  -13.9922   20.2343 C   0  0  0  0  0  0  0  0  0  0  0  0
    7.9196  -14.9372   21.3955 C   0  0  2  0  0  0  0  0  0  0  0  0
    7.4405  -14.0886   22.5741 C   0  0  0  0  0  0  0  0  0  0  0  0
    9.1833  -15.6570   21.7680 C   0  0  2  0  0  0  0  0  0  0  0  0
    9.5717  -16.6183   20.7805 N   0  0  0  0  0  0  0  0  0  0  0  0
    9.1922  -16.2471   23.1050 C   0  0  0  0  0  0  0  0  0  0  0  0
    8.9733  -17.4633   23.3052 O   0  0  0  0  0  0  0  0  0  0  0  0
   10.4583  -12.4869   28.7650 C   0  0  0  0  0  0  0  0  0  0  0  0
   10.2415  -14.2044   29.2957 S   0  0  0  0  0  0  0  0  0  0  0  0
   10.1919  -15.3939   28.0084 C   0  0  0  0  0  0  0  0  0  0  0  0
    9.9004  -15.0753   26.6231 C   0  0  0  0  0  0  0  0  0  0  0  0
    9.7036  -16.0587   25.5691 C   0  0  2  0  0  0  0  0  0  0  0  0
    9.4545  -15.4521   24.2601 N   0  0  0  0  0  0  0  0  0  0  0  0
    8.7654  -17.1549   25.8062 C   0  0  0  0  0  0  0  0  0  0  0  0
    8.9227  -18.2324   26.3875 O   0  0  0  0  0  0  0  0  0  0  0  0
    7.4232  -17.0073   25.3006 O   0  0  0  0  0  0  0  0  0  0  0  0
  2  1  1  0
  3  4  1  1
  3  2  1  0
  5  3  1  0
  6  5  2  0
  8  7  1  0
  9  8  1  0
  9 11  1  0
  9 10  1  1
 11 13  1  0
 11 12  1  6
 12  5  1  0
 13 20  1  0
 14 13  2  0
 15 16  1  0
 17 16  1  0
 18 17  1  0
 19 18  1  1
 19 21  1  0
 20 19  1  0
 21 22  2  0
 21 23  1  0
M  END
$$$$
