SIM.pdb
     RDKit          3D

 23 22  0  0  1  0  0  0  0  0999 V2000
   12.9013  -19.0659   20.9683 O   0  0  0  0  0  0  0  0  0  0  0  0
   11.6118  -18.6567   20.7002 C   0  0  0  0  0  0  0  0  0  0  0  0
   11.6146  -17.2208   20.2096 C   0  0  2  0  0  0  0  0  0  0  0  0
   12.9262  -16.7495   19.9005 N   0  0  0  0  0  0  0  0  0  0  0  0
   10.9379  -16.4045   21.2551 C   0  0  0  0  0  0  0  0  0  0  0  0
   11.7006  -15.7941   22.0498 O   0  0  0  0  0  0  0  0  0  0  0  0
    6.6237  -13.2362   20.4624 C   0  0  0  0  0  0  0  0  0  0  0  0
    7.9972  -13.7778   20.9110 C   0  0  0  0  0  0  0  0  0  0  0  0
    7.6741  -14.8404   21.9283 C   0  0  2  0  0  0  0  0  0  0  0  0
    7.0053  -14.1218   23.1009 C   0  0  0  0  0  0  0  0  0  0  0  0
    8.8789  -15.5931   22.4139 C   0  0  2  0  0  0  0  0  0  0  0  0
    9.5311  -16.3112   21.3608 N   0  0  0  0  0  0  0  0  0  0  0  0
    8.6490  -16.4553   23.5713 C   0  0  0  0  0  0  0  0  0  0  0  0
    8.1468  -17.5975   23.4703 O   0  0  0  0  0  0  0  0  0  0  0  0
    9.9795  -12.3930   27.2808 C   0  0  0  0  0  0  0  0  0  0  0  0
   10.3933  -13.8942   28.2048 S   0  0  0  0  0  0  0  0  0  0  0  0
   10.5040  -15.3626   27.2528 C   0  0  0  0  0  0  0  0  0  0  0  0
    9.4883  -16.3987   27.2425 C   0  0  0  0  0  0  0  0  0  0  0  0
    8.8378  -16.9112   26.0463 C   0  0  2  0  0  0  0  0  0  0  0  0
    8.9915  -16.0282   24.8886 N   0  0  0  0  0  0  0  0  0  0  0  0
    7.4546  -17.3742   26.1501 C   0  0  0  0  0  0  0  0  0  0  0  0
    6.4063  -16.8632   25.7460 O   0  0  0  0  0  0  0  0  0  0  0  0
    7.2178  -18.6263   26.8249 O   0  0  0  0  0  0  0  0  0  0  0  0
  2  1  1  0
  3  4  1  1
  3  2  1  0
  5  3  1  0
  6  5  2  0
  8  7  1  0
  9  8  1  0
  9 11  1  0
  9 10  1  1
 11 13  1  0
 11 12  1  6
 12  5  1  0
 13 20  1  0
 14 13  2  0
 15 16  1  0
 17 16  1  0
 18 17  1  0
 19 18  1  1
 19 21  1  0
 20 19  1  0
 21 22  2  0
 21 23  1  0
M  END
$$$$
