SIM.pdb
     RDKit          3D

 23 22  0  0  1  0  0  0  0  0999 V2000
    6.8046  -17.0351   21.7900 O   0  0  0  0  0  0  0  0  0  0  0  0
    7.3056  -16.3198   20.7224 C   0  0  0  0  0  0  0  0  0  0  0  0
    7.1720  -14.8316   20.9866 C   0  0  2  0  0  0  0  0  0  0  0  0
    7.6780  -14.0367   19.9143 N   0  0  0  0  0  0  0  0  0  0  0  0
    7.8546  -14.5585   22.2815 C   0  0  0  0  0  0  0  0  0  0  0  0
    9.1102  -14.4776   22.2303 O   0  0  0  0  0  0  0  0  0  0  0  0
    5.7010  -11.4393   26.2435 C   0  0  0  0  0  0  0  0  0  0  0  0
    6.6451  -12.0397   25.1808 C   0  0  0  0  0  0  0  0  0  0  0  0
    7.0039  -13.4013   25.7154 C   0  0  2  0  0  0  0  0  0  0  0  0
    7.8061  -13.1615   26.9952 C   0  0  0  0  0  0  0  0  0  0  0  0
    7.8108  -14.2291   24.7574 C   0  0  2  0  0  0  0  0  0  0  0  0
    7.1516  -14.3981   23.4977 N   0  0  0  0  0  0  0  0  0  0  0  0
    8.2748  -15.5119   25.2819 C   0  0  0  0  0  0  0  0  0  0  0  0
    7.4897  -16.4391   25.5835 O   0  0  0  0  0  0  0  0  0  0  0  0
   14.6460  -17.8940   24.2698 C   0  0  0  0  0  0  0  0  0  0  0  0
   13.5275  -19.2421   24.7283 S   0  0  0  0  0  0  0  0  0  0  0  0
   12.0460  -18.7565   25.5310 C   0  0  0  0  0  0  0  0  0  0  0  0
   11.3533  -17.5095   25.2657 C   0  0  0  0  0  0  0  0  0  0  0  0
   10.1452  -17.0700   25.9470 C   0  0  2  0  0  0  0  0  0  0  0  0
    9.6642  -15.7696   25.4768 N   0  0  0  0  0  0  0  0  0  0  0  0
   10.1107  -17.1250   27.4078 C   0  0  0  0  0  0  0  0  0  0  0  0
    9.9996  -16.2213   28.2411 O   0  0  0  0  0  0  0  0  0  0  0  0
   10.2204  -18.4208   28.0307 O   0  0  0  0  0  0  0  0  0  0  0  0
  2  1  1  0
  3  4  1  6
  3  2  1  0
  5  3  1  0
  6  5  2  0
  8  7  1  0
  9  8  1  0
  9 11  1  0
  9 10  1  1
 11 13  1  0
 11 12  1  6
 12  5  1  0
 13 20  1  0
 14 13  2  0
 15 16  1  0
 17 16  1  0
 18 17  1  0
 19 18  1  1
 19 21  1  0
 20 19  1  0
 21 22  2  0
 21 23  1  0
M  END
$$$$
