SIM.pdb
     RDKit          3D

 23 22  0  0  1  0  0  0  0  0999 V2000
    8.7442  -18.7250   21.1232 O   0  0  0  0  0  0  0  0  0  0  0  0
    9.7507  -17.8896   20.6857 C   0  0  0  0  0  0  0  0  0  0  0  0
    9.2317  -16.4686   20.5695 C   0  0  2  0  0  0  0  0  0  0  0  0
    9.8323  -15.7519   19.4909 N   0  0  0  0  0  0  0  0  0  0  0  0
    9.4520  -15.8175   21.8906 C   0  0  0  0  0  0  0  0  0  0  0  0
   10.6206  -15.4007   22.1056 O   0  0  0  0  0  0  0  0  0  0  0  0
    6.3208  -12.7162   26.0319 C   0  0  0  0  0  0  0  0  0  0  0  0
    7.6695  -13.4235   25.7839 C   0  0  0  0  0  0  0  0  0  0  0  0
    7.4054  -14.3536   24.6291 C   0  0  2  0  0  0  0  0  0  0  0  0
    6.3990  -15.3886   25.1338 C   0  0  0  0  0  0  0  0  0  0  0  0
    8.6369  -15.0471   24.1227 C   0  0  2  0  0  0  0  0  0  0  0  0
    8.4250  -15.6699   22.8511 N   0  0  0  0  0  0  0  0  0  0  0  0
    9.2590  -15.9763   25.0638 C   0  0  0  0  0  0  0  0  0  0  0  0
    9.0992  -17.2157   24.9905 O   0  0  0  0  0  0  0  0  0  0  0  0
   10.4696  -14.7590   31.2178 C   0  0  0  0  0  0  0  0  0  0  0  0
   10.7530  -13.6160   29.8423 S   0  0  0  0  0  0  0  0  0  0  0  0
   11.3995  -14.3367   28.3803 C   0  0  0  0  0  0  0  0  0  0  0  0
   11.4403  -15.7658   28.1324 C   0  0  0  0  0  0  0  0  0  0  0  0
   10.8118  -16.4300   27.0007 C   0  0  2  0  0  0  0  0  0  0  0  0
   10.0890  -15.5063   26.1245 N   0  0  0  0  0  0  0  0  0  0  0  0
   10.0058  -17.6235   27.2538 C   0  0  0  0  0  0  0  0  0  0  0  0
    8.7958  -17.8187   27.1082 O   0  0  0  0  0  0  0  0  0  0  0  0
   10.6830  -18.7931   27.7563 O   0  0  0  0  0  0  0  0  0  0  0  0
  2  1  1  0
  3  4  1  6
  3  2  1  0
  5  3  1  0
  6  5  2  0
  8  7  1  0
  9  8  1  0
  9 11  1  0
  9 10  1  1
 11 13  1  0
 11 12  1  6
 12  5  1  0
 13 20  1  0
 14 13  2  0
 15 16  1  0
 17 16  1  0
 18 17  1  0
 19 18  1  1
 19 21  1  0
 20 19  1  0
 21 22  2  0
 21 23  1  0
M  END
$$$$
