GRP.pdb
     RDKit          3D

 23 23  0  0  1  0  0  0  0  0999 V2000
   25.8994  -18.3412  -19.4180 N   0  0  0  0  0  0  0  0  0  0  0  0
   24.9293  -17.9093  -18.4405 C   0  0  0  0  0  0  0  0  0  0  0  0
   24.4287  -19.0839  -17.6597 C   0  0  0  0  0  0  0  0  0  0  0  0
   24.6394  -20.2655  -18.0690 O   0  0  0  0  0  0  0  0  0  0  0  0
   25.4526  -23.3131  -12.5456 N   0  0  0  0  0  0  0  0  0  0  0  0
   26.0113  -22.0276  -12.3175 C   0  0  0  0  0  0  0  0  0  0  0  0
   27.2835  -21.8368  -12.2753 N   0  0  0  0  0  0  0  0  0  0  0  0
   25.1593  -20.8907  -12.1252 N   0  0  0  0  0  0  0  0  0  0  0  0
   23.7344  -21.0063  -12.0522 C   0  0  0  0  0  0  0  0  0  0  0  0
   23.1676  -21.1681  -13.4397 C   0  0  0  0  0  0  0  0  0  0  0  0
   23.6321  -20.0097  -14.2667 C   0  0  0  0  0  0  0  0  0  0  0  0
   23.2005  -20.1418  -15.7253 C   0  0  2  0  0  0  0  0  0  0  0  0
   23.7133  -18.9579  -16.4568 N   0  0  0  0  0  0  0  0  0  0  0  0
   21.7353  -19.9975  -15.7341 C   0  0  0  0  0  0  0  0  0  0  0  0
   21.3128  -18.9080  -15.1897 O   0  0  0  0  0  0  0  0  0  0  0  0
   27.6267  -20.8777  -12.0972 N   0  0  0  0  0  0  0  0  0  0  0  0
   20.7897  -20.9265  -16.2766 C   0  0  0  0  0  0  0  0  0  0  0  0
   21.2111  -22.1981  -16.7501 C   0  0  0  0  0  0  0  0  0  0  0  0
   19.9439  -23.0171  -16.7741 C   0  0  0  0  0  0  0  0  0  0  0  0
   18.9308  -21.9498  -17.2435 C   0  0  1  0  0  0  0  0  0  0  0  0
   19.4044  -20.7856  -16.3956 C   0  0  0  0  0  0  0  0  0  0  0  0
   18.6591  -20.7019  -15.1261 O   0  0  0  0  0  0  0  0  0  0  0  0
   19.2356  -20.9388  -14.0507 O   0  0  0  0  0  0  0  0  0  0  0  0
  1  2  1  0
  3  4  2  0
  3  2  1  0
  5  6  1  0
  6  8  1  0
  7  6  2  0
  8  9  1  0
  9 10  1  0
 10 11  1  0
 12 11  1  1
 12 13  1  0
 13  3  1  0
 14 16  1  0
 14 12  1  0
 15 14  2  0
 16 17  1  0
 18 17  1  0
 19 20  1  0
 19 18  1  0
 20 16  1  0
 20 21  1  1
 21 23  1  0
 22 21  2  0
M  END
$$$$
