GRP.pdb
     RDKit          3D

 23 23  0  0  1  0  0  0  0  0999 V2000
   19.7379  -20.2941  -14.3609 N   0  0  0  0  0  0  0  0  0  0  0  0
   20.5899  -19.7622  -15.3975 C   0  0  0  0  0  0  0  0  0  0  0  0
   21.9145  -19.3688  -14.8223 C   0  0  0  0  0  0  0  0  0  0  0  0
   22.0383  -18.2861  -14.1738 O   0  0  0  0  0  0  0  0  0  0  0  0
   26.0922  -20.8082   -8.9899 N   0  0  0  0  0  0  0  0  0  0  0  0
   25.0383  -21.0286   -9.9159 C   0  0  0  0  0  0  0  0  0  0  0  0
   23.8181  -21.1780   -9.5343 N   0  0  0  0  0  0  0  0  0  0  0  0
   25.3101  -21.0916  -11.3221 N   0  0  0  0  0  0  0  0  0  0  0  0
   26.5550  -20.6587  -11.8805 C   0  0  0  0  0  0  0  0  0  0  0  0
   26.4632  -20.6609  -13.3852 C   0  0  0  0  0  0  0  0  0  0  0  0
   25.0396  -20.9317  -13.7611 C   0  0  0  0  0  0  0  0  0  0  0  0
   24.3795  -19.7157  -14.4065 C   0  0  2  0  0  0  0  0  0  0  0  0
   23.0739  -20.1509  -14.9593 N   0  0  0  0  0  0  0  0  0  0  0  0
   25.2025  -19.3763  -15.5791 C   0  0  0  0  0  0  0  0  0  0  0  0
   25.2026  -20.2800  -16.4985 O   0  0  0  0  0  0  0  0  0  0  0  0
   23.0895  -21.2808  -10.2609 N   0  0  0  0  0  0  0  0  0  0  0  0
   25.9633  -18.1777  -15.7696 C   0  0  0  0  0  0  0  0  0  0  0  0
   26.1738  -17.2731  -14.6944 C   0  0  0  0  0  0  0  0  0  0  0  0
   27.3589  -16.4500  -15.1365 C   0  0  0  0  0  0  0  0  0  0  0  0
   27.0564  -16.3133  -16.6450 C   0  0  1  0  0  0  0  0  0  0  0  0
   26.6106  -17.7347  -16.9263 C   0  0  0  0  0  0  0  0  0  0  0  0
   27.7318  -18.5718  -17.3916 O   0  0  0  0  0  0  0  0  0  0  0  0
   28.1778  -19.4739  -16.6621 O   0  0  0  0  0  0  0  0  0  0  0  0
  1  2  1  0
  3  4  2  0
  3  2  1  0
  5  6  1  0
  6  8  1  0
  7  6  2  0
  8  9  1  0
  9 10  1  0
 10 11  1  0
 12 11  1  6
 12 13  1  0
 13  3  1  0
 14 16  1  0
 14 12  1  0
 15 14  2  0
 16 17  1  0
 18 17  1  0
 19 20  1  0
 19 18  1  0
 20 16  1  0
 20 21  1  6
 21 23  1  0
 22 21  2  0
M  END
$$$$
