GRP.pdb
     RDKit          3D

 23 23  0  0  1  0  0  0  0  0999 V2000
   18.8826  -18.4672  -12.9590 N   0  0  0  0  0  0  0  0  0  0  0  0
   19.9784  -18.4319  -13.8978 C   0  0  0  0  0  0  0  0  0  0  0  0
   21.0043  -19.4572  -13.5286 C   0  0  0  0  0  0  0  0  0  0  0  0
   21.0786  -19.8942  -12.3404 O   0  0  0  0  0  0  0  0  0  0  0  0
   25.7124  -26.0869  -15.6041 N   0  0  0  0  0  0  0  0  0  0  0  0
   24.3595  -25.8631  -15.9733 C   0  0  0  0  0  0  0  0  0  0  0  0
   23.4892  -26.8114  -15.9742 N   0  0  0  0  0  0  0  0  0  0  0  0
   23.9208  -24.5544  -16.3608 N   0  0  0  0  0  0  0  0  0  0  0  0
   24.7886  -23.4165  -16.3298 C   0  0  0  0  0  0  0  0  0  0  0  0
   24.5384  -22.6227  -15.0729 C   0  0  0  0  0  0  0  0  0  0  0  0
   23.2871  -21.8249  -15.2714 C   0  0  0  0  0  0  0  0  0  0  0  0
   22.9469  -20.9839  -14.0435 C   0  0  2  0  0  0  0  0  0  0  0  0
   21.9257  -19.9872  -14.4477 N   0  0  0  0  0  0  0  0  0  0  0  0
   24.1540  -20.1986  -13.7369 C   0  0  0  0  0  0  0  0  0  0  0  0
   24.4400  -19.3092  -14.6251 O   0  0  0  0  0  0  0  0  0  0  0  0
   22.5260  -26.5885  -16.2776 N   0  0  0  0  0  0  0  0  0  0  0  0
   24.9922  -20.3374  -12.5838 C   0  0  0  0  0  0  0  0  0  0  0  0
   24.6694  -21.2677  -11.5595 C   0  0  0  0  0  0  0  0  0  0  0  0
   25.9692  -21.4587  -10.8169 C   0  0  0  0  0  0  0  0  0  0  0  0
   26.5282  -20.0194  -10.8584 C   0  0  2  0  0  0  0  0  0  0  0  0
   26.1889  -19.6756  -12.2954 C   0  0  0  0  0  0  0  0  0  0  0  0
   27.3146  -19.9665  -13.2022 O   0  0  0  0  0  0  0  0  0  0  0  0
   27.2823  -20.9743  -13.9289 O   0  0  0  0  0  0  0  0  0  0  0  0
  1  2  1  0
  3  4  2  0
  3  2  1  0
  5  6  1  0
  6  8  1  0
  7  6  2  0
  8  9  1  0
  9 10  1  0
 10 11  1  0
 12 11  1  6
 12 13  1  0
 13  3  1  0
 14 16  1  0
 14 12  1  0
 15 14  2  0
 16 17  1  0
 18 17  1  0
 19 20  1  0
 19 18  1  0
 20 16  1  0
 20 21  1  6
 21 23  1  0
 22 21  2  0
M  END
$$$$
