GRP.pdb
     RDKit          3D

 23 23  0  0  1  0  0  0  0  0999 V2000
   19.7754  -19.2558  -15.0770 N   0  0  0  0  0  0  0  0  0  0  0  0
   20.7667  -19.0599  -16.1077 C   0  0  0  0  0  0  0  0  0  0  0  0
   22.0618  -18.6226  -15.4984 C   0  0  0  0  0  0  0  0  0  0  0  0
   22.1818  -17.4594  -15.0077 O   0  0  0  0  0  0  0  0  0  0  0  0
   26.7597  -21.0454   -9.7360 N   0  0  0  0  0  0  0  0  0  0  0  0
   25.5883  -20.9485  -10.5330 C   0  0  0  0  0  0  0  0  0  0  0  0
   24.4134  -21.1299  -10.0398 N   0  0  0  0  0  0  0  0  0  0  0  0
   25.6854  -20.6412  -11.9300 N   0  0  0  0  0  0  0  0  0  0  0  0
   26.9035  -20.1894  -12.5308 C   0  0  0  0  0  0  0  0  0  0  0  0
   26.6514  -19.8187  -13.9701 C   0  0  0  0  0  0  0  0  0  0  0  0
   25.2255  -20.1458  -14.2887 C   0  0  0  0  0  0  0  0  0  0  0  0
   24.4914  -18.9558  -14.9020 C   0  0  2  0  0  0  0  0  0  0  0  0
   23.1968  -19.4485  -15.4322 N   0  0  0  0  0  0  0  0  0  0  0  0
   25.2698  -18.5603  -16.0874 C   0  0  0  0  0  0  0  0  0  0  0  0
   25.2427  -19.4239  -17.0441 O   0  0  0  0  0  0  0  0  0  0  0  0
   23.5977  -20.9910  -10.6601 N   0  0  0  0  0  0  0  0  0  0  0  0
   26.0156  -17.3487  -16.2532 C   0  0  0  0  0  0  0  0  0  0  0  0
   26.1342  -16.4177  -15.1864 C   0  0  0  0  0  0  0  0  0  0  0  0
   27.3282  -15.5768  -15.5668 C   0  0  0  0  0  0  0  0  0  0  0  0
   27.1244  -15.4779  -17.0947 C   0  0  1  0  0  0  0  0  0  0  0  0
   26.7292  -16.9147  -17.3737 C   0  0  0  0  0  0  0  0  0  0  0  0
   27.8967  -17.7352  -17.7451 O   0  0  0  0  0  0  0  0  0  0  0  0
   28.3293  -18.5928  -16.9563 O   0  0  0  0  0  0  0  0  0  0  0  0
  1  2  1  0
  3  4  2  0
  3  2  1  0
  5  6  1  0
  6  8  1  0
  7  6  2  0
  8  9  1  0
  9 10  1  0
 10 11  1  0
 12 11  1  6
 12 13  1  0
 13  3  1  0
 14 16  1  0
 14 12  1  0
 15 14  2  0
 16 17  1  0
 18 17  1  0
 19 20  1  0
 19 18  1  0
 20 16  1  0
 20 21  1  6
 21 23  1  0
 22 21  2  0
M  END
$$$$
