GRP.pdb
     RDKit          3D

 23 23  0  0  1  0  0  0  0  0999 V2000
   27.1544  -14.2902  -18.7443 N   0  0  0  0  0  0  0  0  0  0  0  0
   26.2219  -14.3744  -17.6457 C   0  0  0  0  0  0  0  0  0  0  0  0
   26.1789  -15.7730  -17.1145 C   0  0  0  0  0  0  0  0  0  0  0  0
   26.4191  -16.7582  -17.8761 O   0  0  0  0  0  0  0  0  0  0  0  0
   25.6197  -21.7776  -11.6285 N   0  0  0  0  0  0  0  0  0  0  0  0
   26.2376  -21.8475  -12.9053 C   0  0  0  0  0  0  0  0  0  0  0  0
   26.0782  -22.8604  -13.6833 N   0  0  0  0  0  0  0  0  0  0  0  0
   27.0684  -20.7748  -13.3683 N   0  0  0  0  0  0  0  0  0  0  0  0
   27.1248  -19.5089  -12.7025 C   0  0  0  0  0  0  0  0  0  0  0  0
   25.9289  -18.6779  -13.0921 C   0  0  0  0  0  0  0  0  0  0  0  0
   26.4186  -17.5065  -13.8855 C   0  0  0  0  0  0  0  0  0  0  0  0
   25.8159  -17.4762  -15.2879 C   0  0  2  0  0  0  0  0  0  0  0  0
   25.8782  -16.0771  -15.7760 N   0  0  0  0  0  0  0  0  0  0  0  0
   24.3816  -17.7656  -15.1242 C   0  0  0  0  0  0  0  0  0  0  0  0
   23.7724  -16.9592  -14.3239 O   0  0  0  0  0  0  0  0  0  0  0  0
   26.6013  -22.8770  -14.5751 N   0  0  0  0  0  0  0  0  0  0  0  0
   23.6462  -18.8197  -15.7563 C   0  0  0  0  0  0  0  0  0  0  0  0
   24.2823  -19.7009  -16.6715 C   0  0  0  0  0  0  0  0  0  0  0  0
   23.3611  -20.8948  -16.7289 C   0  0  0  0  0  0  0  0  0  0  0  0
   21.9880  -20.1916  -16.6538 C   0  0  2  0  0  0  0  0  0  0  0  0
   22.3046  -19.1693  -15.5800 C   0  0  0  0  0  0  0  0  0  0  0  0
   21.9440  -19.6637  -14.2384 O   0  0  0  0  0  0  0  0  0  0  0  0
   22.8341  -20.0243  -13.4495 O   0  0  0  0  0  0  0  0  0  0  0  0
  1  2  1  0
  3  4  2  0
  3  2  1  0
  5  6  1  0
  6  8  1  0
  7  6  2  0
  8  9  1  0
  9 10  1  0
 10 11  1  0
 12 11  1  1
 12 13  1  0
 13  3  1  0
 14 16  1  0
 14 12  1  0
 15 14  2  0
 16 17  1  0
 18 17  1  0
 19 20  1  0
 19 18  1  0
 20 16  1  0
 20 21  1  6
 21 23  1  0
 22 21  2  0
M  END
$$$$
