GRP.pdb
     RDKit          3D

 23 23  0  0  1  0  0  0  0  0999 V2000
   26.8022  -11.1827  -16.1761 N   0  0  0  0  0  0  0  0  0  0  0  0
   25.7487  -11.0882  -15.1939 C   0  0  0  0  0  0  0  0  0  0  0  0
   24.6441  -10.2187  -15.7074 C   0  0  0  0  0  0  0  0  0  0  0  0
   24.7230   -9.6901  -16.8574 O   0  0  0  0  0  0  0  0  0  0  0  0
   16.1881  -11.6521  -14.9920 N   0  0  0  0  0  0  0  0  0  0  0  0
   16.8380  -11.8943  -16.2313 C   0  0  0  0  0  0  0  0  0  0  0  0
   16.3255  -12.6605  -17.1295 N   0  0  0  0  0  0  0  0  0  0  0  0
   18.1020  -11.2819  -16.5187 N   0  0  0  0  0  0  0  0  0  0  0  0
   18.9425  -10.7445  -15.4923 C   0  0  0  0  0  0  0  0  0  0  0  0
   20.2197  -10.2263  -16.1030 C   0  0  0  0  0  0  0  0  0  0  0  0
   21.0654   -9.6674  -15.0012 C   0  0  0  0  0  0  0  0  0  0  0  0
   22.3857   -9.1071  -15.5247 C   0  0  2  0  0  0  0  0  0  0  0  0
   23.4808   -9.9394  -14.9702 N   0  0  0  0  0  0  0  0  0  0  0  0
   22.5481   -7.7854  -14.8969 C   0  0  0  0  0  0  0  0  0  0  0  0
   22.6654   -7.8257  -13.6137 O   0  0  0  0  0  0  0  0  0  0  0  0
   16.8483  -12.7948  -18.0115 N   0  0  0  0  0  0  0  0  0  0  0  0
   22.5868   -6.5207  -15.5683 C   0  0  0  0  0  0  0  0  0  0  0  0
   22.5483   -6.4505  -16.9868 C   0  0  0  0  0  0  0  0  0  0  0  0
   22.1292   -5.0289  -17.2708 C   0  0  0  0  0  0  0  0  0  0  0  0
   22.8930   -4.2845  -16.1537 C   0  0  2  0  0  0  0  0  0  0  0  0
   22.6272   -5.2410  -15.0079 C   0  0  0  0  0  0  0  0  0  0  0  0
   21.4356   -4.8434  -14.2358 O   0  0  0  0  0  0  0  0  0  0  0  0
   21.5007   -3.8913  -13.4396 O   0  0  0  0  0  0  0  0  0  0  0  0
  1  2  1  0
  3  4  2  0
  3  2  1  0
  5  6  1  0
  6  8  1  0
  7  6  2  0
  8  9  1  0
  9 10  1  0
 10 11  1  0
 12 11  1  1
 12 13  1  0
 13  3  1  0
 14 16  1  0
 14 12  1  0
 15 14  2  0
 16 17  1  0
 18 17  1  0
 19 20  1  0
 19 18  1  0
 20 16  1  0
 20 21  1  1
 21 23  1  0
 22 21  2  0
M  END
$$$$
