GRP.pdb
     RDKit          3D

 23 23  0  0  1  0  0  0  0  0999 V2000
   26.7194  -25.9159  -17.1058 N   0  0  0  0  0  0  0  0  0  0  0  0
   26.4067  -24.5069  -17.0893 C   0  0  0  0  0  0  0  0  0  0  0  0
   25.3810  -24.2206  -16.0376 C   0  0  0  0  0  0  0  0  0  0  0  0
   24.5664  -25.1208  -15.6713 O   0  0  0  0  0  0  0  0  0  0  0  0
   26.3369  -20.2149   -8.9165 N   0  0  0  0  0  0  0  0  0  0  0  0
   26.7965  -20.8792  -10.0845 C   0  0  0  0  0  0  0  0  0  0  0  0
   28.0349  -21.1898  -10.2473 N   0  0  0  0  0  0  0  0  0  0  0  0
   25.8785  -21.2267  -11.1294 N   0  0  0  0  0  0  0  0  0  0  0  0
   24.5272  -20.7550  -11.1485 C   0  0  0  0  0  0  0  0  0  0  0  0
   23.7935  -21.3667  -12.3147 C   0  0  0  0  0  0  0  0  0  0  0  0
   24.8093  -21.7844  -13.3322 C   0  0  0  0  0  0  0  0  0  0  0  0
   24.2110  -22.7120  -14.3870 C   0  0  2  0  0  0  0  0  0  0  0  0
   25.2572  -22.9716  -15.4056 N   0  0  0  0  0  0  0  0  0  0  0  0
   23.1780  -21.9280  -15.0842 C   0  0  0  0  0  0  0  0  0  0  0  0
   23.6049  -20.8121  -15.5682 O   0  0  0  0  0  0  0  0  0  0  0  0
   28.3055  -21.6724  -11.1209 N   0  0  0  0  0  0  0  0  0  0  0  0
   21.8040  -22.2925  -15.2602 C   0  0  0  0  0  0  0  0  0  0  0  0
   21.3052  -23.5164  -14.7388 C   0  0  0  0  0  0  0  0  0  0  0  0
   19.8104  -23.3131  -14.6969 C   0  0  0  0  0  0  0  0  0  0  0  0
   19.6022  -22.5061  -15.9974 C   0  0  1  0  0  0  0  0  0  0  0  0
   20.7861  -21.5660  -15.8841 C   0  0  0  0  0  0  0  0  0  0  0  0
   20.4111  -20.2993  -15.2290 O   0  0  0  0  0  0  0  0  0  0  0  0
   20.7978  -20.0602  -14.0722 O   0  0  0  0  0  0  0  0  0  0  0  0
  1  2  1  0
  3  4  2  0
  3  2  1  0
  5  6  1  0
  6  8  1  0
  7  6  2  0
  8  9  1  0
  9 10  1  0
 10 11  1  0
 12 11  1  1
 12 13  1  0
 13  3  1  0
 14 16  1  0
 14 12  1  0
 15 14  2  0
 16 17  1  0
 18 17  1  0
 19 20  1  0
 19 18  1  0
 20 16  1  0
 20 21  1  1
 21 23  1  0
 22 21  2  0
M  END
$$$$
