VRC.pdb
     RDKit          3D

 25 24  0  0  1  0  0  0  0  0999 V2000
   21.6186   -7.7367  -14.8859 C   0  0  0  0  0  0  0  0  0  0  0  0
   21.5258   -8.6833  -13.7481 C   0  0  2  0  0  0  0  0  0  0  0  0
   22.7468   -9.5882  -13.8053 C   0  0  0  0  0  0  0  0  0  0  0  0
   20.2576   -9.4391  -13.5894 C   0  0  2  0  0  0  0  0  0  0  0  0
   20.2148  -10.3522  -14.7621 N   0  0  0  0  0  0  0  0  0  0  0  0
   19.0198   -8.6631  -13.5803 C   0  0  0  0  0  0  0  0  0  0  0  0
   18.3809   -8.4799  -14.6764 O   0  0  0  0  0  0  0  0  0  0  0  0
   13.2335   -8.9864   -7.6477 N   0  0  0  0  0  0  0  0  0  0  0  0
   13.6189   -7.6491   -7.9680 C   0  0  0  0  0  0  0  0  0  0  0  0
   13.0126   -6.6754   -7.4004 N   0  0  0  0  0  0  0  0  0  0  0  0
   14.6554   -7.3750   -8.8976 N   0  0  0  0  0  0  0  0  0  0  0  0
   15.6641   -8.3981   -9.1997 C   0  0  0  0  0  0  0  0  0  0  0  0
   16.6885   -7.8006  -10.1665 C   0  0  0  0  0  0  0  0  0  0  0  0
   16.1614   -7.7820  -11.5649 C   0  0  0  0  0  0  0  0  0  0  0  0
   17.1848   -7.2447  -12.5433 C   0  0  2  0  0  0  0  0  0  0  0  0
   18.4133   -8.0638  -12.4472 N   0  0  0  0  0  0  0  0  0  0  0  0
   17.4920   -5.8257  -12.3968 C   0  0  0  0  0  0  0  0  0  0  0  0
   18.3944   -5.4105  -11.6346 O   0  0  0  0  0  0  0  0  0  0  0  0
   13.2253   -5.6728   -7.6019 N   0  0  0  0  0  0  0  0  0  0  0  0
   16.7807   -4.8175  -13.1160 C   0  0  2  0  0  0  0  0  0  0  0  0
   17.1036   -3.4134  -12.9921 C   0  0  0  0  0  0  0  0  0  0  0  0
   17.3944   -2.7915  -14.3471 S   0  0  0  0  0  0  0  0  0  0  0  0
   17.8149   -1.0433  -14.2062 C   0  0  0  0  0  0  0  0  0  0  0  0
   16.0394   -2.6659  -12.2781 O   0  0  0  0  0  0  0  0  0  0  0  0
   14.8344   -3.0161  -12.3148 O   0  0  0  0  0  0  0  0  0  0  0  0
  2  1  1  6
  2  3  1  0
  4  2  1  0
  4  5  1  6
  6  4  1  0
  6 16  1  0
  7  6  2  0
  9  8  1  0
 10  9  2  0
 11  9  1  0
 12 11  1  0
 13 12  1  0
 13 14  1  0
 15 16  1  0
 15 14  1  1
 17 15  1  0
 18 17  2  0
 19 17  1  0
 20 19  1  0
 20 21  1  6
 22 21  1  0
 23 20  1  0
 23 25  1  0
 24 23  2  0
M  END
$$$$
