VRC.pdb
     RDKit          3D

 25 24  0  0  1  0  0  0  0  0999 V2000
   28.4697  -19.7745  -18.8045 C   0  0  0  0  0  0  0  0  0  0  0  0
   27.4799  -18.8217  -19.3632 C   0  0  2  0  0  0  0  0  0  0  0  0
   28.2527  -17.7418  -20.1044 C   0  0  0  0  0  0  0  0  0  0  0  0
   26.4654  -18.2659  -18.4324 C   0  0  2  0  0  0  0  0  0  0  0  0
   27.1684  -17.1636  -17.7244 N   0  0  0  0  0  0  0  0  0  0  0  0
   25.9236  -19.1729  -17.4233 C   0  0  0  0  0  0  0  0  0  0  0  0
   25.1145  -20.1017  -17.7780 O   0  0  0  0  0  0  0  0  0  0  0  0
   23.4829  -19.4298  -10.5170 N   0  0  0  0  0  0  0  0  0  0  0  0
   23.9839  -20.6155   -9.8982 C   0  0  0  0  0  0  0  0  0  0  0  0
   23.3101  -21.1547   -8.9531 N   0  0  0  0  0  0  0  0  0  0  0  0
   25.2070  -21.2084  -10.3053 N   0  0  0  0  0  0  0  0  0  0  0  0
   26.0479  -20.5472  -11.3109 C   0  0  0  0  0  0  0  0  0  0  0  0
   25.3075  -20.5617  -12.6498 C   0  0  0  0  0  0  0  0  0  0  0  0
   26.0923  -19.8534  -13.7063 C   0  0  0  0  0  0  0  0  0  0  0  0
   25.3793  -19.8718  -15.0422 C   0  0  2  0  0  0  0  0  0  0  0  0
   26.2038  -19.1458  -16.0335 N   0  0  0  0  0  0  0  0  0  0  0  0
   24.0152  -19.3542  -15.0200 C   0  0  0  0  0  0  0  0  0  0  0  0
   23.7414  -18.2039  -14.6081 O   0  0  0  0  0  0  0  0  0  0  0  0
   23.6062  -22.0299   -8.4659 N   0  0  0  0  0  0  0  0  0  0  0  0
   22.9025  -20.1291  -15.4684 C   0  0  2  0  0  0  0  0  0  0  0  0
   21.5536  -19.6080  -15.4678 C   0  0  0  0  0  0  0  0  0  0  0  0
   20.9034  -19.7559  -16.8326 S   0  0  0  0  0  0  0  0  0  0  0  0
   19.1049  -19.8234  -16.7148 C   0  0  0  0  0  0  0  0  0  0  0  0
   20.7233  -20.2338  -14.4095 O   0  0  0  0  0  0  0  0  0  0  0  0
   20.8362  -21.4445  -14.0973 O   0  0  0  0  0  0  0  0  0  0  0  0
  2  1  1  1
  2  3  1  0
  4  2  1  0
  4  5  1  1
  6  4  1  0
  6 16  1  0
  7  6  2  0
  9  8  1  0
 10  9  2  0
 11  9  1  0
 12 11  1  0
 13 12  1  0
 13 14  1  0
 15 16  1  0
 15 14  1  1
 17 15  1  0
 18 17  2  0
 19 17  1  0
 20 19  1  0
 20 21  1  6
 22 21  1  0
 23 20  1  0
 23 25  1  0
 24 23  2  0
M  END
$$$$
