VRC.pdb
     RDKit          3D

 25 24  0  0  1  0  0  0  0  0999 V2000
   28.8938  -18.8663  -14.3642 C   0  0  0  0  0  0  0  0  0  0  0  0
   28.2683  -19.6783  -15.4361 C   0  0  2  0  0  0  0  0  0  0  0  0
   29.0784  -19.4624  -16.7050 C   0  0  0  0  0  0  0  0  0  0  0  0
   26.8083  -19.5166  -15.6522 C   0  0  2  0  0  0  0  0  0  0  0  0
   26.6709  -18.1949  -16.3192 N   0  0  0  0  0  0  0  0  0  0  0  0
   25.9587  -19.5092  -14.4638 C   0  0  0  0  0  0  0  0  0  0  0  0
   25.9046  -18.4580  -13.7323 O   0  0  0  0  0  0  0  0  0  0  0  0
   19.1671  -21.1720   -9.9085 N   0  0  0  0  0  0  0  0  0  0  0  0
   19.3273  -21.2945  -11.3224 C   0  0  0  0  0  0  0  0  0  0  0  0
   18.6866  -22.2125  -11.9426 N   0  0  0  0  0  0  0  0  0  0  0  0
   20.1771  -20.4249  -12.0538 N   0  0  0  0  0  0  0  0  0  0  0  0
   21.5132  -20.0968  -11.5413 C   0  0  0  0  0  0  0  0  0  0  0  0
   22.3705  -21.3638  -11.5715 C   0  0  0  0  0  0  0  0  0  0  0  0
   23.1992  -21.4232  -12.8139 C   0  0  0  0  0  0  0  0  0  0  0  0
   24.4160  -20.5265  -12.7202 C   0  0  2  0  0  0  0  0  0  0  0  0
   25.1471  -20.5781  -14.0057 N   0  0  0  0  0  0  0  0  0  0  0  0
   25.3080  -20.8128  -11.6016 C   0  0  0  0  0  0  0  0  0  0  0  0
   26.1642  -21.7254  -11.6435 O   0  0  0  0  0  0  0  0  0  0  0  0
   18.7456  -22.3540  -12.9758 N   0  0  0  0  0  0  0  0  0  0  0  0
   25.2612  -20.0676  -10.3841 C   0  0  2  0  0  0  0  0  0  0  0  0
   26.0147  -20.4599   -9.2140 C   0  0  0  0  0  0  0  0  0  0  0  0
   26.9003  -19.3281   -8.7218 S   0  0  0  0  0  0  0  0  0  0  0  0
   26.7221  -19.0605   -6.9471 C   0  0  0  0  0  0  0  0  0  0  0  0
   25.1297  -20.9557   -8.1314 O   0  0  0  0  0  0  0  0  0  0  0  0
   23.8854  -20.7909   -8.1546 O   0  0  0  0  0  0  0  0  0  0  0  0
  2  1  1  1
  2  3  1  0
  4  2  1  0
  4  5  1  1
  6  4  1  0
  6 16  1  0
  7  6  2  0
  9  8  1  0
 10  9  2  0
 11  9  1  0
 12 11  1  0
 13 12  1  0
 13 14  1  0
 15 16  1  0
 15 14  1  6
 17 15  1  0
 18 17  2  0
 19 17  1  0
 20 19  1  0
 20 21  1  6
 22 21  1  0
 23 20  1  0
 23 25  1  0
 24 23  2  0
M  END
$$$$
