VRC.pdb
     RDKit          3D

 25 24  0  0  1  0  0  0  0  0999 V2000
   20.2620  -17.9773  -13.6643 C   0  0  0  0  0  0  0  0  0  0  0  0
   20.3417  -18.2714  -15.1157 C   0  0  2  0  0  0  0  0  0  0  0  0
   19.3083  -17.4026  -15.8157 C   0  0  0  0  0  0  0  0  0  0  0  0
   20.2701  -19.6956  -15.5294 C   0  0  2  0  0  0  0  0  0  0  0  0
   18.9460  -20.1631  -15.0405 N   0  0  0  0  0  0  0  0  0  0  0  0
   21.2889  -20.5944  -14.9922 C   0  0  0  0  0  0  0  0  0  0  0  0
   21.0335  -21.2828  -13.9415 O   0  0  0  0  0  0  0  0  0  0  0  0
   24.1056  -25.3930  -17.7222 N   0  0  0  0  0  0  0  0  0  0  0  0
   24.9782  -26.0764  -16.8215 C   0  0  0  0  0  0  0  0  0  0  0  0
   24.7952  -27.3248  -16.6068 N   0  0  0  0  0  0  0  0  0  0  0  0
   26.0403  -25.4063  -16.1610 N   0  0  0  0  0  0  0  0  0  0  0  0
   26.2608  -23.9725  -16.3867 C   0  0  0  0  0  0  0  0  0  0  0  0
   25.5033  -23.1888  -15.3129 C   0  0  0  0  0  0  0  0  0  0  0  0
   24.3666  -22.4220  -15.9076 C   0  0  0  0  0  0  0  0  0  0  0  0
   23.5908  -21.6606  -14.8534 C   0  0  2  0  0  0  0  0  0  0  0  0
   22.5863  -20.8058  -15.5241 N   0  0  0  0  0  0  0  0  0  0  0  0
   24.4078  -20.8788  -13.9312 C   0  0  0  0  0  0  0  0  0  0  0  0
   24.9016  -19.7722  -14.2463 O   0  0  0  0  0  0  0  0  0  0  0  0
   25.4177  -27.8978  -15.9944 N   0  0  0  0  0  0  0  0  0  0  0  0
   24.6969  -21.3276  -12.6066 C   0  0  2  0  0  0  0  0  0  0  0  0
   25.7415  -20.7309  -11.8043 C   0  0  0  0  0  0  0  0  0  0  0  0
   25.8812  -21.4355  -10.4659 S   0  0  0  0  0  0  0  0  0  0  0  0
   26.7639  -20.4219   -9.2633 C   0  0  0  0  0  0  0  0  0  0  0  0
   27.0366  -20.6950  -12.5272 O   0  0  0  0  0  0  0  0  0  0  0  0
   27.5094  -21.7038  -13.1058 O   0  0  0  0  0  0  0  0  0  0  0  0
  2  1  1  1
  2  3  1  0
  4  2  1  0
  4  5  1  1
  6  4  1  0
  6 16  1  0
  7  6  2  0
  9  8  1  0
 10  9  2  0
 11  9  1  0
 12 11  1  0
 13 12  1  0
 13 14  1  0
 15 16  1  0
 15 14  1  6
 17 15  1  0
 18 17  2  0
 19 17  1  0
 20 19  1  0
 20 21  1  1
 22 21  1  0
 23 20  1  0
 23 25  1  0
 24 23  2  0
M  END
$$$$
