MLR.pdb
     RDKit          3D

 28 27  0  0  1  0  0  0  0  0999 V2000
    7.5343  -11.5243   19.1831 C   0  0  0  0  0  0  0  0  0  0  0  0
    7.3989  -13.0450   18.2268 S   0  0  0  0  0  0  0  0  0  0  0  0
    7.8514  -14.4984   19.1880 C   0  0  0  0  0  0  0  0  0  0  0  0
    8.6474  -14.1190   20.4334 C   0  0  0  0  0  0  0  0  0  0  0  0
    8.8500  -15.3842   21.2481 C   0  0  2  0  0  0  0  0  0  0  0  0
    7.5713  -16.0781   21.2210 N   0  0  0  0  0  0  0  0  0  0  0  0
    9.1397  -15.0681   22.6708 C   0  0  0  0  0  0  0  0  0  0  0  0
   10.2669  -14.6997   23.0542 O   0  0  0  0  0  0  0  0  0  0  0  0
    5.9179  -12.7134   27.4014 C   0  0  0  0  0  0  0  0  0  0  0  0
    7.2050  -13.3190   26.9023 C   0  0  2  0  0  0  0  0  0  0  0  0
    8.2855  -12.2323   27.0133 C   0  0  0  0  0  0  0  0  0  0  0  0
    7.1194  -13.8407   25.5287 C   0  0  0  0  0  0  0  0  0  0  0  0
    8.2593  -14.6247   24.9895 C   0  0  2  0  0  0  0  0  0  0  0  0
    8.1153  -15.1746   23.6866 N   0  0  0  0  0  0  0  0  0  0  0  0
    8.7447  -15.6462   25.9875 C   0  0  0  0  0  0  0  0  0  0  0  0
    8.9283  -15.3338   27.1926 O   0  0  0  0  0  0  0  0  0  0  0  0
   11.0599  -21.1534   22.2843 N   0  0  0  0  0  0  0  0  0  0  0  0
   11.3536  -20.0742   21.3809 C   0  0  0  0  0  0  0  0  0  0  0  0
   11.0332  -20.1970   20.1393 N   0  0  0  0  0  0  0  0  0  0  0  0
   11.9863  -18.8912   21.8466 N   0  0  0  0  0  0  0  0  0  0  0  0
   12.2372  -18.6337   23.2317 C   0  0  0  0  0  0  0  0  0  0  0  0
   11.0208  -18.3555   24.0311 C   0  0  0  0  0  0  0  0  0  0  0  0
   11.1954  -18.0797   25.4747 C   0  0  0  0  0  0  0  0  0  0  0  0
    9.9551  -17.8587   26.2714 C   0  0  2  0  0  0  0  0  0  0  0  0
    9.0109  -16.9807   25.6191 N   0  0  0  0  0  0  0  0  0  0  0  0
   10.2177  -17.5554   27.6745 C   0  0  0  0  0  0  0  0  0  0  0  0
   10.8074  -16.5177   28.0653 O   0  0  0  0  0  0  0  0  0  0  0  0
    9.7984  -18.4512   28.6436 O   0  0  0  0  0  0  0  0  0  0  0  0
  2  1  1  0
  3  2  1  0
  4  3  1  0
  5  6  1  1
  5  4  1  0
  7  5  1  0
  8  7  2  0
 10 12  1  0
 10  9  1  6
 11 10  1  0
 13 12  1  1
 13 14  1  0
 14  7  1  0
 15 13  1  0
 15 16  2  0
 18 20  1  0
 18 17  1  0
 19 18  2  0
 21 20  1  0
 22 21  1  0
 23 22  1  0
 24 23  1  6
 24 25  1  0
 25 15  1  0
 26 24  1  0
 27 26  2  0
 28 26  1  0
M  END
$$$$
