MLR.pdb
     RDKit          3D

 28 27  0  0  1  0  0  0  0  0999 V2000
    7.6488  -11.5424   18.4035 C   0  0  0  0  0  0  0  0  0  0  0  0
    7.3561  -13.1427   17.6297 S   0  0  0  0  0  0  0  0  0  0  0  0
    7.7324  -14.5138   18.7341 C   0  0  0  0  0  0  0  0  0  0  0  0
    8.1320  -14.0202   20.1216 C   0  0  0  0  0  0  0  0  0  0  0  0
    8.3389  -15.2425   20.9984 C   0  0  2  0  0  0  0  0  0  0  0  0
    7.0462  -15.9080   21.0563 N   0  0  0  0  0  0  0  0  0  0  0  0
    8.6876  -14.8546   22.3897 C   0  0  0  0  0  0  0  0  0  0  0  0
    9.8610  -14.6263   22.7425 O   0  0  0  0  0  0  0  0  0  0  0  0
    5.9230  -12.5933   27.5486 C   0  0  0  0  0  0  0  0  0  0  0  0
    7.1419  -13.1383   26.8486 C   0  0  2  0  0  0  0  0  0  0  0  0
    8.2097  -12.0341   26.8810 C   0  0  0  0  0  0  0  0  0  0  0  0
    6.8826  -13.5823   25.4695 C   0  0  0  0  0  0  0  0  0  0  0  0
    7.9558  -14.3002   24.7361 C   0  0  2  0  0  0  0  0  0  0  0  0
    7.6698  -14.7226   23.4091 N   0  0  0  0  0  0  0  0  0  0  0  0
    8.5453  -15.4091   25.5713 C   0  0  0  0  0  0  0  0  0  0  0  0
    7.8120  -16.3062   26.0623 O   0  0  0  0  0  0  0  0  0  0  0  0
   14.4592  -17.0036   22.8554 N   0  0  0  0  0  0  0  0  0  0  0  0
   15.2293  -16.9630   24.0687 C   0  0  0  0  0  0  0  0  0  0  0  0
   16.2640  -16.1977   24.1240 N   0  0  0  0  0  0  0  0  0  0  0  0
   14.8581  -17.7523   25.1894 N   0  0  0  0  0  0  0  0  0  0  0  0
   13.7344  -18.6383   25.1823 C   0  0  0  0  0  0  0  0  0  0  0  0
   12.5965  -18.1880   26.0181 C   0  0  0  0  0  0  0  0  0  0  0  0
   11.7707  -17.0699   25.5097 C   0  0  0  0  0  0  0  0  0  0  0  0
   10.6169  -16.6487   26.3542 C   0  0  2  0  0  0  0  0  0  0  0  0
    9.9278  -15.4894   25.8357 N   0  0  0  0  0  0  0  0  0  0  0  0
   10.9330  -16.5976   27.7780 C   0  0  0  0  0  0  0  0  0  0  0  0
   10.9365  -15.5393   28.4542 O   0  0  0  0  0  0  0  0  0  0  0  0
   11.2479  -17.7739   28.4372 O   0  0  0  0  0  0  0  0  0  0  0  0
  2  1  1  0
  3  2  1  0
  4  3  1  0
  5  6  1  1
  5  4  1  0
  7  5  1  0
  8  7  2  0
 10 12  1  0
 10  9  1  6
 11 10  1  0
 13 12  1  1
 13 14  1  0
 14  7  1  0
 15 13  1  0
 15 16  2  0
 18 20  1  0
 18 17  1  0
 19 18  2  0
 21 20  1  0
 22 21  1  0
 23 22  1  0
 24 23  1  6
 24 25  1  0
 25 15  1  0
 26 24  1  0
 27 26  2  0
 28 26  1  0
M  END
$$$$
