MLR.pdb
     RDKit          3D

 28 27  0  0  1  0  0  0  0  0999 V2000
    7.9099  -11.4797   19.3459 C   0  0  0  0  0  0  0  0  0  0  0  0
    7.5068  -13.0316   18.5247 S   0  0  0  0  0  0  0  0  0  0  0  0
    7.9878  -14.4656   19.5012 C   0  0  0  0  0  0  0  0  0  0  0  0
    8.3568  -14.0713   20.9285 C   0  0  0  0  0  0  0  0  0  0  0  0
    8.6583  -15.3492   21.6911 C   0  0  2  0  0  0  0  0  0  0  0  0
    7.4292  -16.1273   21.6558 N   0  0  0  0  0  0  0  0  0  0  0  0
    8.9501  -15.0674   23.1205 C   0  0  0  0  0  0  0  0  0  0  0  0
   10.0622  -14.6559   23.5040 O   0  0  0  0  0  0  0  0  0  0  0  0
    7.5575  -11.8447   26.1520 C   0  0  0  0  0  0  0  0  0  0  0  0
    6.5835  -12.9441   25.8122 C   0  0  2  0  0  0  0  0  0  0  0  0
    5.2445  -12.5771   26.4704 C   0  0  0  0  0  0  0  0  0  0  0  0
    7.0307  -14.2814   26.2340 C   0  0  0  0  0  0  0  0  0  0  0  0
    8.1570  -14.9205   25.5075 C   0  0  2  0  0  0  0  0  0  0  0  0
    7.9453  -15.2597   24.1433 N   0  0  0  0  0  0  0  0  0  0  0  0
    8.7386  -16.0678   26.2952 C   0  0  0  0  0  0  0  0  0  0  0  0
    9.3971  -15.8596   27.3472 O   0  0  0  0  0  0  0  0  0  0  0  0
   12.2406  -22.6633   23.0034 N   0  0  0  0  0  0  0  0  0  0  0  0
   13.0180  -21.6047   22.4185 C   0  0  0  0  0  0  0  0  0  0  0  0
   14.2639  -21.8135   22.1664 N   0  0  0  0  0  0  0  0  0  0  0  0
   12.4250  -20.3488   22.1223 N   0  0  0  0  0  0  0  0  0  0  0  0
   11.0751  -20.0223   22.4668 C   0  0  0  0  0  0  0  0  0  0  0  0
   10.8756  -19.6774   23.8942 C   0  0  0  0  0  0  0  0  0  0  0  0
    9.7898  -18.7281   24.2265 C   0  0  0  0  0  0  0  0  0  0  0  0
    9.6401  -18.3540   25.6616 C   0  0  2  0  0  0  0  0  0  0  0  0
    8.5721  -17.4087   25.8929 N   0  0  0  0  0  0  0  0  0  0  0  0
   10.9077  -18.0288   26.3077 C   0  0  0  0  0  0  0  0  0  0  0  0
   11.6767  -17.1166   25.9154 O   0  0  0  0  0  0  0  0  0  0  0  0
   11.2995  -18.7564   27.4187 O   0  0  0  0  0  0  0  0  0  0  0  0
  2  1  1  0
  3  2  1  0
  4  3  1  0
  5  6  1  1
  5  4  1  0
  7  5  1  0
  8  7  2  0
 10 12  1  0
 10  9  1  1
 11 10  1  0
 13 12  1  1
 13 14  1  0
 14  7  1  0
 15 13  1  0
 15 16  2  0
 18 20  1  0
 18 17  1  0
 19 18  2  0
 21 20  1  0
 22 21  1  0
 23 22  1  0
 24 23  1  6
 24 25  1  0
 25 15  1  0
 26 24  1  0
 27 26  2  0
 28 26  1  0
M  END
$$$$
