MLR.pdb
     RDKit          3D

 28 27  0  0  1  0  0  0  0  0999 V2000
    7.2775  -11.0547   19.4037 C   0  0  0  0  0  0  0  0  0  0  0  0
    7.0518  -12.5637   18.4459 S   0  0  0  0  0  0  0  0  0  0  0  0
    7.6897  -14.0152   19.2987 C   0  0  0  0  0  0  0  0  0  0  0  0
    8.3140  -13.6452   20.6411 C   0  0  0  0  0  0  0  0  0  0  0  0
    8.7246  -14.9373   21.3247 C   0  0  2  0  0  0  0  0  0  0  0  0
    7.5395  -15.7817   21.3136 N   0  0  0  0  0  0  0  0  0  0  0  0
    9.0760  -14.7048   22.7495 C   0  0  0  0  0  0  0  0  0  0  0  0
   10.2259  -14.3838   23.1074 O   0  0  0  0  0  0  0  0  0  0  0  0
    7.6112  -11.7510   26.1327 C   0  0  0  0  0  0  0  0  0  0  0  0
    6.6936  -12.9083   25.8305 C   0  0  2  0  0  0  0  0  0  0  0  0
    5.4338  -12.7188   26.6894 C   0  0  0  0  0  0  0  0  0  0  0  0
    7.3042  -14.2256   26.0715 C   0  0  0  0  0  0  0  0  0  0  0  0
    8.3975  -14.6813   25.1759 C   0  0  2  0  0  0  0  0  0  0  0  0
    8.0884  -14.8417   23.7977 N   0  0  0  0  0  0  0  0  0  0  0  0
    9.1073  -15.8851   25.7435 C   0  0  0  0  0  0  0  0  0  0  0  0
    9.3491  -15.9696   26.9756 O   0  0  0  0  0  0  0  0  0  0  0  0
   14.2827  -21.6422   23.7014 N   0  0  0  0  0  0  0  0  0  0  0  0
   13.4356  -22.7273   24.1161 C   0  0  0  0  0  0  0  0  0  0  0  0
   13.9799  -23.8264   24.5101 N   0  0  0  0  0  0  0  0  0  0  0  0
   12.0221  -22.5928   24.0931 N   0  0  0  0  0  0  0  0  0  0  0  0
   11.3579  -21.4090   23.6402 C   0  0  0  0  0  0  0  0  0  0  0  0
   11.1354  -20.3924   24.6952 C   0  0  0  0  0  0  0  0  0  0  0  0
   10.4338  -19.1467   24.3121 C   0  0  0  0  0  0  0  0  0  0  0  0
   10.2275  -18.1342   25.3863 C   0  0  2  0  0  0  0  0  0  0  0  0
    9.5260  -16.9566   24.9288 N   0  0  0  0  0  0  0  0  0  0  0  0
   11.4294  -17.8745   26.1722 C   0  0  0  0  0  0  0  0  0  0  0  0
   12.2756  -16.9930   25.8820 O   0  0  0  0  0  0  0  0  0  0  0  0
   11.6653  -18.6329   27.3064 O   0  0  0  0  0  0  0  0  0  0  0  0
  2  1  1  0
  3  2  1  0
  4  3  1  0
  5  6  1  1
  5  4  1  0
  7  5  1  0
  8  7  2  0
 10 12  1  0
 10  9  1  1
 11 10  1  0
 13 12  1  1
 13 14  1  0
 14  7  1  0
 15 13  1  0
 15 16  2  0
 18 20  1  0
 18 17  1  0
 19 18  2  0
 21 20  1  0
 22 21  1  0
 23 22  1  0
 24 23  1  6
 24 25  1  0
 25 15  1  0
 26 24  1  0
 27 26  2  0
 28 26  1  0
M  END
$$$$
