MLR.pdb
     RDKit          3D

 28 27  0  0  1  0  0  0  0  0999 V2000
    7.4821  -11.1850   18.5832 C   0  0  0  0  0  0  0  0  0  0  0  0
    7.6586  -12.7073   17.6361 S   0  0  0  0  0  0  0  0  0  0  0  0
    7.4192  -14.1744   18.6516 C   0  0  0  0  0  0  0  0  0  0  0  0
    7.4941  -13.8427   20.1392 C   0  0  0  0  0  0  0  0  0  0  0  0
    8.2928  -14.9447   20.8125 C   0  0  2  0  0  0  0  0  0  0  0  0
    7.3954  -16.0873   20.8932 N   0  0  0  0  0  0  0  0  0  0  0  0
    8.6493  -14.5762   22.2072 C   0  0  0  0  0  0  0  0  0  0  0  0
    9.7054  -13.9769   22.4877 O   0  0  0  0  0  0  0  0  0  0  0  0
    5.9590  -12.9579   27.5087 C   0  0  0  0  0  0  0  0  0  0  0  0
    7.2003  -13.4353   26.7987 C   0  0  2  0  0  0  0  0  0  0  0  0
    8.2430  -12.3126   26.9130 C   0  0  0  0  0  0  0  0  0  0  0  0
    6.9722  -13.8034   25.3921 C   0  0  0  0  0  0  0  0  0  0  0  0
    8.0507  -14.5079   24.6537 C   0  0  2  0  0  0  0  0  0  0  0  0
    7.7770  -14.8999   23.3149 N   0  0  0  0  0  0  0  0  0  0  0  0
    8.6288  -15.6369   25.4699 C   0  0  0  0  0  0  0  0  0  0  0  0
    7.8782  -16.4361   26.0876 O   0  0  0  0  0  0  0  0  0  0  0  0
   14.5369  -14.6136   21.9521 N   0  0  0  0  0  0  0  0  0  0  0  0
   13.6353  -15.2992   21.0667 C   0  0  0  0  0  0  0  0  0  0  0  0
   13.4559  -14.8345   19.8787 N   0  0  0  0  0  0  0  0  0  0  0  0
   12.9523  -16.4695   21.4918 N   0  0  0  0  0  0  0  0  0  0  0  0
   13.0594  -16.9977   22.8173 C   0  0  0  0  0  0  0  0  0  0  0  0
   11.8386  -16.8322   23.6410 C   0  0  0  0  0  0  0  0  0  0  0  0
   11.8676  -17.3551   25.0253 C   0  0  0  0  0  0  0  0  0  0  0  0
   10.6591  -17.1082   25.8622 C   0  0  2  0  0  0  0  0  0  0  0  0
   10.0191  -15.8448   25.5757 N   0  0  0  0  0  0  0  0  0  0  0  0
   10.8715  -17.3893   27.2784 C   0  0  0  0  0  0  0  0  0  0  0  0
   11.3228  -18.4776   27.7135 O   0  0  0  0  0  0  0  0  0  0  0  0
   10.5648  -16.4110   28.2091 O   0  0  0  0  0  0  0  0  0  0  0  0
  2  1  1  0
  3  2  1  0
  4  3  1  0
  5  6  1  1
  5  4  1  0
  7  5  1  0
  8  7  2  0
 10 12  1  0
 10  9  1  6
 11 10  1  0
 13 12  1  1
 13 14  1  0
 14  7  1  0
 15 13  1  0
 15 16  2  0
 18 20  1  0
 18 17  1  0
 19 18  2  0
 21 20  1  0
 22 21  1  0
 23 22  1  0
 24 23  1  6
 24 25  1  0
 25 15  1  0
 26 24  1  0
 27 26  2  0
 28 26  1  0
M  END
$$$$
