MLR.pdb
     RDKit          3D

 28 27  0  0  1  0  0  0  0  0999 V2000
    9.9069  -14.3773   30.4818 C   0  0  0  0  0  0  0  0  0  0  0  0
    9.3726  -15.3571   29.0677 S   0  0  0  0  0  0  0  0  0  0  0  0
    9.7997  -17.0973   29.2427 C   0  0  0  0  0  0  0  0  0  0  0  0
    9.3087  -17.9156   28.0519 C   0  0  0  0  0  0  0  0  0  0  0  0
    7.8234  -17.6430   27.8926 C   0  0  2  0  0  0  0  0  0  0  0  0
    7.1687  -18.9339   28.0415 N   0  0  0  0  0  0  0  0  0  0  0  0
    7.5091  -17.1546   26.5250 C   0  0  0  0  0  0  0  0  0  0  0  0
    7.3754  -17.9279   25.5568 O   0  0  0  0  0  0  0  0  0  0  0  0
    5.1671  -12.9931   25.9537 C   0  0  0  0  0  0  0  0  0  0  0  0
    6.6745  -12.9829   25.9369 C   0  0  2  0  0  0  0  0  0  0  0  0
    7.1135  -11.5107   25.9145 C   0  0  0  0  0  0  0  0  0  0  0  0
    7.2582  -13.7257   24.8082 C   0  0  0  0  0  0  0  0  0  0  0  0
    7.4756  -15.1876   24.9507 C   0  0  2  0  0  0  0  0  0  0  0  0
    7.3421  -15.7438   26.2522 N   0  0  0  0  0  0  0  0  0  0  0  0
    8.7522  -15.6219   24.2749 C   0  0  0  0  0  0  0  0  0  0  0  0
    9.8479  -15.6032   24.8935 O   0  0  0  0  0  0  0  0  0  0  0  0
    7.2505  -13.0714   17.5120 N   0  0  0  0  0  0  0  0  0  0  0  0
    8.4679  -12.9684   18.2698 C   0  0  0  0  0  0  0  0  0  0  0  0
    9.0473  -11.8217   18.3641 N   0  0  0  0  0  0  0  0  0  0  0  0
    9.0248  -14.1098   18.9051 N   0  0  0  0  0  0  0  0  0  0  0  0
    8.2715  -15.2947   19.1813 C   0  0  0  0  0  0  0  0  0  0  0  0
    9.0399  -16.3608   19.8664 C   0  0  0  0  0  0  0  0  0  0  0  0
   10.0605  -15.9453   20.8545 C   0  0  0  0  0  0  0  0  0  0  0  0
    9.9444  -16.5230   22.2237 C   0  0  2  0  0  0  0  0  0  0  0  0
    8.7745  -16.0631   22.9361 N   0  0  0  0  0  0  0  0  0  0  0  0
   11.1919  -16.4701   22.9792 C   0  0  0  0  0  0  0  0  0  0  0  0
   11.2866  -15.9922   24.1368 O   0  0  0  0  0  0  0  0  0  0  0  0
   12.3463  -16.9725   22.4027 O   0  0  0  0  0  0  0  0  0  0  0  0
  2  1  1  0
  3  2  1  0
  4  3  1  0
  5  6  1  6
  5  4  1  0
  7  5  1  0
  8  7  2  0
 10 12  1  0
 10  9  1  6
 11 10  1  0
 13 12  1  1
 13 14  1  0
 14  7  1  0
 15 13  1  0
 15 16  2  0
 18 20  1  0
 18 17  1  0
 19 18  2  0
 21 20  1  0
 22 21  1  0
 23 22  1  0
 24 23  1  6
 24 25  1  0
 25 15  1  0
 26 24  1  0
 27 26  2  0
 28 26  1  0
M  END
$$$$
