MLR.pdb
     RDKit          3D

 28 27  0  0  1  0  0  0  0  0999 V2000
    4.9061  -13.2719   28.3070 C   0  0  0  0  0  0  0  0  0  0  0  0
    4.8100  -11.7602   27.3319 S   0  0  0  0  0  0  0  0  0  0  0  0
    5.9444  -11.7764   25.9341 C   0  0  0  0  0  0  0  0  0  0  0  0
    6.2037  -13.1972   25.4414 C   0  0  0  0  0  0  0  0  0  0  0  0
    7.6598  -13.2744   25.0178 C   0  0  2  0  0  0  0  0  0  0  0  0
    7.9530  -11.9977   24.3842 N   0  0  0  0  0  0  0  0  0  0  0  0
    7.8661  -14.3252   23.9877 C   0  0  0  0  0  0  0  0  0  0  0  0
    7.5498  -15.5154   24.1788 O   0  0  0  0  0  0  0  0  0  0  0  0
    6.6399  -14.4924   19.4379 C   0  0  0  0  0  0  0  0  0  0  0  0
    7.9100  -13.7526   19.7726 C   0  0  2  0  0  0  0  0  0  0  0  0
    8.3932  -13.0811   18.4779 C   0  0  0  0  0  0  0  0  0  0  0  0
    8.9597  -14.6098   20.3469 C   0  0  0  0  0  0  0  0  0  0  0  0
    8.8562  -15.0079   21.7737 C   0  0  2  0  0  0  0  0  0  0  0  0
    8.4498  -14.0109   22.7019 N   0  0  0  0  0  0  0  0  0  0  0  0
   10.0928  -15.7405   22.2309 C   0  0  0  0  0  0  0  0  0  0  0  0
   11.2347  -15.2325   22.0837 O   0  0  0  0  0  0  0  0  0  0  0  0
   10.4219  -17.0357   29.7620 N   0  0  0  0  0  0  0  0  0  0  0  0
   11.2271  -16.3674   28.7761 C   0  0  0  0  0  0  0  0  0  0  0  0
   11.1123  -15.0916   28.6394 N   0  0  0  0  0  0  0  0  0  0  0  0
   12.1350  -17.0986   27.9651 N   0  0  0  0  0  0  0  0  0  0  0  0
   11.7859  -18.3227   27.3114 C   0  0  0  0  0  0  0  0  0  0  0  0
   11.9650  -18.3019   25.8404 C   0  0  0  0  0  0  0  0  0  0  0  0
   10.9039  -17.6659   25.0279 C   0  0  0  0  0  0  0  0  0  0  0  0
   11.1020  -17.6590   23.5506 C   0  0  2  0  0  0  0  0  0  0  0  0
   10.0253  -17.0116   22.8369 N   0  0  0  0  0  0  0  0  0  0  0  0
   11.5089  -18.9552   23.0176 C   0  0  0  0  0  0  0  0  0  0  0  0
   12.5555  -19.5555   23.3662 O   0  0  0  0  0  0  0  0  0  0  0  0
   10.7061  -19.5736   22.0739 O   0  0  0  0  0  0  0  0  0  0  0  0
  2  1  1  0
  3  2  1  0
  4  3  1  0
  5  6  1  6
  5  4  1  0
  7  5  1  0
  8  7  2  0
 10 12  1  0
 10  9  1  6
 11 10  1  0
 13 12  1  6
 13 14  1  0
 14  7  1  0
 15 13  1  0
 15 16  2  0
 18 20  1  0
 18 17  1  0
 19 18  2  0
 21 20  1  0
 22 21  1  0
 23 22  1  0
 24 23  1  1
 24 25  1  0
 25 15  1  0
 26 24  1  0
 27 26  2  0
 28 26  1  0
M  END
$$$$
