YYE.pdb
     RDKit          3D

 34 35  0  0  1  0  0  0  0  0999 V2000
    7.1565  -10.9846   26.7556 O   0  0  0  0  0  0  0  0  0  0  0  0
    7.1911  -12.3845   26.9202 C   0  0  0  0  0  0  0  0  0  0  0  0
    8.3616  -13.0752   27.0839 C   0  0  0  0  0  0  0  0  0  0  0  0
    8.3981  -14.4483   27.2459 C   0  0  0  0  0  0  0  0  0  0  0  0
    7.2108  -15.1367   27.2411 C   0  0  0  0  0  0  0  0  0  0  0  0
    7.2291  -16.6158   27.4100 C   0  0  0  0  0  0  0  0  0  0  0  0
    6.6016  -17.3243   26.2364 C   0  0  2  0  0  0  0  0  0  0  0  0
    6.5917  -18.7531   26.4789 N   0  0  0  0  0  0  0  0  0  0  0  0
    7.3185  -17.0753   24.9761 C   0  0  0  0  0  0  0  0  0  0  0  0
    8.3031  -17.7820   24.6460 O   0  0  0  0  0  0  0  0  0  0  0  0
    6.0124  -14.4791   27.0795 C   0  0  0  0  0  0  0  0  0  0  0  0
    6.0163  -13.1118   26.9211 C   0  0  0  0  0  0  0  0  0  0  0  0
    8.9234  -13.2973   17.0431 O   0  0  0  0  0  0  0  0  0  0  0  0
    8.4578  -13.5717   18.3253 C   0  0  0  0  0  0  0  0  0  0  0  0
    8.6875  -12.7068   19.3758 C   0  0  0  0  0  0  0  0  0  0  0  0
    8.2229  -12.9731   20.6695 C   0  0  0  0  0  0  0  0  0  0  0  0
    7.5169  -14.1195   20.9233 C   0  0  0  0  0  0  0  0  0  0  0  0
    6.9997  -14.4571   22.2602 C   0  0  0  0  0  0  0  0  0  0  0  0
    7.6000  -15.7298   22.8364 C   0  0  2  0  0  0  0  0  0  0  0  0
    6.9494  -16.0373   24.0689 N   0  0  0  0  0  0  0  0  0  0  0  0
    9.0490  -15.4413   23.0131 C   0  0  0  0  0  0  0  0  0  0  0  0
    9.3859  -14.7471   24.0006 O   0  0  0  0  0  0  0  0  0  0  0  0
    7.2783  -14.9980   19.8774 C   0  0  0  0  0  0  0  0  0  0  0  0
    7.7407  -14.7285   18.6004 C   0  0  0  0  0  0  0  0  0  0  0  0
   10.0393  -15.9072   22.1315 N   0  0  0  0  0  0  0  0  0  0  0  0
   11.4866  -15.6716   22.3777 C   0  0  1  0  0  0  0  0  0  0  0  0
   11.8808  -16.7049   23.3782 C   0  0  0  0  0  0  0  0  0  0  0  0
   13.2892  -16.9687   23.6731 C   0  0  0  0  0  0  0  0  0  0  0  0
   13.6689  -18.0403   24.5830 C   0  0  0  0  0  0  0  0  0  0  0  0
   14.9125  -18.3216   24.7030 O   0  0  0  0  0  0  0  0  0  0  0  0
   12.1141  -15.9424   21.0638 C   0  0  0  0  0  0  0  0  0  0  0  0
   11.4507  -16.6706   20.2389 O   0  0  0  0  0  0  0  0  0  0  0  0
   12.7712  -18.7783   25.3329 O   0  0  0  0  0  0  0  0  0  0  0  0
   13.3312  -15.4948   20.6251 O   0  0  0  0  0  0  0  0  0  0  0  0
  2  1  1  0
  3  2  2  0
  4  3  1  0
  5  4  2  0
  5 11  1  0
  6  7  1  0
  6  5  1  0
  7  9  1  0
  7  8  1  1
  9 10  2  0
 11 12  2  0
 12  2  1  0
 13 14  1  0
 14 24  2  0
 15 14  1  0
 16 15  2  0
 16 17  1  0
 17 23  2  0
 18 17  1  0
 19 18  1  1
 20 19  1  0
 20  9  1  0
 21 19  1  0
 21 25  1  0
 22 21  2  0
 23 24  1  0
 26 25  1  0
 26 27  1  1
 27 28  1  0
 28 29  1  0
 29 33  1  0
 30 29  2  0
 31 26  1  0
 32 31  2  0
 34 31  1  0
M  END
$$$$
