YYE.pdb
     RDKit          3D

 34 35  0  0  1  0  0  0  0  0999 V2000
    9.3724  -14.7784   20.9070 O   0  0  0  0  0  0  0  0  0  0  0  0
    8.0933  -15.3587   21.0299 C   0  0  0  0  0  0  0  0  0  0  0  0
    7.4560  -15.4809   22.2353 C   0  0  0  0  0  0  0  0  0  0  0  0
    6.2011  -16.0494   22.3585 C   0  0  0  0  0  0  0  0  0  0  0  0
    5.5784  -16.5059   21.2239 C   0  0  0  0  0  0  0  0  0  0  0  0
    4.2290  -17.1247   21.3359 C   0  0  0  0  0  0  0  0  0  0  0  0
    4.2981  -18.6308   21.3299 C   0  0  2  0  0  0  0  0  0  0  0  0
    2.9569  -19.1797   21.3504 N   0  0  0  0  0  0  0  0  0  0  0  0
    5.0339  -19.1678   22.4851 C   0  0  0  0  0  0  0  0  0  0  0  0
    4.6533  -18.9279   23.6579 O   0  0  0  0  0  0  0  0  0  0  0  0
    6.1855  -16.4012   19.9928 C   0  0  0  0  0  0  0  0  0  0  0  0
    7.4347  -15.8294   19.9102 C   0  0  0  0  0  0  0  0  0  0  0  0
    2.2202  -24.0994   25.7585 O   0  0  0  0  0  0  0  0  0  0  0  0
    3.3728  -23.5867   25.1715 C   0  0  0  0  0  0  0  0  0  0  0  0
    3.4403  -23.3345   23.8163 C   0  0  0  0  0  0  0  0  0  0  0  0
    4.5948  -22.8182   23.2157 C   0  0  0  0  0  0  0  0  0  0  0  0
    5.7021  -22.5473   23.9759 C   0  0  0  0  0  0  0  0  0  0  0  0
    6.9457  -22.0022   23.4060 C   0  0  0  0  0  0  0  0  0  0  0  0
    7.0006  -20.4826   23.4186 C   0  0  2  0  0  0  0  0  0  0  0  0
    6.2016  -19.9770   22.3496 N   0  0  0  0  0  0  0  0  0  0  0  0
    8.4397  -20.1355   23.2683 C   0  0  0  0  0  0  0  0  0  0  0  0
    8.9304  -20.1825   22.1162 O   0  0  0  0  0  0  0  0  0  0  0  0
    5.6489  -22.7955   25.3390 C   0  0  0  0  0  0  0  0  0  0  0  0
    4.5039  -23.3063   25.9266 C   0  0  0  0  0  0  0  0  0  0  0  0
    9.2583  -19.7640   24.3486 N   0  0  0  0  0  0  0  0  0  0  0  0
   10.7039  -19.4634   24.1739 C   0  0  1  0  0  0  0  0  0  0  0  0
   10.7835  -17.9756   24.1099 C   0  0  0  0  0  0  0  0  0  0  0  0
   12.0757  -17.2928   24.0442 C   0  0  0  0  0  0  0  0  0  0  0  0
   12.1480  -15.8384   24.0538 C   0  0  0  0  0  0  0  0  0  0  0  0
   11.8493  -15.2237   25.1368 O   0  0  0  0  0  0  0  0  0  0  0  0
   11.3206  -19.9719   25.4206 C   0  0  0  0  0  0  0  0  0  0  0  0
   10.5565  -20.0811   26.4477 O   0  0  0  0  0  0  0  0  0  0  0  0
   12.5219  -15.0712   22.9654 O   0  0  0  0  0  0  0  0  0  0  0  0
   12.6251  -20.3467   25.6002 O   0  0  0  0  0  0  0  0  0  0  0  0
  2  1  1  0
  3  2  2  0
  4  3  1  0
  5  4  2  0
  5 11  1  0
  6  7  1  0
  6  5  1  0
  7  9  1  0
  7  8  1  1
  9 10  2  0
 11 12  2  0
 12  2  1  0
 13 14  1  0
 14 24  2  0
 15 14  1  0
 16 15  2  0
 16 17  1  0
 17 23  2  0
 18 17  1  0
 19 18  1  6
 20 19  1  0
 20  9  1  0
 21 19  1  0
 21 25  1  0
 22 21  2  0
 23 24  1  0
 26 25  1  0
 26 27  1  1
 27 28  1  0
 28 29  1  0
 29 33  1  0
 30 29  2  0
 31 26  1  0
 32 31  2  0
 34 31  1  0
M  END
$$$$
