YYE.pdb
     RDKit          3D

 34 35  0  0  1  0  0  0  0  0999 V2000
    7.8378  -13.7084   14.9524 O   0  0  0  0  0  0  0  0  0  0  0  0
    8.1051  -13.7194   16.3367 C   0  0  0  0  0  0  0  0  0  0  0  0
    7.6342  -12.7514   17.1825 C   0  0  0  0  0  0  0  0  0  0  0  0
    7.8947  -12.7601   18.5408 C   0  0  0  0  0  0  0  0  0  0  0  0
    8.6552  -13.7820   19.0518 C   0  0  0  0  0  0  0  0  0  0  0  0
    8.9502  -13.8071   20.5109 C   0  0  0  0  0  0  0  0  0  0  0  0
    9.0508  -15.2151   21.0407 C   0  0  2  0  0  0  0  0  0  0  0  0
    7.8028  -15.9137   20.8063 N   0  0  0  0  0  0  0  0  0  0  0  0
    9.3394  -15.2576   22.4826 C   0  0  0  0  0  0  0  0  0  0  0  0
   10.4022  -14.7688   22.9402 O   0  0  0  0  0  0  0  0  0  0  0  0
    9.1472  -14.7746   18.2348 C   0  0  0  0  0  0  0  0  0  0  0  0
    8.8667  -14.7319   16.8880 C   0  0  0  0  0  0  0  0  0  0  0  0
    6.1189  -10.6338   27.3799 O   0  0  0  0  0  0  0  0  0  0  0  0
    6.4312  -11.9182   26.9454 C   0  0  0  0  0  0  0  0  0  0  0  0
    7.3599  -12.6965   27.6060 C   0  0  0  0  0  0  0  0  0  0  0  0
    7.6810  -13.9902   27.1775 C   0  0  0  0  0  0  0  0  0  0  0  0
    7.0675  -14.5199   26.0728 C   0  0  0  0  0  0  0  0  0  0  0  0
    7.3591  -15.8737   25.5721 C   0  0  0  0  0  0  0  0  0  0  0  0
    8.6849  -15.9722   24.8339 C   0  0  2  0  0  0  0  0  0  0  0  0
    8.4501  -15.8445   23.4320 N   0  0  0  0  0  0  0  0  0  0  0  0
    9.2455  -17.3011   25.1994 C   0  0  0  0  0  0  0  0  0  0  0  0
    8.5711  -18.3158   24.9058 O   0  0  0  0  0  0  0  0  0  0  0  0
    6.1320  -13.7496   25.3990 C   0  0  0  0  0  0  0  0  0  0  0  0
    5.8192  -12.4708   25.8281 C   0  0  0  0  0  0  0  0  0  0  0  0
   10.4803  -17.4624   25.8507 N   0  0  0  0  0  0  0  0  0  0  0  0
   11.0120  -18.8039   26.2093 C   0  0  1  0  0  0  0  0  0  0  0  0
   12.4591  -18.7532   25.8528 C   0  0  0  0  0  0  0  0  0  0  0  0
   13.3579  -19.8558   26.1945 C   0  0  0  0  0  0  0  0  0  0  0  0
   14.7678  -19.8030   25.8339 C   0  0  0  0  0  0  0  0  0  0  0  0
   15.1976  -18.7659   25.2178 O   0  0  0  0  0  0  0  0  0  0  0  0
   10.8321  -18.8709   27.6778 C   0  0  0  0  0  0  0  0  0  0  0  0
   10.7256  -20.0399   28.2002 O   0  0  0  0  0  0  0  0  0  0  0  0
   15.6805  -20.8033   26.1158 O   0  0  0  0  0  0  0  0  0  0  0  0
   10.7711  -17.8163   28.5486 O   0  0  0  0  0  0  0  0  0  0  0  0
  2  1  1  0
  3  2  2  0
  4  3  1  0
  5  4  2  0
  5 11  1  0
  6  7  1  0
  6  5  1  0
  7  9  1  0
  7  8  1  1
  9 10  2  0
 11 12  2  0
 12  2  1  0
 13 14  1  0
 14 24  2  0
 15 14  1  0
 16 15  2  0
 16 17  1  0
 17 23  2  0
 18 17  1  0
 19 18  1  1
 20 19  1  0
 20  9  1  0
 21 19  1  0
 21 25  1  0
 22 21  2  0
 23 24  1  0
 26 25  1  0
 26 27  1  1
 27 28  1  0
 28 29  1  0
 29 33  1  0
 30 29  2  0
 31 26  1  0
 32 31  2  0
 34 31  1  0
M  END
$$$$
