YYE.pdb
     RDKit          3D

 34 35  0  0  1  0  0  0  0  0999 V2000
    7.4904  -14.8253   13.2742 O   0  0  0  0  0  0  0  0  0  0  0  0
    7.9832  -14.5868   14.5734 C   0  0  0  0  0  0  0  0  0  0  0  0
    7.4030  -13.6846   15.4239 C   0  0  0  0  0  0  0  0  0  0  0  0
    7.8843  -13.4490   16.6991 C   0  0  0  0  0  0  0  0  0  0  0  0
    8.9861  -14.1511   17.1196 C   0  0  0  0  0  0  0  0  0  0  0  0
    9.5220  -13.9091   18.4873 C   0  0  0  0  0  0  0  0  0  0  0  0
    9.3922  -15.1271   19.3665 C   0  0  2  0  0  0  0  0  0  0  0  0
    8.0966  -15.7421   19.1579 N   0  0  0  0  0  0  0  0  0  0  0  0
    9.5272  -14.8093   20.7965 C   0  0  0  0  0  0  0  0  0  0  0  0
   10.6178  -14.3962   21.2632 O   0  0  0  0  0  0  0  0  0  0  0  0
    9.5983  -15.0675   16.2947 C   0  0  0  0  0  0  0  0  0  0  0  0
    9.0902  -15.2746   15.0324 C   0  0  0  0  0  0  0  0  0  0  0  0
    7.2015  -12.4753   29.0237 O   0  0  0  0  0  0  0  0  0  0  0  0
    7.1922  -12.8923   27.6963 C   0  0  0  0  0  0  0  0  0  0  0  0
    6.7427  -14.1470   27.3382 C   0  0  0  0  0  0  0  0  0  0  0  0
    6.7286  -14.5762   26.0055 C   0  0  0  0  0  0  0  0  0  0  0  0
    7.1688  -13.7430   25.0109 C   0  0  0  0  0  0  0  0  0  0  0  0
    7.1780  -14.1330   23.5909 C   0  0  0  0  0  0  0  0  0  0  0  0
    8.5145  -14.6902   23.1263 C   0  0  2  0  0  0  0  0  0  0  0  0
    8.4515  -14.9480   21.7241 N   0  0  0  0  0  0  0  0  0  0  0  0
    8.7283  -15.9276   23.9245 C   0  0  0  0  0  0  0  0  0  0  0  0
    7.8824  -16.8451   23.8100 O   0  0  0  0  0  0  0  0  0  0  0  0
    7.6232  -12.4791   25.3557 C   0  0  0  0  0  0  0  0  0  0  0  0
    7.6345  -12.0611   26.6757 C   0  0  0  0  0  0  0  0  0  0  0  0
    9.8222  -16.1063   24.7885 N   0  0  0  0  0  0  0  0  0  0  0  0
   10.1732  -17.4378   25.3494 C   0  0  1  0  0  0  0  0  0  0  0  0
   11.6281  -17.6040   25.0670 C   0  0  0  0  0  0  0  0  0  0  0  0
   12.3850  -18.7150   25.6441 C   0  0  0  0  0  0  0  0  0  0  0  0
   13.7917  -18.9031   25.3182 C   0  0  0  0  0  0  0  0  0  0  0  0
   14.6675  -18.3438   26.0668 O   0  0  0  0  0  0  0  0  0  0  0  0
    9.9319  -17.2808   26.8021 C   0  0  0  0  0  0  0  0  0  0  0  0
    9.5588  -18.3266   27.4485 O   0  0  0  0  0  0  0  0  0  0  0  0
   14.2489  -19.6518   24.2489 O   0  0  0  0  0  0  0  0  0  0  0  0
   10.0682  -16.1357   27.5400 O   0  0  0  0  0  0  0  0  0  0  0  0
  2  1  1  0
  3  2  2  0
  4  3  1  0
  5  4  2  0
  5 11  1  0
  6  7  1  0
  6  5  1  0
  7  9  1  0
  7  8  1  1
  9 10  2  0
 11 12  2  0
 12  2  1  0
 13 14  1  0
 14 24  2  0
 15 14  1  0
 16 15  2  0
 16 17  1  0
 17 23  2  0
 18 17  1  0
 19 18  1  1
 20 19  1  0
 20  9  1  0
 21 19  1  0
 21 25  1  0
 22 21  2  0
 23 24  1  0
 26 25  1  0
 26 27  1  1
 27 28  1  0
 28 29  1  0
 29 33  1  0
 30 29  2  0
 31 26  1  0
 32 31  2  0
 34 31  1  0
M  END
$$$$
