YYE.pdb
     RDKit          3D

 34 35  0  0  1  0  0  0  0  0999 V2000
    5.1700  -19.5305   16.1393 O   0  0  0  0  0  0  0  0  0  0  0  0
    6.0296  -19.1217   17.1794 C   0  0  0  0  0  0  0  0  0  0  0  0
    5.6053  -18.9952   18.4747 C   0  0  0  0  0  0  0  0  0  0  0  0
    6.4466  -18.5946   19.4969 C   0  0  0  0  0  0  0  0  0  0  0  0
    7.7553  -18.3153   19.1918 C   0  0  0  0  0  0  0  0  0  0  0  0
    8.6759  -17.8788   20.2773 C   0  0  0  0  0  0  0  0  0  0  0  0
    8.6956  -16.3789   20.4296 C   0  0  2  0  0  0  0  0  0  0  0  0
    9.3199  -15.7797   19.2670 N   0  0  0  0  0  0  0  0  0  0  0  0
    9.4321  -15.9414   21.6256 C   0  0  0  0  0  0  0  0  0  0  0  0
   10.6811  -15.8113   21.5996 O   0  0  0  0  0  0  0  0  0  0  0  0
    8.2211  -18.4305   17.9016 C   0  0  0  0  0  0  0  0  0  0  0  0
    7.3537  -18.8321   16.9112 C   0  0  0  0  0  0  0  0  0  0  0  0
   10.4757  -14.4332   30.3865 O   0  0  0  0  0  0  0  0  0  0  0  0
    9.9655  -14.5629   29.0985 C   0  0  0  0  0  0  0  0  0  0  0  0
    9.3930  -15.7415   28.6655 C   0  0  0  0  0  0  0  0  0  0  0  0
    8.8763  -15.8823   27.3718 C   0  0  0  0  0  0  0  0  0  0  0  0
    8.9292  -14.8325   26.4930 C   0  0  0  0  0  0  0  0  0  0  0  0
    8.4023  -14.9153   25.1204 C   0  0  0  0  0  0  0  0  0  0  0  0
    9.4404  -15.3565   24.1006 C   0  0  2  0  0  0  0  0  0  0  0  0
    8.7884  -15.6444   22.8642 N   0  0  0  0  0  0  0  0  0  0  0  0
   10.0950  -16.5545   24.6925 C   0  0  0  0  0  0  0  0  0  0  0  0
    9.3826  -17.5664   24.8904 O   0  0  0  0  0  0  0  0  0  0  0  0
    9.5015  -13.6418   26.9142 C   0  0  0  0  0  0  0  0  0  0  0  0
   10.0108  -13.5094   28.1950 C   0  0  0  0  0  0  0  0  0  0  0  0
   11.4576  -16.5968   25.0340 N   0  0  0  0  0  0  0  0  0  0  0  0
   12.1532  -17.8747   25.3403 C   0  0  1  0  0  0  0  0  0  0  0  0
   13.4253  -17.8170   24.5642 C   0  0  0  0  0  0  0  0  0  0  0  0
   14.5546  -17.0111   25.0285 C   0  0  0  0  0  0  0  0  0  0  0  0
   15.4297  -16.3418   24.0763 C   0  0  0  0  0  0  0  0  0  0  0  0
   16.3368  -15.5608   24.5319 O   0  0  0  0  0  0  0  0  0  0  0  0
   12.4178  -17.7897   26.7949 C   0  0  0  0  0  0  0  0  0  0  0  0
   12.2233  -16.6515   27.3583 O   0  0  0  0  0  0  0  0  0  0  0  0
   15.3483  -16.4953   22.7042 O   0  0  0  0  0  0  0  0  0  0  0  0
   12.8456  -18.7998   27.6141 O   0  0  0  0  0  0  0  0  0  0  0  0
  2  1  1  0
  3  2  2  0
  4  3  1  0
  5  4  2  0
  5 11  1  0
  6  7  1  0
  6  5  1  0
  7  9  1  0
  7  8  1  6
  9 10  2  0
 11 12  2  0
 12  2  1  0
 13 14  1  0
 14 24  2  0
 15 14  1  0
 16 15  2  0
 16 17  1  0
 17 23  2  0
 18 17  1  0
 19 18  1  1
 20 19  1  0
 20  9  1  0
 21 19  1  0
 21 25  1  0
 22 21  2  0
 23 24  1  0
 26 25  1  0
 26 27  1  6
 27 28  1  0
 28 29  1  0
 29 33  1  0
 30 29  2  0
 31 26  1  0
 32 31  2  0
 34 31  1  0
M  END
$$$$
