YYE.pdb
     RDKit          3D

 34 35  0  0  1  0  0  0  0  0999 V2000
    6.1058  -13.0761   15.6764 O   0  0  0  0  0  0  0  0  0  0  0  0
    6.7249  -13.6400   16.8107 C   0  0  0  0  0  0  0  0  0  0  0  0
    7.6179  -12.9446   17.5808 C   0  0  0  0  0  0  0  0  0  0  0  0
    8.2263  -13.4954   18.6942 C   0  0  0  0  0  0  0  0  0  0  0  0
    7.9172  -14.7890   19.0325 C   0  0  0  0  0  0  0  0  0  0  0  0
    8.5645  -15.4014   20.2252 C   0  0  0  0  0  0  0  0  0  0  0  0
    9.5171  -14.4477   20.9007 C   0  0  2  0  0  0  0  0  0  0  0  0
   10.6559  -14.2047   20.0380 N   0  0  0  0  0  0  0  0  0  0  0  0
   10.0139  -14.9607   22.1868 C   0  0  0  0  0  0  0  0  0  0  0  0
   11.0296  -15.6981   22.2358 O   0  0  0  0  0  0  0  0  0  0  0  0
    7.0240  -15.5219   18.2841 C   0  0  0  0  0  0  0  0  0  0  0  0
    6.4387  -14.9395   17.1830 C   0  0  0  0  0  0  0  0  0  0  0  0
   10.5406  -15.6239   31.0999 O   0  0  0  0  0  0  0  0  0  0  0  0
   10.1223  -15.3850   29.7945 C   0  0  0  0  0  0  0  0  0  0  0  0
    9.4031  -16.3251   29.0849 C   0  0  0  0  0  0  0  0  0  0  0  0
    8.9770  -16.0947   27.7713 C   0  0  0  0  0  0  0  0  0  0  0  0
    9.2705  -14.9082   27.1521 C   0  0  0  0  0  0  0  0  0  0  0  0
    8.8503  -14.6035   25.7740 C   0  0  0  0  0  0  0  0  0  0  0  0
    9.8520  -15.0555   24.7231 C   0  0  2  0  0  0  0  0  0  0  0  0
    9.3866  -14.6605   23.4330 N   0  0  0  0  0  0  0  0  0  0  0  0
    9.9415  -16.5335   24.8690 C   0  0  0  0  0  0  0  0  0  0  0  0
    8.9279  -17.2081   24.5720 O   0  0  0  0  0  0  0  0  0  0  0  0
    9.9924  -13.9540   27.8528 C   0  0  0  0  0  0  0  0  0  0  0  0
   10.4109  -14.1885   29.1517 C   0  0  0  0  0  0  0  0  0  0  0  0
   11.0975  -17.1935   25.3198 N   0  0  0  0  0  0  0  0  0  0  0  0
   11.1456  -18.6699   25.4894 C   0  0  1  0  0  0  0  0  0  0  0  0
   12.3298  -19.1107   24.6974 C   0  0  0  0  0  0  0  0  0  0  0  0
   12.4368  -18.8066   23.2704 C   0  0  0  0  0  0  0  0  0  0  0  0
   13.5815  -19.2672   22.4972 C   0  0  0  0  0  0  0  0  0  0  0  0
   14.7523  -18.9169   22.8801 O   0  0  0  0  0  0  0  0  0  0  0  0
   11.3845  -18.8483   26.9400 C   0  0  0  0  0  0  0  0  0  0  0  0
   11.7375  -17.8078   27.6060 O   0  0  0  0  0  0  0  0  0  0  0  0
   13.4892  -20.0646   21.3708 O   0  0  0  0  0  0  0  0  0  0  0  0
   11.2651  -20.0083   27.6573 O   0  0  0  0  0  0  0  0  0  0  0  0
  2  1  1  0
  3  2  2  0
  4  3  1  0
  5  4  2  0
  5 11  1  0
  6  7  1  0
  6  5  1  0
  7  9  1  0
  7  8  1  6
  9 10  2  0
 11 12  2  0
 12  2  1  0
 13 14  1  0
 14 24  2  0
 15 14  1  0
 16 15  2  0
 16 17  1  0
 17 23  2  0
 18 17  1  0
 19 18  1  1
 20 19  1  0
 20  9  1  0
 21 19  1  0
 21 25  1  0
 22 21  2  0
 23 24  1  0
 26 25  1  0
 26 27  1  6
 27 28  1  0
 28 29  1  0
 29 33  1  0
 30 29  2  0
 31 26  1  0
 32 31  2  0
 34 31  1  0
M  END
$$$$
