SES.pdb
     RDKit          3D

 22 21  0  0  1  0  0  0  0  0999 V2000
   14.4391  -11.2182  -15.6999 O   0  0  0  0  0  0  0  0  0  0  0  0
   14.9842  -10.1233  -15.0735 C   0  0  0  0  0  0  0  0  0  0  0  0
   16.2689  -10.4190  -14.3136 C   0  0  2  0  0  0  0  0  0  0  0  0
   15.8594  -11.2844  -13.2091 N   0  0  0  0  0  0  0  0  0  0  0  0
   16.8914   -9.1767  -13.8028 C   0  0  0  0  0  0  0  0  0  0  0  0
   16.6039   -8.7809  -12.6593 O   0  0  0  0  0  0  0  0  0  0  0  0
   17.7974   -8.4412  -14.5892 N   0  0  0  0  0  0  0  0  0  0  0  0
   18.4318   -7.2211  -14.2542 C   0  0  1  0  0  0  0  0  0  0  0  0
   19.9123   -7.1988  -14.2221 C   0  0  0  0  0  0  0  0  0  0  0  0
   20.5641   -5.9045  -13.8711 C   0  0  0  0  0  0  0  0  0  0  0  0
   22.0418   -6.1933  -13.7956 C   0  0  0  0  0  0  0  0  0  0  0  0
   22.8526   -5.2578  -13.5084 O   0  0  0  0  0  0  0  0  0  0  0  0
   17.8940   -6.0051  -14.9218 C   0  0  0  0  0  0  0  0  0  0  0  0
   17.9137   -5.9839  -16.1784 O   0  0  0  0  0  0  0  0  0  0  0  0
   22.5623   -7.4653  -14.0341 O   0  0  0  0  0  0  0  0  0  0  0  0
   15.2888   -1.8783  -14.7489 O   0  0  0  0  0  0  0  0  0  0  0  0
   15.9529   -2.8783  -14.0842 C   0  0  0  0  0  0  0  0  0  0  0  0
   16.7936   -3.7379  -14.9992 C   0  0  2  0  0  0  0  0  0  0  0  0
   17.3664   -4.8727  -14.2720 N   0  0  0  0  0  0  0  0  0  0  0  0
   17.8738   -2.9172  -15.6116 C   0  0  0  0  0  0  0  0  0  0  0  0
   17.8531   -2.4694  -16.9169 O   0  0  0  0  0  0  0  0  0  0  0  0
   18.8559   -2.6202  -14.8892 O   0  0  0  0  0  0  0  0  0  0  0  0
  2  1  1  0
  3  2  1  0
  3  4  1  1
  5  3  1  0
  6  5  2  0
  7  5  1  0
  8  7  1  0
  8 13  1  0
  8  9  1  6
 10  9  1  0
 10 11  1  0
 11 12  2  0
 13 14  2  0
 13 19  1  0
 15 11  1  0
 16 17  1  0
 18 17  1  1
 18 20  1  0
 19 18  1  0
 20 21  1  0
 22 20  2  0
M  END
$$$$
