SES.pdb
     RDKit          3D

 22 21  0  0  1  0  0  0  0  0999 V2000
   25.3154  -12.6651  -15.9117 O   0  0  0  0  0  0  0  0  0  0  0  0
   24.7675  -11.4102  -16.0273 C   0  0  0  0  0  0  0  0  0  0  0  0
   23.7370  -11.2831  -17.1398 C   0  0  2  0  0  0  0  0  0  0  0  0
   24.5043  -11.4144  -18.3770 N   0  0  0  0  0  0  0  0  0  0  0  0
   23.0462   -9.9748  -17.0880 C   0  0  0  0  0  0  0  0  0  0  0  0
   23.5288   -9.0099  -17.7070 O   0  0  0  0  0  0  0  0  0  0  0  0
   21.8588   -9.8085  -16.3514 N   0  0  0  0  0  0  0  0  0  0  0  0
   21.0730   -8.6364  -16.2417 C   0  0  1  0  0  0  0  0  0  0  0  0
   19.6436   -8.7942  -15.8877 C   0  0  0  0  0  0  0  0  0  0  0  0
   18.7897   -7.5735  -15.9519 C   0  0  0  0  0  0  0  0  0  0  0  0
   17.4225   -8.0006  -15.4819 C   0  0  0  0  0  0  0  0  0  0  0  0
   16.8089   -8.9314  -16.0920 O   0  0  0  0  0  0  0  0  0  0  0  0
   21.6882   -7.5104  -15.4888 C   0  0  0  0  0  0  0  0  0  0  0  0
   22.2038   -7.7788  -14.3744 O   0  0  0  0  0  0  0  0  0  0  0  0
   16.7938   -7.4041  -14.3888 O   0  0  0  0  0  0  0  0  0  0  0  0
   23.2265   -2.8573  -15.3086 O   0  0  0  0  0  0  0  0  0  0  0  0
   22.5201   -3.8432  -15.9502 C   0  0  0  0  0  0  0  0  0  0  0  0
   22.4556   -5.1310  -15.1624 C   0  0  2  0  0  0  0  0  0  0  0  0
   21.7429   -6.1681  -15.9113 N   0  0  0  0  0  0  0  0  0  0  0  0
   21.7907   -4.8890  -13.8528 C   0  0  0  0  0  0  0  0  0  0  0  0
   22.4720   -4.6303  -12.6807 O   0  0  0  0  0  0  0  0  0  0  0  0
   20.5367   -4.9239  -13.8246 O   0  0  0  0  0  0  0  0  0  0  0  0
  2  1  1  0
  3  2  1  0
  3  4  1  6
  5  3  1  0
  6  5  2  0
  7  5  1  0
  8  7  1  0
  8 13  1  0
  8  9  1  1
 10  9  1  0
 10 11  1  0
 11 12  2  0
 13 14  2  0
 13 19  1  0
 15 11  1  0
 16 17  1  0
 18 17  1  6
 18 20  1  0
 19 18  1  0
 20 21  1  0
 22 20  2  0
M  END
$$$$
