SES.pdb
     RDKit          3D

 22 21  0  0  1  0  0  0  0  0999 V2000
   17.9682  -13.7733  -16.3666 O   0  0  0  0  0  0  0  0  0  0  0  0
   18.1426  -12.4427  -16.6619 C   0  0  0  0  0  0  0  0  0  0  0  0
   18.1122  -11.5282  -15.4460 C   0  0  2  0  0  0  0  0  0  0  0  0
   16.7167  -11.5306  -15.0110 N   0  0  0  0  0  0  0  0  0  0  0  0
   18.5510  -10.1571  -15.7913 C   0  0  0  0  0  0  0  0  0  0  0  0
   19.6682   -9.9919  -16.3126 O   0  0  0  0  0  0  0  0  0  0  0  0
   17.7271   -9.0448  -15.5382 N   0  0  0  0  0  0  0  0  0  0  0  0
   18.0470   -7.6787  -15.7249 C   0  0  1  0  0  0  0  0  0  0  0  0
   16.9282   -6.7105  -15.7905 C   0  0  0  0  0  0  0  0  0  0  0  0
   15.8169   -7.0204  -16.7349 C   0  0  0  0  0  0  0  0  0  0  0  0
   14.6445   -6.1886  -16.2806 C   0  0  0  0  0  0  0  0  0  0  0  0
   14.6488   -4.9332  -16.4778 O   0  0  0  0  0  0  0  0  0  0  0  0
   19.1600   -7.1525  -14.8897 C   0  0  0  0  0  0  0  0  0  0  0  0
   19.1572   -7.4586  -13.6706 O   0  0  0  0  0  0  0  0  0  0  0  0
   13.5397   -6.7506  -15.6409 O   0  0  0  0  0  0  0  0  0  0  0  0
   23.7577   -6.2379  -14.3528 O   0  0  0  0  0  0  0  0  0  0  0  0
   22.6422   -6.5794  -15.0751 C   0  0  0  0  0  0  0  0  0  0  0  0
   21.3690   -6.0001  -14.5036 C   0  0  2  0  0  0  0  0  0  0  0  0
   20.2169   -6.3390  -15.3416 N   0  0  0  0  0  0  0  0  0  0  0  0
   21.4992   -4.5229  -14.3757 C   0  0  0  0  0  0  0  0  0  0  0  0
   20.8852   -3.6208  -15.2208 O   0  0  0  0  0  0  0  0  0  0  0  0
   22.2110   -4.0828  -13.4407 O   0  0  0  0  0  0  0  0  0  0  0  0
  2  1  1  0
  3  2  1  0
  3  4  1  6
  5  3  1  0
  6  5  2  0
  7  5  1  0
  8  7  1  0
  8 13  1  0
  8  9  1  1
 10  9  1  0
 10 11  1  0
 11 12  2  0
 13 14  2  0
 13 19  1  0
 15 11  1  0
 16 17  1  0
 18 17  1  6
 18 20  1  0
 19 18  1  0
 20 21  1  0
 22 20  2  0
M  END
$$$$
