SES.pdb
     RDKit          3D

 22 21  0  0  1  0  0  0  0  0999 V2000
   11.8541  -12.9233  -12.0502 O   0  0  0  0  0  0  0  0  0  0  0  0
   12.6470  -11.9216  -11.5440 C   0  0  0  0  0  0  0  0  0  0  0  0
   14.1139  -12.0352  -11.9325 C   0  0  2  0  0  0  0  0  0  0  0  0
   14.5615  -13.2938  -11.3392 N   0  0  0  0  0  0  0  0  0  0  0  0
   14.9011  -10.8979  -11.4047 C   0  0  0  0  0  0  0  0  0  0  0  0
   15.1131  -10.8238  -10.1814 O   0  0  0  0  0  0  0  0  0  0  0  0
   15.4086   -9.9048  -12.2628 N   0  0  0  0  0  0  0  0  0  0  0  0
   16.1723   -8.7683  -11.9044 C   0  0  1  0  0  0  0  0  0  0  0  0
   16.9868   -8.1231  -12.9598 C   0  0  0  0  0  0  0  0  0  0  0  0
   17.7677   -6.9140  -12.5704 C   0  0  0  0  0  0  0  0  0  0  0  0
   18.5156   -6.4889  -13.8083 C   0  0  0  0  0  0  0  0  0  0  0  0
   18.5893   -5.2561  -14.1076 O   0  0  0  0  0  0  0  0  0  0  0  0
   15.4727   -7.7515  -11.0738 C   0  0  0  0  0  0  0  0  0  0  0  0
   14.4085   -7.2672  -11.5349 O   0  0  0  0  0  0  0  0  0  0  0  0
   19.1377   -7.4093  -14.6520 O   0  0  0  0  0  0  0  0  0  0  0  0
   14.6022   -5.6570   -6.7828 O   0  0  0  0  0  0  0  0  0  0  0  0
   15.3855   -6.4742   -7.5582 C   0  0  0  0  0  0  0  0  0  0  0  0
   15.1323   -6.3034   -9.0381 C   0  0  2  0  0  0  0  0  0  0  0  0
   15.8971   -7.2799   -9.8166 N   0  0  0  0  0  0  0  0  0  0  0  0
   15.4857   -4.9187   -9.4543 C   0  0  0  0  0  0  0  0  0  0  0  0
   14.5749   -3.8851   -9.5391 O   0  0  0  0  0  0  0  0  0  0  0  0
   16.6852   -4.6885   -9.7421 O   0  0  0  0  0  0  0  0  0  0  0  0
  2  1  1  0
  3  2  1  0
  3  4  1  1
  5  3  1  0
  6  5  2  0
  7  5  1  0
  8  7  1  0
  8 13  1  0
  8  9  1  6
 10  9  1  0
 10 11  1  0
 11 12  2  0
 13 14  2  0
 13 19  1  0
 15 11  1  0
 16 17  1  0
 18 17  1  1
 18 20  1  0
 19 18  1  0
 20 21  1  0
 22 20  2  0
M  END
$$$$
