SES.pdb
     RDKit          3D

 22 21  0  0  1  0  0  0  0  0999 V2000
   15.4763   -9.3855  -13.8827 O   0  0  0  0  0  0  0  0  0  0  0  0
   15.0669   -9.3484  -15.1938 C   0  0  0  0  0  0  0  0  0  0  0  0
   16.0736   -9.9313  -16.1749 C   0  0  2  0  0  0  0  0  0  0  0  0
   16.1929  -11.3381  -15.7967 N   0  0  0  0  0  0  0  0  0  0  0  0
   17.3831   -9.2484  -16.0732 C   0  0  0  0  0  0  0  0  0  0  0  0
   18.3482   -9.8591  -15.5805 O   0  0  0  0  0  0  0  0  0  0  0  0
   17.5498   -7.9253  -16.5224 N   0  0  0  0  0  0  0  0  0  0  0  0
   18.7537   -7.1834  -16.5813 C   0  0  1  0  0  0  0  0  0  0  0  0
   18.8589   -6.1182  -17.6049 C   0  0  0  0  0  0  0  0  0  0  0  0
   20.1443   -5.3657  -17.6718 C   0  0  0  0  0  0  0  0  0  0  0  0
   19.9592   -4.3265  -18.7482 C   0  0  0  0  0  0  0  0  0  0  0  0
   20.3672   -3.1388  -18.5539 O   0  0  0  0  0  0  0  0  0  0  0  0
   19.2977   -6.7239  -15.2751 C   0  0  0  0  0  0  0  0  0  0  0  0
   18.5145   -6.1017  -14.5140 O   0  0  0  0  0  0  0  0  0  0  0  0
   19.3468   -4.6212  -19.9663 O   0  0  0  0  0  0  0  0  0  0  0  0
   22.6021   -8.3774  -13.4467 O   0  0  0  0  0  0  0  0  0  0  0  0
   21.6252   -7.7304  -12.7328 C   0  0  0  0  0  0  0  0  0  0  0  0
   21.0459   -6.5436  -13.4672 C   0  0  2  0  0  0  0  0  0  0  0  0
   20.6138   -6.9212  -14.8145 N   0  0  0  0  0  0  0  0  0  0  0  0
   22.0536   -5.4503  -13.5342 C   0  0  0  0  0  0  0  0  0  0  0  0
   22.5348   -4.7791  -12.4283 O   0  0  0  0  0  0  0  0  0  0  0  0
   22.4848   -5.1285  -14.6678 O   0  0  0  0  0  0  0  0  0  0  0  0
  2  1  1  0
  3  2  1  0
  3  4  1  1
  5  3  1  0
  6  5  2  0
  7  5  1  0
  8  7  1  0
  8 13  1  0
  8  9  1  6
 10  9  1  0
 10 11  1  0
 11 12  2  0
 13 14  2  0
 13 19  1  0
 15 11  1  0
 16 17  1  0
 18 17  1  6
 18 20  1  0
 19 18  1  0
 20 21  1  0
 22 20  2  0
M  END
$$$$
