SES.pdb
     RDKit          3D

 22 21  0  0  1  0  0  0  0  0999 V2000
   14.5067   -9.2166  -15.5947 O   0  0  0  0  0  0  0  0  0  0  0  0
   15.7469   -8.9339  -15.0746 C   0  0  0  0  0  0  0  0  0  0  0  0
   16.7626  -10.0536  -15.2485 C   0  0  2  0  0  0  0  0  0  0  0  0
   16.2934  -11.1237  -14.3702 N   0  0  0  0  0  0  0  0  0  0  0  0
   18.1216   -9.6141  -14.8592 C   0  0  0  0  0  0  0  0  0  0  0  0
   18.3780   -9.4324  -13.6558 O   0  0  0  0  0  0  0  0  0  0  0  0
   19.1208   -9.3991  -15.8263 N   0  0  0  0  0  0  0  0  0  0  0  0
   20.4287   -8.9013  -15.6141 C   0  0  1  0  0  0  0  0  0  0  0  0
   21.5331   -9.5079  -16.3925 C   0  0  0  0  0  0  0  0  0  0  0  0
   22.2059  -10.6996  -15.8005 C   0  0  0  0  0  0  0  0  0  0  0  0
   23.2332  -11.1391  -16.8125 C   0  0  0  0  0  0  0  0  0  0  0  0
   23.2424  -12.3433  -17.2185 O   0  0  0  0  0  0  0  0  0  0  0  0
   20.5599   -7.4201  -15.5669 C   0  0  0  0  0  0  0  0  0  0  0  0
   19.9537   -6.7617  -16.4496 O   0  0  0  0  0  0  0  0  0  0  0  0
   24.1897  -10.2638  -17.3270 O   0  0  0  0  0  0  0  0  0  0  0  0
   21.8315   -3.3285  -13.2216 O   0  0  0  0  0  0  0  0  0  0  0  0
   21.8160   -4.6991  -13.2829 C   0  0  0  0  0  0  0  0  0  0  0  0
   21.3686   -5.2247  -14.6270 C   0  0  2  0  0  0  0  0  0  0  0  0
   21.3050   -6.6878  -14.6228 N   0  0  0  0  0  0  0  0  0  0  0  0
   22.2970   -4.7502  -15.6892 C   0  0  0  0  0  0  0  0  0  0  0  0
   22.0311   -3.6821  -16.5220 O   0  0  0  0  0  0  0  0  0  0  0  0
   23.3828   -5.3640  -15.8263 O   0  0  0  0  0  0  0  0  0  0  0  0
  2  1  1  0
  3  2  1  0
  3  4  1  1
  5  3  1  0
  6  5  2  0
  7  5  1  0
  8  7  1  0
  8 13  1  0
  8  9  1  6
 10  9  1  0
 10 11  1  0
 11 12  2  0
 13 14  2  0
 13 19  1  0
 15 11  1  0
 16 17  1  0
 18 17  1  1
 18 20  1  0
 19 18  1  0
 20 21  1  0
 22 20  2  0
M  END
$$$$
