SES.pdb
     RDKit          3D

 22 21  0  0  1  0  0  0  0  0999 V2000
   26.2475  -32.9635   -3.5286 O   0  0  0  0  0  0  0  0  0  0  0  0
   27.4981  -32.8961   -4.0941 C   0  0  0  0  0  0  0  0  0  0  0  0
   28.0366  -34.2372   -4.5707 C   0  0  2  0  0  0  0  0  0  0  0  0
   27.1078  -34.6631   -5.6159 N   0  0  0  0  0  0  0  0  0  0  0  0
   28.0746  -35.2253   -3.4690 C   0  0  0  0  0  0  0  0  0  0  0  0
   27.2027  -36.1109   -3.4191 O   0  0  0  0  0  0  0  0  0  0  0  0
   29.0768  -35.1757   -2.4824 N   0  0  0  0  0  0  0  0  0  0  0  0
   29.2530  -36.0605   -1.3917 C   0  0  1  0  0  0  0  0  0  0  0  0
   30.6343  -36.4763   -1.0562 C   0  0  0  0  0  0  0  0  0  0  0  0
   31.4755  -36.9986   -2.1710 C   0  0  0  0  0  0  0  0  0  0  0  0
   32.7813  -37.4149   -1.5431 C   0  0  0  0  0  0  0  0  0  0  0  0
   33.7314  -36.5760   -1.4504 O   0  0  0  0  0  0  0  0  0  0  0  0
   28.4793  -35.7380   -0.1627 C   0  0  0  0  0  0  0  0  0  0  0  0
   28.2054  -34.5286    0.0425 O   0  0  0  0  0  0  0  0  0  0  0  0
   32.9918  -38.7043   -1.0544 O   0  0  0  0  0  0  0  0  0  0  0  0
   25.7657  -37.1951    3.6465 O   0  0  0  0  0  0  0  0  0  0  0  0
   26.5983  -37.5064    2.6013 C   0  0  0  0  0  0  0  0  0  0  0  0
   27.1849  -36.2860    1.9306 C   0  0  2  0  0  0  0  0  0  0  0  0
   28.0274  -36.6666    0.7948 N   0  0  0  0  0  0  0  0  0  0  0  0
   27.9719  -35.4969    2.9171 C   0  0  0  0  0  0  0  0  0  0  0  0
   27.4534  -34.4525    3.6555 O   0  0  0  0  0  0  0  0  0  0  0  0
   29.1765  -35.8087    3.0797 O   0  0  0  0  0  0  0  0  0  0  0  0
  2  1  1  0
  3  2  1  0
  3  4  1  6
  5  3  1  0
  6  5  2  0
  7  5  1  0
  8  7  1  0
  8 13  1  0
  8  9  1  1
 10  9  1  0
 10 11  1  0
 11 12  2  0
 13 14  2  0
 13 19  1  0
 15 11  1  0
 16 17  1  0
 18 17  1  1
 18 20  1  0
 19 18  1  0
 20 21  1  0
 22 20  2  0
M  END
$$$$
