SES.pdb
     RDKit          3D

 22 21  0  0  1  0  0  0  0  0999 V2000
   21.6340  -14.1311  -15.5793 O   0  0  0  0  0  0  0  0  0  0  0  0
   21.6370  -12.7804  -15.8322 C   0  0  0  0  0  0  0  0  0  0  0  0
   20.4767  -12.3083  -16.6961 C   0  0  2  0  0  0  0  0  0  0  0  0
   20.7582  -12.8450  -18.0262 N   0  0  0  0  0  0  0  0  0  0  0  0
   20.3985  -10.8304  -16.7332 C   0  0  0  0  0  0  0  0  0  0  0  0
   21.0469  -10.2108  -17.5950 O   0  0  0  0  0  0  0  0  0  0  0  0
   19.6064  -10.1211  -15.8114 N   0  0  0  0  0  0  0  0  0  0  0  0
   19.3959   -8.7225  -15.7571 C   0  0  1  0  0  0  0  0  0  0  0  0
   18.0729   -8.2407  -15.2979 C   0  0  0  0  0  0  0  0  0  0  0  0
   17.8003   -6.7805  -15.4265 C   0  0  0  0  0  0  0  0  0  0  0  0
   16.4354   -6.5605  -14.8254 C   0  0  0  0  0  0  0  0  0  0  0  0
   15.3984   -6.7161  -15.5434 O   0  0  0  0  0  0  0  0  0  0  0  0
   20.4947   -7.9237  -15.1506 C   0  0  0  0  0  0  0  0  0  0  0  0
   20.9798   -8.3427  -14.0694 O   0  0  0  0  0  0  0  0  0  0  0  0
   16.2631   -6.1854  -13.4930 O   0  0  0  0  0  0  0  0  0  0  0  0
   23.2049   -5.8008  -17.3600 O   0  0  0  0  0  0  0  0  0  0  0  0
   22.8724   -5.1873  -16.1785 C   0  0  0  0  0  0  0  0  0  0  0  0
   22.2749   -6.1383  -15.1676 C   0  0  2  0  0  0  0  0  0  0  0  0
   21.0397   -6.7370  -15.6777 N   0  0  0  0  0  0  0  0  0  0  0  0
   22.0127   -5.4189  -13.8912 C   0  0  0  0  0  0  0  0  0  0  0  0
   22.9987   -5.0571  -12.9958 O   0  0  0  0  0  0  0  0  0  0  0  0
   20.8215   -5.1286  -13.6241 O   0  0  0  0  0  0  0  0  0  0  0  0
  2  1  1  0
  3  2  1  0
  3  4  1  6
  5  3  1  0
  6  5  2  0
  7  5  1  0
  8  7  1  0
  8 13  1  0
  8  9  1  1
 10  9  1  0
 10 11  1  0
 11 12  2  0
 13 14  2  0
 13 19  1  0
 15 11  1  0
 16 17  1  0
 18 17  1  6
 18 20  1  0
 19 18  1  0
 20 21  1  0
 22 20  2  0
M  END
$$$$
