PKK.pdb
     RDKit          3D

 26 26  0  0  1  0  0  0  0  0999 V2000
   22.1213  -21.3852  -14.8151 N   0  0  0  0  0  0  0  0  0  0  0  0
   21.3595  -22.0941  -13.7765 C   0  0  0  0  0  0  0  0  0  0  0  0
   21.6619  -21.4137  -12.4787 C   0  0  0  0  0  0  0  0  0  0  0  0
   22.5932  -20.2692  -12.8678 C   0  0  0  0  0  0  0  0  0  0  0  0
   22.1627  -20.0062  -14.2900 C   0  0  1  0  0  0  0  0  0  0  0  0
   23.1440  -19.1953  -15.0640 C   0  0  0  0  0  0  0  0  0  0  0  0
   23.3566  -18.0113  -14.7313 O   0  0  0  0  0  0  0  0  0  0  0  0
   23.8305  -19.7292  -16.1539 N   0  0  0  0  0  0  0  0  0  0  0  0
   24.8952  -19.1492  -16.9177 C   0  0  1  0  0  0  0  0  0  0  0  0
   25.8678  -20.0738  -17.5288 C   0  0  0  0  0  0  0  0  0  0  0  0
   26.6864  -20.7965  -16.4544 C   0  0  0  0  0  0  0  0  0  0  0  0
   27.5978  -21.7745  -17.1514 C   0  0  0  0  0  0  0  0  0  0  0  0
   28.4776  -22.4683  -16.1028 C   0  0  0  0  0  0  0  0  0  0  0  0
   29.2709  -23.4442  -16.8510 N   0  0  0  0  0  0  0  0  0  0  0  0
   24.3222  -18.1181  -17.8184 C   0  0  0  0  0  0  0  0  0  0  0  0
   23.1742  -18.2871  -18.2895 O   0  0  0  0  0  0  0  0  0  0  0  0
   24.9946  -16.9413  -18.1939 N   0  0  0  0  0  0  0  0  0  0  0  0
   24.3810  -15.9403  -19.0215 C   0  0  1  0  0  0  0  0  0  0  0  0
   24.1949  -14.5978  -18.3428 C   0  0  0  0  0  0  0  0  0  0  0  0
   23.4367  -13.6581  -19.2184 C   0  0  0  0  0  0  0  0  0  0  0  0
   23.3221  -12.2947  -18.6484 C   0  0  0  0  0  0  0  0  0  0  0  0
   22.4950  -11.2935  -19.3666 C   0  0  0  0  0  0  0  0  0  0  0  0
   22.4815   -9.9733  -18.8003 N   0  0  0  0  0  0  0  0  0  0  0  0
   25.2403  -15.7608  -20.2510 C   0  0  0  0  0  0  0  0  0  0  0  0
   24.7403  -15.1760  -21.4059 O   0  0  0  0  0  0  0  0  0  0  0  0
   26.4299  -16.1329  -20.2681 O   0  0  0  0  0  0  0  0  0  0  0  0
  1  2  1  0
  3  2  1  0
  4  5  1  0
  4  3  1  0
  5  1  1  0
  6  8  1  0
  5  6  1  6
  7  6  2  0
  9 15  1  0
  9  8  1  0
  9 10  1  6
 11 10  1  0
 12 11  1  0
 13 12  1  0
 14 13  1  0
 15 17  1  0
 16 15  2  0
 17 18  1  0
 18 24  1  0
 18 19  1  1
 20 19  1  0
 21 20  1  0
 22 21  1  0
 23 22  1  0
 24 25  1  0
 26 24  2  0
M  END
$$$$
