PKK.pdb
     RDKit          3D

 26 26  0  0  1  0  0  0  0  0999 V2000
   15.9150  -17.8373    3.4066 N   0  0  0  0  0  0  0  0  0  0  0  0
   14.5508  -18.0416    2.8979 C   0  0  0  0  0  0  0  0  0  0  0  0
   13.6406  -17.2289    3.7636 C   0  0  0  0  0  0  0  0  0  0  0  0
   14.5821  -16.5352    4.7439 C   0  0  0  0  0  0  0  0  0  0  0  0
   15.8524  -16.4595    3.9328 C   0  0  1  0  0  0  0  0  0  0  0  0
   17.0617  -16.1721    4.7541 C   0  0  0  0  0  0  0  0  0  0  0  0
   17.8620  -17.0955    5.0082 O   0  0  0  0  0  0  0  0  0  0  0  0
   17.3198  -14.8937    5.2472 N   0  0  0  0  0  0  0  0  0  0  0  0
   18.3757  -14.4602    6.1134 C   0  0  1  0  0  0  0  0  0  0  0  0
   18.6787  -13.0173    6.1372 C   0  0  0  0  0  0  0  0  0  0  0  0
   19.9039  -12.7291    7.0105 C   0  0  0  0  0  0  0  0  0  0  0  0
   20.1756  -11.2475    6.9465 C   0  0  0  0  0  0  0  0  0  0  0  0
   21.4404  -10.9385    7.7587 C   0  0  0  0  0  0  0  0  0  0  0  0
   21.6110   -9.4880    7.6681 N   0  0  0  0  0  0  0  0  0  0  0  0
   18.1978  -15.1101    7.4358 C   0  0  0  0  0  0  0  0  0  0  0  0
   17.1037  -14.9915    8.0333 O   0  0  0  0  0  0  0  0  0  0  0  0
   19.1954  -15.8613    8.0828 N   0  0  0  0  0  0  0  0  0  0  0  0
   18.9467  -16.5689    9.3078 C   0  0  1  0  0  0  0  0  0  0  0  0
   18.9139  -18.0772    9.1617 C   0  0  0  0  0  0  0  0  0  0  0  0
   17.8277  -18.6702    9.9943 C   0  0  0  0  0  0  0  0  0  0  0  0
   17.7595  -20.1476    9.8966 C   0  0  0  0  0  0  0  0  0  0  0  0
   16.7430  -20.8651   10.7054 C   0  0  0  0  0  0  0  0  0  0  0  0
   16.6975  -22.2901   10.5293 N   0  0  0  0  0  0  0  0  0  0  0  0
   20.0264  -16.1884   10.2936 C   0  0  0  0  0  0  0  0  0  0  0  0
   19.9071  -16.4751   11.6461 O   0  0  0  0  0  0  0  0  0  0  0  0
   21.0629  -15.6032    9.9231 O   0  0  0  0  0  0  0  0  0  0  0  0
  1  2  1  0
  3  2  1  0
  4  5  1  0
  4  3  1  0
  5  1  1  0
  6  8  1  0
  5  6  1  1
  7  6  2  0
  9 15  1  0
  9  8  1  0
  9 10  1  1
 11 10  1  0
 12 11  1  0
 13 12  1  0
 14 13  1  0
 15 17  1  0
 16 15  2  0
 17 18  1  0
 18 24  1  0
 18 19  1  6
 20 19  1  0
 21 20  1  0
 22 21  1  0
 23 22  1  0
 24 25  1  0
 26 24  2  0
M  END
$$$$
