PKK.pdb
     RDKit          3D

 26 26  0  0  1  0  0  0  0  0999 V2000
   27.8827  -21.1819  -15.1002 N   0  0  0  0  0  0  0  0  0  0  0  0
   29.2231  -20.9489  -15.6576 C   0  0  0  0  0  0  0  0  0  0  0  0
   29.0333  -20.5509  -17.0873 C   0  0  0  0  0  0  0  0  0  0  0  0
   27.5184  -20.5353  -17.2704 C   0  0  0  0  0  0  0  0  0  0  0  0
   27.0527  -20.2323  -15.8674 C   0  0  1  0  0  0  0  0  0  0  0  0
   25.6085  -20.5252  -15.6480 C   0  0  0  0  0  0  0  0  0  0  0  0
   24.7498  -19.8702  -16.2737 O   0  0  0  0  0  0  0  0  0  0  0  0
   25.1935  -21.5147  -14.7577 N   0  0  0  0  0  0  0  0  0  0  0  0
   23.8895  -22.0849  -14.5911 C   0  0  1  0  0  0  0  0  0  0  0  0
   23.8196  -23.4917  -14.1546 C   0  0  0  0  0  0  0  0  0  0  0  0
   22.3703  -23.9878  -14.1349 C   0  0  0  0  0  0  0  0  0  0  0  0
   22.3705  -25.3846  -13.5675 C   0  0  0  0  0  0  0  0  0  0  0  0
   20.9287  -25.9093  -13.5381 C   0  0  0  0  0  0  0  0  0  0  0  0
   21.0287  -27.2813  -13.0389 N   0  0  0  0  0  0  0  0  0  0  0  0
   23.0484  -21.1254  -13.8331 C   0  0  0  0  0  0  0  0  0  0  0  0
   23.3973  -20.7846  -12.6797 O   0  0  0  0  0  0  0  0  0  0  0  0
   21.8572  -20.5638  -14.3270 N   0  0  0  0  0  0  0  0  0  0  0  0
   21.0748  -19.6338  -13.5614 C   0  0  1  0  0  0  0  0  0  0  0  0
   20.5358  -18.4647  -14.3615 C   0  0  0  0  0  0  0  0  0  0  0  0
   21.5184  -18.0275  -15.3949 C   0  0  0  0  0  0  0  0  0  0  0  0
   21.0004  -16.9518  -16.2732 C   0  0  0  0  0  0  0  0  0  0  0  0
   21.8943  -16.4009  -17.3218 C   0  0  0  0  0  0  0  0  0  0  0  0
   21.3137  -15.4019  -18.1754 N   0  0  0  0  0  0  0  0  0  0  0  0
   19.9203  -20.3902  -12.9473 C   0  0  0  0  0  0  0  0  0  0  0  0
   19.4781  -20.1186  -11.6603 O   0  0  0  0  0  0  0  0  0  0  0  0
   19.3253  -21.2855  -13.5786 O   0  0  0  0  0  0  0  0  0  0  0  0
  1  2  1  0
  3  2  1  0
  4  5  1  0
  4  3  1  0
  5  1  1  0
  6  8  1  0
  5  6  1  6
  7  6  2  0
  9 15  1  0
  9  8  1  0
  9 10  1  1
 11 10  1  0
 12 11  1  0
 13 12  1  0
 14 13  1  0
 15 17  1  0
 16 15  2  0
 17 18  1  0
 18 24  1  0
 18 19  1  6
 20 19  1  0
 21 20  1  0
 22 21  1  0
 23 22  1  0
 24 25  1  0
 26 24  2  0
M  END
$$$$
