PKK.pdb
     RDKit          3D

 26 26  0  0  1  0  0  0  0  0999 V2000
   22.1957  -31.7003  -15.6685 N   0  0  0  0  0  0  0  0  0  0  0  0
   22.2071  -31.5745  -17.1333 C   0  0  0  0  0  0  0  0  0  0  0  0
   23.5736  -31.1000  -17.5157 C   0  0  0  0  0  0  0  0  0  0  0  0
   24.3220  -31.0154  -16.1885 C   0  0  0  0  0  0  0  0  0  0  0  0
   23.5971  -32.0569  -15.3717 C   0  0  1  0  0  0  0  0  0  0  0  0
   23.8529  -31.9434  -13.9084 C   0  0  0  0  0  0  0  0  0  0  0  0
   25.0295  -31.8887  -13.4956 O   0  0  0  0  0  0  0  0  0  0  0  0
   22.8065  -31.8981  -12.9879 N   0  0  0  0  0  0  0  0  0  0  0  0
   22.8650  -31.7089  -11.5688 C   0  0  1  0  0  0  0  0  0  0  0  0
   21.6875  -31.1025  -10.9205 C   0  0  0  0  0  0  0  0  0  0  0  0
   21.5871  -29.6103  -11.2525 C   0  0  0  0  0  0  0  0  0  0  0  0
   20.2904  -29.0981  -10.6788 C   0  0  0  0  0  0  0  0  0  0  0  0
   20.1276  -27.6205  -11.0595 C   0  0  0  0  0  0  0  0  0  0  0  0
   18.8644  -27.2030  -10.4500 N   0  0  0  0  0  0  0  0  0  0  0  0
   23.3811  -32.9541  -10.9477 C   0  0  0  0  0  0  0  0  0  0  0  0
   22.9417  -34.0599  -11.3379 O   0  0  0  0  0  0  0  0  0  0  0  0
   24.3459  -32.9805   -9.9246 N   0  0  0  0  0  0  0  0  0  0  0  0
   24.8688  -34.2102   -9.3977 C   0  0  1  0  0  0  0  0  0  0  0  0
   26.1857  -34.0637   -8.6616 C   0  0  0  0  0  0  0  0  0  0  0  0
   26.7120  -35.3941   -8.2401 C   0  0  0  0  0  0  0  0  0  0  0  0
   27.9069  -35.2984   -7.3685 C   0  0  0  0  0  0  0  0  0  0  0  0
   28.6514  -36.5413   -7.0475 C   0  0  0  0  0  0  0  0  0  0  0  0
   29.6439  -36.4255   -6.0153 N   0  0  0  0  0  0  0  0  0  0  0  0
   23.8372  -34.7918   -8.4598 C   0  0  0  0  0  0  0  0  0  0  0  0
   23.7558  -36.1577   -8.2285 O   0  0  0  0  0  0  0  0  0  0  0  0
   23.0233  -34.0617   -7.8611 O   0  0  0  0  0  0  0  0  0  0  0  0
  1  2  1  0
  3  2  1  0
  4  5  1  0
  4  3  1  0
  5  1  1  0
  6  8  1  0
  5  6  1  1
  7  6  2  0
  9 15  1  0
  9  8  1  0
  9 10  1  1
 11 10  1  0
 12 11  1  0
 13 12  1  0
 14 13  1  0
 15 17  1  0
 16 15  2  0
 17 18  1  0
 18 24  1  0
 18 19  1  1
 20 19  1  0
 21 20  1  0
 22 21  1  0
 23 22  1  0
 24 25  1  0
 26 24  2  0
M  END
$$$$
