PKK.pdb
     RDKit          3D

 26 26  0  0  1  0  0  0  0  0999 V2000
   18.6513  -14.1113  -17.8433 N   0  0  0  0  0  0  0  0  0  0  0  0
   17.9136  -15.3810  -17.7695 C   0  0  0  0  0  0  0  0  0  0  0  0
   18.0196  -15.8609  -16.3563 C   0  0  0  0  0  0  0  0  0  0  0  0
   18.8154  -14.7662  -15.6513 C   0  0  0  0  0  0  0  0  0  0  0  0
   18.4653  -13.5593  -16.4868 C   0  0  1  0  0  0  0  0  0  0  0  0
   19.3854  -12.4069  -16.2750 C   0  0  0  0  0  0  0  0  0  0  0  0
   19.4442  -11.8700  -15.1498 O   0  0  0  0  0  0  0  0  0  0  0  0
   20.1827  -11.9129  -17.3067 N   0  0  0  0  0  0  0  0  0  0  0  0
   21.1626  -10.8683  -17.2644 C   0  0  1  0  0  0  0  0  0  0  0  0
   22.1623  -10.8374  -18.3479 C   0  0  0  0  0  0  0  0  0  0  0  0
   23.0630  -12.0756  -18.2977 C   0  0  0  0  0  0  0  0  0  0  0  0
   24.0966  -11.9364  -19.3864 C   0  0  0  0  0  0  0  0  0  0  0  0
   24.9562  -13.2071  -19.4212 C   0  0  0  0  0  0  0  0  0  0  0  0
   25.8589  -13.0300  -20.5593 N   0  0  0  0  0  0  0  0  0  0  0  0
   20.4728   -9.5857  -16.9782 C   0  0  0  0  0  0  0  0  0  0  0  0
   19.5948   -9.1734  -17.7703 O   0  0  0  0  0  0  0  0  0  0  0  0
   20.7456   -8.7794  -15.8586 N   0  0  0  0  0  0  0  0  0  0  0  0
   20.0315   -7.5598  -15.6018 C   0  0  1  0  0  0  0  0  0  0  0  0
   18.6314   -7.7594  -15.0565 C   0  0  0  0  0  0  0  0  0  0  0  0
   17.6644   -6.8375  -15.7194 C   0  0  0  0  0  0  0  0  0  0  0  0
   16.2888   -6.9493  -15.1790 C   0  0  0  0  0  0  0  0  0  0  0  0
   15.2238   -6.1020  -15.7707 C   0  0  0  0  0  0  0  0  0  0  0  0
   13.9117   -6.2657  -15.2092 N   0  0  0  0  0  0  0  0  0  0  0  0
   20.8373   -6.7462  -14.6164 C   0  0  0  0  0  0  0  0  0  0  0  0
   20.7157   -5.3656  -14.5452 O   0  0  0  0  0  0  0  0  0  0  0  0
   21.6399   -7.2900  -13.8327 O   0  0  0  0  0  0  0  0  0  0  0  0
  1  2  1  0
  3  2  1  0
  4  5  1  0
  4  3  1  0
  5  1  1  0
  6  8  1  0
  5  6  1  1
  7  6  2  0
  9 15  1  0
  9  8  1  0
  9 10  1  6
 11 10  1  0
 12 11  1  0
 13 12  1  0
 14 13  1  0
 15 17  1  0
 16 15  2  0
 17 18  1  0
 18 24  1  0
 18 19  1  1
 20 19  1  0
 21 20  1  0
 22 21  1  0
 23 22  1  0
 24 25  1  0
 26 24  2  0
M  END
$$$$
