PKK.pdb
     RDKit          3D

 26 26  0  0  1  0  0  0  0  0999 V2000
   21.8223  -12.8650  -17.4474 N   0  0  0  0  0  0  0  0  0  0  0  0
   22.1646  -14.1123  -18.1465 C   0  0  0  0  0  0  0  0  0  0  0  0
   21.4000  -14.1107  -19.4325 C   0  0  0  0  0  0  0  0  0  0  0  0
   20.6564  -12.7782  -19.4207 C   0  0  0  0  0  0  0  0  0  0  0  0
   21.5710  -11.9352  -18.5661 C   0  0  1  0  0  0  0  0  0  0  0  0
   20.9263  -10.6911  -18.0599 C   0  0  0  0  0  0  0  0  0  0  0  0
   20.6494   -9.7758  -18.8619 O   0  0  0  0  0  0  0  0  0  0  0  0
   20.6258  -10.5252  -16.7085 N   0  0  0  0  0  0  0  0  0  0  0  0
   19.8812   -9.4775  -16.0750 C   0  0  1  0  0  0  0  0  0  0  0  0
   18.8659   -9.8770  -15.0830 C   0  0  0  0  0  0  0  0  0  0  0  0
   17.5272  -10.1831  -15.7620 C   0  0  0  0  0  0  0  0  0  0  0  0
   16.5577  -10.6168  -14.6919 C   0  0  0  0  0  0  0  0  0  0  0  0
   15.2513  -11.0685  -15.3582 C   0  0  0  0  0  0  0  0  0  0  0  0
   14.3706  -11.4553  -14.2554 N   0  0  0  0  0  0  0  0  0  0  0  0
   20.8282   -8.4179  -15.6471 C   0  0  0  0  0  0  0  0  0  0  0  0
   21.8716   -8.7410  -15.0347 O   0  0  0  0  0  0  0  0  0  0  0  0
   20.6293   -7.0453  -15.8804 N   0  0  0  0  0  0  0  0  0  0  0  0
   21.6312   -6.0636  -15.5710 C   0  0  1  0  0  0  0  0  0  0  0  0
   21.5046   -4.7736  -16.3568 C   0  0  0  0  0  0  0  0  0  0  0  0
   22.6142   -3.8346  -16.0228 C   0  0  0  0  0  0  0  0  0  0  0  0
   22.5689   -2.5771  -16.8062 C   0  0  0  0  0  0  0  0  0  0  0  0
   23.6956   -1.6202  -16.6763 C   0  0  0  0  0  0  0  0  0  0  0  0
   23.5584   -0.3913  -17.4075 N   0  0  0  0  0  0  0  0  0  0  0  0
   21.5432   -5.7568  -14.0944 C   0  0  0  0  0  0  0  0  0  0  0  0
   22.6734   -5.4538  -13.3482 O   0  0  0  0  0  0  0  0  0  0  0  0
   20.4494   -5.7654  -13.4965 O   0  0  0  0  0  0  0  0  0  0  0  0
  1  2  1  0
  3  2  1  0
  4  5  1  0
  4  3  1  0
  5  1  1  0
  6  8  1  0
  5  6  1  1
  7  6  2  0
  9 15  1  0
  9  8  1  0
  9 10  1  1
 11 10  1  0
 12 11  1  0
 13 12  1  0
 14 13  1  0
 15 17  1  0
 16 15  2  0
 17 18  1  0
 18 24  1  0
 18 19  1  6
 20 19  1  0
 21 20  1  0
 22 21  1  0
 23 22  1  0
 24 25  1  0
 26 24  2  0
M  END
$$$$
