PKK.pdb
     RDKit          3D

 26 26  0  0  1  0  0  0  0  0999 V2000
   25.3710  -13.2046  -15.6881 N   0  0  0  0  0  0  0  0  0  0  0  0
   26.4861  -14.1503  -15.8421 C   0  0  0  0  0  0  0  0  0  0  0  0
   26.5941  -14.4569  -17.3026 C   0  0  0  0  0  0  0  0  0  0  0  0
   25.5094  -13.5962  -17.9438 C   0  0  0  0  0  0  0  0  0  0  0  0
   25.4144  -12.4561  -16.9597 C   0  0  1  0  0  0  0  0  0  0  0  0
   24.1756  -11.6431  -17.1151 C   0  0  0  0  0  0  0  0  0  0  0  0
   24.0436  -10.9157  -18.1208 O   0  0  0  0  0  0  0  0  0  0  0  0
   23.1594  -11.6753  -16.1610 N   0  0  0  0  0  0  0  0  0  0  0  0
   21.8682  -11.0553  -16.2014 C   0  0  1  0  0  0  0  0  0  0  0  0
   20.7044  -11.8999  -15.8747 C   0  0  0  0  0  0  0  0  0  0  0  0
   19.3958  -11.1257  -16.0619 C   0  0  0  0  0  0  0  0  0  0  0  0
   18.2567  -12.0869  -15.8351 C   0  0  0  0  0  0  0  0  0  0  0  0
   16.9329  -11.3651  -16.1205 C   0  0  0  0  0  0  0  0  0  0  0  0
   15.8964  -12.3862  -15.9639 N   0  0  0  0  0  0  0  0  0  0  0  0
   21.9475   -9.7537  -15.4928 C   0  0  0  0  0  0  0  0  0  0  0  0
   22.5229   -9.6959  -14.3820 O   0  0  0  0  0  0  0  0  0  0  0  0
   21.4045   -8.5547  -15.9886 N   0  0  0  0  0  0  0  0  0  0  0  0
   21.6135   -7.2925  -15.3355 C   0  0  1  0  0  0  0  0  0  0  0  0
   21.3400   -6.0848  -16.2097 C   0  0  0  0  0  0  0  0  0  0  0  0
   21.6874   -4.8213  -15.4974 C   0  0  0  0  0  0  0  0  0  0  0  0
   21.5417   -3.6150  -16.3463 C   0  0  0  0  0  0  0  0  0  0  0  0
   21.8395   -2.2889  -15.7505 C   0  0  0  0  0  0  0  0  0  0  0  0
   21.7602   -1.1696  -16.6475 N   0  0  0  0  0  0  0  0  0  0  0  0
   20.7155   -7.2411  -14.1217 C   0  0  0  0  0  0  0  0  0  0  0  0
   21.1845   -6.8041  -12.8909 O   0  0  0  0  0  0  0  0  0  0  0  0
   19.5206   -7.5903  -14.1864 O   0  0  0  0  0  0  0  0  0  0  0  0
  1  2  1  0
  3  2  1  0
  4  5  1  0
  4  3  1  0
  5  1  1  0
  6  8  1  0
  5  6  1  6
  7  6  2  0
  9 15  1  0
  9  8  1  0
  9 10  1  1
 11 10  1  0
 12 11  1  0
 13 12  1  0
 14 13  1  0
 15 17  1  0
 16 15  2  0
 17 18  1  0
 18 24  1  0
 18 19  1  6
 20 19  1  0
 21 20  1  0
 22 21  1  0
 23 22  1  0
 24 25  1  0
 26 24  2  0
M  END
$$$$
