PKK.pdb
     RDKit          3D

 26 26  0  0  1  0  0  0  0  0999 V2000
   25.8155  -21.0200  -12.3195 N   0  0  0  0  0  0  0  0  0  0  0  0
   26.0681  -21.9338  -11.1958 C   0  0  0  0  0  0  0  0  0  0  0  0
   25.5731  -21.2482   -9.9615 C   0  0  0  0  0  0  0  0  0  0  0  0
   24.9969  -19.9314  -10.4741 C   0  0  0  0  0  0  0  0  0  0  0  0
   24.5990  -20.3086  -11.8801 C   0  0  1  0  0  0  0  0  0  0  0  0
   24.3509  -19.1320  -12.7597 C   0  0  0  0  0  0  0  0  0  0  0  0
   23.3985  -18.3670  -12.5037 O   0  0  0  0  0  0  0  0  0  0  0  0
   25.1587  -18.8660  -13.8647 N   0  0  0  0  0  0  0  0  0  0  0  0
   25.1278  -17.7405  -14.7509 C   0  0  1  0  0  0  0  0  0  0  0  0
   26.4125  -17.0794  -15.0459 C   0  0  0  0  0  0  0  0  0  0  0  0
   26.2028  -15.8423  -15.9249 C   0  0  0  0  0  0  0  0  0  0  0  0
   27.2082  -15.9000  -17.0468 C   0  0  0  0  0  0  0  0  0  0  0  0
   27.0938  -14.6185  -17.8833 C   0  0  0  0  0  0  0  0  0  0  0  0
   27.9996  -14.8159  -19.0155 N   0  0  0  0  0  0  0  0  0  0  0  0
   24.2894  -18.0877  -15.9253 C   0  0  0  0  0  0  0  0  0  0  0  0
   24.4613  -19.1894  -16.4954 O   0  0  0  0  0  0  0  0  0  0  0  0
   23.2975  -17.2456  -16.4592 N   0  0  0  0  0  0  0  0  0  0  0  0
   22.3550  -17.7014  -17.4427 C   0  0  1  0  0  0  0  0  0  0  0  0
   20.9032  -17.5359  -17.0397 C   0  0  0  0  0  0  0  0  0  0  0  0
   19.9923  -18.0330  -18.1110 C   0  0  0  0  0  0  0  0  0  0  0  0
   18.5583  -17.9294  -17.7508 C   0  0  0  0  0  0  0  0  0  0  0  0
   17.5448  -18.3594  -18.7458 C   0  0  0  0  0  0  0  0  0  0  0  0
   16.1797  -18.0547  -18.4179 N   0  0  0  0  0  0  0  0  0  0  0  0
   22.6066  -16.9351  -18.7202 C   0  0  0  0  0  0  0  0  0  0  0  0
   22.4817  -17.5380  -19.9639 O   0  0  0  0  0  0  0  0  0  0  0  0
   22.9353  -15.7328  -18.6986 O   0  0  0  0  0  0  0  0  0  0  0  0
  1  2  1  0
  3  2  1  0
  4  5  1  0
  4  3  1  0
  5  1  1  0
  6  8  1  0
  5  6  1  6
  7  6  2  0
  9 15  1  0
  9  8  1  0
  9 10  1  6
 11 10  1  0
 12 11  1  0
 13 12  1  0
 14 13  1  0
 15 17  1  0
 16 15  2  0
 17 18  1  0
 18 24  1  0
 18 19  1  1
 20 19  1  0
 21 20  1  0
 22 21  1  0
 23 22  1  0
 24 25  1  0
 26 24  2  0
M  END
$$$$
