PKK.pdb
     RDKit          3D

 26 26  0  0  1  0  0  0  0  0999 V2000
   26.5552  -20.6081  -11.8757 N   0  0  0  0  0  0  0  0  0  0  0  0
   27.9349  -20.8563  -11.4326 C   0  0  0  0  0  0  0  0  0  0  0  0
   28.7317  -21.1746  -12.6583 C   0  0  0  0  0  0  0  0  0  0  0  0
   27.7264  -21.0442  -13.7988 C   0  0  0  0  0  0  0  0  0  0  0  0
   26.7541  -20.0430  -13.2248 C   0  0  1  0  0  0  0  0  0  0  0  0
   25.4557  -19.9954  -13.9539 C   0  0  0  0  0  0  0  0  0  0  0  0
   25.4442  -19.6860  -15.1630 O   0  0  0  0  0  0  0  0  0  0  0  0
   24.2512  -20.2878  -13.3153 N   0  0  0  0  0  0  0  0  0  0  0  0
   22.9908  -20.6479  -13.8942 C   0  0  1  0  0  0  0  0  0  0  0  0
   22.0939  -21.4930  -13.0844 C   0  0  0  0  0  0  0  0  0  0  0  0
   20.8320  -21.8627  -13.8704 C   0  0  0  0  0  0  0  0  0  0  0  0
   19.9671  -22.7148  -12.9766 C   0  0  0  0  0  0  0  0  0  0  0  0
   18.6997  -23.1134  -13.7445 C   0  0  0  0  0  0  0  0  0  0  0  0
   19.1042  -24.2276  -14.6026 N   0  0  0  0  0  0  0  0  0  0  0  0
   22.3800  -19.4325  -14.4880 C   0  0  0  0  0  0  0  0  0  0  0  0
   22.2647  -18.4011  -13.7873 O   0  0  0  0  0  0  0  0  0  0  0  0
   21.9052  -19.3574  -15.8098 N   0  0  0  0  0  0  0  0  0  0  0  0
   21.4377  -18.1274  -16.3860 C   0  0  1  0  0  0  0  0  0  0  0  0
   22.0937  -17.7668  -17.7041 C   0  0  0  0  0  0  0  0  0  0  0  0
   21.6100  -16.4446  -18.1963 C   0  0  0  0  0  0  0  0  0  0  0  0
   22.2430  -16.0305  -19.4710 C   0  0  0  0  0  0  0  0  0  0  0  0
   21.8878  -14.7075  -20.0417 C   0  0  0  0  0  0  0  0  0  0  0  0
   22.4783  -13.5694  -19.3937 N   0  0  0  0  0  0  0  0  0  0  0  0
   19.9454  -18.2452  -16.5893 C   0  0  0  0  0  0  0  0  0  0  0  0
   19.1459  -17.1235  -16.7581 O   0  0  0  0  0  0  0  0  0  0  0  0
   19.3819  -19.3569  -16.6126 O   0  0  0  0  0  0  0  0  0  0  0  0
  1  2  1  0
  3  2  1  0
  4  5  1  0
  4  3  1  0
  5  1  1  0
  6  8  1  0
  5  6  1  6
  7  6  2  0
  9 15  1  0
  9  8  1  0
  9 10  1  1
 11 10  1  0
 12 11  1  0
 13 12  1  0
 14 13  1  0
 15 17  1  0
 16 15  2  0
 17 18  1  0
 18 24  1  0
 18 19  1  6
 20 19  1  0
 21 20  1  0
 22 21  1  0
 23 22  1  0
 24 25  1  0
 26 24  2  0
M  END
$$$$
