PKK.pdb
     RDKit          3D

 26 26  0  0  1  0  0  0  0  0999 V2000
   24.5054  -22.0552  -12.1973 N   0  0  0  0  0  0  0  0  0  0  0  0
   25.0287  -22.3255  -10.8502 C   0  0  0  0  0  0  0  0  0  0  0  0
   25.8873  -21.1581  -10.4779 C   0  0  0  0  0  0  0  0  0  0  0  0
   25.7709  -20.2158  -11.6726 C   0  0  0  0  0  0  0  0  0  0  0  0
   24.4086  -20.5823  -12.2084 C   0  0  1  0  0  0  0  0  0  0  0  0
   24.1699  -20.0976  -13.5969 C   0  0  0  0  0  0  0  0  0  0  0  0
   24.1104  -18.8701  -13.8144 O   0  0  0  0  0  0  0  0  0  0  0  0
   24.0099  -20.9853  -14.6602 N   0  0  0  0  0  0  0  0  0  0  0  0
   23.9537  -20.7054  -16.0644 C   0  0  1  0  0  0  0  0  0  0  0  0
   25.0751  -21.1855  -16.8928 C   0  0  0  0  0  0  0  0  0  0  0  0
   25.4510  -22.6244  -16.5253 C   0  0  0  0  0  0  0  0  0  0  0  0
   26.6054  -23.0364  -17.4032 C   0  0  0  0  0  0  0  0  0  0  0  0
   26.9683  -24.4952  -17.0952 C   0  0  0  0  0  0  0  0  0  0  0  0
   28.2137  -24.7436  -17.8222 N   0  0  0  0  0  0  0  0  0  0  0  0
   22.5928  -21.0343  -16.5569 C   0  0  0  0  0  0  0  0  0  0  0  0
   21.9167  -21.8992  -15.9543 O   0  0  0  0  0  0  0  0  0  0  0  0
   21.9978  -20.4346  -17.6813 N   0  0  0  0  0  0  0  0  0  0  0  0
   20.6530  -20.7352  -18.0870 C   0  0  1  0  0  0  0  0  0  0  0  0
   20.0395  -19.7115  -19.0215 C   0  0  0  0  0  0  0  0  0  0  0  0
   18.6500  -20.0999  -19.3997 C   0  0  0  0  0  0  0  0  0  0  0  0
   18.0228  -19.1595  -20.3584 C   0  0  0  0  0  0  0  0  0  0  0  0
   16.6301  -19.4208  -20.7993 C   0  0  0  0  0  0  0  0  0  0  0  0
   16.1496  -18.5947  -21.8719 N   0  0  0  0  0  0  0  0  0  0  0  0
   20.6613  -22.0852  -18.7651 C   0  0  0  0  0  0  0  0  0  0  0  0
   19.6313  -22.9964  -18.5789 O   0  0  0  0  0  0  0  0  0  0  0  0
   21.5961  -22.4255  -19.5163 O   0  0  0  0  0  0  0  0  0  0  0  0
  1  2  1  0
  3  2  1  0
  4  5  1  0
  4  3  1  0
  5  1  1  0
  6  8  1  0
  5  6  1  6
  7  6  2  0
  9 15  1  0
  9  8  1  0
  9 10  1  6
 11 10  1  0
 12 11  1  0
 13 12  1  0
 14 13  1  0
 15 17  1  0
 16 15  2  0
 17 18  1  0
 18 24  1  0
 18 19  1  6
 20 19  1  0
 21 20  1  0
 22 21  1  0
 23 22  1  0
 24 25  1  0
 26 24  2  0
M  END
$$$$
