PKK.pdb
     RDKit          3D

 26 26  0  0  1  0  0  0  0  0999 V2000
   16.5554  -20.7323    4.2997 N   0  0  0  0  0  0  0  0  0  0  0  0
   16.4327  -21.9026    3.4182 C   0  0  0  0  0  0  0  0  0  0  0  0
   15.5908  -21.4812    2.2554 C   0  0  0  0  0  0  0  0  0  0  0  0
   15.2966  -20.0082    2.5245 C   0  0  0  0  0  0  0  0  0  0  0  0
   16.5002  -19.6096    3.3429 C   0  0  1  0  0  0  0  0  0  0  0  0
   16.3178  -18.3247    4.0748 C   0  0  0  0  0  0  0  0  0  0  0  0
   16.2868  -17.2546    3.4333 O   0  0  0  0  0  0  0  0  0  0  0  0
   16.1819  -18.2902    5.4620 N   0  0  0  0  0  0  0  0  0  0  0  0
   15.9068  -17.1691    6.3109 C   0  0  1  0  0  0  0  0  0  0  0  0
   14.8735  -17.3462    7.3479 C   0  0  0  0  0  0  0  0  0  0  0  0
   14.5845  -16.0235    8.0648 C   0  0  0  0  0  0  0  0  0  0  0  0
   13.5341  -16.2890    9.1132 C   0  0  0  0  0  0  0  0  0  0  0  0
   13.1822  -14.9679    9.8101 C   0  0  0  0  0  0  0  0  0  0  0  0
   12.1341  -15.3081   10.7729 N   0  0  0  0  0  0  0  0  0  0  0  0
   17.1972  -16.5962    6.7686 C   0  0  0  0  0  0  0  0  0  0  0  0
   18.1365  -17.3677    7.0698 O   0  0  0  0  0  0  0  0  0  0  0  0
   17.4433  -15.2174    6.8969 N   0  0  0  0  0  0  0  0  0  0  0  0
   18.7058  -14.7046    7.3514 C   0  0  1  0  0  0  0  0  0  0  0  0
   18.8728  -13.2088    7.1721 C   0  0  0  0  0  0  0  0  0  0  0  0
   20.2171  -12.7625    7.6392 C   0  0  0  0  0  0  0  0  0  0  0  0
   20.4483  -11.3111    7.4473 C   0  0  0  0  0  0  0  0  0  0  0  0
   21.7503  -10.7387    7.8708 C   0  0  0  0  0  0  0  0  0  0  0  0
   21.9427   -9.3446    7.5824 N   0  0  0  0  0  0  0  0  0  0  0  0
   18.8492  -15.0488    8.8154 C   0  0  0  0  0  0  0  0  0  0  0  0
   20.0564  -15.4849    9.3428 O   0  0  0  0  0  0  0  0  0  0  0  0
   17.8851  -14.9516    9.5997 O   0  0  0  0  0  0  0  0  0  0  0  0
  1  2  1  0
  3  2  1  0
  4  5  1  0
  4  3  1  0
  5  1  1  0
  6  8  1  0
  5  6  1  1
  7  6  2  0
  9 15  1  0
  9  8  1  0
  9 10  1  1
 11 10  1  0
 12 11  1  0
 13 12  1  0
 14 13  1  0
 15 17  1  0
 16 15  2  0
 17 18  1  0
 18 24  1  0
 18 19  1  1
 20 19  1  0
 21 20  1  0
 22 21  1  0
 23 22  1  0
 24 25  1  0
 26 24  2  0
M  END
$$$$
