PKK.pdb
     RDKit          3D

 26 26  0  0  1  0  0  0  0  0999 V2000
   24.1018  -12.8975  -15.1690 N   0  0  0  0  0  0  0  0  0  0  0  0
   25.1680  -13.8868  -15.3833 C   0  0  0  0  0  0  0  0  0  0  0  0
   24.9897  -14.4207  -16.7696 C   0  0  0  0  0  0  0  0  0  0  0  0
   23.7982  -13.6404  -17.3175 C   0  0  0  0  0  0  0  0  0  0  0  0
   23.8940  -12.3584  -16.5274 C   0  0  1  0  0  0  0  0  0  0  0  0
   22.6465  -11.5449  -16.5676 C   0  0  0  0  0  0  0  0  0  0  0  0
   22.4395  -10.7902  -17.5399 O   0  0  0  0  0  0  0  0  0  0  0  0
   21.7040  -11.6066  -15.5419 N   0  0  0  0  0  0  0  0  0  0  0  0
   20.4642  -10.8991  -15.4163 C   0  0  1  0  0  0  0  0  0  0  0  0
   19.3522  -11.6009  -14.7489 C   0  0  0  0  0  0  0  0  0  0  0  0
   18.6604  -12.5713  -15.7115 C   0  0  0  0  0  0  0  0  0  0  0  0
   17.4624  -13.1479  -15.0006 C   0  0  0  0  0  0  0  0  0  0  0  0
   16.7014  -14.0619  -15.9702 C   0  0  0  0  0  0  0  0  0  0  0  0
   15.5753  -14.5889  -15.1985 N   0  0  0  0  0  0  0  0  0  0  0  0
   20.7516   -9.5259  -14.9321 C   0  0  0  0  0  0  0  0  0  0  0  0
   21.8333   -9.2988  -14.3434 O   0  0  0  0  0  0  0  0  0  0  0  0
   19.8729   -8.4386  -15.0856 N   0  0  0  0  0  0  0  0  0  0  0  0
   20.3142   -7.0763  -14.9722 C   0  0  1  0  0  0  0  0  0  0  0  0
   21.4009   -6.6885  -15.9551 C   0  0  0  0  0  0  0  0  0  0  0  0
   21.8491   -5.2842  -15.7279 C   0  0  0  0  0  0  0  0  0  0  0  0
   22.8927   -4.8438  -16.6839 C   0  0  0  0  0  0  0  0  0  0  0  0
   23.4547   -3.4780  -16.5400 C   0  0  0  0  0  0  0  0  0  0  0  0
   24.5124   -3.1390  -17.4512 N   0  0  0  0  0  0  0  0  0  0  0  0
   19.1159   -6.1793  -15.1766 C   0  0  0  0  0  0  0  0  0  0  0  0
   19.0342   -4.9306  -14.5768 O   0  0  0  0  0  0  0  0  0  0  0  0
   18.1589   -6.5325  -15.8931 O   0  0  0  0  0  0  0  0  0  0  0  0
  1  2  1  0
  3  2  1  0
  4  5  1  0
  4  3  1  0
  5  1  1  0
  6  8  1  0
  5  6  1  1
  7  6  2  0
  9 15  1  0
  9  8  1  0
  9 10  1  1
 11 10  1  0
 12 11  1  0
 13 12  1  0
 14 13  1  0
 15 17  1  0
 16 15  2  0
 17 18  1  0
 18 24  1  0
 18 19  1  6
 20 19  1  0
 21 20  1  0
 22 21  1  0
 23 22  1  0
 24 25  1  0
 26 24  2  0
M  END
$$$$
