SGH.pdb
     RDKit          3D

 21 21  0  0  1  0  0  0  0  0999 V2000
   16.0427  -15.6444  -16.3179 O   0  0  0  0  0  0  0  0  0  0  0  0
   16.8083  -14.5645  -16.7814 C   0  0  0  0  0  0  0  0  0  0  0  0
   16.7310  -13.4528  -15.7339 C   0  0  2  0  0  0  0  0  0  0  0  0
   15.3933  -12.9351  -15.7701 N   0  0  0  0  0  0  0  0  0  0  0  0
   17.7441  -12.4284  -16.0988 C   0  0  0  0  0  0  0  0  0  0  0  0
   18.9626  -12.7191  -15.9854 O   0  0  0  0  0  0  0  0  0  0  0  0
   17.2891  -11.1619  -16.5612 N   0  0  0  0  0  0  0  0  0  0  0  0
   18.2243  -10.1276  -16.8792 C   0  0  0  0  0  0  0  0  0  0  0  0
   18.9032   -9.5808  -15.6728 C   0  0  0  0  0  0  0  0  0  0  0  0
   18.3756   -9.7350  -14.5426 O   0  0  0  0  0  0  0  0  0  0  0  0
   20.1365   -8.8829  -15.7366 N   0  0  0  0  0  0  0  0  0  0  0  0
   20.7978   -8.3260  -14.5722 C   0  0  1  0  0  0  0  0  0  0  0  0
   21.5928   -9.3664  -13.8157 C   0  0  0  0  0  0  0  0  0  0  0  0
   22.6900   -9.9036  -14.6547 C   0  0  0  0  0  0  0  0  0  0  0  0
   23.0629   -9.5319  -15.9267 C   0  0  0  0  0  0  0  0  0  0  0  0
   24.1221  -10.2948  -16.3018 N   0  0  0  0  0  0  0  0  0  0  0  0
   24.4102  -11.1339  -15.2790 C   0  0  0  0  0  0  0  0  0  0  0  0
   23.5291  -10.8819  -14.2859 N   0  0  0  0  0  0  0  0  0  0  0  0
   21.5832   -7.1388  -14.9040 C   0  0  0  0  0  0  0  0  0  0  0  0
   21.8134   -6.7905  -16.0881 O   0  0  0  0  0  0  0  0  0  0  0  0
   22.1026   -6.3542  -13.8877 O   0  0  0  0  0  0  0  0  0  0  0  0
  2  1  1  0
  3  2  1  0
  3  4  1  6
  5  7  1  0
  5  3  1  0
  6  5  2  0
  8  9  1  0
  8  7  1  0
  9 11  1  0
 10  9  2  0
 11 12  1  0
 12 13  1  6
 13 14  1  0
 14 18  1  0
 15 14  2  0
 15 16  1  0
 16 17  1  0
 18 17  2  0
 19 12  1  0
 19 21  1  0
 20 19  2  0
M  END
$$$$
