SGH.pdb
     RDKit          3D

 21 21  0  0  1  0  0  0  0  0999 V2000
   19.4729   -9.1079  -21.5053 O   0  0  0  0  0  0  0  0  0  0  0  0
   20.5068   -9.7656  -20.8231 C   0  0  0  0  0  0  0  0  0  0  0  0
   20.3551   -9.4557  -19.3332 C   0  0  2  0  0  0  0  0  0  0  0  0
   19.0345   -9.8672  -18.9519 N   0  0  0  0  0  0  0  0  0  0  0  0
   20.5642   -7.9944  -19.1605 C   0  0  0  0  0  0  0  0  0  0  0  0
   21.6965   -7.5130  -19.4219 O   0  0  0  0  0  0  0  0  0  0  0  0
   19.4718   -7.2039  -18.7061 N   0  0  0  0  0  0  0  0  0  0  0  0
   19.6094   -5.7868  -18.5710 C   0  0  0  0  0  0  0  0  0  0  0  0
   19.8626   -5.3689  -17.1651 C   0  0  0  0  0  0  0  0  0  0  0  0
   19.0321   -5.6698  -16.2711 O   0  0  0  0  0  0  0  0  0  0  0  0
   21.0137   -4.6359  -16.7780 N   0  0  0  0  0  0  0  0  0  0  0  0
   21.2543   -4.1900  -15.4192 C   0  0  1  0  0  0  0  0  0  0  0  0
   22.4994   -4.8112  -14.8270 C   0  0  0  0  0  0  0  0  0  0  0  0
   22.4499   -6.2889  -14.9277 C   0  0  0  0  0  0  0  0  0  0  0  0
   21.5198   -7.1574  -14.4024 C   0  0  0  0  0  0  0  0  0  0  0  0
   21.8744   -8.4226  -14.7462 N   0  0  0  0  0  0  0  0  0  0  0  0
   23.0116   -8.3491  -15.4774 C   0  0  0  0  0  0  0  0  0  0  0  0
   23.3469   -7.0439  -15.5776 N   0  0  0  0  0  0  0  0  0  0  0  0
   21.2375   -2.7325  -15.3100 C   0  0  0  0  0  0  0  0  0  0  0  0
   21.3304   -2.1365  -14.2088 O   0  0  0  0  0  0  0  0  0  0  0  0
   21.1153   -1.9607  -16.4535 O   0  0  0  0  0  0  0  0  0  0  0  0
  2  1  1  0
  3  2  1  0
  3  4  1  6
  5  7  1  0
  5  3  1  0
  6  5  2  0
  8  9  1  0
  8  7  1  0
  9 11  1  0
 10  9  2  0
 11 12  1  0
 12 13  1  6
 13 14  1  0
 14 18  1  0
 15 14  2  0
 15 16  1  0
 16 17  1  0
 18 17  2  0
 19 12  1  0
 19 21  1  0
 20 19  2  0
M  END
$$$$
