SGH.pdb
     RDKit          3D

 21 21  0  0  1  0  0  0  0  0999 V2000
   16.0368  -14.0415  -15.6731 O   0  0  0  0  0  0  0  0  0  0  0  0
   16.4908  -12.9933  -14.8593 C   0  0  0  0  0  0  0  0  0  0  0  0
   16.6755  -11.7601  -15.7447 C   0  0  2  0  0  0  0  0  0  0  0  0
   17.6877  -12.0841  -16.7087 N   0  0  0  0  0  0  0  0  0  0  0  0
   17.0763  -10.6349  -14.8602 C   0  0  0  0  0  0  0  0  0  0  0  0
   16.3152  -10.3139  -13.9116 O   0  0  0  0  0  0  0  0  0  0  0  0
   18.3057   -9.9699  -15.1268 N   0  0  0  0  0  0  0  0  0  0  0  0
   18.7671   -8.9263  -14.2645 C   0  0  0  0  0  0  0  0  0  0  0  0
   20.1272   -8.4439  -14.6287 C   0  0  0  0  0  0  0  0  0  0  0  0
   20.6364   -7.4885  -13.9904 O   0  0  0  0  0  0  0  0  0  0  0  0
   20.8896   -9.0185  -15.6779 N   0  0  0  0  0  0  0  0  0  0  0  0
   22.2172   -8.5610  -16.0405 C   0  0  1  0  0  0  0  0  0  0  0  0
   22.9552   -9.5696  -16.8919 C   0  0  0  0  0  0  0  0  0  0  0  0
   24.2873   -9.0527  -17.2853 C   0  0  0  0  0  0  0  0  0  0  0  0
   25.2115   -8.3806  -16.5176 C   0  0  0  0  0  0  0  0  0  0  0  0
   26.2897   -8.1002  -17.2946 N   0  0  0  0  0  0  0  0  0  0  0  0
   26.0454   -8.5898  -18.5331 C   0  0  0  0  0  0  0  0  0  0  0  0
   24.8230   -9.1656  -18.5090 N   0  0  0  0  0  0  0  0  0  0  0  0
   22.1933   -7.2247  -16.6322 C   0  0  0  0  0  0  0  0  0  0  0  0
   21.2768   -6.8426  -17.4006 O   0  0  0  0  0  0  0  0  0  0  0  0
   23.2116   -6.3303  -16.3470 O   0  0  0  0  0  0  0  0  0  0  0  0
  2  1  1  0
  3  2  1  0
  3  4  1  6
  5  7  1  0
  5  3  1  0
  6  5  2  0
  8  9  1  0
  8  7  1  0
  9 11  1  0
 10  9  2  0
 11 12  1  0
 12 13  1  6
 13 14  1  0
 14 18  1  0
 15 14  2  0
 15 16  1  0
 16 17  1  0
 18 17  2  0
 19 12  1  0
 19 21  1  0
 20 19  2  0
M  END
$$$$
