SGH.pdb
     RDKit          3D

 21 21  0  0  1  0  0  0  0  0999 V2000
   21.0127   -6.8859  -16.6315 O   0  0  0  0  0  0  0  0  0  0  0  0
   21.6930   -8.1113  -16.6827 C   0  0  0  0  0  0  0  0  0  0  0  0
   20.8707   -9.1359  -15.8998 C   0  0  2  0  0  0  0  0  0  0  0  0
   19.5276   -9.0656  -16.3998 N   0  0  0  0  0  0  0  0  0  0  0  0
   20.9587   -8.7699  -14.4619 C   0  0  0  0  0  0  0  0  0  0  0  0
   22.0793   -8.8271  -13.8934 O   0  0  0  0  0  0  0  0  0  0  0  0
   19.7689   -8.3703  -13.7916 N   0  0  0  0  0  0  0  0  0  0  0  0
   19.7784   -8.1243  -12.3828 C   0  0  0  0  0  0  0  0  0  0  0  0
   18.4531   -7.6799  -11.8716 C   0  0  0  0  0  0  0  0  0  0  0  0
   17.9353   -6.6288  -12.3262 O   0  0  0  0  0  0  0  0  0  0  0  0
   17.7336   -8.3957  -10.8806 N   0  0  0  0  0  0  0  0  0  0  0  0
   16.4880   -7.9258  -10.3052 C   0  0  1  0  0  0  0  0  0  0  0  0
   15.7239   -9.0342   -9.6165 C   0  0  0  0  0  0  0  0  0  0  0  0
   14.3849   -8.5642   -9.1892 C   0  0  0  0  0  0  0  0  0  0  0  0
   13.8215   -7.3170   -9.3389 C   0  0  0  0  0  0  0  0  0  0  0  0
   12.5766   -7.3425   -8.7964 N   0  0  0  0  0  0  0  0  0  0  0  0
   12.3616   -8.5888   -8.3129 C   0  0  0  0  0  0  0  0  0  0  0  0
   13.4720   -9.3181   -8.5605 N   0  0  0  0  0  0  0  0  0  0  0  0
   16.6859   -6.7551   -9.4528 C   0  0  0  0  0  0  0  0  0  0  0  0
   17.4754   -6.7562   -8.4764 O   0  0  0  0  0  0  0  0  0  0  0  0
   15.9852   -5.5896   -9.7151 O   0  0  0  0  0  0  0  0  0  0  0  0
  2  1  1  0
  3  2  1  0
  3  4  1  6
  5  7  1  0
  5  3  1  0
  6  5  2  0
  8  9  1  0
  8  7  1  0
  9 11  1  0
 10  9  2  0
 11 12  1  0
 12 13  1  1
 13 14  1  0
 14 18  1  0
 15 14  2  0
 15 16  1  0
 16 17  1  0
 18 17  2  0
 19 12  1  0
 19 21  1  0
 20 19  2  0
M  END
$$$$
