SGH.pdb
     RDKit          3D

 21 21  0  0  1  0  0  0  0  0999 V2000
   17.3724  -14.3523  -14.9442 O   0  0  0  0  0  0  0  0  0  0  0  0
   16.2843  -13.4683  -14.9050 C   0  0  0  0  0  0  0  0  0  0  0  0
   16.8377  -12.0433  -14.9516 C   0  0  2  0  0  0  0  0  0  0  0  0
   18.1682  -12.0927  -14.4168 N   0  0  0  0  0  0  0  0  0  0  0  0
   15.9327  -11.1892  -14.1389 C   0  0  0  0  0  0  0  0  0  0  0  0
   15.5489  -11.6137  -13.0188 O   0  0  0  0  0  0  0  0  0  0  0  0
   15.5403   -9.9269  -14.6655 N   0  0  0  0  0  0  0  0  0  0  0  0
   14.6355   -9.0889  -13.9412 C   0  0  0  0  0  0  0  0  0  0  0  0
   15.3159   -7.9259  -13.3090 C   0  0  0  0  0  0  0  0  0  0  0  0
   14.6471   -6.9039  -13.0124 O   0  0  0  0  0  0  0  0  0  0  0  0
   16.7046   -7.9136  -13.0199 N   0  0  0  0  0  0  0  0  0  0  0  0
   17.3857   -6.7763  -12.4319 C   0  0  1  0  0  0  0  0  0  0  0  0
   17.9979   -7.1094  -11.0898 C   0  0  0  0  0  0  0  0  0  0  0  0
   16.9453   -7.4067  -10.0899 C   0  0  0  0  0  0  0  0  0  0  0  0
   16.2793   -6.5372   -9.2558 C   0  0  0  0  0  0  0  0  0  0  0  0
   15.3989   -7.2519   -8.5082 N   0  0  0  0  0  0  0  0  0  0  0  0
   15.5109   -8.5523   -8.8683 C   0  0  0  0  0  0  0  0  0  0  0  0
   16.4559   -8.6277   -9.8313 N   0  0  0  0  0  0  0  0  0  0  0  0
   18.3398   -6.1702  -13.3586 C   0  0  0  0  0  0  0  0  0  0  0  0
   18.5655   -6.6421  -14.5001 O   0  0  0  0  0  0  0  0  0  0  0  0
   19.0318   -5.0310  -12.9826 O   0  0  0  0  0  0  0  0  0  0  0  0
  2  1  1  0
  3  2  1  0
  3  4  1  1
  5  7  1  0
  5  3  1  0
  6  5  2  0
  8  9  1  0
  8  7  1  0
  9 11  1  0
 10  9  2  0
 11 12  1  0
 12 13  1  1
 13 14  1  0
 14 18  1  0
 15 14  2  0
 15 16  1  0
 16 17  1  0
 18 17  2  0
 19 12  1  0
 19 21  1  0
 20 19  2  0
M  END
$$$$
