QGK.pdb
     RDKit          3D

 23 22  0  0  1  0  0  0  0  0999 V2000
    9.0161  -13.4703   17.3054 N   0  0  0  0  0  0  0  0  0  0  0  0
    8.2918  -12.8954   18.4020 C   0  0  0  0  0  0  0  0  0  0  0  0
    8.6521  -11.8070   18.9108 O   0  0  0  0  0  0  0  0  0  0  0  0
    7.1011  -13.5765   18.9573 C   0  0  0  0  0  0  0  0  0  0  0  0
    6.8676  -14.8461   18.2120 C   0  0  0  0  0  0  0  0  0  0  0  0
    6.9762  -16.0742   19.0733 C   0  0  2  0  0  0  0  0  0  0  0  0
    6.5333  -15.8036   20.4334 N   0  0  0  0  0  0  0  0  0  0  0  0
    8.3574  -16.6015   19.1484 C   0  0  0  0  0  0  0  0  0  0  0  0
    9.0281  -16.8901   18.1033 O   0  0  0  0  0  0  0  0  0  0  0  0
    9.0276  -16.8211   20.3906 N   0  0  0  0  0  0  0  0  0  0  0  0
   10.4491  -16.9781   20.4992 C   0  0  0  0  0  0  0  0  0  0  0  0
   10.9491  -16.6723   21.8634 C   0  0  0  0  0  0  0  0  0  0  0  0
   11.1060  -15.4810   22.2227 O   0  0  0  0  0  0  0  0  0  0  0  0
   11.2682  -17.6840   22.8101 N   0  0  0  0  0  0  0  0  0  0  0  0
   11.8998  -17.3347   24.0607 C   0  0  1  0  0  0  0  0  0  0  0  0
   11.9648  -18.5252   25.0334 C   0  0  0  0  0  0  0  0  0  0  0  0
   12.3318  -17.9911   26.3631 C   0  0  0  0  0  0  0  0  0  0  0  0
   12.5725  -18.9938   27.4366 C   0  0  0  0  0  0  0  0  0  0  0  0
   12.9479  -18.3845   28.7477 C   0  0  0  0  0  0  0  0  0  0  0  0
   13.1623  -19.3751   29.7439 N   0  0  0  0  0  0  0  0  0  0  0  0
   13.3037  -16.9396   23.7833 C   0  0  0  0  0  0  0  0  0  0  0  0
   13.9065  -17.3999   22.7939 O   0  0  0  0  0  0  0  0  0  0  0  0
   14.0055  -16.0527   24.5967 O   0  0  0  0  0  0  0  0  0  0  0  0
  1  2  1  0
  2  3  2  0
  4  2  1  0
  4  5  1  0
  6  5  1  0
  6  8  1  0
  6  7  1  1
  8  9  2  0
 10  8  1  0
 10 11  1  0
 11 12  1  0
 12 14  1  0
 13 12  2  0
 14 15  1  0
 15 16  1  1
 16 17  1  0
 17 18  1  0
 19 18  1  0
 20 19  1  0
 21 15  1  0
 21 23  1  0
 22 21  2  0
M  END
$$$$
