QGK.pdb
     RDKit          3D

 23 22  0  0  1  0  0  0  0  0999 V2000
    7.2038  -13.2058   17.7422 N   0  0  0  0  0  0  0  0  0  0  0  0
    7.9713  -14.1482   16.9803 C   0  0  0  0  0  0  0  0  0  0  0  0
    7.7998  -14.2669   15.7434 O   0  0  0  0  0  0  0  0  0  0  0  0
    8.9840  -15.0024   17.6395 C   0  0  0  0  0  0  0  0  0  0  0  0
    8.6336  -16.4355   17.4266 C   0  0  0  0  0  0  0  0  0  0  0  0
    8.6768  -17.2557   18.6865 C   0  0  2  0  0  0  0  0  0  0  0  0
    7.5184  -16.9895   19.5272 N   0  0  0  0  0  0  0  0  0  0  0  0
    9.8880  -16.9974   19.4976 C   0  0  0  0  0  0  0  0  0  0  0  0
   11.0623  -17.1358   19.0210 O   0  0  0  0  0  0  0  0  0  0  0  0
    9.8221  -16.5779   20.8614 N   0  0  0  0  0  0  0  0  0  0  0  0
   10.9843  -16.3577   21.6725 C   0  0  0  0  0  0  0  0  0  0  0  0
   10.6417  -15.8521   23.0258 C   0  0  0  0  0  0  0  0  0  0  0  0
   11.5366  -15.7303   23.8961 O   0  0  0  0  0  0  0  0  0  0  0  0
    9.3187  -15.4886   23.3987 N   0  0  0  0  0  0  0  0  0  0  0  0
    9.0748  -14.8326   24.6618 C   0  0  1  0  0  0  0  0  0  0  0  0
    7.7826  -13.9974   24.6448 C   0  0  0  0  0  0  0  0  0  0  0  0
    7.6934  -13.2933   25.9426 C   0  0  0  0  0  0  0  0  0  0  0  0
    6.4885  -12.4454   26.1551 C   0  0  0  0  0  0  0  0  0  0  0  0
    6.4974  -11.7128   27.4568 C   0  0  0  0  0  0  0  0  0  0  0  0
    5.2856  -11.0006   27.6658 N   0  0  0  0  0  0  0  0  0  0  0  0
    8.8904  -15.8739   25.7036 C   0  0  0  0  0  0  0  0  0  0  0  0
    8.3815  -16.9747   25.4144 O   0  0  0  0  0  0  0  0  0  0  0  0
    9.2682  -15.6795   27.0303 O   0  0  0  0  0  0  0  0  0  0  0  0
  1  2  1  0
  2  3  2  0
  4  2  1  0
  4  5  1  0
  6  5  1  0
  6  8  1  0
  6  7  1  1
  8  9  2  0
 10  8  1  0
 10 11  1  0
 11 12  1  0
 12 14  1  0
 13 12  2  0
 14 15  1  0
 15 16  1  6
 16 17  1  0
 17 18  1  0
 19 18  1  0
 20 19  1  0
 21 15  1  0
 21 23  1  0
 22 21  2  0
M  END
$$$$
