QGK.pdb
     RDKit          3D

 23 22  0  0  1  0  0  0  0  0999 V2000
   11.1605  -19.9614   15.7488 N   0  0  0  0  0  0  0  0  0  0  0  0
   10.1947  -19.5613   16.7311 C   0  0  0  0  0  0  0  0  0  0  0  0
    9.2279  -18.8252   16.4200 O   0  0  0  0  0  0  0  0  0  0  0  0
   10.3194  -20.0098   18.1358 C   0  0  0  0  0  0  0  0  0  0  0  0
    9.1948  -19.4451   18.9347 C   0  0  0  0  0  0  0  0  0  0  0  0
    9.0707  -17.9507   18.8202 C   0  0  2  0  0  0  0  0  0  0  0  0
   10.3682  -17.3036   18.9519 N   0  0  0  0  0  0  0  0  0  0  0  0
    8.1741  -17.3696   19.8449 C   0  0  0  0  0  0  0  0  0  0  0  0
    7.0185  -17.8522   20.0834 O   0  0  0  0  0  0  0  0  0  0  0  0
    8.5421  -16.2351   20.6309 N   0  0  0  0  0  0  0  0  0  0  0  0
    7.6909  -15.6658   21.6351 C   0  0  0  0  0  0  0  0  0  0  0  0
    8.3908  -15.4821   22.9317 C   0  0  0  0  0  0  0  0  0  0  0  0
    9.6124  -15.7489   23.0296 O   0  0  0  0  0  0  0  0  0  0  0  0
    7.7336  -15.0075   24.0998 N   0  0  0  0  0  0  0  0  0  0  0  0
    8.5050  -14.5372   25.2262 C   0  0  1  0  0  0  0  0  0  0  0  0
    7.6235  -13.8795   26.3024 C   0  0  0  0  0  0  0  0  0  0  0  0
    7.1346  -12.5969   25.7512 C   0  0  0  0  0  0  0  0  0  0  0  0
    6.2328  -11.7999   26.6272 C   0  0  0  0  0  0  0  0  0  0  0  0
    5.7213  -10.5546   25.9802 C   0  0  0  0  0  0  0  0  0  0  0  0
    4.8378   -9.8436   26.8368 N   0  0  0  0  0  0  0  0  0  0  0  0
    9.1556  -15.7058   25.8703 C   0  0  0  0  0  0  0  0  0  0  0  0
    8.6796  -16.8499   25.7330 O   0  0  0  0  0  0  0  0  0  0  0  0
   10.3074  -15.5875   26.6450 O   0  0  0  0  0  0  0  0  0  0  0  0
  1  2  1  0
  2  3  2  0
  4  2  1  0
  4  5  1  0
  6  5  1  0
  6  8  1  0
  6  7  1  1
  8  9  2  0
 10  8  1  0
 10 11  1  0
 11 12  1  0
 12 14  1  0
 13 12  2  0
 14 15  1  0
 15 16  1  1
 16 17  1  0
 17 18  1  0
 19 18  1  0
 20 19  1  0
 21 15  1  0
 21 23  1  0
 22 21  2  0
M  END
$$$$
