QGK.pdb
     RDKit          3D

 23 22  0  0  1  0  0  0  0  0999 V2000
    9.1085  -12.2567   18.1115 N   0  0  0  0  0  0  0  0  0  0  0  0
    8.1347  -13.2978   17.9525 C   0  0  0  0  0  0  0  0  0  0  0  0
    8.0393  -13.9299   16.8733 O   0  0  0  0  0  0  0  0  0  0  0  0
    7.2198  -13.6487   19.0614 C   0  0  0  0  0  0  0  0  0  0  0  0
    8.0157  -14.1594   20.2136 C   0  0  0  0  0  0  0  0  0  0  0  0
    8.3405  -15.6245   20.1141 C   0  0  2  0  0  0  0  0  0  0  0  0
    7.1536  -16.4416   20.3218 N   0  0  0  0  0  0  0  0  0  0  0  0
    9.3584  -16.0543   21.0994 C   0  0  0  0  0  0  0  0  0  0  0  0
   10.5153  -15.5213   21.1517 O   0  0  0  0  0  0  0  0  0  0  0  0
    9.1135  -17.0897   22.0523 N   0  0  0  0  0  0  0  0  0  0  0  0
   10.0826  -17.5094   23.0228 C   0  0  0  0  0  0  0  0  0  0  0  0
   10.2006  -16.5543   24.1535 C   0  0  0  0  0  0  0  0  0  0  0  0
   11.2483  -15.8805   24.3001 O   0  0  0  0  0  0  0  0  0  0  0  0
    9.1625  -16.3568   25.1048 N   0  0  0  0  0  0  0  0  0  0  0  0
    9.4216  -15.6208   26.3198 C   0  0  1  0  0  0  0  0  0  0  0  0
    8.1327  -15.0669   26.9518 C   0  0  0  0  0  0  0  0  0  0  0  0
    7.8177  -13.7923   26.2704 C   0  0  0  0  0  0  0  0  0  0  0  0
    6.5909  -13.0828   26.7258 C   0  0  0  0  0  0  0  0  0  0  0  0
    6.4019  -11.7474   26.0839 C   0  0  0  0  0  0  0  0  0  0  0  0
    5.2141  -11.1118   26.5363 N   0  0  0  0  0  0  0  0  0  0  0  0
   10.0134  -16.5504   27.3145 C   0  0  0  0  0  0  0  0  0  0  0  0
    9.9160  -17.7841   27.1634 O   0  0  0  0  0  0  0  0  0  0  0  0
   10.6940  -16.1022   28.4444 O   0  0  0  0  0  0  0  0  0  0  0  0
  1  2  1  0
  2  3  2  0
  4  2  1  0
  4  5  1  0
  6  5  1  0
  6  8  1  0
  6  7  1  1
  8  9  2  0
 10  8  1  0
 10 11  1  0
 11 12  1  0
 12 14  1  0
 13 12  2  0
 14 15  1  0
 15 16  1  1
 16 17  1  0
 17 18  1  0
 19 18  1  0
 20 19  1  0
 21 15  1  0
 21 23  1  0
 22 21  2  0
M  END
$$$$
