QGK.pdb
     RDKit          3D

 23 22  0  0  1  0  0  0  0  0999 V2000
    8.8874  -13.8049   15.3800 N   0  0  0  0  0  0  0  0  0  0  0  0
    7.8032  -14.6193   15.8477 C   0  0  0  0  0  0  0  0  0  0  0  0
    7.3430  -15.5464   15.1392 O   0  0  0  0  0  0  0  0  0  0  0  0
    7.2033  -14.3818   17.1794 C   0  0  0  0  0  0  0  0  0  0  0  0
    7.8377  -13.1834   17.7987 C   0  0  0  0  0  0  0  0  0  0  0  0
    8.9373  -13.5217   18.7674 C   0  0  2  0  0  0  0  0  0  0  0  0
    9.9066  -14.4271   18.1674 N   0  0  0  0  0  0  0  0  0  0  0  0
    8.4348  -14.1595   20.0052 C   0  0  0  0  0  0  0  0  0  0  0  0
    7.5312  -13.6196   20.7245 O   0  0  0  0  0  0  0  0  0  0  0  0
    8.9262  -15.4161   20.4740 N   0  0  0  0  0  0  0  0  0  0  0  0
    8.3767  -16.1009   21.6081 C   0  0  0  0  0  0  0  0  0  0  0  0
    8.9420  -15.6132   22.8915 C   0  0  0  0  0  0  0  0  0  0  0  0
   10.1683  -15.3671   22.9846 O   0  0  0  0  0  0  0  0  0  0  0  0
    8.1473  -15.4045   24.0519 N   0  0  0  0  0  0  0  0  0  0  0  0
    8.7738  -15.0846   25.3129 C   0  0  1  0  0  0  0  0  0  0  0  0
    7.7648  -14.5565   26.3476 C   0  0  0  0  0  0  0  0  0  0  0  0
    7.4268  -13.1675   25.9675 C   0  0  0  0  0  0  0  0  0  0  0  0
    6.4421  -12.4641   26.8343 C   0  0  0  0  0  0  0  0  0  0  0  0
    6.1283  -11.0775   26.3760 C   0  0  0  0  0  0  0  0  0  0  0  0
    5.1518  -10.4602   27.2036 N   0  0  0  0  0  0  0  0  0  0  0  0
    9.3478  -16.3301   25.8812 C   0  0  0  0  0  0  0  0  0  0  0  0
    9.0112  -17.4437   25.4327 O   0  0  0  0  0  0  0  0  0  0  0  0
   10.2728  -16.3198   26.9228 O   0  0  0  0  0  0  0  0  0  0  0  0
  1  2  1  0
  2  3  2  0
  4  2  1  0
  4  5  1  0
  6  5  1  0
  6  8  1  0
  6  7  1  6
  8  9  2  0
 10  8  1  0
 10 11  1  0
 11 12  1  0
 12 14  1  0
 13 12  2  0
 14 15  1  0
 15 16  1  1
 16 17  1  0
 17 18  1  0
 19 18  1  0
 20 19  1  0
 21 15  1  0
 21 23  1  0
 22 21  2  0
M  END
$$$$
