QGK.pdb
     RDKit          3D

 23 22  0  0  1  0  0  0  0  0999 V2000
   11.1717  -21.7238   17.4324 N   0  0  0  0  0  0  0  0  0  0  0  0
   11.8263  -20.4859   17.7434 C   0  0  0  0  0  0  0  0  0  0  0  0
   11.6524  -19.4692   17.0296 O   0  0  0  0  0  0  0  0  0  0  0  0
   12.7229  -20.3823   18.9161 C   0  0  0  0  0  0  0  0  0  0  0  0
   12.9782  -21.7454   19.4627 C   0  0  0  0  0  0  0  0  0  0  0  0
   12.2095  -22.0389   20.7217 C   0  0  2  0  0  0  0  0  0  0  0  0
   10.8116  -21.6557   20.5857 N   0  0  0  0  0  0  0  0  0  0  0  0
   12.7545  -21.3339   21.9038 C   0  0  0  0  0  0  0  0  0  0  0  0
   13.9567  -21.4997   22.2944 O   0  0  0  0  0  0  0  0  0  0  0  0
   11.9738  -20.4254   22.6818 N   0  0  0  0  0  0  0  0  0  0  0  0
   12.4922  -19.7156   23.8151 C   0  0  0  0  0  0  0  0  0  0  0  0
   12.4434  -20.5243   25.0594 C   0  0  0  0  0  0  0  0  0  0  0  0
   11.6341  -21.4773   25.1580 O   0  0  0  0  0  0  0  0  0  0  0  0
   13.2871  -20.2700   26.1753 N   0  0  0  0  0  0  0  0  0  0  0  0
   13.0778  -20.9737   27.4187 C   0  0  1  0  0  0  0  0  0  0  0  0
   14.0737  -20.5400   28.5086 C   0  0  0  0  0  0  0  0  0  0  0  0
   13.9157  -21.4698   29.6481 C   0  0  0  0  0  0  0  0  0  0  0  0
   14.7585  -21.2003   30.8451 C   0  0  0  0  0  0  0  0  0  0  0  0
   14.5738  -22.1984   31.9409 C   0  0  0  0  0  0  0  0  0  0  0  0
   15.5047  -21.9971   32.9957 N   0  0  0  0  0  0  0  0  0  0  0  0
   11.7240  -20.6373   27.9264 C   0  0  0  0  0  0  0  0  0  0  0  0
   11.2161  -19.5248   27.6842 O   0  0  0  0  0  0  0  0  0  0  0  0
   10.9667  -21.5282   28.6838 O   0  0  0  0  0  0  0  0  0  0  0  0
  1  2  1  0
  2  3  2  0
  4  2  1  0
  4  5  1  0
  6  5  1  0
  6  8  1  0
  6  7  1  6
  8  9  2  0
 10  8  1  0
 10 11  1  0
 11 12  1  0
 12 14  1  0
 13 12  2  0
 14 15  1  0
 15 16  1  1
 16 17  1  0
 17 18  1  0
 19 18  1  0
 20 19  1  0
 21 15  1  0
 21 23  1  0
 22 21  2  0
M  END
$$$$
