QGK.pdb
     RDKit          3D

 23 22  0  0  1  0  0  0  0  0999 V2000
    7.3207  -13.3086   16.5631 N   0  0  0  0  0  0  0  0  0  0  0  0
    8.1432  -13.3145   17.7384 C   0  0  0  0  0  0  0  0  0  0  0  0
    8.6138  -12.2471   18.1994 O   0  0  0  0  0  0  0  0  0  0  0  0
    8.4543  -14.5835   18.4332 C   0  0  0  0  0  0  0  0  0  0  0  0
    7.7801  -14.5952   19.7626 C   0  0  0  0  0  0  0  0  0  0  0  0
    7.9739  -15.8796   20.5206 C   0  0  2  0  0  0  0  0  0  0  0  0
    7.3285  -16.9937   19.8411 N   0  0  0  0  0  0  0  0  0  0  0  0
    7.4328  -15.8202   21.8972 C   0  0  0  0  0  0  0  0  0  0  0  0
    7.9810  -15.1176   22.8088 O   0  0  0  0  0  0  0  0  0  0  0  0
    6.2662  -16.5426   22.2940 N   0  0  0  0  0  0  0  0  0  0  0  0
    5.6354  -16.3754   23.5712 C   0  0  0  0  0  0  0  0  0  0  0  0
    6.3015  -17.1641   24.6384 C   0  0  0  0  0  0  0  0  0  0  0  0
    5.8569  -17.1360   25.8108 O   0  0  0  0  0  0  0  0  0  0  0  0
    7.4469  -17.9711   24.3968 N   0  0  0  0  0  0  0  0  0  0  0  0
    8.0979  -18.6534   25.4904 C   0  0  1  0  0  0  0  0  0  0  0  0
    8.5880  -20.0567   25.0926 C   0  0  0  0  0  0  0  0  0  0  0  0
    9.2244  -20.6579   26.2850 C   0  0  0  0  0  0  0  0  0  0  0  0
    9.9260  -21.9544   26.0789 C   0  0  0  0  0  0  0  0  0  0  0  0
   10.5328  -22.5084   27.3263 C   0  0  0  0  0  0  0  0  0  0  0  0
   11.2150  -23.7304   27.0795 N   0  0  0  0  0  0  0  0  0  0  0  0
    9.3043  -17.8787   25.8754 C   0  0  0  0  0  0  0  0  0  0  0  0
    9.9220  -17.2067   25.0262 O   0  0  0  0  0  0  0  0  0  0  0  0
    9.7983  -17.8625   27.1779 O   0  0  0  0  0  0  0  0  0  0  0  0
  1  2  1  0
  2  3  2  0
  4  2  1  0
  4  5  1  0
  6  5  1  0
  6  8  1  0
  6  7  1  6
  8  9  2  0
 10  8  1  0
 10 11  1  0
 11 12  1  0
 12 14  1  0
 13 12  2  0
 14 15  1  0
 15 16  1  6
 16 17  1  0
 17 18  1  0
 19 18  1  0
 20 19  1  0
 21 15  1  0
 21 23  1  0
 22 21  2  0
M  END
$$$$
