QGK.pdb
     RDKit          3D

 23 22  0  0  1  0  0  0  0  0999 V2000
    8.2142  -20.6795   18.5252 N   0  0  0  0  0  0  0  0  0  0  0  0
    6.8051  -20.9079   18.3842 C   0  0  0  0  0  0  0  0  0  0  0  0
    6.3514  -22.0707   18.2596 O   0  0  0  0  0  0  0  0  0  0  0  0
    5.8549  -19.7735   18.3828 C   0  0  0  0  0  0  0  0  0  0  0  0
    6.6133  -18.4958   18.5016 C   0  0  0  0  0  0  0  0  0  0  0  0
    7.2651  -18.3094   19.8441 C   0  0  2  0  0  0  0  0  0  0  0  0
    6.2741  -18.2773   20.9100 N   0  0  0  0  0  0  0  0  0  0  0  0
    8.0554  -17.0605   19.9293 C   0  0  0  0  0  0  0  0  0  0  0  0
    9.2527  -16.9879   19.4975 O   0  0  0  0  0  0  0  0  0  0  0  0
    7.5318  -15.8594   20.4981 N   0  0  0  0  0  0  0  0  0  0  0  0
    8.2806  -14.6391   20.5833 C   0  0  0  0  0  0  0  0  0  0  0  0
    8.7858  -14.3804   21.9553 C   0  0  0  0  0  0  0  0  0  0  0  0
    9.5151  -13.3849   22.1789 O   0  0  0  0  0  0  0  0  0  0  0  0
    8.4794  -15.2226   23.0591 N   0  0  0  0  0  0  0  0  0  0  0  0
    8.9832  -14.9068   24.3750 C   0  0  1  0  0  0  0  0  0  0  0  0
    7.8539  -14.7382   25.4064 C   0  0  0  0  0  0  0  0  0  0  0  0
    7.3675  -13.3448   25.3066 C   0  0  0  0  0  0  0  0  0  0  0  0
    6.2310  -12.9744   26.1937 C   0  0  0  0  0  0  0  0  0  0  0  0
    5.8091  -11.5481   26.0576 C   0  0  0  0  0  0  0  0  0  0  0  0
    4.7126  -11.2422   26.9083 N   0  0  0  0  0  0  0  0  0  0  0  0
    9.8164  -16.0426   24.8436 C   0  0  0  0  0  0  0  0  0  0  0  0
   10.4154  -15.9794   25.9352 O   0  0  0  0  0  0  0  0  0  0  0  0
    9.9691  -17.2132   24.1039 O   0  0  0  0  0  0  0  0  0  0  0  0
  1  2  1  0
  2  3  2  0
  4  2  1  0
  4  5  1  0
  6  5  1  0
  6  8  1  0
  6  7  1  1
  8  9  2  0
 10  8  1  0
 10 11  1  0
 11 12  1  0
 12 14  1  0
 13 12  2  0
 14 15  1  0
 15 16  1  1
 16 17  1  0
 17 18  1  0
 19 18  1  0
 20 19  1  0
 21 15  1  0
 21 23  1  0
 22 21  2  0
M  END
$$$$
