QGK.pdb
     RDKit          3D

 23 22  0  0  1  0  0  0  0  0999 V2000
    7.8872  -16.3591   16.9197 N   0  0  0  0  0  0  0  0  0  0  0  0
    7.6324  -15.0130   16.4947 C   0  0  0  0  0  0  0  0  0  0  0  0
    8.0810  -14.5872   15.4034 O   0  0  0  0  0  0  0  0  0  0  0  0
    6.8327  -14.0961   17.3372 C   0  0  0  0  0  0  0  0  0  0  0  0
    7.1453  -14.3478   18.7728 C   0  0  0  0  0  0  0  0  0  0  0  0
    8.3471  -13.5896   19.2654 C   0  0  2  0  0  0  0  0  0  0  0  0
    8.7522  -12.5681   18.3105 N   0  0  0  0  0  0  0  0  0  0  0  0
    9.5164  -14.4641   19.5091 C   0  0  0  0  0  0  0  0  0  0  0  0
   10.6230  -14.2981   18.8983 O   0  0  0  0  0  0  0  0  0  0  0  0
    9.4830  -15.5468   20.4402 N   0  0  0  0  0  0  0  0  0  0  0  0
   10.6242  -16.3635   20.7364 C   0  0  0  0  0  0  0  0  0  0  0  0
   11.3296  -15.9244   21.9670 C   0  0  0  0  0  0  0  0  0  0  0  0
   12.2487  -15.0740   21.8947 O   0  0  0  0  0  0  0  0  0  0  0  0
   11.0112  -16.4292   23.2575 N   0  0  0  0  0  0  0  0  0  0  0  0
   11.7490  -15.9805   24.4148 C   0  0  1  0  0  0  0  0  0  0  0  0
   11.0819  -16.4091   25.7335 C   0  0  0  0  0  0  0  0  0  0  0  0
   11.0284  -15.2187   26.6100 C   0  0  0  0  0  0  0  0  0  0  0  0
   10.4308  -15.4154   27.9590 C   0  0  0  0  0  0  0  0  0  0  0  0
   10.4729  -14.1911   28.8136 C   0  0  0  0  0  0  0  0  0  0  0  0
    9.7692  -14.3791   30.0339 N   0  0  0  0  0  0  0  0  0  0  0  0
   13.0893  -16.6184   24.3933 C   0  0  0  0  0  0  0  0  0  0  0  0
   13.2553  -17.7229   23.8395 O   0  0  0  0  0  0  0  0  0  0  0  0
   14.2076  -16.0286   24.9784 O   0  0  0  0  0  0  0  0  0  0  0  0
  1  2  1  0
  2  3  2  0
  4  2  1  0
  4  5  1  0
  6  5  1  0
  6  8  1  0
  6  7  1  6
  8  9  2  0
 10  8  1  0
 10 11  1  0
 11 12  1  0
 12 14  1  0
 13 12  2  0
 14 15  1  0
 15 16  1  1
 16 17  1  0
 17 18  1  0
 19 18  1  0
 20 19  1  0
 21 15  1  0
 21 23  1  0
 22 21  2  0
M  END
$$$$
