HWT.pdb
     RDKit          3D

 32 34  0  0  1  0  0  0  0  0999 V2000
   26.3134   -7.4456  -19.7638 N   0  0  0  0  0  0  0  0  0  0  0  0
   25.3060   -7.2677  -18.7350 C   0  0  1  0  0  0  0  0  0  0  0  0
   24.0917   -6.6302  -19.3857 C   0  0  0  0  0  0  0  0  0  0  0  0
   24.4484   -5.2401  -19.7476 C   0  0  0  0  0  0  0  0  0  0  0  0
   24.6760   -4.8142  -21.0411 C   0  0  0  0  0  0  0  0  0  0  0  0
   24.9716   -3.5016  -20.9799 N   0  0  0  0  0  0  0  0  0  0  0  0
   24.9369   -3.0910  -19.6922 C   0  0  0  0  0  0  0  0  0  0  0  0
   24.6152   -4.1686  -18.9548 N   0  0  0  0  0  0  0  0  0  0  0  0
   24.9831   -8.5286  -18.0490 C   0  0  0  0  0  0  0  0  0  0  0  0
   24.8952   -9.5916  -18.7467 O   0  0  0  0  0  0  0  0  0  0  0  0
   24.7796   -8.5367  -16.6492 N   0  0  0  0  0  0  0  0  0  0  0  0
   24.4892   -9.7849  -15.9323 C   0  0  1  0  0  0  0  0  0  0  0  0
   25.5758   -9.9182  -14.9001 C   0  0  0  0  0  0  0  0  0  0  0  0
   26.8093  -10.5663  -15.3438 C   0  0  0  0  0  0  0  0  0  0  0  0
   27.9592   -9.9961  -15.8093 C   0  0  0  0  0  0  0  0  0  0  0  0
   28.8361  -10.9640  -16.1298 N   0  0  0  0  0  0  0  0  0  0  0  0
   28.2900  -12.1663  -15.8858 C   0  0  0  0  0  0  0  0  0  0  0  0
   28.7155  -13.4740  -16.0211 C   0  0  0  0  0  0  0  0  0  0  0  0
   27.8791  -14.5167  -15.6678 C   0  0  0  0  0  0  0  0  0  0  0  0
   26.6133  -14.2773  -15.1769 C   0  0  0  0  0  0  0  0  0  0  0  0
   26.2073  -12.9675  -15.0492 C   0  0  0  0  0  0  0  0  0  0  0  0
   27.0363  -11.9290  -15.3994 C   0  0  0  0  0  0  0  0  0  0  0  0
   23.1761   -9.7461  -15.3079 C   0  0  0  0  0  0  0  0  0  0  0  0
   22.9406   -8.7580  -14.5209 O   0  0  0  0  0  0  0  0  0  0  0  0
   20.0371   -8.6183  -16.2887 C   0  0  0  0  0  0  0  0  0  0  0  0
   19.7538  -10.0299  -15.7866 C   0  0  1  0  0  0  0  0  0  0  0  0
   19.9063  -10.8779  -16.8820 O   0  0  0  0  0  0  0  0  0  0  0  0
   20.8203  -10.4398  -14.7731 C   0  0  2  0  0  0  0  0  0  0  0  0
   22.0985  -10.6403  -15.4401 N   0  0  0  0  0  0  0  0  0  0  0  0
   20.3699  -11.7292  -14.2156 C   0  0  0  0  0  0  0  0  0  0  0  0
   20.8982  -12.8404  -14.4653 O   0  0  0  0  0  0  0  0  0  0  0  0
   19.2674  -11.7825  -13.3287 O   0  0  0  0  0  0  0  0  0  0  0  0
  2  1  1  6
  3  2  1  0
  3  4  1  0
  4  5  2  0
  5  6  1  0
  7  6  1  0
  8  4  1  0
  8  7  2  0
  9 10  2  0
  9  2  1  0
 11  9  1  0
 12 11  1  0
 13 14  1  0
 12 13  1  1
 14 15  2  0
 14 22  1  0
 15 16  1  0
 16 17  1  0
 17 18  2  0
 18 19  1  0
 20 19  2  0
 21 20  1  0
 22 21  2  0
 22 17  1  0
 23 29  1  0
 23 12  1  0
 24 23  2  0
 26 28  1  0
 26 25  1  6
 27 26  1  0
 28 29  1  6
 28 30  1  0
 30 32  1  0
 31 30  2  0
M  END
$$$$
