HWT.pdb
     RDKit          3D

 32 34  0  0  1  0  0  0  0  0999 V2000
   28.1378  -21.8971  -16.0886 N   0  0  0  0  0  0  0  0  0  0  0  0
   27.3271  -20.7860  -15.6267 C   0  0  1  0  0  0  0  0  0  0  0  0
   26.6953  -20.1395  -16.8462 C   0  0  0  0  0  0  0  0  0  0  0  0
   27.7577  -19.4113  -17.5752 C   0  0  0  0  0  0  0  0  0  0  0  0
   28.2667  -18.1904  -17.1795 C   0  0  0  0  0  0  0  0  0  0  0  0
   29.2078  -17.8431  -18.0782 N   0  0  0  0  0  0  0  0  0  0  0  0
   29.3056  -18.8050  -19.0234 C   0  0  0  0  0  0  0  0  0  0  0  0
   28.4109  -19.7546  -18.6978 N   0  0  0  0  0  0  0  0  0  0  0  0
   26.3306  -21.2023  -14.6275 C   0  0  0  0  0  0  0  0  0  0  0  0
   25.7985  -22.3544  -14.7473 O   0  0  0  0  0  0  0  0  0  0  0  0
   25.9874  -20.3292  -13.5689 N   0  0  0  0  0  0  0  0  0  0  0  0
   24.9810  -20.7083  -12.5692 C   0  0  1  0  0  0  0  0  0  0  0  0
   25.2383  -19.8201  -11.3822 C   0  0  0  0  0  0  0  0  0  0  0  0
   26.5131  -20.0187  -10.6938 C   0  0  0  0  0  0  0  0  0  0  0  0
   27.7814  -19.8499  -11.1701 C   0  0  0  0  0  0  0  0  0  0  0  0
   28.6633  -20.1681  -10.2060 N   0  0  0  0  0  0  0  0  0  0  0  0
   28.0043  -20.5450   -9.0983 C   0  0  0  0  0  0  0  0  0  0  0  0
   28.3814  -20.9668   -7.8376 C   0  0  0  0  0  0  0  0  0  0  0  0
   27.4209  -21.2902   -6.8972 C   0  0  0  0  0  0  0  0  0  0  0  0
   26.0775  -21.2000   -7.1934 C   0  0  0  0  0  0  0  0  0  0  0  0
   25.7214  -20.7777   -8.4550 C   0  0  0  0  0  0  0  0  0  0  0  0
   26.6737  -20.4554   -9.3918 C   0  0  0  0  0  0  0  0  0  0  0  0
   23.6307  -20.5241  -13.0778 C   0  0  0  0  0  0  0  0  0  0  0  0
   23.3785  -19.4022  -13.6511 O   0  0  0  0  0  0  0  0  0  0  0  0
   21.8614  -21.8370  -15.9268 C   0  0  0  0  0  0  0  0  0  0  0  0
   20.9139  -22.0632  -14.7538 C   0  0  1  0  0  0  0  0  0  0  0  0
   21.1919  -23.3365  -14.2600 O   0  0  0  0  0  0  0  0  0  0  0  0
   21.2433  -21.0838  -13.6292 C   0  0  2  0  0  0  0  0  0  0  0  0
   22.5360  -21.4065  -13.0427 N   0  0  0  0  0  0  0  0  0  0  0  0
   20.1978  -21.2796  -12.6071 C   0  0  0  0  0  0  0  0  0  0  0  0
   20.3935  -21.7693  -11.4677 O   0  0  0  0  0  0  0  0  0  0  0  0
   18.8571  -20.9079  -12.8705 O   0  0  0  0  0  0  0  0  0  0  0  0
  2  1  1  6
  3  2  1  0
  3  4  1  0
  4  5  2  0
  5  6  1  0
  7  6  1  0
  8  4  1  0
  8  7  2  0
  9 10  2  0
  9  2  1  0
 11  9  1  0
 12 11  1  0
 13 14  1  0
 12 13  1  1
 14 15  2  0
 14 22  1  0
 15 16  1  0
 16 17  1  0
 17 18  2  0
 18 19  1  0
 20 19  2  0
 21 20  1  0
 22 21  2  0
 22 17  1  0
 23 29  1  0
 23 12  1  0
 24 23  2  0
 26 28  1  0
 26 25  1  6
 27 26  1  0
 28 29  1  1
 28 30  1  0
 30 32  1  0
 31 30  2  0
M  END
$$$$
