HWT.pdb
     RDKit          3D

 32 34  0  0  1  0  0  0  0  0999 V2000
   28.6581  -21.4049  -14.1843 N   0  0  0  0  0  0  0  0  0  0  0  0
   27.8612  -20.5142  -13.3617 C   0  0  1  0  0  0  0  0  0  0  0  0
   26.8578  -19.8252  -14.2687 C   0  0  0  0  0  0  0  0  0  0  0  0
   27.6022  -18.8883  -15.1397 C   0  0  0  0  0  0  0  0  0  0  0  0
   27.7990  -19.0838  -16.4923 C   0  0  0  0  0  0  0  0  0  0  0  0
   28.5117  -18.0345  -16.9449 N   0  0  0  0  0  0  0  0  0  0  0  0
   28.7680  -17.1884  -15.9219 C   0  0  0  0  0  0  0  0  0  0  0  0
   28.2035  -17.7284  -14.8273 N   0  0  0  0  0  0  0  0  0  0  0  0
   27.2195  -21.2181  -12.2404 C   0  0  0  0  0  0  0  0  0  0  0  0
   26.9612  -22.4592  -12.3735 O   0  0  0  0  0  0  0  0  0  0  0  0
   26.9063  -20.5146  -11.0539 N   0  0  0  0  0  0  0  0  0  0  0  0
   25.7019  -20.8355  -10.2775 C   0  0  1  0  0  0  0  0  0  0  0  0
   25.8377  -20.0700   -8.9893 C   0  0  0  0  0  0  0  0  0  0  0  0
   27.1885  -19.9728   -8.4375 C   0  0  0  0  0  0  0  0  0  0  0  0
   28.3628  -19.7115   -9.0831 C   0  0  0  0  0  0  0  0  0  0  0  0
   29.3727  -19.7396   -8.1954 N   0  0  0  0  0  0  0  0  0  0  0  0
   28.8909  -20.0146   -6.9725 C   0  0  0  0  0  0  0  0  0  0  0  0
   29.4495  -20.1646   -5.7175 C   0  0  0  0  0  0  0  0  0  0  0  0
   28.6467  -20.4570   -4.6304 C   0  0  0  0  0  0  0  0  0  0  0  0
   27.2835  -20.6043   -4.7728 C   0  0  0  0  0  0  0  0  0  0  0  0
   26.7454  -20.4511   -6.0313 C   0  0  0  0  0  0  0  0  0  0  0  0
   27.5405  -20.1603   -7.1137 C   0  0  0  0  0  0  0  0  0  0  0  0
   24.4928  -20.4518  -10.9893 C   0  0  0  0  0  0  0  0  0  0  0  0
   24.4143  -19.2287  -11.3754 O   0  0  0  0  0  0  0  0  0  0  0  0
   23.1294  -21.4026  -14.3469 C   0  0  0  0  0  0  0  0  0  0  0  0
   22.0094  -21.5984  -13.3310 C   0  0  1  0  0  0  0  0  0  0  0  0
   22.1040  -22.9157  -12.8860 O   0  0  0  0  0  0  0  0  0  0  0  0
   22.2592  -20.7131  -12.1118 C   0  0  2  0  0  0  0  0  0  0  0  0
   23.3739  -21.2319  -11.3325 N   0  0  0  0  0  0  0  0  0  0  0  0
   21.0324  -20.7967  -11.2967 C   0  0  0  0  0  0  0  0  0  0  0  0
   20.9423  -21.3990  -10.1988 O   0  0  0  0  0  0  0  0  0  0  0  0
   19.8378  -20.1727  -11.7308 O   0  0  0  0  0  0  0  0  0  0  0  0
  2  1  1  6
  3  2  1  0
  3  4  1  0
  4  5  2  0
  5  6  1  0
  7  6  1  0
  8  4  1  0
  8  7  2  0
  9 10  2  0
  9  2  1  0
 11  9  1  0
 12 11  1  0
 13 14  1  0
 12 13  1  1
 14 15  2  0
 14 22  1  0
 15 16  1  0
 16 17  1  0
 17 18  2  0
 18 19  1  0
 20 19  2  0
 21 20  1  0
 22 21  2  0
 22 17  1  0
 23 29  1  0
 23 12  1  0
 24 23  2  0
 26 28  1  0
 26 25  1  6
 27 26  1  0
 28 29  1  1
 28 30  1  0
 30 32  1  0
 31 30  2  0
M  END
$$$$
