HWT.pdb
     RDKit          3D

 32 34  0  0  1  0  0  0  0  0999 V2000
   27.7134  -21.7378  -15.0913 N   0  0  0  0  0  0  0  0  0  0  0  0
   27.4889  -20.6169  -14.1979 C   0  0  1  0  0  0  0  0  0  0  0  0
   26.7587  -19.5422  -14.9828 C   0  0  0  0  0  0  0  0  0  0  0  0
   27.6890  -19.0177  -16.0075 C   0  0  0  0  0  0  0  0  0  0  0  0
   27.5560  -19.2515  -17.3618 C   0  0  0  0  0  0  0  0  0  0  0  0
   28.5762  -18.6213  -17.9749 N   0  0  0  0  0  0  0  0  0  0  0  0
   29.3437  -18.0008  -17.0507 C   0  0  0  0  0  0  0  0  0  0  0  0
   28.7844  -18.2554  -15.8546 N   0  0  0  0  0  0  0  0  0  0  0  0
   26.7686  -21.0138  -12.9780 C   0  0  0  0  0  0  0  0  0  0  0  0
   25.7211  -21.7297  -13.0998 O   0  0  0  0  0  0  0  0  0  0  0  0
   27.2453  -20.5996  -11.7123 N   0  0  0  0  0  0  0  0  0  0  0  0
   26.4704  -20.8509  -10.4906 C   0  0  1  0  0  0  0  0  0  0  0  0
   27.2836  -20.2621   -9.3699 C   0  0  0  0  0  0  0  0  0  0  0  0
   26.7646  -20.4717   -8.0189 C   0  0  0  0  0  0  0  0  0  0  0  0
   25.5935  -21.0560   -7.6301 C   0  0  0  0  0  0  0  0  0  0  0  0
   25.5025  -21.0177   -6.2889 N   0  0  0  0  0  0  0  0  0  0  0  0
   26.5913  -20.4188   -5.7798 C   0  0  0  0  0  0  0  0  0  0  0  0
   27.0259  -20.1107   -4.5048 C   0  0  0  0  0  0  0  0  0  0  0  0
   28.2363  -19.4684   -4.3199 C   0  0  0  0  0  0  0  0  0  0  0  0
   29.0295  -19.1241   -5.3935 C   0  0  0  0  0  0  0  0  0  0  0  0
   28.5793  -19.4396   -6.6563 C   0  0  0  0  0  0  0  0  0  0  0  0
   27.3769  -20.0779   -6.8434 C   0  0  0  0  0  0  0  0  0  0  0  0
   25.1537  -20.2367  -10.5606 C   0  0  0  0  0  0  0  0  0  0  0  0
   25.1166  -18.9524  -10.5774 O   0  0  0  0  0  0  0  0  0  0  0  0
   23.0887  -19.4845  -13.1953 C   0  0  0  0  0  0  0  0  0  0  0  0
   22.1641  -20.2445  -12.2506 C   0  0  1  0  0  0  0  0  0  0  0  0
   22.2955  -21.5948  -12.5692 O   0  0  0  0  0  0  0  0  0  0  0  0
   22.6573  -20.0912  -10.8132 C   0  0  2  0  0  0  0  0  0  0  0  0
   23.8872  -20.8455  -10.6195 N   0  0  0  0  0  0  0  0  0  0  0  0
   21.6039  -20.6770   -9.9627 C   0  0  0  0  0  0  0  0  0  0  0  0
   20.4536  -20.1960   -9.8148 O   0  0  0  0  0  0  0  0  0  0  0  0
   21.8470  -21.8674   -9.2357 O   0  0  0  0  0  0  0  0  0  0  0  0
  2  1  1  6
  3  2  1  0
  3  4  1  0
  4  5  2  0
  5  6  1  0
  7  6  1  0
  8  4  1  0
  8  7  2  0
  9 10  2  0
  9  2  1  0
 11  9  1  0
 12 11  1  0
 13 14  1  0
 12 13  1  1
 14 15  2  0
 14 22  1  0
 15 16  1  0
 16 17  1  0
 17 18  2  0
 18 19  1  0
 20 19  2  0
 21 20  1  0
 22 21  2  0
 22 17  1  0
 23 29  1  0
 23 12  1  0
 24 23  2  0
 26 28  1  0
 26 25  1  6
 27 26  1  0
 28 29  1  6
 28 30  1  0
 30 32  1  0
 31 30  2  0
M  END
$$$$
