HWT.pdb
     RDKit          3D

 32 34  0  0  1  0  0  0  0  0999 V2000
   34.2485  -29.9390  -18.5427 N   0  0  0  0  0  0  0  0  0  0  0  0
   33.0083  -29.9102  -19.2951 C   0  0  1  0  0  0  0  0  0  0  0  0
   32.8866  -31.2319  -20.0318 C   0  0  0  0  0  0  0  0  0  0  0  0
   33.7805  -31.1783  -21.2103 C   0  0  0  0  0  0  0  0  0  0  0  0
   34.9840  -31.8494  -21.2964 C   0  0  0  0  0  0  0  0  0  0  0  0
   35.5108  -31.5653  -22.5029 N   0  0  0  0  0  0  0  0  0  0  0  0
   34.6782  -30.7391  -23.1754 C   0  0  0  0  0  0  0  0  0  0  0  0
   33.6265  -30.5146  -22.3680 N   0  0  0  0  0  0  0  0  0  0  0  0
   31.8448  -29.6311  -18.4389 C   0  0  0  0  0  0  0  0  0  0  0  0
   31.7897  -30.1867  -17.2931 O   0  0  0  0  0  0  0  0  0  0  0  0
   30.8251  -28.7644  -18.8969 N   0  0  0  0  0  0  0  0  0  0  0  0
   29.7023  -28.3887  -18.0284 C   0  0  1  0  0  0  0  0  0  0  0  0
   29.1911  -27.0829  -18.5736 C   0  0  0  0  0  0  0  0  0  0  0  0
   28.1199  -26.4423  -17.8116 C   0  0  0  0  0  0  0  0  0  0  0  0
   27.7618  -26.6321  -16.5078 C   0  0  0  0  0  0  0  0  0  0  0  0
   26.7027  -25.8545  -16.2210 N   0  0  0  0  0  0  0  0  0  0  0  0
   26.3508  -25.1519  -17.3099 C   0  0  0  0  0  0  0  0  0  0  0  0
   25.3669  -24.2239  -17.5933 C   0  0  0  0  0  0  0  0  0  0  0  0
   25.2750  -23.6735  -18.8583 C   0  0  0  0  0  0  0  0  0  0  0  0
   26.1548  -24.0348  -19.8562 C   0  0  0  0  0  0  0  0  0  0  0  0
   27.1284  -24.9610  -19.5545 C   0  0  0  0  0  0  0  0  0  0  0  0
   27.2225  -25.5098  -18.2982 C   0  0  0  0  0  0  0  0  0  0  0  0
   28.6603  -29.4036  -18.0379 C   0  0  0  0  0  0  0  0  0  0  0  0
   28.3519  -29.9029  -19.1809 O   0  0  0  0  0  0  0  0  0  0  0  0
   25.9500  -30.6285  -14.8702 C   0  0  0  0  0  0  0  0  0  0  0  0
   26.6257  -31.6441  -15.7850 C   0  0  1  0  0  0  0  0  0  0  0  0
   25.6825  -32.6384  -16.0379 O   0  0  0  0  0  0  0  0  0  0  0  0
   26.9395  -30.9957  -17.1317 C   0  0  2  0  0  0  0  0  0  0  0  0
   27.9259  -29.9384  -16.9641 N   0  0  0  0  0  0  0  0  0  0  0  0
   25.6738  -30.3934  -17.5919 C   0  0  0  0  0  0  0  0  0  0  0  0
   25.3834  -29.1759  -17.4941 O   0  0  0  0  0  0  0  0  0  0  0  0
   24.6750  -31.1948  -18.1961 O   0  0  0  0  0  0  0  0  0  0  0  0
  2  1  1  1
  3  2  1  0
  3  4  1  0
  4  5  2  0
  5  6  1  0
  7  6  1  0
  8  4  1  0
  8  7  2  0
  9 10  2  0
  9  2  1  0
 11  9  1  0
 12 11  1  0
 13 14  1  0
 12 13  1  6
 14 15  2  0
 14 22  1  0
 15 16  1  0
 16 17  1  0
 17 18  2  0
 18 19  1  0
 20 19  2  0
 21 20  1  0
 22 21  2  0
 22 17  1  0
 23 29  1  0
 23 12  1  0
 24 23  2  0
 26 28  1  0
 26 25  1  1
 27 26  1  0
 28 29  1  1
 28 30  1  0
 30 32  1  0
 31 30  2  0
M  END
$$$$
