HWT.pdb
     RDKit          3D

 32 34  0  0  1  0  0  0  0  0999 V2000
   28.6176  -21.4018  -15.2983 N   0  0  0  0  0  0  0  0  0  0  0  0
   27.7959  -20.4153  -14.6226 C   0  0  1  0  0  0  0  0  0  0  0  0
   27.1451  -19.5514  -15.6876 C   0  0  0  0  0  0  0  0  0  0  0  0
   28.2084  -18.7499  -16.3338 C   0  0  0  0  0  0  0  0  0  0  0  0
   28.7021  -19.0006  -17.5986 C   0  0  0  0  0  0  0  0  0  0  0  0
   29.6482  -18.0744  -17.8456 N   0  0  0  0  0  0  0  0  0  0  0  0
   29.7639  -17.2522  -16.7784 C   0  0  0  0  0  0  0  0  0  0  0  0
   28.8752  -17.6821  -15.8653 N   0  0  0  0  0  0  0  0  0  0  0  0
   26.8136  -21.0346  -13.7190 C   0  0  0  0  0  0  0  0  0  0  0  0
   26.3274  -22.1684  -14.0396 O   0  0  0  0  0  0  0  0  0  0  0  0
   26.4335  -20.3698  -12.5297 N   0  0  0  0  0  0  0  0  0  0  0  0
   25.4663  -20.9694  -11.6018 C   0  0  1  0  0  0  0  0  0  0  0  0
   25.7479  -20.3398  -10.2646 C   0  0  0  0  0  0  0  0  0  0  0  0
   27.0451  -20.6525   -9.6662 C   0  0  0  0  0  0  0  0  0  0  0  0
   28.0609  -21.4142  -10.1682 C   0  0  0  0  0  0  0  0  0  0  0  0
   29.0651  -21.4588   -9.2748 N   0  0  0  0  0  0  0  0  0  0  0  0
   28.7352  -20.7409   -8.1889 C   0  0  0  0  0  0  0  0  0  0  0  0
   29.3595  -20.4427   -6.9928 C   0  0  0  0  0  0  0  0  0  0  0  0
   28.7233  -19.6493   -6.0561 C   0  0  0  0  0  0  0  0  0  0  0  0
   27.4632  -19.1425   -6.2922 C   0  0  0  0  0  0  0  0  0  0  0  0
   26.8573  -19.4507   -7.4900 C   0  0  0  0  0  0  0  0  0  0  0  0
   27.4870  -20.2389   -8.4230 C   0  0  0  0  0  0  0  0  0  0  0  0
   24.0974  -20.7141  -12.0225 C   0  0  0  0  0  0  0  0  0  0  0  0
   23.7944  -19.4944  -12.2904 O   0  0  0  0  0  0  0  0  0  0  0  0
   19.8776  -21.9809  -14.2484 C   0  0  0  0  0  0  0  0  0  0  0  0
   21.2384  -22.3651  -13.6778 C   0  0  1  0  0  0  0  0  0  0  0  0
   22.1116  -22.4522  -14.7606 O   0  0  0  0  0  0  0  0  0  0  0  0
   21.7625  -21.2370  -12.7917 C   0  0  2  0  0  0  0  0  0  0  0  0
   23.0325  -21.6173  -12.1903 N   0  0  0  0  0  0  0  0  0  0  0  0
   20.7624  -21.0705  -11.7201 C   0  0  0  0  0  0  0  0  0  0  0  0
   20.8709  -21.5400  -10.5608 O   0  0  0  0  0  0  0  0  0  0  0  0
   19.5734  -20.3385  -11.9547 O   0  0  0  0  0  0  0  0  0  0  0  0
  2  1  1  6
  3  2  1  0
  3  4  1  0
  4  5  2  0
  5  6  1  0
  7  6  1  0
  8  4  1  0
  8  7  2  0
  9 10  2  0
  9  2  1  0
 11  9  1  0
 12 11  1  0
 13 14  1  0
 12 13  1  1
 14 15  2  0
 14 22  1  0
 15 16  1  0
 16 17  1  0
 17 18  2  0
 18 19  1  0
 20 19  2  0
 21 20  1  0
 22 21  2  0
 22 17  1  0
 23 29  1  0
 23 12  1  0
 24 23  2  0
 26 28  1  0
 26 25  1  6
 27 26  1  0
 28 29  1  1
 28 30  1  0
 30 32  1  0
 31 30  2  0
M  END
$$$$
