HWT.pdb
     RDKit          3D

 32 34  0  0  1  0  0  0  0  0999 V2000
   27.7261  -20.2927  -18.8206 N   0  0  0  0  0  0  0  0  0  0  0  0
   27.1247  -19.3474  -17.8987 C   0  0  1  0  0  0  0  0  0  0  0  0
   26.2052  -18.4444  -18.7008 C   0  0  0  0  0  0  0  0  0  0  0  0
   26.5890  -17.0426  -18.4211 C   0  0  0  0  0  0  0  0  0  0  0  0
   27.6862  -16.4174  -18.9794 C   0  0  0  0  0  0  0  0  0  0  0  0
   27.7144  -15.1604  -18.4966 N   0  0  0  0  0  0  0  0  0  0  0  0
   26.6723  -14.9771  -17.6549 C   0  0  0  0  0  0  0  0  0  0  0  0
   25.9967  -16.1393  -17.6226 N   0  0  0  0  0  0  0  0  0  0  0  0
   26.4306  -20.0183  -16.7884 C   0  0  0  0  0  0  0  0  0  0  0  0
   26.0268  -21.2147  -16.9622 O   0  0  0  0  0  0  0  0  0  0  0  0
   26.2279  -19.3330  -15.5678 N   0  0  0  0  0  0  0  0  0  0  0  0
   25.5742  -19.9899  -14.4288 C   0  0  1  0  0  0  0  0  0  0  0  0
   26.1467  -19.3327  -13.2023 C   0  0  0  0  0  0  0  0  0  0  0  0
   26.3995  -20.2104  -12.0603 C   0  0  0  0  0  0  0  0  0  0  0  0
   27.4964  -20.9785  -11.7940 C   0  0  0  0  0  0  0  0  0  0  0  0
   27.2997  -21.6498  -10.6455 N   0  0  0  0  0  0  0  0  0  0  0  0
   26.0926  -21.3419  -10.1440 C   0  0  0  0  0  0  0  0  0  0  0  0
   25.3798  -21.7192   -9.0220 C   0  0  0  0  0  0  0  0  0  0  0  0
   24.1193  -21.1995   -8.7926 C   0  0  0  0  0  0  0  0  0  0  0  0
   23.5504  -20.3013   -9.6702 C   0  0  0  0  0  0  0  0  0  0  0  0
   24.2763  -19.9374  -10.7826 C   0  0  0  0  0  0  0  0  0  0  0  0
   25.5294  -20.4521  -11.0133 C   0  0  0  0  0  0  0  0  0  0  0  0
   24.1292  -19.8312  -14.4813 C   0  0  0  0  0  0  0  0  0  0  0  0
   23.6870  -18.6467  -14.7104 O   0  0  0  0  0  0  0  0  0  0  0  0
   21.5040  -20.4828  -16.8795 C   0  0  0  0  0  0  0  0  0  0  0  0
   21.0603  -21.1684  -15.5919 C   0  0  1  0  0  0  0  0  0  0  0  0
   21.5872  -22.4581  -15.6281 O   0  0  0  0  0  0  0  0  0  0  0  0
   21.7013  -20.4748  -14.3917 C   0  0  2  0  0  0  0  0  0  0  0  0
   23.1192  -20.7969  -14.3219 N   0  0  0  0  0  0  0  0  0  0  0  0
   21.0305  -21.0308  -13.2012 C   0  0  0  0  0  0  0  0  0  0  0  0
   21.5690  -21.8049  -12.3724 O   0  0  0  0  0  0  0  0  0  0  0  0
   19.6819  -20.7045  -12.9188 O   0  0  0  0  0  0  0  0  0  0  0  0
  2  1  1  6
  3  2  1  0
  3  4  1  0
  4  5  2  0
  5  6  1  0
  7  6  1  0
  8  4  1  0
  8  7  2  0
  9 10  2  0
  9  2  1  0
 11  9  1  0
 12 11  1  0
 13 14  1  0
 12 13  1  1
 14 15  2  0
 14 22  1  0
 15 16  1  0
 16 17  1  0
 17 18  2  0
 18 19  1  0
 20 19  2  0
 21 20  1  0
 22 21  2  0
 22 17  1  0
 23 29  1  0
 23 12  1  0
 24 23  2  0
 26 28  1  0
 26 25  1  6
 27 26  1  0
 28 29  1  1
 28 30  1  0
 30 32  1  0
 31 30  2  0
M  END
$$$$
