APE.pdb
     RDKit          3D

 22 22  0  0  1  0  0  0  0  0999 V2000
    6.3904  -15.2084   22.2372 C   0  0  0  0  0  0  0  0  0  0  0  0
    7.3330  -14.0256   22.2711 C   0  0  2  0  0  0  0  0  0  0  0  0
    8.2037  -14.0810   21.1434 N   0  0  0  0  0  0  0  0  0  0  0  0
    8.0145  -13.9959   23.5826 C   0  0  0  0  0  0  0  0  0  0  0  0
    9.0954  -14.6742   23.6353 O   0  0  0  0  0  0  0  0  0  0  0  0
    7.5791  -13.3079   24.7213 N   0  0  0  0  0  0  0  0  0  0  0  0
    6.4145  -12.4517   24.7607 C   0  0  0  0  0  0  0  0  0  0  0  0
    6.3680  -11.7552   26.0767 C   0  0  0  0  0  0  0  0  0  0  0  0
    7.3336  -12.5144   26.9374 C   0  0  0  0  0  0  0  0  0  0  0  0
    8.1859  -13.3280   26.0152 C   0  0  1  0  0  0  0  0  0  0  0  0
    8.3781  -14.6948   26.5487 C   0  0  0  0  0  0  0  0  0  0  0  0
    7.7523  -15.6623   26.0525 O   0  0  0  0  0  0  0  0  0  0  0  0
    9.2560  -14.9661   27.6179 N   0  0  0  0  0  0  0  0  0  0  0  0
    9.9617  -16.2644   27.7651 C   0  0  1  0  0  0  0  0  0  0  0  0
   10.7533  -16.4752   26.5414 C   0  0  0  0  0  0  0  0  0  0  0  0
   11.6860  -17.5894   26.3948 C   0  0  0  0  0  0  0  0  0  0  0  0
   12.3711  -17.8061   25.1339 C   0  0  0  0  0  0  0  0  0  0  0  0
   11.7525  -17.9659   24.0508 O   0  0  0  0  0  0  0  0  0  0  0  0
   10.7193  -16.2762   29.0073 C   0  0  0  0  0  0  0  0  0  0  0  0
   10.8733  -17.3800   29.6399 O   0  0  0  0  0  0  0  0  0  0  0  0
   13.7597  -17.8500   25.0492 O   0  0  0  0  0  0  0  0  0  0  0  0
   11.3320  -15.1901   29.6159 O   0  0  0  0  0  0  0  0  0  0  0  0
  2  1  1  1
  2  3  1  0
  4  2  1  0
  5  4  2  0
  6  4  1  0
  6  7  1  0
  8  7  1  0
  9 10  1  0
  9  8  1  0
 10  6  1  0
 10 11  1  1
 11 13  1  0
 12 11  2  0
 13 14  1  0
 14 19  1  0
 14 15  1  6
 15 16  1  0
 16 17  1  0
 17 18  2  0
 19 22  1  0
 20 19  2  0
 21 17  1  0
M  END
$$$$
