APE.pdb
     RDKit          3D

 22 22  0  0  1  0  0  0  0  0999 V2000
    7.4907  -12.1744   26.4480 C   0  0  0  0  0  0  0  0  0  0  0  0
    6.4361  -12.9647   25.7050 C   0  0  2  0  0  0  0  0  0  0  0  0
    5.4254  -13.3831   26.6196 N   0  0  0  0  0  0  0  0  0  0  0  0
    7.0953  -14.0598   24.9623 C   0  0  0  0  0  0  0  0  0  0  0  0
    7.4066  -15.0730   25.6749 O   0  0  0  0  0  0  0  0  0  0  0  0
    7.3901  -14.0657   23.5939 N   0  0  0  0  0  0  0  0  0  0  0  0
    6.9970  -13.0245   22.6709 C   0  0  0  0  0  0  0  0  0  0  0  0
    7.3246  -13.4562   21.2833 C   0  0  0  0  0  0  0  0  0  0  0  0
    8.2569  -14.6173   21.4619 C   0  0  0  0  0  0  0  0  0  0  0  0
    8.1149  -15.0704   22.8809 C   0  0  1  0  0  0  0  0  0  0  0  0
    9.4391  -15.3651   23.4718 C   0  0  0  0  0  0  0  0  0  0  0  0
    9.9227  -14.6112   24.3503 O   0  0  0  0  0  0  0  0  0  0  0  0
   10.2020  -16.4846   23.0819 N   0  0  0  0  0  0  0  0  0  0  0  0
   11.4894  -16.8416   23.7304 C   0  0  1  0  0  0  0  0  0  0  0  0
   11.2199  -17.0339   25.1652 C   0  0  0  0  0  0  0  0  0  0  0  0
   10.5085  -18.2016   25.6784 C   0  0  0  0  0  0  0  0  0  0  0  0
   10.5996  -18.5517   27.0839 C   0  0  0  0  0  0  0  0  0  0  0  0
   11.3720  -17.9555   27.8772 O   0  0  0  0  0  0  0  0  0  0  0  0
   12.0854  -17.9813   23.0499 C   0  0  0  0  0  0  0  0  0  0  0  0
   13.3300  -18.2352   23.2195 O   0  0  0  0  0  0  0  0  0  0  0  0
    9.8338  -19.5729   27.6389 O   0  0  0  0  0  0  0  0  0  0  0  0
   11.4400  -18.8748   22.2069 O   0  0  0  0  0  0  0  0  0  0  0  0
  2  1  1  1
  2  3  1  0
  4  2  1  0
  5  4  2  0
  6  4  1  0
  6  7  1  0
  8  7  1  0
  9 10  1  0
  9  8  1  0
 10  6  1  0
 10 11  1  1
 11 13  1  0
 12 11  2  0
 13 14  1  0
 14 19  1  0
 14 15  1  1
 15 16  1  0
 16 17  1  0
 17 18  2  0
 19 22  1  0
 20 19  2  0
 21 17  1  0
M  END
$$$$
