APE.pdb
     RDKit          3D

 22 22  0  0  1  0  0  0  0  0999 V2000
    6.0093  -17.4687   19.6404 C   0  0  0  0  0  0  0  0  0  0  0  0
    6.7644  -16.8357   18.4923 C   0  0  2  0  0  0  0  0  0  0  0  0
    6.9302  -17.7933   17.4490 N   0  0  0  0  0  0  0  0  0  0  0  0
    8.0216  -16.2555   19.0101 C   0  0  0  0  0  0  0  0  0  0  0  0
    9.0062  -17.0682   19.0474 O   0  0  0  0  0  0  0  0  0  0  0  0
    8.2025  -14.9369   19.4437 N   0  0  0  0  0  0  0  0  0  0  0  0
    7.1834  -13.9127   19.3859 C   0  0  0  0  0  0  0  0  0  0  0  0
    7.7878  -12.6042   19.7621 C   0  0  0  0  0  0  0  0  0  0  0  0
    9.0972  -12.9649   20.3985 C   0  0  0  0  0  0  0  0  0  0  0  0
    9.3910  -14.3794   20.0092 C   0  0  1  0  0  0  0  0  0  0  0  0
    9.9020  -15.1462   21.1670 C   0  0  0  0  0  0  0  0  0  0  0  0
    9.1294  -15.4768   22.0986 O   0  0  0  0  0  0  0  0  0  0  0  0
   11.2536  -15.5322   21.2734 N   0  0  0  0  0  0  0  0  0  0  0  0
   11.7703  -16.3342   22.4114 C   0  0  1  0  0  0  0  0  0  0  0  0
   12.2996  -17.5919   21.8579 C   0  0  0  0  0  0  0  0  0  0  0  0
   11.4662  -18.5303   21.1110 C   0  0  0  0  0  0  0  0  0  0  0  0
   12.0508  -19.7289   20.5384 C   0  0  0  0  0  0  0  0  0  0  0  0
   13.2700  -20.0097   20.6653 O   0  0  0  0  0  0  0  0  0  0  0  0
   12.7190  -15.5441   23.1815 C   0  0  0  0  0  0  0  0  0  0  0  0
   13.3001  -14.5445   22.6289 O   0  0  0  0  0  0  0  0  0  0  0  0
   11.2926  -20.6423   19.8116 O   0  0  0  0  0  0  0  0  0  0  0  0
   13.0828  -15.7434   24.5056 O   0  0  0  0  0  0  0  0  0  0  0  0
  2  1  1  1
  2  3  1  0
  4  2  1  0
  5  4  2  0
  6  4  1  0
  6  7  1  0
  8  7  1  0
  9 10  1  0
  9  8  1  0
 10  6  1  0
 10 11  1  1
 11 13  1  0
 12 11  2  0
 13 14  1  0
 14 19  1  0
 14 15  1  6
 15 16  1  0
 16 17  1  0
 17 18  2  0
 19 22  1  0
 20 19  2  0
 21 17  1  0
M  END
$$$$
