APE.pdb
     RDKit          3D

 22 22  0  0  1  0  0  0  0  0999 V2000
    7.5012  -11.7849   26.2560 C   0  0  0  0  0  0  0  0  0  0  0  0
    6.4200  -12.5590   25.5345 C   0  0  2  0  0  0  0  0  0  0  0  0
    5.3565  -12.8441   26.4405 N   0  0  0  0  0  0  0  0  0  0  0  0
    7.0279  -13.7453   24.8954 C   0  0  0  0  0  0  0  0  0  0  0  0
    7.2228  -14.7318   25.6827 O   0  0  0  0  0  0  0  0  0  0  0  0
    7.3895  -13.8598   23.5479 N   0  0  0  0  0  0  0  0  0  0  0  0
    7.1434  -12.8442   22.5486 C   0  0  0  0  0  0  0  0  0  0  0  0
    7.4987  -13.3862   21.2073 C   0  0  0  0  0  0  0  0  0  0  0  0
    8.3072  -14.6148   21.5012 C   0  0  0  0  0  0  0  0  0  0  0  0
    8.0516  -14.9672   22.9328 C   0  0  1  0  0  0  0  0  0  0  0  0
    9.3106  -15.3456   23.6121 C   0  0  0  0  0  0  0  0  0  0  0  0
   10.0693  -14.4617   24.0780 O   0  0  0  0  0  0  0  0  0  0  0  0
    9.7065  -16.6901   23.7634 N   0  0  0  0  0  0  0  0  0  0  0  0
   10.9926  -17.0801   24.3951 C   0  0  1  0  0  0  0  0  0  0  0  0
   10.6754  -17.9729   25.5222 C   0  0  0  0  0  0  0  0  0  0  0  0
   11.7099  -18.6496   26.2999 C   0  0  0  0  0  0  0  0  0  0  0  0
   11.3434  -19.4989   27.4182 C   0  0  0  0  0  0  0  0  0  0  0  0
   10.1484  -19.6673   27.7720 O   0  0  0  0  0  0  0  0  0  0  0  0
   11.8866  -17.6370   23.3911 C   0  0  0  0  0  0  0  0  0  0  0  0
   11.3923  -18.2057   22.3545 O   0  0  0  0  0  0  0  0  0  0  0  0
   12.2976  -20.1801   28.1684 O   0  0  0  0  0  0  0  0  0  0  0  0
   13.2739  -17.6200   23.4144 O   0  0  0  0  0  0  0  0  0  0  0  0
  2  1  1  1
  2  3  1  0
  4  2  1  0
  5  4  2  0
  6  4  1  0
  6  7  1  0
  8  7  1  0
  9 10  1  0
  9  8  1  0
 10  6  1  0
 10 11  1  1
 11 13  1  0
 12 11  2  0
 13 14  1  0
 14 19  1  0
 14 15  1  1
 15 16  1  0
 16 17  1  0
 17 18  2  0
 19 22  1  0
 20 19  2  0
 21 17  1  0
M  END
$$$$
