APE.pdb
     RDKit          3D

 22 22  0  0  1  0  0  0  0  0999 V2000
    8.0099  -16.9573   17.0749 C   0  0  0  0  0  0  0  0  0  0  0  0
    8.8356  -15.6988   16.9226 C   0  0  2  0  0  0  0  0  0  0  0  0
    9.8501  -15.9131   15.9439 N   0  0  0  0  0  0  0  0  0  0  0  0
    9.3315  -15.2894   18.2537 C   0  0  0  0  0  0  0  0  0  0  0  0
   10.4309  -15.8376   18.6029 O   0  0  0  0  0  0  0  0  0  0  0  0
    8.7097  -14.3836   19.1211 N   0  0  0  0  0  0  0  0  0  0  0  0
    7.5071  -13.6460   18.8043 C   0  0  0  0  0  0  0  0  0  0  0  0
    7.2454  -12.6556   19.8858 C   0  0  0  0  0  0  0  0  0  0  0  0
    8.1237  -13.0966   21.0188 C   0  0  0  0  0  0  0  0  0  0  0  0
    9.1352  -14.0354   20.4405 C   0  0  1  0  0  0  0  0  0  0  0  0
    9.3248  -15.2089   21.3216 C   0  0  0  0  0  0  0  0  0  0  0  0
    8.6122  -16.2313   21.1771 O   0  0  0  0  0  0  0  0  0  0  0  0
   10.2959  -15.2306   22.3433 N   0  0  0  0  0  0  0  0  0  0  0  0
   10.5290  -16.4199   23.2016 C   0  0  1  0  0  0  0  0  0  0  0  0
   11.9650  -16.4526   23.5260 C   0  0  0  0  0  0  0  0  0  0  0  0
   13.0009  -16.4223   22.4970 C   0  0  0  0  0  0  0  0  0  0  0  0
   14.3989  -16.3182   22.8722 C   0  0  0  0  0  0  0  0  0  0  0  0
   15.0467  -15.2458   22.7636 O   0  0  0  0  0  0  0  0  0  0  0  0
    9.6319  -16.3857   24.3466 C   0  0  0  0  0  0  0  0  0  0  0  0
    9.0134  -15.2994   24.6291 O   0  0  0  0  0  0  0  0  0  0  0  0
   15.1082  -17.4044   23.3765 O   0  0  0  0  0  0  0  0  0  0  0  0
    9.3427  -17.4361   25.2059 O   0  0  0  0  0  0  0  0  0  0  0  0
  2  1  1  1
  2  3  1  0
  4  2  1  0
  5  4  2  0
  6  4  1  0
  6  7  1  0
  8  7  1  0
  9 10  1  0
  9  8  1  0
 10  6  1  0
 10 11  1  1
 11 13  1  0
 12 11  2  0
 13 14  1  0
 14 19  1  0
 14 15  1  1
 15 16  1  0
 16 17  1  0
 17 18  2  0
 19 22  1  0
 20 19  2  0
 21 17  1  0
M  END
$$$$
