APE.pdb
     RDKit          3D

 22 22  0  0  1  0  0  0  0  0999 V2000
    7.4792  -16.9499   16.9761 C   0  0  0  0  0  0  0  0  0  0  0  0
    8.4630  -15.8219   16.7561 C   0  0  2  0  0  0  0  0  0  0  0  0
    9.4089  -16.2054   15.7605 N   0  0  0  0  0  0  0  0  0  0  0  0
    9.0501  -15.4400   18.0579 C   0  0  0  0  0  0  0  0  0  0  0  0
   10.1354  -16.0466   18.3499 O   0  0  0  0  0  0  0  0  0  0  0  0
    8.5247  -14.5021   18.9546 N   0  0  0  0  0  0  0  0  0  0  0  0
    7.3579  -13.6892   18.6932 C   0  0  0  0  0  0  0  0  0  0  0  0
    7.2064  -12.6906   19.7882 C   0  0  0  0  0  0  0  0  0  0  0  0
    8.1042  -13.1919   20.8800 C   0  0  0  0  0  0  0  0  0  0  0  0
    9.0286  -14.1886   20.2549 C   0  0  1  0  0  0  0  0  0  0  0  0
    9.1830  -15.3767   21.1234 C   0  0  0  0  0  0  0  0  0  0  0  0
    8.2707  -16.2353   21.1901 O   0  0  0  0  0  0  0  0  0  0  0  0
   10.3396  -15.5930   21.8998 N   0  0  0  0  0  0  0  0  0  0  0  0
   10.4905  -16.7618   22.8035 C   0  0  1  0  0  0  0  0  0  0  0  0
   11.6389  -17.5459   22.3192 C   0  0  0  0  0  0  0  0  0  0  0  0
   11.7465  -18.0045   20.9367 C   0  0  0  0  0  0  0  0  0  0  0  0
   12.9497  -18.6770   20.4829 C   0  0  0  0  0  0  0  0  0  0  0  0
   13.9444  -18.8547   21.2315 O   0  0  0  0  0  0  0  0  0  0  0  0
   10.5817  -16.3099   24.1836 C   0  0  0  0  0  0  0  0  0  0  0  0
   10.6259  -17.1756   25.1275 O   0  0  0  0  0  0  0  0  0  0  0  0
   13.0740  -19.1671   19.1861 O   0  0  0  0  0  0  0  0  0  0  0  0
   10.6383  -14.9953   24.6243 O   0  0  0  0  0  0  0  0  0  0  0  0
  2  1  1  1
  2  3  1  0
  4  2  1  0
  5  4  2  0
  6  4  1  0
  6  7  1  0
  8  7  1  0
  9 10  1  0
  9  8  1  0
 10  6  1  0
 10 11  1  1
 11 13  1  0
 12 11  2  0
 13 14  1  0
 14 19  1  0
 14 15  1  6
 15 16  1  0
 16 17  1  0
 17 18  2  0
 19 22  1  0
 20 19  2  0
 21 17  1  0
M  END
$$$$
