YKP.pdb
     RDKit          3D

 29 30  0  0  1  0  0  0  0  0999 V2000
   29.5639  -20.4326  -18.9076 O   0  0  0  0  0  0  0  0  0  0  0  0
   29.2078  -20.0033  -17.6431 C   0  0  0  0  0  0  0  0  0  0  0  0
   29.3932  -20.8570  -16.5771 C   0  0  0  0  0  0  0  0  0  0  0  0
   29.0564  -20.4834  -15.2926 C   0  0  0  0  0  0  0  0  0  0  0  0
   28.5189  -19.2344  -15.0283 C   0  0  0  0  0  0  0  0  0  0  0  0
   28.1496  -18.8132  -13.6508 C   0  0  0  0  0  0  0  0  0  0  0  0
   27.0031  -19.6696  -13.2003 C   0  0  2  0  0  0  0  0  0  0  0  0
   25.8783  -19.4275  -14.0786 N   0  0  0  0  0  0  0  0  0  0  0  0
   26.5792  -19.4138  -11.8203 C   0  0  0  0  0  0  0  0  0  0  0  0
   26.3747  -18.2000  -11.4891 O   0  0  0  0  0  0  0  0  0  0  0  0
   28.3450  -18.3988  -16.1231 C   0  0  0  0  0  0  0  0  0  0  0  0
   28.6793  -18.7681  -17.4023 C   0  0  0  0  0  0  0  0  0  0  0  0
   26.3802  -20.4086  -10.8310 N   0  0  0  0  0  0  0  0  0  0  0  0
   26.0532  -20.0208   -9.4596 C   0  0  1  0  0  0  0  0  0  0  0  0
   24.7379  -20.7422   -9.1440 C   0  0  0  0  0  0  0  0  0  0  0  0
   23.7112  -20.2713  -10.1523 C   0  0  0  0  0  0  0  0  0  0  0  0
   22.3978  -20.9825   -9.8993 C   0  0  0  0  0  0  0  0  0  0  0  0
   21.4060  -20.6204  -10.9566 C   0  0  0  0  0  0  0  0  0  0  0  0
   20.2017  -21.4034  -10.7871 N   0  0  0  0  0  0  0  0  0  0  0  0
   27.0630  -20.5475   -8.5086 C   0  0  0  0  0  0  0  0  0  0  0  0
   27.6952  -21.6069   -8.8414 O   0  0  0  0  0  0  0  0  0  0  0  0
   27.3480  -19.9328   -7.2705 N   0  0  0  0  0  0  0  0  0  0  0  0
   26.6864  -18.7571   -6.7447 C   0  0  0  0  0  0  0  0  0  0  0  0
   27.8419  -17.9814   -6.1422 C   0  0  0  0  0  0  0  0  0  0  0  0
   28.8856  -19.0041   -5.7948 C   0  0  0  0  0  0  0  0  0  0  0  0
   28.3281  -20.3120   -6.2683 C   0  0  1  0  0  0  0  0  0  0  0  0
   27.6139  -20.9592   -5.1431 C   0  0  0  0  0  0  0  0  0  0  0  0
   28.3361  -21.5084   -4.0714 O   0  0  0  0  0  0  0  0  0  0  0  0
   26.3781  -21.0328   -5.1168 O   0  0  0  0  0  0  0  0  0  0  0  0
  2  1  1  0
  3  2  2  0
  4  3  1  0
  5 11  1  0
  5  4  2  0
  6  7  1  0
  6  5  1  0
  7  8  1  6
  9  7  1  0
 10  9  2  0
 11 12  2  0
 12  2  1  0
 13  9  1  0
 14 13  1  0
 14 15  1  1
 15 16  1  0
 16 17  1  0
 18 17  1  0
 19 18  1  0
 20 21  2  0
 20 14  1  0
 22 20  1  0
 23 22  1  0
 24 25  1  0
 24 23  1  0
 25 26  1  0
 26 27  1  1
 26 22  1  0
 27 28  1  0
 29 27  2  0
M  END
$$$$
