YKP.pdb
     RDKit          3D

 29 30  0  0  1  0  0  0  0  0999 V2000
   28.9018  -18.9513   -3.9122 O   0  0  0  0  0  0  0  0  0  0  0  0
   28.4703  -19.4670   -5.1197 C   0  0  0  0  0  0  0  0  0  0  0  0
   27.2949  -20.1860   -5.1506 C   0  0  0  0  0  0  0  0  0  0  0  0
   26.8148  -20.7245   -6.3264 C   0  0  0  0  0  0  0  0  0  0  0  0
   27.4985  -20.5611   -7.5200 C   0  0  0  0  0  0  0  0  0  0  0  0
   26.9974  -21.1338   -8.7975 C   0  0  0  0  0  0  0  0  0  0  0  0
   25.9038  -20.2403   -9.3039 C   0  0  2  0  0  0  0  0  0  0  0  0
   24.6352  -20.7631   -8.8429 N   0  0  0  0  0  0  0  0  0  0  0  0
   25.8579  -20.1299  -10.7652 C   0  0  0  0  0  0  0  0  0  0  0  0
   25.1952  -21.0174  -11.3959 O   0  0  0  0  0  0  0  0  0  0  0  0
   28.6782  -19.8322   -7.4547 C   0  0  0  0  0  0  0  0  0  0  0  0
   29.1581  -19.2954   -6.2860 C   0  0  0  0  0  0  0  0  0  0  0  0
   26.4914  -19.1164  -11.5264 N   0  0  0  0  0  0  0  0  0  0  0  0
   26.2724  -19.0417  -12.9701 C   0  0  1  0  0  0  0  0  0  0  0  0
   27.0464  -17.7999  -13.4271 C   0  0  0  0  0  0  0  0  0  0  0  0
   26.7660  -17.6105  -14.9029 C   0  0  0  0  0  0  0  0  0  0  0  0
   28.0761  -17.5894  -15.6631 C   0  0  0  0  0  0  0  0  0  0  0  0
   27.8210  -17.3739  -17.1196 C   0  0  0  0  0  0  0  0  0  0  0  0
   29.0784  -17.2862  -17.8292 N   0  0  0  0  0  0  0  0  0  0  0  0
   26.8913  -20.2022  -13.6571 C   0  0  0  0  0  0  0  0  0  0  0  0
   28.0205  -20.6147  -13.2240 O   0  0  0  0  0  0  0  0  0  0  0  0
   26.2900  -20.8578  -14.7528 N   0  0  0  0  0  0  0  0  0  0  0  0
   25.0504  -20.4647  -15.3894 C   0  0  0  0  0  0  0  0  0  0  0  0
   24.3792  -21.8018  -15.6374 C   0  0  0  0  0  0  0  0  0  0  0  0
   25.4910  -22.8067  -15.7365 C   0  0  0  0  0  0  0  0  0  0  0  0
   26.7467  -22.0315  -15.4757 C   0  0  1  0  0  0  0  0  0  0  0  0
   27.3088  -21.5875  -16.7725 C   0  0  0  0  0  0  0  0  0  0  0  0
   28.2430  -22.3891  -17.4483 O   0  0  0  0  0  0  0  0  0  0  0  0
   26.9754  -20.5128  -17.2892 O   0  0  0  0  0  0  0  0  0  0  0  0
  2  1  1  0
  3  2  2  0
  4  3  1  0
  5 11  1  0
  5  4  2  0
  6  7  1  0
  6  5  1  0
  7  8  1  6
  9  7  1  0
 10  9  2  0
 11 12  2  0
 12  2  1  0
 13  9  1  0
 14 13  1  0
 14 15  1  6
 15 16  1  0
 16 17  1  0
 18 17  1  0
 19 18  1  0
 20 21  2  0
 20 14  1  0
 22 20  1  0
 23 22  1  0
 24 25  1  0
 24 23  1  0
 25 26  1  0
 26 27  1  6
 26 22  1  0
 27 28  1  0
 29 27  2  0
M  END
$$$$
