YKP.pdb
     RDKit          3D

 29 30  0  0  1  0  0  0  0  0999 V2000
   15.8212  -14.4159  -15.3707 O   0  0  0  0  0  0  0  0  0  0  0  0
   16.7367  -15.3991  -15.0461 C   0  0  0  0  0  0  0  0  0  0  0  0
   18.0787  -15.1380  -15.2203 C   0  0  0  0  0  0  0  0  0  0  0  0
   19.0380  -16.0807  -14.9136 C   0  0  0  0  0  0  0  0  0  0  0  0
   18.6856  -17.3255  -14.4186 C   0  0  0  0  0  0  0  0  0  0  0  0
   19.7047  -18.3548  -14.0821 C   0  0  0  0  0  0  0  0  0  0  0  0
   20.3312  -18.8176  -15.3644 C   0  0  2  0  0  0  0  0  0  0  0  0
   19.3739  -19.6432  -16.0696 N   0  0  0  0  0  0  0  0  0  0  0  0
   21.5629  -19.5905  -15.1768 C   0  0  0  0  0  0  0  0  0  0  0  0
   21.4580  -20.7232  -14.6017 O   0  0  0  0  0  0  0  0  0  0  0  0
   17.3266  -17.5567  -14.2549 C   0  0  0  0  0  0  0  0  0  0  0  0
   16.3700  -16.6204  -14.5594 C   0  0  0  0  0  0  0  0  0  0  0  0
   22.8552  -19.1761  -15.5842 N   0  0  0  0  0  0  0  0  0  0  0  0
   24.0346  -19.9171  -15.1393 C   0  0  1  0  0  0  0  0  0  0  0  0
   25.2194  -19.2343  -15.8322 C   0  0  0  0  0  0  0  0  0  0  0  0
   26.4773  -19.9478  -15.3839 C   0  0  0  0  0  0  0  0  0  0  0  0
   27.1133  -20.6371  -16.5736 C   0  0  0  0  0  0  0  0  0  0  0  0
   28.3139  -21.4118  -16.1365 C   0  0  0  0  0  0  0  0  0  0  0  0
   28.9329  -22.0429  -17.2814 N   0  0  0  0  0  0  0  0  0  0  0  0
   24.2434  -19.7476  -13.6801 C   0  0  0  0  0  0  0  0  0  0  0  0
   23.7932  -18.6824  -13.1364 O   0  0  0  0  0  0  0  0  0  0  0  0
   24.9089  -20.7027  -12.8821 N   0  0  0  0  0  0  0  0  0  0  0  0
   25.6047  -21.8721  -13.3768 C   0  0  0  0  0  0  0  0  0  0  0  0
   25.2060  -22.9327  -12.3688 C   0  0  0  0  0  0  0  0  0  0  0  0
   24.8917  -22.1944  -11.0992 C   0  0  0  0  0  0  0  0  0  0  0  0
   25.0522  -20.7434  -11.4375 C   0  0  1  0  0  0  0  0  0  0  0  0
   26.4322  -20.3259  -11.0967 C   0  0  0  0  0  0  0  0  0  0  0  0
   26.7560  -19.9682   -9.7780 O   0  0  0  0  0  0  0  0  0  0  0  0
   27.3257  -20.2815  -11.9529 O   0  0  0  0  0  0  0  0  0  0  0  0
  2  1  1  0
  3  2  2  0
  4  3  1  0
  5 11  1  0
  5  4  2  0
  6  7  1  0
  6  5  1  0
  7  8  1  1
  9  7  1  0
 10  9  2  0
 11 12  2  0
 12  2  1  0
 13  9  1  0
 14 13  1  0
 14 15  1  6
 15 16  1  0
 16 17  1  0
 18 17  1  0
 19 18  1  0
 20 21  2  0
 20 14  1  0
 22 20  1  0
 23 22  1  0
 24 25  1  0
 24 23  1  0
 25 26  1  0
 26 27  1  6
 26 22  1  0
 27 28  1  0
 29 27  2  0
M  END
$$$$
