YKP.pdb
     RDKit          3D

 29 30  0  0  1  0  0  0  0  0999 V2000
   17.5490  -25.2189  -16.6110 O   0  0  0  0  0  0  0  0  0  0  0  0
   18.4665  -24.2140  -16.3693 C   0  0  0  0  0  0  0  0  0  0  0  0
   18.0735  -22.9038  -16.5372 C   0  0  0  0  0  0  0  0  0  0  0  0
   18.9455  -21.8592  -16.3107 C   0  0  0  0  0  0  0  0  0  0  0  0
   20.2498  -22.0908  -15.9056 C   0  0  0  0  0  0  0  0  0  0  0  0
   21.2046  -20.9784  -15.6565 C   0  0  0  0  0  0  0  0  0  0  0  0
   21.5382  -20.9781  -14.1938 C   0  0  2  0  0  0  0  0  0  0  0  0
   20.4547  -20.3394  -13.4774 N   0  0  0  0  0  0  0  0  0  0  0  0
   22.7855  -20.2784  -13.8708 C   0  0  0  0  0  0  0  0  0  0  0  0
   22.9032  -19.0777  -14.2818 O   0  0  0  0  0  0  0  0  0  0  0  0
   20.6139  -23.4209  -15.7458 C   0  0  0  0  0  0  0  0  0  0  0  0
   19.7480  -24.4621  -15.9705 C   0  0  0  0  0  0  0  0  0  0  0  0
   23.8654  -20.8329  -13.1398 N   0  0  0  0  0  0  0  0  0  0  0  0
   25.1754  -20.1838  -13.1655 C   0  0  1  0  0  0  0  0  0  0  0  0
   26.0376  -20.9870  -12.1851 C   0  0  0  0  0  0  0  0  0  0  0  0
   27.4728  -20.5455  -12.3792 C   0  0  0  0  0  0  0  0  0  0  0  0
   28.3567  -21.2600  -11.3776 C   0  0  0  0  0  0  0  0  0  0  0  0
   29.7582  -20.7511  -11.4749 C   0  0  0  0  0  0  0  0  0  0  0  0
   30.6123  -21.4934  -10.5740 N   0  0  0  0  0  0  0  0  0  0  0  0
   25.8077  -20.3273  -14.5001 C   0  0  0  0  0  0  0  0  0  0  0  0
   25.5507  -21.3863  -15.1675 O   0  0  0  0  0  0  0  0  0  0  0  0
   26.6680  -19.3542  -15.0523 N   0  0  0  0  0  0  0  0  0  0  0  0
   27.4127  -18.3671  -14.2990 C   0  0  0  0  0  0  0  0  0  0  0  0
   27.2621  -17.1270  -15.1588 C   0  0  0  0  0  0  0  0  0  0  0  0
   27.0396  -17.6231  -16.5589 C   0  0  0  0  0  0  0  0  0  0  0  0
   27.0013  -19.1169  -16.4457 C   0  0  1  0  0  0  0  0  0  0  0  0
   28.3622  -19.6472  -16.6936 C   0  0  0  0  0  0  0  0  0  0  0  0
   29.0961  -20.2254  -15.6453 O   0  0  0  0  0  0  0  0  0  0  0  0
   28.8830  -19.5960  -17.8158 O   0  0  0  0  0  0  0  0  0  0  0  0
  2  1  1  0
  3  2  2  0
  4  3  1  0
  5 11  1  0
  5  4  2  0
  6  7  1  0
  6  5  1  0
  7  8  1  1
  9  7  1  0
 10  9  2  0
 11 12  2  0
 12  2  1  0
 13  9  1  0
 14 13  1  0
 14 15  1  1
 15 16  1  0
 16 17  1  0
 18 17  1  0
 19 18  1  0
 20 21  2  0
 20 14  1  0
 22 20  1  0
 23 22  1  0
 24 25  1  0
 24 23  1  0
 25 26  1  0
 26 27  1  1
 26 22  1  0
 27 28  1  0
 29 27  2  0
M  END
$$$$
