YKP.pdb
     RDKit          3D

 29 30  0  0  1  0  0  0  0  0999 V2000
   16.4857  -23.2272    2.0457 O   0  0  0  0  0  0  0  0  0  0  0  0
   16.7717  -21.8925    2.2624 C   0  0  0  0  0  0  0  0  0  0  0  0
   16.7886  -21.0351    1.1836 C   0  0  0  0  0  0  0  0  0  0  0  0
   17.0676  -19.6931    1.3388 C   0  0  0  0  0  0  0  0  0  0  0  0
   17.3412  -19.1588    2.5872 C   0  0  0  0  0  0  0  0  0  0  0  0
   17.6441  -17.7151    2.7750 C   0  0  0  0  0  0  0  0  0  0  0  0
   16.4934  -17.0961    3.5121 C   0  0  2  0  0  0  0  0  0  0  0  0
   15.3775  -16.9733    2.5984 N   0  0  0  0  0  0  0  0  0  0  0  0
   16.7887  -15.7713    4.0663 C   0  0  0  0  0  0  0  0  0  0  0  0
   17.1819  -14.8734    3.2515 O   0  0  0  0  0  0  0  0  0  0  0  0
   17.3162  -20.0485    3.6525 C   0  0  0  0  0  0  0  0  0  0  0  0
   17.0389  -21.3843    3.5007 C   0  0  0  0  0  0  0  0  0  0  0  0
   16.6708  -15.4144    5.4325 N   0  0  0  0  0  0  0  0  0  0  0  0
   17.1236  -14.1004    5.8867 C   0  0  1  0  0  0  0  0  0  0  0  0
   16.0984  -13.6677    6.9410 C   0  0  0  0  0  0  0  0  0  0  0  0
   14.8363  -13.2677    6.2064 C   0  0  0  0  0  0  0  0  0  0  0  0
   13.8100  -12.7746    7.2056 C   0  0  0  0  0  0  0  0  0  0  0  0
   12.5348  -12.4331    6.5055 C   0  0  0  0  0  0  0  0  0  0  0  0
   11.5889  -11.8830    7.4515 N   0  0  0  0  0  0  0  0  0  0  0  0
   18.4289  -14.2056    6.5844 C   0  0  0  0  0  0  0  0  0  0  0  0
   18.8260  -15.3709    6.9270 O   0  0  0  0  0  0  0  0  0  0  0  0
   19.2361  -13.0861    6.8792 N   0  0  0  0  0  0  0  0  0  0  0  0
   18.9309  -11.7150    6.5279 C   0  0  0  0  0  0  0  0  0  0  0  0
   20.2832  -11.1880    6.0881 C   0  0  0  0  0  0  0  0  0  0  0  0
   21.3029  -12.0241    6.8072 C   0  0  0  0  0  0  0  0  0  0  0  0
   20.5100  -13.0381    7.5747 C   0  0  1  0  0  0  0  0  0  0  0  0
   20.2724  -12.5195    8.9419 C   0  0  0  0  0  0  0  0  0  0  0  0
   19.0139  -12.0049    9.2927 O   0  0  0  0  0  0  0  0  0  0  0  0
   21.1641  -12.5253    9.8011 O   0  0  0  0  0  0  0  0  0  0  0  0
  2  1  1  0
  3  2  2  0
  4  3  1  0
  5 11  1  0
  5  4  2  0
  6  7  1  0
  6  5  1  0
  7  8  1  6
  9  7  1  0
 10  9  2  0
 11 12  2  0
 12  2  1  0
 13  9  1  0
 14 13  1  0
 14 15  1  1
 15 16  1  0
 16 17  1  0
 18 17  1  0
 19 18  1  0
 20 21  2  0
 20 14  1  0
 22 20  1  0
 23 22  1  0
 24 25  1  0
 24 23  1  0
 25 26  1  0
 26 27  1  1
 26 22  1  0
 27 28  1  0
 29 27  2  0
M  END
$$$$
