WTM.pdb
     RDKit          3D

 30 31  0  0  1  0  0  0  0  0999 V2000
    6.1950  -17.9427   21.6099 N   0  0  0  0  0  0  0  0  0  0  0  0
    7.0579  -16.9478   22.1697 C   0  0  1  0  0  0  0  0  0  0  0  0
    6.3490  -16.0206   23.1340 C   0  0  0  0  0  0  0  0  0  0  0  0
    6.9836  -14.6981   23.1867 C   0  0  0  0  0  0  0  0  0  0  0  0
    7.7687  -14.0312   22.2689 C   0  0  0  0  0  0  0  0  0  0  0  0
    8.1299  -12.8282   22.7551 N   0  0  0  0  0  0  0  0  0  0  0  0
    7.6059  -12.6638   23.9859 C   0  0  0  0  0  0  0  0  0  0  0  0
    7.6875  -11.6178   24.8808 C   0  0  0  0  0  0  0  0  0  0  0  0
    7.0311  -11.7408   26.0889 C   0  0  0  0  0  0  0  0  0  0  0  0
    6.3087  -12.8957   26.3848 C   0  0  0  0  0  0  0  0  0  0  0  0
    6.2383  -13.9343   25.4746 C   0  0  0  0  0  0  0  0  0  0  0  0
    6.8879  -13.8288   24.2624 C   0  0  0  0  0  0  0  0  0  0  0  0
    8.1865  -17.6145   22.8487 C   0  0  0  0  0  0  0  0  0  0  0  0
    7.9116  -18.4922   23.6988 O   0  0  0  0  0  0  0  0  0  0  0  0
   11.2750  -19.2799   21.2449 C   0  0  0  0  0  0  0  0  0  0  0  0
   11.7600  -18.3521   22.3335 C   0  0  1  0  0  0  0  0  0  0  0  0
   12.3339  -17.2535   21.7072 O   0  0  0  0  0  0  0  0  0  0  0  0
   10.6540  -17.9772   23.3028 C   0  0  2  0  0  0  0  0  0  0  0  0
    9.5534  -17.3355   22.6103 N   0  0  0  0  0  0  0  0  0  0  0  0
   11.1254  -17.2004   24.4632 C   0  0  0  0  0  0  0  0  0  0  0  0
   11.4014  -15.9625   24.3682 O   0  0  0  0  0  0  0  0  0  0  0  0
    8.4528  -14.6190   28.6129 C   0  0  0  0  0  0  0  0  0  0  0  0
   10.0279  -14.2841   29.4040 S   0  0  0  0  0  0  0  0  0  0  0  0
   11.2753  -15.4467   28.7448 C   0  0  0  0  0  0  0  0  0  0  0  0
   10.8165  -16.0503   27.4507 C   0  0  0  0  0  0  0  0  0  0  0  0
   11.8622  -16.9348   26.8840 C   0  0  2  0  0  0  0  0  0  0  0  0
   11.3126  -17.7337   25.7596 N   0  0  0  0  0  0  0  0  0  0  0  0
   12.3478  -17.9001   27.8657 C   0  0  0  0  0  0  0  0  0  0  0  0
   12.1326  -19.1179   27.7502 O   0  0  0  0  0  0  0  0  0  0  0  0
   13.0707  -17.4855   28.9676 O   0  0  0  0  0  0  0  0  0  0  0  0
  2  1  1  1
  2 13  1  0
  3  2  1  0
  3  4  1  0
  4  5  2  0
  4 12  1  0
  5  6  1  0
  6  7  1  0
  7  8  2  0
  8  9  1  0
 10  9  2  0
 11 10  1  0
 12 11  2  0
 12  7  1  0
 13 14  2  0
 16 15  1  6
 16 18  1  0
 17 16  1  0
 18 20  1  0
 19 13  1  0
 18 19  1  6
 20 21  2  0
 23 22  1  0
 24 23  1  0
 24 25  1  0
 26 25  1  1
 26 28  1  0
 27 26  1  0
 27 20  1  0
 28 29  2  0
 28 30  1  0
M  END
$$$$
