WTM.pdb
     RDKit          3D

 30 31  0  0  1  0  0  0  0  0999 V2000
    6.3251  -17.2765   24.9864 N   0  0  0  0  0  0  0  0  0  0  0  0
    7.2179  -16.3621   24.3425 C   0  0  1  0  0  0  0  0  0  0  0  0
    7.7866  -15.3232   25.2855 C   0  0  0  0  0  0  0  0  0  0  0  0
    6.7636  -14.3675   25.7266 C   0  0  0  0  0  0  0  0  0  0  0  0
    5.6244  -14.5433   26.4848 C   0  0  0  0  0  0  0  0  0  0  0  0
    4.9833  -13.3687   26.6375 N   0  0  0  0  0  0  0  0  0  0  0  0
    5.6642  -12.3972   25.9979 C   0  0  0  0  0  0  0  0  0  0  0  0
    5.4183  -11.0470   25.8629 C   0  0  0  0  0  0  0  0  0  0  0  0
    6.3142  -10.2911   25.1337 C   0  0  0  0  0  0  0  0  0  0  0  0
    7.4330  -10.8875   24.5545 C   0  0  0  0  0  0  0  0  0  0  0  0
    7.6629  -12.2432   24.7009 C   0  0  0  0  0  0  0  0  0  0  0  0
    6.7784  -13.0142   25.4261 C   0  0  0  0  0  0  0  0  0  0  0  0
    8.3136  -17.1224   23.7096 C   0  0  0  0  0  0  0  0  0  0  0  0
    8.6963  -18.1685   24.2822 O   0  0  0  0  0  0  0  0  0  0  0  0
    9.5091  -17.3421   19.8093 C   0  0  0  0  0  0  0  0  0  0  0  0
   10.6158  -16.8406   20.7064 C   0  0  1  0  0  0  0  0  0  0  0  0
   10.7951  -15.4939   20.4188 O   0  0  0  0  0  0  0  0  0  0  0  0
   10.3300  -17.1056   22.1731 C   0  0  2  0  0  0  0  0  0  0  0  0
    8.9623  -16.7570   22.5058 N   0  0  0  0  0  0  0  0  0  0  0  0
   11.3109  -16.4908   23.0853 C   0  0  0  0  0  0  0  0  0  0  0  0
   11.3448  -15.2341   23.2780 O   0  0  0  0  0  0  0  0  0  0  0  0
    9.6427  -15.5932   28.7421 C   0  0  0  0  0  0  0  0  0  0  0  0
   11.2325  -16.3404   28.3770 S   0  0  0  0  0  0  0  0  0  0  0  0
   11.6179  -16.0678   26.6109 C   0  0  0  0  0  0  0  0  0  0  0  0
   12.7880  -16.9020   26.1812 C   0  0  0  0  0  0  0  0  0  0  0  0
   13.1930  -16.5642   24.7959 C   0  0  2  0  0  0  0  0  0  0  0  0
   12.2833  -17.2114   23.8169 N   0  0  0  0  0  0  0  0  0  0  0  0
   14.5330  -17.0543   24.4870 C   0  0  0  0  0  0  0  0  0  0  0  0
   14.7202  -18.0142   23.7214 O   0  0  0  0  0  0  0  0  0  0  0  0
   15.6493  -16.4592   25.0426 O   0  0  0  0  0  0  0  0  0  0  0  0
  2  1  1  1
  2 13  1  0
  3  2  1  0
  3  4  1  0
  4  5  2  0
  4 12  1  0
  5  6  1  0
  6  7  1  0
  7  8  2  0
  8  9  1  0
 10  9  2  0
 11 10  1  0
 12 11  2  0
 12  7  1  0
 13 14  2  0
 16 15  1  6
 16 18  1  0
 17 16  1  0
 18 20  1  0
 19 13  1  0
 18 19  1  1
 20 21  2  0
 23 22  1  0
 24 23  1  0
 24 25  1  0
 26 25  1  1
 26 28  1  0
 27 26  1  0
 27 20  1  0
 28 29  2  0
 28 30  1  0
M  END
$$$$
