WTM.pdb
     RDKit          3D

 30 31  0  0  1  0  0  0  0  0999 V2000
    6.4502  -17.4474   24.6592 N   0  0  0  0  0  0  0  0  0  0  0  0
    7.4978  -16.5941   24.1878 C   0  0  1  0  0  0  0  0  0  0  0  0
    8.0601  -15.6920   25.2659 C   0  0  0  0  0  0  0  0  0  0  0  0
    7.0686  -14.7160   25.7335 C   0  0  0  0  0  0  0  0  0  0  0  0
    5.8711  -14.8859   26.3973 C   0  0  0  0  0  0  0  0  0  0  0  0
    5.2931  -13.6907   26.6242 N   0  0  0  0  0  0  0  0  0  0  0  0
    6.0741  -12.7109   26.1275 C   0  0  0  0  0  0  0  0  0  0  0  0
    5.9202  -11.3407   26.1108 C   0  0  0  0  0  0  0  0  0  0  0  0
    6.9085  -10.5809   25.5177 C   0  0  0  0  0  0  0  0  0  0  0  0
    8.0266  -11.1936   24.9543 C   0  0  0  0  0  0  0  0  0  0  0  0
    8.1635  -12.5694   24.9807 C   0  0  0  0  0  0  0  0  0  0  0  0
    7.1860  -13.3444   25.5692 C   0  0  0  0  0  0  0  0  0  0  0  0
    8.5744  -17.4243   23.6126 C   0  0  0  0  0  0  0  0  0  0  0  0
    8.9170  -18.4472   24.2489 O   0  0  0  0  0  0  0  0  0  0  0  0
   10.0212  -17.9563   19.7994 C   0  0  0  0  0  0  0  0  0  0  0  0
   11.0016  -17.2395   20.6972 C   0  0  1  0  0  0  0  0  0  0  0  0
   11.0383  -15.9140   20.2848 O   0  0  0  0  0  0  0  0  0  0  0  0
   10.6564  -17.3988   22.1665 C   0  0  2  0  0  0  0  0  0  0  0  0
    9.2467  -17.1500   22.3977 N   0  0  0  0  0  0  0  0  0  0  0  0
   11.5259  -16.6178   23.0644 C   0  0  0  0  0  0  0  0  0  0  0  0
   11.5939  -15.3500   22.9889 O   0  0  0  0  0  0  0  0  0  0  0  0
   10.3708  -13.9422   27.5519 C   0  0  0  0  0  0  0  0  0  0  0  0
   11.3077  -15.3490   28.1535 S   0  0  0  0  0  0  0  0  0  0  0  0
   11.8640  -16.3400   26.7215 C   0  0  0  0  0  0  0  0  0  0  0  0
   12.7503  -15.5323   25.8207 C   0  0  0  0  0  0  0  0  0  0  0  0
   13.3798  -16.3947   24.7926 C   0  0  2  0  0  0  0  0  0  0  0  0
   12.3468  -17.1791   24.0699 N   0  0  0  0  0  0  0  0  0  0  0  0
   14.2877  -17.3723   25.3854 C   0  0  0  0  0  0  0  0  0  0  0  0
   14.0413  -18.5895   25.3710 O   0  0  0  0  0  0  0  0  0  0  0  0
   15.4640  -16.9704   25.9885 O   0  0  0  0  0  0  0  0  0  0  0  0
  2  1  1  1
  2 13  1  0
  3  2  1  0
  3  4  1  0
  4  5  2  0
  4 12  1  0
  5  6  1  0
  6  7  1  0
  7  8  2  0
  8  9  1  0
 10  9  2  0
 11 10  1  0
 12 11  2  0
 12  7  1  0
 13 14  2  0
 16 15  1  6
 16 18  1  0
 17 16  1  0
 18 20  1  0
 19 13  1  0
 18 19  1  6
 20 21  2  0
 23 22  1  0
 24 23  1  0
 24 25  1  0
 26 25  1  1
 26 28  1  0
 27 26  1  0
 27 20  1  0
 28 29  2  0
 28 30  1  0
M  END
$$$$
