WTM.pdb
     RDKit          3D

 30 31  0  0  1  0  0  0  0  0999 V2000
    6.0825  -17.9057   24.7105 N   0  0  0  0  0  0  0  0  0  0  0  0
    6.8273  -16.7490   24.3163 C   0  0  1  0  0  0  0  0  0  0  0  0
    7.4929  -16.0456   25.4801 C   0  0  0  0  0  0  0  0  0  0  0  0
    6.6528  -14.9709   26.0218 C   0  0  0  0  0  0  0  0  0  0  0  0
    5.4729  -15.0138   26.7358 C   0  0  0  0  0  0  0  0  0  0  0  0
    5.0598  -13.7647   27.0241 N   0  0  0  0  0  0  0  0  0  0  0  0
    5.9356  -12.8728   26.5200 C   0  0  0  0  0  0  0  0  0  0  0  0
    5.9543  -11.4943   26.5503 C   0  0  0  0  0  0  0  0  0  0  0  0
    7.0036  -10.8430   25.9337 C   0  0  0  0  0  0  0  0  0  0  0  0
    8.0109  -11.5697   25.3010 C   0  0  0  0  0  0  0  0  0  0  0  0
    7.9750  -12.9520   25.2811 C   0  0  0  0  0  0  0  0  0  0  0  0
    6.9341  -13.6196   25.8920 C   0  0  0  0  0  0  0  0  0  0  0  0
    7.8415  -17.1447   23.3193 C   0  0  0  0  0  0  0  0  0  0  0  0
    8.3496  -18.2838   23.4335 O   0  0  0  0  0  0  0  0  0  0  0  0
    7.9718  -15.8453   19.4756 C   0  0  0  0  0  0  0  0  0  0  0  0
    9.3463  -15.8386   20.1014 C   0  0  1  0  0  0  0  0  0  0  0  0
    9.7036  -14.5094   20.2864 O   0  0  0  0  0  0  0  0  0  0  0  0
    9.3987  -16.6549   21.3798 C   0  0  2  0  0  0  0  0  0  0  0  0
    8.2812  -16.3334   22.2462 N   0  0  0  0  0  0  0  0  0  0  0  0
   10.6963  -16.5795   22.0746 C   0  0  0  0  0  0  0  0  0  0  0  0
   11.7794  -16.9196   21.5013 O   0  0  0  0  0  0  0  0  0  0  0  0
    9.3859  -14.9542   28.5324 C   0  0  0  0  0  0  0  0  0  0  0  0
   10.8808  -14.5397   27.6311 S   0  0  0  0  0  0  0  0  0  0  0  0
   10.9520  -15.5556   26.1129 C   0  0  0  0  0  0  0  0  0  0  0  0
   12.1180  -15.1606   25.2561 C   0  0  0  0  0  0  0  0  0  0  0  0
   12.1982  -16.0191   24.0504 C   0  0  2  0  0  0  0  0  0  0  0  0
   10.8653  -16.1353   23.4066 N   0  0  0  0  0  0  0  0  0  0  0  0
   12.6077  -17.3812   24.3796 C   0  0  0  0  0  0  0  0  0  0  0  0
   13.7292  -17.6335   24.8497 O   0  0  0  0  0  0  0  0  0  0  0  0
   11.7509  -18.4459   24.1766 O   0  0  0  0  0  0  0  0  0  0  0  0
  2  1  1  1
  2 13  1  0
  3  2  1  0
  3  4  1  0
  4  5  2  0
  4 12  1  0
  5  6  1  0
  6  7  1  0
  7  8  2  0
  8  9  1  0
 10  9  2  0
 11 10  1  0
 12 11  2  0
 12  7  1  0
 13 14  2  0
 16 15  1  1
 16 18  1  0
 17 16  1  0
 18 20  1  0
 19 13  1  0
 18 19  1  1
 20 21  2  0
 23 22  1  0
 24 23  1  0
 24 25  1  0
 26 25  1  1
 26 28  1  0
 27 26  1  0
 27 20  1  0
 28 29  2  0
 28 30  1  0
M  END
$$$$
