WTM.pdb
     RDKit          3D

 30 31  0  0  1  0  0  0  0  0999 V2000
    6.3994  -17.2408   24.1576 N   0  0  0  0  0  0  0  0  0  0  0  0
    7.5348  -16.3987   23.9350 C   0  0  1  0  0  0  0  0  0  0  0  0
    7.9857  -15.6670   25.1814 C   0  0  0  0  0  0  0  0  0  0  0  0
    6.9930  -14.6813   25.6255 C   0  0  0  0  0  0  0  0  0  0  0  0
    5.8644  -14.8190   26.4070 C   0  0  0  0  0  0  0  0  0  0  0  0
    5.2529  -13.6277   26.5524 N   0  0  0  0  0  0  0  0  0  0  0  0
    5.9436  -12.6823   25.8847 C   0  0  0  0  0  0  0  0  0  0  0  0
    5.7258  -11.3292   25.7323 C   0  0  0  0  0  0  0  0  0  0  0  0
    6.6248  -10.6056   24.9748 C   0  0  0  0  0  0  0  0  0  0  0  0
    7.7189  -11.2366   24.3851 C   0  0  0  0  0  0  0  0  0  0  0  0
    7.9208  -12.5947   24.5493 C   0  0  0  0  0  0  0  0  0  0  0  0
    7.0328  -13.3337   25.3028 C   0  0  0  0  0  0  0  0  0  0  0  0
    8.6431  -17.2143   23.4002 C   0  0  0  0  0  0  0  0  0  0  0  0
    8.7552  -18.3864   23.8269 O   0  0  0  0  0  0  0  0  0  0  0  0
   10.7627  -17.2673   19.8935 C   0  0  0  0  0  0  0  0  0  0  0  0
   11.6073  -16.8339   21.0681 C   0  0  1  0  0  0  0  0  0  0  0  0
   11.8358  -15.4716   20.9254 O   0  0  0  0  0  0  0  0  0  0  0  0
   10.9712  -17.1971   22.3973 C   0  0  2  0  0  0  0  0  0  0  0  0
    9.5862  -16.7700   22.4430 N   0  0  0  0  0  0  0  0  0  0  0  0
   11.7453  -16.7409   23.5656 C   0  0  0  0  0  0  0  0  0  0  0  0
   12.3217  -15.6073   23.5811 O   0  0  0  0  0  0  0  0  0  0  0  0
    9.1335  -15.7508   28.4181 C   0  0  0  0  0  0  0  0  0  0  0  0
   10.5612  -14.6793   28.2371 S   0  0  0  0  0  0  0  0  0  0  0  0
   11.5360  -15.2383   26.7951 C   0  0  0  0  0  0  0  0  0  0  0  0
   12.0860  -16.6155   27.0194 C   0  0  0  0  0  0  0  0  0  0  0  0
   12.8476  -17.0761   25.8341 C   0  0  2  0  0  0  0  0  0  0  0  0
   11.9207  -17.4917   24.7511 N   0  0  0  0  0  0  0  0  0  0  0  0
   13.6665  -18.2465   26.1358 C   0  0  0  0  0  0  0  0  0  0  0  0
   13.4010  -19.3692   25.6759 O   0  0  0  0  0  0  0  0  0  0  0  0
   14.7763  -18.1417   26.9521 O   0  0  0  0  0  0  0  0  0  0  0  0
  2  1  1  1
  2 13  1  0
  3  2  1  0
  3  4  1  0
  4  5  2  0
  4 12  1  0
  5  6  1  0
  6  7  1  0
  7  8  2  0
  8  9  1  0
 10  9  2  0
 11 10  1  0
 12 11  2  0
 12  7  1  0
 13 14  2  0
 16 15  1  6
 16 18  1  0
 17 16  1  0
 18 20  1  0
 19 13  1  0
 18 19  1  6
 20 21  2  0
 23 22  1  0
 24 23  1  0
 24 25  1  0
 26 25  1  1
 26 28  1  0
 27 26  1  0
 27 20  1  0
 28 29  2  0
 28 30  1  0
M  END
$$$$
