WTM.pdb
     RDKit          3D

 30 31  0  0  1  0  0  0  0  0999 V2000
    6.4067  -17.4134   24.7454 N   0  0  0  0  0  0  0  0  0  0  0  0
    7.4208  -16.5130   24.2885 C   0  0  1  0  0  0  0  0  0  0  0  0
    7.9258  -15.5863   25.3740 C   0  0  0  0  0  0  0  0  0  0  0  0
    6.8919  -14.6393   25.8084 C   0  0  0  0  0  0  0  0  0  0  0  0
    5.6685  -14.8455   26.4119 C   0  0  0  0  0  0  0  0  0  0  0  0
    5.0540  -13.6667   26.6289 N   0  0  0  0  0  0  0  0  0  0  0  0
    5.8357  -12.6626   26.1847 C   0  0  0  0  0  0  0  0  0  0  0  0
    5.6524  -11.2959   26.1812 C   0  0  0  0  0  0  0  0  0  0  0  0
    6.6505  -10.5057   25.6472 C   0  0  0  0  0  0  0  0  0  0  0  0
    7.8073  -11.0852   25.1286 C   0  0  0  0  0  0  0  0  0  0  0  0
    7.9732  -12.4580   25.1409 C   0  0  0  0  0  0  0  0  0  0  0  0
    6.9865  -13.2631   25.6705 C   0  0  0  0  0  0  0  0  0  0  0  0
    8.5424  -17.2930   23.7292 C   0  0  0  0  0  0  0  0  0  0  0  0
    8.9015  -18.3173   24.3542 O   0  0  0  0  0  0  0  0  0  0  0  0
    9.9965  -17.8104   19.9361 C   0  0  0  0  0  0  0  0  0  0  0  0
   10.9873  -17.1111   20.8361 C   0  0  1  0  0  0  0  0  0  0  0  0
   11.0442  -15.7851   20.4273 O   0  0  0  0  0  0  0  0  0  0  0  0
   10.6394  -17.2692   22.3049 C   0  0  2  0  0  0  0  0  0  0  0  0
    9.2404  -16.9693   22.5413 N   0  0  0  0  0  0  0  0  0  0  0  0
   11.5394  -16.5288   23.2070 C   0  0  0  0  0  0  0  0  0  0  0  0
   11.6467  -15.2628   23.1489 O   0  0  0  0  0  0  0  0  0  0  0  0
    9.3347  -15.3635   28.0708 C   0  0  0  0  0  0  0  0  0  0  0  0
   11.0866  -15.0719   27.8165 S   0  0  0  0  0  0  0  0  0  0  0  0
   11.6485  -16.0736   26.3942 C   0  0  0  0  0  0  0  0  0  0  0  0
   13.1142  -15.8771   26.1440 C   0  0  0  0  0  0  0  0  0  0  0  0
   13.5006  -16.4321   24.8250 C   0  0  2  0  0  0  0  0  0  0  0  0
   12.3496  -17.1298   24.1981 N   0  0  0  0  0  0  0  0  0  0  0  0
   14.5605  -17.4290   24.9445 C   0  0  0  0  0  0  0  0  0  0  0  0
   14.3599  -18.6315   24.7072 O   0  0  0  0  0  0  0  0  0  0  0  0
   15.8358  -17.0627   25.3298 O   0  0  0  0  0  0  0  0  0  0  0  0
  2  1  1  1
  2 13  1  0
  3  2  1  0
  3  4  1  0
  4  5  2  0
  4 12  1  0
  5  6  1  0
  6  7  1  0
  7  8  2  0
  8  9  1  0
 10  9  2  0
 11 10  1  0
 12 11  2  0
 12  7  1  0
 13 14  2  0
 16 15  1  6
 16 18  1  0
 17 16  1  0
 18 20  1  0
 19 13  1  0
 18 19  1  6
 20 21  2  0
 23 22  1  0
 24 23  1  0
 24 25  1  0
 26 25  1  1
 26 28  1  0
 27 26  1  0
 27 20  1  0
 28 29  2  0
 28 30  1  0
M  END
$$$$
