WTM.pdb
     RDKit          3D

 30 31  0  0  1  0  0  0  0  0999 V2000
    7.8935  -18.0234   21.0261 N   0  0  0  0  0  0  0  0  0  0  0  0
    8.2701  -16.9063   21.8374 C   0  0  1  0  0  0  0  0  0  0  0  0
    7.1861  -15.8544   21.9406 C   0  0  0  0  0  0  0  0  0  0  0  0
    6.9413  -15.1940   20.6528 C   0  0  0  0  0  0  0  0  0  0  0  0
    6.0844  -15.5110   19.6190 C   0  0  0  0  0  0  0  0  0  0  0  0
    6.2020  -14.6085   18.6261 N   0  0  0  0  0  0  0  0  0  0  0  0
    7.1224  -13.6838   18.9644 C   0  0  0  0  0  0  0  0  0  0  0  0
    7.5913  -12.5742   18.2932 C   0  0  0  0  0  0  0  0  0  0  0  0
    8.5562  -11.8008   18.9068 C   0  0  0  0  0  0  0  0  0  0  0  0
    9.0355  -12.1422   20.1703 C   0  0  0  0  0  0  0  0  0  0  0  0
    8.5530  -13.2589   20.8280 C   0  0  0  0  0  0  0  0  0  0  0  0
    7.5888  -14.0434   20.2302 C   0  0  0  0  0  0  0  0  0  0  0  0
    8.6344  -17.3890   23.1841 C   0  0  0  0  0  0  0  0  0  0  0  0
    7.7164  -17.8523   23.8990 O   0  0  0  0  0  0  0  0  0  0  0  0
   11.0066  -20.0183   24.4447 C   0  0  0  0  0  0  0  0  0  0  0  0
   11.3798  -18.7369   25.1517 C   0  0  1  0  0  0  0  0  0  0  0  0
   12.5669  -18.2901   24.5863 O   0  0  0  0  0  0  0  0  0  0  0  0
   10.2669  -17.7065   25.0973 C   0  0  2  0  0  0  0  0  0  0  0  0
    9.9418  -17.3666   23.7256 N   0  0  0  0  0  0  0  0  0  0  0  0
   10.5219  -16.5187   25.9318 C   0  0  0  0  0  0  0  0  0  0  0  0
   11.1760  -15.5218   25.4891 O   0  0  0  0  0  0  0  0  0  0  0  0
    6.7169  -11.9150   26.2218 C   0  0  0  0  0  0  0  0  0  0  0  0
    7.2924  -12.7539   27.6997 S   0  0  0  0  0  0  0  0  0  0  0  0
    8.7528  -13.7661   27.2695 C   0  0  0  0  0  0  0  0  0  0  0  0
    9.3513  -14.3934   28.4933 C   0  0  0  0  0  0  0  0  0  0  0  0
   10.5108  -15.2439   28.1337 C   0  0  2  0  0  0  0  0  0  0  0  0
   10.0797  -16.3696   27.2667 N   0  0  0  0  0  0  0  0  0  0  0  0
   11.1239  -15.8525   29.3106 C   0  0  0  0  0  0  0  0  0  0  0  0
   11.0913  -17.0784   29.5074 O   0  0  0  0  0  0  0  0  0  0  0  0
   11.7676  -15.0755   30.2544 O   0  0  0  0  0  0  0  0  0  0  0  0
  2  1  1  6
  2 13  1  0
  3  2  1  0
  3  4  1  0
  4  5  2  0
  4 12  1  0
  5  6  1  0
  6  7  1  0
  7  8  2  0
  8  9  1  0
 10  9  2  0
 11 10  1  0
 12 11  2  0
 12  7  1  0
 13 14  2  0
 16 15  1  6
 16 18  1  0
 17 16  1  0
 18 20  1  0
 19 13  1  0
 18 19  1  6
 20 21  2  0
 23 22  1  0
 24 23  1  0
 24 25  1  0
 26 25  1  1
 26 28  1  0
 27 26  1  0
 27 20  1  0
 28 29  2  0
 28 30  1  0
M  END
$$$$
