WTM.pdb
     RDKit          3D

 30 31  0  0  1  0  0  0  0  0999 V2000
    9.0305  -15.7271   20.6054 N   0  0  0  0  0  0  0  0  0  0  0  0
    9.1862  -15.6664   22.0266 C   0  0  1  0  0  0  0  0  0  0  0  0
    7.8672  -15.5974   22.7667 C   0  0  0  0  0  0  0  0  0  0  0  0
    7.2044  -14.3008   22.5821 C   0  0  0  0  0  0  0  0  0  0  0  0
    6.6631  -13.7102   21.4589 C   0  0  0  0  0  0  0  0  0  0  0  0
    6.1561  -12.5015   21.7692 N   0  0  0  0  0  0  0  0  0  0  0  0
    6.3422  -12.2584   23.0818 C   0  0  0  0  0  0  0  0  0  0  0  0
    6.0050  -11.1758   23.8666 C   0  0  0  0  0  0  0  0  0  0  0  0
    6.3327  -11.2152   25.2070 C   0  0  0  0  0  0  0  0  0  0  0  0
    6.9865  -12.3245   25.7410 C   0  0  0  0  0  0  0  0  0  0  0  0
    7.3165  -13.4009   24.9381 C   0  0  0  0  0  0  0  0  0  0  0  0
    6.9969  -13.3789   23.5965 C   0  0  0  0  0  0  0  0  0  0  0  0
    9.9570  -16.8416   22.4783 C   0  0  0  0  0  0  0  0  0  0  0  0
    9.4915  -17.9737   22.2135 O   0  0  0  0  0  0  0  0  0  0  0  0
   12.5223  -19.1711   22.1126 C   0  0  0  0  0  0  0  0  0  0  0  0
   12.8624  -18.5399   23.4419 C   0  0  1  0  0  0  0  0  0  0  0  0
   13.9489  -17.7016   23.2291 O   0  0  0  0  0  0  0  0  0  0  0  0
   11.6724  -17.8304   24.0614 C   0  0  2  0  0  0  0  0  0  0  0  0
   11.1807  -16.7832   23.1871 N   0  0  0  0  0  0  0  0  0  0  0  0
   11.9188  -17.3550   25.4345 C   0  0  0  0  0  0  0  0  0  0  0  0
   12.4774  -16.2351   25.6614 O   0  0  0  0  0  0  0  0  0  0  0  0
   10.7401  -12.4845   27.6134 C   0  0  0  0  0  0  0  0  0  0  0  0
   10.6107  -13.9435   28.6496 S   0  0  0  0  0  0  0  0  0  0  0  0
   11.5460  -15.3051   27.8664 C   0  0  0  0  0  0  0  0  0  0  0  0
   11.2447  -16.6157   28.5306 C   0  0  0  0  0  0  0  0  0  0  0  0
   12.0717  -17.7005   27.9507 C   0  0  2  0  0  0  0  0  0  0  0  0
   11.5705  -18.0713   26.6031 N   0  0  0  0  0  0  0  0  0  0  0  0
   12.0107  -18.9184   28.7533 C   0  0  0  0  0  0  0  0  0  0  0  0
   12.4011  -18.9475   29.9320 O   0  0  0  0  0  0  0  0  0  0  0  0
   11.5107  -20.0915   28.2216 O   0  0  0  0  0  0  0  0  0  0  0  0
  2  1  1  6
  2 13  1  0
  3  2  1  0
  3  4  1  0
  4  5  2  0
  4 12  1  0
  5  6  1  0
  6  7  1  0
  7  8  2  0
  8  9  1  0
 10  9  2  0
 11 10  1  0
 12 11  2  0
 12  7  1  0
 13 14  2  0
 16 15  1  6
 16 18  1  0
 17 16  1  0
 18 20  1  0
 19 13  1  0
 18 19  1  6
 20 21  2  0
 23 22  1  0
 24 23  1  0
 24 25  1  0
 26 25  1  1
 26 28  1  0
 27 26  1  0
 27 20  1  0
 28 29  2  0
 28 30  1  0
M  END
$$$$
