WTM.pdb
     RDKit          3D

 30 31  0  0  1  0  0  0  0  0999 V2000
    7.5269  -17.5440   21.2615 N   0  0  0  0  0  0  0  0  0  0  0  0
    8.4072  -16.6579   21.9599 C   0  0  1  0  0  0  0  0  0  0  0  0
    7.8204  -15.2775   22.1660 C   0  0  0  0  0  0  0  0  0  0  0  0
    7.5252  -14.6135   20.8908 C   0  0  0  0  0  0  0  0  0  0  0  0
    6.3420  -14.4675   20.1963 C   0  0  0  0  0  0  0  0  0  0  0  0
    6.5536  -13.7756   19.0602 N   0  0  0  0  0  0  0  0  0  0  0  0
    7.8577  -13.4480   18.9684 C   0  0  0  0  0  0  0  0  0  0  0  0
    8.5587  -12.7520   18.0063 C   0  0  0  0  0  0  0  0  0  0  0  0
    9.9148  -12.5710   18.1910 C   0  0  0  0  0  0  0  0  0  0  0  0
   10.5469  -13.0826   19.3231 C   0  0  0  0  0  0  0  0  0  0  0  0
    9.8271  -13.7781   20.2772 C   0  0  0  0  0  0  0  0  0  0  0  0
    8.4714  -13.9685   20.1093 C   0  0  0  0  0  0  0  0  0  0  0  0
    8.7597  -17.2557   23.2629 C   0  0  0  0  0  0  0  0  0  0  0  0
    7.8184  -17.5817   24.0220 O   0  0  0  0  0  0  0  0  0  0  0  0
   11.2491  -20.0630   24.4916 C   0  0  0  0  0  0  0  0  0  0  0  0
   11.5819  -18.7556   25.1707 C   0  0  1  0  0  0  0  0  0  0  0  0
   12.7545  -18.2842   24.5951 O   0  0  0  0  0  0  0  0  0  0  0  0
   10.4374  -17.7619   25.0947 C   0  0  2  0  0  0  0  0  0  0  0  0
   10.0803  -17.4870   23.7164 N   0  0  0  0  0  0  0  0  0  0  0  0
   10.6692  -16.5347   25.8772 C   0  0  0  0  0  0  0  0  0  0  0  0
   11.5629  -15.6925   25.5459 O   0  0  0  0  0  0  0  0  0  0  0  0
    7.6648  -11.1882   25.6952 C   0  0  0  0  0  0  0  0  0  0  0  0
    7.4608  -12.7228   26.6019 S   0  0  0  0  0  0  0  0  0  0  0  0
    9.0532  -13.6208   26.6024 C   0  0  0  0  0  0  0  0  0  0  0  0
    9.4613  -13.9906   27.9975 C   0  0  0  0  0  0  0  0  0  0  0  0
   10.4089  -15.1302   27.9828 C   0  0  2  0  0  0  0  0  0  0  0  0
    9.9454  -16.1783   27.0386 N   0  0  0  0  0  0  0  0  0  0  0  0
   10.5022  -15.7761   29.2887 C   0  0  0  0  0  0  0  0  0  0  0  0
   10.0928  -16.9331   29.4792 O   0  0  0  0  0  0  0  0  0  0  0  0
   11.0556  -15.1134   30.3675 O   0  0  0  0  0  0  0  0  0  0  0  0
  2  1  1  1
  2 13  1  0
  3  2  1  0
  3  4  1  0
  4  5  2  0
  4 12  1  0
  5  6  1  0
  6  7  1  0
  7  8  2  0
  8  9  1  0
 10  9  2  0
 11 10  1  0
 12 11  2  0
 12  7  1  0
 13 14  2  0
 16 15  1  6
 16 18  1  0
 17 16  1  0
 18 20  1  0
 19 13  1  0
 18 19  1  6
 20 21  2  0
 23 22  1  0
 24 23  1  0
 24 25  1  0
 26 25  1  1
 26 28  1  0
 27 26  1  0
 27 20  1  0
 28 29  2  0
 28 30  1  0
M  END
$$$$
