VNF.pdb
     RDKit          3D

 27 27  0  0  1  0  0  0  0  0999 V2000
   12.9553  -13.0006  -11.0495 C   0  0  0  0  0  0  0  0  0  0  0  0
   13.1832  -11.5270  -10.9819 C   0  0  1  0  0  0  0  0  0  0  0  0
   13.3428  -11.0894   -9.5402 C   0  0  0  0  0  0  0  0  0  0  0  0
   14.3958  -11.0515  -11.7529 C   0  0  2  0  0  0  0  0  0  0  0  0
   15.5382  -11.7523  -11.1415 N   0  0  0  0  0  0  0  0  0  0  0  0
   14.6271   -9.6131  -11.6016 C   0  0  0  0  0  0  0  0  0  0  0  0
   13.7692   -8.8479  -12.1567 O   0  0  0  0  0  0  0  0  0  0  0  0
   15.1384   -5.2773   -7.8974 N   0  0  0  0  0  0  0  0  0  0  0  0
   15.8858   -5.9409   -8.9166 C   0  0  0  0  0  0  0  0  0  0  0  0
   16.8133   -5.2958   -9.4587 O   0  0  0  0  0  0  0  0  0  0  0  0
   15.6252   -7.3110   -9.3491 C   0  0  0  0  0  0  0  0  0  0  0  0
   15.9237   -7.6429  -10.7667 C   0  0  2  0  0  0  0  0  0  0  0  0
   15.7296   -9.1006  -10.8860 N   0  0  0  0  0  0  0  0  0  0  0  0
   17.2965   -7.3621  -11.2255 C   0  0  0  0  0  0  0  0  0  0  0  0
   18.2783   -8.0390  -10.7554 O   0  0  0  0  0  0  0  0  0  0  0  0
   17.6708   -6.3796  -12.1796 N   0  0  0  0  0  0  0  0  0  0  0  0
   18.7658   -6.6150  -13.1293 C   0  0  1  0  0  0  0  0  0  0  0  0
   18.7471   -8.0210  -13.6161 C   0  0  0  0  0  0  0  0  0  0  0  0
   20.1032   -8.6004  -13.5866 C   0  0  0  0  0  0  0  0  0  0  0  0
   20.9833   -8.5349  -14.6682 C   0  0  0  0  0  0  0  0  0  0  0  0
   22.2359   -9.0760  -14.6102 C   0  0  0  0  0  0  0  0  0  0  0  0
   22.6903   -9.7182  -13.4665 C   0  0  0  0  0  0  0  0  0  0  0  0
   21.8493   -9.8011  -12.3831 C   0  0  0  0  0  0  0  0  0  0  0  0
   20.5920   -9.2534  -12.4523 C   0  0  0  0  0  0  0  0  0  0  0  0
   18.7320   -5.6658  -14.2328 C   0  0  0  0  0  0  0  0  0  0  0  0
   19.6375   -5.5289  -15.0939 O   0  0  0  0  0  0  0  0  0  0  0  0
   17.6135   -4.8168  -14.3813 O   0  0  0  0  0  0  0  0  0  0  0  0
  2  4  1  0
  2  1  1  1
  3  2  1  0
  4  6  1  0
  4  5  1  1
  6  7  2  0
  9  8  1  0
 10  9  2  0
 11  9  1  0
 12 11  1  1
 12 14  1  0
 13 12  1  0
 13  6  1  0
 14 15  2  0
 16 17  1  0
 16 14  1  0
 17 25  1  0
 17 18  1  6
 19 24  2  0
 19 18  1  0
 20 19  1  0
 21 22  1  0
 21 20  2  0
 22 23  2  0
 23 24  1  0
 25 26  2  0
 25 27  1  0
M  END
$$$$
