VNF.pdb
     RDKit          3D

 27 27  0  0  1  0  0  0  0  0999 V2000
   16.5413  -13.8306  -18.9501 C   0  0  0  0  0  0  0  0  0  0  0  0
   17.6036  -12.8267  -18.6472 C   0  0  1  0  0  0  0  0  0  0  0  0
   18.2403  -13.1294  -17.3063 C   0  0  0  0  0  0  0  0  0  0  0  0
   18.7045  -12.7577  -19.6837 C   0  0  2  0  0  0  0  0  0  0  0  0
   19.3149  -14.0984  -19.6850 N   0  0  0  0  0  0  0  0  0  0  0  0
   19.7502  -11.7961  -19.3271 C   0  0  0  0  0  0  0  0  0  0  0  0
   20.7379  -12.2640  -18.6673 O   0  0  0  0  0  0  0  0  0  0  0  0
   23.3978   -7.9494  -20.8413 N   0  0  0  0  0  0  0  0  0  0  0  0
   22.0091   -7.6868  -20.6405 C   0  0  0  0  0  0  0  0  0  0  0  0
   21.6745   -6.4961  -20.4394 O   0  0  0  0  0  0  0  0  0  0  0  0
   20.9790   -8.7215  -20.6583 C   0  0  0  0  0  0  0  0  0  0  0  0
   20.8109   -9.5322  -19.4240 C   0  0  2  0  0  0  0  0  0  0  0  0
   19.6745  -10.4349  -19.6895 N   0  0  0  0  0  0  0  0  0  0  0  0
   20.4783   -8.7867  -18.1961 C   0  0  0  0  0  0  0  0  0  0  0  0
   19.2910   -8.3350  -18.0247 O   0  0  0  0  0  0  0  0  0  0  0  0
   21.3692   -8.5021  -17.1279 N   0  0  0  0  0  0  0  0  0  0  0  0
   20.9580   -7.6670  -15.9921 C   0  0  1  0  0  0  0  0  0  0  0  0
   21.5917   -8.1427  -14.7327 C   0  0  0  0  0  0  0  0  0  0  0  0
   23.0111   -8.4750  -14.9571 C   0  0  0  0  0  0  0  0  0  0  0  0
   23.9832   -7.5136  -15.2392 C   0  0  0  0  0  0  0  0  0  0  0  0
   25.2919   -7.8504  -15.4373 C   0  0  0  0  0  0  0  0  0  0  0  0
   25.7139   -9.1709  -15.3663 C   0  0  0  0  0  0  0  0  0  0  0  0
   24.7827  -10.1429  -15.0909 C   0  0  0  0  0  0  0  0  0  0  0  0
   23.4697   -9.7931  -14.8934 C   0  0  0  0  0  0  0  0  0  0  0  0
   21.2370   -6.2586  -16.2333 C   0  0  0  0  0  0  0  0  0  0  0  0
   21.8977   -5.8106  -17.2043 O   0  0  0  0  0  0  0  0  0  0  0  0
   20.7446   -5.2911  -15.3304 O   0  0  0  0  0  0  0  0  0  0  0  0
  2  4  1  0
  2  1  1  6
  3  2  1  0
  4  6  1  0
  4  5  1  1
  6  7  2  0
  9  8  1  0
 10  9  2  0
 11  9  1  0
 12 11  1  6
 12 14  1  0
 13 12  1  0
 13  6  1  0
 14 15  2  0
 16 17  1  0
 16 14  1  0
 17 25  1  0
 17 18  1  1
 19 24  2  0
 19 18  1  0
 20 19  1  0
 21 22  1  0
 21 20  2  0
 22 23  2  0
 23 24  1  0
 25 26  2  0
 25 27  1  0
M  END
$$$$
