VNF.pdb
     RDKit          3D

 27 27  0  0  1  0  0  0  0  0999 V2000
   20.4822  -26.9730  -16.4453 C   0  0  0  0  0  0  0  0  0  0  0  0
   20.8580  -28.3597  -16.0406 C   0  0  1  0  0  0  0  0  0  0  0  0
   22.0453  -28.8364  -16.8521 C   0  0  0  0  0  0  0  0  0  0  0  0
   21.2043  -28.5049  -14.5742 C   0  0  2  0  0  0  0  0  0  0  0  0
   21.4171  -29.9484  -14.3714 N   0  0  0  0  0  0  0  0  0  0  0  0
   20.1072  -28.0920  -13.6960 C   0  0  0  0  0  0  0  0  0  0  0  0
   19.0772  -28.8462  -13.6964 O   0  0  0  0  0  0  0  0  0  0  0  0
   21.1721  -28.6038   -9.7822 N   0  0  0  0  0  0  0  0  0  0  0  0
   19.8820  -28.0800  -10.0968 C   0  0  0  0  0  0  0  0  0  0  0  0
   18.8985  -28.8368   -9.9231 O   0  0  0  0  0  0  0  0  0  0  0  0
   19.6586  -26.7284  -10.6023 C   0  0  0  0  0  0  0  0  0  0  0  0
   19.0838  -26.6012  -11.9669 C   0  0  2  0  0  0  0  0  0  0  0  0
   20.1809  -26.9323  -12.8961 N   0  0  0  0  0  0  0  0  0  0  0  0
   18.6004  -25.2610  -12.3471 C   0  0  0  0  0  0  0  0  0  0  0  0
   19.3696  -24.2438  -12.2173 O   0  0  0  0  0  0  0  0  0  0  0  0
   17.3159  -24.9566  -12.8698 N   0  0  0  0  0  0  0  0  0  0  0  0
   16.9322  -23.5778  -13.1988 C   0  0  1  0  0  0  0  0  0  0  0  0
   16.4098  -23.4947  -14.5896 C   0  0  0  0  0  0  0  0  0  0  0  0
   17.5090  -23.6097  -15.5665 C   0  0  0  0  0  0  0  0  0  0  0  0
   18.1505  -22.5029  -16.1251 C   0  0  0  0  0  0  0  0  0  0  0  0
   19.1697  -22.6401  -17.0239 C   0  0  0  0  0  0  0  0  0  0  0  0
   19.6138  -23.8933  -17.4228 C   0  0  0  0  0  0  0  0  0  0  0  0
   19.0038  -25.0044  -16.8926 C   0  0  0  0  0  0  0  0  0  0  0  0
   17.9802  -24.8550  -15.9897 C   0  0  0  0  0  0  0  0  0  0  0  0
   15.9804  -23.0419  -12.2362 C   0  0  0  0  0  0  0  0  0  0  0  0
   15.5052  -23.6779  -11.2617 O   0  0  0  0  0  0  0  0  0  0  0  0
   15.5332  -21.7096  -12.3736 O   0  0  0  0  0  0  0  0  0  0  0  0
  2  4  1  0
  2  1  1  1
  3  2  1  0
  4  6  1  0
  4  5  1  6
  6  7  2  0
  9  8  1  0
 10  9  2  0
 11  9  1  0
 12 11  1  1
 12 14  1  0
 13 12  1  0
 13  6  1  0
 14 15  2  0
 16 17  1  0
 16 14  1  0
 17 25  1  0
 17 18  1  6
 19 24  2  0
 19 18  1  0
 20 19  1  0
 21 22  1  0
 21 20  2  0
 22 23  2  0
 23 24  1  0
 25 26  2  0
 25 27  1  0
M  END
$$$$
