VNF.pdb
     RDKit          3D

 27 27  0  0  1  0  0  0  0  0999 V2000
   15.7656  -11.6571  -16.0506 C   0  0  0  0  0  0  0  0  0  0  0  0
   15.7599  -10.3375  -15.3531 C   0  0  1  0  0  0  0  0  0  0  0  0
   14.8593  -10.3945  -14.1361 C   0  0  0  0  0  0  0  0  0  0  0  0
   17.1269   -9.8687  -14.9028 C   0  0  2  0  0  0  0  0  0  0  0  0
   17.6043  -10.9109  -13.9776 N   0  0  0  0  0  0  0  0  0  0  0  0
   17.0698   -8.6087  -14.1581 C   0  0  0  0  0  0  0  0  0  0  0  0
   16.7278   -7.5781  -14.8293 O   0  0  0  0  0  0  0  0  0  0  0  0
   17.5774   -5.1770  -10.0105 N   0  0  0  0  0  0  0  0  0  0  0  0
   16.7441   -6.3258   -9.8564 C   0  0  0  0  0  0  0  0  0  0  0  0
   16.0701   -6.4074   -8.8033 O   0  0  0  0  0  0  0  0  0  0  0  0
   16.6421   -7.3906  -10.8503 C   0  0  0  0  0  0  0  0  0  0  0  0
   17.4242   -7.2259  -12.1034 C   0  0  2  0  0  0  0  0  0  0  0  0
   17.3730   -8.5348  -12.7823 N   0  0  0  0  0  0  0  0  0  0  0  0
   18.8511   -6.8917  -11.9406 C   0  0  0  0  0  0  0  0  0  0  0  0
   19.6059   -7.6430  -11.2272 O   0  0  0  0  0  0  0  0  0  0  0  0
   19.5161   -5.7776  -12.5170 N   0  0  0  0  0  0  0  0  0  0  0  0
   20.9771   -5.6432  -12.4533 C   0  0  1  0  0  0  0  0  0  0  0  0
   21.6408   -6.9005  -12.8924 C   0  0  0  0  0  0  0  0  0  0  0  0
   21.5102   -7.0762  -14.3511 C   0  0  0  0  0  0  0  0  0  0  0  0
   22.2897   -6.3784  -15.2753 C   0  0  0  0  0  0  0  0  0  0  0  0
   22.1502   -6.5658  -16.6209 C   0  0  0  0  0  0  0  0  0  0  0  0
   21.2220   -7.4634  -17.1303 C   0  0  0  0  0  0  0  0  0  0  0  0
   20.4377   -8.1668  -16.2482 C   0  0  0  0  0  0  0  0  0  0  0  0
   20.5863   -7.9707  -14.8973 C   0  0  0  0  0  0  0  0  0  0  0  0
   21.4439   -4.4957  -13.2182 C   0  0  0  0  0  0  0  0  0  0  0  0
   20.7269   -3.7947  -13.9762 O   0  0  0  0  0  0  0  0  0  0  0  0
   22.7989   -4.1089  -13.1281 O   0  0  0  0  0  0  0  0  0  0  0  0
  2  4  1  0
  2  1  1  1
  3  2  1  0
  4  6  1  0
  4  5  1  1
  6  7  2  0
  9  8  1  0
 10  9  2  0
 11  9  1  0
 12 11  1  1
 12 14  1  0
 13 12  1  0
 13  6  1  0
 14 15  2  0
 16 17  1  0
 16 14  1  0
 17 25  1  0
 17 18  1  6
 19 24  2  0
 19 18  1  0
 20 19  1  0
 21 22  1  0
 21 20  2  0
 22 23  2  0
 23 24  1  0
 25 26  2  0
 25 27  1  0
M  END
$$$$
