VNF.pdb
     RDKit          3D

 27 27  0  0  1  0  0  0  0  0999 V2000
   18.3094  -13.8451  -17.3985 C   0  0  0  0  0  0  0  0  0  0  0  0
   18.2360  -12.3669  -17.2050 C   0  0  1  0  0  0  0  0  0  0  0  0
   16.8503  -11.8632  -17.5534 C   0  0  0  0  0  0  0  0  0  0  0  0
   18.5612  -11.9090  -15.7994 C   0  0  2  0  0  0  0  0  0  0  0  0
   17.6106  -12.6268  -14.9326 N   0  0  0  0  0  0  0  0  0  0  0  0
   18.3347  -10.4742  -15.6110 C   0  0  0  0  0  0  0  0  0  0  0  0
   19.1357   -9.6963  -16.2297 O   0  0  0  0  0  0  0  0  0  0  0  0
   16.1789   -5.7945  -14.1549 N   0  0  0  0  0  0  0  0  0  0  0  0
   15.3364   -6.8057  -14.7075 C   0  0  0  0  0  0  0  0  0  0  0  0
   14.1767   -6.4667  -15.0396 O   0  0  0  0  0  0  0  0  0  0  0  0
   15.7550   -8.1912  -14.9006 C   0  0  0  0  0  0  0  0  0  0  0  0
   17.1630   -8.5274  -14.5639 C   0  0  2  0  0  0  0  0  0  0  0  0
   17.2950   -9.9783  -14.7967 N   0  0  0  0  0  0  0  0  0  0  0  0
   17.5738   -8.2860  -13.1685 C   0  0  0  0  0  0  0  0  0  0  0  0
   17.1450   -9.0521  -12.2345 O   0  0  0  0  0  0  0  0  0  0  0  0
   18.4366   -7.2507  -12.7219 N   0  0  0  0  0  0  0  0  0  0  0  0
   18.8563   -7.1585  -11.3176 C   0  0  1  0  0  0  0  0  0  0  0  0
   20.3377   -7.2411  -11.2047 C   0  0  0  0  0  0  0  0  0  0  0  0
   20.9853   -6.3560  -12.1910 C   0  0  0  0  0  0  0  0  0  0  0  0
   20.9506   -4.9633  -12.1031 C   0  0  0  0  0  0  0  0  0  0  0  0
   21.5643   -4.1686  -13.0289 C   0  0  0  0  0  0  0  0  0  0  0  0
   22.2529   -4.7149  -14.1032 C   0  0  0  0  0  0  0  0  0  0  0  0
   22.3065   -6.0829  -14.2204 C   0  0  0  0  0  0  0  0  0  0  0  0
   21.6859   -6.8724  -13.2838 C   0  0  0  0  0  0  0  0  0  0  0  0
   18.3367   -5.9570  -10.6804 C   0  0  0  0  0  0  0  0  0  0  0  0
   17.7992   -4.9951  -11.2854 O   0  0  0  0  0  0  0  0  0  0  0  0
   18.4241   -5.8248   -9.2773 O   0  0  0  0  0  0  0  0  0  0  0  0
  2  4  1  0
  2  1  1  1
  3  2  1  0
  4  6  1  0
  4  5  1  1
  6  7  2  0
  9  8  1  0
 10  9  2  0
 11  9  1  0
 12 11  1  1
 12 14  1  0
 13 12  1  0
 13  6  1  0
 14 15  2  0
 16 17  1  0
 16 14  1  0
 17 25  1  0
 17 18  1  6
 19 24  2  0
 19 18  1  0
 20 19  1  0
 21 22  1  0
 21 20  2  0
 22 23  2  0
 23 24  1  0
 25 26  2  0
 25 27  1  0
M  END
$$$$
