VNF.pdb
     RDKit          3D

 27 27  0  0  1  0  0  0  0  0999 V2000
   31.5381   -9.2265  -24.2331 C   0  0  0  0  0  0  0  0  0  0  0  0
   32.2941  -10.2789  -24.9740 C   0  0  1  0  0  0  0  0  0  0  0  0
   32.9256   -9.6891  -26.2185 C   0  0  0  0  0  0  0  0  0  0  0  0
   33.3867  -10.9431  -24.1640 C   0  0  2  0  0  0  0  0  0  0  0  0
   33.7322  -12.1633  -24.9136 N   0  0  0  0  0  0  0  0  0  0  0  0
   32.9274  -11.3554  -22.8356 C   0  0  0  0  0  0  0  0  0  0  0  0
   32.1787  -12.3887  -22.7992 O   0  0  0  0  0  0  0  0  0  0  0  0
   34.7042  -11.5491  -17.0531 N   0  0  0  0  0  0  0  0  0  0  0  0
   33.6908  -11.5149  -18.0578 C   0  0  0  0  0  0  0  0  0  0  0  0
   32.5348  -11.8583  -17.7173 O   0  0  0  0  0  0  0  0  0  0  0  0
   33.9334  -11.1061  -19.4384 C   0  0  0  0  0  0  0  0  0  0  0  0
   32.7631  -11.0819  -20.3542 C   0  0  2  0  0  0  0  0  0  0  0  0
   33.2891  -10.6560  -21.6651 N   0  0  0  0  0  0  0  0  0  0  0  0
   31.6845  -10.1385  -20.0068 C   0  0  0  0  0  0  0  0  0  0  0  0
   31.8006   -8.8973  -20.3050 O   0  0  0  0  0  0  0  0  0  0  0  0
   30.4700  -10.4681  -19.3493 N   0  0  0  0  0  0  0  0  0  0  0  0
   29.4636   -9.4429  -19.0447 C   0  0  1  0  0  0  0  0  0  0  0  0
   28.1159  -10.0560  -18.8971 C   0  0  0  0  0  0  0  0  0  0  0  0
   28.1341  -11.1119  -17.8674 C   0  0  0  0  0  0  0  0  0  0  0  0
   27.8354  -10.8722  -16.5250 C   0  0  0  0  0  0  0  0  0  0  0  0
   27.8551  -11.8714  -15.5942 C   0  0  0  0  0  0  0  0  0  0  0  0
   28.1750  -13.1758  -15.9450 C   0  0  0  0  0  0  0  0  0  0  0  0
   28.4749  -13.4467  -17.2582 C   0  0  0  0  0  0  0  0  0  0  0  0
   28.4519  -12.4346  -18.1859 C   0  0  0  0  0  0  0  0  0  0  0  0
   29.8296   -8.6646  -17.8700 C   0  0  0  0  0  0  0  0  0  0  0  0
   30.8100   -8.9068  -17.1215 O   0  0  0  0  0  0  0  0  0  0  0  0
   29.0486   -7.5442  -17.5113 O   0  0  0  0  0  0  0  0  0  0  0  0
  2  4  1  0
  2  1  1  1
  3  2  1  0
  4  6  1  0
  4  5  1  6
  6  7  2  0
  9  8  1  0
 10  9  2  0
 11  9  1  0
 12 11  1  1
 12 14  1  0
 13 12  1  0
 13  6  1  0
 14 15  2  0
 16 17  1  0
 16 14  1  0
 17 25  1  0
 17 18  1  1
 19 24  2  0
 19 18  1  0
 20 19  1  0
 21 22  1  0
 21 20  2  0
 22 23  2  0
 23 24  1  0
 25 26  2  0
 25 27  1  0
M  END
$$$$
