VNF.pdb
     RDKit          3D

 27 27  0  0  1  0  0  0  0  0999 V2000
   27.3071  -20.7634  -15.0978 C   0  0  0  0  0  0  0  0  0  0  0  0
   27.0216  -20.8269  -13.6341 C   0  0  1  0  0  0  0  0  0  0  0  0
   28.2594  -20.4532  -12.8444 C   0  0  0  0  0  0  0  0  0  0  0  0
   25.8897  -19.9284  -13.1840 C   0  0  2  0  0  0  0  0  0  0  0  0
   25.8225  -20.0989  -11.7223 N   0  0  0  0  0  0  0  0  0  0  0  0
   24.5963  -20.3371  -13.7367 C   0  0  0  0  0  0  0  0  0  0  0  0
   24.4813  -20.2593  -15.0057 O   0  0  0  0  0  0  0  0  0  0  0  0
   19.9018  -21.0951  -10.7902 N   0  0  0  0  0  0  0  0  0  0  0  0
   21.2397  -21.3139  -11.2373 C   0  0  0  0  0  0  0  0  0  0  0  0
   22.1640  -20.8665  -10.5192 O   0  0  0  0  0  0  0  0  0  0  0  0
   21.5756  -22.0218  -12.4695 C   0  0  0  0  0  0  0  0  0  0  0  0
   22.2752  -21.2471  -13.5274 C   0  0  2  0  0  0  0  0  0  0  0  0
   23.5395  -20.7906  -12.9195 N   0  0  0  0  0  0  0  0  0  0  0  0
   21.5829  -20.0401  -14.0154 C   0  0  0  0  0  0  0  0  0  0  0  0
   21.5804  -18.9735  -13.3045 O   0  0  0  0  0  0  0  0  0  0  0  0
   20.8871  -19.9202  -15.2472 N   0  0  0  0  0  0  0  0  0  0  0  0
   20.2667  -18.6529  -15.6540 C   0  0  1  0  0  0  0  0  0  0  0  0
   21.3056  -17.6295  -15.9497 C   0  0  0  0  0  0  0  0  0  0  0  0
   22.1303  -18.0423  -17.1009 C   0  0  0  0  0  0  0  0  0  0  0  0
   23.4542  -18.4670  -16.9762 C   0  0  0  0  0  0  0  0  0  0  0  0
   24.1923  -18.8486  -18.0601 C   0  0  0  0  0  0  0  0  0  0  0  0
   23.6546  -18.8303  -19.3397 C   0  0  0  0  0  0  0  0  0  0  0  0
   22.3538  -18.4171  -19.4984 C   0  0  0  0  0  0  0  0  0  0  0  0
   21.6208  -18.0356  -18.4017 C   0  0  0  0  0  0  0  0  0  0  0  0
   19.3601  -18.8362  -16.7783 C   0  0  0  0  0  0  0  0  0  0  0  0
   19.1709  -19.9224  -17.3821 O   0  0  0  0  0  0  0  0  0  0  0  0
   18.6184  -17.7338  -17.2561 O   0  0  0  0  0  0  0  0  0  0  0  0
  2  4  1  0
  2  1  1  6
  3  2  1  0
  4  6  1  0
  4  5  1  1
  6  7  2  0
  9  8  1  0
 10  9  2  0
 11  9  1  0
 12 11  1  1
 12 14  1  0
 13 12  1  0
 13  6  1  0
 14 15  2  0
 16 17  1  0
 16 14  1  0
 17 25  1  0
 17 18  1  6
 19 24  2  0
 19 18  1  0
 20 19  1  0
 21 22  1  0
 21 20  2  0
 22 23  2  0
 23 24  1  0
 25 26  2  0
 25 27  1  0
M  END
$$$$
