VNF.pdb
     RDKit          3D

 27 27  0  0  1  0  0  0  0  0999 V2000
   26.4818  -12.5234  -15.2530 C   0  0  0  0  0  0  0  0  0  0  0  0
   25.5750  -11.4003  -15.6328 C   0  0  1  0  0  0  0  0  0  0  0  0
   26.1137  -10.6852  -16.8549 C   0  0  0  0  0  0  0  0  0  0  0  0
   24.1524  -11.8251  -15.9276 C   0  0  2  0  0  0  0  0  0  0  0  0
   24.2484  -12.6868  -17.1186 N   0  0  0  0  0  0  0  0  0  0  0  0
   23.2890  -10.6925  -16.2698 C   0  0  0  0  0  0  0  0  0  0  0  0
   23.4007  -10.2444  -17.4600 O   0  0  0  0  0  0  0  0  0  0  0  0
   19.1117  -11.7535  -15.9612 N   0  0  0  0  0  0  0  0  0  0  0  0
   19.5871  -10.4798  -16.3965 C   0  0  0  0  0  0  0  0  0  0  0  0
   19.5310  -10.2365  -17.6244 O   0  0  0  0  0  0  0  0  0  0  0  0
   20.1257   -9.4656  -15.4945 C   0  0  0  0  0  0  0  0  0  0  0  0
   21.5170   -9.0064  -15.7439 C   0  0  2  0  0  0  0  0  0  0  0  0
   22.3869  -10.1286  -15.3433 N   0  0  0  0  0  0  0  0  0  0  0  0
   21.9628   -7.8319  -14.9718 C   0  0  0  0  0  0  0  0  0  0  0  0
   22.1936   -7.9430  -13.7158 O   0  0  0  0  0  0  0  0  0  0  0  0
   22.1791   -6.5280  -15.4903 N   0  0  0  0  0  0  0  0  0  0  0  0
   22.7084   -5.4486  -14.6469 C   0  0  1  0  0  0  0  0  0  0  0  0
   24.1346   -5.1774  -14.9730 C   0  0  0  0  0  0  0  0  0  0  0  0
   24.2809   -4.7923  -16.3893 C   0  0  0  0  0  0  0  0  0  0  0  0
   24.4740   -5.7195  -17.4148 C   0  0  0  0  0  0  0  0  0  0  0  0
   24.6009   -5.3338  -18.7188 C   0  0  0  0  0  0  0  0  0  0  0  0
   24.5431   -3.9953  -19.0824 C   0  0  0  0  0  0  0  0  0  0  0  0
   24.3544   -3.0560  -18.0976 C   0  0  0  0  0  0  0  0  0  0  0  0
   24.2279   -3.4549  -16.7898 C   0  0  0  0  0  0  0  0  0  0  0  0
   21.8976   -4.2435  -14.7467 C   0  0  0  0  0  0  0  0  0  0  0  0
   20.9968   -4.0495  -15.6017 O   0  0  0  0  0  0  0  0  0  0  0  0
   22.1088   -3.1895  -13.8311 O   0  0  0  0  0  0  0  0  0  0  0  0
  2  4  1  0
  2  1  1  6
  3  2  1  0
  4  6  1  0
  4  5  1  6
  6  7  2  0
  9  8  1  0
 10  9  2  0
 11  9  1  0
 12 11  1  1
 12 14  1  0
 13 12  1  0
 13  6  1  0
 14 15  2  0
 16 17  1  0
 16 14  1  0
 17 25  1  0
 17 18  1  6
 19 24  2  0
 19 18  1  0
 20 19  1  0
 21 22  1  0
 21 20  2  0
 22 23  2  0
 23 24  1  0
 25 26  2  0
 25 27  1  0
M  END
$$$$
