ISS.pdb
     RDKit          3D

 21 20  0  0  1  0  0  0  0  0999 V2000
   28.9322  -19.9150   -3.6248 C   0  0  0  0  0  0  0  0  0  0  0  0
   28.3540  -19.2502   -4.8205 C   0  0  0  0  0  0  0  0  0  0  0  0
   28.1220  -20.0929   -6.0123 C   0  0  2  0  0  0  0  0  0  0  0  0
   29.4635  -20.7215   -6.3997 C   0  0  0  0  0  0  0  0  0  0  0  0
   27.5406  -19.4759   -7.2159 C   0  0  2  0  0  0  0  0  0  0  0  0
   26.4371  -18.6142   -6.9134 N   0  0  0  0  0  0  0  0  0  0  0  0
   27.2679  -20.4149   -8.3277 C   0  0  0  0  0  0  0  0  0  0  0  0
   28.1361  -21.1735   -8.8092 O   0  0  0  0  0  0  0  0  0  0  0  0
   23.4533  -20.2997  -10.2853 O   0  0  0  0  0  0  0  0  0  0  0  0
   24.1916  -21.4600  -10.2790 C   0  0  0  0  0  0  0  0  0  0  0  0
   25.6889  -21.2038  -10.1283 C   0  0  2  0  0  0  0  0  0  0  0  0
   25.9715  -20.4871   -8.9022 N   0  0  0  0  0  0  0  0  0  0  0  0
   26.1691  -20.5257  -11.3295 C   0  0  0  0  0  0  0  0  0  0  0  0
   26.1330  -19.2818  -11.4352 O   0  0  0  0  0  0  0  0  0  0  0  0
   28.5356  -20.9657  -15.4887 O   0  0  0  0  0  0  0  0  0  0  0  0
   28.1427  -21.5753  -14.2807 C   0  0  0  0  0  0  0  0  0  0  0  0
   27.1192  -20.6367  -13.6613 C   0  0  2  0  0  0  0  0  0  0  0  0
   26.6936  -21.2560  -12.4183 N   0  0  0  0  0  0  0  0  0  0  0  0
   26.0136  -20.4991  -14.6245 C   0  0  0  0  0  0  0  0  0  0  0  0
   26.0892  -19.6205  -15.6794 O   0  0  0  0  0  0  0  0  0  0  0  0
   24.9890  -21.1918  -14.4821 O   0  0  0  0  0  0  0  0  0  0  0  0
  2  3  1  0
  2  1  1  0
  3  5  1  0
  3  4  1  6
  5  6  1  1
  5  7  1  0
  7  8  2  0
 10  9  1  0
 11 10  1  6
 12  7  1  0
 12 11  1  0
 13 18  1  0
 13 11  1  0
 14 13  2  0
 16 15  1  0
 17 19  1  0
 17 16  1  6
 17 18  1  0
 19 20  1  0
 21 19  2  0
M  END
$$$$
