ISS.pdb
     RDKit          3D

 21 20  0  0  1  0  0  0  0  0999 V2000
   18.3200  -14.5832  -17.9032 C   0  0  0  0  0  0  0  0  0  0  0  0
   18.4392  -13.7916  -16.6521 C   0  0  0  0  0  0  0  0  0  0  0  0
   18.6087  -12.3303  -16.7943 C   0  0  2  0  0  0  0  0  0  0  0  0
   19.9008  -12.0911  -17.5806 C   0  0  0  0  0  0  0  0  0  0  0  0
   18.6506  -11.4989  -15.5802 C   0  0  2  0  0  0  0  0  0  0  0  0
   17.5525  -11.7587  -14.6979 N   0  0  0  0  0  0  0  0  0  0  0  0
   18.8857  -10.0569  -15.8201 C   0  0  0  0  0  0  0  0  0  0  0  0
   19.9148   -9.6159  -16.3746 O   0  0  0  0  0  0  0  0  0  0  0  0
   16.8959   -5.5802  -15.6976 O   0  0  0  0  0  0  0  0  0  0  0  0
   16.7702   -6.9335  -15.4869 C   0  0  0  0  0  0  0  0  0  0  0  0
   18.1027   -7.6712  -15.5899 C   0  0  2  0  0  0  0  0  0  0  0  0
   17.9206   -9.0972  -15.4157 N   0  0  0  0  0  0  0  0  0  0  0  0
   19.0390   -7.0776  -14.6390 C   0  0  0  0  0  0  0  0  0  0  0  0
   19.0907   -7.4577  -13.4505 O   0  0  0  0  0  0  0  0  0  0  0  0
   23.1850   -5.4771  -13.6410 O   0  0  0  0  0  0  0  0  0  0  0  0
   22.2456   -6.0684  -14.5087 C   0  0  0  0  0  0  0  0  0  0  0  0
   20.9034   -5.4571  -14.1386 C   0  0  2  0  0  0  0  0  0  0  0  0
   19.9226   -6.0487  -15.0319 N   0  0  0  0  0  0  0  0  0  0  0  0
   21.0209   -4.0008  -14.3232 C   0  0  0  0  0  0  0  0  0  0  0  0
   21.5263   -3.1927  -13.3322 O   0  0  0  0  0  0  0  0  0  0  0  0
   20.6558   -3.4893  -15.3978 O   0  0  0  0  0  0  0  0  0  0  0  0
  2  3  1  0
  2  1  1  0
  3  5  1  0
  3  4  1  1
  5  6  1  6
  5  7  1  0
  7  8  2  0
 10  9  1  0
 11 10  1  1
 12  7  1  0
 12 11  1  0
 13 18  1  0
 13 11  1  0
 14 13  2  0
 16 15  1  0
 17 19  1  0
 17 16  1  6
 17 18  1  0
 19 20  1  0
 21 19  2  0
M  END
$$$$
