ISS.pdb
     RDKit          3D

 21 20  0  0  1  0  0  0  0  0999 V2000
   16.3070  -14.0121  -18.0878 C   0  0  0  0  0  0  0  0  0  0  0  0
   17.6983  -13.6147  -17.7531 C   0  0  0  0  0  0  0  0  0  0  0  0
   17.8689  -12.4412  -16.8709 C   0  0  2  0  0  0  0  0  0  0  0  0
   17.2977  -11.2256  -17.6064 C   0  0  0  0  0  0  0  0  0  0  0  0
   19.2206  -12.0978  -16.3994 C   0  0  2  0  0  0  0  0  0  0  0  0
   19.9217  -13.2290  -15.8697 N   0  0  0  0  0  0  0  0  0  0  0  0
   19.2924  -10.9004  -15.5315 C   0  0  0  0  0  0  0  0  0  0  0  0
   18.5175  -10.7058  -14.5710 O   0  0  0  0  0  0  0  0  0  0  0  0
   21.7754   -7.0146  -14.0636 O   0  0  0  0  0  0  0  0  0  0  0  0
   21.7203   -8.2047  -14.7508 C   0  0  0  0  0  0  0  0  0  0  0  0
   20.2910   -8.6303  -15.0768 C   0  0  2  0  0  0  0  0  0  0  0  0
   20.2738   -9.9021  -15.7688 N   0  0  0  0  0  0  0  0  0  0  0  0
   19.6399   -7.5508  -15.8144 C   0  0  0  0  0  0  0  0  0  0  0  0
   19.8379   -7.3833  -17.0361 O   0  0  0  0  0  0  0  0  0  0  0  0
   16.2965   -6.7445  -16.4272 O   0  0  0  0  0  0  0  0  0  0  0  0
   16.6713   -5.6220  -15.6626 C   0  0  0  0  0  0  0  0  0  0  0  0
   18.1779   -5.4978  -15.8272 C   0  0  2  0  0  0  0  0  0  0  0  0
   18.7596   -6.6548  -15.1693 N   0  0  0  0  0  0  0  0  0  0  0  0
   18.5836   -4.2318  -15.1936 C   0  0  0  0  0  0  0  0  0  0  0  0
   18.3084   -3.0185  -15.7792 O   0  0  0  0  0  0  0  0  0  0  0  0
   19.1881   -4.2589  -14.1057 O   0  0  0  0  0  0  0  0  0  0  0  0
  2  3  1  0
  2  1  1  0
  3  5  1  0
  3  4  1  6
  5  6  1  1
  5  7  1  0
  7  8  2  0
 10  9  1  0
 11 10  1  6
 12  7  1  0
 12 11  1  0
 13 18  1  0
 13 11  1  0
 14 13  2  0
 16 15  1  0
 17 19  1  0
 17 16  1  1
 17 18  1  0
 19 20  1  0
 21 19  2  0
M  END
$$$$
