DLW.pdb
     RDKit          3D

 31 32  0  0  1  0  0  0  0  0999 V2000
   24.3752  -11.4214  -19.7172 N   0  0  0  0  0  0  0  0  0  0  0  0
   24.6849  -10.1030  -19.2021 C   0  0  1  0  0  0  0  0  0  0  0  0
   24.8778   -9.1365  -20.3622 C   0  0  0  0  0  0  0  0  0  0  0  0
   26.0367   -9.5408  -21.1986 C   0  0  0  0  0  0  0  0  0  0  0  0
   27.0367  -10.1076  -20.6992 O   0  0  0  0  0  0  0  0  0  0  0  0
   23.6296   -9.6203  -18.2777 C   0  0  0  0  0  0  0  0  0  0  0  0
   22.4293   -9.4604  -18.6762 O   0  0  0  0  0  0  0  0  0  0  0  0
   26.0387   -9.2983  -22.5632 O   0  0  0  0  0  0  0  0  0  0  0  0
   24.2914  -11.7600  -14.5946 C   0  0  0  0  0  0  0  0  0  0  0  0
   23.6481  -10.4724  -14.1773 C   0  0  2  0  0  0  0  0  0  0  0  0
   22.9989  -10.6231  -12.7912 C   0  0  0  0  0  0  0  0  0  0  0  0
   22.6182  -10.0119  -15.1245 C   0  0  0  0  0  0  0  0  0  0  0  0
   22.8671   -8.8454  -15.9851 C   0  0  2  0  0  0  0  0  0  0  0  0
   23.9267   -9.3272  -16.9395 N   0  0  0  0  0  0  0  0  0  0  0  0
   23.3629   -7.5945  -15.4592 C   0  0  0  0  0  0  0  0  0  0  0  0
   24.6022   -7.4761  -15.1650 O   0  0  0  0  0  0  0  0  0  0  0  0
   22.5097   -6.4588  -15.2489 N   0  0  0  0  0  0  0  0  0  0  0  0
   23.0779   -5.2071  -14.8001 C   0  0  1  0  0  0  0  0  0  0  0  0
   23.9593   -4.6437  -15.8904 C   0  0  0  0  0  0  0  0  0  0  0  0
   23.2212   -4.2965  -17.1047 C   0  0  0  0  0  0  0  0  0  0  0  0
   21.9582   -3.7582  -17.1489 C   0  0  0  0  0  0  0  0  0  0  0  0
   21.6378   -3.5856  -18.4445 N   0  0  0  0  0  0  0  0  0  0  0  0
   22.6265   -3.9835  -19.2499 C   0  0  0  0  0  0  0  0  0  0  0  0
   22.7750   -4.0084  -20.6285 C   0  0  0  0  0  0  0  0  0  0  0  0
   23.9286   -4.4832  -21.2138 C   0  0  0  0  0  0  0  0  0  0  0  0
   24.9446   -4.9385  -20.3880 C   0  0  0  0  0  0  0  0  0  0  0  0
   24.7819   -4.9071  -19.0233 C   0  0  0  0  0  0  0  0  0  0  0  0
   23.6350   -4.4360  -18.4109 C   0  0  0  0  0  0  0  0  0  0  0  0
   21.9943   -4.2523  -14.4328 C   0  0  0  0  0  0  0  0  0  0  0  0
   20.7909   -4.4562  -14.7144 O   0  0  0  0  0  0  0  0  0  0  0  0
   22.3366   -3.0944  -13.7528 O   0  0  0  0  0  0  0  0  0  0  0  0
  2  1  1  6
  2  3  1  0
  3  4  1  0
  4  5  2  0
  4  8  1  0
  6  2  1  0
  7  6  2  0
 10 12  1  0
 10  9  1  6
 11 10  1  0
 13 12  1  1
 13 15  1  0
 13 14  1  0
 14  6  1  0
 15 16  2  0
 17 18  1  0
 17 15  1  0
 18 19  1  6
 20 19  1  0
 21 20  2  0
 22 21  1  0
 23 22  1  0
 23 28  2  0
 24 23  1  0
 25 24  2  0
 25 26  1  0
 26 27  2  0
 27 28  1  0
 28 20  1  0
 29 18  1  0
 30 29  2  0
 31 29  1  0
M  END
$$$$
