DLW.pdb
     RDKit          3D

 31 32  0  0  1  0  0  0  0  0999 V2000
   27.7516  -22.3170  -16.1974 N   0  0  0  0  0  0  0  0  0  0  0  0
   27.4918  -21.1687  -15.3528 C   0  0  1  0  0  0  0  0  0  0  0  0
   26.8996  -20.0447  -16.1914 C   0  0  0  0  0  0  0  0  0  0  0  0
   27.9311  -19.4487  -17.0786 C   0  0  0  0  0  0  0  0  0  0  0  0
   28.2653  -19.9993  -18.1536 O   0  0  0  0  0  0  0  0  0  0  0  0
   26.5959  -21.5180  -14.2231 C   0  0  0  0  0  0  0  0  0  0  0  0
   25.5985  -22.2941  -14.3906 O   0  0  0  0  0  0  0  0  0  0  0  0
   28.5532  -18.2590  -16.7346 O   0  0  0  0  0  0  0  0  0  0  0  0
   26.5482  -19.6647   -8.3608 C   0  0  0  0  0  0  0  0  0  0  0  0
   25.7009  -20.2605   -9.4438 C   0  0  2  0  0  0  0  0  0  0  0  0
   25.0534  -21.5684   -8.9583 C   0  0  0  0  0  0  0  0  0  0  0  0
   26.4591  -20.5469  -10.6738 C   0  0  0  0  0  0  0  0  0  0  0  0
   25.7752  -21.0774  -11.8630 C   0  0  2  0  0  0  0  0  0  0  0  0
   26.8242  -21.0021  -12.9399 N   0  0  0  0  0  0  0  0  0  0  0  0
   24.6035  -20.4435  -12.4221 C   0  0  0  0  0  0  0  0  0  0  0  0
   24.6953  -19.2713  -12.9259 O   0  0  0  0  0  0  0  0  0  0  0  0
   23.3183  -21.0837  -12.4368 N   0  0  0  0  0  0  0  0  0  0  0  0
   22.1986  -20.4320  -13.0791 C   0  0  1  0  0  0  0  0  0  0  0  0
   22.4575  -20.3529  -14.5657 C   0  0  0  0  0  0  0  0  0  0  0  0
   21.3481  -19.7593  -15.3118 C   0  0  0  0  0  0  0  0  0  0  0  0
   20.8935  -18.4696  -15.1817 C   0  0  0  0  0  0  0  0  0  0  0  0
   19.8666  -18.3150  -16.0377 N   0  0  0  0  0  0  0  0  0  0  0  0
   19.6264  -19.4375  -16.7209 C   0  0  0  0  0  0  0  0  0  0  0  0
   18.6976  -19.7754  -17.6938 C   0  0  0  0  0  0  0  0  0  0  0  0
   18.6685  -21.0378  -18.2454 C   0  0  0  0  0  0  0  0  0  0  0  0
   19.5951  -21.9692  -17.8030 C   0  0  0  0  0  0  0  0  0  0  0  0
   20.5093  -21.6185  -16.8379 C   0  0  0  0  0  0  0  0  0  0  0  0
   20.5598  -20.3594  -16.2684 C   0  0  0  0  0  0  0  0  0  0  0  0
   20.9371  -21.1701  -12.7880 C   0  0  0  0  0  0  0  0  0  0  0  0
   20.9146  -22.3990  -12.5464 O   0  0  0  0  0  0  0  0  0  0  0  0
   19.7445  -20.4646  -12.7857 O   0  0  0  0  0  0  0  0  0  0  0  0
  2  1  1  6
  2  3  1  0
  3  4  1  0
  4  5  2  0
  4  8  1  0
  6  2  1  0
  7  6  2  0
 10 12  1  0
 10  9  1  1
 11 10  1  0
 13 12  1  1
 13 15  1  0
 13 14  1  0
 14  6  1  0
 15 16  2  0
 17 18  1  0
 17 15  1  0
 18 19  1  6
 20 19  1  0
 21 20  2  0
 22 21  1  0
 23 22  1  0
 23 28  2  0
 24 23  1  0
 25 24  2  0
 25 26  1  0
 26 27  2  0
 27 28  1  0
 28 20  1  0
 29 18  1  0
 30 29  2  0
 31 29  1  0
M  END
$$$$
