DLW.pdb
     RDKit          3D

 31 32  0  0  1  0  0  0  0  0999 V2000
   30.4248  -22.6725  -12.9771 N   0  0  0  0  0  0  0  0  0  0  0  0
   30.8866  -21.3464  -13.3343 C   0  0  1  0  0  0  0  0  0  0  0  0
   31.4197  -21.3609  -14.7601 C   0  0  0  0  0  0  0  0  0  0  0  0
   30.5969  -22.2478  -15.6219 C   0  0  0  0  0  0  0  0  0  0  0  0
   29.5560  -22.7959  -15.1901 O   0  0  0  0  0  0  0  0  0  0  0  0
   29.8102  -20.3372  -13.1793 C   0  0  0  0  0  0  0  0  0  0  0  0
   29.9896  -19.1253  -13.5317 O   0  0  0  0  0  0  0  0  0  0  0  0
   30.9652  -22.4918  -16.9356 O   0  0  0  0  0  0  0  0  0  0  0  0
   27.4455  -17.3916  -14.6552 C   0  0  0  0  0  0  0  0  0  0  0  0
   27.5799  -18.8343  -15.0376 C   0  0  2  0  0  0  0  0  0  0  0  0
   26.9337  -19.0866  -16.4104 C   0  0  0  0  0  0  0  0  0  0  0  0
   26.9634  -19.7473  -14.0597 C   0  0  0  0  0  0  0  0  0  0  0  0
   27.4007  -19.7390  -12.6555 C   0  0  2  0  0  0  0  0  0  0  0  0
   28.5659  -20.6919  -12.6401 N   0  0  0  0  0  0  0  0  0  0  0  0
   26.5378  -20.1690  -11.5795 C   0  0  0  0  0  0  0  0  0  0  0  0
   25.3310  -19.7481  -11.5267 O   0  0  0  0  0  0  0  0  0  0  0  0
   26.9843  -21.0638  -10.5490 N   0  0  0  0  0  0  0  0  0  0  0  0
   26.0537  -21.5185   -9.5401 C   0  0  1  0  0  0  0  0  0  0  0  0
   26.8073  -21.7975   -8.2604 C   0  0  0  0  0  0  0  0  0  0  0  0
   27.1374  -20.5850   -7.5115 C   0  0  0  0  0  0  0  0  0  0  0  0
   26.7903  -19.3041   -7.8662 C   0  0  0  0  0  0  0  0  0  0  0  0
   27.2775  -18.4777   -6.9225 N   0  0  0  0  0  0  0  0  0  0  0  0
   27.9254  -19.1524   -5.9688 C   0  0  0  0  0  0  0  0  0  0  0  0
   28.5864  -18.7628   -4.8136 C   0  0  0  0  0  0  0  0  0  0  0  0
   29.1842  -19.6885   -3.9863 C   0  0  0  0  0  0  0  0  0  0  0  0
   29.1095  -21.0276   -4.3371 C   0  0  0  0  0  0  0  0  0  0  0  0
   28.4506  -21.3975   -5.4855 C   0  0  0  0  0  0  0  0  0  0  0  0
   27.8427  -20.4890   -6.3325 C   0  0  0  0  0  0  0  0  0  0  0  0
   24.9859  -20.5007   -9.3284 C   0  0  0  0  0  0  0  0  0  0  0  0
   25.0215  -19.3654   -9.8564 O   0  0  0  0  0  0  0  0  0  0  0  0
   23.9132  -20.8281   -8.5146 O   0  0  0  0  0  0  0  0  0  0  0  0
  2  1  1  6
  2  3  1  0
  3  4  1  0
  4  5  2  0
  4  8  1  0
  6  2  1  0
  7  6  2  0
 10 12  1  0
 10  9  1  1
 11 10  1  0
 13 12  1  6
 13 15  1  0
 13 14  1  0
 14  6  1  0
 15 16  2  0
 17 18  1  0
 17 15  1  0
 18 19  1  1
 20 19  1  0
 21 20  2  0
 22 21  1  0
 23 22  1  0
 23 28  2  0
 24 23  1  0
 25 24  2  0
 25 26  1  0
 26 27  2  0
 27 28  1  0
 28 20  1  0
 29 18  1  0
 30 29  2  0
 31 29  1  0
M  END
$$$$
