DLW.pdb
     RDKit          3D

 31 32  0  0  1  0  0  0  0  0999 V2000
   24.3657  -24.6041  -15.6843 N   0  0  0  0  0  0  0  0  0  0  0  0
   25.3822  -24.1133  -14.7759 C   0  0  1  0  0  0  0  0  0  0  0  0
   26.5731  -23.6018  -15.5743 C   0  0  0  0  0  0  0  0  0  0  0  0
   26.1610  -22.5143  -16.4983 C   0  0  0  0  0  0  0  0  0  0  0  0
   26.3342  -21.3081  -16.2060 O   0  0  0  0  0  0  0  0  0  0  0  0
   24.8470  -23.0560  -13.8832 C   0  0  0  0  0  0  0  0  0  0  0  0
   23.6352  -22.6705  -13.9735 O   0  0  0  0  0  0  0  0  0  0  0  0
   25.5697  -22.8116  -17.7160 O   0  0  0  0  0  0  0  0  0  0  0  0
   24.3497  -20.4008   -9.4077 C   0  0  0  0  0  0  0  0  0  0  0  0
   25.6209  -21.1939   -9.4347 C   0  0  2  0  0  0  0  0  0  0  0  0
   26.7530  -20.4139   -8.7450 C   0  0  0  0  0  0  0  0  0  0  0  0
   26.0566  -21.5340  -10.8001 C   0  0  0  0  0  0  0  0  0  0  0  0
   25.1080  -21.4674  -11.9221 C   0  0  2  0  0  0  0  0  0  0  0  0
   25.6625  -22.4529  -12.9156 N   0  0  0  0  0  0  0  0  0  0  0  0
   24.8862  -20.2510  -12.6695 C   0  0  0  0  0  0  0  0  0  0  0  0
   24.2027  -19.3026  -12.1503 O   0  0  0  0  0  0  0  0  0  0  0  0
   25.4088  -20.0578  -13.9929 N   0  0  0  0  0  0  0  0  0  0  0  0
   25.3709  -18.7437  -14.5951 C   0  0  1  0  0  0  0  0  0  0  0  0
   26.7711  -18.3420  -14.9968 C   0  0  0  0  0  0  0  0  0  0  0  0
   26.8328  -17.0224  -15.6250 C   0  0  0  0  0  0  0  0  0  0  0  0
   26.5383  -15.8285  -15.0130 C   0  0  0  0  0  0  0  0  0  0  0  0
   26.7170  -14.8532  -15.9229 N   0  0  0  0  0  0  0  0  0  0  0  0
   27.1133  -15.3482  -17.0987 C   0  0  0  0  0  0  0  0  0  0  0  0
   27.4206  -14.7644  -18.3185 C   0  0  0  0  0  0  0  0  0  0  0  0
   27.8126  -15.5276  -19.3967 C   0  0  0  0  0  0  0  0  0  0  0  0
   27.8935  -16.9019  -19.2337 C   0  0  0  0  0  0  0  0  0  0  0  0
   27.5856  -17.4652  -18.0181 C   0  0  0  0  0  0  0  0  0  0  0  0
   27.1898  -16.7223  -16.9209 C   0  0  0  0  0  0  0  0  0  0  0  0
   24.4499  -18.7408  -15.7668 C   0  0  0  0  0  0  0  0  0  0  0  0
   24.2417  -19.7602  -16.4641 O   0  0  0  0  0  0  0  0  0  0  0  0
   23.8005  -17.5611  -16.0935 O   0  0  0  0  0  0  0  0  0  0  0  0
  2  1  1  6
  2  3  1  0
  3  4  1  0
  4  5  2  0
  4  8  1  0
  6  2  1  0
  7  6  2  0
 10 12  1  0
 10  9  1  6
 11 10  1  0
 13 12  1  1
 13 15  1  0
 13 14  1  0
 14  6  1  0
 15 16  2  0
 17 18  1  0
 17 15  1  0
 18 19  1  6
 20 19  1  0
 21 20  2  0
 22 21  1  0
 23 22  1  0
 23 28  2  0
 24 23  1  0
 25 24  2  0
 25 26  1  0
 26 27  2  0
 27 28  1  0
 28 20  1  0
 29 18  1  0
 30 29  2  0
 31 29  1  0
M  END
$$$$
