DLW.pdb
     RDKit          3D

 31 32  0  0  1  0  0  0  0  0999 V2000
   27.9182  -21.4098  -14.4464 N   0  0  0  0  0  0  0  0  0  0  0  0
   28.0624  -20.4811  -13.3437 C   0  0  1  0  0  0  0  0  0  0  0  0
   27.5569  -19.1086  -13.7656 C   0  0  0  0  0  0  0  0  0  0  0  0
   28.3876  -18.5559  -14.8660 C   0  0  0  0  0  0  0  0  0  0  0  0
   28.2296  -17.3829  -15.2779 O   0  0  0  0  0  0  0  0  0  0  0  0
   27.3505  -20.9610  -12.1337 C   0  0  0  0  0  0  0  0  0  0  0  0
   26.6319  -22.0134  -12.1678 O   0  0  0  0  0  0  0  0  0  0  0  0
   29.3654  -19.3320  -15.4679 O   0  0  0  0  0  0  0  0  0  0  0  0
   28.0193  -19.7694   -6.3801 C   0  0  0  0  0  0  0  0  0  0  0  0
   27.4778  -20.6019   -7.5022 C   0  0  2  0  0  0  0  0  0  0  0  0
   28.5338  -21.6154   -7.9747 C   0  0  0  0  0  0  0  0  0  0  0  0
   27.0551  -19.7977   -8.6617 C   0  0  0  0  0  0  0  0  0  0  0  0
   26.4305  -20.4426   -9.8266 C   0  0  2  0  0  0  0  0  0  0  0  0
   27.4506  -20.2676  -10.9196 N   0  0  0  0  0  0  0  0  0  0  0  0
   25.1830  -19.9756  -10.3862 C   0  0  0  0  0  0  0  0  0  0  0  0
   25.1746  -18.9498  -11.1505 O   0  0  0  0  0  0  0  0  0  0  0  0
   23.9308  -20.6246  -10.1167 N   0  0  0  0  0  0  0  0  0  0  0  0
   22.7709  -20.3091  -10.9203 C   0  0  1  0  0  0  0  0  0  0  0  0
   23.0288  -20.7282  -12.3489 C   0  0  0  0  0  0  0  0  0  0  0  0
   21.8769  -20.5203  -13.2262 C   0  0  0  0  0  0  0  0  0  0  0  0
   20.6652  -19.9954  -12.8477 C   0  0  0  0  0  0  0  0  0  0  0  0
   19.8781  -19.9682  -13.9389 N   0  0  0  0  0  0  0  0  0  0  0  0
   20.5130  -20.4484  -15.0117 C   0  0  0  0  0  0  0  0  0  0  0  0
   20.1387  -20.6247  -16.3353 C   0  0  0  0  0  0  0  0  0  0  0  0
   21.0117  -21.1563  -17.2595 C   0  0  0  0  0  0  0  0  0  0  0  0
   22.2816  -21.5134  -16.8334 C   0  0  0  0  0  0  0  0  0  0  0  0
   22.6373  -21.3322  -15.5179 C   0  0  0  0  0  0  0  0  0  0  0  0
   21.7806  -20.8013  -14.5710 C   0  0  0  0  0  0  0  0  0  0  0  0
   21.5627  -20.9844  -10.3679 C   0  0  0  0  0  0  0  0  0  0  0  0
   21.6318  -21.9051   -9.5215 O   0  0  0  0  0  0  0  0  0  0  0  0
   20.3157  -20.5740  -10.8114 O   0  0  0  0  0  0  0  0  0  0  0  0
  2  1  1  6
  2  3  1  0
  3  4  1  0
  4  5  2  0
  4  8  1  0
  6  2  1  0
  7  6  2  0
 10 12  1  0
 10  9  1  1
 11 10  1  0
 13 12  1  1
 13 15  1  0
 13 14  1  0
 14  6  1  0
 15 16  2  0
 17 18  1  0
 17 15  1  0
 18 19  1  6
 20 19  1  0
 21 20  2  0
 22 21  1  0
 23 22  1  0
 23 28  2  0
 24 23  1  0
 25 24  2  0
 25 26  1  0
 26 27  2  0
 27 28  1  0
 28 20  1  0
 29 18  1  0
 30 29  2  0
 31 29  1  0
M  END
$$$$
