DLW.pdb
     RDKit          3D

 31 32  0  0  1  0  0  0  0  0999 V2000
   21.4088  -27.8212  -13.5215 N   0  0  0  0  0  0  0  0  0  0  0  0
   21.2355  -27.2513  -14.8423 C   0  0  1  0  0  0  0  0  0  0  0  0
   19.7773  -26.8616  -15.0403 C   0  0  0  0  0  0  0  0  0  0  0  0
   18.9011  -28.0604  -15.0027 C   0  0  0  0  0  0  0  0  0  0  0  0
   17.8487  -28.0794  -14.3227 O   0  0  0  0  0  0  0  0  0  0  0  0
   22.1303  -26.0866  -15.0522 C   0  0  0  0  0  0  0  0  0  0  0  0
   22.3316  -25.2365  -14.1239 O   0  0  0  0  0  0  0  0  0  0  0  0
   19.2307  -29.1961  -15.7256 O   0  0  0  0  0  0  0  0  0  0  0  0
   26.5917  -25.3840  -15.6751 C   0  0  0  0  0  0  0  0  0  0  0  0
   25.8410  -26.1027  -16.7547 C   0  0  2  0  0  0  0  0  0  0  0  0
   26.8002  -26.5355  -17.8765 C   0  0  0  0  0  0  0  0  0  0  0  0
   24.7693  -25.2861  -17.3500 C   0  0  0  0  0  0  0  0  0  0  0  0
   23.7040  -24.7259  -16.5047 C   0  0  2  0  0  0  0  0  0  0  0  0
   22.7784  -25.8914  -16.2797 N   0  0  0  0  0  0  0  0  0  0  0  0
   22.8579  -23.6434  -16.9515 C   0  0  0  0  0  0  0  0  0  0  0  0
   21.8831  -23.8850  -17.7437 O   0  0  0  0  0  0  0  0  0  0  0  0
   23.0680  -22.2845  -16.5376 N   0  0  0  0  0  0  0  0  0  0  0  0
   22.1706  -21.2474  -16.9957 C   0  0  1  0  0  0  0  0  0  0  0  0
   21.1519  -20.9614  -15.9169 C   0  0  0  0  0  0  0  0  0  0  0  0
   21.7542  -20.5126  -14.6617 C   0  0  0  0  0  0  0  0  0  0  0  0
   22.9829  -19.9124  -14.5314 C   0  0  0  0  0  0  0  0  0  0  0  0
   23.1694  -19.6535  -13.2241 N   0  0  0  0  0  0  0  0  0  0  0  0
   22.1256  -20.0536  -12.4926 C   0  0  0  0  0  0  0  0  0  0  0  0
   21.8463  -20.0096  -11.1350 C   0  0  0  0  0  0  0  0  0  0  0  0
   20.6631  -20.5064  -10.6331 C   0  0  0  0  0  0  0  0  0  0  0  0
   19.7516  -21.0550  -11.5219 C   0  0  0  0  0  0  0  0  0  0  0  0
   20.0435  -21.0910  -12.8649 C   0  0  0  0  0  0  0  0  0  0  0  0
   21.2229  -20.5997  -13.3941 C   0  0  0  0  0  0  0  0  0  0  0  0
   22.9397  -20.0218  -17.3524 C   0  0  0  0  0  0  0  0  0  0  0  0
   24.1724  -19.9175  -17.1561 O   0  0  0  0  0  0  0  0  0  0  0  0
   22.2597  -18.9582  -17.9238 O   0  0  0  0  0  0  0  0  0  0  0  0
  2  1  1  1
  2  3  1  0
  3  4  1  0
  4  5  2  0
  4  8  1  0
  6  2  1  0
  7  6  2  0
 10 12  1  0
 10  9  1  1
 11 10  1  0
 13 12  1  6
 13 15  1  0
 13 14  1  0
 14  6  1  0
 15 16  2  0
 17 18  1  0
 17 15  1  0
 18 19  1  1
 20 19  1  0
 21 20  2  0
 22 21  1  0
 23 22  1  0
 23 28  2  0
 24 23  1  0
 25 24  2  0
 25 26  1  0
 26 27  2  0
 27 28  1  0
 28 20  1  0
 29 18  1  0
 30 29  2  0
 31 29  1  0
M  END
$$$$
