DLW.pdb
     RDKit          3D

 31 32  0  0  1  0  0  0  0  0999 V2000
   27.1970  -22.5471  -14.3674 N   0  0  0  0  0  0  0  0  0  0  0  0
   27.1327  -21.2724  -13.6818 C   0  0  1  0  0  0  0  0  0  0  0  0
   26.5409  -20.2237  -14.6131 C   0  0  0  0  0  0  0  0  0  0  0  0
   27.2387  -20.2287  -15.9244 C   0  0  0  0  0  0  0  0  0  0  0  0
   28.1227  -21.0761  -16.1907 O   0  0  0  0  0  0  0  0  0  0  0  0
   26.3490  -21.3710  -12.4258 C   0  0  0  0  0  0  0  0  0  0  0  0
   25.3237  -22.1244  -12.3481 O   0  0  0  0  0  0  0  0  0  0  0  0
   26.9251  -19.2876  -16.8922 O   0  0  0  0  0  0  0  0  0  0  0  0
   25.8128  -21.0587   -7.0423 C   0  0  0  0  0  0  0  0  0  0  0  0
   27.0238  -20.5965   -7.7943 C   0  0  2  0  0  0  0  0  0  0  0  0
   27.8502  -19.6261   -6.9334 C   0  0  0  0  0  0  0  0  0  0  0  0
   26.6906  -19.9238   -9.0616 C   0  0  0  0  0  0  0  0  0  0  0  0
   25.8482  -20.5967  -10.0621 C   0  0  2  0  0  0  0  0  0  0  0  0
   26.7175  -20.6363  -11.2903 N   0  0  0  0  0  0  0  0  0  0  0  0
   24.5871  -20.0448  -10.5008 C   0  0  0  0  0  0  0  0  0  0  0  0
   24.4490  -18.7770  -10.5999 O   0  0  0  0  0  0  0  0  0  0  0  0
   23.4628  -20.8727  -10.8361 N   0  0  0  0  0  0  0  0  0  0  0  0
   22.4979  -20.4132  -11.8102 C   0  0  1  0  0  0  0  0  0  0  0  0
   23.1833  -20.2475  -13.1466 C   0  0  0  0  0  0  0  0  0  0  0  0
   22.2805  -19.7905  -14.2031 C   0  0  0  0  0  0  0  0  0  0  0  0
   21.2978  -18.8410  -14.0629 C   0  0  0  0  0  0  0  0  0  0  0  0
   20.6939  -18.7053  -15.2578 N   0  0  0  0  0  0  0  0  0  0  0  0
   21.2312  -19.5174  -16.1723 C   0  0  0  0  0  0  0  0  0  0  0  0
   20.9645  -19.7428  -17.5144 C   0  0  0  0  0  0  0  0  0  0  0  0
   21.6890  -20.6618  -18.2418 C   0  0  0  0  0  0  0  0  0  0  0  0
   22.6978  -21.3611  -17.5975 C   0  0  0  0  0  0  0  0  0  0  0  0
   22.9498  -21.1261  -16.2666 C   0  0  0  0  0  0  0  0  0  0  0  0
   22.2378  -20.2099  -15.5142 C   0  0  0  0  0  0  0  0  0  0  0  0
   21.3608  -21.3723  -11.9004 C   0  0  0  0  0  0  0  0  0  0  0  0
   21.4731  -22.5827  -11.5982 O   0  0  0  0  0  0  0  0  0  0  0  0
   20.1326  -20.9015  -12.3364 O   0  0  0  0  0  0  0  0  0  0  0  0
  2  1  1  6
  2  3  1  0
  3  4  1  0
  4  5  2  0
  4  8  1  0
  6  2  1  0
  7  6  2  0
 10 12  1  0
 10  9  1  1
 11 10  1  0
 13 12  1  1
 13 15  1  0
 13 14  1  0
 14  6  1  0
 15 16  2  0
 17 18  1  0
 17 15  1  0
 18 19  1  6
 20 19  1  0
 21 20  2  0
 22 21  1  0
 23 22  1  0
 23 28  2  0
 24 23  1  0
 25 24  2  0
 25 26  1  0
 26 27  2  0
 27 28  1  0
 28 20  1  0
 29 18  1  0
 30 29  2  0
 31 29  1  0
M  END
$$$$
