DLW.pdb
     RDKit          3D

 31 32  0  0  1  0  0  0  0  0999 V2000
   21.1717  -22.3739  -15.1110 N   0  0  0  0  0  0  0  0  0  0  0  0
   21.6009  -21.2848  -14.2572 C   0  0  1  0  0  0  0  0  0  0  0  0
   20.5768  -21.0721  -13.1513 C   0  0  0  0  0  0  0  0  0  0  0  0
   19.3937  -20.3337  -13.6628 C   0  0  0  0  0  0  0  0  0  0  0  0
   19.4756  -19.5789  -14.6598 O   0  0  0  0  0  0  0  0  0  0  0  0
   22.9491  -21.5378  -13.6919 C   0  0  0  0  0  0  0  0  0  0  0  0
   23.2342  -22.6539  -13.1459 O   0  0  0  0  0  0  0  0  0  0  0  0
   18.1608  -20.4640  -13.0433 O   0  0  0  0  0  0  0  0  0  0  0  0
   28.3708  -19.0133  -14.6677 C   0  0  0  0  0  0  0  0  0  0  0  0
   27.6270  -19.8617  -13.6814 C   0  0  2  0  0  0  0  0  0  0  0  0
   28.2905  -21.2436  -13.5565 C   0  0  0  0  0  0  0  0  0  0  0  0
   26.2127  -20.0570  -14.0436 C   0  0  0  0  0  0  0  0  0  0  0  0
   25.3049  -20.7762  -13.1370 C   0  0  2  0  0  0  0  0  0  0  0  0
   23.9457  -20.5534  -13.7441 N   0  0  0  0  0  0  0  0  0  0  0  0
   25.1675  -20.4181  -11.7441 C   0  0  0  0  0  0  0  0  0  0  0  0
   24.4812  -19.3891  -11.4178 O   0  0  0  0  0  0  0  0  0  0  0  0
   25.7789  -21.1806  -10.6921 N   0  0  0  0  0  0  0  0  0  0  0  0
   25.7823  -20.6659   -9.3408 C   0  0  1  0  0  0  0  0  0  0  0  0
   26.3770  -21.7031   -8.4169 C   0  0  0  0  0  0  0  0  0  0  0  0
   26.5503  -21.2209   -7.0467 C   0  0  0  0  0  0  0  0  0  0  0  0
   25.5506  -21.0725   -6.1165 C   0  0  0  0  0  0  0  0  0  0  0  0
   26.1157  -20.6082   -4.9868 N   0  0  0  0  0  0  0  0  0  0  0  0
   27.4337  -20.4453   -5.1306 C   0  0  0  0  0  0  0  0  0  0  0  0
   28.4334  -20.0027   -4.2775 C   0  0  0  0  0  0  0  0  0  0  0  0
   29.7455  -19.9298   -4.6921 C   0  0  0  0  0  0  0  0  0  0  0  0
   30.0460  -20.3117   -5.9904 C   0  0  0  0  0  0  0  0  0  0  0  0
   29.0436  -20.7483   -6.8237 C   0  0  0  0  0  0  0  0  0  0  0  0
   27.7197  -20.8307   -6.4327 C   0  0  0  0  0  0  0  0  0  0  0  0
   26.5436  -19.3862   -9.2793 C   0  0  0  0  0  0  0  0  0  0  0  0
   27.6246  -19.2140   -9.8882 O   0  0  0  0  0  0  0  0  0  0  0  0
   26.0312  -18.3487   -8.5170 O   0  0  0  0  0  0  0  0  0  0  0  0
  2  1  1  1
  2  3  1  0
  3  4  1  0
  4  5  2  0
  4  8  1  0
  6  2  1  0
  7  6  2  0
 10 12  1  0
 10  9  1  6
 11 10  1  0
 13 12  1  6
 13 15  1  0
 13 14  1  0
 14  6  1  0
 15 16  2  0
 17 18  1  0
 17 15  1  0
 18 19  1  1
 20 19  1  0
 21 20  2  0
 22 21  1  0
 23 22  1  0
 23 28  2  0
 24 23  1  0
 25 24  2  0
 25 26  1  0
 26 27  2  0
 27 28  1  0
 28 20  1  0
 29 18  1  0
 30 29  2  0
 31 29  1  0
M  END
$$$$
