DLW.pdb
     RDKit          3D

 31 32  0  0  1  0  0  0  0  0999 V2000
   24.4870  -15.6857  -20.0701 N   0  0  0  0  0  0  0  0  0  0  0  0
   24.3897  -14.2540  -20.2695 C   0  0  1  0  0  0  0  0  0  0  0  0
   22.9646  -13.8913  -20.6630 C   0  0  0  0  0  0  0  0  0  0  0  0
   22.5598  -14.6088  -21.8990 C   0  0  0  0  0  0  0  0  0  0  0  0
   23.2537  -14.5573  -22.9413 O   0  0  0  0  0  0  0  0  0  0  0  0
   24.8133  -13.5078  -19.0592 C   0  0  0  0  0  0  0  0  0  0  0  0
   24.5648  -13.9540  -17.8912 O   0  0  0  0  0  0  0  0  0  0  0  0
   21.3946  -15.3587  -21.9280 O   0  0  0  0  0  0  0  0  0  0  0  0
   29.5758  -10.0948  -18.0399 C   0  0  0  0  0  0  0  0  0  0  0  0
   28.2314  -10.3950  -17.4500 C   0  0  2  0  0  0  0  0  0  0  0  0
   28.3874  -11.0276  -16.0567 C   0  0  0  0  0  0  0  0  0  0  0  0
   27.4281  -11.3045  -18.2851 C   0  0  0  0  0  0  0  0  0  0  0  0
   26.0185  -11.5661  -17.9568 C   0  0  2  0  0  0  0  0  0  0  0  0
   25.4992  -12.2903  -19.1699 N   0  0  0  0  0  0  0  0  0  0  0  0
   25.0756  -10.4989  -17.7128 C   0  0  0  0  0  0  0  0  0  0  0  0
   24.5630   -9.8667  -18.6997 O   0  0  0  0  0  0  0  0  0  0  0  0
   24.6826  -10.1107  -16.3874 N   0  0  0  0  0  0  0  0  0  0  0  0
   23.8069   -8.9751  -16.2017 C   0  0  1  0  0  0  0  0  0  0  0  0
   23.6840   -8.6803  -14.7248 C   0  0  0  0  0  0  0  0  0  0  0  0
   22.7361   -7.6059  -14.4299 C   0  0  0  0  0  0  0  0  0  0  0  0
   21.4805   -7.7683  -13.8971 C   0  0  0  0  0  0  0  0  0  0  0  0
   20.9306   -6.5457  -13.7789 N   0  0  0  0  0  0  0  0  0  0  0  0
   21.7623   -5.5921  -14.2071 C   0  0  0  0  0  0  0  0  0  0  0  0
   21.6608   -4.2114  -14.2885 C   0  0  0  0  0  0  0  0  0  0  0  0
   22.6949   -3.4474  -14.7840 C   0  0  0  0  0  0  0  0  0  0  0  0
   23.8474   -4.0944  -15.2023 C   0  0  0  0  0  0  0  0  0  0  0  0
   23.9324   -5.4637  -15.1150 C   0  0  0  0  0  0  0  0  0  0  0  0
   22.9097   -6.2533  -14.6220 C   0  0  0  0  0  0  0  0  0  0  0  0
   24.3290   -7.7951  -16.9475 C   0  0  0  0  0  0  0  0  0  0  0  0
   23.5908   -7.0467  -17.6286 O   0  0  0  0  0  0  0  0  0  0  0  0
   25.6853   -7.5192  -16.8815 O   0  0  0  0  0  0  0  0  0  0  0  0
  2  1  1  1
  2  3  1  0
  3  4  1  0
  4  5  2  0
  4  8  1  0
  6  2  1  0
  7  6  2  0
 10 12  1  0
 10  9  1  6
 11 10  1  0
 13 12  1  6
 13 15  1  0
 13 14  1  0
 14  6  1  0
 15 16  2  0
 17 18  1  0
 17 15  1  0
 18 19  1  1
 20 19  1  0
 21 20  2  0
 22 21  1  0
 23 22  1  0
 23 28  2  0
 24 23  1  0
 25 24  2  0
 25 26  1  0
 26 27  2  0
 27 28  1  0
 28 20  1  0
 29 18  1  0
 30 29  2  0
 31 29  1  0
M  END
$$$$
