DLW.pdb
     RDKit          3D

 31 32  0  0  1  0  0  0  0  0999 V2000
   29.1123  -22.5789  -18.1435 N   0  0  0  0  0  0  0  0  0  0  0  0
   27.8719  -22.8845  -17.4600 C   0  0  1  0  0  0  0  0  0  0  0  0
   27.7683  -24.3876  -17.2428 C   0  0  0  0  0  0  0  0  0  0  0  0
   27.0972  -25.0421  -18.3950 C   0  0  0  0  0  0  0  0  0  0  0  0
   26.6555  -26.2122  -18.3154 O   0  0  0  0  0  0  0  0  0  0  0  0
   27.7669  -22.1529  -16.1736 C   0  0  0  0  0  0  0  0  0  0  0  0
   28.3801  -22.5612  -15.1331 O   0  0  0  0  0  0  0  0  0  0  0  0
   26.9428  -24.3674  -19.5958 O   0  0  0  0  0  0  0  0  0  0  0  0
   27.6659  -16.7797  -16.3239 C   0  0  0  0  0  0  0  0  0  0  0  0
   27.8261  -17.8380  -15.2751 C   0  0  2  0  0  0  0  0  0  0  0  0
   29.1429  -18.6045  -15.4848 C   0  0  0  0  0  0  0  0  0  0  0  0
   26.7195  -18.8102  -15.2668 C   0  0  0  0  0  0  0  0  0  0  0  0
   26.9418  -20.1866  -14.7985 C   0  0  2  0  0  0  0  0  0  0  0  0
   26.9890  -20.9915  -16.0696 N   0  0  0  0  0  0  0  0  0  0  0  0
   25.9972  -20.8699  -13.9452 C   0  0  0  0  0  0  0  0  0  0  0  0
   24.8999  -21.3077  -14.4356 O   0  0  0  0  0  0  0  0  0  0  0  0
   26.2414  -21.0823  -12.5462 N   0  0  0  0  0  0  0  0  0  0  0  0
   25.2143  -21.6769  -11.7202 C   0  0  1  0  0  0  0  0  0  0  0  0
   25.8346  -22.1622  -10.4306 C   0  0  0  0  0  0  0  0  0  0  0  0
   26.1688  -21.0765   -9.5090 C   0  0  0  0  0  0  0  0  0  0  0  0
   25.3125  -20.0868   -9.0918 C   0  0  0  0  0  0  0  0  0  0  0  0
   25.9970  -19.2877   -8.2527 N   0  0  0  0  0  0  0  0  0  0  0  0
   27.2570  -19.7041   -8.0999 C   0  0  0  0  0  0  0  0  0  0  0  0
   28.3294  -19.2299   -7.3594 C   0  0  0  0  0  0  0  0  0  0  0  0
   29.5511  -19.8667   -7.3837 C   0  0  0  0  0  0  0  0  0  0  0  0
   29.6852  -21.0001   -8.1706 C   0  0  0  0  0  0  0  0  0  0  0  0
   28.6126  -21.4575   -8.8987 C   0  0  0  0  0  0  0  0  0  0  0  0
   27.3766  -20.8372   -8.8919 C   0  0  0  0  0  0  0  0  0  0  0  0
   24.1275  -20.6907  -11.4604 C   0  0  0  0  0  0  0  0  0  0  0  0
   24.2801  -19.4587  -11.6273 O   0  0  0  0  0  0  0  0  0  0  0  0
   22.9016  -21.1603  -11.0170 O   0  0  0  0  0  0  0  0  0  0  0  0
  2  1  1  1
  2  3  1  0
  3  4  1  0
  4  5  2  0
  4  8  1  0
  6  2  1  0
  7  6  2  0
 10 12  1  0
 10  9  1  6
 11 10  1  0
 13 12  1  6
 13 15  1  0
 13 14  1  0
 14  6  1  0
 15 16  2  0
 17 18  1  0
 17 15  1  0
 18 19  1  1
 20 19  1  0
 21 20  2  0
 22 21  1  0
 23 22  1  0
 23 28  2  0
 24 23  1  0
 25 24  2  0
 25 26  1  0
 26 27  2  0
 27 28  1  0
 28 20  1  0
 29 18  1  0
 30 29  2  0
 31 29  1  0
M  END
$$$$
