MMF.pdb
     RDKit          3D

 28 28  0  0  1  0  0  0  0  0999 V2000
   22.4633  -21.0265  -20.1004 C   0  0  0  0  0  0  0  0  0  0  0  0
   23.2093  -20.2391  -21.5606 S   0  0  0  0  0  0  0  0  0  0  0  0
   24.9751  -19.9248  -21.2720 C   0  0  0  0  0  0  0  0  0  0  0  0
   25.3271  -20.3254  -19.8386 C   0  0  0  0  0  0  0  0  0  0  0  0
   26.0868  -19.1682  -19.2327 C   0  0  2  0  0  0  0  0  0  0  0  0
   27.4157  -19.1857  -19.8491 N   0  0  0  0  0  0  0  0  0  0  0  0
   26.2820  -19.3381  -17.7744 C   0  0  0  0  0  0  0  0  0  0  0  0
   27.2268  -19.9823  -17.2532 O   0  0  0  0  0  0  0  0  0  0  0  0
   25.1259  -14.0860  -14.7054 C   0  0  0  0  0  0  0  0  0  0  0  0
   26.7031  -14.8155  -15.0881 S   0  0  0  0  0  0  0  0  0  0  0  0
   26.6718  -16.5708  -15.3738 C   0  0  0  0  0  0  0  0  0  0  0  0
   25.3500  -17.2280  -15.0401 C   0  0  0  0  0  0  0  0  0  0  0  0
   25.4730  -18.6722  -15.4726 C   0  0  2  0  0  0  0  0  0  0  0  0
   25.3389  -18.7328  -16.9056 N   0  0  0  0  0  0  0  0  0  0  0  0
   24.4867  -19.5520  -14.8484 C   0  0  0  0  0  0  0  0  0  0  0  0
   23.3257  -19.5842  -15.3243 O   0  0  0  0  0  0  0  0  0  0  0  0
   24.7527  -20.3803  -13.7309 N   0  0  0  0  0  0  0  0  0  0  0  0
   23.6936  -21.1742  -13.1708 C   0  0  1  0  0  0  0  0  0  0  0  0
   24.1982  -22.2102  -12.2171 C   0  0  0  0  0  0  0  0  0  0  0  0
   25.0013  -21.5796  -11.1464 C   0  0  0  0  0  0  0  0  0  0  0  0
   24.3936  -21.0563   -9.9976 C   0  0  0  0  0  0  0  0  0  0  0  0
   25.1193  -20.4862   -8.9846 C   0  0  0  0  0  0  0  0  0  0  0  0
   26.4937  -20.4204   -9.0895 C   0  0  0  0  0  0  0  0  0  0  0  0
   27.0869  -20.9362  -10.2209 C   0  0  0  0  0  0  0  0  0  0  0  0
   26.3715  -21.5075  -11.2378 C   0  0  0  0  0  0  0  0  0  0  0  0
   22.6914  -20.2626  -12.5779 C   0  0  0  0  0  0  0  0  0  0  0  0
   22.9022  -19.0609  -12.3191 O   0  0  0  0  0  0  0  0  0  0  0  0
   21.4317  -20.7679  -12.2873 O   0  0  0  0  0  0  0  0  0  0  0  0
  1  2  1  0
  3  2  1  0
  4  3  1  0
  5  6  1  6
  5  4  1  0
  7  5  1  0
  8  7  2  0
 10  9  1  0
 10 11  1  0
 11 12  1  0
 13 12  1  1
 13 14  1  0
 14  7  1  0
 15 13  1  0
 15 16  2  0
 17 15  1  0
 18 19  1  1
 18 17  1  0
 20 21  2  0
 20 19  1  0
 22 21  1  0
 23 22  2  0
 24 23  1  0
 24 25  2  0
 25 20  1  0
 26 18  1  0
 27 26  2  0
 28 26  1  0
M  END
$$$$
