MMF.pdb
     RDKit          3D

 28 28  0  0  1  0  0  0  0  0999 V2000
   20.5136  -21.1647  -12.1176 C   0  0  0  0  0  0  0  0  0  0  0  0
   20.8678  -20.2413  -13.6441 S   0  0  0  0  0  0  0  0  0  0  0  0
   22.6477  -20.2830  -14.0054 C   0  0  0  0  0  0  0  0  0  0  0  0
   23.3559  -21.1173  -12.9371 C   0  0  0  0  0  0  0  0  0  0  0  0
   24.2448  -20.1742  -12.1602 C   0  0  2  0  0  0  0  0  0  0  0  0
   25.1506  -19.5684  -13.1393 N   0  0  0  0  0  0  0  0  0  0  0  0
   25.0865  -20.8925  -11.1759 C   0  0  0  0  0  0  0  0  0  0  0  0
   24.6628  -21.7726  -10.3852 O   0  0  0  0  0  0  0  0  0  0  0  0
   31.8415  -22.4750  -11.5822 C   0  0  0  0  0  0  0  0  0  0  0  0
   30.3774  -22.6463  -12.5789 S   0  0  0  0  0  0  0  0  0  0  0  0
   28.8424  -22.4350  -11.7053 C   0  0  0  0  0  0  0  0  0  0  0  0
   28.7717  -21.1705  -10.8769 C   0  0  0  0  0  0  0  0  0  0  0  0
   27.4104  -21.1709  -10.2175 C   0  0  2  0  0  0  0  0  0  0  0  0
   26.4652  -20.5658  -11.1207 N   0  0  0  0  0  0  0  0  0  0  0  0
   27.3850  -20.4687   -8.9357 C   0  0  0  0  0  0  0  0  0  0  0  0
   26.4283  -19.6923   -8.6962 O   0  0  0  0  0  0  0  0  0  0  0  0
   28.3763  -20.6047   -7.9336 N   0  0  0  0  0  0  0  0  0  0  0  0
   28.3340  -19.7531   -6.7766 C   0  0  1  0  0  0  0  0  0  0  0  0
   27.0429  -19.8665   -6.0297 C   0  0  0  0  0  0  0  0  0  0  0  0
   27.1607  -19.2378   -4.6956 C   0  0  0  0  0  0  0  0  0  0  0  0
   26.9398  -19.9753   -3.5251 C   0  0  0  0  0  0  0  0  0  0  0  0
   27.0631  -19.4190   -2.2789 C   0  0  0  0  0  0  0  0  0  0  0  0
   27.4159  -18.0899   -2.1621 C   0  0  0  0  0  0  0  0  0  0  0  0
   27.6321  -17.3687   -3.3157 C   0  0  0  0  0  0  0  0  0  0  0  0
   27.5117  -17.9147   -4.5645 C   0  0  0  0  0  0  0  0  0  0  0  0
   29.5245  -20.0356   -5.9461 C   0  0  0  0  0  0  0  0  0  0  0  0
   29.9435  -21.1815   -5.6872 O   0  0  0  0  0  0  0  0  0  0  0  0
   30.2277  -18.9628   -5.4160 O   0  0  0  0  0  0  0  0  0  0  0  0
  1  2  1  0
  3  2  1  0
  4  3  1  0
  5  6  1  6
  5  4  1  0
  7  5  1  0
  8  7  2  0
 10  9  1  0
 10 11  1  0
 11 12  1  0
 13 12  1  6
 13 14  1  0
 14  7  1  0
 15 13  1  0
 15 16  2  0
 17 15  1  0
 18 19  1  1
 18 17  1  0
 20 21  2  0
 20 19  1  0
 22 21  1  0
 23 22  2  0
 24 23  1  0
 24 25  2  0
 25 20  1  0
 26 18  1  0
 27 26  2  0
 28 26  1  0
M  END
$$$$
