MMF.pdb
     RDKit          3D

 28 28  0  0  1  0  0  0  0  0999 V2000
   28.8105  -19.2654  -20.4880 C   0  0  0  0  0  0  0  0  0  0  0  0
   30.1231  -18.6402  -19.3950 S   0  0  0  0  0  0  0  0  0  0  0  0
   29.4823  -18.4099  -17.7108 C   0  0  0  0  0  0  0  0  0  0  0  0
   28.7616  -19.6851  -17.2708 C   0  0  0  0  0  0  0  0  0  0  0  0
   27.3491  -19.2892  -16.9087 C   0  0  2  0  0  0  0  0  0  0  0  0
   27.4453  -17.9738  -16.2709 N   0  0  0  0  0  0  0  0  0  0  0  0
   26.7541  -20.2116  -15.9144 C   0  0  0  0  0  0  0  0  0  0  0  0
   26.6443  -21.4536  -16.0724 O   0  0  0  0  0  0  0  0  0  0  0  0
   25.1047  -21.1397   -8.2961 C   0  0  0  0  0  0  0  0  0  0  0  0
   25.9581  -20.2579   -9.5846 S   0  0  0  0  0  0  0  0  0  0  0  0
   25.4716  -20.6868  -11.2408 C   0  0  0  0  0  0  0  0  0  0  0  0
   26.1420  -19.8593  -12.3160 C   0  0  0  0  0  0  0  0  0  0  0  0
   25.6695  -20.4197  -13.6391 C   0  0  2  0  0  0  0  0  0  0  0  0
   26.2751  -19.6569  -14.7006 N   0  0  0  0  0  0  0  0  0  0  0  0
   24.2157  -20.4057  -13.7906 C   0  0  0  0  0  0  0  0  0  0  0  0
   23.6284  -19.2974  -13.8372 O   0  0  0  0  0  0  0  0  0  0  0  0
   23.4142  -21.5691  -13.8893 N   0  0  0  0  0  0  0  0  0  0  0  0
   21.9972  -21.4368  -14.0900 C   0  0  1  0  0  0  0  0  0  0  0  0
   21.3968  -22.6420  -14.7416 C   0  0  0  0  0  0  0  0  0  0  0  0
   19.9431  -22.4515  -14.9409 C   0  0  0  0  0  0  0  0  0  0  0  0
   19.4457  -21.8222  -16.0896 C   0  0  0  0  0  0  0  0  0  0  0  0
   18.1029  -21.6532  -16.3044 C   0  0  0  0  0  0  0  0  0  0  0  0
   17.2031  -22.1142  -15.3651 C   0  0  0  0  0  0  0  0  0  0  0  0
   17.6968  -22.7323  -14.2372 C   0  0  0  0  0  0  0  0  0  0  0  0
   19.0354  -22.9060  -14.0134 C   0  0  0  0  0  0  0  0  0  0  0  0
   21.3732  -21.0923  -12.7943 C   0  0  0  0  0  0  0  0  0  0  0  0
   20.4550  -20.2593  -12.6571 O   0  0  0  0  0  0  0  0  0  0  0  0
   21.8321  -21.7321  -11.6513 O   0  0  0  0  0  0  0  0  0  0  0  0
  1  2  1  0
  3  2  1  0
  4  3  1  0
  5  6  1  1
  5  4  1  0
  7  5  1  0
  8  7  2  0
 10  9  1  0
 10 11  1  0
 11 12  1  0
 13 12  1  1
 13 14  1  0
 14  7  1  0
 15 13  1  0
 15 16  2  0
 17 15  1  0
 18 19  1  1
 18 17  1  0
 20 21  2  0
 20 19  1  0
 22 21  1  0
 23 22  2  0
 24 23  1  0
 24 25  2  0
 25 20  1  0
 26 18  1  0
 27 26  2  0
 28 26  1  0
M  END
$$$$
