MMF.pdb
     RDKit          3D

 28 28  0  0  1  0  0  0  0  0999 V2000
   20.7603  -21.2698  -13.5350 C   0  0  0  0  0  0  0  0  0  0  0  0
   21.1651  -19.6795  -14.3196 S   0  0  0  0  0  0  0  0  0  0  0  0
   22.9455  -19.5856  -14.6682 C   0  0  0  0  0  0  0  0  0  0  0  0
   23.6956  -20.4904  -13.6895 C   0  0  0  0  0  0  0  0  0  0  0  0
   25.1588  -20.4213  -14.0599 C   0  0  2  0  0  0  0  0  0  0  0  0
   25.2687  -21.0081  -15.3977 N   0  0  0  0  0  0  0  0  0  0  0  0
   25.9974  -21.2413  -13.1555 C   0  0  0  0  0  0  0  0  0  0  0  0
   26.0753  -22.4949  -13.1991 O   0  0  0  0  0  0  0  0  0  0  0  0
   32.2930  -22.3616  -11.3238 C   0  0  0  0  0  0  0  0  0  0  0  0
   31.4120  -21.4231  -10.0953 S   0  0  0  0  0  0  0  0  0  0  0  0
   29.6456  -21.6315  -10.1116 C   0  0  0  0  0  0  0  0  0  0  0  0
   28.9476  -20.9034  -11.2399 C   0  0  0  0  0  0  0  0  0  0  0  0
   27.4751  -21.2212  -11.1032 C   0  0  2  0  0  0  0  0  0  0  0  0
   26.7655  -20.5671  -12.1727 N   0  0  0  0  0  0  0  0  0  0  0  0
   26.9099  -20.8161   -9.8175 C   0  0  0  0  0  0  0  0  0  0  0  0
   26.5560  -19.6212   -9.6680 O   0  0  0  0  0  0  0  0  0  0  0  0
   26.7317  -21.6879   -8.7159 N   0  0  0  0  0  0  0  0  0  0  0  0
   26.9957  -21.2105   -7.3861 C   0  0  1  0  0  0  0  0  0  0  0  0
   28.3656  -20.6251   -7.2500 C   0  0  0  0  0  0  0  0  0  0  0  0
   28.5731  -20.1090   -5.8789 C   0  0  0  0  0  0  0  0  0  0  0  0
   29.0493  -20.9400   -4.8564 C   0  0  0  0  0  0  0  0  0  0  0  0
   29.2680  -20.4785   -3.5848 C   0  0  0  0  0  0  0  0  0  0  0  0
   29.0142  -19.1542   -3.2915 C   0  0  0  0  0  0  0  0  0  0  0  0
   28.5461  -18.3409   -4.3001 C   0  0  0  0  0  0  0  0  0  0  0  0
   28.3246  -18.7917   -5.5728 C   0  0  0  0  0  0  0  0  0  0  0  0
   25.9135  -20.2788   -7.0020 C   0  0  0  0  0  0  0  0  0  0  0  0
   25.3665  -20.2625   -5.8813 O   0  0  0  0  0  0  0  0  0  0  0  0
   25.4712  -19.3591   -7.9428 O   0  0  0  0  0  0  0  0  0  0  0  0
  1  2  1  0
  3  2  1  0
  4  3  1  0
  5  6  1  6
  5  4  1  0
  7  5  1  0
  8  7  2  0
 10  9  1  0
 10 11  1  0
 11 12  1  0
 13 12  1  1
 13 14  1  0
 14  7  1  0
 15 13  1  0
 15 16  2  0
 17 15  1  0
 18 19  1  6
 18 17  1  0
 20 21  2  0
 20 19  1  0
 22 21  1  0
 23 22  2  0
 24 23  1  0
 24 25  2  0
 25 20  1  0
 26 18  1  0
 27 26  2  0
 28 26  1  0
M  END
$$$$
