MMF.pdb
     RDKit          3D

 28 28  0  0  1  0  0  0  0  0999 V2000
   34.1317  -36.9005  -15.6028 C   0  0  0  0  0  0  0  0  0  0  0  0
   33.6950  -35.8580  -17.0280 S   0  0  0  0  0  0  0  0  0  0  0  0
   33.3317  -34.1644  -16.4803 C   0  0  0  0  0  0  0  0  0  0  0  0
   33.0970  -33.2812  -17.7067 C   0  0  0  0  0  0  0  0  0  0  0  0
   32.9042  -31.8702  -17.2019 C   0  0  2  0  0  0  0  0  0  0  0  0
   31.5882  -31.8437  -16.5586 N   0  0  0  0  0  0  0  0  0  0  0  0
   32.8664  -30.8872  -18.3091 C   0  0  0  0  0  0  0  0  0  0  0  0
   31.8185  -30.5140  -18.8938 O   0  0  0  0  0  0  0  0  0  0  0  0
   34.8347  -25.1232  -18.1596 C   0  0  0  0  0  0  0  0  0  0  0  0
   33.2345  -25.8997  -18.1085 S   0  0  0  0  0  0  0  0  0  0  0  0
   33.1822  -27.5602  -18.7439 C   0  0  0  0  0  0  0  0  0  0  0  0
   34.4925  -28.0392  -19.3303 C   0  0  0  0  0  0  0  0  0  0  0  0
   34.2362  -29.4328  -19.8598 C   0  0  2  0  0  0  0  0  0  0  0  0
   34.0962  -30.3282  -18.7400 N   0  0  0  0  0  0  0  0  0  0  0  0
   35.2884  -29.9191  -20.7502 C   0  0  0  0  0  0  0  0  0  0  0  0
   35.7658  -31.0618  -20.5461 O   0  0  0  0  0  0  0  0  0  0  0  0
   35.8130  -29.1822  -21.8398 N   0  0  0  0  0  0  0  0  0  0  0  0
   36.8613  -29.7531  -22.6405 C   0  0  1  0  0  0  0  0  0  0  0  0
   36.5385  -31.1390  -23.1017 C   0  0  0  0  0  0  0  0  0  0  0  0
   37.6162  -31.6580  -23.9725 C   0  0  0  0  0  0  0  0  0  0  0  0
   38.7403  -32.2961  -23.4320 C   0  0  0  0  0  0  0  0  0  0  0  0
   39.7404  -32.8021  -24.2204 C   0  0  0  0  0  0  0  0  0  0  0  0
   39.6470  -32.6848  -25.5922 C   0  0  0  0  0  0  0  0  0  0  0  0
   38.5398  -32.0567  -26.1191 C   0  0  0  0  0  0  0  0  0  0  0  0
   37.5360  -31.5481  -25.3408 C   0  0  0  0  0  0  0  0  0  0  0  0
   37.1660  -28.8181  -23.7449 C   0  0  0  0  0  0  0  0  0  0  0  0
   36.3999  -27.9116  -24.1283 O   0  0  0  0  0  0  0  0  0  0  0  0
   38.3806  -28.9500  -24.4035 O   0  0  0  0  0  0  0  0  0  0  0  0
  1  2  1  0
  3  2  1  0
  4  3  1  0
  5  6  1  6
  5  4  1  0
  7  5  1  0
  8  7  2  0
 10  9  1  0
 10 11  1  0
 11 12  1  0
 13 12  1  1
 13 14  1  0
 14  7  1  0
 15 13  1  0
 15 16  2  0
 17 15  1  0
 18 19  1  6
 18 17  1  0
 20 21  2  0
 20 19  1  0
 22 21  1  0
 23 22  2  0
 24 23  1  0
 24 25  2  0
 25 20  1  0
 26 18  1  0
 27 26  2  0
 28 26  1  0
M  END
$$$$
