MMF.pdb
     RDKit          3D

 28 28  0  0  1  0  0  0  0  0999 V2000
   23.3612  -20.9536  -18.3748 C   0  0  0  0  0  0  0  0  0  0  0  0
   22.2277  -19.7351  -17.6408 S   0  0  0  0  0  0  0  0  0  0  0  0
   22.9010  -19.1158  -16.0712 C   0  0  0  0  0  0  0  0  0  0  0  0
   23.6016  -20.2620  -15.3402 C   0  0  0  0  0  0  0  0  0  0  0  0
   24.0446  -19.7230  -13.9999 C   0  0  2  0  0  0  0  0  0  0  0  0
   24.8722  -18.5486  -14.2863 N   0  0  0  0  0  0  0  0  0  0  0  0
   24.8984  -20.6887  -13.2705 C   0  0  0  0  0  0  0  0  0  0  0  0
   24.6303  -21.9080  -13.1262 O   0  0  0  0  0  0  0  0  0  0  0  0
   31.9715  -22.6150  -10.6308 C   0  0  0  0  0  0  0  0  0  0  0  0
   30.9565  -21.6163  -11.6979 S   0  0  0  0  0  0  0  0  0  0  0  0
   29.2171  -21.6457  -11.3271 C   0  0  0  0  0  0  0  0  0  0  0  0
   28.3867  -20.7145  -12.1834 C   0  0  0  0  0  0  0  0  0  0  0  0
   26.9432  -20.9674  -11.8086 C   0  0  2  0  0  0  0  0  0  0  0  0
   26.1009  -20.2058  -12.6950 N   0  0  0  0  0  0  0  0  0  0  0  0
   26.6343  -20.6254  -10.4215 C   0  0  0  0  0  0  0  0  0  0  0  0
   26.4471  -19.4193  -10.1287 O   0  0  0  0  0  0  0  0  0  0  0  0
   26.5304  -21.5710   -9.3724 N   0  0  0  0  0  0  0  0  0  0  0  0
   26.4203  -21.1121   -8.0148 C   0  0  1  0  0  0  0  0  0  0  0  0
   27.0976  -19.7959   -7.7992 C   0  0  0  0  0  0  0  0  0  0  0  0
   27.4984  -19.6469   -6.3827 C   0  0  0  0  0  0  0  0  0  0  0  0
   27.9766  -18.4257   -5.8897 C   0  0  0  0  0  0  0  0  0  0  0  0
   28.3343  -18.2595   -4.5774 C   0  0  0  0  0  0  0  0  0  0  0  0
   28.2237  -19.3230   -3.7050 C   0  0  0  0  0  0  0  0  0  0  0  0
   27.7530  -20.5217   -4.1942 C   0  0  0  0  0  0  0  0  0  0  0  0
   27.3932  -20.6980   -5.5025 C   0  0  0  0  0  0  0  0  0  0  0  0
   24.9903  -21.1101   -7.6381 C   0  0  0  0  0  0  0  0  0  0  0  0
   24.0735  -20.6803   -8.3664 O   0  0  0  0  0  0  0  0  0  0  0  0
   24.6355  -21.6174   -6.3958 O   0  0  0  0  0  0  0  0  0  0  0  0
  1  2  1  0
  3  2  1  0
  4  3  1  0
  5  6  1  6
  5  4  1  0
  7  5  1  0
  8  7  2  0
 10  9  1  0
 10 11  1  0
 11 12  1  0
 13 12  1  6
 13 14  1  0
 14  7  1  0
 15 13  1  0
 15 16  2  0
 17 15  1  0
 18 19  1  6
 18 17  1  0
 20 21  2  0
 20 19  1  0
 22 21  1  0
 23 22  2  0
 24 23  1  0
 24 25  2  0
 25 20  1  0
 26 18  1  0
 27 26  2  0
 28 26  1  0
M  END
$$$$
