MMF.pdb
     RDKit          3D

 28 28  0  0  1  0  0  0  0  0999 V2000
   11.7046  -19.3998   -8.9761 C   0  0  0  0  0  0  0  0  0  0  0  0
   11.1861  -20.5485   -7.6646 S   0  0  0  0  0  0  0  0  0  0  0  0
   12.5596  -20.8510   -6.5146 C   0  0  0  0  0  0  0  0  0  0  0  0
   12.0693  -21.7429   -5.3730 C   0  0  0  0  0  0  0  0  0  0  0  0
   13.2469  -21.9664   -4.4529 C   0  0  2  0  0  0  0  0  0  0  0  0
   14.3032  -22.5567   -5.2787 N   0  0  0  0  0  0  0  0  0  0  0  0
   12.9353  -22.9422   -3.3832 C   0  0  0  0  0  0  0  0  0  0  0  0
   11.7888  -23.1314   -2.9046 O   0  0  0  0  0  0  0  0  0  0  0  0
   12.0790  -29.5166   -3.5931 C   0  0  0  0  0  0  0  0  0  0  0  0
   13.5009  -28.4869   -3.3028 S   0  0  0  0  0  0  0  0  0  0  0  0
   13.1392  -26.8630   -2.6736 C   0  0  0  0  0  0  0  0  0  0  0  0
   14.3659  -26.0328   -2.3635 C   0  0  0  0  0  0  0  0  0  0  0  0
   13.8600  -24.7110   -1.8299 C   0  0  2  0  0  0  0  0  0  0  0  0
   14.0028  -23.7167   -2.8626 N   0  0  0  0  0  0  0  0  0  0  0  0
   14.5529  -24.2683   -0.6214 C   0  0  0  0  0  0  0  0  0  0  0  0
   15.5716  -23.5456   -0.7451 O   0  0  0  0  0  0  0  0  0  0  0  0
   14.1504  -24.6020    0.6947 N   0  0  0  0  0  0  0  0  0  0  0  0
   14.8756  -24.0655    1.8136 C   0  0  1  0  0  0  0  0  0  0  0  0
   13.9716  -23.5088    2.8674 C   0  0  0  0  0  0  0  0  0  0  0  0
   14.7536  -23.0960    4.0537 C   0  0  0  0  0  0  0  0  0  0  0  0
   15.4866  -21.9021    4.0587 C   0  0  0  0  0  0  0  0  0  0  0  0
   16.2013  -21.4903    5.1530 C   0  0  0  0  0  0  0  0  0  0  0  0
   16.2057  -22.2695    6.2919 C   0  0  0  0  0  0  0  0  0  0  0  0
   15.4834  -23.4426    6.2824 C   0  0  0  0  0  0  0  0  0  0  0  0
   14.7666  -23.8626    5.1952 C   0  0  0  0  0  0  0  0  0  0  0  0
   15.7968  -25.1080    2.3150 C   0  0  0  0  0  0  0  0  0  0  0  0
   16.5847  -24.9484    3.2687 O   0  0  0  0  0  0  0  0  0  0  0  0
   15.7916  -26.3475    1.6905 O   0  0  0  0  0  0  0  0  0  0  0  0
  1  2  1  0
  3  2  1  0
  4  3  1  0
  5  6  1  6
  5  4  1  0
  7  5  1  0
  8  7  2  0
 10  9  1  0
 10 11  1  0
 11 12  1  0
 13 12  1  6
 13 14  1  0
 14  7  1  0
 15 13  1  0
 15 16  2  0
 17 15  1  0
 18 19  1  1
 18 17  1  0
 20 21  2  0
 20 19  1  0
 22 21  1  0
 23 22  2  0
 24 23  1  0
 24 25  2  0
 25 20  1  0
 26 18  1  0
 27 26  2  0
 28 26  1  0
M  END
$$$$
