QRT.pdb
     RDKit          3D

 28 27  0  0  1  0  0  0  0  0999 V2000
   20.2594  -18.4890  -14.0982 N   0  0  0  0  0  0  0  0  0  0  0  0
   19.5813  -18.2006  -15.3040 C   0  0  0  0  0  0  0  0  0  0  0  0
   18.3346  -18.2361  -15.2953 O   0  0  0  0  0  0  0  0  0  0  0  0
   20.3297  -17.8752  -16.5051 C   0  0  0  0  0  0  0  0  0  0  0  0
   21.7888  -17.6564  -16.3410 C   0  0  0  0  0  0  0  0  0  0  0  0
   22.6551  -18.6260  -17.1180 C   0  0  2  0  0  0  0  0  0  0  0  0
   21.8225  -19.4652  -17.9574 N   0  0  0  0  0  0  0  0  0  0  0  0
   23.4317  -19.4994  -16.2119 C   0  0  0  0  0  0  0  0  0  0  0  0
   22.9662  -20.5245  -15.6509 O   0  0  0  0  0  0  0  0  0  0  0  0
   30.0184  -23.3682  -17.0710 N   0  0  0  0  0  0  0  0  0  0  0  0
   28.7094  -23.6677  -16.5604 C   0  0  0  0  0  0  0  0  0  0  0  0
   28.1262  -24.7697  -16.8839 N   0  0  0  0  0  0  0  0  0  0  0  0
   28.1210  -22.7023  -15.7059 N   0  0  0  0  0  0  0  0  0  0  0  0
   28.8378  -21.4905  -15.3664 C   0  0  0  0  0  0  0  0  0  0  0  0
   28.0115  -20.5691  -14.4908 C   0  0  0  0  0  0  0  0  0  0  0  0
   27.1221  -19.6705  -15.3449 C   0  0  0  0  0  0  0  0  0  0  0  0
   25.6704  -19.9813  -15.1381 C   0  0  2  0  0  0  0  0  0  0  0  0
   24.7858  -19.1862  -15.9418 N   0  0  0  0  0  0  0  0  0  0  0  0
   25.3684  -19.7050  -13.7095 C   0  0  0  0  0  0  0  0  0  0  0  0
   25.2979  -18.5118  -13.3079 O   0  0  0  0  0  0  0  0  0  0  0  0
   27.1758  -24.9660  -16.5292 C   0  0  0  0  0  0  0  0  0  0  0  0
   22.5570  -19.7567  -11.8373 C   0  0  2  0  0  0  0  0  0  0  0  0
   23.4493  -20.6437  -11.0051 O   0  0  0  0  0  0  0  0  0  0  0  0
   23.1753  -21.9656  -11.3579 C   0  0  2  0  0  0  0  0  0  0  0  0
   24.8935  -20.3634  -11.3858 N   0  0  0  0  0  0  0  0  0  0  0  0
   25.1520  -20.7277  -12.7586 C   0  0  0  0  0  0  0  0  0  0  0  0
   25.8358  -21.0867  -10.5114 O   0  0  0  0  0  0  0  0  0  0  0  0
   26.6600  -21.9095  -10.9745 O   0  0  0  0  0  0  0  0  0  0  0  0
  1  2  1  0
  2  3  2  0
  4  5  1  0
  4  2  1  0
  5  6  1  0
  6  8  1  0
  6  7  1  6
  8  9  2  0
 11 13  1  0
 11 10  1  0
 12 11  2  0
 14 13  1  0
 15 14  1  0
 15 16  1  0
 17 16  1  6
 18 17  1  0
 18  8  1  0
 19 17  1  0
 20 19  2  0
 22 21  1  1
 22 24  1  0
 23 22  1  0
 24 25  1  1
 25 19  1  0
 26 24  1  0
 26 28  1  0
 27 26  2  0
M  END
$$$$
