QRT.pdb
     RDKit          3D

 28 27  0  0  1  0  0  0  0  0999 V2000
   21.2162  -20.4009  -19.9464 N   0  0  0  0  0  0  0  0  0  0  0  0
   20.1941  -19.5414  -20.4086 C   0  0  0  0  0  0  0  0  0  0  0  0
   19.3501  -20.0102  -21.1982 O   0  0  0  0  0  0  0  0  0  0  0  0
   20.1444  -18.1591  -19.9667 C   0  0  0  0  0  0  0  0  0  0  0  0
   21.1614  -17.7427  -18.9687 C   0  0  0  0  0  0  0  0  0  0  0  0
   20.7257  -17.9117  -17.5279 C   0  0  2  0  0  0  0  0  0  0  0  0
   19.8314  -16.8332  -17.1550 N   0  0  0  0  0  0  0  0  0  0  0  0
   21.8845  -17.8935  -16.6092 C   0  0  0  0  0  0  0  0  0  0  0  0
   22.5928  -16.8777  -16.3883 O   0  0  0  0  0  0  0  0  0  0  0  0
   26.4769  -21.5137  -10.5932 N   0  0  0  0  0  0  0  0  0  0  0  0
   25.4292  -20.9296   -9.8027 C   0  0  0  0  0  0  0  0  0  0  0  0
   25.5872  -20.7743   -8.5337 N   0  0  0  0  0  0  0  0  0  0  0  0
   24.2488  -20.5487  -10.4881 N   0  0  0  0  0  0  0  0  0  0  0  0
   23.8984  -21.1738  -11.7466 C   0  0  0  0  0  0  0  0  0  0  0  0
   24.2364  -20.2913  -12.9320 C   0  0  0  0  0  0  0  0  0  0  0  0
   23.0025  -20.0597  -13.7991 C   0  0  0  0  0  0  0  0  0  0  0  0
   23.3183  -19.1926  -14.9803 C   0  0  2  0  0  0  0  0  0  0  0  0
   22.2411  -19.0791  -15.9223 N   0  0  0  0  0  0  0  0  0  0  0  0
   24.4751  -19.8141  -15.6759 C   0  0  0  0  0  0  0  0  0  0  0  0
   24.3586  -20.9701  -16.1661 O   0  0  0  0  0  0  0  0  0  0  0  0
   24.8395  -20.3267   -7.9786 C   0  0  0  0  0  0  0  0  0  0  0  0
   28.3390  -18.0521  -15.8944 C   0  0  2  0  0  0  0  0  0  0  0  0
   27.8054  -18.8452  -17.0614 O   0  0  0  0  0  0  0  0  0  0  0  0
   28.8661  -19.5822  -17.5892 C   0  0  1  0  0  0  0  0  0  0  0  0
   26.7805  -19.8376  -16.5382 N   0  0  0  0  0  0  0  0  0  0  0  0
   25.7229  -19.1667  -15.8201 C   0  0  0  0  0  0  0  0  0  0  0  0
   27.3997  -20.8421  -15.6532 O   0  0  0  0  0  0  0  0  0  0  0  0
   27.2057  -20.8334  -14.4150 O   0  0  0  0  0  0  0  0  0  0  0  0
  1  2  1  0
  2  3  2  0
  4  5  1  0
  4  2  1  0
  5  6  1  0
  6  8  1  0
  6  7  1  1
  8  9  2  0
 11 13  1  0
 11 10  1  0
 12 11  2  0
 14 13  1  0
 15 14  1  0
 15 16  1  0
 17 16  1  1
 18 17  1  0
 18  8  1  0
 19 17  1  0
 20 19  2  0
 22 21  1  6
 22 24  1  0
 23 22  1  0
 24 25  1  6
 25 19  1  0
 26 24  1  0
 26 28  1  0
 27 26  2  0
M  END
$$$$
