QRT.pdb
     RDKit          3D

 28 27  0  0  1  0  0  0  0  0999 V2000
   16.6223  -12.3584  -19.2845 N   0  0  0  0  0  0  0  0  0  0  0  0
   15.4812  -12.7576  -18.5528 C   0  0  0  0  0  0  0  0  0  0  0  0
   14.5626  -13.3315  -19.1713 O   0  0  0  0  0  0  0  0  0  0  0  0
   15.3989  -12.4994  -17.1262 C   0  0  0  0  0  0  0  0  0  0  0  0
   16.5365  -11.7663  -16.5161 C   0  0  0  0  0  0  0  0  0  0  0  0
   17.6724  -12.6543  -16.0521 C   0  0  2  0  0  0  0  0  0  0  0  0
   17.2087  -13.5352  -14.9980 N   0  0  0  0  0  0  0  0  0  0  0  0
   18.8008  -11.8552  -15.5274 C   0  0  0  0  0  0  0  0  0  0  0  0
   18.7834  -11.2505  -14.4246 O   0  0  0  0  0  0  0  0  0  0  0  0
   27.5245  -12.1321  -16.8604 N   0  0  0  0  0  0  0  0  0  0  0  0
   27.3541  -10.7645  -16.4549 C   0  0  0  0  0  0  0  0  0  0  0  0
   28.3744   -9.9823  -16.3746 N   0  0  0  0  0  0  0  0  0  0  0  0
   26.0330  -10.3464  -16.1579 N   0  0  0  0  0  0  0  0  0  0  0  0
   24.8996  -11.1379  -16.5896 C   0  0  0  0  0  0  0  0  0  0  0  0
   23.5831  -10.5374  -16.1376 C   0  0  0  0  0  0  0  0  0  0  0  0
   22.4203  -11.4564  -16.5001 C   0  0  0  0  0  0  0  0  0  0  0  0
   21.1263  -10.9495  -15.9385 C   0  0  2  0  0  0  0  0  0  0  0  0
   19.9869  -11.7474  -16.2932 N   0  0  0  0  0  0  0  0  0  0  0  0
   20.9218   -9.5841  -16.4882 C   0  0  0  0  0  0  0  0  0  0  0  0
   21.0282   -9.3908  -17.7297 O   0  0  0  0  0  0  0  0  0  0  0  0
   28.2345   -8.9851  -16.1429 C   0  0  0  0  0  0  0  0  0  0  0  0
   18.0892   -7.6123  -16.9239 C   0  0  2  0  0  0  0  0  0  0  0  0
   18.9954   -6.6913  -16.1455 O   0  0  0  0  0  0  0  0  0  0  0  0
   18.6603   -6.8127  -14.7966 C   0  0  2  0  0  0  0  0  0  0  0  0
   20.4256   -7.1804  -16.3026 N   0  0  0  0  0  0  0  0  0  0  0  0
   20.6085   -8.4692  -15.6784 C   0  0  0  0  0  0  0  0  0  0  0  0
   21.3921   -6.2265  -15.7270 O   0  0  0  0  0  0  0  0  0  0  0  0
   22.1836   -6.5646  -14.8159 O   0  0  0  0  0  0  0  0  0  0  0  0
  1  2  1  0
  2  3  2  0
  4  5  1  0
  4  2  1  0
  5  6  1  0
  6  8  1  0
  6  7  1  1
  8  9  2  0
 11 13  1  0
 11 10  1  0
 12 11  2  0
 14 13  1  0
 15 14  1  0
 15 16  1  0
 17 16  1  6
 18 17  1  0
 18  8  1  0
 19 17  1  0
 20 19  2  0
 22 21  1  6
 22 24  1  0
 23 22  1  0
 24 25  1  6
 25 19  1  0
 26 24  1  0
 26 28  1  0
 27 26  2  0
M  END
$$$$
