QRT.pdb
     RDKit          3D

 28 27  0  0  1  0  0  0  0  0999 V2000
   24.7065  -24.6964  -19.2473 N   0  0  0  0  0  0  0  0  0  0  0  0
   26.0348  -25.1760  -19.2977 C   0  0  0  0  0  0  0  0  0  0  0  0
   26.4998  -25.4907  -20.4114 O   0  0  0  0  0  0  0  0  0  0  0  0
   26.8182  -25.2915  -18.0805 C   0  0  0  0  0  0  0  0  0  0  0  0
   26.1553  -24.8714  -16.8204 C   0  0  0  0  0  0  0  0  0  0  0  0
   26.1232  -23.3727  -16.6033 C   0  0  2  0  0  0  0  0  0  0  0  0
   27.4696  -22.8773  -16.3943 N   0  0  0  0  0  0  0  0  0  0  0  0
   25.3081  -23.0171  -15.4217 C   0  0  0  0  0  0  0  0  0  0  0  0
   25.7627  -22.9317  -14.2519 O   0  0  0  0  0  0  0  0  0  0  0  0
   23.3056  -16.6601  -17.1723 N   0  0  0  0  0  0  0  0  0  0  0  0
   22.1849  -17.2494  -17.8509 C   0  0  0  0  0  0  0  0  0  0  0  0
   21.7536  -16.7373  -18.9513 N   0  0  0  0  0  0  0  0  0  0  0  0
   21.6037  -18.3935  -17.2494 N   0  0  0  0  0  0  0  0  0  0  0  0
   22.0698  -18.8597  -15.9598 C   0  0  0  0  0  0  0  0  0  0  0  0
   22.3203  -20.3548  -15.9538 C   0  0  0  0  0  0  0  0  0  0  0  0
   22.7957  -20.8147  -14.5788 C   0  0  0  0  0  0  0  0  0  0  0  0
   23.0464  -22.2923  -14.5522 C   0  0  2  0  0  0  0  0  0  0  0  0
   23.9276  -22.7508  -15.5884 N   0  0  0  0  0  0  0  0  0  0  0  0
   21.7307  -22.9575  -14.7386 C   0  0  0  0  0  0  0  0  0  0  0  0
   21.1657  -22.9145  -15.8651 O   0  0  0  0  0  0  0  0  0  0  0  0
   20.8762  -17.0902  -19.3676 C   0  0  0  0  0  0  0  0  0  0  0  0
   21.0530  -26.5451  -13.9098 C   0  0  2  0  0  0  0  0  0  0  0  0
   19.8892  -25.7643  -13.3519 O   0  0  0  0  0  0  0  0  0  0  0  0
   20.1285  -25.5668  -11.9916 C   0  0  2  0  0  0  0  0  0  0  0  0
   19.8699  -24.3955  -14.0117 N   0  0  0  0  0  0  0  0  0  0  0  0
   21.0658  -23.6489  -13.7008 C   0  0  0  0  0  0  0  0  0  0  0  0
   18.6921  -23.6098  -13.5981 O   0  0  0  0  0  0  0  0  0  0  0  0
   18.8117  -22.5087  -13.0115 O   0  0  0  0  0  0  0  0  0  0  0  0
  1  2  1  0
  2  3  2  0
  4  5  1  0
  4  2  1  0
  5  6  1  0
  6  8  1  0
  6  7  1  1
  8  9  2  0
 11 13  1  0
 11 10  1  0
 12 11  2  0
 14 13  1  0
 15 14  1  0
 15 16  1  0
 17 16  1  6
 18 17  1  0
 18  8  1  0
 19 17  1  0
 20 19  2  0
 22 21  1  1
 22 24  1  0
 23 22  1  0
 24 25  1  6
 25 19  1  0
 26 24  1  0
 26 28  1  0
 27 26  2  0
M  END
$$$$
