QRT.pdb
     RDKit          3D

 28 27  0  0  1  0  0  0  0  0999 V2000
   27.2920  -21.8037  -15.4596 N   0  0  0  0  0  0  0  0  0  0  0  0
   26.4562  -20.6648  -15.4941 C   0  0  0  0  0  0  0  0  0  0  0  0
   26.9575  -19.5637  -15.1909 O   0  0  0  0  0  0  0  0  0  0  0  0
   25.0602  -20.7922  -15.8733 C   0  0  0  0  0  0  0  0  0  0  0  0
   24.0552  -20.4681  -14.8300 C   0  0  0  0  0  0  0  0  0  0  0  0
   23.3997  -21.6792  -14.1993 C   0  0  2  0  0  0  0  0  0  0  0  0
   22.6720  -22.4252  -15.2074 N   0  0  0  0  0  0  0  0  0  0  0  0
   22.4499  -21.2852  -13.1365 C   0  0  0  0  0  0  0  0  0  0  0  0
   22.7512  -20.5554  -12.1572 O   0  0  0  0  0  0  0  0  0  0  0  0
   19.2273  -18.6147  -16.8960 N   0  0  0  0  0  0  0  0  0  0  0  0
   17.9554  -19.1996  -16.5739 C   0  0  0  0  0  0  0  0  0  0  0  0
   17.1941  -19.6477  -17.5115 N   0  0  0  0  0  0  0  0  0  0  0  0
   17.6043  -19.2489  -15.2018 N   0  0  0  0  0  0  0  0  0  0  0  0
   18.4010  -18.5481  -14.2161 C   0  0  0  0  0  0  0  0  0  0  0  0
   19.5284  -19.4091  -13.6816 C   0  0  0  0  0  0  0  0  0  0  0  0
   18.9751  -20.5723  -12.8637 C   0  0  0  0  0  0  0  0  0  0  0  0
   20.0770  -21.3956  -12.2679 C   0  0  2  0  0  0  0  0  0  0  0  0
   21.1117  -21.7432  -13.2003 N   0  0  0  0  0  0  0  0  0  0  0  0
   19.4588  -22.6540  -11.7755 C   0  0  0  0  0  0  0  0  0  0  0  0
   19.2598  -23.6054  -12.5789 O   0  0  0  0  0  0  0  0  0  0  0  0
   16.2708  -20.0446  -17.2716 C   0  0  0  0  0  0  0  0  0  0  0  0
   18.4672  -23.3409   -7.7011 C   0  0  2  0  0  0  0  0  0  0  0  0
   18.9568  -24.4553   -8.5921 O   0  0  0  0  0  0  0  0  0  0  0  0
   18.2767  -25.6169   -8.2251 C   0  0  1  0  0  0  0  0  0  0  0  0
   18.5625  -24.1328  -10.0238 N   0  0  0  0  0  0  0  0  0  0  0  0
   19.0743  -22.8452  -10.4292 C   0  0  0  0  0  0  0  0  0  0  0  0
   17.0981  -24.1446  -10.1996 O   0  0  0  0  0  0  0  0  0  0  0  0
   16.4594  -23.0955  -10.4493 O   0  0  0  0  0  0  0  0  0  0  0  0
  1  2  1  0
  2  3  2  0
  4  5  1  0
  4  2  1  0
  5  6  1  0
  6  8  1  0
  6  7  1  6
  8  9  2  0
 11 13  1  0
 11 10  1  0
 12 11  2  0
 14 13  1  0
 15 14  1  0
 15 16  1  0
 17 16  1  6
 18 17  1  0
 18  8  1  0
 19 17  1  0
 20 19  2  0
 22 21  1  1
 22 24  1  0
 23 22  1  0
 24 25  1  1
 25 19  1  0
 26 24  1  0
 26 28  1  0
 27 26  2  0
M  END
$$$$
