QRT.pdb
     RDKit          3D

 28 27  0  0  1  0  0  0  0  0999 V2000
   28.0552  -17.8324  -16.6252 N   0  0  0  0  0  0  0  0  0  0  0  0
   28.5923  -18.2984  -17.8464 C   0  0  0  0  0  0  0  0  0  0  0  0
   29.5696  -17.6886  -18.3246 O   0  0  0  0  0  0  0  0  0  0  0  0
   28.0112  -19.4527  -18.5088 C   0  0  0  0  0  0  0  0  0  0  0  0
   26.9531  -20.1829  -17.7666 C   0  0  0  0  0  0  0  0  0  0  0  0
   27.4559  -20.9565  -16.5654 C   0  0  2  0  0  0  0  0  0  0  0  0
   28.1875  -22.1280  -17.0063 N   0  0  0  0  0  0  0  0  0  0  0  0
   26.3382  -21.4025  -15.7058 C   0  0  0  0  0  0  0  0  0  0  0  0
   25.5203  -22.3036  -16.0244 O   0  0  0  0  0  0  0  0  0  0  0  0
   24.2017  -19.8996   -9.9306 N   0  0  0  0  0  0  0  0  0  0  0  0
   24.7552  -20.7986   -8.9563 C   0  0  0  0  0  0  0  0  0  0  0  0
   24.0303  -21.2158   -7.9766 N   0  0  0  0  0  0  0  0  0  0  0  0
   26.1071  -21.1831   -9.1376 N   0  0  0  0  0  0  0  0  0  0  0  0
   26.9268  -20.5301  -10.1372 C   0  0  0  0  0  0  0  0  0  0  0  0
   26.7077  -21.1128  -11.5195 C   0  0  0  0  0  0  0  0  0  0  0  0
   25.3904  -20.6177  -12.1091 C   0  0  0  0  0  0  0  0  0  0  0  0
   25.1589  -21.1788  -13.4796 C   0  0  2  0  0  0  0  0  0  0  0  0
   26.1539  -20.7949  -14.4403 N   0  0  0  0  0  0  0  0  0  0  0  0
   23.8461  -20.6594  -13.9433 C   0  0  0  0  0  0  0  0  0  0  0  0
   23.7159  -19.4300  -14.1917 O   0  0  0  0  0  0  0  0  0  0  0  0
   24.4344  -21.8707   -7.2871 C   0  0  0  0  0  0  0  0  0  0  0  0
   20.8615  -23.0595  -15.6536 C   0  0  2  0  0  0  0  0  0  0  0  0
   21.0894  -21.5979  -15.9490 O   0  0  0  0  0  0  0  0  0  0  0  0
   19.8659  -21.0516  -16.3380 C   0  0  1  0  0  0  0  0  0  0  0  0
   21.5045  -20.9073  -14.6606 N   0  0  0  0  0  0  0  0  0  0  0  0
   22.7138  -21.4854  -14.1243 C   0  0  0  0  0  0  0  0  0  0  0  0
   20.4432  -20.9804  -13.6389 O   0  0  0  0  0  0  0  0  0  0  0  0
   20.6269  -21.5604  -12.5431 O   0  0  0  0  0  0  0  0  0  0  0  0
  1  2  1  0
  2  3  2  0
  4  5  1  0
  4  2  1  0
  5  6  1  0
  6  8  1  0
  6  7  1  6
  8  9  2  0
 11 13  1  0
 11 10  1  0
 12 11  2  0
 14 13  1  0
 15 14  1  0
 15 16  1  0
 17 16  1  1
 18 17  1  0
 18  8  1  0
 19 17  1  0
 20 19  2  0
 22 21  1  6
 22 24  1  0
 23 22  1  0
 24 25  1  6
 25 19  1  0
 26 24  1  0
 26 28  1  0
 27 26  2  0
M  END
$$$$
