QRT.pdb
     RDKit          3D

 28 27  0  0  1  0  0  0  0  0999 V2000
   21.9625  -30.8627  -14.1103 N   0  0  0  0  0  0  0  0  0  0  0  0
   22.2307  -29.5571  -14.5797 C   0  0  0  0  0  0  0  0  0  0  0  0
   23.3132  -29.3588  -15.1666 O   0  0  0  0  0  0  0  0  0  0  0  0
   21.2640  -28.4928  -14.3761 C   0  0  0  0  0  0  0  0  0  0  0  0
   19.9846  -28.8716  -13.7256 C   0  0  0  0  0  0  0  0  0  0  0  0
   20.0726  -29.0261  -12.2214 C   0  0  2  0  0  0  0  0  0  0  0  0
   19.9246  -30.4227  -11.8612 N   0  0  0  0  0  0  0  0  0  0  0  0
   19.0121  -28.2547  -11.5378 C   0  0  0  0  0  0  0  0  0  0  0  0
   17.7902  -28.5515  -11.5740 O   0  0  0  0  0  0  0  0  0  0  0  0
   16.2992  -24.8376   -5.1455 N   0  0  0  0  0  0  0  0  0  0  0  0
   17.4847  -25.6328   -4.9836 C   0  0  0  0  0  0  0  0  0  0  0  0
   17.5132  -26.5801   -4.1112 N   0  0  0  0  0  0  0  0  0  0  0  0
   18.5849  -25.3163   -5.8190 N   0  0  0  0  0  0  0  0  0  0  0  0
   18.4703  -24.2738   -6.8177 C   0  0  0  0  0  0  0  0  0  0  0  0
   17.9308  -24.8038   -8.1316 C   0  0  0  0  0  0  0  0  0  0  0  0
   18.9361  -25.7484   -8.7836 C   0  0  0  0  0  0  0  0  0  0  0  0
   18.4375  -26.2515  -10.1047 C   0  0  2  0  0  0  0  0  0  0  0  0
   19.3657  -27.1065  -10.7887 N   0  0  0  0  0  0  0  0  0  0  0  0
   18.1947  -25.0591  -10.9576 C   0  0  0  0  0  0  0  0  0  0  0  0
   19.1576  -24.3021  -11.2575 O   0  0  0  0  0  0  0  0  0  0  0  0
   16.6625  -26.7959   -3.5660 C   0  0  0  0  0  0  0  0  0  0  0  0
   16.9438  -24.8014  -14.4611 C   0  0  2  0  0  0  0  0  0  0  0  0
   16.0421  -23.9447  -13.6076 O   0  0  0  0  0  0  0  0  0  0  0  0
   14.9470  -24.7258  -13.2370 C   0  0  2  0  0  0  0  0  0  0  0  0
   16.7898  -23.5806  -12.3357 N   0  0  0  0  0  0  0  0  0  0  0  0
   16.9179  -24.7214  -11.4603 C   0  0  0  0  0  0  0  0  0  0  0  0
   16.1198  -22.4880  -11.6058 O   0  0  0  0  0  0  0  0  0  0  0  0
   15.6683  -22.6531  -10.4483 O   0  0  0  0  0  0  0  0  0  0  0  0
  1  2  1  0
  2  3  2  0
  4  5  1  0
  4  2  1  0
  5  6  1  0
  6  8  1  0
  6  7  1  6
  8  9  2  0
 11 13  1  0
 11 10  1  0
 12 11  2  0
 14 13  1  0
 15 14  1  0
 15 16  1  0
 17 16  1  1
 18 17  1  0
 18  8  1  0
 19 17  1  0
 20 19  2  0
 22 21  1  6
 22 24  1  0
 23 22  1  0
 24 25  1  6
 25 19  1  0
 26 24  1  0
 26 28  1  0
 27 26  2  0
M  END
$$$$
