QRT.pdb
     RDKit          3D

 28 27  0  0  1  0  0  0  0  0999 V2000
   17.2819  -22.6814  -16.0532 N   0  0  0  0  0  0  0  0  0  0  0  0
   16.1343  -22.2607  -15.3440 C   0  0  0  0  0  0  0  0  0  0  0  0
   15.1246  -22.9921  -15.3811 O   0  0  0  0  0  0  0  0  0  0  0  0
   16.1492  -21.0132  -14.6009 C   0  0  0  0  0  0  0  0  0  0  0  0
   17.4048  -20.2229  -14.6529 C   0  0  0  0  0  0  0  0  0  0  0  0
   18.5538  -20.8274  -13.8728 C   0  0  2  0  0  0  0  0  0  0  0  0
   18.2745  -20.7561  -12.4518 N   0  0  0  0  0  0  0  0  0  0  0  0
   19.8195  -20.1087  -14.1346 C   0  0  0  0  0  0  0  0  0  0  0  0
   20.1245  -19.0056  -13.6125 O   0  0  0  0  0  0  0  0  0  0  0  0
   27.3937  -23.5592  -16.4155 N   0  0  0  0  0  0  0  0  0  0  0  0
   26.3160  -23.3433  -17.3405 C   0  0  0  0  0  0  0  0  0  0  0  0
   26.2205  -24.0671  -18.4018 N   0  0  0  0  0  0  0  0  0  0  0  0
   25.3953  -22.3148  -17.0195 N   0  0  0  0  0  0  0  0  0  0  0  0
   25.5872  -21.5031  -15.8355 C   0  0  0  0  0  0  0  0  0  0  0  0
   24.4983  -20.4598  -15.6804 C   0  0  0  0  0  0  0  0  0  0  0  0
   23.1441  -21.1256  -15.4543 C   0  0  0  0  0  0  0  0  0  0  0  0
   22.0489  -20.1099  -15.3290 C   0  0  2  0  0  0  0  0  0  0  0  0
   20.7650  -20.6747  -15.0236 N   0  0  0  0  0  0  0  0  0  0  0  0
   21.9480  -19.4188  -16.6407 C   0  0  0  0  0  0  0  0  0  0  0  0
   21.4208  -20.0146  -17.6190 O   0  0  0  0  0  0  0  0  0  0  0  0
   25.4812  -23.8613  -19.0936 C   0  0  0  0  0  0  0  0  0  0  0  0
   20.3419  -16.0606  -17.5711 C   0  0  2  0  0  0  0  0  0  0  0  0
   21.7784  -16.0589  -18.0315 O   0  0  0  0  0  0  0  0  0  0  0  0
   22.5407  -15.4591  -17.0286 C   0  0  2  0  0  0  0  0  0  0  0  0
   22.2444  -17.5001  -18.1538 N   0  0  0  0  0  0  0  0  0  0  0  0
   22.4204  -18.1042  -16.8545 C   0  0  0  0  0  0  0  0  0  0  0  0
   23.5096  -17.5999  -18.9052 O   0  0  0  0  0  0  0  0  0  0  0  0
   24.5537  -18.0464  -18.3748 O   0  0  0  0  0  0  0  0  0  0  0  0
  1  2  1  0
  2  3  2  0
  4  5  1  0
  4  2  1  0
  5  6  1  0
  6  8  1  0
  6  7  1  1
  8  9  2  0
 11 13  1  0
 11 10  1  0
 12 11  2  0
 14 13  1  0
 15 14  1  0
 15 16  1  0
 17 16  1  6
 18 17  1  0
 18  8  1  0
 19 17  1  0
 20 19  2  0
 22 21  1  6
 22 24  1  0
 23 22  1  0
 24 25  1  6
 25 19  1  0
 26 24  1  0
 26 28  1  0
 27 26  2  0
M  END
$$$$
