QRT.pdb
     RDKit          3D

 28 27  0  0  1  0  0  0  0  0999 V2000
   14.7909  -15.5940  -12.7601 N   0  0  0  0  0  0  0  0  0  0  0  0
   14.8755  -16.4198  -13.9037 C   0  0  0  0  0  0  0  0  0  0  0  0
   14.1305  -17.4186  -13.9587 O   0  0  0  0  0  0  0  0  0  0  0  0
   15.8065  -16.0992  -14.9710 C   0  0  0  0  0  0  0  0  0  0  0  0
   16.5287  -14.8072  -14.8582 C   0  0  0  0  0  0  0  0  0  0  0  0
   17.4153  -14.4839  -16.0429 C   0  0  2  0  0  0  0  0  0  0  0  0
   18.5830  -15.3433  -16.0320 N   0  0  0  0  0  0  0  0  0  0  0  0
   17.8725  -13.0779  -16.0055 C   0  0  0  0  0  0  0  0  0  0  0  0
   19.0409  -12.7247  -15.7015 O   0  0  0  0  0  0  0  0  0  0  0  0
   16.1552   -6.5360  -21.2141 N   0  0  0  0  0  0  0  0  0  0  0  0
   16.7231   -7.8556  -21.2129 C   0  0  0  0  0  0  0  0  0  0  0  0
   16.8817   -8.4919  -22.3216 N   0  0  0  0  0  0  0  0  0  0  0  0
   17.0848   -8.3939  -19.9529 N   0  0  0  0  0  0  0  0  0  0  0  0
   16.7108   -7.7129  -18.7306 C   0  0  0  0  0  0  0  0  0  0  0  0
   17.2121   -8.4413  -17.4992 C   0  0  0  0  0  0  0  0  0  0  0  0
   16.8277   -9.9169  -17.5536 C   0  0  0  0  0  0  0  0  0  0  0  0
   17.2653  -10.6425  -16.3172 C   0  0  2  0  0  0  0  0  0  0  0  0
   16.9593  -12.0450  -16.3276 N   0  0  0  0  0  0  0  0  0  0  0  0
   16.5458  -10.0224  -15.1744 C   0  0  0  0  0  0  0  0  0  0  0  0
   15.2963  -10.1615  -15.0765 O   0  0  0  0  0  0  0  0  0  0  0  0
   17.2807   -9.4449  -22.3091 C   0  0  0  0  0  0  0  0  0  0  0  0
   16.5262  -10.8234  -11.7684 C   0  0  2  0  0  0  0  0  0  0  0  0
   16.8619   -9.3529  -11.7513 O   0  0  0  0  0  0  0  0  0  0  0  0
   18.2508   -9.2393  -11.6816 C   0  0  2  0  0  0  0  0  0  0  0  0
   16.4237   -8.7456  -13.0736 N   0  0  0  0  0  0  0  0  0  0  0  0
   17.1994   -9.2706  -14.1721 C   0  0  0  0  0  0  0  0  0  0  0  0
   16.5418   -7.2754  -13.0617 O   0  0  0  0  0  0  0  0  0  0  0  0
   15.8599   -6.5693  -12.2824 O   0  0  0  0  0  0  0  0  0  0  0  0
  1  2  1  0
  2  3  2  0
  4  5  1  0
  4  2  1  0
  5  6  1  0
  6  8  1  0
  6  7  1  1
  8  9  2  0
 11 13  1  0
 11 10  1  0
 12 11  2  0
 14 13  1  0
 15 14  1  0
 15 16  1  0
 17 16  1  6
 18 17  1  0
 18  8  1  0
 19 17  1  0
 20 19  2  0
 22 21  1  1
 22 24  1  0
 23 22  1  0
 24 25  1  1
 25 19  1  0
 26 24  1  0
 26 28  1  0
 27 26  2  0
M  END
$$$$
