SLD.pdb
     RDKit          3D

 23 22  0  0  1  0  0  0  0  0999 V2000
    9.2967  -20.2725   17.9871 O   0  0  0  0  0  0  0  0  0  0  0  0
    8.1609  -19.6435   18.4393 C   0  0  0  0  0  0  0  0  0  0  0  0
    8.0321  -18.2260   17.8717 C   0  0  2  0  0  0  0  0  0  0  0  0
    8.4577  -18.2922   16.4853 N   0  0  0  0  0  0  0  0  0  0  0  0
    8.8932  -17.2788   18.6178 C   0  0  0  0  0  0  0  0  0  0  0  0
   10.0754  -17.0030   18.2603 O   0  0  0  0  0  0  0  0  0  0  0  0
    8.2531  -12.7576   19.9436 C   0  0  0  0  0  0  0  0  0  0  0  0
    7.4902  -13.8570   20.6199 C   0  0  2  0  0  0  0  0  0  0  0  0
    6.5387  -13.2054   21.6038 C   0  0  0  0  0  0  0  0  0  0  0  0
    8.3663  -14.7941   21.3970 C   0  0  0  0  0  0  0  0  0  0  0  0
    9.2325  -15.6627   20.5014 C   0  0  2  0  0  0  0  0  0  0  0  0
    8.4023  -16.6359   19.7871 N   0  0  0  0  0  0  0  0  0  0  0  0
   10.1545  -16.4315   21.4032 C   0  0  0  0  0  0  0  0  0  0  0  0
    9.7957  -17.5183   21.9227 O   0  0  0  0  0  0  0  0  0  0  0  0
   11.4605  -15.9646   21.7023 N   0  0  0  0  0  0  0  0  0  0  0  0
   12.3771  -16.7176   22.5175 C   0  0  1  0  0  0  0  0  0  0  0  0
   13.8120  -16.3170   22.2700 C   0  0  0  0  0  0  0  0  0  0  0  0
   14.7779  -17.0868   23.0675 C   0  0  0  0  0  0  0  0  0  0  0  0
   15.3040  -16.5984   24.0906 O   0  0  0  0  0  0  0  0  0  0  0  0
   12.0140  -16.6350   23.9693 C   0  0  0  0  0  0  0  0  0  0  0  0
   12.5862  -17.3470   24.8140 O   0  0  0  0  0  0  0  0  0  0  0  0
   15.1230  -18.3735   22.6958 O   0  0  0  0  0  0  0  0  0  0  0  0
   11.0350  -15.7702   24.4245 O   0  0  0  0  0  0  0  0  0  0  0  0
  2  1  1  0
  3  4  1  6
  3  2  1  0
  5  3  1  0
  6  5  2  0
  8  7  1  1
  8 10  1  0
  9  8  1  0
 11 10  1  1
 11 13  1  0
 11 12  1  0
 12  5  1  0
 13 15  1  0
 14 13  2  0
 15 16  1  0
 16 17  1  1
 16 20  1  0
 18 17  1  0
 19 18  2  0
 20 21  2  0
 20 23  1  0
 22 18  1  0
M  END
$$$$
