SLD.pdb
     RDKit          3D

 23 22  0  0  1  0  0  0  0  0999 V2000
    8.3954  -17.9816   20.1044 O   0  0  0  0  0  0  0  0  0  0  0  0
    7.5900  -17.2162   20.9141 C   0  0  0  0  0  0  0  0  0  0  0  0
    7.8596  -15.7188   20.7317 C   0  0  2  0  0  0  0  0  0  0  0  0
    8.8212  -15.5973   19.6509 N   0  0  0  0  0  0  0  0  0  0  0  0
    8.4179  -15.1286   21.9708 C   0  0  0  0  0  0  0  0  0  0  0  0
    9.6610  -14.9863   22.1599 O   0  0  0  0  0  0  0  0  0  0  0  0
    6.4339  -12.5467   27.3287 C   0  0  0  0  0  0  0  0  0  0  0  0
    7.5174  -13.0751   26.4372 C   0  0  2  0  0  0  0  0  0  0  0  0
    8.4337  -11.9139   26.1054 C   0  0  0  0  0  0  0  0  0  0  0  0
    7.0016  -13.6239   25.1401 C   0  0  0  0  0  0  0  0  0  0  0  0
    8.0954  -14.2549   24.2962 C   0  0  2  0  0  0  0  0  0  0  0  0
    7.5496  -14.6940   23.0093 N   0  0  0  0  0  0  0  0  0  0  0  0
    8.5586  -15.4793   25.0314 C   0  0  0  0  0  0  0  0  0  0  0  0
    7.7649  -16.4189   25.2906 O   0  0  0  0  0  0  0  0  0  0  0  0
    9.9034  -15.6240   25.4597 N   0  0  0  0  0  0  0  0  0  0  0  0
   10.3645  -16.7937   26.1605 C   0  0  1  0  0  0  0  0  0  0  0  0
   11.7630  -17.1848   25.7459 C   0  0  0  0  0  0  0  0  0  0  0  0
   11.8859  -17.4726   24.3093 C   0  0  0  0  0  0  0  0  0  0  0  0
   11.0647  -18.2138   23.7275 O   0  0  0  0  0  0  0  0  0  0  0  0
   10.2459  -16.6252   27.6451 C   0  0  0  0  0  0  0  0  0  0  0  0
    9.9352  -15.5277   28.1420 O   0  0  0  0  0  0  0  0  0  0  0  0
   12.9200  -16.9241   23.5726 O   0  0  0  0  0  0  0  0  0  0  0  0
   10.4756  -17.6754   28.5155 O   0  0  0  0  0  0  0  0  0  0  0  0
  2  1  1  0
  3  4  1  6
  3  2  1  0
  5  3  1  0
  6  5  2  0
  8  7  1  1
  8 10  1  0
  9  8  1  0
 11 10  1  1
 11 13  1  0
 11 12  1  0
 12  5  1  0
 13 15  1  0
 14 13  2  0
 15 16  1  0
 16 17  1  1
 16 20  1  0
 18 17  1  0
 19 18  2  0
 20 21  2  0
 20 23  1  0
 22 18  1  0
M  END
$$$$
