SLD.pdb
     RDKit          3D

 23 22  0  0  1  0  0  0  0  0999 V2000
    8.0192  -17.3601   21.4493 O   0  0  0  0  0  0  0  0  0  0  0  0
    6.8049  -16.7204   21.3708 C   0  0  0  0  0  0  0  0  0  0  0  0
    6.9628  -15.1964   21.3960 C   0  0  2  0  0  0  0  0  0  0  0  0
    7.5714  -14.8198   20.1330 N   0  0  0  0  0  0  0  0  0  0  0  0
    7.8323  -14.7747   22.5191 C   0  0  0  0  0  0  0  0  0  0  0  0
    9.0508  -14.4708   22.3632 O   0  0  0  0  0  0  0  0  0  0  0  0
    7.4083  -11.4657   25.4458 C   0  0  0  0  0  0  0  0  0  0  0  0
    6.5706  -12.6642   25.7773 C   0  0  2  0  0  0  0  0  0  0  0  0
    5.7284  -12.3046   26.9853 C   0  0  0  0  0  0  0  0  0  0  0  0
    7.3827  -13.8719   26.1403 C   0  0  0  0  0  0  0  0  0  0  0  0
    8.1911  -14.4059   24.9707 C   0  0  2  0  0  0  0  0  0  0  0  0
    7.3081  -14.6974   23.8385 N   0  0  0  0  0  0  0  0  0  0  0  0
    8.7951  -15.7055   25.4184 C   0  0  0  0  0  0  0  0  0  0  0  0
    8.0823  -16.7265   25.5902 O   0  0  0  0  0  0  0  0  0  0  0  0
   10.1869  -15.8324   25.6631 N   0  0  0  0  0  0  0  0  0  0  0  0
   10.7624  -17.0271   26.2226 C   0  0  1  0  0  0  0  0  0  0  0  0
   12.1660  -17.2663   25.7191 C   0  0  0  0  0  0  0  0  0  0  0  0
   12.2683  -17.2571   24.2524 C   0  0  0  0  0  0  0  0  0  0  0  0
   11.4556  -17.8907   23.5452 O   0  0  0  0  0  0  0  0  0  0  0  0
   10.6976  -17.0169   27.7200 C   0  0  0  0  0  0  0  0  0  0  0  0
   10.2589  -16.0285   28.3352 O   0  0  0  0  0  0  0  0  0  0  0  0
   13.2733  -16.5422   23.6265 O   0  0  0  0  0  0  0  0  0  0  0  0
   11.1202  -18.0982   28.4722 O   0  0  0  0  0  0  0  0  0  0  0  0
  2  1  1  0
  3  4  1  6
  3  2  1  0
  5  3  1  0
  6  5  2  0
  8  7  1  1
  8 10  1  0
  9  8  1  0
 11 10  1  1
 11 13  1  0
 11 12  1  0
 12  5  1  0
 13 15  1  0
 14 13  2  0
 15 16  1  0
 16 17  1  1
 16 20  1  0
 18 17  1  0
 19 18  2  0
 20 21  2  0
 20 23  1  0
 22 18  1  0
M  END
$$$$
