SLD.pdb
     RDKit          3D

 23 22  0  0  1  0  0  0  0  0999 V2000
    8.2547  -17.2621   21.8058 O   0  0  0  0  0  0  0  0  0  0  0  0
    7.0478  -16.6666   21.5254 C   0  0  0  0  0  0  0  0  0  0  0  0
    7.1777  -15.1439   21.4134 C   0  0  2  0  0  0  0  0  0  0  0  0
    7.7933  -14.8719   20.1271 N   0  0  0  0  0  0  0  0  0  0  0  0
    8.0270  -14.6056   22.5016 C   0  0  0  0  0  0  0  0  0  0  0  0
    9.2043  -14.1853   22.3053 O   0  0  0  0  0  0  0  0  0  0  0  0
    7.3294  -11.1879   25.7139 C   0  0  0  0  0  0  0  0  0  0  0  0
    6.5897  -12.4832   25.8660 C   0  0  2  0  0  0  0  0  0  0  0  0
    5.6863  -12.3464   27.0756 C   0  0  0  0  0  0  0  0  0  0  0  0
    7.4928  -13.6553   26.1112 C   0  0  0  0  0  0  0  0  0  0  0  0
    8.3563  -13.9899   24.9073 C   0  0  2  0  0  0  0  0  0  0  0  0
    7.5296  -14.5443   23.8322 N   0  0  0  0  0  0  0  0  0  0  0  0
    9.3103  -15.0644   25.3430 C   0  0  0  0  0  0  0  0  0  0  0  0
    9.9791  -14.9475   26.4008 O   0  0  0  0  0  0  0  0  0  0  0  0
    9.4930  -16.2482   24.5826 N   0  0  0  0  0  0  0  0  0  0  0  0
   10.4813  -17.2367   24.9262 C   0  0  1  0  0  0  0  0  0  0  0  0
    9.9481  -18.6420   24.7792 C   0  0  0  0  0  0  0  0  0  0  0  0
   10.5729  -19.6016   25.7014 C   0  0  0  0  0  0  0  0  0  0  0  0
   11.4649  -19.2420   26.4996 O   0  0  0  0  0  0  0  0  0  0  0  0
   11.7499  -17.0342   24.1542 C   0  0  0  0  0  0  0  0  0  0  0  0
   11.7257  -16.6344   22.9762 O   0  0  0  0  0  0  0  0  0  0  0  0
   10.1812  -20.9281   25.7006 O   0  0  0  0  0  0  0  0  0  0  0  0
   12.9891  -17.2822   24.7165 O   0  0  0  0  0  0  0  0  0  0  0  0
  2  1  1  0
  3  4  1  6
  3  2  1  0
  5  3  1  0
  6  5  2  0
  8  7  1  1
  8 10  1  0
  9  8  1  0
 11 10  1  1
 11 13  1  0
 11 12  1  0
 12  5  1  0
 13 15  1  0
 14 13  2  0
 15 16  1  0
 16 17  1  6
 16 20  1  0
 18 17  1  0
 19 18  2  0
 20 21  2  0
 20 23  1  0
 22 18  1  0
M  END
$$$$
