SLD.pdb
     RDKit          3D

 23 22  0  0  1  0  0  0  0  0999 V2000
    7.1549  -17.7336   22.8773 O   0  0  0  0  0  0  0  0  0  0  0  0
    7.4298  -17.1428   21.6667 C   0  0  0  0  0  0  0  0  0  0  0  0
    7.2111  -15.6268   21.7115 C   0  0  2  0  0  0  0  0  0  0  0  0
    7.5589  -15.1167   20.3976 N   0  0  0  0  0  0  0  0  0  0  0  0
    8.0743  -14.9996   22.7395 C   0  0  0  0  0  0  0  0  0  0  0  0
    9.2711  -14.6579   22.5110 O   0  0  0  0  0  0  0  0  0  0  0  0
    7.1965  -11.2052   24.9960 C   0  0  0  0  0  0  0  0  0  0  0  0
    6.5174  -12.4178   25.5585 C   0  0  2  0  0  0  0  0  0  0  0  0
    5.6482  -11.9534   26.7104 C   0  0  0  0  0  0  0  0  0  0  0  0
    7.4766  -13.4346   26.1022 C   0  0  0  0  0  0  0  0  0  0  0  0
    8.3730  -14.0257   25.0280 C   0  0  2  0  0  0  0  0  0  0  0  0
    7.5685  -14.7573   24.0461 N   0  0  0  0  0  0  0  0  0  0  0  0
    9.2682  -15.0202   25.7091 C   0  0  0  0  0  0  0  0  0  0  0  0
    9.9524  -14.6960   26.7125 O   0  0  0  0  0  0  0  0  0  0  0  0
    9.3761  -16.3584   25.2503 N   0  0  0  0  0  0  0  0  0  0  0  0
   10.3623  -17.2705   25.7676 C   0  0  1  0  0  0  0  0  0  0  0  0
    9.8204  -18.6743   25.8947 C   0  0  0  0  0  0  0  0  0  0  0  0
   10.0143  -19.2550   27.2314 C   0  0  0  0  0  0  0  0  0  0  0  0
   10.6573  -18.6449   28.1126 O   0  0  0  0  0  0  0  0  0  0  0  0
   11.6249  -17.2271   24.9612 C   0  0  0  0  0  0  0  0  0  0  0  0
   12.7208  -17.5215   25.4713 O   0  0  0  0  0  0  0  0  0  0  0  0
    9.4849  -20.4954   27.5380 O   0  0  0  0  0  0  0  0  0  0  0  0
   11.6220  -16.8605   23.6274 O   0  0  0  0  0  0  0  0  0  0  0  0
  2  1  1  0
  3  4  1  6
  3  2  1  0
  5  3  1  0
  6  5  2  0
  8  7  1  1
  8 10  1  0
  9  8  1  0
 11 10  1  1
 11 13  1  0
 11 12  1  0
 12  5  1  0
 13 15  1  0
 14 13  2  0
 15 16  1  0
 16 17  1  6
 16 20  1  0
 18 17  1  0
 19 18  2  0
 20 21  2  0
 20 23  1  0
 22 18  1  0
M  END
$$$$
