SLD.pdb
     RDKit          3D

 23 22  0  0  1  0  0  0  0  0999 V2000
    9.4814  -18.2001   21.7700 O   0  0  0  0  0  0  0  0  0  0  0  0
    8.2866  -17.6188   21.4171 C   0  0  0  0  0  0  0  0  0  0  0  0
    8.4430  -16.1191   21.1442 C   0  0  2  0  0  0  0  0  0  0  0  0
    9.5025  -15.9828   20.1612 N   0  0  0  0  0  0  0  0  0  0  0  0
    8.8092  -15.3930   22.3827 C   0  0  0  0  0  0  0  0  0  0  0  0
   10.0083  -15.1368   22.6955 O   0  0  0  0  0  0  0  0  0  0  0  0
    5.9981  -12.4332   27.1419 C   0  0  0  0  0  0  0  0  0  0  0  0
    7.2201  -12.9717   26.4604 C   0  0  2  0  0  0  0  0  0  0  0  0
    8.1120  -11.7899   26.1351 C   0  0  0  0  0  0  0  0  0  0  0  0
    6.9174  -13.6735   25.1699 C   0  0  0  0  0  0  0  0  0  0  0  0
    8.1557  -14.2725   24.5257 C   0  0  2  0  0  0  0  0  0  0  0  0
    7.7967  -14.9517   23.2781 N   0  0  0  0  0  0  0  0  0  0  0  0
    8.6766  -15.3143   25.4731 C   0  0  0  0  0  0  0  0  0  0  0  0
    7.9838  -16.3178   25.7778 O   0  0  0  0  0  0  0  0  0  0  0  0
    9.9648  -15.2083   26.0581 N   0  0  0  0  0  0  0  0  0  0  0  0
   10.4864  -16.2079   26.9529 C   0  0  1  0  0  0  0  0  0  0  0  0
   11.9242  -16.5487   26.6413 C   0  0  0  0  0  0  0  0  0  0  0  0
   12.1566  -16.8525   25.2217 C   0  0  0  0  0  0  0  0  0  0  0  0
   11.5755  -17.8078   24.6631 O   0  0  0  0  0  0  0  0  0  0  0  0
   10.3019  -15.8099   28.3861 C   0  0  0  0  0  0  0  0  0  0  0  0
    9.9603  -14.6529   28.6904 O   0  0  0  0  0  0  0  0  0  0  0  0
   13.0287  -16.0808   24.4755 O   0  0  0  0  0  0  0  0  0  0  0  0
   10.5030  -16.7066   29.4201 O   0  0  0  0  0  0  0  0  0  0  0  0
  2  1  1  0
  3  4  1  6
  3  2  1  0
  5  3  1  0
  6  5  2  0
  8  7  1  6
  8 10  1  0
  9  8  1  0
 11 10  1  1
 11 13  1  0
 11 12  1  0
 12  5  1  0
 13 15  1  0
 14 13  2  0
 15 16  1  0
 16 17  1  6
 16 20  1  0
 18 17  1  0
 19 18  2  0
 20 21  2  0
 20 23  1  0
 22 18  1  0
M  END
$$$$
