SLD.pdb
     RDKit          3D

 23 22  0  0  1  0  0  0  0  0999 V2000
    8.8259  -19.7807   19.6000 O   0  0  0  0  0  0  0  0  0  0  0  0
    9.2399  -19.5623   18.3073 C   0  0  0  0  0  0  0  0  0  0  0  0
    8.9525  -18.1272   17.8534 C   0  0  2  0  0  0  0  0  0  0  0  0
    9.5449  -17.9804   16.5362 N   0  0  0  0  0  0  0  0  0  0  0  0
    9.5546  -17.1478   18.7880 C   0  0  0  0  0  0  0  0  0  0  0  0
   10.7754  -16.8185   18.7397 O   0  0  0  0  0  0  0  0  0  0  0  0
    8.5674  -12.7772   19.7057 C   0  0  0  0  0  0  0  0  0  0  0  0
    7.6370  -13.8075   20.2720 C   0  0  2  0  0  0  0  0  0  0  0  0
    6.4978  -13.0654   20.9426 C   0  0  0  0  0  0  0  0  0  0  0  0
    8.2791  -14.6772   21.3117 C   0  0  0  0  0  0  0  0  0  0  0  0
    9.3523  -15.5836   20.7341 C   0  0  2  0  0  0  0  0  0  0  0  0
    8.7562  -16.5340   19.7916 N   0  0  0  0  0  0  0  0  0  0  0  0
    9.9136  -16.3756   21.8795 C   0  0  0  0  0  0  0  0  0  0  0  0
    9.3153  -17.3886   22.3220 O   0  0  0  0  0  0  0  0  0  0  0  0
   11.1354  -16.0146   22.5038 N   0  0  0  0  0  0  0  0  0  0  0  0
   11.7027  -16.7812   23.5820 C   0  0  1  0  0  0  0  0  0  0  0  0
   13.1730  -16.4907   23.7678 C   0  0  0  0  0  0  0  0  0  0  0  0
   13.9348  -16.5131   22.5106 C   0  0  0  0  0  0  0  0  0  0  0  0
   13.8753  -17.4936   21.7378 O   0  0  0  0  0  0  0  0  0  0  0  0
   10.9291  -16.5955   24.8522 C   0  0  0  0  0  0  0  0  0  0  0  0
   10.0381  -15.7315   24.9387 O   0  0  0  0  0  0  0  0  0  0  0  0
   14.7363  -15.4418   22.1598 O   0  0  0  0  0  0  0  0  0  0  0  0
   11.1734  -17.3717   25.9708 O   0  0  0  0  0  0  0  0  0  0  0  0
  2  1  1  0
  3  4  1  6
  3  2  1  0
  5  3  1  0
  6  5  2  0
  8  7  1  1
  8 10  1  0
  9  8  1  0
 11 10  1  1
 11 13  1  0
 11 12  1  0
 12  5  1  0
 13 15  1  0
 14 13  2  0
 15 16  1  0
 16 17  1  1
 16 20  1  0
 18 17  1  0
 19 18  2  0
 20 21  2  0
 20 23  1  0
 22 18  1  0
M  END
$$$$
