VFT.pdb
     RDKit          3D

 26 26  0  0  1  0  0  0  0  0999 V2000
   32.5210  -22.9039   -9.9457 C   0  0  0  0  0  0  0  0  0  0  0  0
   31.1408  -22.7986   -9.3810 C   0  0  1  0  0  0  0  0  0  0  0  0
   31.0877  -22.4555   -7.9093 C   0  0  0  0  0  0  0  0  0  0  0  0
   30.1984  -21.9884  -10.1982 C   0  0  2  0  0  0  0  0  0  0  0  0
   30.7269  -20.6565  -10.3774 N   0  0  0  0  0  0  0  0  0  0  0  0
   28.8261  -21.8956   -9.6968 C   0  0  0  0  0  0  0  0  0  0  0  0
   28.0395  -22.8936   -9.5945 O   0  0  0  0  0  0  0  0  0  0  0  0
   28.3151  -20.6378   -9.2949 N   0  0  0  0  0  0  0  0  0  0  0  0
   26.9353  -20.3845   -8.9638 C   0  0  1  0  0  0  0  0  0  0  0  0
   26.6876  -19.4199   -7.8658 C   0  0  0  0  0  0  0  0  0  0  0  0
   27.5018  -19.7447   -6.6705 C   0  0  0  0  0  0  0  0  0  0  0  0
   27.0929  -20.7830   -5.8414 C   0  0  0  0  0  0  0  0  0  0  0  0
   27.8211  -21.1173   -4.7093 C   0  0  0  0  0  0  0  0  0  0  0  0
   28.9513  -20.3840   -4.4489 C   0  0  0  0  0  0  0  0  0  0  0  0
   29.3561  -19.3524   -5.2746 C   0  0  0  0  0  0  0  0  0  0  0  0
   28.6325  -19.0175   -6.4007 C   0  0  0  0  0  0  0  0  0  0  0  0
   26.1095  -20.1541  -10.1857 C   0  0  0  0  0  0  0  0  0  0  0  0
   26.3732  -19.1288  -10.8845 O   0  0  0  0  0  0  0  0  0  0  0  0
   25.9001  -21.6807  -13.4043 C   0  0  0  0  0  0  0  0  0  0  0  0
   24.4981  -21.7935  -12.8426 C   0  0  1  0  0  0  0  0  0  0  0  0
   24.3330  -23.0593  -12.2311 O   0  0  0  0  0  0  0  0  0  0  0  0
   24.2425  -20.7970  -11.7622 C   0  0  2  0  0  0  0  0  0  0  0  0
   25.0778  -20.9887  -10.6026 N   0  0  0  0  0  0  0  0  0  0  0  0
   22.7913  -20.9365  -11.4051 C   0  0  0  0  0  0  0  0  0  0  0  0
   22.3611  -21.3655  -10.1695 O   0  0  0  0  0  0  0  0  0  0  0  0
   21.9228  -20.6560  -12.2539 O   0  0  0  0  0  0  0  0  0  0  0  0
  2  4  1  0
  2  1  1  6
  3  2  1  0
  4  6  1  0
  4  5  1  1
  6  7  2  0
  8  9  1  0
  8  6  1  0
 10 11  1  0
  9 10  1  1
 11 12  2  0
 12 13  1  0
 14 13  2  0
 15 14  1  0
 16 15  2  0
 16 11  1  0
 17  9  1  0
 17 18  2  0
 20 19  1  1
 20 22  1  0
 21 20  1  0
 22 23  1  1
 22 24  1  0
 23 17  1  0
 24 25  1  0
 26 24  2  0
M  END
$$$$
