VFT.pdb
     RDKit          3D

 26 26  0  0  1  0  0  0  0  0999 V2000
   24.0626  -19.5426  -12.0364 C   0  0  0  0  0  0  0  0  0  0  0  0
   24.5594  -20.7902  -12.6934 C   0  0  1  0  0  0  0  0  0  0  0  0
   24.4356  -20.7997  -14.2004 C   0  0  0  0  0  0  0  0  0  0  0  0
   25.8922  -21.2501  -12.2195 C   0  0  2  0  0  0  0  0  0  0  0  0
   26.2221  -22.5127  -12.8380 N   0  0  0  0  0  0  0  0  0  0  0  0
   26.0546  -21.3702  -10.7696 C   0  0  0  0  0  0  0  0  0  0  0  0
   25.4688  -22.2535  -10.0612 O   0  0  0  0  0  0  0  0  0  0  0  0
   26.9049  -20.4670  -10.0869 N   0  0  0  0  0  0  0  0  0  0  0  0
   27.0983  -20.4480   -8.6586 C   0  0  1  0  0  0  0  0  0  0  0  0
   28.2930  -19.7223   -8.1652 C   0  0  0  0  0  0  0  0  0  0  0  0
   28.3305  -19.6922   -6.6837 C   0  0  0  0  0  0  0  0  0  0  0  0
   28.9054  -20.7605   -6.0048 C   0  0  0  0  0  0  0  0  0  0  0  0
   28.9567  -20.7769   -4.6189 C   0  0  0  0  0  0  0  0  0  0  0  0
   28.4200  -19.7016   -3.9566 C   0  0  0  0  0  0  0  0  0  0  0  0
   27.8493  -18.6406   -4.6335 C   0  0  0  0  0  0  0  0  0  0  0  0
   27.7961  -18.6228   -6.0122 C   0  0  0  0  0  0  0  0  0  0  0  0
   25.8342  -20.1188   -7.9365 C   0  0  0  0  0  0  0  0  0  0  0  0
   25.2186  -19.0661   -8.2860 O   0  0  0  0  0  0  0  0  0  0  0  0
   23.0146  -22.7919   -7.0489 C   0  0  0  0  0  0  0  0  0  0  0  0
   22.8762  -21.2871   -6.9481 C   0  0  1  0  0  0  0  0  0  0  0  0
   21.7447  -20.9670   -6.1602 O   0  0  0  0  0  0  0  0  0  0  0  0
   24.0347  -20.6607   -6.2474 C   0  0  2  0  0  0  0  0  0  0  0  0
   25.2933  -20.8898   -6.9128 N   0  0  0  0  0  0  0  0  0  0  0  0
   24.0470  -21.2440   -4.8644 C   0  0  0  0  0  0  0  0  0  0  0  0
   22.9794  -21.1472   -4.0004 O   0  0  0  0  0  0  0  0  0  0  0  0
   25.0619  -21.8463   -4.4636 O   0  0  0  0  0  0  0  0  0  0  0  0
  2  4  1  0
  2  1  1  6
  3  2  1  0
  4  6  1  0
  4  5  1  6
  6  7  2  0
  8  9  1  0
  8  6  1  0
 10 11  1  0
  9 10  1  6
 11 12  2  0
 12 13  1  0
 14 13  2  0
 15 14  1  0
 16 15  2  0
 16 11  1  0
 17  9  1  0
 17 18  2  0
 20 19  1  1
 20 22  1  0
 21 20  1  0
 22 23  1  6
 22 24  1  0
 23 17  1  0
 24 25  1  0
 26 24  2  0
M  END
$$$$
