VFT.pdb
     RDKit          3D

 26 26  0  0  1  0  0  0  0  0999 V2000
   31.0343  -19.8712  -12.4232 C   0  0  0  0  0  0  0  0  0  0  0  0
   29.7193  -20.3529  -11.8998 C   0  0  1  0  0  0  0  0  0  0  0  0
   28.8921  -21.1314  -12.8978 C   0  0  0  0  0  0  0  0  0  0  0  0
   29.7873  -21.0100  -10.5672 C   0  0  2  0  0  0  0  0  0  0  0  0
   30.5258  -22.2468  -10.6688 N   0  0  0  0  0  0  0  0  0  0  0  0
   28.5049  -21.2707   -9.9109 C   0  0  0  0  0  0  0  0  0  0  0  0
   27.9596  -22.4215   -9.8517 O   0  0  0  0  0  0  0  0  0  0  0  0
   27.8063  -20.2024   -9.2981 N   0  0  0  0  0  0  0  0  0  0  0  0
   26.4337  -20.2669   -8.8626 C   0  0  1  0  0  0  0  0  0  0  0  0
   26.1022  -19.5325   -7.6183 C   0  0  0  0  0  0  0  0  0  0  0  0
   27.0899  -19.8122   -6.5490 C   0  0  0  0  0  0  0  0  0  0  0  0
   28.0749  -18.8684   -6.2813 C   0  0  0  0  0  0  0  0  0  0  0  0
   29.0229  -19.0913   -5.2937 C   0  0  0  0  0  0  0  0  0  0  0  0
   28.9439  -20.2731   -4.6009 C   0  0  0  0  0  0  0  0  0  0  0  0
   27.9637  -21.2098   -4.8686 C   0  0  0  0  0  0  0  0  0  0  0  0
   27.0204  -20.9906   -5.8514 C   0  0  0  0  0  0  0  0  0  0  0  0
   25.4866  -20.0282   -9.9912 C   0  0  0  0  0  0  0  0  0  0  0  0
   25.4286  -18.8538  -10.4671 O   0  0  0  0  0  0  0  0  0  0  0  0
   25.4094  -21.5940  -13.4224 C   0  0  0  0  0  0  0  0  0  0  0  0
   24.0554  -21.8121  -12.7799 C   0  0  1  0  0  0  0  0  0  0  0  0
   24.0211  -23.0881  -12.1683 O   0  0  0  0  0  0  0  0  0  0  0  0
   23.7910  -20.8400  -11.6796 C   0  0  2  0  0  0  0  0  0  0  0  0
   24.6711  -21.0070  -10.5497 N   0  0  0  0  0  0  0  0  0  0  0  0
   22.3597  -21.0481  -11.2782 C   0  0  0  0  0  0  0  0  0  0  0  0
   21.3029  -20.8417  -12.1362 O   0  0  0  0  0  0  0  0  0  0  0  0
   22.0980  -21.4242  -10.1192 O   0  0  0  0  0  0  0  0  0  0  0  0
  2  4  1  0
  2  1  1  6
  3  2  1  0
  4  6  1  0
  4  5  1  6
  6  7  2  0
  8  9  1  0
  8  6  1  0
 10 11  1  0
  9 10  1  1
 11 12  2  0
 12 13  1  0
 14 13  2  0
 15 14  1  0
 16 15  2  0
 16 11  1  0
 17  9  1  0
 17 18  2  0
 20 19  1  1
 20 22  1  0
 21 20  1  0
 22 23  1  1
 22 24  1  0
 23 17  1  0
 24 25  1  0
 26 24  2  0
M  END
$$$$
