VFT.pdb
     RDKit          3D

 26 26  0  0  1  0  0  0  0  0999 V2000
   20.9905   -9.1551  -21.0063 C   0  0  0  0  0  0  0  0  0  0  0  0
   20.4126   -8.6869  -19.7095 C   0  0  1  0  0  0  0  0  0  0  0  0
   18.9131   -8.8452  -19.5954 C   0  0  0  0  0  0  0  0  0  0  0  0
   21.1381   -9.1628  -18.5013 C   0  0  2  0  0  0  0  0  0  0  0  0
   21.0671  -10.6031  -18.4240 N   0  0  0  0  0  0  0  0  0  0  0  0
   20.7061   -8.5928  -17.2239 C   0  0  0  0  0  0  0  0  0  0  0  0
   19.9562   -9.2027  -16.3927 O   0  0  0  0  0  0  0  0  0  0  0  0
   21.1296   -7.2906  -16.8637 N   0  0  0  0  0  0  0  0  0  0  0  0
   20.8057   -6.6416  -15.6180 C   0  0  1  0  0  0  0  0  0  0  0  0
   21.8936   -6.5625  -14.6141 C   0  0  0  0  0  0  0  0  0  0  0  0
   22.2129   -7.8999  -14.0603 C   0  0  0  0  0  0  0  0  0  0  0  0
   21.4908   -8.3635  -12.9666 C   0  0  0  0  0  0  0  0  0  0  0  0
   21.7599   -9.6062  -12.4125 C   0  0  0  0  0  0  0  0  0  0  0  0
   22.7606  -10.3483  -12.9878 C   0  0  0  0  0  0  0  0  0  0  0  0
   23.4770   -9.8854  -14.0751 C   0  0  0  0  0  0  0  0  0  0  0  0
   23.2117   -8.6490  -14.6271 C   0  0  0  0  0  0  0  0  0  0  0  0
   20.0757   -5.3587  -15.8394 C   0  0  0  0  0  0  0  0  0  0  0  0
   20.7717   -4.3103  -15.9995 O   0  0  0  0  0  0  0  0  0  0  0  0
   17.8728   -4.3120  -18.6685 C   0  0  0  0  0  0  0  0  0  0  0  0
   17.0705   -4.1917  -17.3896 C   0  0  1  0  0  0  0  0  0  0  0  0
   16.3352   -5.3825  -17.1777 O   0  0  0  0  0  0  0  0  0  0  0  0
   17.9436   -4.0482  -16.1885 C   0  0  2  0  0  0  0  0  0  0  0  0
   18.6901   -5.2432  -15.8821 N   0  0  0  0  0  0  0  0  0  0  0  0
   17.0311   -3.6821  -15.0544 C   0  0  0  0  0  0  0  0  0  0  0  0
   16.3852   -2.4688  -14.9737 O   0  0  0  0  0  0  0  0  0  0  0  0
   16.8383   -4.5016  -14.1354 O   0  0  0  0  0  0  0  0  0  0  0  0
  2  4  1  0
  2  1  1  6
  3  2  1  0
  4  6  1  0
  4  5  1  1
  6  7  2  0
  8  9  1  0
  8  6  1  0
 10 11  1  0
  9 10  1  6
 11 12  2  0
 12 13  1  0
 14 13  2  0
 15 14  1  0
 16 15  2  0
 16 11  1  0
 17  9  1  0
 17 18  2  0
 20 19  1  6
 20 22  1  0
 21 20  1  0
 22 23  1  1
 22 24  1  0
 23 17  1  0
 24 25  1  0
 26 24  2  0
M  END
$$$$
