VFT.pdb
     RDKit          3D

 26 26  0  0  1  0  0  0  0  0999 V2000
   27.1740  -27.5732  -20.7734 C   0  0  0  0  0  0  0  0  0  0  0  0
   27.3985  -28.9514  -20.2393 C   0  0  1  0  0  0  0  0  0  0  0  0
   27.3060  -30.0499  -21.2742 C   0  0  0  0  0  0  0  0  0  0  0  0
   28.5883  -29.0866  -19.3570 C   0  0  2  0  0  0  0  0  0  0  0  0
   29.7859  -28.7689  -20.0989 N   0  0  0  0  0  0  0  0  0  0  0  0
   28.7610  -30.3844  -18.7020 C   0  0  0  0  0  0  0  0  0  0  0  0
   29.4107  -31.3554  -19.2123 O   0  0  0  0  0  0  0  0  0  0  0  0
   28.1840  -30.6036  -17.4277 N   0  0  0  0  0  0  0  0  0  0  0  0
   28.2111  -31.8613  -16.7240 C   0  0  1  0  0  0  0  0  0  0  0  0
   28.8407  -31.8519  -15.3820 C   0  0  0  0  0  0  0  0  0  0  0  0
   28.8380  -33.2051  -14.7769 C   0  0  0  0  0  0  0  0  0  0  0  0
   29.8349  -34.1040  -15.1381 C   0  0  0  0  0  0  0  0  0  0  0  0
   29.8675  -35.3825  -14.6012 C   0  0  0  0  0  0  0  0  0  0  0  0
   28.8813  -35.7146  -13.7069 C   0  0  0  0  0  0  0  0  0  0  0  0
   27.8913  -34.8193  -13.3490 C   0  0  0  0  0  0  0  0  0  0  0  0
   27.8563  -33.5474  -13.8829 C   0  0  0  0  0  0  0  0  0  0  0  0
   26.8893  -32.5522  -16.7809 C   0  0  0  0  0  0  0  0  0  0  0  0
   25.9344  -32.0423  -16.1196 O   0  0  0  0  0  0  0  0  0  0  0  0
   24.7268  -33.9483  -19.9031 C   0  0  0  0  0  0  0  0  0  0  0  0
   25.1002  -35.0159  -18.8960 C   0  0  1  0  0  0  0  0  0  0  0  0
   26.2950  -35.6557  -19.3045 O   0  0  0  0  0  0  0  0  0  0  0  0
   25.3997  -34.4421  -17.5519 C   0  0  2  0  0  0  0  0  0  0  0  0
   26.6418  -33.7109  -17.5096 N   0  0  0  0  0  0  0  0  0  0  0  0
   25.4307  -35.6045  -16.6028 C   0  0  0  0  0  0  0  0  0  0  0  0
   24.2927  -36.2348  -16.1520 O   0  0  0  0  0  0  0  0  0  0  0  0
   26.5281  -36.0311  -16.1939 O   0  0  0  0  0  0  0  0  0  0  0  0
  2  4  1  0
  2  1  1  6
  3  2  1  0
  4  6  1  0
  4  5  1  6
  6  7  2  0
  8  9  1  0
  8  6  1  0
 10 11  1  0
  9 10  1  1
 11 12  2  0
 12 13  1  0
 14 13  2  0
 15 14  1  0
 16 15  2  0
 16 11  1  0
 17  9  1  0
 17 18  2  0
 20 19  1  6
 20 22  1  0
 21 20  1  0
 22 23  1  6
 22 24  1  0
 23 17  1  0
 24 25  1  0
 26 24  2  0
M  END
$$$$
