VFT.pdb
     RDKit          3D

 26 26  0  0  1  0  0  0  0  0999 V2000
   17.8402   -9.2692  -18.3650 C   0  0  0  0  0  0  0  0  0  0  0  0
   18.1743  -10.5617  -17.6922 C   0  0  1  0  0  0  0  0  0  0  0  0
   18.1819  -11.7644  -18.6087 C   0  0  0  0  0  0  0  0  0  0  0  0
   19.3642  -10.5059  -16.8015 C   0  0  2  0  0  0  0  0  0  0  0  0
   19.5041  -11.7566  -16.0932 N   0  0  0  0  0  0  0  0  0  0  0  0
   19.3971   -9.4039  -15.8382 C   0  0  0  0  0  0  0  0  0  0  0  0
   18.7769   -9.4168  -14.7246 O   0  0  0  0  0  0  0  0  0  0  0  0
   20.1529   -8.2435  -16.1333 N   0  0  0  0  0  0  0  0  0  0  0  0
   20.3297   -7.1327  -15.2318 C   0  0  1  0  0  0  0  0  0  0  0  0
   21.6751   -6.9821  -14.6278 C   0  0  0  0  0  0  0  0  0  0  0  0
   21.9716   -8.0921  -13.6911 C   0  0  0  0  0  0  0  0  0  0  0  0
   21.4558   -8.0380  -12.4013 C   0  0  0  0  0  0  0  0  0  0  0  0
   21.7129   -9.0517  -11.4902 C   0  0  0  0  0  0  0  0  0  0  0  0
   22.4909  -10.0985  -11.9165 C   0  0  0  0  0  0  0  0  0  0  0  0
   23.0024  -10.1502  -13.1992 C   0  0  0  0  0  0  0  0  0  0  0  0
   22.7489   -9.1424  -14.1068 C   0  0  0  0  0  0  0  0  0  0  0  0
   19.7608   -5.8722  -15.7934 C   0  0  0  0  0  0  0  0  0  0  0  0
   20.4114   -5.2990  -16.7193 O   0  0  0  0  0  0  0  0  0  0  0  0
   16.1015   -5.2209  -17.1619 C   0  0  0  0  0  0  0  0  0  0  0  0
   16.4771   -4.2340  -16.0763 C   0  0  1  0  0  0  0  0  0  0  0  0
   16.0031   -4.7007  -14.8269 O   0  0  0  0  0  0  0  0  0  0  0  0
   17.9550   -4.1090  -15.9157 C   0  0  2  0  0  0  0  0  0  0  0  0
   18.5698   -5.2929  -15.3683 N   0  0  0  0  0  0  0  0  0  0  0  0
   18.1754   -2.9273  -15.0167 C   0  0  0  0  0  0  0  0  0  0  0  0
   17.7927   -1.6481  -15.3525 O   0  0  0  0  0  0  0  0  0  0  0  0
   18.7291   -3.0937  -13.9126 O   0  0  0  0  0  0  0  0  0  0  0  0
  2  4  1  0
  2  1  1  6
  3  2  1  0
  4  6  1  0
  4  5  1  1
  6  7  2  0
  8  9  1  0
  8  6  1  0
 10 11  1  0
  9 10  1  6
 11 12  2  0
 12 13  1  0
 14 13  2  0
 15 14  1  0
 16 15  2  0
 16 11  1  0
 17  9  1  0
 17 18  2  0
 20 19  1  6
 20 22  1  0
 21 20  1  0
 22 23  1  1
 22 24  1  0
 23 17  1  0
 24 25  1  0
 26 24  2  0
M  END
$$$$
