VFT.pdb
     RDKit          3D

 26 26  0  0  1  0  0  0  0  0999 V2000
   19.8933  -10.3494  -20.4813 C   0  0  0  0  0  0  0  0  0  0  0  0
   19.5623  -11.7217  -19.9892 C   0  0  1  0  0  0  0  0  0  0  0  0
   19.6407  -12.8037  -21.0426 C   0  0  0  0  0  0  0  0  0  0  0  0
   20.2351  -12.1020  -18.7182 C   0  0  2  0  0  0  0  0  0  0  0  0
   19.7121  -13.3626  -18.2463 N   0  0  0  0  0  0  0  0  0  0  0  0
   20.1680  -11.1200  -17.6345 C   0  0  0  0  0  0  0  0  0  0  0  0
   19.1239  -10.9061  -16.9351 O   0  0  0  0  0  0  0  0  0  0  0  0
   21.3132  -10.3480  -17.3224 N   0  0  0  0  0  0  0  0  0  0  0  0
   21.3392   -9.2789  -16.3559 C   0  0  1  0  0  0  0  0  0  0  0  0
   22.4934   -9.2595  -15.4260 C   0  0  0  0  0  0  0  0  0  0  0  0
   22.3636   -8.1693  -14.4300 C   0  0  0  0  0  0  0  0  0  0  0  0
   22.8594   -6.9094  -14.7452 C   0  0  0  0  0  0  0  0  0  0  0  0
   22.7647   -5.8618  -13.8411 C   0  0  0  0  0  0  0  0  0  0  0  0
   22.1653   -6.1240  -12.6350 C   0  0  0  0  0  0  0  0  0  0  0  0
   21.6728   -7.3772  -12.3238 C   0  0  0  0  0  0  0  0  0  0  0  0
   21.7671   -8.4209  -13.2213 C   0  0  0  0  0  0  0  0  0  0  0  0
   21.0311   -7.9609  -16.9850 C   0  0  0  0  0  0  0  0  0  0  0  0
   21.7855   -7.5728  -17.9282 O   0  0  0  0  0  0  0  0  0  0  0  0
   18.2315   -6.8089  -19.0826 C   0  0  0  0  0  0  0  0  0  0  0  0
   18.2604   -5.9185  -17.8579 C   0  0  1  0  0  0  0  0  0  0  0  0
   17.3887   -6.4399  -16.8721 O   0  0  0  0  0  0  0  0  0  0  0  0
   19.6070   -5.8865  -17.2166 C   0  0  2  0  0  0  0  0  0  0  0  0
   19.9753   -7.1390  -16.6046 N   0  0  0  0  0  0  0  0  0  0  0  0
   19.5536   -4.7875  -16.1957 C   0  0  0  0  0  0  0  0  0  0  0  0
   19.4735   -3.4548  -16.5321 O   0  0  0  0  0  0  0  0  0  0  0  0
   19.5824   -5.0767  -14.9837 O   0  0  0  0  0  0  0  0  0  0  0  0
  2  4  1  0
  2  1  1  6
  3  2  1  0
  4  6  1  0
  4  5  1  1
  6  7  2  0
  8  9  1  0
  8  6  1  0
 10 11  1  0
  9 10  1  6
 11 12  2  0
 12 13  1  0
 14 13  2  0
 15 14  1  0
 16 15  2  0
 16 11  1  0
 17  9  1  0
 17 18  2  0
 20 19  1  6
 20 22  1  0
 21 20  1  0
 22 23  1  1
 22 24  1  0
 23 17  1  0
 24 25  1  0
 26 24  2  0
M  END
$$$$
