VFT.pdb
     RDKit          3D

 26 26  0  0  1  0  0  0  0  0999 V2000
   28.0027  -19.1919  -19.1893 C   0  0  0  0  0  0  0  0  0  0  0  0
   27.1561  -19.6143  -18.0318 C   0  0  1  0  0  0  0  0  0  0  0  0
   25.6773  -19.7050  -18.3340 C   0  0  0  0  0  0  0  0  0  0  0  0
   27.6685  -20.7973  -17.2898 C   0  0  2  0  0  0  0  0  0  0  0  0
   27.6903  -21.9489  -18.1608 N   0  0  0  0  0  0  0  0  0  0  0  0
   26.9579  -21.1424  -16.0573 C   0  0  0  0  0  0  0  0  0  0  0  0
   25.9567  -21.9304  -16.0129 O   0  0  0  0  0  0  0  0  0  0  0  0
   27.3842  -20.5840  -14.8280 N   0  0  0  0  0  0  0  0  0  0  0  0
   26.6946  -20.7489  -13.5730 C   0  0  1  0  0  0  0  0  0  0  0  0
   27.4995  -20.5375  -12.3463 C   0  0  0  0  0  0  0  0  0  0  0  0
   26.6535  -20.5973  -11.1306 C   0  0  0  0  0  0  0  0  0  0  0  0
   26.4614  -19.4375  -10.3886 C   0  0  0  0  0  0  0  0  0  0  0  0
   25.6823  -19.4490   -9.2411 C   0  0  0  0  0  0  0  0  0  0  0  0
   25.1163  -20.6447   -8.8768 C   0  0  0  0  0  0  0  0  0  0  0  0
   25.3084  -21.7964   -9.6161 C   0  0  0  0  0  0  0  0  0  0  0  0
   26.0840  -21.7874  -10.7572 C   0  0  0  0  0  0  0  0  0  0  0  0
   25.3757  -20.0502  -13.5738 C   0  0  0  0  0  0  0  0  0  0  0  0
   25.3838  -18.7865  -13.6850 O   0  0  0  0  0  0  0  0  0  0  0  0
   22.8771  -18.9790  -15.5776 C   0  0  0  0  0  0  0  0  0  0  0  0
   22.1435  -19.9018  -14.6268 C   0  0  1  0  0  0  0  0  0  0  0  0
   22.0842  -21.2030  -15.1807 O   0  0  0  0  0  0  0  0  0  0  0  0
   22.8609  -20.0582  -13.3282 C   0  0  2  0  0  0  0  0  0  0  0  0
   24.1479  -20.6944  -13.4624 N   0  0  0  0  0  0  0  0  0  0  0  0
   21.9532  -20.8677  -12.4485 C   0  0  0  0  0  0  0  0  0  0  0  0
   20.7232  -20.4175  -12.0241 O   0  0  0  0  0  0  0  0  0  0  0  0
   22.3139  -22.0010  -12.0757 O   0  0  0  0  0  0  0  0  0  0  0  0
  2  4  1  0
  2  1  1  6
  3  2  1  0
  4  6  1  0
  4  5  1  6
  6  7  2  0
  8  9  1  0
  8  6  1  0
 10 11  1  0
  9 10  1  1
 11 12  2  0
 12 13  1  0
 14 13  2  0
 15 14  1  0
 16 15  2  0
 16 11  1  0
 17  9  1  0
 17 18  2  0
 20 19  1  6
 20 22  1  0
 21 20  1  0
 22 23  1  6
 22 24  1  0
 23 17  1  0
 24 25  1  0
 26 24  2  0
M  END
$$$$
