VFT.pdb
     RDKit          3D

 26 26  0  0  1  0  0  0  0  0999 V2000
   28.1603  -21.0575  -18.9859 C   0  0  0  0  0  0  0  0  0  0  0  0
   27.1915  -21.2684  -17.8669 C   0  0  1  0  0  0  0  0  0  0  0  0
   25.8186  -21.7294  -18.3019 C   0  0  0  0  0  0  0  0  0  0  0  0
   27.7292  -22.0520  -16.7227 C   0  0  2  0  0  0  0  0  0  0  0  0
   28.0649  -23.3870  -17.1590 N   0  0  0  0  0  0  0  0  0  0  0  0
   26.8712  -22.1364  -15.5395 C   0  0  0  0  0  0  0  0  0  0  0  0
   26.0767  -23.1060  -15.3074 O   0  0  0  0  0  0  0  0  0  0  0  0
   26.9038  -21.0958  -14.5800 N   0  0  0  0  0  0  0  0  0  0  0  0
   26.0530  -21.0286  -13.4183 C   0  0  1  0  0  0  0  0  0  0  0  0
   26.5882  -20.2872  -12.2516 C   0  0  0  0  0  0  0  0  0  0  0  0
   25.6946  -20.4163  -11.0760 C   0  0  0  0  0  0  0  0  0  0  0  0
   26.0119  -21.3434  -10.0900 C   0  0  0  0  0  0  0  0  0  0  0  0
   25.2010  -21.5017   -8.9759 C   0  0  0  0  0  0  0  0  0  0  0  0
   24.0837  -20.7094   -8.8933 C   0  0  0  0  0  0  0  0  0  0  0  0
   23.7703  -19.7882   -9.8746 C   0  0  0  0  0  0  0  0  0  0  0  0
   24.5750  -19.6299  -10.9842 C   0  0  0  0  0  0  0  0  0  0  0  0
   24.6498  -20.6746  -13.7838 C   0  0  0  0  0  0  0  0  0  0  0  0
   24.4586  -19.5583  -14.3551 O   0  0  0  0  0  0  0  0  0  0  0  0
   22.2150  -21.7085  -16.2050 C   0  0  0  0  0  0  0  0  0  0  0  0
   21.5412  -21.9429  -14.8690 C   0  0  1  0  0  0  0  0  0  0  0  0
   21.7052  -23.2958  -14.4865 O   0  0  0  0  0  0  0  0  0  0  0  0
   22.1671  -21.1449  -13.7749 C   0  0  2  0  0  0  0  0  0  0  0  0
   23.5478  -21.4876  -13.5395 N   0  0  0  0  0  0  0  0  0  0  0  0
   21.3368  -21.3983  -12.5504 C   0  0  0  0  0  0  0  0  0  0  0  0
   20.0049  -21.0602  -12.4647 O   0  0  0  0  0  0  0  0  0  0  0  0
   21.8611  -21.9380  -11.5569 O   0  0  0  0  0  0  0  0  0  0  0  0
  2  4  1  0
  2  1  1  6
  3  2  1  0
  4  6  1  0
  4  5  1  6
  6  7  2  0
  8  9  1  0
  8  6  1  0
 10 11  1  0
  9 10  1  1
 11 12  2  0
 12 13  1  0
 14 13  2  0
 15 14  1  0
 16 15  2  0
 16 11  1  0
 17  9  1  0
 17 18  2  0
 20 19  1  6
 20 22  1  0
 21 20  1  0
 22 23  1  1
 22 24  1  0
 23 17  1  0
 24 25  1  0
 26 24  2  0
M  END
$$$$
