YQR.pdb
     RDKit          3D

 33 33  0  0  1  0  0  0  0  0999 V2000
    7.2025  -11.7274   16.5487 O   0  0  0  0  0  0  0  0  0  0  0  0
    7.4999  -12.5660   17.6213 C   0  0  0  0  0  0  0  0  0  0  0  0
    8.7769  -13.0728   17.7115 C   0  0  0  0  0  0  0  0  0  0  0  0
    9.1238  -13.9187   18.7695 C   0  0  0  0  0  0  0  0  0  0  0  0
    8.2118  -14.2554   19.7249 C   0  0  0  0  0  0  0  0  0  0  0  0
    8.5893  -15.1501   20.8340 C   0  0  0  0  0  0  0  0  0  0  0  0
    8.5566  -16.5900   20.3844 C   0  0  2  0  0  0  0  0  0  0  0  0
    7.2029  -16.9436   20.0723 N   0  0  0  0  0  0  0  0  0  0  0  0
    9.1665  -17.5051   21.3732 C   0  0  0  0  0  0  0  0  0  0  0  0
    8.6376  -17.7277   22.5130 O   0  0  0  0  0  0  0  0  0  0  0  0
    6.9372  -13.7486   19.6338 C   0  0  0  0  0  0  0  0  0  0  0  0
    6.5728  -12.9031   18.5851 C   0  0  0  0  0  0  0  0  0  0  0  0
   14.3675  -20.9112   20.2366 N   0  0  0  0  0  0  0  0  0  0  0  0
   14.2266  -21.1087   21.6279 C   0  0  0  0  0  0  0  0  0  0  0  0
   15.0400  -21.8197   22.2462 O   0  0  0  0  0  0  0  0  0  0  0  0
   13.1059  -20.4632   22.3404 C   0  0  0  0  0  0  0  0  0  0  0  0
   12.2932  -19.6605   21.3667 C   0  0  0  0  0  0  0  0  0  0  0  0
   11.1304  -18.9481   22.0289 C   0  0  2  0  0  0  0  0  0  0  0  0
   10.3747  -18.1779   21.0911 N   0  0  0  0  0  0  0  0  0  0  0  0
   11.6329  -18.1456   23.1657 C   0  0  0  0  0  0  0  0  0  0  0  0
   12.3641  -17.1447   22.9592 O   0  0  0  0  0  0  0  0  0  0  0  0
   10.7284  -16.5746   30.4842 N   0  0  0  0  0  0  0  0  0  0  0  0
   10.3433  -15.2143   30.3570 C   0  0  0  0  0  0  0  0  0  0  0  0
   10.2523  -14.4817   31.4387 N   0  0  0  0  0  0  0  0  0  0  0  0
   10.0551  -14.6260   29.0878 N   0  0  0  0  0  0  0  0  0  0  0  0
    9.7185  -15.4680   27.9630 C   0  0  0  0  0  0  0  0  0  0  0  0
   10.8975  -16.2652   27.4749 C   0  0  0  0  0  0  0  0  0  0  0  0
   10.6474  -16.9976   26.2091 C   0  0  0  0  0  0  0  0  0  0  0  0
   11.7834  -17.7898   25.6672 C   0  0  2  0  0  0  0  0  0  0  0  0
   11.2850  -18.5131   24.4948 N   0  0  0  0  0  0  0  0  0  0  0  0
   12.2515  -18.7914   26.6721 C   0  0  0  0  0  0  0  0  0  0  0  0
   12.0194  -20.1501   26.5571 O   0  0  0  0  0  0  0  0  0  0  0  0
   12.8883  -18.3902   27.6755 O   0  0  0  0  0  0  0  0  0  0  0  0
  2  1  1  0
  3  2  2  0
  4  3  1  0
  5 11  1  0
  5  4  2  0
  6  5  1  0
  7  6  1  0
  7  8  1  1
  9  7  1  0
  9 19  1  0
 10  9  2  0
 11 12  2  0
 12  2  1  0
 13 14  1  0
 14 15  2  0
 16 14  1  0
 16 17  1  0
 18 17  1  6
 18 19  1  0
 18 20  1  0
 20 21  2  0
 20 30  1  0
 22 23  1  0
 23 24  2  0
 23 25  1  0
 25 26  1  0
 26 27  1  0
 28 27  1  0
 29 28  1  1
 29 31  1  0
 30 29  1  0
 31 33  2  0
 31 32  1  0
M  END
$$$$
