YQR.pdb
     RDKit          3D

 33 33  0  0  1  0  0  0  0  0999 V2000
    7.3665  -12.1410   14.2461 O   0  0  0  0  0  0  0  0  0  0  0  0
    7.2971  -12.8854   15.4222 C   0  0  0  0  0  0  0  0  0  0  0  0
    7.0893  -14.2425   15.3175 C   0  0  0  0  0  0  0  0  0  0  0  0
    7.0123  -15.0323   16.4688 C   0  0  0  0  0  0  0  0  0  0  0  0
    7.1404  -14.4785   17.7078 C   0  0  0  0  0  0  0  0  0  0  0  0
    7.0548  -15.3216   18.9139 C   0  0  0  0  0  0  0  0  0  0  0  0
    8.3988  -15.4066   19.5942 C   0  0  2  0  0  0  0  0  0  0  0  0
    9.3976  -15.6902   18.6057 N   0  0  0  0  0  0  0  0  0  0  0  0
    8.4096  -16.3828   20.7052 C   0  0  0  0  0  0  0  0  0  0  0  0
    7.5457  -16.3565   21.6440 O   0  0  0  0  0  0  0  0  0  0  0  0
    7.3478  -13.1235   17.8109 C   0  0  0  0  0  0  0  0  0  0  0  0
    7.4275  -12.3195   16.6731 C   0  0  0  0  0  0  0  0  0  0  0  0
   11.8336  -21.5603   20.3446 N   0  0  0  0  0  0  0  0  0  0  0  0
   10.6254  -21.3476   19.6448 C   0  0  0  0  0  0  0  0  0  0  0  0
   10.3308  -22.0633   18.6701 O   0  0  0  0  0  0  0  0  0  0  0  0
    9.7166  -20.2689   20.0816 C   0  0  0  0  0  0  0  0  0  0  0  0
   10.2835  -19.6040   21.3022 C   0  0  0  0  0  0  0  0  0  0  0  0
    9.4486  -18.4254   21.7623 C   0  0  2  0  0  0  0  0  0  0  0  0
    9.3895  -17.3964   20.7716 N   0  0  0  0  0  0  0  0  0  0  0  0
    9.9579  -17.9455   23.0658 C   0  0  0  0  0  0  0  0  0  0  0  0
   11.1874  -17.7433   23.2290 O   0  0  0  0  0  0  0  0  0  0  0  0
   11.1068  -15.3797   29.9455 N   0  0  0  0  0  0  0  0  0  0  0  0
   10.6847  -14.1424   29.3924 C   0  0  0  0  0  0  0  0  0  0  0  0
   10.7814  -13.0601   30.1234 N   0  0  0  0  0  0  0  0  0  0  0  0
   10.1612  -14.0465   28.0670 N   0  0  0  0  0  0  0  0  0  0  0  0
    9.9843  -15.2411   27.2740 C   0  0  0  0  0  0  0  0  0  0  0  0
    8.5371  -15.5072   26.9595 C   0  0  0  0  0  0  0  0  0  0  0  0
    8.3090  -16.7443   26.1727 C   0  0  0  0  0  0  0  0  0  0  0  0
    9.4919  -17.3101   25.4713 C   0  0  2  0  0  0  0  0  0  0  0  0
    9.0487  -17.7147   24.1349 N   0  0  0  0  0  0  0  0  0  0  0  0
    9.9955  -18.5221   26.1851 C   0  0  0  0  0  0  0  0  0  0  0  0
   10.9698  -18.4775   27.1658 O   0  0  0  0  0  0  0  0  0  0  0  0
    9.5171  -19.6427   25.8870 O   0  0  0  0  0  0  0  0  0  0  0  0
  2  1  1  0
  3  2  2  0
  4  3  1  0
  5 11  1  0
  5  4  2  0
  6  5  1  0
  7  6  1  0
  7  8  1  6
  9  7  1  0
  9 19  1  0
 10  9  2  0
 11 12  2  0
 12  2  1  0
 13 14  1  0
 14 15  2  0
 16 14  1  0
 16 17  1  0
 18 17  1  6
 18 19  1  0
 18 20  1  0
 20 21  2  0
 20 30  1  0
 22 23  1  0
 23 24  2  0
 23 25  1  0
 25 26  1  0
 26 27  1  0
 28 27  1  0
 29 28  1  1
 29 31  1  0
 30 29  1  0
 31 33  2  0
 31 32  1  0
M  END
$$$$
