YQR.pdb
     RDKit          3D

 33 33  0  0  1  0  0  0  0  0999 V2000
    7.1993  -11.5079   18.7438 O   0  0  0  0  0  0  0  0  0  0  0  0
    7.7180  -12.5112   19.5602 C   0  0  0  0  0  0  0  0  0  0  0  0
    6.8321  -13.3664   20.1763 C   0  0  0  0  0  0  0  0  0  0  0  0
    7.3039  -14.3890   21.0050 C   0  0  0  0  0  0  0  0  0  0  0  0
    8.6397  -14.5581   21.2176 C   0  0  0  0  0  0  0  0  0  0  0  0
    9.1242  -15.6386   22.0955 C   0  0  0  0  0  0  0  0  0  0  0  0
    9.5351  -16.8381   21.2777 C   0  0  2  0  0  0  0  0  0  0  0  0
    8.3705  -17.3834   20.6439 N   0  0  0  0  0  0  0  0  0  0  0  0
   10.2669  -17.8440   22.0775 C   0  0  0  0  0  0  0  0  0  0  0  0
    9.6669  -18.7270   22.7765 O   0  0  0  0  0  0  0  0  0  0  0  0
    9.5230  -13.7036   20.6019 C   0  0  0  0  0  0  0  0  0  0  0  0
    9.0707  -12.6773   19.7715 C   0  0  0  0  0  0  0  0  0  0  0  0
   16.0563  -19.6089   20.7059 N   0  0  0  0  0  0  0  0  0  0  0  0
   15.8641  -20.3471   21.8945 C   0  0  0  0  0  0  0  0  0  0  0  0
   16.7306  -21.1538   22.2789 O   0  0  0  0  0  0  0  0  0  0  0  0
   14.6263  -20.1517   22.6755 C   0  0  0  0  0  0  0  0  0  0  0  0
   13.7673  -19.1240   21.9980 C   0  0  0  0  0  0  0  0  0  0  0  0
   12.4783  -18.8573   22.7499 C   0  0  2  0  0  0  0  0  0  0  0  0
   11.6780  -17.8674   22.0993 N   0  0  0  0  0  0  0  0  0  0  0  0
   12.7941  -18.5151   24.1542 C   0  0  0  0  0  0  0  0  0  0  0  0
   13.3752  -17.4348   24.4268 O   0  0  0  0  0  0  0  0  0  0  0  0
   13.4083  -20.4641   32.0992 N   0  0  0  0  0  0  0  0  0  0  0  0
   12.4407  -21.4409   31.7466 C   0  0  0  0  0  0  0  0  0  0  0  0
   12.4483  -22.5903   32.3743 N   0  0  0  0  0  0  0  0  0  0  0  0
   11.4637  -21.2049   30.7318 N   0  0  0  0  0  0  0  0  0  0  0  0
   11.6609  -20.1402   29.7754 C   0  0  0  0  0  0  0  0  0  0  0  0
   12.7525  -20.4552   28.7889 C   0  0  0  0  0  0  0  0  0  0  0  0
   12.3274  -20.3644   27.3703 C   0  0  0  0  0  0  0  0  0  0  0  0
   12.9431  -19.2775   26.5633 C   0  0  2  0  0  0  0  0  0  0  0  0
   12.4372  -19.4158   25.1954 N   0  0  0  0  0  0  0  0  0  0  0  0
   14.4294  -19.4252   26.5307 C   0  0  0  0  0  0  0  0  0  0  0  0
   15.2928  -18.5819   27.2062 O   0  0  0  0  0  0  0  0  0  0  0  0
   14.9304  -20.3586   25.8589 O   0  0  0  0  0  0  0  0  0  0  0  0
  2  1  1  0
  3  2  2  0
  4  3  1  0
  5 11  1  0
  5  4  2  0
  6  5  1  0
  7  6  1  0
  7  8  1  1
  9  7  1  0
  9 19  1  0
 10  9  2  0
 11 12  2  0
 12  2  1  0
 13 14  1  0
 14 15  2  0
 16 14  1  0
 16 17  1  0
 18 17  1  6
 18 19  1  0
 18 20  1  0
 20 21  2  0
 20 30  1  0
 22 23  1  0
 23 24  2  0
 23 25  1  0
 25 26  1  0
 26 27  1  0
 28 27  1  0
 29 28  1  1
 29 31  1  0
 30 29  1  0
 31 33  2  0
 31 32  1  0
M  END
$$$$
