YQR.pdb
     RDKit          3D

 33 33  0  0  1  0  0  0  0  0999 V2000
    7.8800  -12.3133   16.2996 O   0  0  0  0  0  0  0  0  0  0  0  0
    7.8432  -13.0023   17.5104 C   0  0  0  0  0  0  0  0  0  0  0  0
    8.0222  -14.3672   17.4838 C   0  0  0  0  0  0  0  0  0  0  0  0
    7.9938  -15.1028   18.6726 C   0  0  0  0  0  0  0  0  0  0  0  0
    7.7898  -14.4879   19.8719 C   0  0  0  0  0  0  0  0  0  0  0  0
    7.7595  -15.2750   21.1179 C   0  0  0  0  0  0  0  0  0  0  0  0
    7.9198  -16.7448   20.8171 C   0  0  2  0  0  0  0  0  0  0  0  0
    6.6275  -17.3020   20.5442 N   0  0  0  0  0  0  0  0  0  0  0  0
    8.6317  -17.4678   21.8930 C   0  0  0  0  0  0  0  0  0  0  0  0
    8.0344  -17.9004   22.9344 O   0  0  0  0  0  0  0  0  0  0  0  0
    7.6113  -13.1251   19.8971 C   0  0  0  0  0  0  0  0  0  0  0  0
    7.6365  -12.3746   18.7209 C   0  0  0  0  0  0  0  0  0  0  0  0
   15.1465  -18.4612   22.3389 N   0  0  0  0  0  0  0  0  0  0  0  0
   14.4032  -19.5483   22.8493 C   0  0  0  0  0  0  0  0  0  0  0  0
   14.8870  -20.6951   22.8471 O   0  0  0  0  0  0  0  0  0  0  0  0
   13.0481  -19.3100   23.3853 C   0  0  0  0  0  0  0  0  0  0  0  0
   12.2415  -18.5442   22.3773 C   0  0  0  0  0  0  0  0  0  0  0  0
   10.8207  -18.2914   22.8412 C   0  0  2  0  0  0  0  0  0  0  0  0
   10.0194  -17.7114   21.8092 N   0  0  0  0  0  0  0  0  0  0  0  0
   10.8479  -17.4801   24.0781 C   0  0  0  0  0  0  0  0  0  0  0  0
   11.4389  -16.3712   24.0943 O   0  0  0  0  0  0  0  0  0  0  0  0
    7.7419  -12.3560   27.6265 N   0  0  0  0  0  0  0  0  0  0  0  0
    6.9792  -12.4737   26.4352 C   0  0  0  0  0  0  0  0  0  0  0  0
    6.1337  -11.5206   26.1319 N   0  0  0  0  0  0  0  0  0  0  0  0
    7.1091  -13.5969   25.5626 N   0  0  0  0  0  0  0  0  0  0  0  0
    7.2055  -14.9294   26.1126 C   0  0  0  0  0  0  0  0  0  0  0  0
    8.5160  -15.5896   25.7800 C   0  0  0  0  0  0  0  0  0  0  0  0
    8.9291  -16.6324   26.7514 C   0  0  0  0  0  0  0  0  0  0  0  0
   10.2629  -17.2518   26.5301 C   0  0  2  0  0  0  0  0  0  0  0  0
   10.2022  -17.9617   25.2501 N   0  0  0  0  0  0  0  0  0  0  0  0
   10.5647  -18.2459   27.6038 C   0  0  0  0  0  0  0  0  0  0  0  0
   11.1418  -17.9068   28.8142 O   0  0  0  0  0  0  0  0  0  0  0  0
   10.2848  -19.4527   27.4075 O   0  0  0  0  0  0  0  0  0  0  0  0
  2  1  1  0
  3  2  2  0
  4  3  1  0
  5 11  1  0
  5  4  2  0
  6  5  1  0
  7  6  1  0
  7  8  1  1
  9  7  1  0
  9 19  1  0
 10  9  2  0
 11 12  2  0
 12  2  1  0
 13 14  1  0
 14 15  2  0
 16 14  1  0
 16 17  1  0
 18 17  1  6
 18 19  1  0
 18 20  1  0
 20 21  2  0
 20 30  1  0
 22 23  1  0
 23 24  2  0
 23 25  1  0
 25 26  1  0
 26 27  1  0
 28 27  1  0
 29 28  1  1
 29 31  1  0
 30 29  1  0
 31 33  2  0
 31 32  1  0
M  END
$$$$
