YQR.pdb
     RDKit          3D

 33 33  0  0  1  0  0  0  0  0999 V2000
    4.9455  -10.4338   27.2206 O   0  0  0  0  0  0  0  0  0  0  0  0
    5.7975  -11.4388   26.7665 C   0  0  0  0  0  0  0  0  0  0  0  0
    5.7342  -11.7885   25.4363 C   0  0  0  0  0  0  0  0  0  0  0  0
    6.5688  -12.7911   24.9330 C   0  0  0  0  0  0  0  0  0  0  0  0
    7.4547  -13.4370   25.7431 C   0  0  0  0  0  0  0  0  0  0  0  0
    8.3274  -14.4940   25.2009 C   0  0  0  0  0  0  0  0  0  0  0  0
    7.5008  -15.6353   24.6618 C   0  0  2  0  0  0  0  0  0  0  0  0
    6.8975  -16.3266   25.7633 N   0  0  0  0  0  0  0  0  0  0  0  0
    8.2828  -16.5367   23.7884 C   0  0  0  0  0  0  0  0  0  0  0  0
    8.7414  -17.6546   24.1985 O   0  0  0  0  0  0  0  0  0  0  0  0
    7.5170  -13.0868   27.0710 C   0  0  0  0  0  0  0  0  0  0  0  0
    6.6919  -12.0887   27.5910 C   0  0  0  0  0  0  0  0  0  0  0  0
    7.7765  -17.8701   18.2745 N   0  0  0  0  0  0  0  0  0  0  0  0
    9.1812  -17.9807   18.1782 C   0  0  0  0  0  0  0  0  0  0  0  0
    9.6955  -18.6839   17.2892 O   0  0  0  0  0  0  0  0  0  0  0  0
   10.0320  -17.2538   19.1416 C   0  0  0  0  0  0  0  0  0  0  0  0
    9.1616  -16.4990   20.1037 C   0  0  0  0  0  0  0  0  0  0  0  0
    9.3299  -16.9727   21.5338 C   0  0  2  0  0  0  0  0  0  0  0  0
    8.5565  -16.1912   22.4475 N   0  0  0  0  0  0  0  0  0  0  0  0
   10.7698  -17.0024   21.8722 C   0  0  0  0  0  0  0  0  0  0  0  0
   11.4457  -15.9431   21.8547 O   0  0  0  0  0  0  0  0  0  0  0  0
   12.6628  -19.8560   29.8251 N   0  0  0  0  0  0  0  0  0  0  0  0
   11.9549  -20.0734   28.6142 C   0  0  0  0  0  0  0  0  0  0  0  0
   11.1311  -21.0888   28.5397 N   0  0  0  0  0  0  0  0  0  0  0  0
   12.1152  -19.2186   27.4812 N   0  0  0  0  0  0  0  0  0  0  0  0
   12.4767  -19.7803   26.2001 C   0  0  0  0  0  0  0  0  0  0  0  0
   12.4232  -18.7604   25.0952 C   0  0  0  0  0  0  0  0  0  0  0  0
   12.8457  -19.2824   23.7722 C   0  0  0  0  0  0  0  0  0  0  0  0
   12.7879  -18.3266   22.6344 C   0  0  2  0  0  0  0  0  0  0  0  0
   11.3865  -18.2367   22.2169 N   0  0  0  0  0  0  0  0  0  0  0  0
   13.5892  -18.8349   21.4804 C   0  0  0  0  0  0  0  0  0  0  0  0
   14.8920  -18.4449   21.2283 O   0  0  0  0  0  0  0  0  0  0  0  0
   13.0627  -19.6576   20.6934 O   0  0  0  0  0  0  0  0  0  0  0  0
  2  1  1  0
  3  2  2  0
  4  3  1  0
  5 11  1  0
  5  4  2  0
  6  5  1  0
  7  6  1  0
  7  8  1  1
  9  7  1  0
  9 19  1  0
 10  9  2  0
 11 12  2  0
 12  2  1  0
 13 14  1  0
 14 15  2  0
 16 14  1  0
 16 17  1  0
 18 17  1  6
 18 19  1  0
 18 20  1  0
 20 21  2  0
 20 30  1  0
 22 23  1  0
 23 24  2  0
 23 25  1  0
 25 26  1  0
 26 27  1  0
 28 27  1  0
 29 28  1  1
 29 31  1  0
 30 29  1  0
 31 33  2  0
 31 32  1  0
M  END
$$$$
