YQR.pdb
     RDKit          3D

 33 33  0  0  1  0  0  0  0  0999 V2000
    7.7134  -11.6479   17.2493 O   0  0  0  0  0  0  0  0  0  0  0  0
    7.8301  -12.5242   18.3266 C   0  0  0  0  0  0  0  0  0  0  0  0
    7.2847  -13.7821   18.1992 C   0  0  0  0  0  0  0  0  0  0  0  0
    7.3760  -14.6972   19.2525 C   0  0  0  0  0  0  0  0  0  0  0  0
    8.0019  -14.3647   20.4169 C   0  0  0  0  0  0  0  0  0  0  0  0
    8.0893  -15.3377   21.5208 C   0  0  0  0  0  0  0  0  0  0  0  0
    9.5141  -15.7985   21.7058 C   0  0  2  0  0  0  0  0  0  0  0  0
   10.0501  -16.1610   20.4266 N   0  0  0  0  0  0  0  0  0  0  0  0
    9.6314  -16.8891   22.6977 C   0  0  0  0  0  0  0  0  0  0  0  0
    9.1179  -16.8088   23.8632 O   0  0  0  0  0  0  0  0  0  0  0  0
    8.5461  -13.1086   20.5427 C   0  0  0  0  0  0  0  0  0  0  0  0
    8.4647  -12.1821   19.5023 C   0  0  0  0  0  0  0  0  0  0  0  0
   11.1085  -22.8071   21.3080 N   0  0  0  0  0  0  0  0  0  0  0  0
   11.1626  -22.8647   22.7182 C   0  0  0  0  0  0  0  0  0  0  0  0
   11.3605  -23.9501   23.2945 O   0  0  0  0  0  0  0  0  0  0  0  0
   10.9825  -21.6253   23.5004 C   0  0  0  0  0  0  0  0  0  0  0  0
   10.7728  -20.4714   22.5636 C   0  0  0  0  0  0  0  0  0  0  0  0
   10.5505  -19.1624   23.2950 C   0  0  2  0  0  0  0  0  0  0  0  0
   10.3256  -18.0789   22.3900 N   0  0  0  0  0  0  0  0  0  0  0  0
   11.6813  -18.9206   24.2179 C   0  0  0  0  0  0  0  0  0  0  0  0
   12.8630  -18.9466   23.7910 O   0  0  0  0  0  0  0  0  0  0  0  0
   10.9533  -20.7203   32.4198 N   0  0  0  0  0  0  0  0  0  0  0  0
   12.0356  -21.5608   32.0499 C   0  0  0  0  0  0  0  0  0  0  0  0
   12.8611  -21.9710   32.9802 N   0  0  0  0  0  0  0  0  0  0  0  0
   12.2469  -21.9699   30.6979 N   0  0  0  0  0  0  0  0  0  0  0  0
   11.4719  -21.3727   29.6348 C   0  0  0  0  0  0  0  0  0  0  0  0
   12.3111  -20.5059   28.7356 C   0  0  0  0  0  0  0  0  0  0  0  0
   11.5505  -19.8668   27.6336 C   0  0  0  0  0  0  0  0  0  0  0  0
   12.3423  -19.0730   26.6565 C   0  0  2  0  0  0  0  0  0  0  0  0
   11.4248  -18.6591   25.5921 N   0  0  0  0  0  0  0  0  0  0  0  0
   13.4184  -19.9119   26.0480 C   0  0  0  0  0  0  0  0  0  0  0  0
   14.7656  -19.6184   26.1576 O   0  0  0  0  0  0  0  0  0  0  0  0
   13.0943  -20.9372   25.4021 O   0  0  0  0  0  0  0  0  0  0  0  0
  2  1  1  0
  3  2  2  0
  4  3  1  0
  5 11  1  0
  5  4  2  0
  6  5  1  0
  7  6  1  0
  7  8  1  6
  9  7  1  0
  9 19  1  0
 10  9  2  0
 11 12  2  0
 12  2  1  0
 13 14  1  0
 14 15  2  0
 16 14  1  0
 16 17  1  0
 18 17  1  6
 18 19  1  0
 18 20  1  0
 20 21  2  0
 20 30  1  0
 22 23  1  0
 23 24  2  0
 23 25  1  0
 25 26  1  0
 26 27  1  0
 28 27  1  0
 29 28  1  1
 29 31  1  0
 30 29  1  0
 31 33  2  0
 31 32  1  0
M  END
$$$$
