YQR.pdb
     RDKit          3D

 33 33  0  0  1  0  0  0  0  0999 V2000
    5.5171  -10.3975   28.0185 O   0  0  0  0  0  0  0  0  0  0  0  0
    6.1181  -11.5179   27.4479 C   0  0  0  0  0  0  0  0  0  0  0  0
    5.9595  -12.7301   28.0813 C   0  0  0  0  0  0  0  0  0  0  0  0
    6.5433  -13.8832   27.5477 C   0  0  0  0  0  0  0  0  0  0  0  0
    7.2752  -13.8303   26.3989 C   0  0  0  0  0  0  0  0  0  0  0  0
    7.8876  -15.0527   25.8479 C   0  0  0  0  0  0  0  0  0  0  0  0
    6.9300  -15.7454   24.9100 C   0  0  2  0  0  0  0  0  0  0  0  0
    6.4157  -16.9154   25.5594 N   0  0  0  0  0  0  0  0  0  0  0  0
    7.5432  -16.0497   23.5990 C   0  0  0  0  0  0  0  0  0  0  0  0
    8.1258  -17.1595   23.3601 O   0  0  0  0  0  0  0  0  0  0  0  0
    7.4327  -12.6194   25.7675 C   0  0  0  0  0  0  0  0  0  0  0  0
    6.8575  -11.4582   26.2853 C   0  0  0  0  0  0  0  0  0  0  0  0
    6.8515  -12.7091   18.4764 N   0  0  0  0  0  0  0  0  0  0  0  0
    8.0226  -13.4118   18.1167 C   0  0  0  0  0  0  0  0  0  0  0  0
    8.3722  -13.4794   16.9240 O   0  0  0  0  0  0  0  0  0  0  0  0
    8.8269  -14.0642   19.1692 C   0  0  0  0  0  0  0  0  0  0  0  0
    8.1105  -13.9538   20.4836 C   0  0  0  0  0  0  0  0  0  0  0  0
    8.2590  -15.2007   21.3327 C   0  0  2  0  0  0  0  0  0  0  0  0
    7.5074  -15.1111   22.5455 N   0  0  0  0  0  0  0  0  0  0  0  0
    9.6962  -15.4679   21.5607 C   0  0  0  0  0  0  0  0  0  0  0  0
   10.3382  -14.7956   22.4063 O   0  0  0  0  0  0  0  0  0  0  0  0
   12.9477  -23.3467   22.7492 N   0  0  0  0  0  0  0  0  0  0  0  0
   14.0566  -22.4776   22.9221 C   0  0  0  0  0  0  0  0  0  0  0  0
   15.1505  -22.9523   23.4634 N   0  0  0  0  0  0  0  0  0  0  0  0
   14.0120  -21.1070   22.5227 N   0  0  0  0  0  0  0  0  0  0  0  0
   12.7745  -20.5362   22.0429 C   0  0  0  0  0  0  0  0  0  0  0  0
   12.9207  -19.0837   21.6782 C   0  0  0  0  0  0  0  0  0  0  0  0
   11.6314  -18.3905   21.4358 C   0  0  0  0  0  0  0  0  0  0  0  0
   11.7092  -16.9387   21.1231 C   0  0  2  0  0  0  0  0  0  0  0  0
   10.3488  -16.4896   20.8171 N   0  0  0  0  0  0  0  0  0  0  0  0
   12.5619  -16.7061   19.9186 C   0  0  0  0  0  0  0  0  0  0  0  0
   13.9360  -16.5588   19.9760 O   0  0  0  0  0  0  0  0  0  0  0  0
   12.0135  -16.6388   18.7925 O   0  0  0  0  0  0  0  0  0  0  0  0
  2  1  1  0
  3  2  2  0
  4  3  1  0
  5 11  1  0
  5  4  2  0
  6  5  1  0
  7  6  1  0
  7  8  1  1
  9  7  1  0
  9 19  1  0
 10  9  2  0
 11 12  2  0
 12  2  1  0
 13 14  1  0
 14 15  2  0
 16 14  1  0
 16 17  1  0
 18 17  1  1
 18 19  1  0
 18 20  1  0
 20 21  2  0
 20 30  1  0
 22 23  1  0
 23 24  2  0
 23 25  1  0
 25 26  1  0
 26 27  1  0
 28 27  1  0
 29 28  1  6
 29 31  1  0
 30 29  1  0
 31 33  2  0
 31 32  1  0
M  END
$$$$
