IWF.pdb
     RDKit          3D

 34 36  0  0  1  0  0  0  0  0999 V2000
   13.6109  -20.8257   22.2151 C   0  0  0  0  0  0  0  0  0  0  0  0
   13.1400  -19.5398   21.5770 C   0  0  0  0  0  0  0  0  0  0  0  0
   11.8582  -19.7056   20.7900 C   0  0  2  0  0  0  0  0  0  0  0  0
   12.0778  -20.7414   19.7145 C   0  0  0  0  0  0  0  0  0  0  0  0
   11.4881  -18.3920   20.1809 C   0  0  2  0  0  0  0  0  0  0  0  0
   12.5439  -17.9007   19.3535 N   0  0  0  0  0  0  0  0  0  0  0  0
   11.0846  -17.3889   21.2256 C   0  0  0  0  0  0  0  0  0  0  0  0
   11.9417  -16.5879   21.6771 O   0  0  0  0  0  0  0  0  0  0  0  0
    9.7705  -17.3111   21.7227 N   0  0  0  0  0  0  0  0  0  0  0  0
    9.4452  -16.3692   22.8236 C   0  0  1  0  0  0  0  0  0  0  0  0
    8.1813  -15.6611   22.4415 C   0  0  0  0  0  0  0  0  0  0  0  0
    7.8990  -14.4261   23.1871 C   0  0  0  0  0  0  0  0  0  0  0  0
    8.3322  -13.1326   22.9377 C   0  0  0  0  0  0  0  0  0  0  0  0
    7.8687  -12.2871   23.8740 N   0  0  0  0  0  0  0  0  0  0  0  0
    7.1248  -13.0086   24.7530 C   0  0  0  0  0  0  0  0  0  0  0  0
    6.4318  -12.6468   25.8837 C   0  0  0  0  0  0  0  0  0  0  0  0
    5.7604  -13.6113   26.5845 C   0  0  0  0  0  0  0  0  0  0  0  0
    5.7601  -14.9132   26.1945 C   0  0  0  0  0  0  0  0  0  0  0  0
    6.4567  -15.2773   25.0578 C   0  0  0  0  0  0  0  0  0  0  0  0
    7.1336  -14.3209   24.3461 C   0  0  0  0  0  0  0  0  0  0  0  0
    9.2747  -17.1347   24.0470 C   0  0  0  0  0  0  0  0  0  0  0  0
    8.8774  -18.3511   23.9273 O   0  0  0  0  0  0  0  0  0  0  0  0
    9.5032  -16.6930   25.3646 N   0  0  0  0  0  0  0  0  0  0  0  0
    9.5194  -17.6728   26.4427 C   0  0  1  0  0  0  0  0  0  0  0  0
    9.2940  -16.8355   27.7079 C   0  0  0  0  0  0  0  0  0  0  0  0
   10.0934  -15.6155   27.6065 C   0  0  0  0  0  0  0  0  0  0  0  0
    9.8093  -14.5294   28.4074 C   0  0  0  0  0  0  0  0  0  0  0  0
   10.5567  -13.3697   28.3606 C   0  0  0  0  0  0  0  0  0  0  0  0
   11.6094  -13.3242   27.4802 C   0  0  0  0  0  0  0  0  0  0  0  0
   11.9220  -14.4058   26.6571 C   0  0  0  0  0  0  0  0  0  0  0  0
   11.1495  -15.5541   26.7314 C   0  0  0  0  0  0  0  0  0  0  0  0
    8.4201  -18.6334   26.3357 C   0  0  0  0  0  0  0  0  0  0  0  0
    7.4562  -18.4941   25.5309 O   0  0  0  0  0  0  0  0  0  0  0  0
    8.3549  -19.7922   27.1260 O   0  0  0  0  0  0  0  0  0  0  0  0
  2  1  1  0
  3  5  1  0
  3  2  1  0
  3  4  1  6
  5  6  1  1
  7  5  1  0
  8  7  2  0
  9  7  1  0
 10 21  1  0
 10  9  1  0
 10 11  1  6
 12 11  1  0
 13 12  2  0
 14 15  1  0
 14 13  1  0
 15 20  2  0
 16 17  2  0
 16 15  1  0
 17 18  1  0
 18 19  2  0
 20 19  1  0
 20 12  1  0
 21 22  2  0
 23 24  1  0
 23 21  1  0
 24 25  1  1
 25 26  1  0
 26 27  2  0
 27 28  1  0
 29 28  2  0
 30 29  1  0
 31 26  1  0
 31 30  2  0
 32 34  1  0
 32 24  1  0
 33 32  2  0
M  END
$$$$
