IWF.pdb
     RDKit          3D

 34 36  0  0  1  0  0  0  0  0999 V2000
   14.7420  -18.0792   18.9569 C   0  0  0  0  0  0  0  0  0  0  0  0
   13.2781  -18.3348   19.2298 C   0  0  0  0  0  0  0  0  0  0  0  0
   12.8122  -17.7525   20.5464 C   0  0  2  0  0  0  0  0  0  0  0  0
   12.6086  -18.8776   21.5316 C   0  0  0  0  0  0  0  0  0  0  0  0
   11.5314  -17.0146   20.3259 C   0  0  2  0  0  0  0  0  0  0  0  0
   11.6969  -15.9942   19.3399 N   0  0  0  0  0  0  0  0  0  0  0  0
   10.9784  -16.4647   21.6112 C   0  0  0  0  0  0  0  0  0  0  0  0
   11.4725  -15.4165   22.0984 O   0  0  0  0  0  0  0  0  0  0  0  0
    9.9175  -17.0843   22.2972 N   0  0  0  0  0  0  0  0  0  0  0  0
    9.3847  -16.4816   23.5453 C   0  0  1  0  0  0  0  0  0  0  0  0
    7.8898  -16.5344   23.4593 C   0  0  0  0  0  0  0  0  0  0  0  0
    7.1703  -15.8974   24.5718 C   0  0  0  0  0  0  0  0  0  0  0  0
    6.4279  -16.4834   25.5860 C   0  0  0  0  0  0  0  0  0  0  0  0
    5.9079  -15.5462   26.3969 N   0  0  0  0  0  0  0  0  0  0  0  0
    6.2986  -14.3310   25.9309 C   0  0  0  0  0  0  0  0  0  0  0  0
    6.0524  -13.0539   26.3758 C   0  0  0  0  0  0  0  0  0  0  0  0
    6.5888  -11.9994   25.6884 C   0  0  0  0  0  0  0  0  0  0  0  0
    7.3560  -12.1796   24.5812 C   0  0  0  0  0  0  0  0  0  0  0  0
    7.6038  -13.4635   24.1336 C   0  0  0  0  0  0  0  0  0  0  0  0
    7.0725  -14.5291   24.8131 C   0  0  0  0  0  0  0  0  0  0  0  0
    9.8782  -17.2526   24.6740 C   0  0  0  0  0  0  0  0  0  0  0  0
   10.0278  -18.5172   24.5000 O   0  0  0  0  0  0  0  0  0  0  0  0
   10.2208  -16.7662   25.9504 N   0  0  0  0  0  0  0  0  0  0  0  0
   10.7360  -17.6988   26.9441 C   0  0  1  0  0  0  0  0  0  0  0  0
   10.9978  -16.8217   28.1749 C   0  0  0  0  0  0  0  0  0  0  0  0
   10.8866  -15.4188   27.7782 C   0  0  0  0  0  0  0  0  0  0  0  0
   11.7947  -14.8714   26.8965 C   0  0  0  0  0  0  0  0  0  0  0  0
   11.7083  -13.5591   26.4771 C   0  0  0  0  0  0  0  0  0  0  0  0
   10.6762  -12.7987   26.9692 C   0  0  0  0  0  0  0  0  0  0  0  0
    9.7420  -13.3233   27.8619 C   0  0  0  0  0  0  0  0  0  0  0  0
    9.8603  -14.6452   28.2610 C   0  0  0  0  0  0  0  0  0  0  0  0
    9.7495  -18.7144   27.3156 C   0  0  0  0  0  0  0  0  0  0  0  0
    9.9773  -19.6212   28.1653 O   0  0  0  0  0  0  0  0  0  0  0  0
    8.4646  -18.7562   26.7509 O   0  0  0  0  0  0  0  0  0  0  0  0
  2  1  1  0
  3  5  1  0
  3  2  1  0
  3  4  1  1
  5  6  1  6
  7  5  1  0
  8  7  2  0
  9  7  1  0
 10 21  1  0
 10  9  1  0
 10 11  1  6
 12 11  1  0
 13 12  2  0
 14 15  1  0
 14 13  1  0
 15 20  2  0
 16 17  2  0
 16 15  1  0
 17 18  1  0
 18 19  2  0
 20 19  1  0
 20 12  1  0
 21 22  2  0
 23 24  1  0
 23 21  1  0
 24 25  1  1
 25 26  1  0
 26 27  2  0
 27 28  1  0
 29 28  2  0
 30 29  1  0
 31 26  1  0
 31 30  2  0
 32 34  1  0
 32 24  1  0
 33 32  2  0
M  END
$$$$
