IWF.pdb
     RDKit          3D

 34 36  0  0  1  0  0  0  0  0999 V2000
   13.3176  -21.1379   21.0733 C   0  0  0  0  0  0  0  0  0  0  0  0
   12.0175  -20.4355   20.7589 C   0  0  0  0  0  0  0  0  0  0  0  0
   11.8761  -19.1078   21.4709 C   0  0  2  0  0  0  0  0  0  0  0  0
   12.0226  -19.3336   22.9559 C   0  0  0  0  0  0  0  0  0  0  0  0
   10.5329  -18.5304   21.1613 C   0  0  2  0  0  0  0  0  0  0  0  0
   10.3223  -18.4634   19.7499 N   0  0  0  0  0  0  0  0  0  0  0  0
   10.3379  -17.1926   21.8191 C   0  0  0  0  0  0  0  0  0  0  0  0
   10.9317  -16.1849   21.3585 O   0  0  0  0  0  0  0  0  0  0  0  0
    9.5073  -17.0230   22.9422 N   0  0  0  0  0  0  0  0  0  0  0  0
    9.3675  -15.6846   23.5698 C   0  0  1  0  0  0  0  0  0  0  0  0
    7.9069  -15.3506   23.5798 C   0  0  0  0  0  0  0  0  0  0  0  0
    7.2934  -15.1602   22.2576 C   0  0  0  0  0  0  0  0  0  0  0  0
    6.3725  -15.9578   21.5949 C   0  0  0  0  0  0  0  0  0  0  0  0
    6.0798  -15.4438   20.3881 N   0  0  0  0  0  0  0  0  0  0  0  0
    6.8015  -14.3024   20.2369 C   0  0  0  0  0  0  0  0  0  0  0  0
    6.8819  -13.3960   19.2067 C   0  0  0  0  0  0  0  0  0  0  0  0
    7.7137  -12.3176   19.3383 C   0  0  0  0  0  0  0  0  0  0  0  0
    8.4604  -12.1189   20.4562 C   0  0  0  0  0  0  0  0  0  0  0  0
    8.3798  -13.0300   21.4923 C   0  0  0  0  0  0  0  0  0  0  0  0
    7.5501  -14.1148   21.3736 C   0  0  0  0  0  0  0  0  0  0  0  0
    9.9050  -15.7517   24.9183 C   0  0  0  0  0  0  0  0  0  0  0  0
   11.0238  -15.1571   25.1339 O   0  0  0  0  0  0  0  0  0  0  0  0
    9.3309  -16.3966   26.0307 N   0  0  0  0  0  0  0  0  0  0  0  0
    9.9489  -16.2271   27.3391 C   0  0  1  0  0  0  0  0  0  0  0  0
    8.7945  -15.7654   28.2373 C   0  0  0  0  0  0  0  0  0  0  0  0
    8.2878  -14.4928   27.7258 C   0  0  0  0  0  0  0  0  0  0  0  0
    9.0255  -13.3380   27.8802 C   0  0  0  0  0  0  0  0  0  0  0  0
    8.5943  -12.1224   27.3883 C   0  0  0  0  0  0  0  0  0  0  0  0
    7.3901  -12.0918   26.7292 C   0  0  0  0  0  0  0  0  0  0  0  0
    6.6210  -13.2423   26.5568 C   0  0  0  0  0  0  0  0  0  0  0  0
    7.0857  -14.4454   27.0642 C   0  0  0  0  0  0  0  0  0  0  0  0
   10.4628  -17.4875   27.8773 C   0  0  0  0  0  0  0  0  0  0  0  0
   11.0247  -17.5798   29.0051 O   0  0  0  0  0  0  0  0  0  0  0  0
   10.3678  -18.6993   27.1742 O   0  0  0  0  0  0  0  0  0  0  0  0
  2  1  1  0
  3  5  1  0
  3  2  1  0
  3  4  1  1
  5  6  1  6
  7  5  1  0
  8  7  2  0
  9  7  1  0
 10 21  1  0
 10  9  1  0
 10 11  1  1
 12 11  1  0
 13 12  2  0
 14 15  1  0
 14 13  1  0
 15 20  2  0
 16 17  2  0
 16 15  1  0
 17 18  1  0
 18 19  2  0
 20 19  1  0
 20 12  1  0
 21 22  2  0
 23 24  1  0
 23 21  1  0
 24 25  1  1
 25 26  1  0
 26 27  2  0
 27 28  1  0
 29 28  2  0
 30 29  1  0
 31 26  1  0
 31 30  2  0
 32 34  1  0
 32 24  1  0
 33 32  2  0
M  END
$$$$
