IWF.pdb
     RDKit          3D

 34 36  0  0  1  0  0  0  0  0999 V2000
    7.1344  -12.7903   17.1586 C   0  0  0  0  0  0  0  0  0  0  0  0
    8.0794  -13.8363   17.7024 C   0  0  0  0  0  0  0  0  0  0  0  0
    8.2065  -13.7913   19.2096 C   0  0  2  0  0  0  0  0  0  0  0  0
    8.8393  -12.4797   19.6059 C   0  0  0  0  0  0  0  0  0  0  0  0
    9.0541  -14.9365   19.6606 C   0  0  2  0  0  0  0  0  0  0  0  0
    8.4943  -16.1803   19.2362 N   0  0  0  0  0  0  0  0  0  0  0  0
    9.2849  -14.9059   21.1460 C   0  0  0  0  0  0  0  0  0  0  0  0
    9.9219  -13.9481   21.6530 O   0  0  0  0  0  0  0  0  0  0  0  0
    8.8101  -15.9187   21.9998 N   0  0  0  0  0  0  0  0  0  0  0  0
    9.0404  -15.8272   23.4638 C   0  0  1  0  0  0  0  0  0  0  0  0
    7.8881  -16.5086   24.1367 C   0  0  0  0  0  0  0  0  0  0  0  0
    6.9508  -15.6196   24.8383 C   0  0  0  0  0  0  0  0  0  0  0  0
    5.8635  -15.9447   25.6353 C   0  0  0  0  0  0  0  0  0  0  0  0
    5.2460  -14.8342   26.0731 N   0  0  0  0  0  0  0  0  0  0  0  0
    5.9150  -13.7625   25.5726 C   0  0  0  0  0  0  0  0  0  0  0  0
    5.7121  -12.4093   25.7043 C   0  0  0  0  0  0  0  0  0  0  0  0
    6.5657  -11.5481   25.0705 C   0  0  0  0  0  0  0  0  0  0  0  0
    7.6055  -11.9925   24.3167 C   0  0  0  0  0  0  0  0  0  0  0  0
    7.8099  -13.3529   24.1841 C   0  0  0  0  0  0  0  0  0  0  0  0
    6.9622  -14.2269   24.8140 C   0  0  0  0  0  0  0  0  0  0  0  0
   10.2988  -16.4853   23.7723 C   0  0  0  0  0  0  0  0  0  0  0  0
   10.4761  -17.6653   23.2948 O   0  0  0  0  0  0  0  0  0  0  0  0
   11.3616  -15.9699   24.5392 N   0  0  0  0  0  0  0  0  0  0  0  0
   12.0100  -16.8357   25.5152 C   0  0  1  0  0  0  0  0  0  0  0  0
   10.9364  -17.0530   26.5889 C   0  0  0  0  0  0  0  0  0  0  0  0
   10.8431  -15.8431   27.4045 C   0  0  0  0  0  0  0  0  0  0  0  0
   11.9451  -15.0315   27.5732 C   0  0  0  0  0  0  0  0  0  0  0  0
   11.8908  -13.8675   28.3134 C   0  0  0  0  0  0  0  0  0  0  0  0
   10.6895  -13.5322   28.8878 C   0  0  0  0  0  0  0  0  0  0  0  0
    9.5572  -14.3320   28.7355 C   0  0  0  0  0  0  0  0  0  0  0  0
    9.6491  -15.4937   27.9854 C   0  0  0  0  0  0  0  0  0  0  0  0
   12.3572  -18.1421   24.9536 C   0  0  0  0  0  0  0  0  0  0  0  0
   11.8123  -18.6158   23.9169 O   0  0  0  0  0  0  0  0  0  0  0  0
   13.3312  -18.9731   25.5301 O   0  0  0  0  0  0  0  0  0  0  0  0
  2  1  1  0
  3  5  1  0
  3  2  1  0
  3  4  1  6
  5  6  1  1
  7  5  1  0
  8  7  2  0
  9  7  1  0
 10 21  1  0
 10  9  1  0
 10 11  1  1
 12 11  1  0
 13 12  2  0
 14 15  1  0
 14 13  1  0
 15 20  2  0
 16 17  2  0
 16 15  1  0
 17 18  1  0
 18 19  2  0
 20 19  1  0
 20 12  1  0
 21 22  2  0
 23 24  1  0
 23 21  1  0
 24 25  1  1
 25 26  1  0
 26 27  2  0
 27 28  1  0
 29 28  2  0
 30 29  1  0
 31 26  1  0
 31 30  2  0
 32 34  1  0
 32 24  1  0
 33 32  2  0
M  END
$$$$
