IWF.pdb
     RDKit          3D

 34 36  0  0  1  0  0  0  0  0999 V2000
   11.8367  -18.5479   16.7577 C   0  0  0  0  0  0  0  0  0  0  0  0
   10.5020  -18.1268   17.3269 C   0  0  0  0  0  0  0  0  0  0  0  0
   10.6159  -17.5036   18.7012 C   0  0  2  0  0  0  0  0  0  0  0  0
   11.3450  -18.4617   19.6113 C   0  0  0  0  0  0  0  0  0  0  0  0
    9.2439  -17.2282   19.2256 C   0  0  2  0  0  0  0  0  0  0  0  0
    8.4881  -16.4575   18.2899 N   0  0  0  0  0  0  0  0  0  0  0  0
    9.2869  -16.5768   20.5799 C   0  0  0  0  0  0  0  0  0  0  0  0
    9.9431  -15.5159   20.7350 O   0  0  0  0  0  0  0  0  0  0  0  0
    8.6135  -17.1142   21.6924 N   0  0  0  0  0  0  0  0  0  0  0  0
    8.6186  -16.3887   22.9880 C   0  0  1  0  0  0  0  0  0  0  0  0
    7.4200  -16.8510   23.7590 C   0  0  0  0  0  0  0  0  0  0  0  0
    6.8202  -15.8507   24.6538 C   0  0  0  0  0  0  0  0  0  0  0  0
    5.8109  -16.0062   25.5920 C   0  0  0  0  0  0  0  0  0  0  0  0
    5.5326  -14.8349   26.1895 N   0  0  0  0  0  0  0  0  0  0  0  0
    6.3521  -13.8916   25.6556 C   0  0  0  0  0  0  0  0  0  0  0  0
    6.4854  -12.5455   25.9003 C   0  0  0  0  0  0  0  0  0  0  0  0
    7.4156  -11.8339   25.1928 C   0  0  0  0  0  0  0  0  0  0  0  0
    8.2087  -12.4197   24.2576 C   0  0  0  0  0  0  0  0  0  0  0  0
    8.0750  -13.7730   24.0112 C   0  0  0  0  0  0  0  0  0  0  0  0
    7.1470  -14.4979   24.7132 C   0  0  0  0  0  0  0  0  0  0  0  0
    9.8529  -16.7060   23.6866 C   0  0  0  0  0  0  0  0  0  0  0  0
   10.4138  -17.8278   23.4062 O   0  0  0  0  0  0  0  0  0  0  0  0
   10.5158  -15.9129   24.6430 N   0  0  0  0  0  0  0  0  0  0  0  0
   11.7658  -16.3967   25.2142 C   0  0  1  0  0  0  0  0  0  0  0  0
   12.3301  -15.1788   25.9562 C   0  0  0  0  0  0  0  0  0  0  0  0
   11.3823  -14.7898   26.9995 C   0  0  0  0  0  0  0  0  0  0  0  0
   10.3697  -13.8961   26.7209 C   0  0  0  0  0  0  0  0  0  0  0  0
    9.4395  -13.5242   27.6707 C   0  0  0  0  0  0  0  0  0  0  0  0
    9.5503  -14.0769   28.9228 C   0  0  0  0  0  0  0  0  0  0  0  0
   10.5630  -14.9834   29.2354 C   0  0  0  0  0  0  0  0  0  0  0  0
   11.4793  -15.3336   28.2564 C   0  0  0  0  0  0  0  0  0  0  0  0
   11.5518  -17.4627   26.1943 C   0  0  0  0  0  0  0  0  0  0  0  0
   10.4062  -17.8139   26.5947 O   0  0  0  0  0  0  0  0  0  0  0  0
   12.6135  -18.1816   26.7668 O   0  0  0  0  0  0  0  0  0  0  0  0
  2  1  1  0
  3  5  1  0
  3  2  1  0
  3  4  1  1
  5  6  1  6
  7  5  1  0
  8  7  2  0
  9  7  1  0
 10 21  1  0
 10  9  1  0
 10 11  1  1
 12 11  1  0
 13 12  2  0
 14 15  1  0
 14 13  1  0
 15 20  2  0
 16 17  2  0
 16 15  1  0
 17 18  1  0
 18 19  2  0
 20 19  1  0
 20 12  1  0
 21 22  2  0
 23 24  1  0
 23 21  1  0
 24 25  1  1
 25 26  1  0
 26 27  2  0
 27 28  1  0
 29 28  2  0
 30 29  1  0
 31 26  1  0
 31 30  2  0
 32 34  1  0
 32 24  1  0
 33 32  2  0
M  END
$$$$
