IWF.pdb
     RDKit          3D

 34 36  0  0  1  0  0  0  0  0999 V2000
   12.8999  -19.0703   17.3953 C   0  0  0  0  0  0  0  0  0  0  0  0
   11.9140  -19.5953   18.4126 C   0  0  0  0  0  0  0  0  0  0  0  0
   11.7460  -18.6751   19.6021 C   0  0  2  0  0  0  0  0  0  0  0  0
   11.6378  -19.5117   20.8535 C   0  0  0  0  0  0  0  0  0  0  0  0
   10.5097  -17.8570   19.4134 C   0  0  2  0  0  0  0  0  0  0  0  0
   10.6087  -17.0514   18.2378 N   0  0  0  0  0  0  0  0  0  0  0  0
   10.1979  -17.0320   20.6310 C   0  0  0  0  0  0  0  0  0  0  0  0
   10.9062  -16.0275   20.8950 O   0  0  0  0  0  0  0  0  0  0  0  0
    9.1324  -17.3438   21.4956 N   0  0  0  0  0  0  0  0  0  0  0  0
    8.8795  -16.5089   22.6971 C   0  0  1  0  0  0  0  0  0  0  0  0
    7.4243  -16.6401   23.0291 C   0  0  0  0  0  0  0  0  0  0  0  0
    6.9787  -15.9007   24.2189 C   0  0  0  0  0  0  0  0  0  0  0  0
    6.4420  -16.3849   25.4024 C   0  0  0  0  0  0  0  0  0  0  0  0
    6.1403  -15.3747   26.2360 N   0  0  0  0  0  0  0  0  0  0  0  0
    6.4725  -14.2119   25.6163 C   0  0  0  0  0  0  0  0  0  0  0  0
    6.3752  -12.8993   26.0126 C   0  0  0  0  0  0  0  0  0  0  0  0
    6.7973  -11.9176   25.1580 C   0  0  0  0  0  0  0  0  0  0  0  0
    7.3086  -12.2040   23.9319 C   0  0  0  0  0  0  0  0  0  0  0  0
    7.4067  -13.5236   23.5330 C   0  0  0  0  0  0  0  0  0  0  0  0
    6.9875  -14.5171   24.3796 C   0  0  0  0  0  0  0  0  0  0  0  0
    9.7163  -16.9978   23.7800 C   0  0  0  0  0  0  0  0  0  0  0  0
    9.8015  -18.2719   23.9261 O   0  0  0  0  0  0  0  0  0  0  0  0
   10.4582  -16.2264   24.6953 N   0  0  0  0  0  0  0  0  0  0  0  0
   11.3875  -16.8999   25.5928 C   0  0  1  0  0  0  0  0  0  0  0  0
   12.0606  -15.7535   26.3578 C   0  0  0  0  0  0  0  0  0  0  0  0
   11.1191  -15.2431   27.3533 C   0  0  0  0  0  0  0  0  0  0  0  0
   10.2239  -14.2490   27.0183 C   0  0  0  0  0  0  0  0  0  0  0  0
    9.3019  -13.7592   27.9214 C   0  0  0  0  0  0  0  0  0  0  0  0
    9.2987  -14.2968   29.1849 C   0  0  0  0  0  0  0  0  0  0  0  0
   10.1911  -15.3029   29.5541 C   0  0  0  0  0  0  0  0  0  0  0  0
   11.1030  -15.7702   28.6209 C   0  0  0  0  0  0  0  0  0  0  0  0
   10.7005  -17.7499   26.5666 C   0  0  0  0  0  0  0  0  0  0  0  0
    9.4431  -17.7919   26.6820 O   0  0  0  0  0  0  0  0  0  0  0  0
   11.3941  -18.5902   27.4522 O   0  0  0  0  0  0  0  0  0  0  0  0
  2  1  1  0
  3  5  1  0
  3  2  1  0
  3  4  1  1
  5  6  1  6
  7  5  1  0
  8  7  2  0
  9  7  1  0
 10 21  1  0
 10  9  1  0
 10 11  1  1
 12 11  1  0
 13 12  2  0
 14 15  1  0
 14 13  1  0
 15 20  2  0
 16 17  2  0
 16 15  1  0
 17 18  1  0
 18 19  2  0
 20 19  1  0
 20 12  1  0
 21 22  2  0
 23 24  1  0
 23 21  1  0
 24 25  1  1
 25 26  1  0
 26 27  2  0
 27 28  1  0
 29 28  2  0
 30 29  1  0
 31 26  1  0
 31 30  2  0
 32 34  1  0
 32 24  1  0
 33 32  2  0
M  END
$$$$
