IWF.pdb
     RDKit          3D

 34 36  0  0  1  0  0  0  0  0999 V2000
    9.6643  -22.0444   17.5509 C   0  0  0  0  0  0  0  0  0  0  0  0
    9.4863  -21.7300   19.0179 C   0  0  0  0  0  0  0  0  0  0  0  0
    9.6759  -20.2625   19.3348 C   0  0  2  0  0  0  0  0  0  0  0  0
   11.0981  -19.8743   19.0115 C   0  0  0  0  0  0  0  0  0  0  0  0
    9.3906  -20.0372   20.7843 C   0  0  2  0  0  0  0  0  0  0  0  0
    8.1305  -20.6036   21.1477 N   0  0  0  0  0  0  0  0  0  0  0  0
    9.4734  -18.5805   21.1472 C   0  0  0  0  0  0  0  0  0  0  0  0
   10.2390  -17.8242   20.4975 O   0  0  0  0  0  0  0  0  0  0  0  0
    8.7188  -18.0250   22.1969 N   0  0  0  0  0  0  0  0  0  0  0  0
    8.9445  -16.6174   22.6126 C   0  0  1  0  0  0  0  0  0  0  0  0
    7.6127  -16.0515   23.0010 C   0  0  0  0  0  0  0  0  0  0  0  0
    7.6029  -14.6143   23.3098 C   0  0  0  0  0  0  0  0  0  0  0  0
    7.9995  -13.5450   22.5208 C   0  0  0  0  0  0  0  0  0  0  0  0
    7.8544  -12.3852   23.1842 N   0  0  0  0  0  0  0  0  0  0  0  0
    7.3613  -12.6713   24.4177 C   0  0  0  0  0  0  0  0  0  0  0  0
    7.0318  -11.8691   25.4842 C   0  0  0  0  0  0  0  0  0  0  0  0
    6.5480  -12.4507   26.6243 C   0  0  0  0  0  0  0  0  0  0  0  0
    6.3850  -13.7957   26.7308 C   0  0  0  0  0  0  0  0  0  0  0  0
    6.7161  -14.6026   25.6587 C   0  0  0  0  0  0  0  0  0  0  0  0
    7.2018  -14.0328   24.5103 C   0  0  0  0  0  0  0  0  0  0  0  0
    9.8696  -16.6128   23.7335 C   0  0  0  0  0  0  0  0  0  0  0  0
    9.4268  -17.0417   24.8612 O   0  0  0  0  0  0  0  0  0  0  0  0
   11.2136  -16.1925   23.7241 N   0  0  0  0  0  0  0  0  0  0  0  0
   11.9637  -16.2048   24.9731 C   0  0  1  0  0  0  0  0  0  0  0  0
   10.9297  -16.6326   26.0221 C   0  0  0  0  0  0  0  0  0  0  0  0
   10.6543  -15.4925   26.8952 C   0  0  0  0  0  0  0  0  0  0  0  0
   10.4801  -14.2334   26.3605 C   0  0  0  0  0  0  0  0  0  0  0  0
   10.1924  -13.1368   27.1482 C   0  0  0  0  0  0  0  0  0  0  0  0
   10.0820  -13.3354   28.5024 C   0  0  0  0  0  0  0  0  0  0  0  0
   10.2525  -14.5964   29.0732 C   0  0  0  0  0  0  0  0  0  0  0  0
   10.5405  -15.6744   28.2513 C   0  0  0  0  0  0  0  0  0  0  0  0
   13.0370  -17.2000   24.9657 C   0  0  0  0  0  0  0  0  0  0  0  0
   13.0622  -18.1838   24.1734 O   0  0  0  0  0  0  0  0  0  0  0  0
   14.1291  -17.1343   25.8459 O   0  0  0  0  0  0  0  0  0  0  0  0
  2  1  1  0
  3  5  1  0
  3  2  1  0
  3  4  1  1
  5  6  1  6
  7  5  1  0
  8  7  2  0
  9  7  1  0
 10 21  1  0
 10  9  1  0
 10 11  1  1
 12 11  1  0
 13 12  2  0
 14 15  1  0
 14 13  1  0
 15 20  2  0
 16 17  2  0
 16 15  1  0
 17 18  1  0
 18 19  2  0
 20 19  1  0
 20 12  1  0
 21 22  2  0
 23 24  1  0
 23 21  1  0
 24 25  1  1
 25 26  1  0
 26 27  2  0
 27 28  1  0
 29 28  2  0
 30 29  1  0
 31 26  1  0
 31 30  2  0
 32 34  1  0
 32 24  1  0
 33 32  2  0
M  END
$$$$
