IWF.pdb
     RDKit          3D

 34 36  0  0  1  0  0  0  0  0999 V2000
    6.8856  -12.4726   17.7342 C   0  0  0  0  0  0  0  0  0  0  0  0
    7.3990  -13.8081   18.2196 C   0  0  0  0  0  0  0  0  0  0  0  0
    7.9155  -13.7612   19.6412 C   0  0  2  0  0  0  0  0  0  0  0  0
    9.0257  -12.7420   19.7225 C   0  0  0  0  0  0  0  0  0  0  0  0
    8.4221  -15.1153   20.0195 C   0  0  2  0  0  0  0  0  0  0  0  0
    7.3866  -16.0933   19.9105 N   0  0  0  0  0  0  0  0  0  0  0  0
    9.0463  -15.1130   21.3873 C   0  0  0  0  0  0  0  0  0  0  0  0
    9.9371  -14.2687   21.6589 O   0  0  0  0  0  0  0  0  0  0  0  0
    8.6676  -16.0291   22.3861 N   0  0  0  0  0  0  0  0  0  0  0  0
    9.4224  -16.0927   23.6632 C   0  0  1  0  0  0  0  0  0  0  0  0
    8.4944  -16.6507   24.6987 C   0  0  0  0  0  0  0  0  0  0  0  0
    7.3353  -15.8085   25.0277 C   0  0  0  0  0  0  0  0  0  0  0  0
    6.0111  -16.1742   25.2172 C   0  0  0  0  0  0  0  0  0  0  0  0
    5.2532  -15.0960   25.4807 N   0  0  0  0  0  0  0  0  0  0  0  0
    6.0641  -14.0057   25.4688 C   0  0  0  0  0  0  0  0  0  0  0  0
    5.8110  -12.6702   25.6735 C   0  0  0  0  0  0  0  0  0  0  0  0
    6.8483  -11.7813   25.5965 C   0  0  0  0  0  0  0  0  0  0  0  0
    8.1182  -12.1814   25.3241 C   0  0  0  0  0  0  0  0  0  0  0  0
    8.3731  -13.5241   25.1183 C   0  0  0  0  0  0  0  0  0  0  0  0
    7.3429  -14.4254   25.1927 C   0  0  0  0  0  0  0  0  0  0  0  0
   10.5791  -16.9511   23.4703 C   0  0  0  0  0  0  0  0  0  0  0  0
   10.4414  -17.9507   22.6743 O   0  0  0  0  0  0  0  0  0  0  0  0
   11.8507  -16.8083   24.0584 N   0  0  0  0  0  0  0  0  0  0  0  0
   11.9484  -16.7086   25.5086 C   0  0  1  0  0  0  0  0  0  0  0  0
   10.8869  -15.6658   25.8807 C   0  0  0  0  0  0  0  0  0  0  0  0
   10.9957  -15.3816   27.3109 C   0  0  0  0  0  0  0  0  0  0  0  0
   10.6591  -14.1370   27.8001 C   0  0  0  0  0  0  0  0  0  0  0  0
   10.7227  -13.8377   29.1462 C   0  0  0  0  0  0  0  0  0  0  0  0
   11.1372  -14.8289   30.0013 C   0  0  0  0  0  0  0  0  0  0  0  0
   11.4843  -16.0975   29.5373 C   0  0  0  0  0  0  0  0  0  0  0  0
   11.4082  -16.3620   28.1790 C   0  0  0  0  0  0  0  0  0  0  0  0
   11.6004  -17.9642   26.1756 C   0  0  0  0  0  0  0  0  0  0  0  0
   10.4706  -18.5180   26.0609 O   0  0  0  0  0  0  0  0  0  0  0  0
   12.5049  -18.6536   26.9992 O   0  0  0  0  0  0  0  0  0  0  0  0
  2  1  1  0
  3  5  1  0
  3  2  1  0
  3  4  1  6
  5  6  1  1
  7  5  1  0
  8  7  2  0
  9  7  1  0
 10 21  1  0
 10  9  1  0
 10 11  1  1
 12 11  1  0
 13 12  2  0
 14 15  1  0
 14 13  1  0
 15 20  2  0
 16 17  2  0
 16 15  1  0
 17 18  1  0
 18 19  2  0
 20 19  1  0
 20 12  1  0
 21 22  2  0
 23 24  1  0
 23 21  1  0
 24 25  1  1
 25 26  1  0
 26 27  2  0
 27 28  1  0
 29 28  2  0
 30 29  1  0
 31 26  1  0
 31 30  2  0
 32 34  1  0
 32 24  1  0
 33 32  2  0
M  END
$$$$
