IWF.pdb
     RDKit          3D

 34 36  0  0  1  0  0  0  0  0999 V2000
    8.2627  -12.5401   17.2103 C   0  0  0  0  0  0  0  0  0  0  0  0
    8.4328  -13.8990   17.8484 C   0  0  0  0  0  0  0  0  0  0  0  0
    8.3432  -13.8579   19.3584 C   0  0  2  0  0  0  0  0  0  0  0  0
    9.4646  -12.9989   19.8896 C   0  0  0  0  0  0  0  0  0  0  0  0
    8.4558  -15.2500   19.8903 C   0  0  2  0  0  0  0  0  0  0  0  0
    7.5266  -16.1185   19.2401 N   0  0  0  0  0  0  0  0  0  0  0  0
    8.3032  -15.2877   21.3856 C   0  0  0  0  0  0  0  0  0  0  0  0
    7.4187  -14.5830   21.9346 O   0  0  0  0  0  0  0  0  0  0  0  0
    9.1205  -16.0900   22.2030 N   0  0  0  0  0  0  0  0  0  0  0  0
    9.1654  -15.8571   23.6688 C   0  0  1  0  0  0  0  0  0  0  0  0
    7.9817  -16.5561   24.2646 C   0  0  0  0  0  0  0  0  0  0  0  0
    7.0484  -15.6966   25.0071 C   0  0  0  0  0  0  0  0  0  0  0  0
    5.8277  -16.0182   25.5814 C   0  0  0  0  0  0  0  0  0  0  0  0
    5.2708  -14.9360   26.1514 N   0  0  0  0  0  0  0  0  0  0  0  0
    6.1136  -13.8870   25.9621 C   0  0  0  0  0  0  0  0  0  0  0  0
    6.0346  -12.5662   26.3346 C   0  0  0  0  0  0  0  0  0  0  0  0
    7.0568  -11.7217   25.9968 C   0  0  0  0  0  0  0  0  0  0  0  0
    8.1446  -12.1518   25.3050 C   0  0  0  0  0  0  0  0  0  0  0  0
    8.2245  -13.4797   24.9303 C   0  0  0  0  0  0  0  0  0  0  0  0
    7.2073  -14.3366   25.2626 C   0  0  0  0  0  0  0  0  0  0  0  0
   10.4133  -16.3976   24.1812 C   0  0  0  0  0  0  0  0  0  0  0  0
   10.9739  -17.3295   23.4964 O   0  0  0  0  0  0  0  0  0  0  0  0
   11.0899  -16.0087   25.3534 N   0  0  0  0  0  0  0  0  0  0  0  0
   12.3372  -16.6768   25.7008 C   0  0  1  0  0  0  0  0  0  0  0  0
   12.7706  -15.9973   27.0058 C   0  0  0  0  0  0  0  0  0  0  0  0
   11.5800  -15.4789   27.6778 C   0  0  0  0  0  0  0  0  0  0  0  0
   11.1275  -16.0650   28.8412 C   0  0  0  0  0  0  0  0  0  0  0  0
   10.0235  -15.5889   29.5195 C   0  0  0  0  0  0  0  0  0  0  0  0
    9.3755  -14.4969   28.9968 C   0  0  0  0  0  0  0  0  0  0  0  0
    9.8087  -13.8821   27.8223 C   0  0  0  0  0  0  0  0  0  0  0  0
   10.9210  -14.3876   27.1681 C   0  0  0  0  0  0  0  0  0  0  0  0
   12.1451  -18.1015   25.9764 C   0  0  0  0  0  0  0  0  0  0  0  0
   11.0077  -18.6494   26.0231 O   0  0  0  0  0  0  0  0  0  0  0  0
   13.2206  -18.9735   26.2104 O   0  0  0  0  0  0  0  0  0  0  0  0
  2  1  1  0
  3  5  1  0
  3  2  1  0
  3  4  1  1
  5  6  1  6
  7  5  1  0
  8  7  2  0
  9  7  1  0
 10 21  1  0
 10  9  1  0
 10 11  1  1
 12 11  1  0
 13 12  2  0
 14 15  1  0
 14 13  1  0
 15 20  2  0
 16 17  2  0
 16 15  1  0
 17 18  1  0
 18 19  2  0
 20 19  1  0
 20 12  1  0
 21 22  2  0
 23 24  1  0
 23 21  1  0
 24 25  1  1
 25 26  1  0
 26 27  2  0
 27 28  1  0
 29 28  2  0
 30 29  1  0
 31 26  1  0
 31 30  2  0
 32 34  1  0
 32 24  1  0
 33 32  2  0
M  END
$$$$
