IWF.pdb
     RDKit          3D

 34 36  0  0  1  0  0  0  0  0999 V2000
    6.8567  -13.2565   17.8349 C   0  0  0  0  0  0  0  0  0  0  0  0
    7.6710  -14.3958   18.4020 C   0  0  0  0  0  0  0  0  0  0  0  0
    8.0918  -14.1643   19.8369 C   0  0  2  0  0  0  0  0  0  0  0  0
    8.9944  -12.9558   19.8908 C   0  0  0  0  0  0  0  0  0  0  0  0
    8.8122  -15.3756   20.3340 C   0  0  2  0  0  0  0  0  0  0  0  0
    8.0102  -16.5463   20.1693 N   0  0  0  0  0  0  0  0  0  0  0  0
    9.2677  -15.2065   21.7568 C   0  0  0  0  0  0  0  0  0  0  0  0
   10.0331  -14.2539   22.0517 O   0  0  0  0  0  0  0  0  0  0  0  0
    8.8660  -16.0825   22.7821 N   0  0  0  0  0  0  0  0  0  0  0  0
    9.2311  -15.7955   24.1925 C   0  0  1  0  0  0  0  0  0  0  0  0
    8.1091  -16.2948   25.0507 C   0  0  0  0  0  0  0  0  0  0  0  0
    7.0138  -15.3407   25.2766 C   0  0  0  0  0  0  0  0  0  0  0  0
    5.6449  -15.5629   25.2854 C   0  0  0  0  0  0  0  0  0  0  0  0
    4.9787  -14.4168   25.5066 N   0  0  0  0  0  0  0  0  0  0  0  0
    5.8958  -13.4239   25.6466 C   0  0  0  0  0  0  0  0  0  0  0  0
    5.7621  -12.0765   25.8835 C   0  0  0  0  0  0  0  0  0  0  0  0
    6.8894  -11.3066   25.9769 C   0  0  0  0  0  0  0  0  0  0  0  0
    8.1337  -11.8361   25.8421 C   0  0  0  0  0  0  0  0  0  0  0  0
    8.2686  -13.1908   25.6039 C   0  0  0  0  0  0  0  0  0  0  0  0
    7.1473  -13.9737   25.5083 C   0  0  0  0  0  0  0  0  0  0  0  0
   10.4752  -16.4836   24.4935 C   0  0  0  0  0  0  0  0  0  0  0  0
   10.9976  -17.1887   23.5545 O   0  0  0  0  0  0  0  0  0  0  0  0
   11.1858  -16.4615   25.7092 N   0  0  0  0  0  0  0  0  0  0  0  0
   12.3331  -17.3450   25.8700 C   0  0  1  0  0  0  0  0  0  0  0  0
   13.1212  -16.7218   27.0290 C   0  0  0  0  0  0  0  0  0  0  0  0
   12.1785  -16.0582   27.9284 C   0  0  0  0  0  0  0  0  0  0  0  0
   11.0794  -15.3984   27.4200 C   0  0  0  0  0  0  0  0  0  0  0  0
   10.1525  -14.7826   28.2369 C   0  0  0  0  0  0  0  0  0  0  0  0
   10.3566  -14.8447   29.5933 C   0  0  0  0  0  0  0  0  0  0  0  0
   11.4581  -15.5043   30.1380 C   0  0  0  0  0  0  0  0  0  0  0  0
   12.3681  -16.1113   29.2871 C   0  0  0  0  0  0  0  0  0  0  0  0
   11.9400  -18.6977   26.2677 C   0  0  0  0  0  0  0  0  0  0  0  0
   12.7725  -19.6185   26.5031 O   0  0  0  0  0  0  0  0  0  0  0  0
   10.5963  -19.0759   26.4197 O   0  0  0  0  0  0  0  0  0  0  0  0
  2  1  1  0
  3  5  1  0
  3  2  1  0
  3  4  1  6
  5  6  1  1
  7  5  1  0
  8  7  2  0
  9  7  1  0
 10 21  1  0
 10  9  1  0
 10 11  1  1
 12 11  1  0
 13 12  2  0
 14 15  1  0
 14 13  1  0
 15 20  2  0
 16 17  2  0
 16 15  1  0
 17 18  1  0
 18 19  2  0
 20 19  1  0
 20 12  1  0
 21 22  2  0
 23 24  1  0
 23 21  1  0
 24 25  1  1
 25 26  1  0
 26 27  2  0
 27 28  1  0
 29 28  2  0
 30 29  1  0
 31 26  1  0
 31 30  2  0
 32 34  1  0
 32 24  1  0
 33 32  2  0
M  END
$$$$
