FWP.pdb
     RDKit          3D

 33 36  0  0  1  0  0  0  0  0999 V2000
    8.4836  -17.1473   21.3188 N   0  0  0  0  0  0  0  0  0  0  0  0
    9.7569  -16.5282   21.6680 C   0  0  1  0  0  0  0  0  0  0  0  0
   10.1290  -15.4383   20.7161 C   0  0  0  0  0  0  0  0  0  0  0  0
    9.0275  -14.4891   20.4632 C   0  0  0  0  0  0  0  0  0  0  0  0
    7.8260  -14.6682   21.1173 C   0  0  0  0  0  0  0  0  0  0  0  0
    6.7599  -13.7918   20.8950 C   0  0  0  0  0  0  0  0  0  0  0  0
    6.8831  -12.7357   20.0235 C   0  0  0  0  0  0  0  0  0  0  0  0
    8.0872  -12.5696   19.3786 C   0  0  0  0  0  0  0  0  0  0  0  0
    9.1441  -13.4414   19.6014 C   0  0  0  0  0  0  0  0  0  0  0  0
    9.6870  -15.9582   23.0341 C   0  0  0  0  0  0  0  0  0  0  0  0
   10.0022  -14.7590   23.2058 O   0  0  0  0  0  0  0  0  0  0  0  0
    9.2795  -16.7125   24.1586 N   0  0  0  0  0  0  0  0  0  0  0  0
    9.3648  -16.1364   25.4583 C   0  0  1  0  0  0  0  0  0  0  0  0
    8.0816  -16.3363   26.2575 C   0  0  0  0  0  0  0  0  0  0  0  0
    7.0117  -15.3861   25.8579 C   0  0  0  0  0  0  0  0  0  0  0  0
    5.7973  -15.7803   25.2686 C   0  0  0  0  0  0  0  0  0  0  0  0
    5.0441  -14.6931   25.0680 N   0  0  0  0  0  0  0  0  0  0  0  0
    5.7274  -13.6272   25.5027 C   0  0  0  0  0  0  0  0  0  0  0  0
    5.4553  -12.2608   25.5412 C   0  0  0  0  0  0  0  0  0  0  0  0
    6.3673  -11.3617   26.0475 C   0  0  0  0  0  0  0  0  0  0  0  0
    7.5837  -11.7821   26.5343 C   0  0  0  0  0  0  0  0  0  0  0  0
    7.8547  -13.1309   26.4978 C   0  0  0  0  0  0  0  0  0  0  0  0
    6.9561  -14.0314   25.9986 C   0  0  0  0  0  0  0  0  0  0  0  0
   10.5051  -16.6464   26.2489 C   0  0  0  0  0  0  0  0  0  0  0  0
   11.3535  -17.3272   25.6240 O   0  0  0  0  0  0  0  0  0  0  0  0
   10.7079  -16.4256   27.6339 N   0  0  0  0  0  0  0  0  0  0  0  0
    9.9032  -15.7463   28.5994 C   0  0  0  0  0  0  0  0  0  0  0  0
   10.9196  -15.0580   29.4874 C   0  0  0  0  0  0  0  0  0  0  0  0
   12.2602  -15.6721   29.1633 C   0  0  0  0  0  0  0  0  0  0  0  0
   11.8923  -16.8914   28.3413 C   0  0  1  0  0  0  0  0  0  0  0  0
   11.5778  -18.0266   29.2348 C   0  0  0  0  0  0  0  0  0  0  0  0
   12.5398  -18.6980   29.9678 O   0  0  0  0  0  0  0  0  0  0  0  0
   10.3892  -18.4016   29.3360 O   0  0  0  0  0  0  0  0  0  0  0  0
  2  3  1  0
  2  1  1  6
  3  4  1  0
  4  9  2  0
  5  6  2  0
  5  4  1  0
  6  7  1  0
  7  8  2  0
  9  8  1  0
 10  2  1  0
 10 11  2  0
 12 10  1  0
 13 12  1  0
 13 14  1  1
 15 14  1  0
 15 23  1  0
 16 15  2  0
 17 16  1  0
 17 18  1  0
 18 19  1  0
 18 23  2  0
 19 20  2  0
 20 21  1  0
 22 21  2  0
 23 22  1  0
 24 13  1  0
 24 26  1  0
 25 24  2  0
 26 30  1  0
 27 26  1  0
 27 28  1  0
 28 29  1  0
 30 29  1  0
 31 32  1  0
 30 31  1  1
 33 31  2  0
M  END
$$$$
