FWP.pdb
     RDKit          3D

 33 36  0  0  1  0  0  0  0  0999 V2000
    7.4373  -17.2676   21.0167 N   0  0  0  0  0  0  0  0  0  0  0  0
    8.7898  -16.9264   21.4418 C   0  0  1  0  0  0  0  0  0  0  0  0
    9.4554  -15.9867   20.4898 C   0  0  0  0  0  0  0  0  0  0  0  0
    8.6714  -14.7610   20.2426 C   0  0  0  0  0  0  0  0  0  0  0  0
    9.3340  -13.5581   20.1090 C   0  0  0  0  0  0  0  0  0  0  0  0
    8.6212  -12.3773   19.8817 C   0  0  0  0  0  0  0  0  0  0  0  0
    7.2497  -12.3868   19.7863 C   0  0  0  0  0  0  0  0  0  0  0  0
    6.6028  -13.5936   19.9214 C   0  0  0  0  0  0  0  0  0  0  0  0
    7.3132  -14.7646   20.1470 C   0  0  0  0  0  0  0  0  0  0  0  0
    8.7571  -16.2956   22.7824 C   0  0  0  0  0  0  0  0  0  0  0  0
    8.2641  -15.1511   22.9002 O   0  0  0  0  0  0  0  0  0  0  0  0
    9.2617  -16.9314   23.9402 N   0  0  0  0  0  0  0  0  0  0  0  0
    9.3525  -16.2001   25.1591 C   0  0  1  0  0  0  0  0  0  0  0  0
    8.1421  -16.4328   26.0568 C   0  0  0  0  0  0  0  0  0  0  0  0
    7.0594  -15.4445   25.8151 C   0  0  0  0  0  0  0  0  0  0  0  0
    5.7490  -15.7965   25.4459 C   0  0  0  0  0  0  0  0  0  0  0  0
    5.0170  -14.6814   25.3442 N   0  0  0  0  0  0  0  0  0  0  0  0
    5.8052  -13.6382   25.6313 C   0  0  0  0  0  0  0  0  0  0  0  0
    5.5983  -12.2608   25.6783 C   0  0  0  0  0  0  0  0  0  0  0  0
    6.6171  -11.3928   26.0025 C   0  0  0  0  0  0  0  0  0  0  0  0
    7.8798  -11.8567   26.2919 C   0  0  0  0  0  0  0  0  0  0  0  0
    8.0868  -13.2165   26.2466 C   0  0  0  0  0  0  0  0  0  0  0  0
    7.0822  -14.0862   25.9273 C   0  0  0  0  0  0  0  0  0  0  0  0
   10.5811  -16.4955   25.9265 C   0  0  0  0  0  0  0  0  0  0  0  0
   11.4817  -17.1181   25.3143 O   0  0  0  0  0  0  0  0  0  0  0  0
   10.8130  -16.1323   27.2765 N   0  0  0  0  0  0  0  0  0  0  0  0
   10.0159  -15.3778   28.1912 C   0  0  0  0  0  0  0  0  0  0  0  0
   11.0366  -14.5811   28.9777 C   0  0  0  0  0  0  0  0  0  0  0  0
   12.3838  -15.1942   28.6797 C   0  0  0  0  0  0  0  0  0  0  0  0
   12.0262  -16.4978   27.9939 C   0  0  1  0  0  0  0  0  0  0  0  0
   11.7630  -17.5444   29.0044 C   0  0  0  0  0  0  0  0  0  0  0  0
   12.7581  -18.1083   29.7824 O   0  0  0  0  0  0  0  0  0  0  0  0
   10.5887  -17.9422   29.1672 O   0  0  0  0  0  0  0  0  0  0  0  0
  2  3  1  0
  2  1  1  6
  3  4  1  0
  4  9  2  0
  5  6  2  0
  5  4  1  0
  6  7  1  0
  7  8  2  0
  9  8  1  0
 10  2  1  0
 10 11  2  0
 12 10  1  0
 13 12  1  0
 13 14  1  1
 15 14  1  0
 15 23  1  0
 16 15  2  0
 17 16  1  0
 17 18  1  0
 18 19  1  0
 18 23  2  0
 19 20  2  0
 20 21  1  0
 22 21  2  0
 23 22  1  0
 24 13  1  0
 24 26  1  0
 25 24  2  0
 26 30  1  0
 27 26  1  0
 27 28  1  0
 28 29  1  0
 30 29  1  0
 31 32  1  0
 30 31  1  1
 33 31  2  0
M  END
$$$$
