FWP.pdb
     RDKit          3D

 33 36  0  0  1  0  0  0  0  0999 V2000
   10.6013  -16.1440   20.4000 N   0  0  0  0  0  0  0  0  0  0  0  0
   10.4611  -17.0853   21.5049 C   0  0  1  0  0  0  0  0  0  0  0  0
   11.6738  -17.9429   21.6669 C   0  0  0  0  0  0  0  0  0  0  0  0
   11.8769  -18.8771   20.5425 C   0  0  0  0  0  0  0  0  0  0  0  0
   11.3658  -20.1554   20.6334 C   0  0  0  0  0  0  0  0  0  0  0  0
   11.5467  -21.0675   19.5897 C   0  0  0  0  0  0  0  0  0  0  0  0
   12.2350  -20.7138   18.4533 C   0  0  0  0  0  0  0  0  0  0  0  0
   12.7387  -19.4357   18.3768 C   0  0  0  0  0  0  0  0  0  0  0  0
   12.5575  -18.5321   19.4147 C   0  0  0  0  0  0  0  0  0  0  0  0
   10.2294  -16.3514   22.7713 C   0  0  0  0  0  0  0  0  0  0  0  0
   10.8170  -15.2614   22.9547 O   0  0  0  0  0  0  0  0  0  0  0  0
    9.3708  -16.8301   23.7877 N   0  0  0  0  0  0  0  0  0  0  0  0
    9.3117  -16.1468   25.0359 C   0  0  1  0  0  0  0  0  0  0  0  0
    7.9944  -16.3961   25.7622 C   0  0  0  0  0  0  0  0  0  0  0  0
    6.9803  -15.3501   25.4708 C   0  0  0  0  0  0  0  0  0  0  0  0
    5.6828  -15.6285   25.0058 C   0  0  0  0  0  0  0  0  0  0  0  0
    5.0146  -14.4764   24.8807 N   0  0  0  0  0  0  0  0  0  0  0  0
    5.8311  -13.4799   25.2446 C   0  0  0  0  0  0  0  0  0  0  0  0
    5.6888  -12.0950   25.3093 C   0  0  0  0  0  0  0  0  0  0  0  0
    6.7240  -11.2858   25.7218 C   0  0  0  0  0  0  0  0  0  0  0  0
    7.9398  -11.8181   26.0850 C   0  0  0  0  0  0  0  0  0  0  0  0
    8.0829  -13.1854   26.0224 C   0  0  0  0  0  0  0  0  0  0  0  0
    7.0615  -13.9972   25.6157 C   0  0  0  0  0  0  0  0  0  0  0  0
   10.4294  -16.4883   25.9414 C   0  0  0  0  0  0  0  0  0  0  0  0
   11.3354  -17.2085   25.4577 O   0  0  0  0  0  0  0  0  0  0  0  0
   10.5514  -16.0685   27.2894 N   0  0  0  0  0  0  0  0  0  0  0  0
    9.7051  -15.2424   28.0910 C   0  0  0  0  0  0  0  0  0  0  0  0
   10.6809  -14.4456   28.9324 C   0  0  0  0  0  0  0  0  0  0  0  0
   12.0239  -15.1203   28.7890 C   0  0  0  0  0  0  0  0  0  0  0  0
   11.6783  -16.4420   28.1324 C   0  0  1  0  0  0  0  0  0  0  0  0
   11.2820  -17.4283   29.1601 C   0  0  0  0  0  0  0  0  0  0  0  0
   12.1923  -18.0649   29.9845 O   0  0  0  0  0  0  0  0  0  0  0  0
   10.0697  -17.7035   29.2944 O   0  0  0  0  0  0  0  0  0  0  0  0
  2  3  1  0
  2  1  1  6
  3  4  1  0
  4  9  2  0
  5  6  2  0
  5  4  1  0
  6  7  1  0
  7  8  2  0
  9  8  1  0
 10  2  1  0
 10 11  2  0
 12 10  1  0
 13 12  1  0
 13 14  1  1
 15 14  1  0
 15 23  1  0
 16 15  2  0
 17 16  1  0
 17 18  1  0
 18 19  1  0
 18 23  2  0
 19 20  2  0
 20 21  1  0
 22 21  2  0
 23 22  1  0
 24 13  1  0
 24 26  1  0
 25 24  2  0
 26 30  1  0
 27 26  1  0
 27 28  1  0
 28 29  1  0
 30 29  1  0
 31 32  1  0
 30 31  1  1
 33 31  2  0
M  END
$$$$
