FWP.pdb
     RDKit          3D

 33 36  0  0  1  0  0  0  0  0999 V2000
    8.9828  -18.1550   21.4200 N   0  0  0  0  0  0  0  0  0  0  0  0
    9.0628  -16.7054   21.2833 C   0  0  1  0  0  0  0  0  0  0  0  0
    7.8346  -16.1340   20.6529 C   0  0  0  0  0  0  0  0  0  0  0  0
    7.9481  -14.6905   20.3673 C   0  0  0  0  0  0  0  0  0  0  0  0
    7.3385  -13.7901   21.2165 C   0  0  0  0  0  0  0  0  0  0  0  0
    7.4202  -12.4164   20.9709 C   0  0  0  0  0  0  0  0  0  0  0  0
    8.1067  -11.9327   19.8823 C   0  0  0  0  0  0  0  0  0  0  0  0
    8.7095  -12.8424   19.0445 C   0  0  0  0  0  0  0  0  0  0  0  0
    8.6268  -14.2060   19.2909 C   0  0  0  0  0  0  0  0  0  0  0  0
    9.2455  -16.0789   22.6138 C   0  0  0  0  0  0  0  0  0  0  0  0
    9.7081  -14.9174   22.6769 O   0  0  0  0  0  0  0  0  0  0  0  0
    8.9203  -16.7381   23.8217 N   0  0  0  0  0  0  0  0  0  0  0  0
    9.1547  -16.0824   25.0642 C   0  0  1  0  0  0  0  0  0  0  0  0
    7.9934  -16.2658   26.0352 C   0  0  0  0  0  0  0  0  0  0  0  0
    6.9340  -15.2406   25.8511 C   0  0  0  0  0  0  0  0  0  0  0  0
    5.5901  -15.5477   25.5735 C   0  0  0  0  0  0  0  0  0  0  0  0
    4.8941  -14.4074   25.5044 N   0  0  0  0  0  0  0  0  0  0  0  0
    5.7371  -13.3910   25.7246 C   0  0  0  0  0  0  0  0  0  0  0  0
    5.5841  -12.0064   25.7656 C   0  0  0  0  0  0  0  0  0  0  0  0
    6.6531  -11.1733   26.0102 C   0  0  0  0  0  0  0  0  0  0  0  0
    7.9144  -11.6806   26.2227 C   0  0  0  0  0  0  0  0  0  0  0  0
    8.0682  -13.0476   26.1831 C   0  0  0  0  0  0  0  0  0  0  0  0
    7.0137  -13.8829   25.9425 C   0  0  0  0  0  0  0  0  0  0  0  0
   10.4042  -16.5149   25.7254 C   0  0  0  0  0  0  0  0  0  0  0  0
   11.2260  -17.1345   25.0083 O   0  0  0  0  0  0  0  0  0  0  0  0
   10.7367  -16.2839   27.0835 N   0  0  0  0  0  0  0  0  0  0  0  0
   10.0099  -15.6297   28.1251 C   0  0  0  0  0  0  0  0  0  0  0  0
   11.0860  -14.9052   28.9076 C   0  0  0  0  0  0  0  0  0  0  0  0
   12.4076  -15.4745   28.4507 C   0  0  0  0  0  0  0  0  0  0  0  0
   12.0009  -16.7075   27.6686 C   0  0  1  0  0  0  0  0  0  0  0  0
   11.8158  -17.8505   28.5880 C   0  0  0  0  0  0  0  0  0  0  0  0
   10.5783  -18.4045   28.8623 O   0  0  0  0  0  0  0  0  0  0  0  0
   12.8206  -18.3427   29.1463 O   0  0  0  0  0  0  0  0  0  0  0  0
  2  3  1  0
  2  1  1  1
  3  4  1  0
  4  9  2  0
  5  6  2  0
  5  4  1  0
  6  7  1  0
  7  8  2  0
  9  8  1  0
 10  2  1  0
 10 11  2  0
 12 10  1  0
 13 12  1  0
 13 14  1  1
 15 14  1  0
 15 23  1  0
 16 15  2  0
 17 16  1  0
 17 18  1  0
 18 19  1  0
 18 23  2  0
 19 20  2  0
 20 21  1  0
 22 21  2  0
 23 22  1  0
 24 13  1  0
 24 26  1  0
 25 24  2  0
 26 30  1  0
 27 26  1  0
 27 28  1  0
 28 29  1  0
 30 29  1  0
 31 32  1  0
 30 31  1  1
 33 31  2  0
M  END
$$$$
