FWP.pdb
     RDKit          3D

 33 36  0  0  1  0  0  0  0  0999 V2000
    6.5650  -22.2401   24.2100 N   0  0  0  0  0  0  0  0  0  0  0  0
    7.6128  -21.4825   24.8843 C   0  0  1  0  0  0  0  0  0  0  0  0
    8.9769  -21.8818   24.4235 C   0  0  0  0  0  0  0  0  0  0  0  0
   10.0578  -21.1456   25.1074 C   0  0  0  0  0  0  0  0  0  0  0  0
   10.8502  -20.2862   24.3745 C   0  0  0  0  0  0  0  0  0  0  0  0
   11.8874  -19.5792   24.9898 C   0  0  0  0  0  0  0  0  0  0  0  0
   12.1410  -19.7229   26.3334 C   0  0  0  0  0  0  0  0  0  0  0  0
   11.3425  -20.5833   27.0513 C   0  0  0  0  0  0  0  0  0  0  0  0
   10.3133  -21.2840   26.4377 C   0  0  0  0  0  0  0  0  0  0  0  0
    7.4347  -20.0332   24.6316 C   0  0  0  0  0  0  0  0  0  0  0  0
    7.2951  -19.6377   23.4522 O   0  0  0  0  0  0  0  0  0  0  0  0
    7.4166  -19.0718   25.6683 N   0  0  0  0  0  0  0  0  0  0  0  0
    7.3397  -17.6879   25.3406 C   0  0  1  0  0  0  0  0  0  0  0  0
    6.9700  -16.8341   26.5487 C   0  0  0  0  0  0  0  0  0  0  0  0
    6.6025  -15.4454   26.1696 C   0  0  0  0  0  0  0  0  0  0  0  0
    5.3511  -15.0863   25.6381 C   0  0  0  0  0  0  0  0  0  0  0  0
    5.3312  -13.7631   25.4420 N   0  0  0  0  0  0  0  0  0  0  0  0
    6.5145  -13.2676   25.8245 C   0  0  0  0  0  0  0  0  0  0  0  0
    7.0598  -11.9851   25.8418 C   0  0  0  0  0  0  0  0  0  0  0  0
    8.3415  -11.7564   26.2906 C   0  0  0  0  0  0  0  0  0  0  0  0
    9.1318  -12.7899   26.7387 C   0  0  0  0  0  0  0  0  0  0  0  0
    8.5956  -14.0573   26.7230 C   0  0  0  0  0  0  0  0  0  0  0  0
    7.3245  -14.2946   26.2808 C   0  0  0  0  0  0  0  0  0  0  0  0
    8.5851  -17.1594   24.7444 C   0  0  0  0  0  0  0  0  0  0  0  0
    9.6431  -17.7638   25.0425 O   0  0  0  0  0  0  0  0  0  0  0  0
    8.6700  -16.0429   23.8759 N   0  0  0  0  0  0  0  0  0  0  0  0
    7.7995  -14.9229   23.7061 C   0  0  0  0  0  0  0  0  0  0  0  0
    7.8404  -14.6647   22.2138 C   0  0  0  0  0  0  0  0  0  0  0  0
    9.0072  -15.4549   21.6720 C   0  0  0  0  0  0  0  0  0  0  0  0
    9.7572  -15.8660   22.9235 C   0  0  1  0  0  0  0  0  0  0  0  0
   10.6728  -14.7833   23.3422 C   0  0  0  0  0  0  0  0  0  0  0  0
   11.8629  -14.5092   22.6926 O   0  0  0  0  0  0  0  0  0  0  0  0
   10.3622  -14.0801   24.3285 O   0  0  0  0  0  0  0  0  0  0  0  0
  2  3  1  0
  2  1  1  6
  3  4  1  0
  4  9  2  0
  5  6  2  0
  5  4  1  0
  6  7  1  0
  7  8  2  0
  9  8  1  0
 10  2  1  0
 10 11  2  0
 12 10  1  0
 13 12  1  0
 13 14  1  1
 15 14  1  0
 15 23  1  0
 16 15  2  0
 17 16  1  0
 17 18  1  0
 18 19  1  0
 18 23  2  0
 19 20  2  0
 20 21  1  0
 22 21  2  0
 23 22  1  0
 24 13  1  0
 24 26  1  0
 25 24  2  0
 26 30  1  0
 27 26  1  0
 27 28  1  0
 28 29  1  0
 30 29  1  0
 31 32  1  0
 30 31  1  1
 33 31  2  0
M  END
$$$$
