GGM.pdb
     RDKit          3D

 17 16  0  0  1  0  0  0  0  0999 V2000
   28.3543  -22.6289  -17.2361 N   0  0  0  0  0  0  0  0  0  0  0  0
   27.7791  -23.9540  -17.1847 C   0  0  0  0  0  0  0  0  0  0  0  0
   28.8054  -24.9816  -16.8727 C   0  0  0  0  0  0  0  0  0  0  0  0
   29.9982  -24.6852  -16.6250 O   0  0  0  0  0  0  0  0  0  0  0  0
   28.3861  -26.3343  -16.8635 N   0  0  0  0  0  0  0  0  0  0  0  0
   29.2956  -27.3558  -16.4637 C   0  0  0  0  0  0  0  0  0  0  0  0
   28.6509  -28.7043  -16.5008 C   0  0  0  0  0  0  0  0  0  0  0  0
   27.4187  -28.7165  -16.7016 O   0  0  0  0  0  0  0  0  0  0  0  0
   28.1712  -35.8107  -19.3358 C   0  0  0  0  0  0  0  0  0  0  0  0
   29.1099  -34.2625  -19.1340 S   0  0  0  0  0  0  0  0  0  0  0  0
   28.4382  -33.3217  -17.7102 C   0  0  0  0  0  0  0  0  0  0  0  0
   29.1820  -32.0417  -17.5623 C   0  0  0  0  0  0  0  0  0  0  0  0
   28.7343  -31.1860  -16.3921 C   0  0  2  0  0  0  0  0  0  0  0  0
   29.3419  -29.8997  -16.3274 N   0  0  0  0  0  0  0  0  0  0  0  0
   28.9442  -31.9822  -15.1664 C   0  0  0  0  0  0  0  0  0  0  0  0
   28.0765  -32.9596  -14.7114 O   0  0  0  0  0  0  0  0  0  0  0  0
   29.9759  -31.7670  -14.4827 O   0  0  0  0  0  0  0  0  0  0  0  0
  1  2  1  0
  3  5  1  0
  3  2  1  0
  4  3  2  0
  6  5  1  0
  7  8  2  0
  7  6  1  0
 10 11  1  0
 10  9  1  0
 11 12  1  0
 13 12  1  6
 13 15  1  0
 13 14  1  0
 14  7  1  0
 15 16  1  0
 17 15  2  0
M  END
$$$$
