GGM.pdb
     RDKit          3D

 17 16  0  0  1  0  0  0  0  0999 V2000
   23.7808  -23.8382  -14.6744 N   0  0  0  0  0  0  0  0  0  0  0  0
   24.1679  -22.4542  -14.8301 C   0  0  0  0  0  0  0  0  0  0  0  0
   25.4372  -22.1601  -14.1167 C   0  0  0  0  0  0  0  0  0  0  0  0
   26.4744  -22.8449  -14.2822 O   0  0  0  0  0  0  0  0  0  0  0  0
   25.4395  -21.0596  -13.2253 N   0  0  0  0  0  0  0  0  0  0  0  0
   26.6285  -20.7254  -12.5145 C   0  0  0  0  0  0  0  0  0  0  0  0
   26.4880  -21.0105  -11.0534 C   0  0  0  0  0  0  0  0  0  0  0  0
   26.1402  -22.1713  -10.7533 O   0  0  0  0  0  0  0  0  0  0  0  0
   28.2640  -19.5114   -3.6859 C   0  0  0  0  0  0  0  0  0  0  0  0
   28.4661  -19.4457   -5.4953 S   0  0  0  0  0  0  0  0  0  0  0  0
   26.8175  -19.5013   -6.2969 C   0  0  0  0  0  0  0  0  0  0  0  0
   26.9572  -19.1987   -7.7468 C   0  0  0  0  0  0  0  0  0  0  0  0
   26.4916  -20.3101   -8.6687 C   0  0  2  0  0  0  0  0  0  0  0  0
   26.7202  -20.0707  -10.0538 N   0  0  0  0  0  0  0  0  0  0  0  0
   25.0712  -20.5663   -8.3574 C   0  0  0  0  0  0  0  0  0  0  0  0
   24.6309  -21.3536   -7.3077 O   0  0  0  0  0  0  0  0  0  0  0  0
   24.1944  -20.0398   -9.0869 O   0  0  0  0  0  0  0  0  0  0  0  0
  1  2  1  0
  3  5  1  0
  3  2  1  0
  4  3  2  0
  6  5  1  0
  7  8  2  0
  7  6  1  0
 10 11  1  0
 10  9  1  0
 11 12  1  0
 13 12  1  1
 13 15  1  0
 13 14  1  0
 14  7  1  0
 15 16  1  0
 17 15  2  0
M  END
$$$$
