GGM.pdb
     RDKit          3D

 17 16  0  0  1  0  0  0  0  0999 V2000
   24.8374  -23.4346  -15.7925 N   0  0  0  0  0  0  0  0  0  0  0  0
   24.5185  -22.9766  -14.4590 C   0  0  0  0  0  0  0  0  0  0  0  0
   25.6605  -22.2525  -13.8442 C   0  0  0  0  0  0  0  0  0  0  0  0
   26.8499  -22.6158  -14.0041 O   0  0  0  0  0  0  0  0  0  0  0  0
   25.3580  -21.1158  -13.0556 N   0  0  0  0  0  0  0  0  0  0  0  0
   26.4011  -20.4350  -12.3636 C   0  0  0  0  0  0  0  0  0  0  0  0
   26.4055  -20.7801  -10.9087 C   0  0  0  0  0  0  0  0  0  0  0  0
   26.3163  -21.9948  -10.6342 O   0  0  0  0  0  0  0  0  0  0  0  0
   28.7341  -19.9927   -3.8324 C   0  0  0  0  0  0  0  0  0  0  0  0
   28.6634  -19.4049   -5.5553 S   0  0  0  0  0  0  0  0  0  0  0  0
   26.9233  -19.4175   -6.1345 C   0  0  0  0  0  0  0  0  0  0  0  0
   26.8734  -19.0401   -7.5726 C   0  0  0  0  0  0  0  0  0  0  0  0
   26.4456  -20.1604   -8.5022 C   0  0  2  0  0  0  0  0  0  0  0  0
   26.5013  -19.8389   -9.8883 N   0  0  0  0  0  0  0  0  0  0  0  0
   25.1036  -20.5967   -8.0676 C   0  0  0  0  0  0  0  0  0  0  0  0
   24.8645  -21.4358   -6.9934 O   0  0  0  0  0  0  0  0  0  0  0  0
   24.1043  -20.1853   -8.7081 O   0  0  0  0  0  0  0  0  0  0  0  0
  1  2  1  0
  3  5  1  0
  3  2  1  0
  4  3  2  0
  6  5  1  0
  7  8  2  0
  7  6  1  0
 10 11  1  0
 10  9  1  0
 11 12  1  0
 13 12  1  1
 13 15  1  0
 13 14  1  0
 14  7  1  0
 15 16  1  0
 17 15  2  0
M  END
$$$$
