GGM.pdb
     RDKit          3D

 17 16  0  0  1  0  0  0  0  0999 V2000
   24.7625  -24.4229  -14.0023 N   0  0  0  0  0  0  0  0  0  0  0  0
   24.8382  -23.1253  -14.6348 C   0  0  0  0  0  0  0  0  0  0  0  0
   25.0065  -22.0405  -13.6340 C   0  0  0  0  0  0  0  0  0  0  0  0
   24.0592  -21.6321  -12.9213 O   0  0  0  0  0  0  0  0  0  0  0  0
   26.2965  -21.4703  -13.5074 N   0  0  0  0  0  0  0  0  0  0  0  0
   26.4997  -20.3634  -12.6333 C   0  0  0  0  0  0  0  0  0  0  0  0
   26.6253  -20.8081  -11.2112 C   0  0  0  0  0  0  0  0  0  0  0  0
   27.1886  -21.9073  -11.0293 O   0  0  0  0  0  0  0  0  0  0  0  0
   28.4223  -19.5114   -3.8108 C   0  0  0  0  0  0  0  0  0  0  0  0
   28.1229  -18.8469   -5.4804 S   0  0  0  0  0  0  0  0  0  0  0  0
   27.1515  -20.0589   -6.4556 C   0  0  0  0  0  0  0  0  0  0  0  0
   26.9733  -19.5544   -7.8437 C   0  0  0  0  0  0  0  0  0  0  0  0
   26.2494  -20.5112   -8.7724 C   0  0  2  0  0  0  0  0  0  0  0  0
   26.1581  -20.0747  -10.1249 N   0  0  0  0  0  0  0  0  0  0  0  0
   24.9308  -20.7883   -8.1685 C   0  0  0  0  0  0  0  0  0  0  0  0
   24.7279  -21.6247   -7.0848 O   0  0  0  0  0  0  0  0  0  0  0  0
   23.9179  -20.2335   -8.6629 O   0  0  0  0  0  0  0  0  0  0  0  0
  1  2  1  0
  3  5  1  0
  3  2  1  0
  4  3  2  0
  6  5  1  0
  7  8  2  0
  7  6  1  0
 10 11  1  0
 10  9  1  0
 11 12  1  0
 13 12  1  1
 13 15  1  0
 13 14  1  0
 14  7  1  0
 15 16  1  0
 17 15  2  0
M  END
$$$$
