GGM.pdb
     RDKit          3D

 17 16  0  0  1  0  0  0  0  0999 V2000
   23.3989  -21.3878  -15.2920 N   0  0  0  0  0  0  0  0  0  0  0  0
   23.3128  -21.2225  -13.8585 C   0  0  0  0  0  0  0  0  0  0  0  0
   24.5778  -20.6851  -13.2952 C   0  0  0  0  0  0  0  0  0  0  0  0
   24.7227  -19.4735  -13.0068 O   0  0  0  0  0  0  0  0  0  0  0  0
   25.6370  -21.6025  -13.0898 N   0  0  0  0  0  0  0  0  0  0  0  0
   26.8135  -21.1849  -12.4029 C   0  0  0  0  0  0  0  0  0  0  0  0
   26.6457  -21.2907  -10.9209 C   0  0  0  0  0  0  0  0  0  0  0  0
   26.3719  -22.4266  -10.4809 O   0  0  0  0  0  0  0  0  0  0  0  0
   28.8686  -20.0916   -4.1289 C   0  0  0  0  0  0  0  0  0  0  0  0
   28.7622  -19.9042   -5.9379 S   0  0  0  0  0  0  0  0  0  0  0  0
   27.1065  -19.2573   -6.3891 C   0  0  0  0  0  0  0  0  0  0  0  0
   27.0277  -19.0722   -7.8631 C   0  0  0  0  0  0  0  0  0  0  0  0
   26.6355  -20.3192   -8.6333 C   0  0  2  0  0  0  0  0  0  0  0  0
   26.7773  -20.2163  -10.0465 N   0  0  0  0  0  0  0  0  0  0  0  0
   25.2631  -20.6722   -8.2184 C   0  0  0  0  0  0  0  0  0  0  0  0
   24.9543  -21.4228   -7.0974 O   0  0  0  0  0  0  0  0  0  0  0  0
   24.3033  -20.2700   -8.9221 O   0  0  0  0  0  0  0  0  0  0  0  0
  1  2  1  0
  3  5  1  0
  3  2  1  0
  4  3  2  0
  6  5  1  0
  7  8  2  0
  7  6  1  0
 10 11  1  0
 10  9  1  0
 11 12  1  0
 13 12  1  1
 13 15  1  0
 13 14  1  0
 14  7  1  0
 15 16  1  0
 17 15  2  0
M  END
$$$$
