GGM.pdb
     RDKit          3D

 17 16  0  0  1  0  0  0  0  0999 V2000
   23.8592  -20.7974  -15.8486 N   0  0  0  0  0  0  0  0  0  0  0  0
   24.0426  -20.3745  -14.4785 C   0  0  0  0  0  0  0  0  0  0  0  0
   25.1769  -21.0866  -13.8360 C   0  0  0  0  0  0  0  0  0  0  0  0
   25.2411  -22.3378  -13.7843 O   0  0  0  0  0  0  0  0  0  0  0  0
   26.2047  -20.2922  -13.2720 N   0  0  0  0  0  0  0  0  0  0  0  0
   27.2766  -20.9143  -12.5688 C   0  0  0  0  0  0  0  0  0  0  0  0
   26.8976  -21.2165  -11.1543 C   0  0  0  0  0  0  0  0  0  0  0  0
   26.3468  -22.3198  -10.9591 O   0  0  0  0  0  0  0  0  0  0  0  0
   29.1406  -20.0421   -4.2565 C   0  0  0  0  0  0  0  0  0  0  0  0
   27.9337  -19.0026   -5.1405 S   0  0  0  0  0  0  0  0  0  0  0  0
   26.9667  -20.0418   -6.3018 C   0  0  0  0  0  0  0  0  0  0  0  0
   27.3785  -19.7434   -7.6999 C   0  0  0  0  0  0  0  0  0  0  0  0
   26.7131  -20.6125   -8.7505 C   0  0  2  0  0  0  0  0  0  0  0  0
   27.1250  -20.3514  -10.0884 N   0  0  0  0  0  0  0  0  0  0  0  0
   25.2544  -20.4806   -8.5630 C   0  0  0  0  0  0  0  0  0  0  0  0
   24.5225  -21.1741   -7.6150 O   0  0  0  0  0  0  0  0  0  0  0  0
   24.6247  -19.6888   -9.3078 O   0  0  0  0  0  0  0  0  0  0  0  0
  1  2  1  0
  3  5  1  0
  3  2  1  0
  4  3  2  0
  6  5  1  0
  7  8  2  0
  7  6  1  0
 10 11  1  0
 10  9  1  0
 11 12  1  0
 13 12  1  1
 13 15  1  0
 13 14  1  0
 14  7  1  0
 15 16  1  0
 17 15  2  0
M  END
$$$$
