WPL.pdb
     RDKit          3D

 30 32  0  0  1  0  0  0  0  0999 V2000
   25.0134  -23.7501  -14.2411 N   0  0  0  0  0  0  0  0  0  0  0  0
   24.8839  -22.6004  -13.4061 C   0  0  1  0  0  0  0  0  0  0  0  0
   23.4759  -22.4431  -12.8681 C   0  0  0  0  0  0  0  0  0  0  0  0
   22.4724  -22.0693  -13.8563 C   0  0  0  0  0  0  0  0  0  0  0  0
   22.0770  -22.9014  -14.9045 C   0  0  0  0  0  0  0  0  0  0  0  0
   21.1349  -22.3189  -15.6288 N   0  0  0  0  0  0  0  0  0  0  0  0
   20.8935  -21.1006  -15.0766 C   0  0  0  0  0  0  0  0  0  0  0  0
   20.0244  -20.1013  -15.4356 C   0  0  0  0  0  0  0  0  0  0  0  0
   19.9748  -18.9370  -14.7030 C   0  0  0  0  0  0  0  0  0  0  0  0
   20.7861  -18.7636  -13.6155 C   0  0  0  0  0  0  0  0  0  0  0  0
   21.6566  -19.7526  -13.2472 C   0  0  0  0  0  0  0  0  0  0  0  0
   21.7199  -20.9293  -13.9704 C   0  0  0  0  0  0  0  0  0  0  0  0
   25.9257  -22.4052  -12.3922 C   0  0  0  0  0  0  0  0  0  0  0  0
   26.2249  -23.3938  -11.6561 O   0  0  0  0  0  0  0  0  0  0  0  0
   26.5635  -21.1688  -12.2474 N   0  0  0  0  0  0  0  0  0  0  0  0
   26.5320  -20.0667  -13.1679 C   0  0  0  0  0  0  0  0  0  0  0  0
   27.4426  -19.0006  -12.5915 C   0  0  0  0  0  0  0  0  0  0  0  0
   28.3705  -19.8049  -11.7111 C   0  0  0  0  0  0  0  0  0  0  0  0
   27.3891  -20.8014  -11.1053 C   0  0  1  0  0  0  0  0  0  0  0  0
   26.5991  -20.0655  -10.0876 C   0  0  0  0  0  0  0  0  0  0  0  0
   25.3747  -20.3639   -9.9558 O   0  0  0  0  0  0  0  0  0  0  0  0
   26.8494  -21.2556   -5.4651 C   0  0  0  0  0  0  0  0  0  0  0  0
   28.2213  -20.7178   -6.0335 C   0  0  1  0  0  0  0  0  0  0  0  0
   29.1935  -21.8889   -5.8022 C   0  0  0  0  0  0  0  0  0  0  0  0
   28.0171  -20.3806   -7.4606 C   0  0  0  0  0  0  0  0  0  0  0  0
   27.2198  -19.1981   -7.7794 C   0  0  2  0  0  0  0  0  0  0  0  0
   27.1152  -19.0607   -9.2599 N   0  0  0  0  0  0  0  0  0  0  0  0
   27.5781  -17.9498   -7.1675 C   0  0  0  0  0  0  0  0  0  0  0  0
   28.6905  -17.2149   -7.6134 O   0  0  0  0  0  0  0  0  0  0  0  0
   26.9274  -17.4537   -6.2151 O   0  0  0  0  0  0  0  0  0  0  0  0
  2  1  1  1
  2  3  1  0
  3  4  1  0
  4 12  1  0
  4  5  2  0
  5  6  1  0
  7  8  2  0
  7  6  1  0
  9  8  1  0
 10  9  2  0
 11 10  1  0
 11 12  2  0
 12  7  1  0
 13  2  1  0
 13 14  2  0
 15 16  1  0
 15 13  1  0
 17 16  1  0
 18 17  1  0
 18 19  1  0
 19 15  1  0
 19 20  1  1
 20 27  1  0
 21 20  2  0
 23 22  1  6
 23 25  1  0
 24 23  1  0
 26 25  1  6
 26 27  1  0
 26 28  1  0
 28 29  1  0
 30 28  2  0
M  END
$$$$
