WPL.pdb
     RDKit          3D

 30 32  0  0  1  0  0  0  0  0999 V2000
   24.8805  -22.9848  -14.5362 N   0  0  0  0  0  0  0  0  0  0  0  0
   24.8721  -22.0519  -13.4568 C   0  0  1  0  0  0  0  0  0  0  0  0
   23.5615  -22.0728  -12.6962 C   0  0  0  0  0  0  0  0  0  0  0  0
   22.6864  -20.9328  -12.9369 C   0  0  0  0  0  0  0  0  0  0  0  0
   22.5993  -20.2749  -14.1645 C   0  0  0  0  0  0  0  0  0  0  0  0
   21.7091  -19.2975  -14.1047 N   0  0  0  0  0  0  0  0  0  0  0  0
   21.1964  -19.2921  -12.8458 C   0  0  0  0  0  0  0  0  0  0  0  0
   20.2538  -18.4874  -12.2569 C   0  0  0  0  0  0  0  0  0  0  0  0
   19.9072  -18.6851  -10.9394 C   0  0  0  0  0  0  0  0  0  0  0  0
   20.4946  -19.6794  -10.2066 C   0  0  0  0  0  0  0  0  0  0  0  0
   21.4355  -20.4885  -10.7824 C   0  0  0  0  0  0  0  0  0  0  0  0
   21.7958  -20.3056  -12.1047 C   0  0  0  0  0  0  0  0  0  0  0  0
   26.0549  -22.0414  -12.5894 C   0  0  0  0  0  0  0  0  0  0  0  0
   26.4355  -23.1470  -12.0979 O   0  0  0  0  0  0  0  0  0  0  0  0
   26.7353  -20.8500  -12.3178 N   0  0  0  0  0  0  0  0  0  0  0  0
   26.4936  -19.5627  -12.9073 C   0  0  0  0  0  0  0  0  0  0  0  0
   27.5442  -18.6279  -12.3413 C   0  0  0  0  0  0  0  0  0  0  0  0
   28.6485  -19.5797  -11.9446 C   0  0  0  0  0  0  0  0  0  0  0  0
   27.8330  -20.7312  -11.3682 C   0  0  1  0  0  0  0  0  0  0  0  0
   27.3455  -20.2917  -10.0376 C   0  0  0  0  0  0  0  0  0  0  0  0
   26.1494  -19.8833   -9.9481 O   0  0  0  0  0  0  0  0  0  0  0  0
   30.1947  -21.7454   -7.1073 C   0  0  0  0  0  0  0  0  0  0  0  0
   29.3416  -21.0953   -5.9480 C   0  0  1  0  0  0  0  0  0  0  0  0
   30.4005  -20.6613   -4.9183 C   0  0  0  0  0  0  0  0  0  0  0  0
   28.5738  -19.9707   -6.5293 C   0  0  0  0  0  0  0  0  0  0  0  0
   27.5284  -20.2831   -7.5015 C   0  0  2  0  0  0  0  0  0  0  0  0
   28.1187  -20.2974   -8.8700 N   0  0  0  0  0  0  0  0  0  0  0  0
   26.3160  -19.5150   -7.4685 C   0  0  0  0  0  0  0  0  0  0  0  0
   25.2079  -19.9383   -6.7138 O   0  0  0  0  0  0  0  0  0  0  0  0
   26.1809  -18.4395   -8.1022 O   0  0  0  0  0  0  0  0  0  0  0  0
  2  1  1  6
  2  3  1  0
  3  4  1  0
  4 12  1  0
  4  5  2  0
  5  6  1  0
  7  8  2  0
  7  6  1  0
  9  8  1  0
 10  9  2  0
 11 10  1  0
 11 12  2  0
 12  7  1  0
 13  2  1  0
 13 14  2  0
 15 16  1  0
 15 13  1  0
 17 16  1  0
 18 17  1  0
 18 19  1  0
 19 15  1  0
 19 20  1  1
 20 27  1  0
 21 20  2  0
 23 22  1  6
 23 25  1  0
 24 23  1  0
 26 25  1  1
 26 27  1  0
 26 28  1  0
 28 29  1  0
 30 28  2  0
M  END
$$$$
