WPL.pdb
     RDKit          3D

 30 32  0  0  1  0  0  0  0  0999 V2000
   27.8963  -21.5475   -8.8506 N   0  0  0  0  0  0  0  0  0  0  0  0
   26.5140  -21.3150   -9.1172 C   0  0  1  0  0  0  0  0  0  0  0  0
   25.9563  -20.1796   -8.2828 C   0  0  0  0  0  0  0  0  0  0  0  0
   26.8889  -19.5953   -7.3278 C   0  0  0  0  0  0  0  0  0  0  0  0
   27.3410  -18.2772   -7.4012 C   0  0  0  0  0  0  0  0  0  0  0  0
   28.1554  -18.0094   -6.3930 N   0  0  0  0  0  0  0  0  0  0  0  0
   28.2555  -19.1377   -5.6416 C   0  0  0  0  0  0  0  0  0  0  0  0
   28.9682  -19.4031   -4.4995 C   0  0  0  0  0  0  0  0  0  0  0  0
   28.9061  -20.6524   -3.9249 C   0  0  0  0  0  0  0  0  0  0  0  0
   28.1382  -21.6376   -4.4821 C   0  0  0  0  0  0  0  0  0  0  0  0
   27.4226  -21.3853   -5.6204 C   0  0  0  0  0  0  0  0  0  0  0  0
   27.4719  -20.1363   -6.2113 C   0  0  0  0  0  0  0  0  0  0  0  0
   26.1188  -21.2566  -10.5285 C   0  0  0  0  0  0  0  0  0  0  0  0
   27.0198  -21.4434  -11.4014 O   0  0  0  0  0  0  0  0  0  0  0  0
   24.7923  -21.0034  -10.8925 N   0  0  0  0  0  0  0  0  0  0  0  0
   23.6993  -20.6914  -10.0142 C   0  0  0  0  0  0  0  0  0  0  0  0
   22.4643  -20.5876  -10.8871 C   0  0  0  0  0  0  0  0  0  0  0  0
   22.8406  -21.4260  -12.0863 C   0  0  0  0  0  0  0  0  0  0  0  0
   24.3002  -21.0242  -12.2629 C   0  0  1  0  0  0  0  0  0  0  0  0
   24.3052  -19.6637  -12.8550 C   0  0  0  0  0  0  0  0  0  0  0  0
   24.5032  -18.6798  -12.0815 O   0  0  0  0  0  0  0  0  0  0  0  0
   27.9100  -17.3708  -15.1997 C   0  0  0  0  0  0  0  0  0  0  0  0
   27.5815  -18.8549  -15.6286 C   0  0  1  0  0  0  0  0  0  0  0  0
   28.8923  -19.6118  -15.3481 C   0  0  0  0  0  0  0  0  0  0  0  0
   26.4355  -19.3169  -14.8130 C   0  0  0  0  0  0  0  0  0  0  0  0
   25.1259  -18.7213  -15.0694 C   0  0  2  0  0  0  0  0  0  0  0  0
   24.1056  -19.3914  -14.2140 N   0  0  0  0  0  0  0  0  0  0  0  0
   24.6771  -18.6223  -16.4295 C   0  0  0  0  0  0  0  0  0  0  0  0
   24.4012  -19.7727  -17.1892 O   0  0  0  0  0  0  0  0  0  0  0  0
   24.5091  -17.5197  -17.0062 O   0  0  0  0  0  0  0  0  0  0  0  0
  2  1  1  6
  2  3  1  0
  3  4  1  0
  4 12  1  0
  4  5  2  0
  5  6  1  0
  7  8  2  0
  7  6  1  0
  9  8  1  0
 10  9  2  0
 11 10  1  0
 11 12  2  0
 12  7  1  0
 13  2  1  0
 13 14  2  0
 15 16  1  0
 15 13  1  0
 17 16  1  0
 18 17  1  0
 18 19  1  0
 19 15  1  0
 19 20  1  1
 20 27  1  0
 21 20  2  0
 23 22  1  1
 23 25  1  0
 24 23  1  0
 26 25  1  6
 26 27  1  0
 26 28  1  0
 28 29  1  0
 30 28  2  0
M  END
$$$$
