WPL.pdb
     RDKit          3D

 30 32  0  0  1  0  0  0  0  0999 V2000
   24.5214  -22.3404  -15.8761 N   0  0  0  0  0  0  0  0  0  0  0  0
   24.6252  -21.7273  -14.5920 C   0  0  1  0  0  0  0  0  0  0  0  0
   23.3927  -21.9694  -13.7441 C   0  0  0  0  0  0  0  0  0  0  0  0
   22.4065  -20.8969  -13.7625 C   0  0  0  0  0  0  0  0  0  0  0  0
   21.9756  -20.2674  -14.9310 C   0  0  0  0  0  0  0  0  0  0  0  0
   21.0598  -19.3530  -14.6545 N   0  0  0  0  0  0  0  0  0  0  0  0
   20.8712  -19.3617  -13.3084 C   0  0  0  0  0  0  0  0  0  0  0  0
   20.0462  -18.6143  -12.5062 C   0  0  0  0  0  0  0  0  0  0  0  0
   20.0470  -18.8131  -11.1441 C   0  0  0  0  0  0  0  0  0  0  0  0
   20.8648  -19.7519  -10.5779 C   0  0  0  0  0  0  0  0  0  0  0  0
   21.6916  -20.5037  -11.3670 C   0  0  0  0  0  0  0  0  0  0  0  0
   21.7040  -20.3187  -12.7372 C   0  0  0  0  0  0  0  0  0  0  0  0
   25.8852  -21.9287  -13.8686 C   0  0  0  0  0  0  0  0  0  0  0  0
   26.2734  -23.1215  -13.6813 O   0  0  0  0  0  0  0  0  0  0  0  0
   26.6283  -20.8386  -13.4042 N   0  0  0  0  0  0  0  0  0  0  0  0
   26.5055  -19.4689  -13.8189 C   0  0  0  0  0  0  0  0  0  0  0  0
   27.5845  -18.6997  -13.0826 C   0  0  0  0  0  0  0  0  0  0  0  0
   28.5995  -19.7754  -12.7741 C   0  0  0  0  0  0  0  0  0  0  0  0
   27.6789  -20.9311  -12.4000 C   0  0  1  0  0  0  0  0  0  0  0  0
   27.1512  -20.6415  -11.0439 C   0  0  0  0  0  0  0  0  0  0  0  0
   25.9488  -20.2546  -10.9443 O   0  0  0  0  0  0  0  0  0  0  0  0
   27.4322  -19.6891   -5.6887 C   0  0  0  0  0  0  0  0  0  0  0  0
   28.6103  -19.8826   -6.7227 C   0  0  1  0  0  0  0  0  0  0  0  0
   29.8589  -20.0056   -5.8306 C   0  0  0  0  0  0  0  0  0  0  0  0
   28.3183  -21.0975   -7.5169 C   0  0  0  0  0  0  0  0  0  0  0  0
   27.2701  -21.0186   -8.5321 C   0  0  2  0  0  0  0  0  0  0  0  0
   27.8929  -20.7670   -9.8627 N   0  0  0  0  0  0  0  0  0  0  0  0
   26.1643  -20.1324   -8.3020 C   0  0  0  0  0  0  0  0  0  0  0  0
   25.0015  -20.5760   -7.6481 O   0  0  0  0  0  0  0  0  0  0  0  0
   26.1751  -18.9309   -8.6666 O   0  0  0  0  0  0  0  0  0  0  0  0
  2  1  1  6
  2  3  1  0
  3  4  1  0
  4 12  1  0
  4  5  2  0
  5  6  1  0
  7  8  2  0
  7  6  1  0
  9  8  1  0
 10  9  2  0
 11 10  1  0
 11 12  2  0
 12  7  1  0
 13  2  1  0
 13 14  2  0
 15 16  1  0
 15 13  1  0
 17 16  1  0
 18 17  1  0
 18 19  1  0
 19 15  1  0
 19 20  1  1
 20 27  1  0
 21 20  2  0
 23 22  1  1
 23 25  1  0
 24 23  1  0
 26 25  1  1
 26 27  1  0
 26 28  1  0
 28 29  1  0
 30 28  2  0
M  END
$$$$
