WPL.pdb
     RDKit          3D

 30 32  0  0  1  0  0  0  0  0999 V2000
   23.7871  -21.8229  -13.5178 N   0  0  0  0  0  0  0  0  0  0  0  0
   24.7652  -20.9641  -12.9335 C   0  0  1  0  0  0  0  0  0  0  0  0
   24.2441  -19.5538  -12.7437 C   0  0  0  0  0  0  0  0  0  0  0  0
   24.1214  -18.7682  -13.9648 C   0  0  0  0  0  0  0  0  0  0  0  0
   22.9130  -18.5684  -14.6334 C   0  0  0  0  0  0  0  0  0  0  0  0
   23.0915  -17.7957  -15.6929 N   0  0  0  0  0  0  0  0  0  0  0  0
   24.4112  -17.4741  -15.7429 C   0  0  0  0  0  0  0  0  0  0  0  0
   25.1225  -16.7098  -16.6332 C   0  0  0  0  0  0  0  0  0  0  0  0
   26.4782  -16.5405  -16.4646 C   0  0  0  0  0  0  0  0  0  0  0  0
   27.1280  -17.1284  -15.4145 C   0  0  0  0  0  0  0  0  0  0  0  0
   26.4299  -17.8925  -14.5198 C   0  0  0  0  0  0  0  0  0  0  0  0
   25.0677  -18.0732  -14.6723 C   0  0  0  0  0  0  0  0  0  0  0  0
   25.4844  -21.4869  -11.7669 C   0  0  0  0  0  0  0  0  0  0  0  0
   24.8425  -22.2267  -10.9612 O   0  0  0  0  0  0  0  0  0  0  0  0
   26.8319  -21.1766  -11.5562 N   0  0  0  0  0  0  0  0  0  0  0  0
   27.6479  -20.2910  -12.3393 C   0  0  0  0  0  0  0  0  0  0  0  0
   29.0433  -20.3615  -11.7512 C   0  0  0  0  0  0  0  0  0  0  0  0
   29.0440  -21.7116  -11.0731 C   0  0  0  0  0  0  0  0  0  0  0  0
   27.6409  -21.7277  -10.4780 C   0  0  1  0  0  0  0  0  0  0  0  0
   27.6591  -20.8205   -9.3041 C   0  0  0  0  0  0  0  0  0  0  0  0
   27.3436  -19.6068   -9.4860 O   0  0  0  0  0  0  0  0  0  0  0  0
   27.4199  -21.6654   -3.2071 C   0  0  0  0  0  0  0  0  0  0  0  0
   27.4980  -20.5364   -4.3088 C   0  0  1  0  0  0  0  0  0  0  0  0
   28.7210  -19.7021   -3.8867 C   0  0  0  0  0  0  0  0  0  0  0  0
   27.6490  -21.1994   -5.6240 C   0  0  0  0  0  0  0  0  0  0  0  0
   27.7842  -20.3533   -6.8078 C   0  0  2  0  0  0  0  0  0  0  0  0
   28.0020  -21.2144   -8.0047 N   0  0  0  0  0  0  0  0  0  0  0  0
   28.7288  -19.2728   -6.7685 C   0  0  0  0  0  0  0  0  0  0  0  0
   28.3262  -17.9676   -6.4356 O   0  0  0  0  0  0  0  0  0  0  0  0
   29.9474  -19.4320   -7.0254 O   0  0  0  0  0  0  0  0  0  0  0  0
  2  1  1  1
  2  3  1  0
  3  4  1  0
  4 12  1  0
  4  5  2  0
  5  6  1  0
  7  8  2  0
  7  6  1  0
  9  8  1  0
 10  9  2  0
 11 10  1  0
 11 12  2  0
 12  7  1  0
 13  2  1  0
 13 14  2  0
 15 16  1  0
 15 13  1  0
 17 16  1  0
 18 17  1  0
 18 19  1  0
 19 15  1  0
 19 20  1  1
 20 27  1  0
 21 20  2  0
 23 22  1  1
 23 25  1  0
 24 23  1  0
 26 25  1  1
 26 27  1  0
 26 28  1  0
 28 29  1  0
 30 28  2  0
M  END
$$$$
