WPL.pdb
     RDKit          3D

 30 32  0  0  1  0  0  0  0  0999 V2000
   25.9806  -19.2356  -14.6324 N   0  0  0  0  0  0  0  0  0  0  0  0
   25.5459  -20.1403  -13.6184 C   0  0  1  0  0  0  0  0  0  0  0  0
   25.7941  -19.5968  -12.2257 C   0  0  0  0  0  0  0  0  0  0  0  0
   26.7889  -20.3210  -11.4453 C   0  0  0  0  0  0  0  0  0  0  0  0
   27.7885  -21.1107  -12.0151 C   0  0  0  0  0  0  0  0  0  0  0  0
   28.5647  -21.6259  -11.0752 N   0  0  0  0  0  0  0  0  0  0  0  0
   28.0949  -21.1894   -9.8767 C   0  0  0  0  0  0  0  0  0  0  0  0
   28.5249  -21.4283   -8.5957 C   0  0  0  0  0  0  0  0  0  0  0  0
   27.8600  -20.8638   -7.5307 C   0  0  0  0  0  0  0  0  0  0  0  0
   26.7700  -20.0634   -7.7355 C   0  0  0  0  0  0  0  0  0  0  0  0
   26.3317  -19.8174   -9.0079 C   0  0  0  0  0  0  0  0  0  0  0  0
   26.9873  -20.3749  -10.0900 C   0  0  0  0  0  0  0  0  0  0  0  0
   24.2132  -20.7282  -13.7910 C   0  0  0  0  0  0  0  0  0  0  0  0
   23.2642  -19.9523  -14.1166 O   0  0  0  0  0  0  0  0  0  0  0  0
   24.0030  -22.0980  -13.6018 N   0  0  0  0  0  0  0  0  0  0  0  0
   24.9869  -23.0830  -13.2485 C   0  0  0  0  0  0  0  0  0  0  0  0
   24.2732  -24.4203  -13.2466 C   0  0  0  0  0  0  0  0  0  0  0  0
   23.1033  -24.1673  -14.1686 C   0  0  0  0  0  0  0  0  0  0  0  0
   22.7120  -22.7564  -13.7450 C   0  0  1  0  0  0  0  0  0  0  0  0
   22.0222  -22.8738  -12.4366 C   0  0  0  0  0  0  0  0  0  0  0  0
   22.6952  -22.6461  -11.3875 O   0  0  0  0  0  0  0  0  0  0  0  0
   17.8483  -20.4650  -12.7212 C   0  0  0  0  0  0  0  0  0  0  0  0
   19.4272  -20.4675  -12.7565 C   0  0  1  0  0  0  0  0  0  0  0  0
   19.7888  -18.9784  -12.9044 C   0  0  0  0  0  0  0  0  0  0  0  0
   19.9056  -21.0786  -11.4956 C   0  0  0  0  0  0  0  0  0  0  0  0
   19.7580  -22.5235  -11.3338 C   0  0  2  0  0  0  0  0  0  0  0  0
   20.6742  -23.2199  -12.2810 N   0  0  0  0  0  0  0  0  0  0  0  0
   18.4370  -23.0832  -11.3851 C   0  0  0  0  0  0  0  0  0  0  0  0
   18.0758  -24.0027  -12.3854 O   0  0  0  0  0  0  0  0  0  0  0  0
   17.5456  -22.7867  -10.5521 O   0  0  0  0  0  0  0  0  0  0  0  0
  2  1  1  6
  2  3  1  0
  3  4  1  0
  4 12  1  0
  4  5  2  0
  5  6  1  0
  7  8  2  0
  7  6  1  0
  9  8  1  0
 10  9  2  0
 11 10  1  0
 11 12  2  0
 12  7  1  0
 13  2  1  0
 13 14  2  0
 15 16  1  0
 15 13  1  0
 17 16  1  0
 18 17  1  0
 18 19  1  0
 19 15  1  0
 19 20  1  1
 20 27  1  0
 21 20  2  0
 23 22  1  1
 23 25  1  0
 24 23  1  0
 26 25  1  6
 26 27  1  0
 26 28  1  0
 28 29  1  0
 30 28  2  0
M  END
$$$$
