CGK.pdb
     RDKit          3D

 20 19  0  0  1  0  0  0  0  0999 V2000
   26.5688  -20.4365   -5.6294 N   0  0  0  0  0  0  0  0  0  0  0  0
   27.2428  -19.7307   -6.6886 C   0  0  1  0  0  0  0  0  0  0  0  0
   28.6198  -19.3339   -6.2206 C   0  0  0  0  0  0  0  0  0  0  0  0
   28.5416  -18.1829   -4.8190 S   0  0  0  0  0  0  0  0  0  0  0  0
   27.4098  -20.6422   -7.8486 C   0  0  0  0  0  0  0  0  0  0  0  0
   28.2936  -21.5479   -7.8491 O   0  0  0  0  0  0  0  0  0  0  0  0
   26.5758  -20.5145   -8.9874 N   0  0  0  0  0  0  0  0  0  0  0  0
   27.0420  -20.7381  -10.3391 C   0  0  0  0  0  0  0  0  0  0  0  0
   25.9513  -20.4193  -11.2769 C   0  0  0  0  0  0  0  0  0  0  0  0
   25.7098  -19.2241  -11.5511 O   0  0  0  0  0  0  0  0  0  0  0  0
   25.1924  -21.4440  -11.8555 N   0  0  0  0  0  0  0  0  0  0  0  0
   24.1670  -21.1393  -12.8289 C   0  0  1  0  0  0  0  0  0  0  0  0
   24.0569  -22.1825  -13.8974 C   0  0  0  0  0  0  0  0  0  0  0  0
   23.0138  -21.9427  -14.9124 C   0  0  0  0  0  0  0  0  0  0  0  0
   22.7706  -23.0281  -15.9003 C   0  0  0  0  0  0  0  0  0  0  0  0
   21.7632  -22.5846  -16.9608 C   0  0  0  0  0  0  0  0  0  0  0  0
   21.6887  -23.6501  -17.9328 N   0  0  0  0  0  0  0  0  0  0  0  0
   22.8837  -20.8260  -12.1658 C   0  0  0  0  0  0  0  0  0  0  0  0
   21.9697  -19.9466  -12.7593 O   0  0  0  0  0  0  0  0  0  0  0  0
   22.5601  -21.3266  -11.0635 O   0  0  0  0  0  0  0  0  0  0  0  0
  2  1  1  1
  3  2  1  0
  4  3  1  0
  5  6  2  0
  5  2  1  0
  7  5  1  0
  8  7  1  0
  9 11  1  0
  9  8  1  0
 10  9  2  0
 12 11  1  0
 12 13  1  6
 13 14  1  0
 14 15  1  0
 15 16  1  0
 16 17  1  0
 18 12  1  0
 19 18  1  0
 20 18  2  0
M  END
$$$$
