CGK.pdb
     RDKit          3D

 20 19  0  0  1  0  0  0  0  0999 V2000
   24.1072  -17.6399  -18.3421 N   0  0  0  0  0  0  0  0  0  0  0  0
   24.4537  -18.7546  -17.4985 C   0  0  1  0  0  0  0  0  0  0  0  0
   25.9466  -18.7722  -17.2903 C   0  0  0  0  0  0  0  0  0  0  0  0
   26.8034  -19.5760  -18.6742 S   0  0  0  0  0  0  0  0  0  0  0  0
   23.8185  -18.5721  -16.1691 C   0  0  0  0  0  0  0  0  0  0  0  0
   23.9699  -17.5018  -15.5113 O   0  0  0  0  0  0  0  0  0  0  0  0
   23.0236  -19.6018  -15.6061 N   0  0  0  0  0  0  0  0  0  0  0  0
   22.3722  -19.4849  -14.3191 C   0  0  0  0  0  0  0  0  0  0  0  0
   21.6161  -20.7216  -14.0551 C   0  0  0  0  0  0  0  0  0  0  0  0
   21.5044  -21.5756  -14.9607 O   0  0  0  0  0  0  0  0  0  0  0  0
   21.0285  -20.9389  -12.8028 N   0  0  0  0  0  0  0  0  0  0  0  0
   20.2075  -22.1065  -12.5689 C   0  0  1  0  0  0  0  0  0  0  0  0
   19.9426  -22.3441  -11.1144 C   0  0  0  0  0  0  0  0  0  0  0  0
   19.1532  -23.5504  -10.8026 C   0  0  0  0  0  0  0  0  0  0  0  0
   18.6893  -23.7096   -9.3981 C   0  0  0  0  0  0  0  0  0  0  0  0
   17.8188  -24.9571   -9.2494 C   0  0  0  0  0  0  0  0  0  0  0  0
   17.4010  -25.0085   -7.8678 N   0  0  0  0  0  0  0  0  0  0  0  0
   18.9858  -22.0699  -13.4001 C   0  0  0  0  0  0  0  0  0  0  0  0
   18.2743  -20.8760  -13.5710 O   0  0  0  0  0  0  0  0  0  0  0  0
   18.5412  -23.0871  -13.9816 O   0  0  0  0  0  0  0  0  0  0  0  0
  2  1  1  6
  3  2  1  0
  4  3  1  0
  5  6  2  0
  5  2  1  0
  7  5  1  0
  8  7  1  0
  9 11  1  0
  9  8  1  0
 10  9  2  0
 12 11  1  0
 12 13  1  1
 13 14  1  0
 14 15  1  0
 15 16  1  0
 16 17  1  0
 18 12  1  0
 19 18  1  0
 20 18  2  0
M  END
$$$$
