CGK.pdb
     RDKit          3D

 20 19  0  0  1  0  0  0  0  0999 V2000
   12.7013  -10.2096   -6.5771 N   0  0  0  0  0  0  0  0  0  0  0  0
   13.0722   -9.7585   -7.8936 C   0  0  1  0  0  0  0  0  0  0  0  0
   12.0568   -8.7545   -8.3768 C   0  0  0  0  0  0  0  0  0  0  0  0
   10.4194   -9.5100   -8.5855 S   0  0  0  0  0  0  0  0  0  0  0  0
   14.3838   -9.0671   -7.8174 C   0  0  0  0  0  0  0  0  0  0  0  0
   14.9849   -8.9207   -6.7134 O   0  0  0  0  0  0  0  0  0  0  0  0
   14.9935   -8.5535   -8.9893 N   0  0  0  0  0  0  0  0  0  0  0  0
   16.2985   -7.9279   -8.9936 C   0  0  0  0  0  0  0  0  0  0  0  0
   16.7186   -7.7146  -10.3896 C   0  0  0  0  0  0  0  0  0  0  0  0
   16.4770   -8.5955  -11.2427 O   0  0  0  0  0  0  0  0  0  0  0  0
   17.3818   -6.5377  -10.7578 N   0  0  0  0  0  0  0  0  0  0  0  0
   17.5803   -6.2116  -12.1529 C   0  0  1  0  0  0  0  0  0  0  0  0
   16.3050   -6.2312  -12.9375 C   0  0  0  0  0  0  0  0  0  0  0  0
   16.4391   -5.9194  -14.3729 C   0  0  0  0  0  0  0  0  0  0  0  0
   15.1915   -5.9192  -15.1834 C   0  0  0  0  0  0  0  0  0  0  0  0
   15.4857   -5.5504  -16.6372 C   0  0  0  0  0  0  0  0  0  0  0  0
   14.2228   -5.5849  -17.3371 N   0  0  0  0  0  0  0  0  0  0  0  0
   18.3524   -4.9598  -12.2995 C   0  0  0  0  0  0  0  0  0  0  0  0
   19.0734   -4.6991  -13.4713 O   0  0  0  0  0  0  0  0  0  0  0  0
   18.3934   -4.0893  -11.3989 O   0  0  0  0  0  0  0  0  0  0  0  0
  2  1  1  1
  3  2  1  0
  4  3  1  0
  5  6  2  0
  5  2  1  0
  7  5  1  0
  8  7  1  0
  9 11  1  0
  9  8  1  0
 10  9  2  0
 12 11  1  0
 12 13  1  1
 13 14  1  0
 14 15  1  0
 15 16  1  0
 16 17  1  0
 18 12  1  0
 19 18  1  0
 20 18  2  0
M  END
$$$$
