CGK.pdb
     RDKit          3D

 20 19  0  0  1  0  0  0  0  0999 V2000
   17.3890  -17.0082  -13.6737 N   0  0  0  0  0  0  0  0  0  0  0  0
   17.7897  -16.5816  -14.9896 C   0  0  1  0  0  0  0  0  0  0  0  0
   17.4922  -17.6804  -15.9779 C   0  0  0  0  0  0  0  0  0  0  0  0
   18.4799  -19.1657  -15.6409 S   0  0  0  0  0  0  0  0  0  0  0  0
   16.9846  -15.3973  -15.3813 C   0  0  0  0  0  0  0  0  0  0  0  0
   15.7273  -15.3827  -15.2387 O   0  0  0  0  0  0  0  0  0  0  0  0
   17.6138  -14.2505  -15.9271 N   0  0  0  0  0  0  0  0  0  0  0  0
   16.8795  -13.1228  -16.4597 C   0  0  0  0  0  0  0  0  0  0  0  0
   17.6657  -11.8966  -16.2384 C   0  0  0  0  0  0  0  0  0  0  0  0
   18.7486  -11.9675  -15.6183 O   0  0  0  0  0  0  0  0  0  0  0  0
   17.2054  -10.6639  -16.7173 N   0  0  0  0  0  0  0  0  0  0  0  0
   17.9653   -9.4552  -16.4856 C   0  0  1  0  0  0  0  0  0  0  0  0
   17.5751   -8.3422  -17.4081 C   0  0  0  0  0  0  0  0  0  0  0  0
   18.3614   -7.1016  -17.2727 C   0  0  0  0  0  0  0  0  0  0  0  0
   17.9717   -5.9570  -18.1396 C   0  0  0  0  0  0  0  0  0  0  0  0
   18.9356   -4.7845  -17.9607 C   0  0  0  0  0  0  0  0  0  0  0  0
   18.5237   -3.7632  -18.8951 N   0  0  0  0  0  0  0  0  0  0  0  0
   17.9427   -9.0814  -15.0558 C   0  0  0  0  0  0  0  0  0  0  0  0
   19.0874   -8.5671  -14.4344 O   0  0  0  0  0  0  0  0  0  0  0  0
   16.9155   -9.2029  -14.3483 O   0  0  0  0  0  0  0  0  0  0  0  0
  2  1  1  1
  3  2  1  0
  4  3  1  0
  5  6  2  0
  5  2  1  0
  7  5  1  0
  8  7  1  0
  9 11  1  0
  9  8  1  0
 10  9  2  0
 12 11  1  0
 12 13  1  6
 13 14  1  0
 14 15  1  0
 15 16  1  0
 16 17  1  0
 18 12  1  0
 19 18  1  0
 20 18  2  0
M  END
$$$$
