CGK.pdb
     RDKit          3D

 20 19  0  0  1  0  0  0  0  0999 V2000
   16.5483  -15.1048  -16.6331 N   0  0  0  0  0  0  0  0  0  0  0  0
   16.8206  -14.0918  -15.6461 C   0  0  1  0  0  0  0  0  0  0  0  0
   17.9200  -14.5729  -14.7338 C   0  0  0  0  0  0  0  0  0  0  0  0
   17.3334  -15.8731  -13.6110 S   0  0  0  0  0  0  0  0  0  0  0  0
   17.3098  -12.8682  -16.3299 C   0  0  0  0  0  0  0  0  0  0  0  0
   17.9417  -12.9364  -17.4241 O   0  0  0  0  0  0  0  0  0  0  0  0
   17.0766  -11.5890  -15.7655 N   0  0  0  0  0  0  0  0  0  0  0  0
   17.3809  -10.3528  -16.4538 C   0  0  0  0  0  0  0  0  0  0  0  0
   18.7507   -9.9386  -16.1033 C   0  0  0  0  0  0  0  0  0  0  0  0
   19.3940  -10.6016  -15.2614 O   0  0  0  0  0  0  0  0  0  0  0  0
   19.3270   -8.8141  -16.7065 N   0  0  0  0  0  0  0  0  0  0  0  0
   20.6685   -8.3999  -16.3591 C   0  0  1  0  0  0  0  0  0  0  0  0
   21.4059   -7.8011  -17.5166 C   0  0  0  0  0  0  0  0  0  0  0  0
   22.7453   -7.2665  -17.2068 C   0  0  0  0  0  0  0  0  0  0  0  0
   23.4599   -6.5583  -18.3027 C   0  0  0  0  0  0  0  0  0  0  0  0
   24.7934   -5.9965  -17.8105 C   0  0  0  0  0  0  0  0  0  0  0  0
   25.3277   -5.1949  -18.8865 N   0  0  0  0  0  0  0  0  0  0  0  0
   20.6639   -7.5501  -15.1499 C   0  0  0  0  0  0  0  0  0  0  0  0
   21.6664   -7.6819  -14.1810 O   0  0  0  0  0  0  0  0  0  0  0  0
   19.7801   -6.6862  -14.9422 O   0  0  0  0  0  0  0  0  0  0  0  0
  2  1  1  6
  3  2  1  0
  4  3  1  0
  5  6  2  0
  5  2  1  0
  7  5  1  0
  8  7  1  0
  9 11  1  0
  9  8  1  0
 10  9  2  0
 12 11  1  0
 12 13  1  6
 13 14  1  0
 14 15  1  0
 15 16  1  0
 16 17  1  0
 18 12  1  0
 19 18  1  0
 20 18  2  0
M  END
$$$$
