CGK.pdb
     RDKit          3D

 20 19  0  0  1  0  0  0  0  0999 V2000
   26.6209  -19.8072  -15.1762 N   0  0  0  0  0  0  0  0  0  0  0  0
   26.5431  -20.8148  -14.1500 C   0  0  1  0  0  0  0  0  0  0  0  0
   27.9344  -21.1398  -13.6693 C   0  0  0  0  0  0  0  0  0  0  0  0
   28.8872  -22.0258  -14.9352 S   0  0  0  0  0  0  0  0  0  0  0  0
   25.7856  -20.2720  -12.9942 C   0  0  0  0  0  0  0  0  0  0  0  0
   25.6087  -19.0271  -12.8524 O   0  0  0  0  0  0  0  0  0  0  0  0
   25.2415  -21.1450  -12.0191 N   0  0  0  0  0  0  0  0  0  0  0  0
   24.4622  -20.6835  -10.8903 C   0  0  0  0  0  0  0  0  0  0  0  0
   23.0913  -21.2091  -11.0126 C   0  0  0  0  0  0  0  0  0  0  0  0
   22.7319  -21.7370  -12.0870 O   0  0  0  0  0  0  0  0  0  0  0  0
   22.1994  -21.1188   -9.9370 N   0  0  0  0  0  0  0  0  0  0  0  0
   20.9474  -21.8427   -9.9575 C   0  0  1  0  0  0  0  0  0  0  0  0
   20.5466  -22.3414   -8.6037 C   0  0  0  0  0  0  0  0  0  0  0  0
   19.3402  -23.1895   -8.5722 C   0  0  0  0  0  0  0  0  0  0  0  0
   18.8968  -23.6840   -7.2410 C   0  0  0  0  0  0  0  0  0  0  0  0
   17.6571  -24.5682   -7.3728 C   0  0  0  0  0  0  0  0  0  0  0  0
   17.3275  -25.0208   -6.0415 N   0  0  0  0  0  0  0  0  0  0  0  0
   19.8954  -21.0620  -10.6418 C   0  0  0  0  0  0  0  0  0  0  0  0
   19.9879  -19.6678  -10.7350 O   0  0  0  0  0  0  0  0  0  0  0  0
   18.8924  -21.6031  -11.1631 O   0  0  0  0  0  0  0  0  0  0  0  0
  2  1  1  6
  3  2  1  0
  4  3  1  0
  5  6  2  0
  5  2  1  0
  7  5  1  0
  8  7  1  0
  9 11  1  0
  9  8  1  0
 10  9  2  0
 12 11  1  0
 12 13  1  1
 13 14  1  0
 14 15  1  0
 15 16  1  0
 16 17  1  0
 18 12  1  0
 19 18  1  0
 20 18  2  0
M  END
$$$$
