ANT.pdb
     RDKit          3D

 21 20  0  0  1  0  0  0  0  0999 V2000
    8.1256  -12.1810   19.6818 C   0  0  0  0  0  0  0  0  0  0  0  0
    8.2630  -13.5948   19.1737 C   0  0  2  0  0  0  0  0  0  0  0  0
    7.1694  -13.9472   18.2979 N   0  0  0  0  0  0  0  0  0  0  0  0
    8.2307  -14.5088   20.3403 C   0  0  0  0  0  0  0  0  0  0  0  0
    7.1001  -14.8758   20.7647 O   0  0  0  0  0  0  0  0  0  0  0  0
   11.2796  -17.7160   19.5934 N   0  0  0  0  0  0  0  0  0  0  0  0
   10.4166  -17.7544   20.7115 C   0  0  0  0  0  0  0  0  0  0  0  0
    9.4788  -18.6203   20.6348 O   0  0  0  0  0  0  0  0  0  0  0  0
   10.5553  -16.8830   21.8897 C   0  0  0  0  0  0  0  0  0  0  0  0
    9.4412  -15.8855   22.0594 C   0  0  2  0  0  0  0  0  0  0  0  0
    9.4232  -14.9605   20.9649 N   0  0  0  0  0  0  0  0  0  0  0  0
    9.4751  -15.2466   23.3958 C   0  0  0  0  0  0  0  0  0  0  0  0
   10.3856  -14.4515   23.6941 O   0  0  0  0  0  0  0  0  0  0  0  0
    6.8670  -13.0633   25.1560 C   0  0  0  0  0  0  0  0  0  0  0  0
    7.0828  -14.3298   25.9750 C   0  0  1  0  0  0  0  0  0  0  0  0
    6.0653  -15.2096   25.5986 O   0  0  0  0  0  0  0  0  0  0  0  0
    8.3906  -14.9866   25.6583 C   0  0  2  0  0  0  0  0  0  0  0  0
    8.4848  -15.5294   24.3366 N   0  0  0  0  0  0  0  0  0  0  0  0
    8.6406  -16.0388   26.6640 C   0  0  0  0  0  0  0  0  0  0  0  0
    8.7649  -15.7787   28.0216 O   0  0  0  0  0  0  0  0  0  0  0  0
    8.7543  -17.2551   26.3142 O   0  0  0  0  0  0  0  0  0  0  0  0
  2  1  1  1
  2  4  1  0
  3  2  1  0
  4 11  1  0
  4  5  2  0
  6  7  1  0
  7  8  2  0
 10  9  1  6
  9  7  1  0
 10 12  1  0
 11 10  1  0
 12 18  1  0
 13 12  2  0
 15 14  1  6
 16 15  1  0
 17 19  1  0
 17 15  1  0
 17 18  1  6
 19 21  2  0
 19 20  1  0
M  END
$$$$
