ANT.pdb
     RDKit          3D

 21 20  0  0  1  0  0  0  0  0999 V2000
   11.8157  -17.8300   15.4457 C   0  0  0  0  0  0  0  0  0  0  0  0
   11.1639  -16.6006   16.0283 C   0  0  2  0  0  0  0  0  0  0  0  0
   11.6020  -15.4023   15.3505 N   0  0  0  0  0  0  0  0  0  0  0  0
   11.5654  -16.4968   17.4514 C   0  0  0  0  0  0  0  0  0  0  0  0
   11.3969  -17.5118   18.1824 O   0  0  0  0  0  0  0  0  0  0  0  0
   15.5197  -14.0458   17.4669 N   0  0  0  0  0  0  0  0  0  0  0  0
   14.9378  -14.8137   18.5004 C   0  0  0  0  0  0  0  0  0  0  0  0
   15.4325  -15.9844   18.6414 O   0  0  0  0  0  0  0  0  0  0  0  0
   13.8479  -14.3371   19.3672 C   0  0  0  0  0  0  0  0  0  0  0  0
   12.6053  -15.1854   19.3263 C   0  0  2  0  0  0  0  0  0  0  0  0
   12.1205  -15.3026   17.9827 N   0  0  0  0  0  0  0  0  0  0  0  0
   11.5909  -14.7206   20.3011 C   0  0  0  0  0  0  0  0  0  0  0  0
   11.9195  -14.4307   21.4664 O   0  0  0  0  0  0  0  0  0  0  0  0
    8.6003  -12.0548   19.6086 C   0  0  0  0  0  0  0  0  0  0  0  0
    8.0960  -13.4146   20.0756 C   0  0  1  0  0  0  0  0  0  0  0  0
    7.7365  -14.1098   18.9186 O   0  0  0  0  0  0  0  0  0  0  0  0
    9.1661  -14.2033   20.7647 C   0  0  2  0  0  0  0  0  0  0  0  0
   10.2534  -14.6025   19.9230 N   0  0  0  0  0  0  0  0  0  0  0  0
    8.5433  -15.3856   21.3935 C   0  0  0  0  0  0  0  0  0  0  0  0
    7.5750  -15.2985   22.3840 O   0  0  0  0  0  0  0  0  0  0  0  0
    8.8801  -16.5593   21.0415 O   0  0  0  0  0  0  0  0  0  0  0  0
  2  1  1  6
  2  4  1  0
  3  2  1  0
  4 11  1  0
  4  5  2  0
  6  7  1  0
  7  8  2  0
 10  9  1  6
  9  7  1  0
 10 12  1  0
 11 10  1  0
 12 18  1  0
 13 12  2  0
 15 14  1  6
 16 15  1  0
 17 19  1  0
 17 15  1  0
 17 18  1  6
 19 21  2  0
 19 20  1  0
M  END
$$$$
