ANT.pdb
     RDKit          3D

 21 20  0  0  1  0  0  0  0  0999 V2000
   -2.2593  -28.4897   29.5431 C   0  0  0  0  0  0  0  0  0  0  0  0
   -3.3591  -27.9972   28.6357 C   0  0  2  0  0  0  0  0  0  0  0  0
   -2.8635  -27.7335   27.3044 N   0  0  0  0  0  0  0  0  0  0  0  0
   -3.8808  -26.7262   29.1921 C   0  0  0  0  0  0  0  0  0  0  0  0
   -4.3889  -26.7581   30.3470 O   0  0  0  0  0  0  0  0  0  0  0  0
   -3.9467  -20.6312   28.2450 N   0  0  0  0  0  0  0  0  0  0  0  0
   -3.8461  -21.8083   29.0202 C   0  0  0  0  0  0  0  0  0  0  0  0
   -4.1169  -21.6575   30.2607 O   0  0  0  0  0  0  0  0  0  0  0  0
   -3.4639  -23.1220   28.4774 C   0  0  0  0  0  0  0  0  0  0  0  0
   -4.3223  -24.2638   28.9513 C   0  0  2  0  0  0  0  0  0  0  0  0
   -3.8162  -25.5113   28.4598 N   0  0  0  0  0  0  0  0  0  0  0  0
   -5.7561  -24.0309   28.6590 C   0  0  0  0  0  0  0  0  0  0  0  0
   -6.1802  -24.0845   27.4897 O   0  0  0  0  0  0  0  0  0  0  0  0
   -8.6139  -24.4430   31.8342 C   0  0  0  0  0  0  0  0  0  0  0  0
   -8.9071  -24.5031   30.3403 C   0  0  1  0  0  0  0  0  0  0  0  0
  -10.2384  -24.1071   30.1931 O   0  0  0  0  0  0  0  0  0  0  0  0
   -8.0597  -23.5437   29.5633 C   0  0  2  0  0  0  0  0  0  0  0  0
   -6.6486  -23.7486   29.6931 N   0  0  0  0  0  0  0  0  0  0  0  0
   -8.4180  -22.1696   29.9692 C   0  0  0  0  0  0  0  0  0  0  0  0
   -7.5397  -21.3162   30.6222 O   0  0  0  0  0  0  0  0  0  0  0  0
   -9.5760  -21.7046   29.7291 O   0  0  0  0  0  0  0  0  0  0  0  0
  2  1  1  1
  2  4  1  0
  3  2  1  0
  4 11  1  0
  4  5  2  0
  6  7  1  0
  7  8  2  0
 10  9  1  6
  9  7  1  0
 10 12  1  0
 11 10  1  0
 12 18  1  0
 13 12  2  0
 15 14  1  1
 16 15  1  0
 17 19  1  0
 17 15  1  0
 17 18  1  1
 19 21  2  0
 19 20  1  0
M  END
$$$$
