ANT.pdb
     RDKit          3D

 21 20  0  0  1  0  0  0  0  0999 V2000
    7.0277  -12.9763   19.2317 C   0  0  0  0  0  0  0  0  0  0  0  0
    8.3163  -13.1473   19.9971 C   0  0  2  0  0  0  0  0  0  0  0  0
    9.2671  -13.9424   19.2547 N   0  0  0  0  0  0  0  0  0  0  0  0
    8.0104  -13.8583   21.2613 C   0  0  0  0  0  0  0  0  0  0  0  0
    7.0478  -13.4290   21.9557 O   0  0  0  0  0  0  0  0  0  0  0  0
    8.1869  -18.5570   21.3107 N   0  0  0  0  0  0  0  0  0  0  0  0
    9.2469  -17.7043   21.6927 C   0  0  0  0  0  0  0  0  0  0  0  0
   10.1946  -17.6126   20.8392 O   0  0  0  0  0  0  0  0  0  0  0  0
    9.2909  -16.9633   22.9637 C   0  0  0  0  0  0  0  0  0  0  0  0
    8.5656  -15.6447   22.9396 C   0  0  2  0  0  0  0  0  0  0  0  0
    8.7673  -14.9827   21.6846 N   0  0  0  0  0  0  0  0  0  0  0  0
    8.8923  -14.8166   24.1241 C   0  0  0  0  0  0  0  0  0  0  0  0
   10.0191  -14.3010   24.2443 O   0  0  0  0  0  0  0  0  0  0  0  0
    6.6449  -11.8567   25.5499 C   0  0  0  0  0  0  0  0  0  0  0  0
    6.8919  -12.9318   26.6008 C   0  0  1  0  0  0  0  0  0  0  0  0
    5.7703  -13.7637   26.5714 O   0  0  0  0  0  0  0  0  0  0  0  0
    8.0881  -13.7712   26.2741 C   0  0  2  0  0  0  0  0  0  0  0  0
    7.9385  -14.6051   25.1198 N   0  0  0  0  0  0  0  0  0  0  0  0
    8.4224  -14.5888   27.4577 C   0  0  0  0  0  0  0  0  0  0  0  0
    8.7515  -14.0428   28.6905 O   0  0  0  0  0  0  0  0  0  0  0  0
    8.4211  -15.8577   27.3897 O   0  0  0  0  0  0  0  0  0  0  0  0
  2  1  1  6
  2  4  1  0
  3  2  1  0
  4 11  1  0
  4  5  2  0
  6  7  1  0
  7  8  2  0
 10  9  1  6
  9  7  1  0
 10 12  1  0
 11 10  1  0
 12 18  1  0
 13 12  2  0
 15 14  1  6
 16 15  1  0
 17 19  1  0
 17 15  1  0
 17 18  1  6
 19 21  2  0
 19 20  1  0
M  END
$$$$
