NSV.pdb
     RDKit          3D

 22 21  0  0  1  0  0  0  0  0999 V2000
   15.5628  -11.7200  -17.9186 N   0  0  0  0  0  0  0  0  0  0  0  0
   15.5649  -10.3191  -17.7562 C   0  0  0  0  0  0  0  0  0  0  0  0
   14.6855   -9.5803  -18.2779 O   0  0  0  0  0  0  0  0  0  0  0  0
   16.6423   -9.6792  -16.9394 C   0  0  0  0  0  0  0  0  0  0  0  0
   17.5682  -10.7334  -16.3686 C   0  0  2  0  0  0  0  0  0  0  0  0
   16.9664  -11.4581  -15.2864 N   0  0  0  0  0  0  0  0  0  0  0  0
   18.8173  -10.0220  -15.9203 C   0  0  0  0  0  0  0  0  0  0  0  0
   18.9627   -9.6320  -14.7314 O   0  0  0  0  0  0  0  0  0  0  0  0
   23.3900   -8.9596  -17.1716 O   0  0  0  0  0  0  0  0  0  0  0  0
   22.1474   -9.5004  -17.4894 C   0  0  0  0  0  0  0  0  0  0  0  0
   21.1248   -9.1133  -16.4442 C   0  0  2  0  0  0  0  0  0  0  0  0
   19.8803   -9.7622  -16.8180 N   0  0  0  0  0  0  0  0  0  0  0  0
   20.9634   -7.6588  -16.2907 C   0  0  0  0  0  0  0  0  0  0  0  0
   20.2321   -7.0555  -17.1352 O   0  0  0  0  0  0  0  0  0  0  0  0
   21.9874   -5.5811  -12.8291 C   0  0  0  0  0  0  0  0  0  0  0  0
   20.9602   -5.0712  -13.8033 C   0  0  2  0  0  0  0  0  0  0  0  0
   19.6594   -5.7944  -13.4918 C   0  0  0  0  0  0  0  0  0  0  0  0
   21.3645   -5.4462  -15.2048 C   0  0  2  0  0  0  0  0  0  0  0  0
   21.5607   -6.8984  -15.2780 N   0  0  0  0  0  0  0  0  0  0  0  0
   22.6020   -4.7335  -15.6174 C   0  0  0  0  0  0  0  0  0  0  0  0
   23.7898   -5.4191  -15.8155 O   0  0  0  0  0  0  0  0  0  0  0  0
   22.6077   -3.4969  -15.7974 O   0  0  0  0  0  0  0  0  0  0  0  0
  2  1  1  0
  2  4  1  0
  3  2  2  0
  5  4  1  0
  5  6  1  1
  7  8  2  0
  7  5  1  0
  9 10  1  0
 11 10  1  6
 11 12  1  0
 12  7  1  0
 13 14  2  0
 13 11  1  0
 16 15  1  1
 17 16  1  0
 18 16  1  0
 18 19  1  1
 19 13  1  0
 20 18  1  0
 21 20  1  0
 22 20  2  0
M  END
$$$$
