NSV.pdb
     RDKit          3D

 22 21  0  0  1  0  0  0  0  0999 V2000
   19.1884  -22.0957  -16.2586 N   0  0  0  0  0  0  0  0  0  0  0  0
   20.4945  -22.1575  -15.7302 C   0  0  0  0  0  0  0  0  0  0  0  0
   21.4764  -21.6059  -16.2982 O   0  0  0  0  0  0  0  0  0  0  0  0
   20.7326  -22.8999  -14.4537 C   0  0  0  0  0  0  0  0  0  0  0  0
   19.4616  -23.5863  -13.9974 C   0  0  2  0  0  0  0  0  0  0  0  0
   18.4881  -22.6557  -13.5025 N   0  0  0  0  0  0  0  0  0  0  0  0
   19.8571  -24.5779  -12.9357 C   0  0  0  0  0  0  0  0  0  0  0  0
   20.7848  -25.4092  -13.1234 O   0  0  0  0  0  0  0  0  0  0  0  0
   17.4616  -24.7587   -9.7472 O   0  0  0  0  0  0  0  0  0  0  0  0
   18.7669  -25.0855   -9.3906 C   0  0  0  0  0  0  0  0  0  0  0  0
   19.5465  -25.5313  -10.6077 C   0  0  2  0  0  0  0  0  0  0  0  0
   19.2016  -24.6165  -11.6819 N   0  0  0  0  0  0  0  0  0  0  0  0
   19.3037  -26.9341  -10.9794 C   0  0  0  0  0  0  0  0  0  0  0  0
   18.2802  -27.1867  -11.6869 O   0  0  0  0  0  0  0  0  0  0  0  0
   22.0658  -29.6335  -11.9010 C   0  0  0  0  0  0  0  0  0  0  0  0
   21.0470  -30.2184  -10.9607 C   0  0  2  0  0  0  0  0  0  0  0  0
   20.6920  -31.5965  -11.4965 C   0  0  0  0  0  0  0  0  0  0  0  0
   19.7945  -29.3825  -10.9908 C   0  0  2  0  0  0  0  0  0  0  0  0
   20.1242  -28.0055  -10.6060 N   0  0  0  0  0  0  0  0  0  0  0  0
   18.7536  -29.9391  -10.0874 C   0  0  0  0  0  0  0  0  0  0  0  0
   18.6016  -29.4654   -8.7941 O   0  0  0  0  0  0  0  0  0  0  0  0
   17.9862  -30.8494  -10.4669 O   0  0  0  0  0  0  0  0  0  0  0  0
  2  1  1  0
  2  4  1  0
  3  2  2  0
  5  4  1  0
  5  6  1  1
  7  8  2  0
  7  5  1  0
  9 10  1  0
 11 10  1  1
 11 12  1  0
 12  7  1  0
 13 14  2  0
 13 11  1  0
 16 15  1  6
 17 16  1  0
 18 16  1  0
 18 19  1  1
 19 13  1  0
 20 18  1  0
 21 20  1  0
 22 20  2  0
M  END
$$$$
