NSV.pdb
     RDKit          3D

 22 21  0  0  1  0  0  0  0  0999 V2000
   24.8551  -21.0317   -9.0544 N   0  0  0  0  0  0  0  0  0  0  0  0
   25.4596  -19.8932   -9.6263 C   0  0  0  0  0  0  0  0  0  0  0  0
   25.8855  -18.9345   -8.9259 O   0  0  0  0  0  0  0  0  0  0  0  0
   25.6047  -19.8111  -11.1129 C   0  0  0  0  0  0  0  0  0  0  0  0
   24.9855  -21.0267  -11.7713 C   0  0  2  0  0  0  0  0  0  0  0  0
   25.6131  -22.2488  -11.3574 N   0  0  0  0  0  0  0  0  0  0  0  0
   25.1073  -20.8279  -13.2589 C   0  0  0  0  0  0  0  0  0  0  0  0
   26.1767  -21.0858  -13.8726 O   0  0  0  0  0  0  0  0  0  0  0  0
   22.0762  -21.4866  -15.8464 O   0  0  0  0  0  0  0  0  0  0  0  0
   22.6075  -20.2031  -15.9354 C   0  0  0  0  0  0  0  0  0  0  0  0
   24.0481  -20.1994  -15.4743 C   0  0  2  0  0  0  0  0  0  0  0  0
   24.0237  -20.3423  -14.0291 N   0  0  0  0  0  0  0  0  0  0  0  0
   24.7972  -19.0057  -15.8973 C   0  0  0  0  0  0  0  0  0  0  0  0
   24.5713  -17.9197  -15.2797 O   0  0  0  0  0  0  0  0  0  0  0  0
   28.3672  -18.1069  -15.8658 C   0  0  0  0  0  0  0  0  0  0  0  0
   27.9067  -17.9632  -17.2911 C   0  0  2  0  0  0  0  0  0  0  0  0
   28.5647  -16.7084  -17.8430 C   0  0  0  0  0  0  0  0  0  0  0  0
   26.4167  -17.7455  -17.3202 C   0  0  2  0  0  0  0  0  0  0  0  0
   25.7400  -18.9883  -16.9324 N   0  0  0  0  0  0  0  0  0  0  0  0
   25.9629  -17.3050  -18.6653 C   0  0  0  0  0  0  0  0  0  0  0  0
   25.7971  -15.9611  -18.9595 O   0  0  0  0  0  0  0  0  0  0  0  0
   25.7177  -18.1324  -19.5692 O   0  0  0  0  0  0  0  0  0  0  0  0
  2  1  1  0
  2  4  1  0
  3  2  2  0
  5  4  1  0
  5  6  1  1
  7  8  2  0
  7  5  1  0
  9 10  1  0
 11 10  1  1
 11 12  1  0
 12  7  1  0
 13 14  2  0
 13 11  1  0
 16 15  1  1
 17 16  1  0
 18 16  1  0
 18 19  1  6
 19 13  1  0
 20 18  1  0
 21 20  1  0
 22 20  2  0
M  END
$$$$
