NSV.pdb
     RDKit          3D

 22 21  0  0  1  0  0  0  0  0999 V2000
   16.3379  -14.3880  -14.6586 N   0  0  0  0  0  0  0  0  0  0  0  0
   17.6650  -13.9674  -14.4334 C   0  0  0  0  0  0  0  0  0  0  0  0
   18.5278  -14.7189  -13.9026 O   0  0  0  0  0  0  0  0  0  0  0  0
   18.0719  -12.5850  -14.8346 C   0  0  0  0  0  0  0  0  0  0  0  0
   16.8826  -11.8225  -15.3811 C   0  0  2  0  0  0  0  0  0  0  0  0
   16.3683  -12.4072  -16.5862 N   0  0  0  0  0  0  0  0  0  0  0  0
   17.3402  -10.4070  -15.6141 C   0  0  0  0  0  0  0  0  0  0  0  0
   17.7298  -10.0187  -16.7473 O   0  0  0  0  0  0  0  0  0  0  0  0
   16.8670   -7.6125  -12.5611 O   0  0  0  0  0  0  0  0  0  0  0  0
   16.7825   -7.2426  -13.9004 C   0  0  0  0  0  0  0  0  0  0  0  0
   17.7415   -8.0647  -14.7324 C   0  0  2  0  0  0  0  0  0  0  0  0
   17.3511   -9.4540  -14.5677 N   0  0  0  0  0  0  0  0  0  0  0  0
   19.1551   -7.8451  -14.3879 C   0  0  0  0  0  0  0  0  0  0  0  0
   19.6395   -8.5230  -13.4300 O   0  0  0  0  0  0  0  0  0  0  0  0
   22.1648   -8.2164  -16.5549 C   0  0  0  0  0  0  0  0  0  0  0  0
   22.2562   -6.8538  -15.9230 C   0  0  2  0  0  0  0  0  0  0  0  0
   23.7048   -6.6579  -15.5042 C   0  0  0  0  0  0  0  0  0  0  0  0
   21.4136   -6.8192  -14.6752 C   0  0  2  0  0  0  0  0  0  0  0  0
   19.9989   -6.9411  -15.0447 N   0  0  0  0  0  0  0  0  0  0  0  0
   21.6431   -5.5688  -13.9048 C   0  0  0  0  0  0  0  0  0  0  0  0
   22.5221   -5.5398  -12.8340 O   0  0  0  0  0  0  0  0  0  0  0  0
   21.0511   -4.5085  -14.1997 O   0  0  0  0  0  0  0  0  0  0  0  0
  2  1  1  0
  2  4  1  0
  3  2  2  0
  5  4  1  0
  5  6  1  6
  7  8  2  0
  7  5  1  0
  9 10  1  0
 11 10  1  1
 11 12  1  0
 12  7  1  0
 13 14  2  0
 13 11  1  0
 16 15  1  1
 17 16  1  0
 18 16  1  0
 18 19  1  6
 19 13  1  0
 20 18  1  0
 21 20  1  0
 22 20  2  0
M  END
$$$$
