NSV.pdb
     RDKit          3D

 22 21  0  0  1  0  0  0  0  0999 V2000
   14.4632  -13.2894  -13.8759 N   0  0  0  0  0  0  0  0  0  0  0  0
   14.3047  -13.1727  -12.4794 C   0  0  0  0  0  0  0  0  0  0  0  0
   13.4507  -13.8468  -11.8409 O   0  0  0  0  0  0  0  0  0  0  0  0
   15.1741  -12.2201  -11.7218 C   0  0  0  0  0  0  0  0  0  0  0  0
   16.1444  -11.5315  -12.6593 C   0  0  2  0  0  0  0  0  0  0  0  0
   17.1368  -12.4315  -13.1726 N   0  0  0  0  0  0  0  0  0  0  0  0
   16.7773  -10.4063  -11.8843 C   0  0  0  0  0  0  0  0  0  0  0  0
   17.8958  -10.5419  -11.3210 O   0  0  0  0  0  0  0  0  0  0  0  0
   19.0100   -7.7150  -11.8932 O   0  0  0  0  0  0  0  0  0  0  0  0
   17.6895   -7.3988  -12.1999 C   0  0  0  0  0  0  0  0  0  0  0  0
   16.7570   -7.9776  -11.1591 C   0  0  2  0  0  0  0  0  0  0  0  0
   16.1403   -9.1489  -11.7570 N   0  0  0  0  0  0  0  0  0  0  0  0
   15.7556   -7.0175  -10.6686 C   0  0  0  0  0  0  0  0  0  0  0  0
   14.8192   -6.6881  -11.4600 O   0  0  0  0  0  0  0  0  0  0  0  0
   15.1265   -6.3001   -6.6833 C   0  0  0  0  0  0  0  0  0  0  0  0
   14.0714   -6.0069   -7.7153 C   0  0  2  0  0  0  0  0  0  0  0  0
   13.3992   -7.3299   -8.0472 C   0  0  0  0  0  0  0  0  0  0  0  0
   14.7245   -5.5003   -8.9743 C   0  0  2  0  0  0  0  0  0  0  0  0
   15.7669   -6.4451   -9.3908 N   0  0  0  0  0  0  0  0  0  0  0  0
   15.3016   -4.1453   -8.7740 C   0  0  0  0  0  0  0  0  0  0  0  0
   16.6704   -3.9358   -8.8282 O   0  0  0  0  0  0  0  0  0  0  0  0
   14.5707   -3.1565   -8.5512 O   0  0  0  0  0  0  0  0  0  0  0  0
  2  1  1  0
  2  4  1  0
  3  2  2  0
  5  4  1  0
  5  6  1  1
  7  8  2  0
  7  5  1  0
  9 10  1  0
 11 10  1  6
 11 12  1  0
 12  7  1  0
 13 14  2  0
 13 11  1  0
 16 15  1  1
 17 16  1  0
 18 16  1  0
 18 19  1  1
 19 13  1  0
 20 18  1  0
 21 20  1  0
 22 20  2  0
M  END
$$$$
