NSV.pdb
     RDKit          3D

 22 21  0  0  1  0  0  0  0  0999 V2000
   26.4381  -36.1352  -14.2619 N   0  0  0  0  0  0  0  0  0  0  0  0
   25.4306  -35.3868  -14.9050 C   0  0  0  0  0  0  0  0  0  0  0  0
   24.6151  -35.9109  -15.7121 O   0  0  0  0  0  0  0  0  0  0  0  0
   25.3178  -33.9214  -14.6267 C   0  0  0  0  0  0  0  0  0  0  0  0
   26.4488  -33.4665  -13.7274 C   0  0  2  0  0  0  0  0  0  0  0  0
   27.7356  -33.8413  -14.2395 N   0  0  0  0  0  0  0  0  0  0  0  0
   26.2024  -34.0759  -12.3728 C   0  0  0  0  0  0  0  0  0  0  0  0
   25.0939  -33.9536  -11.7871 O   0  0  0  0  0  0  0  0  0  0  0  0
   27.9042  -37.2832   -9.1524 O   0  0  0  0  0  0  0  0  0  0  0  0
   27.9955  -36.6221  -10.3740 C   0  0  0  0  0  0  0  0  0  0  0  0
   27.0223  -35.4650  -10.4174 C   0  0  2  0  0  0  0  0  0  0  0  0
   27.2079  -34.8120  -11.7014 N   0  0  0  0  0  0  0  0  0  0  0  0
   27.1751  -34.5264   -9.2946 C   0  0  0  0  0  0  0  0  0  0  0  0
   28.1604  -33.7263   -9.3265 O   0  0  0  0  0  0  0  0  0  0  0  0
   24.1326  -33.2302   -6.8982 C   0  0  0  0  0  0  0  0  0  0  0  0
   25.4546  -32.5211   -7.0150 C   0  0  2  0  0  0  0  0  0  0  0  0
   25.4362  -31.7681   -8.3360 C   0  0  0  0  0  0  0  0  0  0  0  0
   26.5661  -33.5350   -7.0852 C   0  0  2  0  0  0  0  0  0  0  0  0
   26.3086  -34.4571   -8.1970 N   0  0  0  0  0  0  0  0  0  0  0  0
   26.6929  -34.2844   -5.8078 C   0  0  0  0  0  0  0  0  0  0  0  0
   27.2662  -33.7001   -4.6897 O   0  0  0  0  0  0  0  0  0  0  0  0
   26.2870  -35.4618   -5.7046 O   0  0  0  0  0  0  0  0  0  0  0  0
  2  1  1  0
  2  4  1  0
  3  2  2  0
  5  4  1  0
  5  6  1  6
  7  8  2  0
  7  5  1  0
  9 10  1  0
 11 10  1  1
 11 12  1  0
 12  7  1  0
 13 14  2  0
 13 11  1  0
 16 15  1  6
 17 16  1  0
 18 16  1  0
 18 19  1  6
 19 13  1  0
 20 18  1  0
 21 20  1  0
 22 20  2  0
M  END
$$$$
