NSV.pdb
     RDKit          3D

 22 21  0  0  1  0  0  0  0  0999 V2000
   26.2723  -26.8969  -17.5065 N   0  0  0  0  0  0  0  0  0  0  0  0
   27.5397  -26.5753  -16.9782 C   0  0  0  0  0  0  0  0  0  0  0  0
   28.5418  -27.3262  -17.1299 O   0  0  0  0  0  0  0  0  0  0  0  0
   27.7105  -25.3028  -16.2106 C   0  0  0  0  0  0  0  0  0  0  0  0
   27.9009  -24.1365  -17.1582 C   0  0  2  0  0  0  0  0  0  0  0  0
   29.2266  -24.0903  -17.7050 N   0  0  0  0  0  0  0  0  0  0  0  0
   27.5880  -22.8856  -16.3806 C   0  0  0  0  0  0  0  0  0  0  0  0
   28.4505  -22.3324  -15.6479 O   0  0  0  0  0  0  0  0  0  0  0  0
   25.9383  -19.2799  -17.3390 O   0  0  0  0  0  0  0  0  0  0  0  0
   25.1346  -20.2302  -16.7156 C   0  0  0  0  0  0  0  0  0  0  0  0
   25.9534  -21.0548  -15.7474 C   0  0  2  0  0  0  0  0  0  0  0  0
   26.3103  -22.2799  -16.4412 N   0  0  0  0  0  0  0  0  0  0  0  0
   25.2643  -21.3228  -14.4752 C   0  0  0  0  0  0  0  0  0  0  0  0
   24.4482  -22.2948  -14.4414 O   0  0  0  0  0  0  0  0  0  0  0  0
   26.7444  -20.8413  -10.7012 C   0  0  0  0  0  0  0  0  0  0  0  0
   25.3807  -20.2387  -10.9044 C   0  0  2  0  0  0  0  0  0  0  0  0
   24.5647  -20.5650   -9.6635 C   0  0  0  0  0  0  0  0  0  0  0  0
   24.7071  -20.8997  -12.0782 C   0  0  2  0  0  0  0  0  0  0  0  0
   25.4487  -20.5795  -13.3031 N   0  0  0  0  0  0  0  0  0  0  0  0
   23.2905  -20.4662  -12.2004 C   0  0  0  0  0  0  0  0  0  0  0  0
   22.2635  -21.2143  -11.6476 O   0  0  0  0  0  0  0  0  0  0  0  0
   22.9845  -19.4160  -12.8046 O   0  0  0  0  0  0  0  0  0  0  0  0
  2  1  1  0
  2  4  1  0
  3  2  2  0
  5  4  1  0
  5  6  1  1
  7  8  2  0
  7  5  1  0
  9 10  1  0
 11 10  1  6
 11 12  1  0
 12  7  1  0
 13 14  2  0
 13 11  1  0
 16 15  1  1
 17 16  1  0
 18 16  1  0
 18 19  1  6
 19 13  1  0
 20 18  1  0
 21 20  1  0
 22 20  2  0
M  END
$$$$
