NSV.pdb
     RDKit          3D

 22 21  0  0  1  0  0  0  0  0999 V2000
   17.6299  -13.1883  -19.0692 N   0  0  0  0  0  0  0  0  0  0  0  0
   17.1545  -11.8968  -18.7612 C   0  0  0  0  0  0  0  0  0  0  0  0
   16.1656  -11.3851  -19.3541 O   0  0  0  0  0  0  0  0  0  0  0  0
   17.8399  -11.0998  -17.6971 C   0  0  0  0  0  0  0  0  0  0  0  0
   19.0073  -11.8772  -17.1249 C   0  0  2  0  0  0  0  0  0  0  0  0
   18.5807  -12.9786  -16.3104 N   0  0  0  0  0  0  0  0  0  0  0  0
   19.8358  -10.9015  -16.3320 C   0  0  0  0  0  0  0  0  0  0  0  0
   19.4489  -10.4629  -15.2164 O   0  0  0  0  0  0  0  0  0  0  0  0
   24.3075   -9.1642  -15.7675 O   0  0  0  0  0  0  0  0  0  0  0  0
   23.3852   -9.9328  -16.4719 C   0  0  0  0  0  0  0  0  0  0  0  0
   21.9764   -9.5724  -16.0555 C   0  0  2  0  0  0  0  0  0  0  0  0
   21.0849  -10.4368  -16.8088 N   0  0  0  0  0  0  0  0  0  0  0  0
   21.6539   -8.1492  -16.2445 C   0  0  0  0  0  0  0  0  0  0  0  0
   21.3295   -7.7694  -17.4117 O   0  0  0  0  0  0  0  0  0  0  0  0
   19.6015   -4.1002  -15.6659 C   0  0  0  0  0  0  0  0  0  0  0  0
   19.9021   -5.5644  -15.4923 C   0  0  2  0  0  0  0  0  0  0  0  0
   19.3947   -5.9587  -14.1142 C   0  0  0  0  0  0  0  0  0  0  0  0
   21.3929   -5.7781  -15.5061 C   0  0  2  0  0  0  0  0  0  0  0  0
   21.6805   -7.1893  -15.2255 N   0  0  0  0  0  0  0  0  0  0  0  0
   22.0717   -4.9028  -14.5149 C   0  0  0  0  0  0  0  0  0  0  0  0
   22.3191   -3.5676  -14.7910 O   0  0  0  0  0  0  0  0  0  0  0  0
   22.4389   -5.3445  -13.4051 O   0  0  0  0  0  0  0  0  0  0  0  0
  2  1  1  0
  2  4  1  0
  3  2  2  0
  5  4  1  0
  5  6  1  1
  7  8  2  0
  7  5  1  0
  9 10  1  0
 11 10  1  6
 11 12  1  0
 12  7  1  0
 13 14  2  0
 13 11  1  0
 16 15  1  1
 17 16  1  0
 18 16  1  0
 18 19  1  1
 19 13  1  0
 20 18  1  0
 21 20  1  0
 22 20  2  0
M  END
$$$$
