NSV.pdb
     RDKit          3D

 22 21  0  0  1  0  0  0  0  0999 V2000
   12.4174  -10.7069  -10.9841 N   0  0  0  0  0  0  0  0  0  0  0  0
   12.7300  -10.3836  -12.3208 C   0  0  0  0  0  0  0  0  0  0  0  0
   11.8907   -9.8517  -13.0979 O   0  0  0  0  0  0  0  0  0  0  0  0
   14.1005  -10.6776  -12.8429 C   0  0  0  0  0  0  0  0  0  0  0  0
   14.0416  -11.0163  -14.3182 C   0  0  2  0  0  0  0  0  0  0  0  0
   13.5244  -12.3337  -14.5539 N   0  0  0  0  0  0  0  0  0  0  0  0
   15.4413  -10.8760  -14.8553 C   0  0  0  0  0  0  0  0  0  0  0  0
   16.3049  -11.7774  -14.6870 O   0  0  0  0  0  0  0  0  0  0  0  0
   16.3861   -9.8150  -18.4334 O   0  0  0  0  0  0  0  0  0  0  0  0
   16.9155   -8.8987  -17.5290 C   0  0  0  0  0  0  0  0  0  0  0  0
   17.1487   -9.5603  -16.1890 C   0  0  2  0  0  0  0  0  0  0  0  0
   15.8440   -9.7239  -15.5720 N   0  0  0  0  0  0  0  0  0  0  0  0
   18.0790   -8.8198  -15.3222 C   0  0  0  0  0  0  0  0  0  0  0  0
   17.5800   -8.0349  -14.4582 O   0  0  0  0  0  0  0  0  0  0  0  0
   22.2475   -8.5388  -12.8934 C   0  0  0  0  0  0  0  0  0  0  0  0
   21.2881   -9.2456  -13.8123 C   0  0  2  0  0  0  0  0  0  0  0  0
   22.1130   -9.8241  -14.9512 C   0  0  0  0  0  0  0  0  0  0  0  0
   20.3303   -8.2466  -14.4065 C   0  0  2  0  0  0  0  0  0  0  0  0
   19.4739   -8.9235  -15.3868 N   0  0  0  0  0  0  0  0  0  0  0  0
   21.0568   -7.1172  -15.0438 C   0  0  0  0  0  0  0  0  0  0  0  0
   21.5853   -6.0866  -14.2830 O   0  0  0  0  0  0  0  0  0  0  0  0
   21.2120   -7.0637  -16.2826 O   0  0  0  0  0  0  0  0  0  0  0  0
  2  1  1  0
  2  4  1  0
  3  2  2  0
  5  4  1  0
  5  6  1  1
  7  8  2  0
  7  5  1  0
  9 10  1  0
 11 10  1  6
 11 12  1  0
 12  7  1  0
 13 14  2  0
 13 11  1  0
 16 15  1  1
 17 16  1  0
 18 16  1  0
 18 19  1  6
 19 13  1  0
 20 18  1  0
 21 20  1  0
 22 20  2  0
M  END
$$$$
