NSV.pdb
     RDKit          3D

 22 21  0  0  1  0  0  0  0  0999 V2000
   13.4388  -14.3476  -13.7721 N   0  0  0  0  0  0  0  0  0  0  0  0
   14.8398  -14.4446  -13.6435 C   0  0  0  0  0  0  0  0  0  0  0  0
   15.3882  -15.2777  -12.8713 O   0  0  0  0  0  0  0  0  0  0  0  0
   15.7127  -13.5327  -14.4461 C   0  0  0  0  0  0  0  0  0  0  0  0
   14.8784  -12.4662  -15.1252 C   0  0  2  0  0  0  0  0  0  0  0  0
   14.0062  -13.0121  -16.1251 N   0  0  0  0  0  0  0  0  0  0  0  0
   15.8400  -11.4739  -15.7233 C   0  0  0  0  0  0  0  0  0  0  0  0
   16.3985  -11.6841  -16.8327 O   0  0  0  0  0  0  0  0  0  0  0  0
   17.1658   -6.9547  -16.1241 O   0  0  0  0  0  0  0  0  0  0  0  0
   16.3389   -7.9602  -15.6313 C   0  0  0  0  0  0  0  0  0  0  0  0
   17.0882   -9.2728  -15.5729 C   0  0  2  0  0  0  0  0  0  0  0  0
   16.1559  -10.2628  -15.0624 N   0  0  0  0  0  0  0  0  0  0  0  0
   18.3201   -9.2109  -14.7706 C   0  0  0  0  0  0  0  0  0  0  0  0
   18.2065   -9.3062  -13.5097 O   0  0  0  0  0  0  0  0  0  0  0  0
   21.5786  -11.1924  -15.0061 C   0  0  0  0  0  0  0  0  0  0  0  0
   21.9171   -9.7264  -15.0246 C   0  0  2  0  0  0  0  0  0  0  0  0
   23.1247   -9.5410  -14.1193 C   0  0  0  0  0  0  0  0  0  0  0  0
   20.7790   -8.9385  -14.4312 C   0  0  2  0  0  0  0  0  0  0  0  0
   19.6052   -9.0546  -15.3039 N   0  0  0  0  0  0  0  0  0  0  0  0
   21.1503   -7.5110  -14.2474 C   0  0  0  0  0  0  0  0  0  0  0  0
   20.6241   -6.5242  -15.0656 O   0  0  0  0  0  0  0  0  0  0  0  0
   21.9467   -7.1592  -13.3510 O   0  0  0  0  0  0  0  0  0  0  0  0
  2  1  1  0
  2  4  1  0
  3  2  2  0
  5  4  1  0
  5  6  1  6
  7  8  2  0
  7  5  1  0
  9 10  1  0
 11 10  1  1
 11 12  1  0
 12  7  1  0
 13 14  2  0
 13 11  1  0
 16 15  1  1
 17 16  1  0
 18 16  1  0
 18 19  1  6
 19 13  1  0
 20 18  1  0
 21 20  1  0
 22 20  2  0
M  END
$$$$
