NSV.pdb
     RDKit          3D

 22 21  0  0  1  0  0  0  0  0999 V2000
   12.2565  -13.0672  -13.0685 N   0  0  0  0  0  0  0  0  0  0  0  0
   13.3535  -13.7518  -13.6313 C   0  0  0  0  0  0  0  0  0  0  0  0
   13.6100  -14.9551  -13.3528 O   0  0  0  0  0  0  0  0  0  0  0  0
   14.2483  -13.0347  -14.5918 C   0  0  0  0  0  0  0  0  0  0  0  0
   13.8338  -11.5831  -14.7159 C   0  0  2  0  0  0  0  0  0  0  0  0
   12.5898  -11.4300  -15.4142 N   0  0  0  0  0  0  0  0  0  0  0  0
   14.9510  -10.8688  -15.4294 C   0  0  0  0  0  0  0  0  0  0  0  0
   15.5108  -11.3670  -16.4418 O   0  0  0  0  0  0  0  0  0  0  0  0
   15.4567   -6.8312  -14.8584 O   0  0  0  0  0  0  0  0  0  0  0  0
   15.8481   -7.5025  -16.0134 C   0  0  0  0  0  0  0  0  0  0  0  0
   16.4555   -8.8420  -15.6603 C   0  0  2  0  0  0  0  0  0  0  0  0
   15.4181   -9.6068  -14.9907 N   0  0  0  0  0  0  0  0  0  0  0  0
   17.6759   -8.7370  -14.8449 C   0  0  0  0  0  0  0  0  0  0  0  0
   17.5472   -8.7945  -13.5832 O   0  0  0  0  0  0  0  0  0  0  0  0
   22.3797   -9.3892  -14.0409 C   0  0  0  0  0  0  0  0  0  0  0  0
   21.1837   -9.4627  -14.9510 C   0  0  2  0  0  0  0  0  0  0  0  0
   21.6482   -9.0125  -16.3272 C   0  0  0  0  0  0  0  0  0  0  0  0
   20.1342   -8.4885  -14.4843 C   0  0  2  0  0  0  0  0  0  0  0  0
   18.9655   -8.5789  -15.3667 N   0  0  0  0  0  0  0  0  0  0  0  0
   20.6614   -7.0989  -14.4614 C   0  0  0  0  0  0  0  0  0  0  0  0
   20.2878   -6.1763  -15.4254 O   0  0  0  0  0  0  0  0  0  0  0  0
   21.4559   -6.7222  -13.5734 O   0  0  0  0  0  0  0  0  0  0  0  0
  2  1  1  0
  2  4  1  0
  3  2  2  0
  5  4  1  0
  5  6  1  6
  7  8  2  0
  7  5  1  0
  9 10  1  0
 11 10  1  1
 11 12  1  0
 12  7  1  0
 13 14  2  0
 13 11  1  0
 16 15  1  1
 17 16  1  0
 18 16  1  0
 18 19  1  6
 19 13  1  0
 20 18  1  0
 21 20  1  0
 22 20  2  0
M  END
$$$$
