GPA.pdb
     RDKit          3D

 17 17  0  0  1  0  0  0  0  0999 V2000
   28.9049  -18.9132  -16.8093 N   0  0  0  0  0  0  0  0  0  0  0  0
   29.3088  -18.9155  -15.3956 C   0  0  0  0  0  0  0  0  0  0  0  0
   28.5028  -19.8459  -14.6079 C   0  0  0  0  0  0  0  0  0  0  0  0
   27.2702  -19.9767  -15.0162 O   0  0  0  0  0  0  0  0  0  0  0  0
   28.8655  -20.6092  -13.4858 N   0  0  0  0  0  0  0  0  0  0  0  0
   30.1986  -21.3431  -13.5559 C   0  0  0  0  0  0  0  0  0  0  0  0
   30.6255  -21.5235  -12.1368 C   0  0  0  0  0  0  0  0  0  0  0  0
   29.6444  -20.6708  -11.3662 C   0  0  0  0  0  0  0  0  0  0  0  0
   28.3913  -20.9760  -12.2161 C   0  0  1  0  0  0  0  0  0  0  0  0
   27.1939  -20.4650  -11.6280 C   0  0  0  0  0  0  0  0  0  0  0  0
   27.0458  -19.2897  -11.2600 O   0  0  0  0  0  0  0  0  0  0  0  0
   23.5986  -21.3925  -11.3922 C   0  0  0  0  0  0  0  0  0  0  0  0
   24.8591  -20.7879  -10.7744 C   0  0  2  0  0  0  0  0  0  0  0  0
   26.0239  -21.3037  -11.4084 N   0  0  0  0  0  0  0  0  0  0  0  0
   24.8457  -21.0123   -9.3075 C   0  0  0  0  0  0  0  0  0  0  0  0
   25.4920  -21.9450   -8.7699 O   0  0  0  0  0  0  0  0  0  0  0  0
   24.1044  -20.1799   -8.4851 O   0  0  0  0  0  0  0  0  0  0  0  0
  2  1  1  0
  3  2  1  0
  4  3  2  0
  5  3  1  0
  5  6  1  0
  7  6  1  0
  8  9  1  0
  8  7  1  0
  9  5  1  0
  9 10  1  1
 10 14  1  0
 11 10  2  0
 13 14  1  0
 13 15  1  0
 13 12  1  6
 15 17  1  0
 16 15  2  0
M  END
$$$$
