GPA.pdb
     RDKit          3D

 17 17  0  0  1  0  0  0  0  0999 V2000
   18.1524  -12.0741  -17.4160 N   0  0  0  0  0  0  0  0  0  0  0  0
   19.2036  -11.2420  -18.0196 C   0  0  0  0  0  0  0  0  0  0  0  0
   20.0231  -10.5888  -17.0010 C   0  0  0  0  0  0  0  0  0  0  0  0
   19.4524  -10.4801  -15.8325 O   0  0  0  0  0  0  0  0  0  0  0  0
   21.3235  -10.0675  -17.1036 N   0  0  0  0  0  0  0  0  0  0  0  0
   22.3647  -10.9474  -17.7835 C   0  0  0  0  0  0  0  0  0  0  0  0
   23.3946  -10.0046  -18.3117 C   0  0  0  0  0  0  0  0  0  0  0  0
   22.7568   -8.6482  -18.1206 C   0  0  0  0  0  0  0  0  0  0  0  0
   22.0726   -8.9293  -16.7646 C   0  0  1  0  0  0  0  0  0  0  0  0
   21.5201   -7.7507  -16.1761 C   0  0  0  0  0  0  0  0  0  0  0  0
   20.5177   -7.1613  -16.6080 O   0  0  0  0  0  0  0  0  0  0  0  0
   21.6880   -6.0364  -12.8690 C   0  0  0  0  0  0  0  0  0  0  0  0
   21.5011   -5.9965  -14.3855 C   0  0  2  0  0  0  0  0  0  0  0  0
   22.1041   -7.1326  -14.9940 N   0  0  0  0  0  0  0  0  0  0  0  0
   22.0185   -4.7093  -14.9123 C   0  0  0  0  0  0  0  0  0  0  0  0
   23.1550   -4.6125  -15.4374 O   0  0  0  0  0  0  0  0  0  0  0  0
   21.2417   -3.5651  -14.8337 O   0  0  0  0  0  0  0  0  0  0  0  0
  2  1  1  0
  3  2  1  0
  4  3  2  0
  5  3  1  0
  5  6  1  0
  7  6  1  0
  8  9  1  0
  8  7  1  0
  9  5  1  0
  9 10  1  6
 10 14  1  0
 11 10  2  0
 13 14  1  0
 13 15  1  0
 13 12  1  1
 15 17  1  0
 16 15  2  0
M  END
$$$$
