GPA.pdb
     RDKit          3D

 17 17  0  0  1  0  0  0  0  0999 V2000
   24.8731  -14.0498  -19.0807 N   0  0  0  0  0  0  0  0  0  0  0  0
   25.4408  -12.7671  -18.6404 C   0  0  0  0  0  0  0  0  0  0  0  0
   24.6241  -12.1472  -17.5990 C   0  0  0  0  0  0  0  0  0  0  0  0
   23.3486  -12.4108  -17.6802 O   0  0  0  0  0  0  0  0  0  0  0  0
   25.0160  -11.3167  -16.5360 N   0  0  0  0  0  0  0  0  0  0  0  0
   26.2491  -11.7431  -15.7496 C   0  0  0  0  0  0  0  0  0  0  0  0
   26.7970  -10.4854  -15.1610 C   0  0  0  0  0  0  0  0  0  0  0  0
   25.9963   -9.4020  -15.8458 C   0  0  0  0  0  0  0  0  0  0  0  0
   24.6376  -10.1360  -15.8771 C   0  0  1  0  0  0  0  0  0  0  0  0
   23.5679   -9.2885  -16.2994 C   0  0  0  0  0  0  0  0  0  0  0  0
   23.5311   -8.7077  -17.3949 O   0  0  0  0  0  0  0  0  0  0  0  0
   20.0033   -8.7044  -15.4479 C   0  0  0  0  0  0  0  0  0  0  0  0
   21.3648   -8.1660  -15.8869 C   0  0  2  0  0  0  0  0  0  0  0  0
   22.4079   -9.0330  -15.4570 N   0  0  0  0  0  0  0  0  0  0  0  0
   21.5252   -6.7738  -15.3989 C   0  0  0  0  0  0  0  0  0  0  0  0
   22.3814   -6.4651  -14.5338 O   0  0  0  0  0  0  0  0  0  0  0  0
   20.7166   -5.7661  -15.8984 O   0  0  0  0  0  0  0  0  0  0  0  0
  2  1  1  0
  3  2  1  0
  4  3  2  0
  5  3  1  0
  5  6  1  0
  7  6  1  0
  8  9  1  0
  8  7  1  0
  9  5  1  0
  9 10  1  6
 10 14  1  0
 11 10  2  0
 13 14  1  0
 13 15  1  0
 13 12  1  1
 15 17  1  0
 16 15  2  0
M  END
$$$$
