GPA.pdb
     RDKit          3D

 17 17  0  0  1  0  0  0  0  0999 V2000
   19.9886  -12.8611  -17.0957 N   0  0  0  0  0  0  0  0  0  0  0  0
   20.6832  -11.5726  -16.9584 C   0  0  0  0  0  0  0  0  0  0  0  0
   19.9913  -10.6858  -16.0255 C   0  0  0  0  0  0  0  0  0  0  0  0
   18.6890  -10.7474  -16.0821 O   0  0  0  0  0  0  0  0  0  0  0  0
   20.5263   -9.7867  -15.0880 N   0  0  0  0  0  0  0  0  0  0  0  0
   21.6204  -10.3197  -14.1718 C   0  0  0  0  0  0  0  0  0  0  0  0
   22.4104   -9.1214  -13.7611 C   0  0  0  0  0  0  0  0  0  0  0  0
   21.8766   -8.0278  -14.6569 C   0  0  0  0  0  0  0  0  0  0  0  0
   20.3935   -8.4591  -14.6505 C   0  0  1  0  0  0  0  0  0  0  0  0
   19.5403   -7.4926  -15.2658 C   0  0  0  0  0  0  0  0  0  0  0  0
   19.5915   -7.1827  -16.4659 O   0  0  0  0  0  0  0  0  0  0  0  0
   16.2502   -5.9138  -14.5567 C   0  0  0  0  0  0  0  0  0  0  0  0
   17.6551   -5.8440  -15.1546 C   0  0  2  0  0  0  0  0  0  0  0  0
   18.5180   -6.7773  -14.5150 N   0  0  0  0  0  0  0  0  0  0  0  0
   18.1520   -4.4474  -15.0846 C   0  0  0  0  0  0  0  0  0  0  0  0
   19.1198   -4.1200  -14.3546 O   0  0  0  0  0  0  0  0  0  0  0  0
   17.5452   -3.4566  -15.8389 O   0  0  0  0  0  0  0  0  0  0  0  0
  2  1  1  0
  3  2  1  0
  4  3  2  0
  5  3  1  0
  5  6  1  0
  7  6  1  0
  8  9  1  0
  8  7  1  0
  9  5  1  0
  9 10  1  6
 10 14  1  0
 11 10  2  0
 13 14  1  0
 13 15  1  0
 13 12  1  1
 15 17  1  0
 16 15  2  0
M  END
$$$$
