GPA.pdb
     RDKit          3D

 17 17  0  0  1  0  0  0  0  0999 V2000
   18.7538  -12.7871  -16.3886 N   0  0  0  0  0  0  0  0  0  0  0  0
   19.9181  -11.9522  -16.7188 C   0  0  0  0  0  0  0  0  0  0  0  0
   20.0638  -10.8391  -15.7830 C   0  0  0  0  0  0  0  0  0  0  0  0
   18.9625  -10.1797  -15.5478 O   0  0  0  0  0  0  0  0  0  0  0  0
   21.2105  -10.3854  -15.1102 N   0  0  0  0  0  0  0  0  0  0  0  0
   22.1011  -11.4472  -14.4776 C   0  0  0  0  0  0  0  0  0  0  0  0
   23.4594  -10.8320  -14.4057 C   0  0  0  0  0  0  0  0  0  0  0  0
   23.3135   -9.5678  -15.2206 C   0  0  0  0  0  0  0  0  0  0  0  0
   21.8812   -9.1980  -14.7760 C   0  0  1  0  0  0  0  0  0  0  0  0
   21.4874   -7.9001  -15.2245 C   0  0  0  0  0  0  0  0  0  0  0  0
   21.4600   -7.5538  -16.4153 O   0  0  0  0  0  0  0  0  0  0  0  0
   19.4396   -5.0879  -14.0054 C   0  0  0  0  0  0  0  0  0  0  0  0
   20.6733   -5.5740  -14.7656 C   0  0  2  0  0  0  0  0  0  0  0  0
   21.0772   -6.8553  -14.2968 N   0  0  0  0  0  0  0  0  0  0  0  0
   21.7458   -4.5530  -14.6694 C   0  0  0  0  0  0  0  0  0  0  0  0
   21.6242   -3.4088  -15.1721 O   0  0  0  0  0  0  0  0  0  0  0  0
   22.9273   -4.8481  -14.0091 O   0  0  0  0  0  0  0  0  0  0  0  0
  2  1  1  0
  3  2  1  0
  4  3  2  0
  5  3  1  0
  5  6  1  0
  7  6  1  0
  8  9  1  0
  8  7  1  0
  9  5  1  0
  9 10  1  6
 10 14  1  0
 11 10  2  0
 13 14  1  0
 13 15  1  0
 13 12  1  1
 15 17  1  0
 16 15  2  0
M  END
$$$$
