GPA.pdb
     RDKit          3D

 17 17  0  0  1  0  0  0  0  0999 V2000
   21.3793  -12.2386  -19.5685 N   0  0  0  0  0  0  0  0  0  0  0  0
   22.4478  -11.8187  -18.6500 C   0  0  0  0  0  0  0  0  0  0  0  0
   21.9554  -10.8757  -17.6480 C   0  0  0  0  0  0  0  0  0  0  0  0
   21.0920  -10.0067  -18.0980 O   0  0  0  0  0  0  0  0  0  0  0  0
   22.2784  -10.7754  -16.2846 N   0  0  0  0  0  0  0  0  0  0  0  0
   22.3589  -12.0786  -15.4999 C   0  0  0  0  0  0  0  0  0  0  0  0
   23.2741  -11.7948  -14.3551 C   0  0  0  0  0  0  0  0  0  0  0  0
   23.8479  -10.4388  -14.6950 C   0  0  0  0  0  0  0  0  0  0  0  0
   22.5696   -9.8177  -15.2999 C   0  0  1  0  0  0  0  0  0  0  0  0
   22.7097   -8.4194  -15.5566 C   0  0  0  0  0  0  0  0  0  0  0  0
   23.5764   -7.9313  -16.2976 O   0  0  0  0  0  0  0  0  0  0  0  0
   20.7353   -5.5095  -15.9571 C   0  0  0  0  0  0  0  0  0  0  0  0
   21.9716   -6.0453  -15.2356 C   0  0  2  0  0  0  0  0  0  0  0  0
   21.8248   -7.4323  -14.9541 N   0  0  0  0  0  0  0  0  0  0  0  0
   22.2282   -5.2282  -14.0237 C   0  0  0  0  0  0  0  0  0  0  0  0
   21.9738   -5.6504  -12.8689 O   0  0  0  0  0  0  0  0  0  0  0  0
   22.7646   -3.9569  -14.1450 O   0  0  0  0  0  0  0  0  0  0  0  0
  2  1  1  0
  3  2  1  0
  4  3  2  0
  5  3  1  0
  5  6  1  0
  7  6  1  0
  8  9  1  0
  8  7  1  0
  9  5  1  0
  9 10  1  6
 10 14  1  0
 11 10  2  0
 13 14  1  0
 13 15  1  0
 13 12  1  1
 15 17  1  0
 16 15  2  0
M  END
$$$$
