GPA.pdb
     RDKit          3D

 17 17  0  0  1  0  0  0  0  0999 V2000
   21.1978  -25.4874  -15.7675 N   0  0  0  0  0  0  0  0  0  0  0  0
   21.1990  -25.6824  -14.3102 C   0  0  0  0  0  0  0  0  0  0  0  0
   20.0665  -26.4978  -13.8761 C   0  0  0  0  0  0  0  0  0  0  0  0
   19.0149  -26.4196  -14.6449 O   0  0  0  0  0  0  0  0  0  0  0  0
   19.9535  -27.3431  -12.7599 N   0  0  0  0  0  0  0  0  0  0  0  0
   21.1965  -28.1307  -12.3659 C   0  0  0  0  0  0  0  0  0  0  0  0
   21.0385  -28.4157  -10.9090 C   0  0  0  0  0  0  0  0  0  0  0  0
   19.8515  -27.5679  -10.5144 C   0  0  0  0  0  0  0  0  0  0  0  0
   19.0188  -27.7644  -11.8005 C   0  0  1  0  0  0  0  0  0  0  0  0
   17.6967  -27.2365  -11.6819 C   0  0  0  0  0  0  0  0  0  0  0  0
   17.4210  -26.0288  -11.7472 O   0  0  0  0  0  0  0  0  0  0  0  0
   14.1891  -28.6142  -11.7781 C   0  0  0  0  0  0  0  0  0  0  0  0
   15.2253  -27.5539  -11.4066 C   0  0  2  0  0  0  0  0  0  0  0  0
   16.5398  -28.0950  -11.4698 N   0  0  0  0  0  0  0  0  0  0  0  0
   14.8927  -26.9837  -10.0775 C   0  0  0  0  0  0  0  0  0  0  0  0
   15.6149  -27.1784   -9.0689 O   0  0  0  0  0  0  0  0  0  0  0  0
   13.7552  -26.2091   -9.9199 O   0  0  0  0  0  0  0  0  0  0  0  0
  2  1  1  0
  3  2  1  0
  4  3  2  0
  5  3  1  0
  5  6  1  0
  7  6  1  0
  8  9  1  0
  8  7  1  0
  9  5  1  0
  9 10  1  1
 10 14  1  0
 11 10  2  0
 13 14  1  0
 13 15  1  0
 13 12  1  1
 15 17  1  0
 16 15  2  0
M  END
$$$$
