GPA.pdb
     RDKit          3D

 17 17  0  0  1  0  0  0  0  0999 V2000
   19.7804  -12.6056  -17.9369 N   0  0  0  0  0  0  0  0  0  0  0  0
   20.9975  -11.8354  -17.6416 C   0  0  0  0  0  0  0  0  0  0  0  0
   20.7557  -10.8193  -16.6194 C   0  0  0  0  0  0  0  0  0  0  0  0
   19.6616  -10.1285  -16.7885 O   0  0  0  0  0  0  0  0  0  0  0  0
   21.5280  -10.4865  -15.4942 N   0  0  0  0  0  0  0  0  0  0  0  0
   22.0901  -11.6447  -14.6798 C   0  0  0  0  0  0  0  0  0  0  0  0
   23.2992  -11.0971  -13.9963 C   0  0  0  0  0  0  0  0  0  0  0  0
   23.4906   -9.7494  -14.6526 C   0  0  0  0  0  0  0  0  0  0  0  0
   21.9994   -9.3694  -14.7860 C   0  0  1  0  0  0  0  0  0  0  0  0
   21.8153   -8.0165  -15.2060 C   0  0  0  0  0  0  0  0  0  0  0  0
   22.1753   -7.5746  -16.3078 O   0  0  0  0  0  0  0  0  0  0  0  0
   19.6578   -5.1305  -14.3617 C   0  0  0  0  0  0  0  0  0  0  0  0
   21.0220   -5.6766  -14.7821 C   0  0  2  0  0  0  0  0  0  0  0  0
   21.1750   -7.0247  -14.3534 N   0  0  0  0  0  0  0  0  0  0  0  0
   22.0898   -4.7789  -14.2760 C   0  0  0  0  0  0  0  0  0  0  0  0
   22.7373   -5.0360  -13.2313 O   0  0  0  0  0  0  0  0  0  0  0  0
   22.3999   -3.6152  -14.9603 O   0  0  0  0  0  0  0  0  0  0  0  0
  2  1  1  0
  3  2  1  0
  4  3  2  0
  5  3  1  0
  5  6  1  0
  7  6  1  0
  8  9  1  0
  8  7  1  0
  9  5  1  0
  9 10  1  6
 10 14  1  0
 11 10  2  0
 13 14  1  0
 13 15  1  0
 13 12  1  1
 15 17  1  0
 16 15  2  0
M  END
$$$$
