GPA.pdb
     RDKit          3D

 17 17  0  0  1  0  0  0  0  0999 V2000
   19.8476  -12.6459  -18.0662 N   0  0  0  0  0  0  0  0  0  0  0  0
   21.0834  -11.9306  -17.7154 C   0  0  0  0  0  0  0  0  0  0  0  0
   20.8768  -11.0207  -16.5907 C   0  0  0  0  0  0  0  0  0  0  0  0
   19.7538  -10.3571  -16.6282 O   0  0  0  0  0  0  0  0  0  0  0  0
   21.7090  -10.7636  -15.4885 N   0  0  0  0  0  0  0  0  0  0  0  0
   22.2383  -11.9742  -14.7302 C   0  0  0  0  0  0  0  0  0  0  0  0
   23.5008  -11.5126  -14.0808 C   0  0  0  0  0  0  0  0  0  0  0  0
   23.7397  -10.1578  -14.7060 C   0  0  0  0  0  0  0  0  0  0  0  0
   22.2673   -9.6952  -14.7687 C   0  0  1  0  0  0  0  0  0  0  0  0
   22.1410   -8.3222  -15.1426 C   0  0  0  0  0  0  0  0  0  0  0  0
   22.6031   -7.8403  -16.1881 O   0  0  0  0  0  0  0  0  0  0  0  0
   19.8511   -5.5410  -14.5529 C   0  0  0  0  0  0  0  0  0  0  0  0
   21.3002   -6.0001  -14.7127 C   0  0  2  0  0  0  0  0  0  0  0  0
   21.4431   -7.3562  -14.3060 N   0  0  0  0  0  0  0  0  0  0  0  0
   22.1951   -5.0731  -13.9766 C   0  0  0  0  0  0  0  0  0  0  0  0
   22.4794   -3.9317  -14.4158 O   0  0  0  0  0  0  0  0  0  0  0  0
   22.7462   -5.4567  -12.7650 O   0  0  0  0  0  0  0  0  0  0  0  0
  2  1  1  0
  3  2  1  0
  4  3  2  0
  5  3  1  0
  5  6  1  0
  7  6  1  0
  8  9  1  0
  8  7  1  0
  9  5  1  0
  9 10  1  6
 10 14  1  0
 11 10  2  0
 13 14  1  0
 13 15  1  0
 13 12  1  1
 15 17  1  0
 16 15  2  0
M  END
$$$$
