GPA.pdb
     RDKit          3D

 17 17  0  0  1  0  0  0  0  0999 V2000
   25.2251  -14.4884  -18.8835 N   0  0  0  0  0  0  0  0  0  0  0  0
   25.6664  -13.0943  -18.7297 C   0  0  0  0  0  0  0  0  0  0  0  0
   24.9014  -12.3994  -17.6965 C   0  0  0  0  0  0  0  0  0  0  0  0
   23.6213  -12.6530  -17.7056 O   0  0  0  0  0  0  0  0  0  0  0  0
   25.3466  -11.5069  -16.7073 N   0  0  0  0  0  0  0  0  0  0  0  0
   26.5855  -11.9155  -15.9207 C   0  0  0  0  0  0  0  0  0  0  0  0
   27.1878  -10.6370  -15.4397 C   0  0  0  0  0  0  0  0  0  0  0  0
   26.4042   -9.5806  -16.1837 C   0  0  0  0  0  0  0  0  0  0  0  0
   25.0227  -10.2692  -16.1287 C   0  0  1  0  0  0  0  0  0  0  0  0
   23.9697   -9.4197  -16.5873 C   0  0  0  0  0  0  0  0  0  0  0  0
   23.8643   -9.0093  -17.7532 O   0  0  0  0  0  0  0  0  0  0  0  0
   20.6268   -8.9425  -16.5216 C   0  0  0  0  0  0  0  0  0  0  0  0
   21.8670   -8.1170  -16.1801 C   0  0  2  0  0  0  0  0  0  0  0  0
   22.9109   -8.9570  -15.7012 N   0  0  0  0  0  0  0  0  0  0  0  0
   21.4971   -7.0438  -15.2244 C   0  0  0  0  0  0  0  0  0  0  0  0
   21.8412   -7.0784  -14.0172 O   0  0  0  0  0  0  0  0  0  0  0  0
   20.7494   -5.9597  -15.6539 O   0  0  0  0  0  0  0  0  0  0  0  0
  2  1  1  0
  3  2  1  0
  4  3  2  0
  5  3  1  0
  5  6  1  0
  7  6  1  0
  8  9  1  0
  8  7  1  0
  9  5  1  0
  9 10  1  6
 10 14  1  0
 11 10  2  0
 13 14  1  0
 13 15  1  0
 13 12  1  1
 15 17  1  0
 16 15  2  0
M  END
$$$$
