GPA.pdb
     RDKit          3D

 17 17  0  0  1  0  0  0  0  0999 V2000
   23.8426  -14.0552  -18.3698 N   0  0  0  0  0  0  0  0  0  0  0  0
   24.5356  -12.7589  -18.3359 C   0  0  0  0  0  0  0  0  0  0  0  0
   24.0548  -11.9211  -17.2392 C   0  0  0  0  0  0  0  0  0  0  0  0
   22.7668  -11.9776  -17.0370 O   0  0  0  0  0  0  0  0  0  0  0  0
   24.7772  -11.0733  -16.3832 N   0  0  0  0  0  0  0  0  0  0  0  0
   26.0812  -11.6193  -15.8156 C   0  0  0  0  0  0  0  0  0  0  0  0
   26.9100  -10.4175  -15.5031 C   0  0  0  0  0  0  0  0  0  0  0  0
   26.1357   -9.2852  -16.1370 C   0  0  0  0  0  0  0  0  0  0  0  0
   24.7152   -9.7944  -15.8070 C   0  0  1  0  0  0  0  0  0  0  0  0
   23.7055   -8.8284  -16.1035 C   0  0  0  0  0  0  0  0  0  0  0  0
   23.4527   -8.4138  -17.2450 O   0  0  0  0  0  0  0  0  0  0  0  0
   20.6738   -7.4785  -14.3742 C   0  0  0  0  0  0  0  0  0  0  0  0
   21.8088   -7.3526  -15.3902 C   0  0  2  0  0  0  0  0  0  0  0  0
   22.8727   -8.2395  -15.0642 N   0  0  0  0  0  0  0  0  0  0  0  0
   22.2375   -5.9347  -15.4775 C   0  0  0  0  0  0  0  0  0  0  0  0
   21.4577   -5.0242  -15.8510 O   0  0  0  0  0  0  0  0  0  0  0  0
   23.5337   -5.5799  -15.1414 O   0  0  0  0  0  0  0  0  0  0  0  0
  2  1  1  0
  3  2  1  0
  4  3  2  0
  5  3  1  0
  5  6  1  0
  7  6  1  0
  8  9  1  0
  8  7  1  0
  9  5  1  0
  9 10  1  6
 10 14  1  0
 11 10  2  0
 13 14  1  0
 13 15  1  0
 13 12  1  1
 15 17  1  0
 16 15  2  0
M  END
$$$$
