MPP.pdb
     RDKit          3D

 23 24  0  0  1  0  0  0  0  0999 V2000
    6.0985  -18.9064   24.5177 C   0  0  0  0  0  0  0  0  0  0  0  0
    7.1905  -19.1340   23.1072 S   0  0  0  0  0  0  0  0  0  0  0  0
    7.9492  -17.5717   22.5938 C   0  0  0  0  0  0  0  0  0  0  0  0
    6.8748  -16.5494   22.2679 C   0  0  0  0  0  0  0  0  0  0  0  0
    7.5040  -15.1826   22.0680 C   0  0  2  0  0  0  0  0  0  0  0  0
    8.2717  -15.2446   20.8684 N   0  0  0  0  0  0  0  0  0  0  0  0
    8.1817  -14.6915   23.2614 C   0  0  0  0  0  0  0  0  0  0  0  0
    9.4282  -14.4141   23.1302 O   0  0  0  0  0  0  0  0  0  0  0  0
    7.6280  -14.4835   24.5516 N   0  0  0  0  0  0  0  0  0  0  0  0
    6.2986  -14.7174   25.0730 C   0  0  0  0  0  0  0  0  0  0  0  0
    6.0120  -13.3487   25.6879 C   0  0  0  0  0  0  0  0  0  0  0  0
    7.3208  -13.1002   26.3978 C   0  0  0  0  0  0  0  0  0  0  0  0
    8.3669  -13.9324   25.6566 C   0  0  1  0  0  0  0  0  0  0  0  0
    9.0520  -14.8660   26.5435 C   0  0  0  0  0  0  0  0  0  0  0  0
    8.9077  -16.1214   26.2570 O   0  0  0  0  0  0  0  0  0  0  0  0
    9.8605  -14.5954   27.6905 N   0  0  0  0  0  0  0  0  0  0  0  0
    9.9860  -13.3435   28.3778 C   0  0  0  0  0  0  0  0  0  0  0  0
   11.2319  -13.4849   29.2653 C   0  0  0  0  0  0  0  0  0  0  0  0
   11.1914  -14.9431   29.6020 C   0  0  0  0  0  0  0  0  0  0  0  0
   10.6889  -15.5881   28.3505 C   0  0  1  0  0  0  0  0  0  0  0  0
    9.9288  -16.8290   28.6836 C   0  0  0  0  0  0  0  0  0  0  0  0
   10.5737  -17.9824   29.0287 O   0  0  0  0  0  0  0  0  0  0  0  0
    8.6837  -16.7901   28.6382 O   0  0  0  0  0  0  0  0  0  0  0  0
  2  1  1  0
  3  2  1  0
  4  3  1  0
  5  7  1  0
  5  4  1  0
  5  6  1  6
  7  9  1  0
  8  7  2  0
  9 10  1  0
  9 13  1  0
 10 11  1  0
 11 12  1  0
 13 12  1  0
 14 16  1  0
 13 14  1  1
 15 14  2  0
 16 17  1  0
 18 17  1  0
 19 18  1  0
 20 21  1  1
 20 16  1  0
 20 19  1  0
 21 22  1  0
 23 21  2  0
M  END
$$$$
