MPP.pdb
     RDKit          3D

 23 24  0  0  1  0  0  0  0  0999 V2000
    6.6214  -18.3100   24.8036 C   0  0  0  0  0  0  0  0  0  0  0  0
    7.1662  -18.8823   23.1883 S   0  0  0  0  0  0  0  0  0  0  0  0
    7.6518  -17.5014   22.1217 C   0  0  0  0  0  0  0  0  0  0  0  0
    6.6026  -16.4050   22.1735 C   0  0  0  0  0  0  0  0  0  0  0  0
    7.2566  -15.0520   21.9600 C   0  0  2  0  0  0  0  0  0  0  0  0
    8.0093  -15.1347   20.7522 N   0  0  0  0  0  0  0  0  0  0  0  0
    7.9575  -14.5691   23.1433 C   0  0  0  0  0  0  0  0  0  0  0  0
    9.2026  -14.2961   22.9911 O   0  0  0  0  0  0  0  0  0  0  0  0
    7.4277  -14.3648   24.4441 N   0  0  0  0  0  0  0  0  0  0  0  0
    6.1002  -14.5716   24.9816 C   0  0  0  0  0  0  0  0  0  0  0  0
    5.8580  -13.2046   25.6189 C   0  0  0  0  0  0  0  0  0  0  0  0
    7.1828  -12.9997   26.3131 C   0  0  0  0  0  0  0  0  0  0  0  0
    8.1963  -13.8482   25.5456 C   0  0  1  0  0  0  0  0  0  0  0  0
    8.8694  -14.8113   26.4098 C   0  0  0  0  0  0  0  0  0  0  0  0
    8.7104  -16.0576   26.0926 O   0  0  0  0  0  0  0  0  0  0  0  0
    9.6802  -14.5785   27.5635 N   0  0  0  0  0  0  0  0  0  0  0  0
    9.8202  -13.3452   28.2812 C   0  0  0  0  0  0  0  0  0  0  0  0
   11.0635  -13.5232   29.1656 C   0  0  0  0  0  0  0  0  0  0  0  0
   11.0052  -14.9886   29.4666 C   0  0  0  0  0  0  0  0  0  0  0  0
   10.4960  -15.5968   28.1996 C   0  0  1  0  0  0  0  0  0  0  0  0
    9.7208  -16.8362   28.5019 C   0  0  0  0  0  0  0  0  0  0  0  0
    8.3552  -16.8399   28.4780 O   0  0  0  0  0  0  0  0  0  0  0  0
   10.3510  -17.8751   28.7801 O   0  0  0  0  0  0  0  0  0  0  0  0
  2  1  1  0
  3  2  1  0
  4  3  1  0
  5  7  1  0
  5  4  1  0
  5  6  1  6
  7  9  1  0
  8  7  2  0
  9 10  1  0
  9 13  1  0
 10 11  1  0
 11 12  1  0
 13 12  1  0
 14 16  1  0
 13 14  1  1
 15 14  2  0
 16 17  1  0
 18 17  1  0
 19 18  1  0
 20 21  1  1
 20 16  1  0
 20 19  1  0
 21 22  1  0
 23 21  2  0
M  END
$$$$
