MPP.pdb
     RDKit          3D

 23 24  0  0  1  0  0  0  0  0999 V2000
   10.5809  -13.9789   29.6406 C   0  0  0  0  0  0  0  0  0  0  0  0
   10.8989  -15.7329   29.8779 S   0  0  0  0  0  0  0  0  0  0  0  0
    9.5488  -16.7484   29.2249 C   0  0  0  0  0  0  0  0  0  0  0  0
    8.6453  -15.9112   28.3371 C   0  0  0  0  0  0  0  0  0  0  0  0
    7.5666  -16.7859   27.7244 C   0  0  2  0  0  0  0  0  0  0  0  0
    8.0980  -18.1054   27.6308 N   0  0  0  0  0  0  0  0  0  0  0  0
    6.9974  -16.2153   26.5099 C   0  0  0  0  0  0  0  0  0  0  0  0
    6.1681  -16.9581   25.8708 O   0  0  0  0  0  0  0  0  0  0  0  0
    7.2507  -14.9363   25.9492 N   0  0  0  0  0  0  0  0  0  0  0  0
    7.9019  -13.7637   26.4923 C   0  0  0  0  0  0  0  0  0  0  0  0
    6.8328  -12.7113   26.2043 C   0  0  0  0  0  0  0  0  0  0  0  0
    6.4819  -13.0753   24.7820 C   0  0  0  0  0  0  0  0  0  0  0  0
    6.8429  -14.5521   24.6237 C   0  0  1  0  0  0  0  0  0  0  0  0
    7.7897  -14.7703   23.5359 C   0  0  0  0  0  0  0  0  0  0  0  0
    9.0214  -14.9572   23.8926 O   0  0  0  0  0  0  0  0  0  0  0  0
    7.5554  -14.8045   22.1266 N   0  0  0  0  0  0  0  0  0  0  0  0
    6.4296  -14.2555   21.4287 C   0  0  0  0  0  0  0  0  0  0  0  0
    6.4676  -14.8849   20.0279 C   0  0  0  0  0  0  0  0  0  0  0  0
    7.9408  -15.0466   19.8160 C   0  0  0  0  0  0  0  0  0  0  0  0
    8.4615  -15.4118   21.1687 C   0  0  1  0  0  0  0  0  0  0  0  0
    9.8632  -14.9232   21.3270 C   0  0  0  0  0  0  0  0  0  0  0  0
   10.9035  -15.5408   20.6930 O   0  0  0  0  0  0  0  0  0  0  0  0
   10.0657  -13.9331   22.0567 O   0  0  0  0  0  0  0  0  0  0  0  0
  2  1  1  0
  3  2  1  0
  4  3  1  0
  5  7  1  0
  5  4  1  0
  5  6  1  6
  7  9  1  0
  8  7  2  0
  9 10  1  0
  9 13  1  0
 10 11  1  0
 11 12  1  0
 13 12  1  0
 14 16  1  0
 13 14  1  6
 15 14  2  0
 16 17  1  0
 18 17  1  0
 19 18  1  0
 20 21  1  1
 20 16  1  0
 20 19  1  0
 21 22  1  0
 23 21  2  0
M  END
$$$$
