MPP.pdb
     RDKit          3D

 23 24  0  0  1  0  0  0  0  0999 V2000
    9.8532  -13.7398   29.3802 C   0  0  0  0  0  0  0  0  0  0  0  0
   10.5906  -14.6575   28.0209 S   0  0  0  0  0  0  0  0  0  0  0  0
    9.7128  -16.2115   27.7132 C   0  0  0  0  0  0  0  0  0  0  0  0
    8.5581  -16.3631   28.6875 C   0  0  0  0  0  0  0  0  0  0  0  0
    7.4180  -17.1158   28.0262 C   0  0  2  0  0  0  0  0  0  0  0  0
    7.7581  -18.5000   28.0502 N   0  0  0  0  0  0  0  0  0  0  0  0
    7.0393  -16.5510   26.7369 C   0  0  0  0  0  0  0  0  0  0  0  0
    6.4077  -17.3343   25.9397 O   0  0  0  0  0  0  0  0  0  0  0  0
    7.2858  -15.2380   26.2574 N   0  0  0  0  0  0  0  0  0  0  0  0
    7.8727  -14.0793   26.8951 C   0  0  0  0  0  0  0  0  0  0  0  0
    6.7910  -13.0412   26.6024 C   0  0  0  0  0  0  0  0  0  0  0  0
    6.5283  -13.3388   25.1459 C   0  0  0  0  0  0  0  0  0  0  0  0
    6.9397  -14.7953   24.9326 C   0  0  1  0  0  0  0  0  0  0  0  0
    7.9500  -14.9313   23.8895 C   0  0  0  0  0  0  0  0  0  0  0  0
    9.1542  -15.1739   24.3023 O   0  0  0  0  0  0  0  0  0  0  0  0
    7.8044  -14.8318   22.4713 N   0  0  0  0  0  0  0  0  0  0  0  0
    6.7749  -14.1320   21.7599 C   0  0  0  0  0  0  0  0  0  0  0  0
    6.8503  -14.6479   20.3149 C   0  0  0  0  0  0  0  0  0  0  0  0
    8.3156  -14.9208   20.1742 C   0  0  0  0  0  0  0  0  0  0  0  0
    8.7167  -15.4375   21.5183 C   0  0  1  0  0  0  0  0  0  0  0  0
   10.1409  -15.0881   21.7973 C   0  0  0  0  0  0  0  0  0  0  0  0
   11.1647  -15.8488   21.3088 O   0  0  0  0  0  0  0  0  0  0  0  0
   10.3777  -14.0804   22.4919 O   0  0  0  0  0  0  0  0  0  0  0  0
  2  1  1  0
  3  2  1  0
  4  3  1  0
  5  7  1  0
  5  4  1  0
  5  6  1  6
  7  9  1  0
  8  7  2  0
  9 10  1  0
  9 13  1  0
 10 11  1  0
 11 12  1  0
 13 12  1  0
 14 16  1  0
 13 14  1  6
 15 14  2  0
 16 17  1  0
 18 17  1  0
 19 18  1  0
 20 21  1  1
 20 16  1  0
 20 19  1  0
 21 22  1  0
 23 21  2  0
M  END
$$$$
