MPP.pdb
     RDKit          3D

 23 24  0  0  1  0  0  0  0  0999 V2000
    6.9847  -11.7939   27.3451 C   0  0  0  0  0  0  0  0  0  0  0  0
    8.2202  -13.0982   27.2652 S   0  0  0  0  0  0  0  0  0  0  0  0
    7.5040  -14.6591   26.6899 C   0  0  0  0  0  0  0  0  0  0  0  0
    6.5623  -14.4062   25.5260 C   0  0  0  0  0  0  0  0  0  0  0  0
    6.0630  -15.7263   24.9675 C   0  0  2  0  0  0  0  0  0  0  0  0
    6.1016  -16.6744   26.0314 N   0  0  0  0  0  0  0  0  0  0  0  0
    6.7248  -16.1015   23.7242 C   0  0  0  0  0  0  0  0  0  0  0  0
    6.5452  -17.3100   23.3301 O   0  0  0  0  0  0  0  0  0  0  0  0
    7.5445  -15.2901   22.8970 N   0  0  0  0  0  0  0  0  0  0  0  0
    8.0714  -13.9554   23.0839 C   0  0  0  0  0  0  0  0  0  0  0  0
    7.6196  -13.3081   21.7761 C   0  0  0  0  0  0  0  0  0  0  0  0
    8.0041  -14.3929   20.7993 C   0  0  0  0  0  0  0  0  0  0  0  0
    8.0160  -15.6953   21.5992 C   0  0  1  0  0  0  0  0  0  0  0  0
    9.3083  -16.3680   21.5300 C   0  0  0  0  0  0  0  0  0  0  0  0
   10.1832  -15.9955   22.4103 O   0  0  0  0  0  0  0  0  0  0  0  0
    9.7529  -17.3809   20.6252 N   0  0  0  0  0  0  0  0  0  0  0  0
    9.0295  -17.9128   19.5073 C   0  0  0  0  0  0  0  0  0  0  0  0
    9.7651  -19.2041   19.1185 C   0  0  0  0  0  0  0  0  0  0  0  0
   11.1785  -18.8566   19.4692 C   0  0  0  0  0  0  0  0  0  0  0  0
   11.0495  -18.0287   20.7071 C   0  0  1  0  0  0  0  0  0  0  0  0
   12.1698  -17.0451   20.7845 C   0  0  0  0  0  0  0  0  0  0  0  0
   13.3930  -17.4033   21.2754 O   0  0  0  0  0  0  0  0  0  0  0  0
   11.9632  -15.8809   20.3899 O   0  0  0  0  0  0  0  0  0  0  0  0
  2  1  1  0
  3  2  1  0
  4  3  1  0
  5  7  1  0
  5  4  1  0
  5  6  1  1
  7  9  1  0
  8  7  2  0
  9 10  1  0
  9 13  1  0
 10 11  1  0
 11 12  1  0
 13 12  1  0
 14 16  1  0
 13 14  1  1
 15 14  2  0
 16 17  1  0
 18 17  1  0
 19 18  1  0
 20 21  1  6
 20 16  1  0
 20 19  1  0
 21 22  1  0
 23 21  2  0
M  END
$$$$
