MPP.pdb
     RDKit          3D

 23 24  0  0  1  0  0  0  0  0999 V2000
   12.2442  -20.2920   25.4528 C   0  0  0  0  0  0  0  0  0  0  0  0
   10.9635  -20.7875   24.2918 S   0  0  0  0  0  0  0  0  0  0  0  0
   10.7998  -19.5997   22.9343 C   0  0  0  0  0  0  0  0  0  0  0  0
   10.9276  -18.1812   23.4607 C   0  0  0  0  0  0  0  0  0  0  0  0
   10.8907  -17.1954   22.3071 C   0  0  2  0  0  0  0  0  0  0  0  0
   12.2111  -17.1216   21.7748 N   0  0  0  0  0  0  0  0  0  0  0  0
   10.2493  -15.9350   22.6600 C   0  0  0  0  0  0  0  0  0  0  0  0
   11.0294  -14.9933   23.0507 O   0  0  0  0  0  0  0  0  0  0  0  0
    8.8649  -15.6244   22.6236 N   0  0  0  0  0  0  0  0  0  0  0  0
    7.7455  -16.3065   22.0106 C   0  0  0  0  0  0  0  0  0  0  0  0
    7.1323  -15.1508   21.2221 C   0  0  0  0  0  0  0  0  0  0  0  0
    7.1725  -14.0661   22.2712 C   0  0  0  0  0  0  0  0  0  0  0  0
    8.2945  -14.4530   23.2344 C   0  0  1  0  0  0  0  0  0  0  0  0
    7.8195  -14.5710   24.6084 C   0  0  0  0  0  0  0  0  0  0  0  0
    7.7026  -15.7799   25.0602 O   0  0  0  0  0  0  0  0  0  0  0  0
    7.4593  -13.5417   25.5320 N   0  0  0  0  0  0  0  0  0  0  0  0
    7.4478  -12.1296   25.2840 C   0  0  0  0  0  0  0  0  0  0  0  0
    7.3690  -11.4696   26.6689 C   0  0  0  0  0  0  0  0  0  0  0  0
    6.5623  -12.4750   27.4304 C   0  0  0  0  0  0  0  0  0  0  0  0
    7.0288  -13.7908   26.8959 C   0  0  1  0  0  0  0  0  0  0  0  0
    5.9248  -14.7930   26.9669 C   0  0  0  0  0  0  0  0  0  0  0  0
    5.6744  -15.4896   28.1148 O   0  0  0  0  0  0  0  0  0  0  0  0
    5.2318  -14.9830   25.9483 O   0  0  0  0  0  0  0  0  0  0  0  0
  2  1  1  0
  3  2  1  0
  4  3  1  0
  5  7  1  0
  5  4  1  0
  5  6  1  1
  7  9  1  0
  8  7  2  0
  9 10  1  0
  9 13  1  0
 10 11  1  0
 11 12  1  0
 13 12  1  0
 14 16  1  0
 13 14  1  1
 15 14  2  0
 16 17  1  0
 18 17  1  0
 19 18  1  0
 20 21  1  6
 20 16  1  0
 20 19  1  0
 21 22  1  0
 23 21  2  0
M  END
$$$$
