MPP.pdb
     RDKit          3D

 23 24  0  0  1  0  0  0  0  0999 V2000
    9.3920  -12.2023   19.0232 C   0  0  0  0  0  0  0  0  0  0  0  0
    8.7679  -12.3017   20.7067 S   0  0  0  0  0  0  0  0  0  0  0  0
    7.5288  -13.6111   20.8811 C   0  0  0  0  0  0  0  0  0  0  0  0
    7.9019  -14.8040   20.0190 C   0  0  0  0  0  0  0  0  0  0  0  0
    8.2628  -15.9866   20.8994 C   0  0  2  0  0  0  0  0  0  0  0  0
    8.5103  -17.0936   20.0360 N   0  0  0  0  0  0  0  0  0  0  0  0
    7.3124  -16.1951   21.9848 C   0  0  0  0  0  0  0  0  0  0  0  0
    6.0754  -16.0081   21.6971 O   0  0  0  0  0  0  0  0  0  0  0  0
    7.5914  -16.5800   23.3221 N   0  0  0  0  0  0  0  0  0  0  0  0
    8.4179  -17.6378   23.8623 C   0  0  0  0  0  0  0  0  0  0  0  0
    7.4154  -18.3000   24.8056 C   0  0  0  0  0  0  0  0  0  0  0  0
    6.8246  -17.0761   25.4628 C   0  0  0  0  0  0  0  0  0  0  0  0
    7.0255  -15.9283   24.4735 C   0  0  1  0  0  0  0  0  0  0  0  0
    7.7758  -14.8244   25.0615 C   0  0  0  0  0  0  0  0  0  0  0  0
    9.0484  -14.8172   24.8171 O   0  0  0  0  0  0  0  0  0  0  0  0
    7.3092  -13.7461   25.8751 N   0  0  0  0  0  0  0  0  0  0  0  0
    5.9553  -13.2934   26.0087 C   0  0  0  0  0  0  0  0  0  0  0  0
    6.0477  -11.9104   26.6709 C   0  0  0  0  0  0  0  0  0  0  0  0
    7.2588  -12.0765   27.5353 C   0  0  0  0  0  0  0  0  0  0  0  0
    8.1692  -12.9361   26.7188 C   0  0  1  0  0  0  0  0  0  0  0  0
    9.0289  -13.7661   27.6135 C   0  0  0  0  0  0  0  0  0  0  0  0
   10.1617  -13.2548   28.1798 O   0  0  0  0  0  0  0  0  0  0  0  0
    8.6890  -14.9452   27.8332 O   0  0  0  0  0  0  0  0  0  0  0  0
  2  1  1  0
  3  2  1  0
  4  3  1  0
  5  7  1  0
  5  4  1  0
  5  6  1  6
  7  9  1  0
  8  7  2  0
  9 10  1  0
  9 13  1  0
 10 11  1  0
 11 12  1  0
 13 12  1  0
 14 16  1  0
 13 14  1  1
 15 14  2  0
 16 17  1  0
 18 17  1  0
 19 18  1  0
 20 21  1  1
 20 16  1  0
 20 19  1  0
 21 22  1  0
 23 21  2  0
M  END
$$$$
