MPP.pdb
     RDKit          3D

 23 24  0  0  1  0  0  0  0  0999 V2000
    6.9229  -21.6235   23.6654 C   0  0  0  0  0  0  0  0  0  0  0  0
    7.3990  -20.2046   24.6624 S   0  0  0  0  0  0  0  0  0  0  0  0
    7.9013  -18.8040   23.6298 C   0  0  0  0  0  0  0  0  0  0  0  0
    9.2401  -19.0903   22.9732 C   0  0  0  0  0  0  0  0  0  0  0  0
    9.6377  -17.9293   22.0800 C   0  0  2  0  0  0  0  0  0  0  0  0
   10.9601  -18.1898   21.6156 N   0  0  0  0  0  0  0  0  0  0  0  0
    9.3986  -16.6314   22.6988 C   0  0  0  0  0  0  0  0  0  0  0  0
   10.2929  -16.2257   23.5257 O   0  0  0  0  0  0  0  0  0  0  0  0
    8.2948  -15.7624   22.4965 N   0  0  0  0  0  0  0  0  0  0  0  0
    7.0871  -15.9135   21.7139 C   0  0  0  0  0  0  0  0  0  0  0  0
    7.1341  -14.6191   20.9040 C   0  0  0  0  0  0  0  0  0  0  0  0
    7.4860  -13.6382   21.9962 C   0  0  0  0  0  0  0  0  0  0  0  0
    8.1962  -14.4503   23.0790 C   0  0  1  0  0  0  0  0  0  0  0  0
    7.5335  -14.3340   24.3731 C   0  0  0  0  0  0  0  0  0  0  0  0
    6.7064  -15.2870   24.6682 O   0  0  0  0  0  0  0  0  0  0  0  0
    7.6621  -13.3145   25.3663 N   0  0  0  0  0  0  0  0  0  0  0  0
    8.4836  -12.1417   25.2930 C   0  0  0  0  0  0  0  0  0  0  0  0
    8.5572  -11.6010   26.7290 C   0  0  0  0  0  0  0  0  0  0  0  0
    7.2128  -11.9897   27.2608 C   0  0  0  0  0  0  0  0  0  0  0  0
    6.9454  -13.3177   26.6287 C   0  0  1  0  0  0  0  0  0  0  0  0
    5.4766  -13.5111   26.4454 C   0  0  0  0  0  0  0  0  0  0  0  0
    4.6731  -13.8620   27.4926 O   0  0  0  0  0  0  0  0  0  0  0  0
    4.9956  -13.3457   25.3073 O   0  0  0  0  0  0  0  0  0  0  0  0
  2  1  1  0
  3  2  1  0
  4  3  1  0
  5  7  1  0
  5  4  1  0
  5  6  1  1
  7  9  1  0
  8  7  2  0
  9 10  1  0
  9 13  1  0
 10 11  1  0
 11 12  1  0
 13 12  1  0
 14 16  1  0
 13 14  1  1
 15 14  2  0
 16 17  1  0
 18 17  1  0
 19 18  1  0
 20 21  1  6
 20 16  1  0
 20 19  1  0
 21 22  1  0
 23 21  2  0
M  END
$$$$
