MPP.pdb
     RDKit          3D

 23 24  0  0  1  0  0  0  0  0999 V2000
   10.2035  -19.1963   27.3597 C   0  0  0  0  0  0  0  0  0  0  0  0
    8.9182  -19.5259   26.1459 S   0  0  0  0  0  0  0  0  0  0  0  0
    9.0400  -18.4070   24.7270 C   0  0  0  0  0  0  0  0  0  0  0  0
   10.3684  -18.6024   24.0179 C   0  0  0  0  0  0  0  0  0  0  0  0
   10.4531  -17.6817   22.8141 C   0  0  2  0  0  0  0  0  0  0  0  0
   11.7502  -17.8495   22.2469 N   0  0  0  0  0  0  0  0  0  0  0  0
   10.0347  -16.3180   23.1140 C   0  0  0  0  0  0  0  0  0  0  0  0
   10.9130  -15.5668   23.6728 O   0  0  0  0  0  0  0  0  0  0  0  0
    8.7718  -15.7213   22.8620 N   0  0  0  0  0  0  0  0  0  0  0  0
    7.6089  -16.2042   22.1490 C   0  0  0  0  0  0  0  0  0  0  0  0
    7.3738  -15.0292   21.2017 C   0  0  0  0  0  0  0  0  0  0  0  0
    7.5328  -13.8784   22.1656 C   0  0  0  0  0  0  0  0  0  0  0  0
    8.4133  -14.3988   23.3015 C   0  0  1  0  0  0  0  0  0  0  0  0
    7.7620  -14.2722   24.6004 C   0  0  0  0  0  0  0  0  0  0  0  0
    7.2735  -15.3667   25.0928 O   0  0  0  0  0  0  0  0  0  0  0  0
    7.5807  -13.1094   25.4113 N   0  0  0  0  0  0  0  0  0  0  0  0
    8.0102  -11.7752   25.1093 C   0  0  0  0  0  0  0  0  0  0  0  0
    7.9222  -11.0050   26.4355 C   0  0  0  0  0  0  0  0  0  0  0  0
    6.7593  -11.6804   27.0933 C   0  0  0  0  0  0  0  0  0  0  0  0
    6.9024  -13.1140   26.6948 C   0  0  1  0  0  0  0  0  0  0  0  0
    5.5596  -13.7622   26.6233 C   0  0  0  0  0  0  0  0  0  0  0  0
    4.9231  -14.1972   27.7507 O   0  0  0  0  0  0  0  0  0  0  0  0
    5.0283  -13.9004   25.5041 O   0  0  0  0  0  0  0  0  0  0  0  0
  2  1  1  0
  3  2  1  0
  4  3  1  0
  5  7  1  0
  5  4  1  0
  5  6  1  1
  7  9  1  0
  8  7  2  0
  9 10  1  0
  9 13  1  0
 10 11  1  0
 11 12  1  0
 13 12  1  0
 14 16  1  0
 13 14  1  1
 15 14  2  0
 16 17  1  0
 18 17  1  0
 19 18  1  0
 20 21  1  6
 20 16  1  0
 20 19  1  0
 21 22  1  0
 23 21  2  0
M  END
$$$$
