DCN.pdb
     RDKit          3D

 23 22  0  0  1  0  0  0  0  0999 V2000
   40.7640   -8.8151   -7.9087 N   0  0  0  0  0  0  0  0  0  0  0  0
   41.0721   -9.9864   -8.6804 C   0  0  1  0  0  0  0  0  0  0  0  0
   41.5862   -9.6401  -10.0374 C   0  0  0  0  0  0  0  0  0  0  0  0
   40.8225  -10.3945  -11.0540 C   0  0  0  0  0  0  0  0  0  0  0  0
   39.8406   -9.8463  -11.6076 O   0  0  0  0  0  0  0  0  0  0  0  0
   41.9685  -10.8946   -7.9327 C   0  0  0  0  0  0  0  0  0  0  0  0
   42.5628  -10.4500   -6.9267 O   0  0  0  0  0  0  0  0  0  0  0  0
   41.1238  -11.6923  -11.4447 O   0  0  0  0  0  0  0  0  0  0  0  0
   42.1924  -12.2442   -8.2937 N   0  0  0  0  0  0  0  0  0  0  0  0
   43.1329  -13.0923   -7.5201 C   0  0  1  0  0  0  0  0  0  0  0  0
   42.8027  -14.5427   -7.8828 C   0  0  0  0  0  0  0  0  0  0  0  0
   44.0418  -15.7098   -7.3269 S   0  0  0  0  0  0  0  0  0  0  0  0
   44.5110  -12.7377   -7.8702 C   0  0  0  0  0  0  0  0  0  0  0  0
   44.8609  -12.4430   -9.0645 O   0  0  0  0  0  0  0  0  0  0  0  0
   49.3139  -11.2979   -7.8854 N   0  0  0  0  0  0  0  0  0  0  0  0
   48.4278  -10.3935   -7.2059 C   0  0  0  0  0  0  0  0  0  0  0  0
   48.8216   -9.2644   -6.9031 O   0  0  0  0  0  0  0  0  0  0  0  0
   47.0858  -10.8685   -6.9054 C   0  0  0  0  0  0  0  0  0  0  0  0
   46.8800  -12.3001   -7.2357 C   0  0  2  0  0  0  0  0  0  0  0  0
   45.5166  -12.7058   -6.8850 N   0  0  0  0  0  0  0  0  0  0  0  0
   47.8136  -13.2527   -6.6421 C   0  0  0  0  0  0  0  0  0  0  0  0
   47.5625  -13.8883   -5.6129 O   0  0  0  0  0  0  0  0  0  0  0  0
   49.0504  -13.4786   -7.2371 O   0  0  0  0  0  0  0  0  0  0  0  0
  2  1  1  1
  3  4  1  0
  3  2  1  0
  4  8  1  0
  5  4  2  0
  6  2  1  0
  6  9  1  0
  7  6  2  0
 10  9  1  0
 10 13  1  0
 10 11  1  6
 11 12  1  0
 13 20  1  0
 14 13  2  0
 16 15  1  0
 16 17  2  0
 18 16  1  0
 19 21  1  0
 19 18  1  1
 20 19  1  0
 21 23  1  0
 22 21  2  0
M  END
$$$$
