DCN.pdb
     RDKit          3D

 23 22  0  0  1  0  0  0  0  0999 V2000
   17.5880  -12.5147  -16.4841 N   0  0  0  0  0  0  0  0  0  0  0  0
   16.9910  -12.2574  -15.2035 C   0  0  1  0  0  0  0  0  0  0  0  0
   16.8050  -13.5094  -14.4139 C   0  0  0  0  0  0  0  0  0  0  0  0
   15.8423  -14.3870  -15.1133 C   0  0  0  0  0  0  0  0  0  0  0  0
   16.1594  -15.5780  -15.3410 O   0  0  0  0  0  0  0  0  0  0  0  0
   17.7371  -11.2122  -14.4698 C   0  0  0  0  0  0  0  0  0  0  0  0
   18.9774  -11.1527  -14.6149 O   0  0  0  0  0  0  0  0  0  0  0  0
   14.5881  -13.9747  -15.5429 O   0  0  0  0  0  0  0  0  0  0  0  0
   17.1234  -10.2717  -13.6092 N   0  0  0  0  0  0  0  0  0  0  0  0
   17.9096   -9.1676  -13.0050 C   0  0  1  0  0  0  0  0  0  0  0  0
   18.5556   -8.4117  -14.1693 C   0  0  0  0  0  0  0  0  0  0  0  0
   19.3927   -6.9125  -13.6610 S   0  0  0  0  0  0  0  0  0  0  0  0
   17.0207   -8.3093  -12.2174 C   0  0  0  0  0  0  0  0  0  0  0  0
   15.8203   -8.0524  -12.5765 O   0  0  0  0  0  0  0  0  0  0  0  0
   14.8228   -5.7083   -8.5050 N   0  0  0  0  0  0  0  0  0  0  0  0
   14.4351   -7.0162   -8.9566 C   0  0  0  0  0  0  0  0  0  0  0  0
   13.3627   -7.4984   -8.5836 O   0  0  0  0  0  0  0  0  0  0  0  0
   15.3478   -7.7157   -9.8480 C   0  0  0  0  0  0  0  0  0  0  0  0
   16.5490   -6.9209  -10.2034 C   0  0  2  0  0  0  0  0  0  0  0  0
   17.4642   -7.7284  -11.0139 N   0  0  0  0  0  0  0  0  0  0  0  0
   17.3022   -6.3373   -9.0973 C   0  0  0  0  0  0  0  0  0  0  0  0
   18.5021   -6.5622   -8.9080 O   0  0  0  0  0  0  0  0  0  0  0  0
   16.6704   -5.4852   -8.1976 O   0  0  0  0  0  0  0  0  0  0  0  0
  2  1  1  6
  3  4  1  0
  3  2  1  0
  4  8  1  0
  5  4  2  0
  6  2  1  0
  6  9  1  0
  7  6  2  0
 10  9  1  0
 10 13  1  0
 10 11  1  6
 11 12  1  0
 13 20  1  0
 14 13  2  0
 16 15  1  0
 16 17  2  0
 18 16  1  0
 19 21  1  0
 19 18  1  1
 20 19  1  0
 21 23  1  0
 22 21  2  0
M  END
$$$$
