DCN.pdb
     RDKit          3D

 23 22  0  0  1  0  0  0  0  0999 V2000
   18.5773  -13.0778  -17.1871 N   0  0  0  0  0  0  0  0  0  0  0  0
   19.1856  -11.8734  -17.6788 C   0  0  1  0  0  0  0  0  0  0  0  0
   18.3693  -11.2352  -18.7521 C   0  0  0  0  0  0  0  0  0  0  0  0
   18.2675  -12.1602  -19.9010 C   0  0  0  0  0  0  0  0  0  0  0  0
   19.0907  -12.0562  -20.8403 O   0  0  0  0  0  0  0  0  0  0  0  0
   19.5113  -10.9514  -16.5693 C   0  0  0  0  0  0  0  0  0  0  0  0
   18.5871  -10.5762  -15.8156 O   0  0  0  0  0  0  0  0  0  0  0  0
   17.3050  -13.1545  -20.0126 O   0  0  0  0  0  0  0  0  0  0  0  0
   20.8158  -10.4678  -16.3118 N   0  0  0  0  0  0  0  0  0  0  0  0
   21.0726   -9.5347  -15.1868 C   0  0  1  0  0  0  0  0  0  0  0  0
   22.0077  -10.2697  -14.2226 C   0  0  0  0  0  0  0  0  0  0  0  0
   22.6748  -11.7858  -14.9030 S   0  0  0  0  0  0  0  0  0  0  0  0
   21.6728   -8.3014  -15.7026 C   0  0  0  0  0  0  0  0  0  0  0  0
   22.1678   -8.2197  -16.8790 O   0  0  0  0  0  0  0  0  0  0  0  0
   23.0219   -3.5570  -16.5954 N   0  0  0  0  0  0  0  0  0  0  0  0
   22.0108   -4.2944  -17.3015 C   0  0  0  0  0  0  0  0  0  0  0  0
   21.5322   -3.8336  -18.3409 O   0  0  0  0  0  0  0  0  0  0  0  0
   21.5973   -5.5715  -16.7403 C   0  0  0  0  0  0  0  0  0  0  0  0
   22.2651   -5.8943  -15.4554 C   0  0  2  0  0  0  0  0  0  0  0  0
   21.7244   -7.1407  -14.9072 N   0  0  0  0  0  0  0  0  0  0  0  0
   22.2177   -4.8716  -14.4146 C   0  0  0  0  0  0  0  0  0  0  0  0
   21.3289   -4.8247  -13.5578 O   0  0  0  0  0  0  0  0  0  0  0  0
   23.2024   -3.8909  -14.3566 O   0  0  0  0  0  0  0  0  0  0  0  0
  2  1  1  1
  3  4  1  0
  3  2  1  0
  4  8  1  0
  5  4  2  0
  6  2  1  0
  6  9  1  0
  7  6  2  0
 10  9  1  0
 10 13  1  0
 10 11  1  1
 11 12  1  0
 13 20  1  0
 14 13  2  0
 16 15  1  0
 16 17  2  0
 18 16  1  0
 19 21  1  0
 19 18  1  6
 20 19  1  0
 21 23  1  0
 22 21  2  0
M  END
$$$$
