DCN.pdb
     RDKit          3D

 23 22  0  0  1  0  0  0  0  0999 V2000
   13.8512   -7.4880   -8.4669 N   0  0  0  0  0  0  0  0  0  0  0  0
   14.9001   -7.9734   -9.3192 C   0  0  1  0  0  0  0  0  0  0  0  0
   14.4009   -8.9840  -10.2965 C   0  0  0  0  0  0  0  0  0  0  0  0
   13.9284  -10.1778   -9.5632 C   0  0  0  0  0  0  0  0  0  0  0  0
   14.7355  -10.8048   -8.8377 O   0  0  0  0  0  0  0  0  0  0  0  0
   15.6259   -6.8545   -9.9586 C   0  0  0  0  0  0  0  0  0  0  0  0
   14.9658   -5.9952  -10.5821 O   0  0  0  0  0  0  0  0  0  0  0  0
   12.6282  -10.6607   -9.6243 O   0  0  0  0  0  0  0  0  0  0  0  0
   17.0313   -6.7014   -9.9040 N   0  0  0  0  0  0  0  0  0  0  0  0
   17.7095   -5.6270  -10.6708 C   0  0  1  0  0  0  0  0  0  0  0  0
   18.0224   -4.5136   -9.6674 C   0  0  0  0  0  0  0  0  0  0  0  0
   19.0225   -5.0654   -8.2883 S   0  0  0  0  0  0  0  0  0  0  0  0
   18.9227   -6.1630  -11.2938 C   0  0  0  0  0  0  0  0  0  0  0  0
   19.3095   -7.3691  -11.1159 O   0  0  0  0  0  0  0  0  0  0  0  0
   21.2079   -8.6845  -15.3752 N   0  0  0  0  0  0  0  0  0  0  0  0
   21.5246   -7.5829  -14.5087 C   0  0  0  0  0  0  0  0  0  0  0  0
   22.6653   -7.1134  -14.5094 O   0  0  0  0  0  0  0  0  0  0  0  0
   20.4603   -7.0703  -13.6594 C   0  0  0  0  0  0  0  0  0  0  0  0
   20.8800   -5.9240  -12.8163 C   0  0  2  0  0  0  0  0  0  0  0  0
   19.7188   -5.3548  -12.1278 N   0  0  0  0  0  0  0  0  0  0  0  0
   21.5971   -4.8430  -13.4859 C   0  0  0  0  0  0  0  0  0  0  0  0
   22.8102   -4.8821  -13.7164 O   0  0  0  0  0  0  0  0  0  0  0  0
   20.9135   -3.7031  -13.8960 O   0  0  0  0  0  0  0  0  0  0  0  0
  2  1  1  6
  3  4  1  0
  3  2  1  0
  4  8  1  0
  5  4  2  0
  6  2  1  0
  6  9  1  0
  7  6  2  0
 10  9  1  0
 10 13  1  0
 10 11  1  1
 11 12  1  0
 13 20  1  0
 14 13  2  0
 16 15  1  0
 16 17  2  0
 18 16  1  0
 19 21  1  0
 19 18  1  6
 20 19  1  0
 21 23  1  0
 22 21  2  0
M  END
$$$$
