FMY.pdb
     RDKit          3D

 32 33  0  0  1  0  0  0  0  0999 V2000
    8.3185  -15.2940   19.1058 N   0  0  0  0  0  0  0  0  0  0  0  0
    7.4265  -16.3535   19.5289 C   0  0  1  0  0  0  0  0  0  0  0  0
    8.0590  -17.6572   19.0939 C   0  0  0  0  0  0  0  0  0  0  0  0
    7.1075  -18.7388   19.4600 C   0  0  0  0  0  0  0  0  0  0  0  0
    7.3698  -19.6841   20.4287 C   0  0  0  0  0  0  0  0  0  0  0  0
    6.4559  -20.6798   20.7433 C   0  0  0  0  0  0  0  0  0  0  0  0
    5.2523  -20.7404   20.0818 C   0  0  0  0  0  0  0  0  0  0  0  0
    4.9780  -19.8148   19.1229 C   0  0  0  0  0  0  0  0  0  0  0  0
    5.8924  -18.8207   18.8100 C   0  0  0  0  0  0  0  0  0  0  0  0
    7.2483  -16.2662   20.9838 C   0  0  0  0  0  0  0  0  0  0  0  0
    6.0890  -16.1903   21.4543 O   0  0  0  0  0  0  0  0  0  0  0  0
    7.2037  -11.5148   26.5260 C   0  0  0  0  0  0  0  0  0  0  0  0
    6.8534  -13.0574   25.6813 S   0  0  0  0  0  0  0  0  0  0  0  0
    8.0759  -13.4485   24.3993 C   0  0  0  0  0  0  0  0  0  0  0  0
    7.6429  -14.7036   23.6860 C   0  0  0  0  0  0  0  0  0  0  0  0
    8.7117  -15.1018   22.6897 C   0  0  2  0  0  0  0  0  0  0  0  0
    8.3208  -16.2618   21.9172 N   0  0  0  0  0  0  0  0  0  0  0  0
   10.0044  -15.3600   23.3666 C   0  0  0  0  0  0  0  0  0  0  0  0
   10.9967  -14.6269   23.1148 O   0  0  0  0  0  0  0  0  0  0  0  0
    9.7545  -15.3322   30.8600 O   0  0  0  0  0  0  0  0  0  0  0  0
   10.2799  -15.3247   29.5818 C   0  0  0  0  0  0  0  0  0  0  0  0
    9.9877  -14.3400   28.6813 C   0  0  0  0  0  0  0  0  0  0  0  0
   10.5289  -14.3610   27.4112 C   0  0  0  0  0  0  0  0  0  0  0  0
   11.3765  -15.3648   27.0040 C   0  0  0  0  0  0  0  0  0  0  0  0
   11.9799  -15.4372   25.6613 C   0  0  0  0  0  0  0  0  0  0  0  0
   11.5032  -16.6508   24.9465 C   0  0  2  0  0  0  0  0  0  0  0  0
   10.1961  -16.4040   24.3000 N   0  0  0  0  0  0  0  0  0  0  0  0
   11.4501  -17.8834   25.7496 C   0  0  0  0  0  0  0  0  0  0  0  0
   10.3875  -18.4940   25.9879 O   0  0  0  0  0  0  0  0  0  0  0  0
   11.6606  -16.3517   27.9280 C   0  0  0  0  0  0  0  0  0  0  0  0
   11.1272  -16.3431   29.1994 C   0  0  0  0  0  0  0  0  0  0  0  0
   12.6194  -18.4026   26.2717 O   0  0  0  0  0  0  0  0  0  0  0  0
  2  1  1  1
  2 10  1  0
  2  3  1  0
  4  3  1  0
  4  9  1  0
  5  4  2  0
  6  5  1  0
  6  7  2  0
  7  8  1  0
  8  9  2  0
 10 11  2  0
 13 12  1  0
 14 13  1  0
 14 15  1  0
 16 15  1  1
 17 16  1  0
 17 10  1  0
 18 19  2  0
 18 16  1  0
 20 21  1  0
 21 31  2  0
 21 22  1  0
 22 23  2  0
 23 24  1  0
 24 25  1  0
 26 25  1  1
 26 27  1  0
 27 18  1  0
 28 26  1  0
 28 32  1  0
 29 28  2  0
 30 24  2  0
 31 30  1  0
M  END
$$$$
