FMY.pdb
     RDKit          3D

 32 33  0  0  1  0  0  0  0  0999 V2000
    9.0611  -16.8654   19.7954 N   0  0  0  0  0  0  0  0  0  0  0  0
    7.9975  -16.7390   20.7701 C   0  0  1  0  0  0  0  0  0  0  0  0
    7.5220  -18.1408   21.0826 C   0  0  0  0  0  0  0  0  0  0  0  0
    8.6969  -19.0374   20.9254 C   0  0  0  0  0  0  0  0  0  0  0  0
    9.9654  -18.5817   20.6351 C   0  0  0  0  0  0  0  0  0  0  0  0
   11.0387  -19.4502   20.4958 C   0  0  0  0  0  0  0  0  0  0  0  0
   10.8507  -20.8034   20.6478 C   0  0  0  0  0  0  0  0  0  0  0  0
    9.6049  -21.2693   20.9345 C   0  0  0  0  0  0  0  0  0  0  0  0
    8.5337  -20.4002   21.0733 C   0  0  0  0  0  0  0  0  0  0  0  0
    8.5213  -16.0404   21.9507 C   0  0  0  0  0  0  0  0  0  0  0  0
    9.7616  -15.9488   22.1067 O   0  0  0  0  0  0  0  0  0  0  0  0
    7.1547  -11.0616   27.9812 C   0  0  0  0  0  0  0  0  0  0  0  0
    6.5002  -12.1469   26.7126 S   0  0  0  0  0  0  0  0  0  0  0  0
    7.7789  -13.1795   25.9448 C   0  0  0  0  0  0  0  0  0  0  0  0
    7.1448  -13.9994   24.8505 C   0  0  0  0  0  0  0  0  0  0  0  0
    8.2238  -14.7723   24.1212 C   0  0  2  0  0  0  0  0  0  0  0  0
    7.7036  -15.4475   22.9513 N   0  0  0  0  0  0  0  0  0  0  0  0
    8.8790  -15.7528   25.0186 C   0  0  0  0  0  0  0  0  0  0  0  0
    8.2364  -16.7604   25.4152 O   0  0  0  0  0  0  0  0  0  0  0  0
   12.6037  -18.9094   20.8061 O   0  0  0  0  0  0  0  0  0  0  0  0
   12.5185  -18.3704   22.0758 C   0  0  0  0  0  0  0  0  0  0  0  0
   12.5979  -17.0256   22.3016 C   0  0  0  0  0  0  0  0  0  0  0  0
   12.5093  -16.5180   23.5826 C   0  0  0  0  0  0  0  0  0  0  0  0
   12.3390  -17.3377   24.6739 C   0  0  0  0  0  0  0  0  0  0  0  0
   12.2405  -16.8499   26.0612 C   0  0  0  0  0  0  0  0  0  0  0  0
   10.8212  -16.5823   26.4143 C   0  0  2  0  0  0  0  0  0  0  0  0
   10.2129  -15.6228   25.4673 N   0  0  0  0  0  0  0  0  0  0  0  0
   10.5802  -16.1519   27.8014 C   0  0  0  0  0  0  0  0  0  0  0  0
   10.6240  -16.9346   28.7731 O   0  0  0  0  0  0  0  0  0  0  0  0
   12.2608  -18.6945   24.4262 C   0  0  0  0  0  0  0  0  0  0  0  0
   12.3478  -19.2149   23.1523 C   0  0  0  0  0  0  0  0  0  0  0  0
   10.2909  -14.8254   28.0584 O   0  0  0  0  0  0  0  0  0  0  0  0
  2  1  1  6
  2 10  1  0
  2  3  1  0
  4  3  1  0
  4  9  1  0
  5  4  2  0
  6  5  1  0
  6  7  2  0
  7  8  1  0
  8  9  2  0
 10 11  2  0
 13 12  1  0
 14 13  1  0
 14 15  1  0
 16 15  1  1
 17 16  1  0
 17 10  1  0
 18 19  2  0
 18 16  1  0
 20 21  1  0
 21 31  2  0
 21 22  1  0
 22 23  2  0
 23 24  1  0
 24 25  1  0
 26 25  1  6
 26 27  1  0
 27 18  1  0
 28 26  1  0
 28 32  1  0
 29 28  2  0
 30 24  2  0
 31 30  1  0
M  END
$$$$
