FMY.pdb
     RDKit          3D

 32 33  0  0  1  0  0  0  0  0999 V2000
    8.1399  -17.2362   21.4934 N   0  0  0  0  0  0  0  0  0  0  0  0
    9.4554  -16.6305   21.4890 C   0  0  1  0  0  0  0  0  0  0  0  0
    9.5463  -15.7916   20.2333 C   0  0  0  0  0  0  0  0  0  0  0  0
    8.5845  -14.6703   20.3959 C   0  0  0  0  0  0  0  0  0  0  0  0
    8.9659  -13.3835   20.7117 C   0  0  0  0  0  0  0  0  0  0  0  0
    8.0381  -12.3618   20.8554 C   0  0  0  0  0  0  0  0  0  0  0  0
    6.6992  -12.6211   20.6818 C   0  0  0  0  0  0  0  0  0  0  0  0
    6.3063  -13.8859   20.3698 C   0  0  0  0  0  0  0  0  0  0  0  0
    7.2348  -14.9055   20.2267 C   0  0  0  0  0  0  0  0  0  0  0  0
    9.6128  -15.8373   22.7147 C   0  0  0  0  0  0  0  0  0  0  0  0
   10.7215  -15.3075   22.9619 O   0  0  0  0  0  0  0  0  0  0  0  0
    6.8339  -11.6986   27.3034 C   0  0  0  0  0  0  0  0  0  0  0  0
    6.4607  -12.0926   25.5943 S   0  0  0  0  0  0  0  0  0  0  0  0
    7.6863  -13.2015   24.8463 C   0  0  0  0  0  0  0  0  0  0  0  0
    7.7560  -14.4658   25.6636 C   0  0  0  0  0  0  0  0  0  0  0  0
    8.8050  -15.3829   25.0702 C   0  0  2  0  0  0  0  0  0  0  0  0
    8.5741  -15.6227   23.6615 N   0  0  0  0  0  0  0  0  0  0  0  0
    8.8614  -16.6726   25.7978 C   0  0  0  0  0  0  0  0  0  0  0  0
    7.9146  -17.4947   25.6825 O   0  0  0  0  0  0  0  0  0  0  0  0
   14.4846  -19.0542   22.7744 O   0  0  0  0  0  0  0  0  0  0  0  0
   13.4142  -19.1593   23.6423 C   0  0  0  0  0  0  0  0  0  0  0  0
   13.5755  -19.4800   24.9602 C   0  0  0  0  0  0  0  0  0  0  0  0
   12.4853  -19.5774   25.8020 C   0  0  0  0  0  0  0  0  0  0  0  0
   11.2041  -19.3574   25.3526 C   0  0  0  0  0  0  0  0  0  0  0  0
   10.0062  -19.4500   26.2062 C   0  0  0  0  0  0  0  0  0  0  0  0
   10.0308  -18.3879   27.2465 C   0  0  2  0  0  0  0  0  0  0  0  0
    9.9389  -17.0452   26.6331 N   0  0  0  0  0  0  0  0  0  0  0  0
   11.1627  -18.4428   28.1861 C   0  0  0  0  0  0  0  0  0  0  0  0
   11.4581  -19.4677   28.8350 O   0  0  0  0  0  0  0  0  0  0  0  0
   11.0605  -19.0342   24.0172 C   0  0  0  0  0  0  0  0  0  0  0  0
   12.1402  -18.9336   23.1655 C   0  0  0  0  0  0  0  0  0  0  0  0
   11.9446  -17.3187   28.3711 O   0  0  0  0  0  0  0  0  0  0  0  0
  2  1  1  1
  2 10  1  0
  2  3  1  0
  4  3  1  0
  4  9  1  0
  5  4  2  0
  6  5  1  0
  6  7  2  0
  7  8  1  0
  8  9  2  0
 10 11  2  0
 13 12  1  0
 14 13  1  0
 14 15  1  0
 16 15  1  1
 17 16  1  0
 17 10  1  0
 18 19  2  0
 18 16  1  0
 20 21  1  0
 21 31  2  0
 21 22  1  0
 22 23  2  0
 23 24  1  0
 24 25  1  0
 26 25  1  6
 26 27  1  0
 27 18  1  0
 28 26  1  0
 28 32  1  0
 29 28  2  0
 30 24  2  0
 31 30  1  0
M  END
$$$$
