FMY.pdb
     RDKit          3D

 32 33  0  0  1  0  0  0  0  0999 V2000
    5.6573  -18.8305   24.4386 N   0  0  0  0  0  0  0  0  0  0  0  0
    6.2275  -17.5022   24.5259 C   0  0  1  0  0  0  0  0  0  0  0  0
    6.7774  -17.3537   25.9275 C   0  0  0  0  0  0  0  0  0  0  0  0
    7.1826  -15.9320   26.0809 C   0  0  0  0  0  0  0  0  0  0  0  0
    6.6236  -14.9014   25.3554 C   0  0  0  0  0  0  0  0  0  0  0  0
    7.0282  -13.5851   25.5265 C   0  0  0  0  0  0  0  0  0  0  0  0
    8.0109  -13.2823   26.4389 C   0  0  0  0  0  0  0  0  0  0  0  0
    8.5728  -14.2880   27.1629 C   0  0  0  0  0  0  0  0  0  0  0  0
    8.1673  -15.6025   26.9907 C   0  0  0  0  0  0  0  0  0  0  0  0
    7.2616  -17.3647   23.4925 C   0  0  0  0  0  0  0  0  0  0  0  0
    8.0134  -18.3371   23.2466 O   0  0  0  0  0  0  0  0  0  0  0  0
    7.9943  -12.9104   18.4822 C   0  0  0  0  0  0  0  0  0  0  0  0
    7.7568  -12.3572   20.1713 S   0  0  0  0  0  0  0  0  0  0  0  0
    8.2086  -13.6197   21.3932 C   0  0  0  0  0  0  0  0  0  0  0  0
    8.1861  -14.9698   20.7235 C   0  0  0  0  0  0  0  0  0  0  0  0
    8.5221  -16.0359   21.7452 C   0  0  2  0  0  0  0  0  0  0  0  0
    7.4753  -16.1811   22.7344 N   0  0  0  0  0  0  0  0  0  0  0  0
    9.8118  -15.7470   22.4155 C   0  0  0  0  0  0  0  0  0  0  0  0
   10.4789  -14.7355   22.0731 O   0  0  0  0  0  0  0  0  0  0  0  0
    9.5268  -15.8661   30.3827 O   0  0  0  0  0  0  0  0  0  0  0  0
    9.8906  -15.5693   29.0830 C   0  0  0  0  0  0  0  0  0  0  0  0
   10.5164  -14.4012   28.7518 C   0  0  0  0  0  0  0  0  0  0  0  0
   10.8671  -14.1341   27.4432 C   0  0  0  0  0  0  0  0  0  0  0  0
   10.6034  -15.0247   26.4288 C   0  0  0  0  0  0  0  0  0  0  0  0
   10.9535  -14.7897   25.0166 C   0  0  0  0  0  0  0  0  0  0  0  0
   11.3850  -16.0592   24.3740 C   0  0  2  0  0  0  0  0  0  0  0  0
   10.3515  -16.5569   23.4404 N   0  0  0  0  0  0  0  0  0  0  0  0
   11.7987  -17.1307   25.2949 C   0  0  0  0  0  0  0  0  0  0  0  0
   12.7772  -17.0261   26.0633 O   0  0  0  0  0  0  0  0  0  0  0  0
    9.9701  -16.2004   26.7826 C   0  0  0  0  0  0  0  0  0  0  0  0
    9.6143  -16.4800   28.0851 C   0  0  0  0  0  0  0  0  0  0  0  0
   11.0835  -18.3126   25.3238 O   0  0  0  0  0  0  0  0  0  0  0  0
  2  1  1  1
  2 10  1  0
  2  3  1  0
  4  3  1  0
  4  9  1  0
  5  4  2  0
  6  5  1  0
  6  7  2  0
  7  8  1  0
  8  9  2  0
 10 11  2  0
 13 12  1  0
 14 13  1  0
 14 15  1  0
 16 15  1  6
 17 16  1  0
 17 10  1  0
 18 19  2  0
 18 16  1  0
 20 21  1  0
 21 31  2  0
 21 22  1  0
 22 23  2  0
 23 24  1  0
 24 25  1  0
 26 25  1  1
 26 27  1  0
 27 18  1  0
 28 26  1  0
 28 32  1  0
 29 28  2  0
 30 24  2  0
 31 30  1  0
M  END
$$$$
