FMY.pdb
     RDKit          3D

 32 33  0  0  1  0  0  0  0  0999 V2000
    9.1106  -15.8391   18.3882 N   0  0  0  0  0  0  0  0  0  0  0  0
    8.7722  -16.7579   19.4551 C   0  0  1  0  0  0  0  0  0  0  0  0
    9.5182  -18.0444   19.1773 C   0  0  0  0  0  0  0  0  0  0  0  0
    8.8362  -18.6964   18.0289 C   0  0  0  0  0  0  0  0  0  0  0  0
    7.4651  -18.7720   17.9045 C   0  0  0  0  0  0  0  0  0  0  0  0
    6.8641  -19.3894   16.8167 C   0  0  0  0  0  0  0  0  0  0  0  0
    7.6405  -19.9455   15.8279 C   0  0  0  0  0  0  0  0  0  0  0  0
    8.9952  -19.8794   15.9358 C   0  0  0  0  0  0  0  0  0  0  0  0
    9.5940  -19.2622   17.0233 C   0  0  0  0  0  0  0  0  0  0  0  0
    9.1476  -16.1492   20.7376 C   0  0  0  0  0  0  0  0  0  0  0  0
   10.3611  -16.0518   21.0362 O   0  0  0  0  0  0  0  0  0  0  0  0
    6.8836  -11.8849   27.0736 C   0  0  0  0  0  0  0  0  0  0  0  0
    6.5060  -12.6084   25.4768 S   0  0  0  0  0  0  0  0  0  0  0  0
    7.8587  -13.6312   24.8325 C   0  0  0  0  0  0  0  0  0  0  0  0
    7.4792  -14.1252   23.4601 C   0  0  0  0  0  0  0  0  0  0  0  0
    8.5874  -15.0090   22.9271 C   0  0  2  0  0  0  0  0  0  0  0  0
    8.2121  -15.6514   21.6854 N   0  0  0  0  0  0  0  0  0  0  0  0
    8.9821  -16.0320   23.9240 C   0  0  0  0  0  0  0  0  0  0  0  0
    8.0959  -16.6158   24.6017 O   0  0  0  0  0  0  0  0  0  0  0  0
   11.1192  -15.5645   31.7482 O   0  0  0  0  0  0  0  0  0  0  0  0
   11.0748  -15.4072   30.3760 C   0  0  0  0  0  0  0  0  0  0  0  0
   10.8158  -14.2007   29.7904 C   0  0  0  0  0  0  0  0  0  0  0  0
   10.7782  -14.0763   28.4157 C   0  0  0  0  0  0  0  0  0  0  0  0
   10.9980  -15.1519   27.5871 C   0  0  0  0  0  0  0  0  0  0  0  0
   10.9676  -15.0759   26.1155 C   0  0  0  0  0  0  0  0  0  0  0  0
   10.8957  -16.4408   25.5299 C   0  0  2  0  0  0  0  0  0  0  0  0
   10.3247  -16.4013   24.1662 N   0  0  0  0  0  0  0  0  0  0  0  0
   10.1978  -17.4479   26.3459 C   0  0  0  0  0  0  0  0  0  0  0  0
    8.9595  -17.4546   26.5047 O   0  0  0  0  0  0  0  0  0  0  0  0
   11.2584  -16.3638   28.1971 C   0  0  0  0  0  0  0  0  0  0  0  0
   11.2989  -16.5022   29.5683 C   0  0  0  0  0  0  0  0  0  0  0  0
   10.9303  -18.4383   26.9720 O   0  0  0  0  0  0  0  0  0  0  0  0
  2  1  1  6
  2 10  1  0
  2  3  1  0
  4  3  1  0
  4  9  1  0
  5  4  2  0
  6  5  1  0
  6  7  2  0
  7  8  1  0
  8  9  2  0
 10 11  2  0
 13 12  1  0
 14 13  1  0
 14 15  1  0
 16 15  1  1
 17 16  1  0
 17 10  1  0
 18 19  2  0
 18 16  1  0
 20 21  1  0
 21 31  2  0
 21 22  1  0
 22 23  2  0
 23 24  1  0
 24 25  1  0
 26 25  1  1
 26 27  1  0
 27 18  1  0
 28 26  1  0
 28 32  1  0
 29 28  2  0
 30 24  2  0
 31 30  1  0
M  END
$$$$
