FMY.pdb
     RDKit          3D

 32 33  0  0  1  0  0  0  0  0999 V2000
    6.1139  -18.1792   20.8468 N   0  0  0  0  0  0  0  0  0  0  0  0
    5.7640  -17.5411   22.0988 C   0  0  1  0  0  0  0  0  0  0  0  0
    5.2680  -18.6322   23.0220 C   0  0  0  0  0  0  0  0  0  0  0  0
    3.9824  -19.1201   22.4579 C   0  0  0  0  0  0  0  0  0  0  0  0
    2.8029  -18.4102   22.5338 C   0  0  0  0  0  0  0  0  0  0  0  0
    1.6212  -18.8987   21.9947 C   0  0  0  0  0  0  0  0  0  0  0  0
    1.6078  -20.1206   21.3647 C   0  0  0  0  0  0  0  0  0  0  0  0
    2.7636  -20.8336   21.2813 C   0  0  0  0  0  0  0  0  0  0  0  0
    3.9433  -20.3440   21.8206 C   0  0  0  0  0  0  0  0  0  0  0  0
    6.9488  -16.8493   22.6221 C   0  0  0  0  0  0  0  0  0  0  0  0
    8.0799  -17.3633   22.4564 O   0  0  0  0  0  0  0  0  0  0  0  0
    5.8230  -11.7775   27.6824 C   0  0  0  0  0  0  0  0  0  0  0  0
    6.7718  -11.8606   26.1630 S   0  0  0  0  0  0  0  0  0  0  0  0
    6.8817  -13.5439   25.4957 C   0  0  0  0  0  0  0  0  0  0  0  0
    7.7647  -13.5225   24.2744 C   0  0  0  0  0  0  0  0  0  0  0  0
    8.0703  -14.9463   23.8583 C   0  0  2  0  0  0  0  0  0  0  0  0
    6.9030  -15.6106   23.3186 N   0  0  0  0  0  0  0  0  0  0  0  0
    8.6163  -15.7294   24.9918 C   0  0  0  0  0  0  0  0  0  0  0  0
    7.8426  -16.4344   25.6916 O   0  0  0  0  0  0  0  0  0  0  0  0
   14.2928  -21.0988   21.6787 O   0  0  0  0  0  0  0  0  0  0  0  0
   13.4184  -20.1268   22.1267 C   0  0  0  0  0  0  0  0  0  0  0  0
   12.3847  -20.4127   22.9725 C   0  0  0  0  0  0  0  0  0  0  0  0
   11.5280  -19.4186   23.4021 C   0  0  0  0  0  0  0  0  0  0  0  0
   11.6787  -18.1120   23.0000 C   0  0  0  0  0  0  0  0  0  0  0  0
   10.7931  -17.0134   23.4257 C   0  0  0  0  0  0  0  0  0  0  0  0
   10.9103  -16.7951   24.8918 C   0  0  2  0  0  0  0  0  0  0  0  0
    9.9852  -15.7333   25.3436 N   0  0  0  0  0  0  0  0  0  0  0  0
   12.2704  -16.5322   25.3899 C   0  0  0  0  0  0  0  0  0  0  0  0
   12.8553  -15.4415   25.2255 O   0  0  0  0  0  0  0  0  0  0  0  0
   12.7294  -17.8418   22.1448 C   0  0  0  0  0  0  0  0  0  0  0  0
   13.5923  -18.8246   21.7080 C   0  0  0  0  0  0  0  0  0  0  0  0
   12.9457  -17.5259   26.0725 O   0  0  0  0  0  0  0  0  0  0  0  0
  2  1  1  6
  2 10  1  0
  2  3  1  0
  4  3  1  0
  4  9  1  0
  5  4  2  0
  6  5  1  0
  6  7  2  0
  7  8  1  0
  8  9  2  0
 10 11  2  0
 13 12  1  0
 14 13  1  0
 14 15  1  0
 16 15  1  1
 17 16  1  0
 17 10  1  0
 18 19  2  0
 18 16  1  0
 20 21  1  0
 21 31  2  0
 21 22  1  0
 22 23  2  0
 23 24  1  0
 24 25  1  0
 26 25  1  6
 26 27  1  0
 27 18  1  0
 28 26  1  0
 28 32  1  0
 29 28  2  0
 30 24  2  0
 31 30  1  0
M  END
$$$$
