FMY.pdb
     RDKit          3D

 32 33  0  0  1  0  0  0  0  0999 V2000
    7.0986  -17.8256   21.9217 N   0  0  0  0  0  0  0  0  0  0  0  0
    7.5986  -16.6368   21.2629 C   0  0  1  0  0  0  0  0  0  0  0  0
    6.4168  -15.9871   20.5773 C   0  0  0  0  0  0  0  0  0  0  0  0
    6.9295  -14.7643   19.9058 C   0  0  0  0  0  0  0  0  0  0  0  0
    7.4371  -14.7592   18.6238 C   0  0  0  0  0  0  0  0  0  0  0  0
    7.9070  -13.5965   18.0297 C   0  0  0  0  0  0  0  0  0  0  0  0
    7.8731  -12.4096   18.7225 C   0  0  0  0  0  0  0  0  0  0  0  0
    7.3751  -12.3977   19.9887 C   0  0  0  0  0  0  0  0  0  0  0  0
    6.9061  -13.5603   20.5807 C   0  0  0  0  0  0  0  0  0  0  0  0
    8.2202  -15.7668   22.2693 C   0  0  0  0  0  0  0  0  0  0  0  0
    9.0487  -14.9011   21.9014 O   0  0  0  0  0  0  0  0  0  0  0  0
    6.0803  -13.0005   28.7540 C   0  0  0  0  0  0  0  0  0  0  0  0
    6.5497  -12.3183   27.1634 S   0  0  0  0  0  0  0  0  0  0  0  0
    7.9020  -13.2373   26.3775 C   0  0  0  0  0  0  0  0  0  0  0  0
    7.3169  -14.1760   25.3537 C   0  0  0  0  0  0  0  0  0  0  0  0
    8.4426  -14.8875   24.6326 C   0  0  2  0  0  0  0  0  0  0  0  0
    7.9429  -15.8380   23.6619 N   0  0  0  0  0  0  0  0  0  0  0  0
    9.3430  -15.5720   25.5901 C   0  0  0  0  0  0  0  0  0  0  0  0
    9.9355  -14.9017   26.4761 O   0  0  0  0  0  0  0  0  0  0  0  0
   13.2318  -17.0326   20.6768 O   0  0  0  0  0  0  0  0  0  0  0  0
   12.8999  -17.0672   22.0178 C   0  0  0  0  0  0  0  0  0  0  0  0
   12.1823  -18.0936   22.5631 C   0  0  0  0  0  0  0  0  0  0  0  0
   11.8665  -18.0987   23.9073 C   0  0  0  0  0  0  0  0  0  0  0  0
   12.2577  -17.0803   24.7448 C   0  0  0  0  0  0  0  0  0  0  0  0
   11.9464  -17.0344   26.1847 C   0  0  0  0  0  0  0  0  0  0  0  0
   10.5956  -17.6016   26.4387 C   0  0  2  0  0  0  0  0  0  0  0  0
    9.5830  -16.9647   25.5689 N   0  0  0  0  0  0  0  0  0  0  0  0
   10.1492  -17.5799   27.8413 C   0  0  0  0  0  0  0  0  0  0  0  0
    9.0557  -17.0950   28.1990 O   0  0  0  0  0  0  0  0  0  0  0  0
   12.9825  -16.0510   24.1758 C   0  0  0  0  0  0  0  0  0  0  0  0
   13.3048  -16.0331   22.8353 C   0  0  0  0  0  0  0  0  0  0  0  0
   10.9642  -18.1160   28.8199 O   0  0  0  0  0  0  0  0  0  0  0  0
  2  1  1  1
  2 10  1  0
  2  3  1  0
  4  3  1  0
  4  9  1  0
  5  4  2  0
  6  5  1  0
  6  7  2  0
  7  8  1  0
  8  9  2  0
 10 11  2  0
 13 12  1  0
 14 13  1  0
 14 15  1  0
 16 15  1  1
 17 16  1  0
 17 10  1  0
 18 19  2  0
 18 16  1  0
 20 21  1  0
 21 31  2  0
 21 22  1  0
 22 23  2  0
 23 24  1  0
 24 25  1  0
 26 25  1  1
 26 27  1  0
 27 18  1  0
 28 26  1  0
 28 32  1  0
 29 28  2  0
 30 24  2  0
 31 30  1  0
M  END
$$$$
