FMY.pdb
     RDKit          3D

 32 33  0  0  1  0  0  0  0  0999 V2000
   11.1147  -14.9623   20.9116 N   0  0  0  0  0  0  0  0  0  0  0  0
    9.8145  -14.9549   21.5492 C   0  0  1  0  0  0  0  0  0  0  0  0
    8.9552  -15.9506   20.8014 C   0  0  0  0  0  0  0  0  0  0  0  0
    8.2763  -15.1995   19.7134 C   0  0  0  0  0  0  0  0  0  0  0  0
    7.2690  -14.2850   19.9372 C   0  0  0  0  0  0  0  0  0  0  0  0
    6.6583  -13.6023   18.8948 C   0  0  0  0  0  0  0  0  0  0  0  0
    7.0552  -13.8312   17.5987 C   0  0  0  0  0  0  0  0  0  0  0  0
    8.0481  -14.7307   17.3609 C   0  0  0  0  0  0  0  0  0  0  0  0
    8.6571  -15.4119   18.4036 C   0  0  0  0  0  0  0  0  0  0  0  0
    9.9828  -15.3013   22.9662 C   0  0  0  0  0  0  0  0  0  0  0  0
   11.0204  -15.9035   23.3293 O   0  0  0  0  0  0  0  0  0  0  0  0
    6.3618  -10.9141   27.0996 C   0  0  0  0  0  0  0  0  0  0  0  0
    6.5911  -12.6918   27.1516 S   0  0  0  0  0  0  0  0  0  0  0  0
    8.0390  -13.2404   26.2064 C   0  0  0  0  0  0  0  0  0  0  0  0
    8.0873  -14.7467   26.2277 C   0  0  0  0  0  0  0  0  0  0  0  0
    9.2579  -15.2173   25.3900 C   0  0  2  0  0  0  0  0  0  0  0  0
    9.0316  -14.9954   23.9777 N   0  0  0  0  0  0  0  0  0  0  0  0
    9.5489  -16.6497   25.6343 C   0  0  0  0  0  0  0  0  0  0  0  0
    8.7868  -17.5305   25.1558 O   0  0  0  0  0  0  0  0  0  0  0  0
   13.7177  -17.9824   21.1893 O   0  0  0  0  0  0  0  0  0  0  0  0
   13.3247  -18.2583   22.4851 C   0  0  0  0  0  0  0  0  0  0  0  0
   12.4740  -19.2843   22.7841 C   0  0  0  0  0  0  0  0  0  0  0  0
   12.1000  -19.5342   24.0896 C   0  0  0  0  0  0  0  0  0  0  0  0
   12.5643  -18.7677   25.1330 C   0  0  0  0  0  0  0  0  0  0  0  0
   12.1963  -18.9888   26.5430 C   0  0  0  0  0  0  0  0  0  0  0  0
   10.8106  -18.5121   26.7952 C   0  0  2  0  0  0  0  0  0  0  0  0
   10.6561  -17.0983   26.3896 N   0  0  0  0  0  0  0  0  0  0  0  0
   10.3095  -18.7072   28.1656 C   0  0  0  0  0  0  0  0  0  0  0  0
    9.9232  -17.7653   28.8884 O   0  0  0  0  0  0  0  0  0  0  0  0
   13.4236  -17.7349   24.8116 C   0  0  0  0  0  0  0  0  0  0  0  0
   13.8052  -17.4741   23.5125 C   0  0  0  0  0  0  0  0  0  0  0  0
   10.2572  -19.9835   28.6925 O   0  0  0  0  0  0  0  0  0  0  0  0
  2  1  1  6
  2 10  1  0
  2  3  1  0
  4  3  1  0
  4  9  1  0
  5  4  2  0
  6  5  1  0
  6  7  2  0
  7  8  1  0
  8  9  2  0
 10 11  2  0
 13 12  1  0
 14 13  1  0
 14 15  1  0
 16 15  1  1
 17 16  1  0
 17 10  1  0
 18 19  2  0
 18 16  1  0
 20 21  1  0
 21 31  2  0
 21 22  1  0
 22 23  2  0
 23 24  1  0
 24 25  1  0
 26 25  1  1
 26 27  1  0
 27 18  1  0
 28 26  1  0
 28 32  1  0
 29 28  2  0
 30 24  2  0
 31 30  1  0
M  END
$$$$
