FMY.pdb
     RDKit          3D

 32 33  0  0  1  0  0  0  0  0999 V2000
    7.0388  -17.9627   19.3398 N   0  0  0  0  0  0  0  0  0  0  0  0
    6.5386  -17.5896   20.6467 C   0  0  1  0  0  0  0  0  0  0  0  0
    6.4002  -18.8683   21.4433 C   0  0  0  0  0  0  0  0  0  0  0  0
    4.9740  -19.2770   21.3543 C   0  0  0  0  0  0  0  0  0  0  0  0
    4.5309  -20.3175   20.5655 C   0  0  0  0  0  0  0  0  0  0  0  0
    3.1900  -20.6701   20.5083 C   0  0  0  0  0  0  0  0  0  0  0  0
    2.2652  -19.9748   21.2507 C   0  0  0  0  0  0  0  0  0  0  0  0
    2.6863  -18.9452   22.0343 C   0  0  0  0  0  0  0  0  0  0  0  0
    4.0264  -18.5943   22.0903 C   0  0  0  0  0  0  0  0  0  0  0  0
    7.4773  -16.6392   21.2566 C   0  0  0  0  0  0  0  0  0  0  0  0
    8.6076  -16.4790   20.7391 O   0  0  0  0  0  0  0  0  0  0  0  0
    6.5916  -12.4027   26.7537 C   0  0  0  0  0  0  0  0  0  0  0  0
    7.0397  -11.5605   25.2353 S   0  0  0  0  0  0  0  0  0  0  0  0
    7.9962  -12.6103   24.1067 C   0  0  0  0  0  0  0  0  0  0  0  0
    7.1262  -13.7570   23.6597 C   0  0  0  0  0  0  0  0  0  0  0  0
    7.9553  -14.7145   22.8295 C   0  0  2  0  0  0  0  0  0  0  0  0
    7.1887  -15.8711   22.4176 N   0  0  0  0  0  0  0  0  0  0  0  0
    9.1666  -15.1490   23.5645 C   0  0  0  0  0  0  0  0  0  0  0  0
    9.9162  -14.2872   24.0944 O   0  0  0  0  0  0  0  0  0  0  0  0
   10.7947  -14.2928   30.6231 O   0  0  0  0  0  0  0  0  0  0  0  0
   10.2903  -14.8803   29.4784 C   0  0  0  0  0  0  0  0  0  0  0  0
    9.7980  -14.1432   28.4392 C   0  0  0  0  0  0  0  0  0  0  0  0
    9.3006  -14.7605   27.3086 C   0  0  0  0  0  0  0  0  0  0  0  0
    9.2806  -16.1300   27.1833 C   0  0  0  0  0  0  0  0  0  0  0  0
    8.7600  -16.8400   26.0013 C   0  0  0  0  0  0  0  0  0  0  0  0
    9.8556  -17.0954   25.0290 C   0  0  2  0  0  0  0  0  0  0  0  0
    9.5406  -16.5041   23.7105 N   0  0  0  0  0  0  0  0  0  0  0  0
   10.2541  -18.5041   24.8740 C   0  0  0  0  0  0  0  0  0  0  0  0
   11.2254  -19.0059   25.4769 O   0  0  0  0  0  0  0  0  0  0  0  0
    9.7825  -16.8589   28.2441 C   0  0  0  0  0  0  0  0  0  0  0  0
   10.2821  -16.2556   29.3788 C   0  0  0  0  0  0  0  0  0  0  0  0
    9.5320  -19.3230   24.0271 O   0  0  0  0  0  0  0  0  0  0  0  0
  2  1  1  6
  2 10  1  0
  2  3  1  0
  4  3  1  0
  4  9  1  0
  5  4  2  0
  6  5  1  0
  6  7  2  0
  7  8  1  0
  8  9  2  0
 10 11  2  0
 13 12  1  0
 14 13  1  0
 14 15  1  0
 16 15  1  1
 17 16  1  0
 17 10  1  0
 18 19  2  0
 18 16  1  0
 20 21  1  0
 21 31  2  0
 21 22  1  0
 22 23  2  0
 23 24  1  0
 24 25  1  0
 26 25  1  1
 26 27  1  0
 27 18  1  0
 28 26  1  0
 28 32  1  0
 29 28  2  0
 30 24  2  0
 31 30  1  0
M  END
$$$$
