FMY.pdb
     RDKit          3D

 32 33  0  0  1  0  0  0  0  0999 V2000
    5.9569  -18.3864   25.1973 N   0  0  0  0  0  0  0  0  0  0  0  0
    6.3502  -17.0046   25.0159 C   0  0  1  0  0  0  0  0  0  0  0  0
    7.1788  -16.6237   26.2230 C   0  0  0  0  0  0  0  0  0  0  0  0
    6.9338  -15.1793   26.4733 C   0  0  0  0  0  0  0  0  0  0  0  0
    6.4649  -14.6861   27.6724 C   0  0  0  0  0  0  0  0  0  0  0  0
    6.2481  -13.3297   27.8688 C   0  0  0  0  0  0  0  0  0  0  0  0
    6.5022  -12.4398   26.8523 C   0  0  0  0  0  0  0  0  0  0  0  0
    6.9654  -12.9105   25.6626 C   0  0  0  0  0  0  0  0  0  0  0  0
    7.1813  -14.2661   25.4681 C   0  0  0  0  0  0  0  0  0  0  0  0
    7.0954  -16.8885   23.7559 C   0  0  0  0  0  0  0  0  0  0  0  0
    7.6821  -17.8968   23.2975 O   0  0  0  0  0  0  0  0  0  0  0  0
    9.1692  -12.4174   17.4825 C   0  0  0  0  0  0  0  0  0  0  0  0
    8.2337  -12.6042   19.0009 S   0  0  0  0  0  0  0  0  0  0  0  0
    8.5590  -14.1817   19.8358 C   0  0  0  0  0  0  0  0  0  0  0  0
    7.7479  -14.2325   21.1051 C   0  0  0  0  0  0  0  0  0  0  0  0
    7.9818  -15.5627   21.7902 C   0  0  2  0  0  0  0  0  0  0  0  0
    7.2008  -15.6874   23.0025 N   0  0  0  0  0  0  0  0  0  0  0  0
    9.4184  -15.7626   22.0941 C   0  0  0  0  0  0  0  0  0  0  0  0
   10.2807  -15.5331   21.2057 O   0  0  0  0  0  0  0  0  0  0  0  0
    9.7201  -15.6329   29.8873 O   0  0  0  0  0  0  0  0  0  0  0  0
   10.1713  -15.4882   28.5892 C   0  0  0  0  0  0  0  0  0  0  0  0
   10.6450  -16.5431   27.8621 C   0  0  0  0  0  0  0  0  0  0  0  0
   11.0888  -16.3656   26.5667 C   0  0  0  0  0  0  0  0  0  0  0  0
   11.0725  -15.1311   25.9606 C   0  0  0  0  0  0  0  0  0  0  0  0
   11.5357  -14.8851   24.5832 C   0  0  0  0  0  0  0  0  0  0  0  0
   11.3126  -16.0901   23.7411 C   0  0  2  0  0  0  0  0  0  0  0  0
    9.8909  -16.2058   23.3502 N   0  0  0  0  0  0  0  0  0  0  0  0
   11.7902  -17.3615   24.3093 C   0  0  0  0  0  0  0  0  0  0  0  0
   12.9590  -17.5277   24.7156 O   0  0  0  0  0  0  0  0  0  0  0  0
   10.5902  -14.0762   26.7111 C   0  0  0  0  0  0  0  0  0  0  0  0
   10.1439  -14.2392   28.0055 C   0  0  0  0  0  0  0  0  0  0  0  0
   10.9196  -18.4302   24.4050 O   0  0  0  0  0  0  0  0  0  0  0  0
  2  1  1  1
  2 10  1  0
  2  3  1  0
  4  3  1  0
  4  9  1  0
  5  4  2  0
  6  5  1  0
  6  7  2  0
  7  8  1  0
  8  9  2  0
 10 11  2  0
 13 12  1  0
 14 13  1  0
 14 15  1  0
 16 15  1  1
 17 16  1  0
 17 10  1  0
 18 19  2  0
 18 16  1  0
 20 21  1  0
 21 31  2  0
 21 22  1  0
 22 23  2  0
 23 24  1  0
 24 25  1  0
 26 25  1  1
 26 27  1  0
 27 18  1  0
 28 26  1  0
 28 32  1  0
 29 28  2  0
 30 24  2  0
 31 30  1  0
M  END
$$$$
