CVT.pdb
     RDKit          3D

 21 20  0  0  1  0  0  0  0  0999 V2000
   17.8396  -12.2373  -16.8700 N   0  0  0  0  0  0  0  0  0  0  0  0
   18.5531  -11.0355  -17.2516 C   0  0  1  0  0  0  0  0  0  0  0  0
   17.5014  -10.0236  -17.6825 C   0  0  0  0  0  0  0  0  0  0  0  0
   16.6573  -10.5532  -19.1936 S   0  0  0  0  0  0  0  0  0  0  0  0
   19.3753  -10.5141  -16.1340 C   0  0  0  0  0  0  0  0  0  0  0  0
   18.8912  -10.4719  -14.9821 O   0  0  0  0  0  0  0  0  0  0  0  0
   23.9328   -9.9277  -14.5200 C   0  0  0  0  0  0  0  0  0  0  0  0
   22.8727  -10.4246  -15.4778 C   0  0  1  0  0  0  0  0  0  0  0  0
   22.6356  -11.8716  -15.1982 C   0  0  0  0  0  0  0  0  0  0  0  0
   21.5811   -9.6099  -15.3195 C   0  0  2  0  0  0  0  0  0  0  0  0
   20.6851  -10.0705  -16.3594 N   0  0  0  0  0  0  0  0  0  0  0  0
   21.8516   -8.1720  -15.4806 C   0  0  0  0  0  0  0  0  0  0  0  0
   22.5135   -7.7536  -16.4656 O   0  0  0  0  0  0  0  0  0  0  0  0
   19.9207   -5.3092  -16.4011 C   0  0  0  0  0  0  0  0  0  0  0  0
   20.5347   -4.9335  -15.0974 C   0  0  1  0  0  0  0  0  0  0  0  0
   19.6027   -5.0129  -14.0705 O   0  0  0  0  0  0  0  0  0  0  0  0
   21.7172   -5.7728  -14.7076 C   0  0  2  0  0  0  0  0  0  0  0  0
   21.3968   -7.1748  -14.5595 N   0  0  0  0  0  0  0  0  0  0  0  0
   22.4028   -5.2406  -13.4925 C   0  0  0  0  0  0  0  0  0  0  0  0
   22.3630   -5.8801  -12.2781 O   0  0  0  0  0  0  0  0  0  0  0  0
   23.0351   -4.1645  -13.6080 O   0  0  0  0  0  0  0  0  0  0  0  0
  2  1  1  1
  2  3  1  0
  3  4  1  0
  5  2  1  0
  6  5  2  0
  8 10  1  0
  8  7  1  1
  9  8  1  0
 10 12  1  0
 10 11  1  6
 11  5  1  0
 12 18  1  0
 13 12  2  0
 15 14  1  6
 15 16  1  0
 17 18  1  1
 17 19  1  0
 17 15  1  0
 19 21  2  0
 19 20  1  0
M  END
$$$$
