CVT.pdb
     RDKit          3D

 21 20  0  0  1  0  0  0  0  0999 V2000
   27.3339  -22.9518  -16.3261 N   0  0  0  0  0  0  0  0  0  0  0  0
   27.0200  -21.7990  -15.5067 C   0  0  1  0  0  0  0  0  0  0  0  0
   26.3295  -20.7936  -16.4166 C   0  0  0  0  0  0  0  0  0  0  0  0
   27.5249  -19.9093  -17.4488 S   0  0  0  0  0  0  0  0  0  0  0  0
   26.1571  -22.1672  -14.3591 C   0  0  0  0  0  0  0  0  0  0  0  0
   25.4140  -23.1689  -14.4450 O   0  0  0  0  0  0  0  0  0  0  0  0
   25.8962  -19.3834  -11.1420 C   0  0  0  0  0  0  0  0  0  0  0  0
   25.9261  -20.8715  -10.8724 C   0  0  1  0  0  0  0  0  0  0  0  0
   25.1812  -21.1288   -9.6047 C   0  0  0  0  0  0  0  0  0  0  0  0
   25.3068  -21.6429  -12.0464 C   0  0  2  0  0  0  0  0  0  0  0  0
   26.1692  -21.4034  -13.1845 N   0  0  0  0  0  0  0  0  0  0  0  0
   23.9463  -21.1561  -12.3272 C   0  0  0  0  0  0  0  0  0  0  0  0
   23.0947  -21.0742  -11.4045 O   0  0  0  0  0  0  0  0  0  0  0  0
   22.9193  -19.0897  -16.0427 C   0  0  0  0  0  0  0  0  0  0  0  0
   22.3319  -18.8691  -14.6920 C   0  0  1  0  0  0  0  0  0  0  0  0
   21.0607  -18.3179  -14.7895 O   0  0  0  0  0  0  0  0  0  0  0  0
   22.2292  -20.1105  -13.8536 C   0  0  2  0  0  0  0  0  0  0  0  0
   23.5047  -20.7528  -13.6279 N   0  0  0  0  0  0  0  0  0  0  0  0
   21.2258  -21.0717  -14.4006 C   0  0  0  0  0  0  0  0  0  0  0  0
   19.9138  -20.7307  -14.6191 O   0  0  0  0  0  0  0  0  0  0  0  0
   21.6187  -22.2324  -14.6643 O   0  0  0  0  0  0  0  0  0  0  0  0
  2  1  1  6
  2  3  1  0
  3  4  1  0
  5  2  1  0
  6  5  2  0
  8 10  1  0
  8  7  1  6
  9  8  1  0
 10 12  1  0
 10 11  1  6
 11  5  1  0
 12 18  1  0
 13 12  2  0
 15 14  1  6
 15 16  1  0
 17 18  1  6
 17 19  1  0
 17 15  1  0
 19 21  2  0
 19 20  1  0
M  END
$$$$
