CVT.pdb
     RDKit          3D

 21 20  0  0  1  0  0  0  0  0999 V2000
   23.7587  -20.4357  -17.9260 N   0  0  0  0  0  0  0  0  0  0  0  0
   24.0375  -19.5731  -16.7959 C   0  0  1  0  0  0  0  0  0  0  0  0
   22.6986  -19.0200  -16.3300 C   0  0  0  0  0  0  0  0  0  0  0  0
   22.9068  -17.4688  -15.4206 S   0  0  0  0  0  0  0  0  0  0  0  0
   24.7237  -20.3090  -15.7074 C   0  0  0  0  0  0  0  0  0  0  0  0
   24.2338  -21.3786  -15.2844 O   0  0  0  0  0  0  0  0  0  0  0  0
   28.8112  -20.2731  -12.8637 C   0  0  0  0  0  0  0  0  0  0  0  0
   28.0695  -19.9915  -14.1516 C   0  0  1  0  0  0  0  0  0  0  0  0
   28.7553  -20.7290  -15.2532 C   0  0  0  0  0  0  0  0  0  0  0  0
   26.5996  -20.4174  -14.0294 C   0  0  2  0  0  0  0  0  0  0  0  0
   25.9118  -19.8156  -15.1525 N   0  0  0  0  0  0  0  0  0  0  0  0
   26.0237  -19.9371  -12.7629 C   0  0  0  0  0  0  0  0  0  0  0  0
   25.7868  -18.7130  -12.5932 O   0  0  0  0  0  0  0  0  0  0  0  0
   23.2849  -20.2593   -8.7870 C   0  0  0  0  0  0  0  0  0  0  0  0
   23.7890  -20.6946  -10.1191 C   0  0  1  0  0  0  0  0  0  0  0  0
   22.9966  -20.1833  -11.1389 O   0  0  0  0  0  0  0  0  0  0  0  0
   25.2095  -20.2979  -10.4009 C   0  0  2  0  0  0  0  0  0  0  0  0
   25.7005  -20.7979  -11.6656 N   0  0  0  0  0  0  0  0  0  0  0  0
   26.1243  -20.6651   -9.2793 C   0  0  0  0  0  0  0  0  0  0  0  0
   26.2289  -19.9179   -8.1320 O   0  0  0  0  0  0  0  0  0  0  0  0
   26.8162  -21.7020   -9.4111 O   0  0  0  0  0  0  0  0  0  0  0  0
  2  1  1  6
  2  3  1  0
  3  4  1  0
  5  2  1  0
  6  5  2  0
  8 10  1  0
  8  7  1  1
  9  8  1  0
 10 12  1  0
 10 11  1  6
 11  5  1  0
 12 18  1  0
 13 12  2  0
 15 14  1  1
 15 16  1  0
 17 18  1  6
 17 19  1  0
 17 15  1  0
 19 21  2  0
 19 20  1  0
M  END
$$$$
