CVT.pdb
     RDKit          3D

 21 20  0  0  1  0  0  0  0  0999 V2000
   19.3279  -15.7274  -16.3655 N   0  0  0  0  0  0  0  0  0  0  0  0
   19.8183  -14.5129  -16.9849 C   0  0  1  0  0  0  0  0  0  0  0  0
   18.7187  -14.0251  -17.9167 C   0  0  0  0  0  0  0  0  0  0  0  0
   18.4022  -15.2159  -19.2428 S   0  0  0  0  0  0  0  0  0  0  0  0
   20.1596  -13.4863  -15.9717 C   0  0  0  0  0  0  0  0  0  0  0  0
   19.4192  -13.3351  -14.9758 O   0  0  0  0  0  0  0  0  0  0  0  0
   23.8700  -10.7227  -14.2623 C   0  0  0  0  0  0  0  0  0  0  0  0
   23.2760  -11.8450  -15.0842 C   0  0  1  0  0  0  0  0  0  0  0  0
   23.6769  -13.1403  -14.4600 C   0  0  0  0  0  0  0  0  0  0  0  0
   21.7481  -11.7110  -15.1520 C   0  0  2  0  0  0  0  0  0  0  0  0
   21.3013  -12.6882  -16.1226 N   0  0  0  0  0  0  0  0  0  0  0  0
   21.3645  -10.3560  -15.5801 C   0  0  0  0  0  0  0  0  0  0  0  0
   21.6544   -9.9451  -16.7335 O   0  0  0  0  0  0  0  0  0  0  0  0
   18.2842   -6.5684  -15.5020 C   0  0  0  0  0  0  0  0  0  0  0  0
   18.7475   -7.9151  -15.0667 C   0  0  1  0  0  0  0  0  0  0  0  0
   18.1021   -8.9155  -15.7823 O   0  0  0  0  0  0  0  0  0  0  0  0
   20.2264   -8.1340  -15.2069 C   0  0  2  0  0  0  0  0  0  0  0  0
   20.6563   -9.4345  -14.7441 N   0  0  0  0  0  0  0  0  0  0  0  0
   21.0154   -7.0405  -14.5652 C   0  0  0  0  0  0  0  0  0  0  0  0
   21.5314   -5.9836  -15.2738 O   0  0  0  0  0  0  0  0  0  0  0  0
   21.2027   -7.1099  -13.3278 O   0  0  0  0  0  0  0  0  0  0  0  0
  2  1  1  1
  2  3  1  0
  3  4  1  0
  5  2  1  0
  6  5  2  0
  8 10  1  0
  8  7  1  1
  9  8  1  0
 10 12  1  0
 10 11  1  6
 11  5  1  0
 12 18  1  0
 13 12  2  0
 15 14  1  6
 15 16  1  0
 17 18  1  1
 17 19  1  0
 17 15  1  0
 19 21  2  0
 19 20  1  0
M  END
$$$$
