CVT.pdb
     RDKit          3D

 21 20  0  0  1  0  0  0  0  0999 V2000
   28.1428  -17.8258  -16.1272 N   0  0  0  0  0  0  0  0  0  0  0  0
   27.3160  -17.7391  -14.9406 C   0  0  1  0  0  0  0  0  0  0  0  0
   26.3875  -16.5507  -15.1432 C   0  0  0  0  0  0  0  0  0  0  0  0
   27.1962  -14.9971  -14.6860 S   0  0  0  0  0  0  0  0  0  0  0  0
   26.5500  -18.9888  -14.7201 C   0  0  0  0  0  0  0  0  0  0  0  0
   26.1366  -19.6385  -15.7050 O   0  0  0  0  0  0  0  0  0  0  0  0
   25.3575  -19.9979  -10.7233 C   0  0  0  0  0  0  0  0  0  0  0  0
   25.9820  -21.0149  -11.6528 C   0  0  1  0  0  0  0  0  0  0  0  0
   25.4874  -22.3676  -11.2610 C   0  0  0  0  0  0  0  0  0  0  0  0
   25.6296  -20.6963  -13.1127 C   0  0  2  0  0  0  0  0  0  0  0  0
   26.2878  -19.4441  -13.4212 N   0  0  0  0  0  0  0  0  0  0  0  0
   24.1732  -20.5600  -13.2771 C   0  0  0  0  0  0  0  0  0  0  0  0
   23.5860  -19.5073  -12.9161 O   0  0  0  0  0  0  0  0  0  0  0  0
   19.8939  -22.0696  -15.3508 C   0  0  0  0  0  0  0  0  0  0  0  0
   21.3691  -22.1831  -15.1817 C   0  0  1  0  0  0  0  0  0  0  0  0
   22.0328  -21.7425  -16.3195 O   0  0  0  0  0  0  0  0  0  0  0  0
   21.9161  -21.4210  -14.0091 C   0  0  2  0  0  0  0  0  0  0  0  0
   23.3432  -21.5809  -13.8413 N   0  0  0  0  0  0  0  0  0  0  0  0
   21.1818  -21.7358  -12.7476 C   0  0  0  0  0  0  0  0  0  0  0  0
   21.3466  -22.9177  -12.0682 O   0  0  0  0  0  0  0  0  0  0  0  0
   20.3872  -20.8717  -12.3081 O   0  0  0  0  0  0  0  0  0  0  0  0
  2  1  1  6
  2  3  1  0
  3  4  1  0
  5  2  1  0
  6  5  2  0
  8 10  1  0
  8  7  1  1
  9  8  1  0
 10 12  1  0
 10 11  1  1
 11  5  1  0
 12 18  1  0
 13 12  2  0
 15 14  1  6
 15 16  1  0
 17 18  1  1
 17 19  1  0
 17 15  1  0
 19 21  2  0
 19 20  1  0
M  END
$$$$
