CVT.pdb
     RDKit          3D

 21 20  0  0  1  0  0  0  0  0999 V2000
   23.2034  -13.6562  -17.5889 N   0  0  0  0  0  0  0  0  0  0  0  0
   23.6256  -12.5007  -16.8237 C   0  0  1  0  0  0  0  0  0  0  0  0
   25.0337  -12.1610  -17.2899 C   0  0  0  0  0  0  0  0  0  0  0  0
   26.2809  -13.0284  -16.3058 S   0  0  0  0  0  0  0  0  0  0  0  0
   22.7042  -11.3557  -17.0164 C   0  0  0  0  0  0  0  0  0  0  0  0
   22.3848  -11.0116  -18.1751 O   0  0  0  0  0  0  0  0  0  0  0  0
   19.0125   -8.8467  -15.2112 C   0  0  0  0  0  0  0  0  0  0  0  0
   19.9475  -10.0162  -15.4264 C   0  0  1  0  0  0  0  0  0  0  0  0
   19.2771  -10.9839  -16.3442 C   0  0  0  0  0  0  0  0  0  0  0  0
   21.2847   -9.5353  -16.0074 C   0  0  2  0  0  0  0  0  0  0  0  0
   22.1917  -10.6600  -15.9134 N   0  0  0  0  0  0  0  0  0  0  0  0
   21.8057   -8.3952  -15.2359 C   0  0  0  0  0  0  0  0  0  0  0  0
   22.1663   -8.5455  -14.0398 O   0  0  0  0  0  0  0  0  0  0  0  0
   24.4579   -5.6416  -16.5644 C   0  0  0  0  0  0  0  0  0  0  0  0
   23.2967   -5.0248  -15.8650 C   0  0  1  0  0  0  0  0  0  0  0  0
   22.4213   -4.4465  -16.7753 O   0  0  0  0  0  0  0  0  0  0  0  0
   22.5087   -5.9808  -15.0165 C   0  0  2  0  0  0  0  0  0  0  0  0
   21.9368   -7.0737  -15.7707 N   0  0  0  0  0  0  0  0  0  0  0  0
   21.4708   -5.2798  -14.2034 C   0  0  0  0  0  0  0  0  0  0  0  0
   21.7735   -4.5639  -13.0715 O   0  0  0  0  0  0  0  0  0  0  0  0
   20.2805   -5.3612  -14.5877 O   0  0  0  0  0  0  0  0  0  0  0  0
  2  1  1  6
  2  3  1  0
  3  4  1  0
  5  2  1  0
  6  5  2  0
  8 10  1  0
  8  7  1  6
  9  8  1  0
 10 12  1  0
 10 11  1  1
 11  5  1  0
 12 18  1  0
 13 12  2  0
 15 14  1  6
 15 16  1  0
 17 18  1  6
 17 19  1  0
 17 15  1  0
 19 21  2  0
 19 20  1  0
M  END
$$$$
