CVT.pdb
     RDKit          3D

 21 20  0  0  1  0  0  0  0  0999 V2000
   18.5357  -14.1027  -16.6527 N   0  0  0  0  0  0  0  0  0  0  0  0
   19.1376  -12.9425  -17.2777 C   0  0  1  0  0  0  0  0  0  0  0  0
   18.0651  -12.3165  -18.1571 C   0  0  0  0  0  0  0  0  0  0  0  0
   17.6697  -13.3767  -19.5700 S   0  0  0  0  0  0  0  0  0  0  0  0
   19.6353  -11.9785  -16.2677 C   0  0  0  0  0  0  0  0  0  0  0  0
   18.9940  -11.8129  -15.2074 O   0  0  0  0  0  0  0  0  0  0  0  0
   23.5579   -9.5668  -14.6007 C   0  0  0  0  0  0  0  0  0  0  0  0
   22.8636  -10.5925  -15.4690 C   0  0  1  0  0  0  0  0  0  0  0  0
   23.0967  -11.9406  -14.8720 C   0  0  0  0  0  0  0  0  0  0  0  0
   21.3635  -10.2828  -15.5717 C   0  0  2  0  0  0  0  0  0  0  0  0
   20.8142  -11.2555  -16.4929 N   0  0  0  0  0  0  0  0  0  0  0  0
   21.1489   -8.9193  -16.0832 C   0  0  0  0  0  0  0  0  0  0  0  0
   21.7972   -8.5014  -17.0775 O   0  0  0  0  0  0  0  0  0  0  0  0
   18.1072   -7.3713  -17.5905 C   0  0  0  0  0  0  0  0  0  0  0  0
   18.5539   -6.4732  -16.4897 C   0  0  1  0  0  0  0  0  0  0  0  0
   17.7477   -6.6258  -15.3689 O   0  0  0  0  0  0  0  0  0  0  0  0
   19.9775   -6.6835  -16.0611 C   0  0  2  0  0  0  0  0  0  0  0  0
   20.2177   -7.9972  -15.5072 N   0  0  0  0  0  0  0  0  0  0  0  0
   20.4460   -5.6094  -15.1356 C   0  0  0  0  0  0  0  0  0  0  0  0
   20.7593   -5.8479  -13.8201 O   0  0  0  0  0  0  0  0  0  0  0  0
   20.5504   -4.4495  -15.5990 O   0  0  0  0  0  0  0  0  0  0  0  0
  2  1  1  1
  2  3  1  0
  3  4  1  0
  5  2  1  0
  6  5  2  0
  8 10  1  0
  8  7  1  1
  9  8  1  0
 10 12  1  0
 10 11  1  6
 11  5  1  0
 12 18  1  0
 13 12  2  0
 15 14  1  6
 15 16  1  0
 17 18  1  1
 17 19  1  0
 17 15  1  0
 19 21  2  0
 19 20  1  0
M  END
$$$$
