CVT.pdb
     RDKit          3D

 21 20  0  0  1  0  0  0  0  0999 V2000
   17.2522  -12.1491  -16.1290 N   0  0  0  0  0  0  0  0  0  0  0  0
   17.9878  -11.0197  -16.6604 C   0  0  1  0  0  0  0  0  0  0  0  0
   16.9543  -10.0448  -17.2054 C   0  0  0  0  0  0  0  0  0  0  0  0
   16.0895  -10.7339  -18.6385 S   0  0  0  0  0  0  0  0  0  0  0  0
   18.8317  -10.3838  -15.6210 C   0  0  0  0  0  0  0  0  0  0  0  0
   18.3984  -10.2855  -14.4524 O   0  0  0  0  0  0  0  0  0  0  0  0
   22.8574  -10.2371  -16.4468 C   0  0  0  0  0  0  0  0  0  0  0  0
   22.2897  -10.2400  -15.0447 C   0  0  1  0  0  0  0  0  0  0  0  0
   23.3501   -9.7540  -14.1134 C   0  0  0  0  0  0  0  0  0  0  0  0
   21.0374   -9.3551  -14.9702 C   0  0  2  0  0  0  0  0  0  0  0  0
   20.1057   -9.8945  -15.9385 N   0  0  0  0  0  0  0  0  0  0  0  0
   21.3672   -7.9599  -15.3036 C   0  0  0  0  0  0  0  0  0  0  0  0
   21.8556   -7.6704  -16.4265 O   0  0  0  0  0  0  0  0  0  0  0  0
   19.5375   -5.0159  -16.1868 C   0  0  0  0  0  0  0  0  0  0  0  0
   20.3454   -4.6206  -14.9999 C   0  0  1  0  0  0  0  0  0  0  0  0
   19.5639   -4.6080  -13.8516 O   0  0  0  0  0  0  0  0  0  0  0  0
   21.5299   -5.5053  -14.7374 C   0  0  2  0  0  0  0  0  0  0  0  0
   21.1637   -6.8640  -14.4052 N   0  0  0  0  0  0  0  0  0  0  0  0
   22.4449   -4.9226  -13.7112 C   0  0  0  0  0  0  0  0  0  0  0  0
   23.2189   -3.8141  -13.9510 O   0  0  0  0  0  0  0  0  0  0  0  0
   22.4932   -5.4841  -12.5916 O   0  0  0  0  0  0  0  0  0  0  0  0
  2  1  1  1
  2  3  1  0
  3  4  1  0
  5  2  1  0
  6  5  2  0
  8 10  1  0
  8  7  1  6
  9  8  1  0
 10 12  1  0
 10 11  1  6
 11  5  1  0
 12 18  1  0
 13 12  2  0
 15 14  1  6
 15 16  1  0
 17 18  1  1
 17 19  1  0
 17 15  1  0
 19 21  2  0
 19 20  1  0
M  END
$$$$
