CVT.pdb
     RDKit          3D

 21 20  0  0  1  0  0  0  0  0999 V2000
   19.9327  -21.2548  -11.5897 N   0  0  0  0  0  0  0  0  0  0  0  0
   20.8103  -21.7323  -12.6389 C   0  0  1  0  0  0  0  0  0  0  0  0
   19.9876  -21.7521  -13.9188 C   0  0  0  0  0  0  0  0  0  0  0  0
   18.8349  -23.1476  -13.9398 S   0  0  0  0  0  0  0  0  0  0  0  0
   22.0063  -20.8684  -12.7815 C   0  0  0  0  0  0  0  0  0  0  0  0
   21.8968  -19.6342  -12.6147 O   0  0  0  0  0  0  0  0  0  0  0  0
   26.9332  -20.8131  -12.9113 C   0  0  0  0  0  0  0  0  0  0  0  0
   25.5965  -21.4760  -12.6630 C   0  0  1  0  0  0  0  0  0  0  0  0
   25.4106  -21.6083  -11.1879 C   0  0  0  0  0  0  0  0  0  0  0  0
   24.4636  -20.6540  -13.2937 C   0  0  2  0  0  0  0  0  0  0  0  0
   23.2525  -21.4237  -13.1004 N   0  0  0  0  0  0  0  0  0  0  0  0
   24.7108  -20.4458  -14.7297 C   0  0  0  0  0  0  0  0  0  0  0  0
   24.9006  -21.4276  -15.4935 O   0  0  0  0  0  0  0  0  0  0  0  0
   22.4710  -18.8477  -17.3843 C   0  0  0  0  0  0  0  0  0  0  0  0
   23.7963  -18.1684  -17.3870 C   0  0  1  0  0  0  0  0  0  0  0  0
   23.7314  -16.9548  -16.7144 O   0  0  0  0  0  0  0  0  0  0  0  0
   24.9038  -18.9739  -16.7713 C   0  0  2  0  0  0  0  0  0  0  0  0
   24.7525  -19.1537  -15.3447 N   0  0  0  0  0  0  0  0  0  0  0  0
   26.2496  -18.4224  -17.1098 C   0  0  0  0  0  0  0  0  0  0  0  0
   26.7820  -18.4882  -18.3738 O   0  0  0  0  0  0  0  0  0  0  0  0
   26.9032  -17.8812  -16.1873 O   0  0  0  0  0  0  0  0  0  0  0  0
  2  1  1  1
  2  3  1  0
  3  4  1  0
  5  2  1  0
  6  5  2  0
  8 10  1  0
  8  7  1  1
  9  8  1  0
 10 12  1  0
 10 11  1  6
 11  5  1  0
 12 18  1  0
 13 12  2  0
 15 14  1  1
 15 16  1  0
 17 18  1  1
 17 19  1  0
 17 15  1  0
 19 21  2  0
 19 20  1  0
M  END
$$$$
