TRV.pdb
     RDKit          3D

 26 25  0  0  1  0  0  0  0  0999 V2000
   27.6650  -19.6816  -17.9183 C   0  0  0  0  0  0  0  0  0  0  0  0
   28.1118  -21.0428  -18.4077 C   0  0  1  0  0  0  0  0  0  0  0  0
   29.1469  -20.9757  -19.3162 O   0  0  0  0  0  0  0  0  0  0  0  0
   28.4456  -21.8830  -17.2103 C   0  0  2  0  0  0  0  0  0  0  0  0
   28.8362  -23.2215  -17.5180 N   0  0  0  0  0  0  0  0  0  0  0  0
   27.3476  -21.8475  -16.1912 C   0  0  0  0  0  0  0  0  0  0  0  0
   26.2693  -22.4350  -16.4334 O   0  0  0  0  0  0  0  0  0  0  0  0
   23.3948  -20.7989  -10.3398 N   0  0  0  0  0  0  0  0  0  0  0  0
   24.1542  -20.9487   -9.1089 C   0  0  0  0  0  0  0  0  0  0  0  0
   23.5686  -21.2645   -8.0410 N   0  0  0  0  0  0  0  0  0  0  0  0
   25.5554  -20.7391   -9.1239 N   0  0  0  0  0  0  0  0  0  0  0  0
   26.3456  -20.3109  -10.2133 C   0  0  0  0  0  0  0  0  0  0  0  0
   25.8224  -20.4958  -11.5954 C   0  0  0  0  0  0  0  0  0  0  0  0
   26.9526  -20.7445  -12.6182 C   0  0  0  0  0  0  0  0  0  0  0  0
   26.4798  -21.0116  -13.9897 C   0  0  2  0  0  0  0  0  0  0  0  0
   27.5123  -21.1648  -14.9700 N   0  0  0  0  0  0  0  0  0  0  0  0
   25.3954  -20.0604  -14.4178 C   0  0  0  0  0  0  0  0  0  0  0  0
   25.5757  -18.8264  -14.4392 O   0  0  0  0  0  0  0  0  0  0  0  0
   23.9404  -21.3907   -7.1287 C   0  0  0  0  0  0  0  0  0  0  0  0
   23.6483  -19.8152  -17.6248 C   0  0  2  0  0  0  0  0  0  0  0  0
   22.5400  -19.9370  -16.6001 C   0  0  0  0  0  0  0  0  0  0  0  0
   22.0666  -21.3874  -16.6548 C   0  0  2  0  0  0  0  0  0  0  0  0
   23.0457  -19.6289  -15.2053 N   0  0  0  0  0  0  0  0  0  0  0  0
   24.1162  -20.5250  -14.8178 C   0  0  0  0  0  0  0  0  0  0  0  0
   21.9483  -19.7695  -14.2459 O   0  0  0  0  0  0  0  0  0  0  0  0
   21.9180  -20.7045  -13.3926 O   0  0  0  0  0  0  0  0  0  0  0  0
  2  1  1  1
  2  3  1  0
  4  6  1  0
  4  2  1  0
  4  5  1  6
  6  7  2  0
  9 11  1  0
  9  8  1  0
 10  9  2  0
 12 11  1  0
 13 12  1  0
 15 14  1  1
 14 13  1  0
 16  6  1  0
 16 15  1  0
 17 15  1  0
 17 18  2  0
 20 19  1  6
 20 22  1  0
 21 20  1  0
 22 23  1  1
 22 24  1  0
 23 17  1  0
 24 26  1  0
 25 24  2  0
M  END
$$$$
