TRV.pdb
     RDKit          3D

 26 25  0  0  1  0  0  0  0  0999 V2000
   25.3350  -10.3918  -14.8098 C   0  0  0  0  0  0  0  0  0  0  0  0
   25.5596  -11.1264  -16.1144 C   0  0  1  0  0  0  0  0  0  0  0  0
   26.5041  -12.1260  -16.0142 O   0  0  0  0  0  0  0  0  0  0  0  0
   24.2328  -11.6296  -16.6012 C   0  0  2  0  0  0  0  0  0  0  0  0
   24.3060  -12.4689  -17.7541 N   0  0  0  0  0  0  0  0  0  0  0  0
   23.2573  -10.5085  -16.7941 C   0  0  0  0  0  0  0  0  0  0  0  0
   23.3538   -9.7818  -17.8085 O   0  0  0  0  0  0  0  0  0  0  0  0
   17.1895  -13.6078  -14.6356 N   0  0  0  0  0  0  0  0  0  0  0  0
   17.2739  -13.6959  -16.0845 C   0  0  0  0  0  0  0  0  0  0  0  0
   17.0292  -14.7847  -16.6655 N   0  0  0  0  0  0  0  0  0  0  0  0
   17.6304  -12.5472  -16.8335 N   0  0  0  0  0  0  0  0  0  0  0  0
   18.0864  -11.3071  -16.3347 C   0  0  0  0  0  0  0  0  0  0  0  0
   19.5406  -10.9944  -16.4105 C   0  0  0  0  0  0  0  0  0  0  0  0
   19.8724   -9.6136  -15.8035 C   0  0  0  0  0  0  0  0  0  0  0  0
   21.2805   -9.2043  -15.9639 C   0  0  2  0  0  0  0  0  0  0  0  0
   22.2381  -10.2631  -15.8531 N   0  0  0  0  0  0  0  0  0  0  0  0
   21.6277   -8.0038  -15.1260 C   0  0  0  0  0  0  0  0  0  0  0  0
   22.0225   -8.1175  -13.9482 O   0  0  0  0  0  0  0  0  0  0  0  0
   17.0890  -15.0150  -17.6298 C   0  0  0  0  0  0  0  0  0  0  0  0
   22.6240   -3.1675  -14.7695 C   0  0  2  0  0  0  0  0  0  0  0  0
   22.4524   -4.4182  -15.6058 C   0  0  0  0  0  0  0  0  0  0  0  0
   23.8600   -4.8847  -15.9687 C   0  0  1  0  0  0  0  0  0  0  0  0
   21.7506   -5.5097  -14.8234 N   0  0  0  0  0  0  0  0  0  0  0  0
   21.5220   -6.6854  -15.6386 C   0  0  0  0  0  0  0  0  0  0  0  0
   20.4582   -5.0140  -14.3455 O   0  0  0  0  0  0  0  0  0  0  0  0
   19.3725   -5.2934  -14.9340 O   0  0  0  0  0  0  0  0  0  0  0  0
  2  1  1  1
  2  3  1  0
  4  6  1  0
  4  2  1  0
  4  5  1  6
  6  7  2  0
  9 11  1  0
  9  8  1  0
 10  9  2  0
 12 11  1  0
 13 12  1  0
 15 14  1  1
 14 13  1  0
 16  6  1  0
 16 15  1  0
 17 15  1  0
 17 18  2  0
 20 19  1  6
 20 22  1  0
 21 20  1  0
 22 23  1  6
 22 24  1  0
 23 17  1  0
 24 26  1  0
 25 24  2  0
M  END
$$$$
