TRV.pdb
     RDKit          3D

 26 25  0  0  1  0  0  0  0  0999 V2000
   20.3754  -27.6249   -9.9043 C   0  0  0  0  0  0  0  0  0  0  0  0
   19.3976  -27.4932  -11.0526 C   0  0  1  0  0  0  0  0  0  0  0  0
   19.0760  -26.1833  -11.3389 O   0  0  0  0  0  0  0  0  0  0  0  0
   19.9649  -28.2222  -12.2348 C   0  0  2  0  0  0  0  0  0  0  0  0
   19.1930  -28.1010  -13.4298 N   0  0  0  0  0  0  0  0  0  0  0  0
   20.2573  -29.6551  -11.9079 C   0  0  0  0  0  0  0  0  0  0  0  0
   19.3057  -30.4472  -11.7257 O   0  0  0  0  0  0  0  0  0  0  0  0
   26.6891  -34.6663  -14.9418 N   0  0  0  0  0  0  0  0  0  0  0  0
   25.5669  -33.8263  -15.3282 C   0  0  0  0  0  0  0  0  0  0  0  0
   25.4599  -33.4234  -16.5153 N   0  0  0  0  0  0  0  0  0  0  0  0
   24.5969  -33.4692  -14.3591 N   0  0  0  0  0  0  0  0  0  0  0  0
   24.4781  -33.9665  -13.0427 C   0  0  0  0  0  0  0  0  0  0  0  0
   23.3405  -33.5027  -12.2006 C   0  0  0  0  0  0  0  0  0  0  0  0
   23.0417  -32.0006  -12.4006 C   0  0  0  0  0  0  0  0  0  0  0  0
   21.9388  -31.4866  -11.5667 C   0  0  2  0  0  0  0  0  0  0  0  0
   21.5831  -30.1199  -11.8036 N   0  0  0  0  0  0  0  0  0  0  0  0
   22.1271  -31.8035  -10.1079 C   0  0  0  0  0  0  0  0  0  0  0  0
   22.8810  -31.1258   -9.3811 O   0  0  0  0  0  0  0  0  0  0  0  0
   26.0616  -33.5730  -17.2912 C   0  0  0  0  0  0  0  0  0  0  0  0
   19.2106  -34.0908   -8.0303 C   0  0  2  0  0  0  0  0  0  0  0  0
   20.1559  -33.0767   -7.4212 C   0  0  0  0  0  0  0  0  0  0  0  0
   20.2779  -33.4415   -5.9438 C   0  0  1  0  0  0  0  0  0  0  0  0
   21.5248  -33.1452   -8.0673 N   0  0  0  0  0  0  0  0  0  0  0  0
   21.4542  -32.8895   -9.4916 C   0  0  0  0  0  0  0  0  0  0  0  0
   22.0966  -34.4773   -7.8596 O   0  0  0  0  0  0  0  0  0  0  0  0
   22.1632  -35.3322   -8.7911 O   0  0  0  0  0  0  0  0  0  0  0  0
  2  1  1  1
  2  3  1  0
  4  6  1  0
  4  2  1  0
  4  5  1  6
  6  7  2  0
  9 11  1  0
  9  8  1  0
 10  9  2  0
 12 11  1  0
 13 12  1  0
 15 14  1  6
 14 13  1  0
 16  6  1  0
 16 15  1  0
 17 15  1  0
 17 18  2  0
 20 19  1  1
 20 22  1  0
 21 20  1  0
 22 23  1  6
 22 24  1  0
 23 17  1  0
 24 26  1  0
 25 24  2  0
M  END
$$$$
