TRV.pdb
     RDKit          3D

 26 25  0  0  1  0  0  0  0  0999 V2000
   27.6374  -22.8736  -18.0468 C   0  0  0  0  0  0  0  0  0  0  0  0
   27.8577  -24.3710  -18.0817 C   0  0  1  0  0  0  0  0  0  0  0  0
   29.0480  -24.7266  -18.6801 O   0  0  0  0  0  0  0  0  0  0  0  0
   27.7346  -24.8938  -16.6808 C   0  0  2  0  0  0  0  0  0  0  0  0
   27.8841  -26.3089  -16.5630 N   0  0  0  0  0  0  0  0  0  0  0  0
   26.4762  -24.4137  -16.0241 C   0  0  0  0  0  0  0  0  0  0  0  0
   25.3988  -25.0049  -16.2611 O   0  0  0  0  0  0  0  0  0  0  0  0
   22.5095  -19.2802  -11.8915 N   0  0  0  0  0  0  0  0  0  0  0  0
   22.4281  -19.9439  -10.6004 C   0  0  0  0  0  0  0  0  0  0  0  0
   21.5141  -19.6395   -9.7912 N   0  0  0  0  0  0  0  0  0  0  0  0
   23.3831  -20.9353  -10.2644 N   0  0  0  0  0  0  0  0  0  0  0  0
   24.4776  -21.3693  -11.0443 C   0  0  0  0  0  0  0  0  0  0  0  0
   24.2373  -21.7658  -12.4597 C   0  0  0  0  0  0  0  0  0  0  0  0
   25.5301  -22.2384  -13.1602 C   0  0  0  0  0  0  0  0  0  0  0  0
   25.3222  -22.7683  -14.5210 C   0  0  2  0  0  0  0  0  0  0  0  0
   26.4899  -23.3111  -15.1475 N   0  0  0  0  0  0  0  0  0  0  0  0
   24.5719  -21.8069  -15.4023 C   0  0  0  0  0  0  0  0  0  0  0  0
   25.0700  -20.7216  -15.7627 O   0  0  0  0  0  0  0  0  0  0  0  0
   21.3369  -19.9853   -8.8772 C   0  0  0  0  0  0  0  0  0  0  0  0
   20.4682  -22.4705  -17.3271 C   0  0  2  0  0  0  0  0  0  0  0  0
   21.7821  -21.8915  -17.8083 C   0  0  0  0  0  0  0  0  0  0  0  0
   21.4301  -20.8912  -18.9067 C   0  0  1  0  0  0  0  0  0  0  0  0
   22.5068  -21.1707  -16.6898 N   0  0  0  0  0  0  0  0  0  0  0  0
   23.2615  -22.0919  -15.8647 C   0  0  0  0  0  0  0  0  0  0  0  0
   21.5328  -20.4768  -15.8445 O   0  0  0  0  0  0  0  0  0  0  0  0
   21.1820  -19.2808  -16.0670 O   0  0  0  0  0  0  0  0  0  0  0  0
  2  1  1  1
  2  3  1  0
  4  6  1  0
  4  2  1  0
  4  5  1  6
  6  7  2  0
  9 11  1  0
  9  8  1  0
 10  9  2  0
 12 11  1  0
 13 12  1  0
 15 14  1  1
 14 13  1  0
 16  6  1  0
 16 15  1  0
 17 15  1  0
 17 18  2  0
 20 19  1  6
 20 22  1  0
 21 20  1  0
 22 23  1  6
 22 24  1  0
 23 17  1  0
 24 26  1  0
 25 24  2  0
M  END
$$$$
