TRV.pdb
     RDKit          3D

 26 25  0  0  1  0  0  0  0  0999 V2000
   21.0914  -20.5118   -8.7323 C   0  0  0  0  0  0  0  0  0  0  0  0
   20.5307  -21.8923   -8.4641 C   0  0  1  0  0  0  0  0  0  0  0  0
   20.1349  -22.0680   -7.1550 O   0  0  0  0  0  0  0  0  0  0  0  0
   19.4222  -22.1443   -9.4432 C   0  0  2  0  0  0  0  0  0  0  0  0
   18.7072  -23.3610   -9.2259 N   0  0  0  0  0  0  0  0  0  0  0  0
   19.9027  -22.0301  -10.8580 C   0  0  0  0  0  0  0  0  0  0  0  0
   20.4647  -23.0115  -11.3941 O   0  0  0  0  0  0  0  0  0  0  0  0
   17.2577  -17.3756  -17.8951 N   0  0  0  0  0  0  0  0  0  0  0  0
   17.1267  -18.7732  -17.5160 C   0  0  0  0  0  0  0  0  0  0  0  0
   16.1621  -19.4561  -17.9473 N   0  0  0  0  0  0  0  0  0  0  0  0
   18.0939  -19.3575  -16.6611 N   0  0  0  0  0  0  0  0  0  0  0  0
   19.1983  -18.7191  -16.0548 C   0  0  0  0  0  0  0  0  0  0  0  0
   20.0915  -19.5178  -15.1701 C   0  0  0  0  0  0  0  0  0  0  0  0
   19.4572  -19.7821  -13.7869 C   0  0  0  0  0  0  0  0  0  0  0  0
   20.2878  -20.6047  -12.8873 C   0  0  2  0  0  0  0  0  0  0  0  0
   19.7307  -20.8382  -11.5890 N   0  0  0  0  0  0  0  0  0  0  0  0
   21.7178  -20.1389  -12.8414 C   0  0  0  0  0  0  0  0  0  0  0  0
   22.0362  -19.0472  -12.3288 O   0  0  0  0  0  0  0  0  0  0  0  0
   15.9387  -20.4099  -17.7838 C   0  0  0  0  0  0  0  0  0  0  0  0
   25.0193  -22.8495  -13.5270 C   0  0  2  0  0  0  0  0  0  0  0  0
   25.0300  -21.5831  -12.6968 C   0  0  0  0  0  0  0  0  0  0  0  0
   26.4789  -21.1026  -12.6712 C   0  0  1  0  0  0  0  0  0  0  0  0
   24.1590  -20.5111  -13.3197 N   0  0  0  0  0  0  0  0  0  0  0  0
   22.7710  -20.9219  -13.3797 C   0  0  0  0  0  0  0  0  0  0  0  0
   24.6236  -20.2344  -14.6807 O   0  0  0  0  0  0  0  0  0  0  0  0
   23.9599  -20.5835  -15.7008 O   0  0  0  0  0  0  0  0  0  0  0  0
  2  1  1  1
  2  3  1  0
  4  6  1  0
  4  2  1  0
  4  5  1  6
  6  7  2  0
  9 11  1  0
  9  8  1  0
 10  9  2  0
 12 11  1  0
 13 12  1  0
 15 14  1  1
 14 13  1  0
 16  6  1  0
 16 15  1  0
 17 15  1  0
 17 18  2  0
 20 19  1  1
 20 22  1  0
 21 20  1  0
 22 23  1  1
 22 24  1  0
 23 17  1  0
 24 26  1  0
 25 24  2  0
M  END
$$$$
