TRV.pdb
     RDKit          3D

 26 25  0  0  1  0  0  0  0  0999 V2000
   18.9247   -5.3900  -17.2643 C   0  0  0  0  0  0  0  0  0  0  0  0
   18.2654   -4.7694  -16.0510 C   0  0  1  0  0  0  0  0  0  0  0  0
   17.7146   -3.5323  -16.3108 O   0  0  0  0  0  0  0  0  0  0  0  0
   17.2638   -5.7479  -15.5123 C   0  0  2  0  0  0  0  0  0  0  0  0
   16.4747   -5.2508  -14.4311 N   0  0  0  0  0  0  0  0  0  0  0  0
   17.9048   -7.0590  -15.1724 C   0  0  0  0  0  0  0  0  0  0  0  0
   18.4520   -7.2008  -14.0557 O   0  0  0  0  0  0  0  0  0  0  0  0
   15.7369  -15.1813  -17.5199 N   0  0  0  0  0  0  0  0  0  0  0  0
   15.3392  -14.1583  -16.5663 C   0  0  0  0  0  0  0  0  0  0  0  0
   14.1683  -14.1458  -16.1062 N   0  0  0  0  0  0  0  0  0  0  0  0
   16.2805  -13.1805  -16.1593 N   0  0  0  0  0  0  0  0  0  0  0  0
   17.6286  -13.0684  -16.5651 C   0  0  0  0  0  0  0  0  0  0  0  0
   18.4371  -11.9242  -16.0596 C   0  0  0  0  0  0  0  0  0  0  0  0
   17.7253  -10.5697  -16.2697 C   0  0  0  0  0  0  0  0  0  0  0  0
   18.5151   -9.3986  -15.8448 C   0  0  2  0  0  0  0  0  0  0  0  0
   17.8996   -8.1288  -16.0888 N   0  0  0  0  0  0  0  0  0  0  0  0
   19.9409   -9.4651  -16.3210 C   0  0  0  0  0  0  0  0  0  0  0  0
   20.2474   -9.2378  -17.5085 O   0  0  0  0  0  0  0  0  0  0  0  0
   13.6942  -13.4340  -15.6012 C   0  0  0  0  0  0  0  0  0  0  0  0
   22.9613   -8.2156  -13.9783 C   0  0  2  0  0  0  0  0  0  0  0  0
   23.3163   -9.5108  -14.6779 C   0  0  0  0  0  0  0  0  0  0  0  0
   23.1398  -10.6174  -13.6411 C   0  0  2  0  0  0  0  0  0  0  0  0
   22.3925   -9.7726  -15.8501 N   0  0  0  0  0  0  0  0  0  0  0  0
   21.0034   -9.7896  -15.4390 C   0  0  0  0  0  0  0  0  0  0  0  0
   22.7185  -11.0687  -16.4487 O   0  0  0  0  0  0  0  0  0  0  0  0
   21.9901  -12.0900  -16.2768 O   0  0  0  0  0  0  0  0  0  0  0  0
  2  1  1  6
  2  3  1  0
  4  6  1  0
  4  2  1  0
  4  5  1  1
  6  7  2  0
  9 11  1  0
  9  8  1  0
 10  9  2  0
 12 11  1  0
 13 12  1  0
 15 14  1  6
 14 13  1  0
 16  6  1  0
 16 15  1  0
 17 15  1  0
 17 18  2  0
 20 19  1  1
 20 22  1  0
 21 20  1  0
 22 23  1  6
 22 24  1  0
 23 17  1  0
 24 26  1  0
 25 24  2  0
M  END
$$$$
