TMY.pdb
     RDKit          3D

 28 28  0  0  1  0  0  0  0  0999 V2000
    6.6715  -20.2842   22.2695 C   0  0  0  0  0  0  0  0  0  0  0  0
    7.4531  -19.0424   22.6289 C   0  0  1  0  0  0  0  0  0  0  0  0
    8.8049  -19.2133   22.4300 O   0  0  0  0  0  0  0  0  0  0  0  0
    6.8914  -17.8220   21.9513 C   0  0  2  0  0  0  0  0  0  0  0  0
    6.9766  -17.9536   20.4990 N   0  0  0  0  0  0  0  0  0  0  0  0
    7.6577  -16.6289   22.3551 C   0  0  0  0  0  0  0  0  0  0  0  0
    8.5077  -16.1582   21.5674 O   0  0  0  0  0  0  0  0  0  0  0  0
    6.5334  -11.1694   26.6407 C   0  0  0  0  0  0  0  0  0  0  0  0
    5.6427  -12.7135   26.4133 S   0  0  0  0  0  0  0  0  0  0  0  0
    6.1350  -13.5287   24.8345 C   0  0  0  0  0  0  0  0  0  0  0  0
    7.5067  -14.0835   25.0930 C   0  0  0  0  0  0  0  0  0  0  0  0
    8.1363  -14.7375   23.9121 C   0  0  2  0  0  0  0  0  0  0  0  0
    7.4687  -15.9935   23.6024 N   0  0  0  0  0  0  0  0  0  0  0  0
    9.5987  -14.9417   24.0352 C   0  0  0  0  0  0  0  0  0  0  0  0
   10.4599  -14.0976   23.6988 O   0  0  0  0  0  0  0  0  0  0  0  0
   10.0709  -16.0466   30.9651 O   0  0  0  0  0  0  0  0  0  0  0  0
   10.5748  -15.8756   29.6863 C   0  0  0  0  0  0  0  0  0  0  0  0
   10.5381  -14.6437   29.0709 C   0  0  0  0  0  0  0  0  0  0  0  0
   11.0506  -14.4968   27.7857 C   0  0  0  0  0  0  0  0  0  0  0  0
   11.6009  -15.5603   27.1010 C   0  0  0  0  0  0  0  0  0  0  0  0
   12.1384  -15.3864   25.7417 C   0  0  0  0  0  0  0  0  0  0  0  0
   11.5591  -16.3698   24.7493 C   0  0  2  0  0  0  0  0  0  0  0  0
   10.1372  -16.1692   24.5691 N   0  0  0  0  0  0  0  0  0  0  0  0
   11.8640  -17.7768   25.1102 C   0  0  0  0  0  0  0  0  0  0  0  0
   12.9878  -18.1906   25.4172 O   0  0  0  0  0  0  0  0  0  0  0  0
   11.6213  -16.7784   27.7471 C   0  0  0  0  0  0  0  0  0  0  0  0
   11.1191  -16.9491   29.0217 C   0  0  0  0  0  0  0  0  0  0  0  0
   10.8182  -18.6905   25.1030 O   0  0  0  0  0  0  0  0  0  0  0  0
  2  1  1  6
  2  4  1  0
  3  2  1  0
  4  6  1  0
  4  5  1  6
  6  7  2  0
  9  8  1  0
 10  9  1  0
 11 10  1  0
 12 11  1  1
 13 12  1  0
 13  6  1  0
 14 15  2  0
 14 12  1  0
 16 17  1  0
 17 27  2  0
 17 18  1  0
 18 19  2  0
 19 20  1  0
 20 21  1  0
 22 21  1  1
 22 23  1  0
 22 24  1  0
 23 14  1  0
 24 28  1  0
 25 24  2  0
 26 20  2  0
 27 26  1  0
M  END
$$$$
