TMY.pdb
     RDKit          3D

 28 28  0  0  1  0  0  0  0  0999 V2000
    7.6023  -19.8770   19.9388 C   0  0  0  0  0  0  0  0  0  0  0  0
    8.0770  -18.6955   20.7518 C   0  0  1  0  0  0  0  0  0  0  0  0
    9.3892  -18.8386   21.1442 O   0  0  0  0  0  0  0  0  0  0  0  0
    7.7935  -17.3944   20.0512 C   0  0  2  0  0  0  0  0  0  0  0  0
    8.4919  -17.3364   18.7695 N   0  0  0  0  0  0  0  0  0  0  0  0
    8.2551  -16.2680   20.8829 C   0  0  0  0  0  0  0  0  0  0  0  0
    9.3646  -15.7457   20.6358 O   0  0  0  0  0  0  0  0  0  0  0  0
    6.4579  -11.6729   27.1243 C   0  0  0  0  0  0  0  0  0  0  0  0
    6.0879  -12.9932   25.9628 S   0  0  0  0  0  0  0  0  0  0  0  0
    7.4234  -13.1509   24.7014 C   0  0  0  0  0  0  0  0  0  0  0  0
    7.0091  -14.3073   23.8370 C   0  0  0  0  0  0  0  0  0  0  0  0
    7.9986  -14.6721   22.7850 C   0  0  2  0  0  0  0  0  0  0  0  0
    7.4901  -15.7529   21.9527 N   0  0  0  0  0  0  0  0  0  0  0  0
    9.3462  -15.0042   23.3036 C   0  0  0  0  0  0  0  0  0  0  0  0
   10.3741  -14.3238   23.0846 O   0  0  0  0  0  0  0  0  0  0  0  0
   11.1719  -16.7804   31.5152 O   0  0  0  0  0  0  0  0  0  0  0  0
   10.9610  -16.3762   30.2072 C   0  0  0  0  0  0  0  0  0  0  0  0
   10.3208  -17.1996   29.3074 C   0  0  0  0  0  0  0  0  0  0  0  0
   10.1206  -16.7713   27.9987 C   0  0  0  0  0  0  0  0  0  0  0  0
   10.5490  -15.5322   27.5702 C   0  0  0  0  0  0  0  0  0  0  0  0
   10.3286  -15.0957   26.1817 C   0  0  0  0  0  0  0  0  0  0  0  0
   10.5552  -16.2008   25.1741 C   0  0  2  0  0  0  0  0  0  0  0  0
    9.5627  -16.1730   24.1213 N   0  0  0  0  0  0  0  0  0  0  0  0
   10.6257  -17.5380   25.8142 C   0  0  0  0  0  0  0  0  0  0  0  0
    9.7485  -18.4041   25.7196 O   0  0  0  0  0  0  0  0  0  0  0  0
   11.1859  -14.7342   28.4972 C   0  0  0  0  0  0  0  0  0  0  0  0
   11.3962  -15.1369   29.8009 C   0  0  0  0  0  0  0  0  0  0  0  0
   11.7515  -17.8378   26.5701 O   0  0  0  0  0  0  0  0  0  0  0  0
  2  1  1  6
  2  4  1  0
  3  2  1  0
  4  6  1  0
  4  5  1  6
  6  7  2  0
  9  8  1  0
 10  9  1  0
 11 10  1  0
 12 11  1  1
 13 12  1  0
 13  6  1  0
 14 15  2  0
 14 12  1  0
 16 17  1  0
 17 27  2  0
 17 18  1  0
 18 19  2  0
 19 20  1  0
 20 21  1  0
 22 21  1  1
 22 23  1  0
 22 24  1  0
 23 14  1  0
 24 28  1  0
 25 24  2  0
 26 20  2  0
 27 26  1  0
M  END
$$$$
