TMY.pdb
     RDKit          3D

 28 28  0  0  1  0  0  0  0  0999 V2000
    9.2127  -14.9945   18.3467 C   0  0  0  0  0  0  0  0  0  0  0  0
    7.7272  -15.0208   18.6204 C   0  0  1  0  0  0  0  0  0  0  0  0
    7.3210  -16.2371   19.1222 O   0  0  0  0  0  0  0  0  0  0  0  0
    7.3002  -13.8470   19.4593 C   0  0  2  0  0  0  0  0  0  0  0  0
    7.6101  -12.5900   18.7826 N   0  0  0  0  0  0  0  0  0  0  0  0
    8.0144  -13.8682   20.7490 C   0  0  0  0  0  0  0  0  0  0  0  0
    9.1874  -13.4371   20.8005 O   0  0  0  0  0  0  0  0  0  0  0  0
    6.2125  -11.0716   26.5215 C   0  0  0  0  0  0  0  0  0  0  0  0
    7.1201  -12.5677   26.1127 S   0  0  0  0  0  0  0  0  0  0  0  0
    6.4851  -13.3145   24.5511 C   0  0  0  0  0  0  0  0  0  0  0  0
    7.3104  -14.5527   24.3470 C   0  0  0  0  0  0  0  0  0  0  0  0
    8.2024  -14.5057   23.1550 C   0  0  2  0  0  0  0  0  0  0  0  0
    7.4230  -14.3588   21.9343 N   0  0  0  0  0  0  0  0  0  0  0  0
    9.1331  -15.6533   23.0436 C   0  0  0  0  0  0  0  0  0  0  0  0
    8.8242  -16.7687   22.5662 O   0  0  0  0  0  0  0  0  0  0  0  0
   11.0263  -16.4865   31.2257 O   0  0  0  0  0  0  0  0  0  0  0  0
   10.7752  -16.1482   29.9063 C   0  0  0  0  0  0  0  0  0  0  0  0
   10.2938  -17.0826   29.0161 C   0  0  0  0  0  0  0  0  0  0  0  0
   10.0493  -16.7187   27.6955 C   0  0  0  0  0  0  0  0  0  0  0  0
   10.2773  -15.4349   27.2455 C   0  0  0  0  0  0  0  0  0  0  0  0
   10.0130  -15.0677   25.8447 C   0  0  0  0  0  0  0  0  0  0  0  0
   10.8794  -15.8260   24.8638 C   0  0  2  0  0  0  0  0  0  0  0  0
   10.4997  -15.5507   23.4947 N   0  0  0  0  0  0  0  0  0  0  0  0
   10.8921  -17.2847   25.1373 C   0  0  0  0  0  0  0  0  0  0  0  0
   11.8863  -17.9154   25.5146 O   0  0  0  0  0  0  0  0  0  0  0  0
   10.7592  -14.5255   28.1633 C   0  0  0  0  0  0  0  0  0  0  0  0
   11.0094  -14.8626   29.4785 C   0  0  0  0  0  0  0  0  0  0  0  0
    9.7090  -17.9895   24.9579 O   0  0  0  0  0  0  0  0  0  0  0  0
  2  1  1  1
  2  4  1  0
  3  2  1  0
  4  6  1  0
  4  5  1  6
  6  7  2  0
  9  8  1  0
 10  9  1  0
 11 10  1  0
 12 11  1  1
 13 12  1  0
 13  6  1  0
 14 15  2  0
 14 12  1  0
 16 17  1  0
 17 27  2  0
 17 18  1  0
 18 19  2  0
 19 20  1  0
 20 21  1  0
 22 21  1  1
 22 23  1  0
 22 24  1  0
 23 14  1  0
 24 28  1  0
 25 24  2  0
 26 20  2  0
 27 26  1  0
M  END
$$$$
