TMY.pdb
     RDKit          3D

 28 28  0  0  1  0  0  0  0  0999 V2000
   12.4273  -18.0706   13.8170 C   0  0  0  0  0  0  0  0  0  0  0  0
   12.3142  -17.3786   15.1552 C   0  0  1  0  0  0  0  0  0  0  0  0
   13.3993  -17.6425   15.9608 O   0  0  0  0  0  0  0  0  0  0  0  0
   12.0225  -15.9113   14.9943 C   0  0  2  0  0  0  0  0  0  0  0  0
   13.1422  -15.2312   14.3481 N   0  0  0  0  0  0  0  0  0  0  0  0
   11.8068  -15.2966   16.3169 C   0  0  0  0  0  0  0  0  0  0  0  0
   12.7930  -14.8643   16.9535 O   0  0  0  0  0  0  0  0  0  0  0  0
    6.4146  -11.9278   18.7026 C   0  0  0  0  0  0  0  0  0  0  0  0
    6.8549  -13.2653   19.8191 S   0  0  0  0  0  0  0  0  0  0  0  0
    8.6717  -13.5774   19.7851 C   0  0  0  0  0  0  0  0  0  0  0  0
    8.9347  -14.2057   18.4464 C   0  0  0  0  0  0  0  0  0  0  0  0
   10.3525  -14.6045   18.2239 C   0  0  2  0  0  0  0  0  0  0  0  0
   10.5242  -15.1761   16.8961 N   0  0  0  0  0  0  0  0  0  0  0  0
   10.8998  -15.5145   19.2573 C   0  0  0  0  0  0  0  0  0  0  0  0
   10.9013  -16.7633   19.1687 O   0  0  0  0  0  0  0  0  0  0  0  0
   17.1510  -15.0747   17.4996 O   0  0  0  0  0  0  0  0  0  0  0  0
   16.2616  -15.1372   18.5597 C   0  0  0  0  0  0  0  0  0  0  0  0
   16.2049  -16.2495   19.3702 C   0  0  0  0  0  0  0  0  0  0  0  0
   15.3031  -16.2888   20.4291 C   0  0  0  0  0  0  0  0  0  0  0  0
   14.4539  -15.2349   20.6947 C   0  0  0  0  0  0  0  0  0  0  0  0
   13.5059  -15.2940   21.8195 C   0  0  0  0  0  0  0  0  0  0  0  0
   12.1576  -15.8538   21.4241 C   0  0  2  0  0  0  0  0  0  0  0  0
   11.4845  -14.9978   20.4708 N   0  0  0  0  0  0  0  0  0  0  0  0
   11.2977  -16.1306   22.6018 C   0  0  0  0  0  0  0  0  0  0  0  0
   10.1665  -15.6595   22.7661 O   0  0  0  0  0  0  0  0  0  0  0  0
   14.5376  -14.1378   19.8634 C   0  0  0  0  0  0  0  0  0  0  0  0
   15.4239  -14.0753   18.8068 C   0  0  0  0  0  0  0  0  0  0  0  0
   11.7957  -16.9750   23.5855 O   0  0  0  0  0  0  0  0  0  0  0  0
  2  1  1  6
  2  4  1  0
  3  2  1  0
  4  6  1  0
  4  5  1  1
  6  7  2  0
  9  8  1  0
 10  9  1  0
 11 10  1  0
 12 11  1  1
 13 12  1  0
 13  6  1  0
 14 15  2  0
 14 12  1  0
 16 17  1  0
 17 27  2  0
 17 18  1  0
 18 19  2  0
 19 20  1  0
 20 21  1  0
 22 21  1  1
 22 23  1  0
 22 24  1  0
 23 14  1  0
 24 28  1  0
 25 24  2  0
 26 20  2  0
 27 26  1  0
M  END
$$$$
