TMY.pdb
     RDKit          3D

 28 28  0  0  1  0  0  0  0  0999 V2000
    9.1216  -18.4800   20.1508 C   0  0  0  0  0  0  0  0  0  0  0  0
    9.3923  -17.8426   21.4934 C   0  0  1  0  0  0  0  0  0  0  0  0
   10.5963  -18.2531   22.0211 O   0  0  0  0  0  0  0  0  0  0  0  0
    9.2354  -16.3473   21.4356 C   0  0  2  0  0  0  0  0  0  0  0  0
   10.2160  -15.7610   20.5253 N   0  0  0  0  0  0  0  0  0  0  0  0
    9.4438  -15.7706   22.7764 C   0  0  0  0  0  0  0  0  0  0  0  0
   10.4740  -15.0951   22.9933 O   0  0  0  0  0  0  0  0  0  0  0  0
    5.6849  -12.1900   27.4799 C   0  0  0  0  0  0  0  0  0  0  0  0
    7.1185  -12.2891   26.4010 S   0  0  0  0  0  0  0  0  0  0  0  0
    6.8550  -13.5403   25.0726 C   0  0  0  0  0  0  0  0  0  0  0  0
    7.3700  -14.8304   25.6440 C   0  0  0  0  0  0  0  0  0  0  0  0
    8.6887  -15.2590   25.0999 C   0  0  2  0  0  0  0  0  0  0  0  0
    8.5214  -15.9519   23.8306 N   0  0  0  0  0  0  0  0  0  0  0  0
    9.4990  -16.0739   26.0352 C   0  0  0  0  0  0  0  0  0  0  0  0
    9.8547  -15.6960   27.1744 O   0  0  0  0  0  0  0  0  0  0  0  0
   14.3897  -16.7308   21.5155 O   0  0  0  0  0  0  0  0  0  0  0  0
   13.8452  -16.9786   22.7647 C   0  0  0  0  0  0  0  0  0  0  0  0
   13.2541  -18.1895   23.0507 C   0  0  0  0  0  0  0  0  0  0  0  0
   12.7140  -18.4148   24.3131 C   0  0  0  0  0  0  0  0  0  0  0  0
   12.7532  -17.4506   25.2987 C   0  0  0  0  0  0  0  0  0  0  0  0
   12.1766  -17.7065   26.6287 C   0  0  0  0  0  0  0  0  0  0  0  0
   10.7502  -18.2059   26.5659 C   0  0  2  0  0  0  0  0  0  0  0  0
    9.9425  -17.3992   25.6764 N   0  0  0  0  0  0  0  0  0  0  0  0
   10.1321  -18.3094   27.9112 C   0  0  0  0  0  0  0  0  0  0  0  0
    8.9439  -18.5842   28.1140 O   0  0  0  0  0  0  0  0  0  0  0  0
   13.3522  -16.2506   24.9779 C   0  0  0  0  0  0  0  0  0  0  0  0
   13.8950  -16.0034   23.7328 C   0  0  0  0  0  0  0  0  0  0  0  0
   10.9412  -18.0828   29.0170 O   0  0  0  0  0  0  0  0  0  0  0  0
  2  1  1  6
  2  4  1  0
  3  2  1  0
  4  6  1  0
  4  5  1  6
  6  7  2  0
  9  8  1  0
 10  9  1  0
 11 10  1  0
 12 11  1  1
 13 12  1  0
 13  6  1  0
 14 15  2  0
 14 12  1  0
 16 17  1  0
 17 27  2  0
 17 18  1  0
 18 19  2  0
 19 20  1  0
 20 21  1  0
 22 21  1  1
 22 23  1  0
 22 24  1  0
 23 14  1  0
 24 28  1  0
 25 24  2  0
 26 20  2  0
 27 26  1  0
M  END
$$$$
