TMY.pdb
     RDKit          3D

 28 28  0  0  1  0  0  0  0  0999 V2000
    8.1874  -20.0889   21.7617 C   0  0  0  0  0  0  0  0  0  0  0  0
    9.0620  -20.1272   20.5305 C   0  0  1  0  0  0  0  0  0  0  0  0
    8.9107  -21.3044   19.8321 O   0  0  0  0  0  0  0  0  0  0  0  0
    8.8801  -18.8951   19.6864 C   0  0  2  0  0  0  0  0  0  0  0  0
    9.6579  -18.9953   18.4540 N   0  0  0  0  0  0  0  0  0  0  0  0
    9.3392  -17.7076   20.4299 C   0  0  0  0  0  0  0  0  0  0  0  0
   10.5671  -17.4908   20.5292 O   0  0  0  0  0  0  0  0  0  0  0  0
    8.4056  -11.3818   20.5261 C   0  0  0  0  0  0  0  0  0  0  0  0
    7.2030  -12.5820   19.9410 S   0  0  0  0  0  0  0  0  0  0  0  0
    7.8582  -14.2982   20.0991 C   0  0  0  0  0  0  0  0  0  0  0  0
    8.2325  -14.4412   21.5467 C   0  0  0  0  0  0  0  0  0  0  0  0
    8.9288  -15.7157   21.8772 C   0  0  2  0  0  0  0  0  0  0  0  0
    8.4426  -16.8008   21.0373 N   0  0  0  0  0  0  0  0  0  0  0  0
    8.8616  -16.0946   23.3081 C   0  0  0  0  0  0  0  0  0  0  0  0
    8.0190  -16.8853   23.7899 O   0  0  0  0  0  0  0  0  0  0  0  0
    5.6838  -11.0828   26.3477 O   0  0  0  0  0  0  0  0  0  0  0  0
    6.3336  -12.3053   26.3065 C   0  0  0  0  0  0  0  0  0  0  0  0
    5.6672  -13.4474   25.9203 C   0  0  0  0  0  0  0  0  0  0  0  0
    6.3416  -14.6640   25.8869 C   0  0  0  0  0  0  0  0  0  0  0  0
    7.6732  -14.7621   26.2329 C   0  0  0  0  0  0  0  0  0  0  0  0
    8.3706  -16.0579   26.1916 C   0  0  0  0  0  0  0  0  0  0  0  0
    9.7819  -15.9501   25.6585 C   0  0  2  0  0  0  0  0  0  0  0  0
    9.7964  -15.5560   24.2661 N   0  0  0  0  0  0  0  0  0  0  0  0
   10.5602  -17.1952   25.8750 C   0  0  0  0  0  0  0  0  0  0  0  0
   11.1216  -17.8324   24.9766 O   0  0  0  0  0  0  0  0  0  0  0  0
    8.3088  -13.5993   26.6144 C   0  0  0  0  0  0  0  0  0  0  0  0
    7.6613  -12.3807   26.6555 C   0  0  0  0  0  0  0  0  0  0  0  0
   10.6657  -17.6777   27.1730 O   0  0  0  0  0  0  0  0  0  0  0  0
  2  1  1  1
  2  4  1  0
  3  2  1  0
  4  6  1  0
  4  5  1  6
  6  7  2  0
  9  8  1  0
 10  9  1  0
 11 10  1  0
 12 11  1  1
 13 12  1  0
 13  6  1  0
 14 15  2  0
 14 12  1  0
 16 17  1  0
 17 27  2  0
 17 18  1  0
 18 19  2  0
 19 20  1  0
 20 21  1  0
 22 21  1  6
 22 23  1  0
 22 24  1  0
 23 14  1  0
 24 28  1  0
 25 24  2  0
 26 20  2  0
 27 26  1  0
M  END
$$$$
