TMY.pdb
     RDKit          3D

 28 28  0  0  1  0  0  0  0  0999 V2000
    7.2457  -20.9322   21.4815 C   0  0  0  0  0  0  0  0  0  0  0  0
    8.0815  -19.7498   21.9124 C   0  0  1  0  0  0  0  0  0  0  0  0
    9.1592  -20.1367   22.6774 O   0  0  0  0  0  0  0  0  0  0  0  0
    8.4517  -18.8803   20.7415 C   0  0  2  0  0  0  0  0  0  0  0  0
    9.2873  -19.6168   19.7965 N   0  0  0  0  0  0  0  0  0  0  0  0
    9.2074  -17.7047   21.2111 C   0  0  0  0  0  0  0  0  0  0  0  0
   10.4509  -17.6891   21.0767 O   0  0  0  0  0  0  0  0  0  0  0  0
    7.2693  -11.6698   18.8548 C   0  0  0  0  0  0  0  0  0  0  0  0
    7.4368  -12.3026   20.5284 S   0  0  0  0  0  0  0  0  0  0  0  0
    8.5796  -13.7488   20.5718 C   0  0  0  0  0  0  0  0  0  0  0  0
    8.6144  -14.1756   22.0115 C   0  0  0  0  0  0  0  0  0  0  0  0
    9.3564  -15.4435   22.2577 C   0  0  2  0  0  0  0  0  0  0  0  0
    8.5793  -16.5900   21.8097 N   0  0  0  0  0  0  0  0  0  0  0  0
    9.7982  -15.6296   23.6597 C   0  0  0  0  0  0  0  0  0  0  0  0
   10.6847  -14.9437   24.2173 O   0  0  0  0  0  0  0  0  0  0  0  0
    5.6755  -11.5948   26.2148 O   0  0  0  0  0  0  0  0  0  0  0  0
    6.2903  -12.8299   26.3370 C   0  0  0  0  0  0  0  0  0  0  0  0
    5.6958  -13.9680   25.8383 C   0  0  0  0  0  0  0  0  0  0  0  0
    6.3331  -15.1975   25.9731 C   0  0  0  0  0  0  0  0  0  0  0  0
    7.5570  -15.3125   26.5987 C   0  0  0  0  0  0  0  0  0  0  0  0
    8.2166  -16.6217   26.7324 C   0  0  0  0  0  0  0  0  0  0  0  0
    9.4851  -16.7279   25.9154 C   0  0  2  0  0  0  0  0  0  0  0  0
    9.2125  -16.6488   24.4963 N   0  0  0  0  0  0  0  0  0  0  0  0
   10.2663  -17.9453   26.2477 C   0  0  0  0  0  0  0  0  0  0  0  0
   10.6459  -18.2417   27.3863 O   0  0  0  0  0  0  0  0  0  0  0  0
    8.1231  -14.1532   27.0859 C   0  0  0  0  0  0  0  0  0  0  0  0
    7.5104  -12.9221   26.9642 C   0  0  0  0  0  0  0  0  0  0  0  0
   10.5935  -18.8101   25.2115 O   0  0  0  0  0  0  0  0  0  0  0  0
  2  1  1  6
  2  4  1  0
  3  2  1  0
  4  6  1  0
  4  5  1  6
  6  7  2  0
  9  8  1  0
 10  9  1  0
 11 10  1  0
 12 11  1  1
 13 12  1  0
 13  6  1  0
 14 15  2  0
 14 12  1  0
 16 17  1  0
 17 27  2  0
 17 18  1  0
 18 19  2  0
 19 20  1  0
 20 21  1  0
 22 21  1  1
 22 23  1  0
 22 24  1  0
 23 14  1  0
 24 28  1  0
 25 24  2  0
 26 20  2  0
 27 26  1  0
M  END
$$$$
