TMY.pdb
     RDKit          3D

 28 28  0  0  1  0  0  0  0  0999 V2000
    6.7688  -20.8362   25.4957 C   0  0  0  0  0  0  0  0  0  0  0  0
    7.3344  -19.5330   24.9819 C   0  0  1  0  0  0  0  0  0  0  0  0
    8.5427  -19.7148   24.3468 O   0  0  0  0  0  0  0  0  0  0  0  0
    6.3250  -18.7807   24.1578 C   0  0  2  0  0  0  0  0  0  0  0  0
    6.0349  -19.4969   22.9182 N   0  0  0  0  0  0  0  0  0  0  0  0
    6.8550  -17.4492   23.8115 C   0  0  0  0  0  0  0  0  0  0  0  0
    7.3296  -17.2631   22.6693 O   0  0  0  0  0  0  0  0  0  0  0  0
    5.0174  -12.4902   26.9920 C   0  0  0  0  0  0  0  0  0  0  0  0
    6.1141  -11.5137   25.9563 S   0  0  0  0  0  0  0  0  0  0  0  0
    7.0291  -12.5901   24.7715 C   0  0  0  0  0  0  0  0  0  0  0  0
    6.6833  -13.9952   25.1739 C   0  0  0  0  0  0  0  0  0  0  0  0
    7.3047  -15.0476   24.3224 C   0  0  2  0  0  0  0  0  0  0  0  0
    6.8479  -16.3704   24.7233 N   0  0  0  0  0  0  0  0  0  0  0  0
    8.7849  -14.9998   24.2760 C   0  0  0  0  0  0  0  0  0  0  0  0
    9.4496  -13.9752   24.0011 O   0  0  0  0  0  0  0  0  0  0  0  0
   10.2696  -16.3877   30.8398 O   0  0  0  0  0  0  0  0  0  0  0  0
   10.5989  -16.0826   29.5295 C   0  0  0  0  0  0  0  0  0  0  0  0
   10.7634  -14.7753   29.1280 C   0  0  0  0  0  0  0  0  0  0  0  0
   11.0943  -14.4938   27.8061 C   0  0  0  0  0  0  0  0  0  0  0  0
   11.2646  -15.4965   26.8744 C   0  0  0  0  0  0  0  0  0  0  0  0
   11.6146  -15.1801   25.4800 C   0  0  0  0  0  0  0  0  0  0  0  0
   11.0228  -16.1570   24.4883 C   0  0  2  0  0  0  0  0  0  0  0  0
    9.5772  -16.1729   24.5547 N   0  0  0  0  0  0  0  0  0  0  0  0
   11.5852  -17.5219   24.6414 C   0  0  0  0  0  0  0  0  0  0  0  0
   12.7901  -17.7914   24.5783 O   0  0  0  0  0  0  0  0  0  0  0  0
   11.0923  -16.7933   27.3108 C   0  0  0  0  0  0  0  0  0  0  0  0
   10.7640  -17.0976   28.6168 C   0  0  0  0  0  0  0  0  0  0  0  0
   10.7000  -18.5671   24.8707 O   0  0  0  0  0  0  0  0  0  0  0  0
  2  1  1  6
  2  4  1  0
  3  2  1  0
  4  6  1  0
  4  5  1  6
  6  7  2  0
  9  8  1  0
 10  9  1  0
 11 10  1  0
 12 11  1  1
 13 12  1  0
 13  6  1  0
 14 15  2  0
 14 12  1  0
 16 17  1  0
 17 27  2  0
 17 18  1  0
 18 19  2  0
 19 20  1  0
 20 21  1  0
 22 21  1  1
 22 23  1  0
 22 24  1  0
 23 14  1  0
 24 28  1  0
 25 24  2  0
 26 20  2  0
 27 26  1  0
M  END
$$$$
