TMY.pdb
     RDKit          3D

 28 28  0  0  1  0  0  0  0  0999 V2000
    7.1081  -15.7366   17.0129 C   0  0  0  0  0  0  0  0  0  0  0  0
    7.8254  -15.5765   18.3327 C   0  0  1  0  0  0  0  0  0  0  0  0
    9.1611  -15.8959   18.2311 O   0  0  0  0  0  0  0  0  0  0  0  0
    7.5714  -14.2225   18.9377 C   0  0  2  0  0  0  0  0  0  0  0  0
    8.1337  -13.1686   18.0968 N   0  0  0  0  0  0  0  0  0  0  0  0
    8.2037  -14.1424   20.2672 C   0  0  0  0  0  0  0  0  0  0  0  0
    9.3664  -13.6908   20.3602 O   0  0  0  0  0  0  0  0  0  0  0  0
    7.0248  -12.1482   27.6389 C   0  0  0  0  0  0  0  0  0  0  0  0
    6.4755  -12.5711   25.9811 S   0  0  0  0  0  0  0  0  0  0  0  0
    7.7852  -13.4972   25.0720 C   0  0  0  0  0  0  0  0  0  0  0  0
    7.2382  -13.6872   23.6861 C   0  0  0  0  0  0  0  0  0  0  0  0
    8.1647  -14.3847   22.7513 C   0  0  2  0  0  0  0  0  0  0  0  0
    7.5447  -14.5577   21.4455 N   0  0  0  0  0  0  0  0  0  0  0  0
    8.6830  -15.6774   23.2570 C   0  0  0  0  0  0  0  0  0  0  0  0
    7.9615  -16.6408   23.6012 O   0  0  0  0  0  0  0  0  0  0  0  0
   10.4157  -15.9830   31.0659 O   0  0  0  0  0  0  0  0  0  0  0  0
   10.4791  -15.7018   29.7112 C   0  0  0  0  0  0  0  0  0  0  0  0
   10.2326  -14.4308   29.2406 C   0  0  0  0  0  0  0  0  0  0  0  0
   10.3024  -14.1729   27.8751 C   0  0  0  0  0  0  0  0  0  0  0  0
   10.6147  -15.1634   26.9674 C   0  0  0  0  0  0  0  0  0  0  0  0
   10.6840  -14.8723   25.5261 C   0  0  0  0  0  0  0  0  0  0  0  0
   10.7288  -16.1216   24.6747 C   0  0  2  0  0  0  0  0  0  0  0  0
   10.1006  -15.9117   23.3879 N   0  0  0  0  0  0  0  0  0  0  0  0
   10.1505  -17.2971   25.3722 C   0  0  0  0  0  0  0  0  0  0  0  0
    8.9943  -17.3517   25.8066 O   0  0  0  0  0  0  0  0  0  0  0  0
   10.8554  -16.4236   27.4732 C   0  0  0  0  0  0  0  0  0  0  0  0
   10.7922  -16.7040   28.8235 C   0  0  0  0  0  0  0  0  0  0  0  0
   10.9611  -18.4108   25.5493 O   0  0  0  0  0  0  0  0  0  0  0  0
  2  1  1  6
  2  4  1  0
  3  2  1  0
  4  6  1  0
  4  5  1  6
  6  7  2  0
  9  8  1  0
 10  9  1  0
 11 10  1  0
 12 11  1  1
 13 12  1  0
 13  6  1  0
 14 15  2  0
 14 12  1  0
 16 17  1  0
 17 27  2  0
 17 18  1  0
 18 19  2  0
 19 20  1  0
 20 21  1  0
 22 21  1  1
 22 23  1  0
 22 24  1  0
 23 14  1  0
 24 28  1  0
 25 24  2  0
 26 20  2  0
 27 26  1  0
M  END
$$$$
