TMY.pdb
     RDKit          3D

 28 28  0  0  1  0  0  0  0  0999 V2000
    8.9342  -18.2284   18.4440 C   0  0  0  0  0  0  0  0  0  0  0  0
    9.1572  -17.0777   19.3972 C   0  0  1  0  0  0  0  0  0  0  0  0
    8.5070  -15.9368   18.9827 O   0  0  0  0  0  0  0  0  0  0  0  0
    8.8468  -17.4693   20.8164 C   0  0  2  0  0  0  0  0  0  0  0  0
    7.4435  -17.8525   20.9502 N   0  0  0  0  0  0  0  0  0  0  0  0
    9.1049  -16.3308   21.7169 C   0  0  0  0  0  0  0  0  0  0  0  0
   10.2728  -15.8968   21.8273 O   0  0  0  0  0  0  0  0  0  0  0  0
    5.9594  -11.4847   26.9369 C   0  0  0  0  0  0  0  0  0  0  0  0
    5.8999  -12.6570   25.5762 S   0  0  0  0  0  0  0  0  0  0  0  0
    7.5001  -12.6813   24.6606 C   0  0  0  0  0  0  0  0  0  0  0  0
    7.3088  -13.6936   23.5676 C   0  0  0  0  0  0  0  0  0  0  0  0
    8.3922  -14.7120   23.4783 C   0  0  2  0  0  0  0  0  0  0  0  0
    8.0802  -15.7079   22.4634 N   0  0  0  0  0  0  0  0  0  0  0  0
    8.7222  -15.3665   24.7660 C   0  0  0  0  0  0  0  0  0  0  0  0
    8.0183  -16.2467   25.3110 O   0  0  0  0  0  0  0  0  0  0  0  0
   12.2675  -20.3335   30.7124 O   0  0  0  0  0  0  0  0  0  0  0  0
   11.8410  -19.5785   29.6324 C   0  0  0  0  0  0  0  0  0  0  0  0
   12.7245  -19.1864   28.6509 C   0  0  0  0  0  0  0  0  0  0  0  0
   12.2722  -18.4283   27.5755 C   0  0  0  0  0  0  0  0  0  0  0  0
   10.9499  -18.0528   27.4611 C   0  0  0  0  0  0  0  0  0  0  0  0
   10.4891  -17.2504   26.3162 C   0  0  0  0  0  0  0  0  0  0  0  0
   10.3692  -15.7777   26.6396 C   0  0  2  0  0  0  0  0  0  0  0  0
    9.9170  -15.0163   25.4950 N   0  0  0  0  0  0  0  0  0  0  0  0
   11.6279  -15.2208   27.1951 C   0  0  0  0  0  0  0  0  0  0  0  0
   11.8283  -15.0130   28.3972 O   0  0  0  0  0  0  0  0  0  0  0  0
   10.0934  -18.4624   28.4613 C   0  0  0  0  0  0  0  0  0  0  0  0
   10.5184  -19.2150   29.5379 C   0  0  0  0  0  0  0  0  0  0  0  0
   12.6494  -14.9122   26.3064 O   0  0  0  0  0  0  0  0  0  0  0  0
  2  1  1  6
  2  4  1  0
  3  2  1  0
  4  6  1  0
  4  5  1  6
  6  7  2  0
  9  8  1  0
 10  9  1  0
 11 10  1  0
 12 11  1  1
 13 12  1  0
 13  6  1  0
 14 15  2  0
 14 12  1  0
 16 17  1  0
 17 27  2  0
 17 18  1  0
 18 19  2  0
 19 20  1  0
 20 21  1  0
 22 21  1  6
 22 23  1  0
 22 24  1  0
 23 14  1  0
 24 28  1  0
 25 24  2  0
 26 20  2  0
 27 26  1  0
M  END
$$$$
