TMY.pdb
     RDKit          3D

 28 28  0  0  1  0  0  0  0  0999 V2000
    7.8049  -20.1854   19.6676 C   0  0  0  0  0  0  0  0  0  0  0  0
    8.3246  -19.0303   20.4909 C   0  0  1  0  0  0  0  0  0  0  0  0
    9.4679  -19.3673   21.1807 O   0  0  0  0  0  0  0  0  0  0  0  0
    8.4634  -17.7815   19.6631 C   0  0  2  0  0  0  0  0  0  0  0  0
    9.4107  -17.9898   18.5709 N   0  0  0  0  0  0  0  0  0  0  0  0
    8.9600  -16.6770   20.5040 C   0  0  0  0  0  0  0  0  0  0  0  0
   10.1582  -16.3314   20.4068 O   0  0  0  0  0  0  0  0  0  0  0  0
    6.7394  -10.6230   25.1029 C   0  0  0  0  0  0  0  0  0  0  0  0
    6.4066  -11.9555   23.9441 S   0  0  0  0  0  0  0  0  0  0  0  0
    7.9700  -12.7928   23.4401 C   0  0  0  0  0  0  0  0  0  0  0  0
    7.5341  -13.9672   22.6113 C   0  0  0  0  0  0  0  0  0  0  0  0
    8.6428  -14.8725   22.1993 C   0  0  2  0  0  0  0  0  0  0  0  0
    8.1318  -15.9905   21.4195 N   0  0  0  0  0  0  0  0  0  0  0  0
    9.4814  -15.3593   23.3197 C   0  0  0  0  0  0  0  0  0  0  0  0
   10.0020  -14.6193   24.1849 O   0  0  0  0  0  0  0  0  0  0  0  0
    6.8793  -12.8161   27.8446 O   0  0  0  0  0  0  0  0  0  0  0  0
    7.4207  -13.9777   27.3192 C   0  0  0  0  0  0  0  0  0  0  0  0
    8.7777  -14.2095   27.3664 C   0  0  0  0  0  0  0  0  0  0  0  0
    9.2980  -15.3840   26.8318 C   0  0  0  0  0  0  0  0  0  0  0  0
    8.4862  -16.3347   26.2490 C   0  0  0  0  0  0  0  0  0  0  0  0
    9.0542  -17.5717   25.6883 C   0  0  0  0  0  0  0  0  0  0  0  0
   10.2100  -17.3149   24.7471 C   0  0  2  0  0  0  0  0  0  0  0  0
    9.7583  -16.7654   23.4867 N   0  0  0  0  0  0  0  0  0  0  0  0
   11.0447  -18.5246   24.5402 C   0  0  0  0  0  0  0  0  0  0  0  0
   11.5789  -19.1679   25.4507 O   0  0  0  0  0  0  0  0  0  0  0  0
    7.1331  -16.0701   26.2190 C   0  0  0  0  0  0  0  0  0  0  0  0
    6.5933  -14.9123   26.7427 C   0  0  0  0  0  0  0  0  0  0  0  0
   11.2394  -18.9643   23.2373 O   0  0  0  0  0  0  0  0  0  0  0  0
  2  1  1  6
  2  4  1  0
  3  2  1  0
  4  6  1  0
  4  5  1  6
  6  7  2  0
  9  8  1  0
 10  9  1  0
 11 10  1  0
 12 11  1  1
 13 12  1  0
 13  6  1  0
 14 15  2  0
 14 12  1  0
 16 17  1  0
 17 27  2  0
 17 18  1  0
 18 19  2  0
 19 20  1  0
 20 21  1  0
 22 21  1  1
 22 23  1  0
 22 24  1  0
 23 14  1  0
 24 28  1  0
 25 24  2  0
 26 20  2  0
 27 26  1  0
M  END
$$$$
