CGE.pdb
     RDKit          3D

 20 19  0  0  1  0  0  0  0  0999 V2000
    8.2585  -15.6697   18.3577 N   0  0  0  0  0  0  0  0  0  0  0  0
    8.3191  -14.4656   19.1646 C   0  0  1  0  0  0  0  0  0  0  0  0
    7.5703  -13.3902   18.4060 C   0  0  0  0  0  0  0  0  0  0  0  0
    7.9577  -13.3961   16.6431 S   0  0  0  0  0  0  0  0  0  0  0  0
    7.7586  -14.6987   20.5048 C   0  0  0  0  0  0  0  0  0  0  0  0
    7.0202  -15.6652   20.7657 O   0  0  0  0  0  0  0  0  0  0  0  0
    8.0705  -13.7856   21.5467 N   0  0  0  0  0  0  0  0  0  0  0  0
    7.6072  -13.9908   22.8871 C   0  0  0  0  0  0  0  0  0  0  0  0
    8.5665  -14.9152   23.5795 C   0  0  0  0  0  0  0  0  0  0  0  0
    8.4511  -15.1918   24.8089 O   0  0  0  0  0  0  0  0  0  0  0  0
    9.6266  -15.5009   22.8695 N   0  0  0  0  0  0  0  0  0  0  0  0
   10.5117  -16.4853   23.5245 C   0  0  1  0  0  0  0  0  0  0  0  0
   10.4068  -17.7856   22.7744 C   0  0  0  0  0  0  0  0  0  0  0  0
   11.3102  -18.8746   23.2868 C   0  0  0  0  0  0  0  0  0  0  0  0
   11.1439  -20.1070   22.4512 C   0  0  0  0  0  0  0  0  0  0  0  0
   10.1563  -20.1961   21.6763 O   0  0  0  0  0  0  0  0  0  0  0  0
   11.8959  -15.9658   23.5755 C   0  0  0  0  0  0  0  0  0  0  0  0
   12.6926  -16.3052   24.4478 O   0  0  0  0  0  0  0  0  0  0  0  0
   12.0405  -21.1399   22.5095 O   0  0  0  0  0  0  0  0  0  0  0  0
   12.2965  -15.0528   22.5831 O   0  0  0  0  0  0  0  0  0  0  0  0
  2  3  1  0
  2  1  1  6
  4  3  1  0
  5  2  1  0
  5  6  2  0
  7  5  1  0
  8  7  1  0
  9  8  1  0
 10  9  2  0
 11  9  1  0
 12 13  1  6
 12 11  1  0
 13 14  1  0
 15 14  1  0
 15 19  1  0
 16 15  2  0
 17 20  1  0
 17 12  1  0
 18 17  2  0
M  END
$$$$
