CGE.pdb
     RDKit          3D

 20 19  0  0  1  0  0  0  0  0999 V2000
    2.0855  -19.9076   22.7411 N   0  0  0  0  0  0  0  0  0  0  0  0
    0.9136  -20.1949   21.9357 C   0  0  1  0  0  0  0  0  0  0  0  0
    1.1991  -21.4798   21.1872 C   0  0  0  0  0  0  0  0  0  0  0  0
    1.8396  -22.7766   22.2671 S   0  0  0  0  0  0  0  0  0  0  0  0
   -0.2924  -20.2910   22.7729 C   0  0  0  0  0  0  0  0  0  0  0  0
   -1.4311  -20.4443   22.2962 O   0  0  0  0  0  0  0  0  0  0  0  0
   -0.1561  -20.2057   24.1839 N   0  0  0  0  0  0  0  0  0  0  0  0
   -1.2889  -20.3161   25.0546 C   0  0  0  0  0  0  0  0  0  0  0  0
   -1.6081  -21.7728   25.2280 C   0  0  0  0  0  0  0  0  0  0  0  0
   -2.0241  -22.4802   24.2647 O   0  0  0  0  0  0  0  0  0  0  0  0
   -1.4501  -22.3909   26.4786 N   0  0  0  0  0  0  0  0  0  0  0  0
   -1.6693  -23.8439   26.6276 C   0  0  1  0  0  0  0  0  0  0  0  0
   -0.7878  -24.3416   27.7411 C   0  0  0  0  0  0  0  0  0  0  0  0
   -1.5308  -24.9615   28.8936 C   0  0  0  0  0  0  0  0  0  0  0  0
   -0.5661  -25.3346   29.9775 C   0  0  0  0  0  0  0  0  0  0  0  0
    0.6556  -25.0705   29.8312 O   0  0  0  0  0  0  0  0  0  0  0  0
   -3.1030  -24.1171   26.8690 C   0  0  0  0  0  0  0  0  0  0  0  0
   -3.8833  -23.2446   27.2441 O   0  0  0  0  0  0  0  0  0  0  0  0
   -0.9808  -25.9565   31.1244 O   0  0  0  0  0  0  0  0  0  0  0  0
   -3.5715  -25.4263   26.6567 O   0  0  0  0  0  0  0  0  0  0  0  0
  2  3  1  0
  2  1  1  1
  4  3  1  0
  5  2  1  0
  5  6  2  0
  7  5  1  0
  8  7  1  0
  9  8  1  0
 10  9  2  0
 11  9  1  0
 12 13  1  1
 12 11  1  0
 13 14  1  0
 15 14  1  0
 15 19  1  0
 16 15  2  0
 17 20  1  0
 17 12  1  0
 18 17  2  0
M  END
$$$$
