CGE.pdb
     RDKit          3D

 20 19  0  0  1  0  0  0  0  0999 V2000
    8.4791  -14.5864   17.8410 N   0  0  0  0  0  0  0  0  0  0  0  0
    8.9675  -13.9309   19.0395 C   0  0  1  0  0  0  0  0  0  0  0  0
    8.5354  -12.4821   18.9551 C   0  0  0  0  0  0  0  0  0  0  0  0
    6.7406  -12.2964   19.0016 S   0  0  0  0  0  0  0  0  0  0  0  0
    8.4608  -14.5965   20.2498 C   0  0  0  0  0  0  0  0  0  0  0  0
    7.4985  -15.3846   20.2305 O   0  0  0  0  0  0  0  0  0  0  0  0
    9.0930  -14.3316   21.4935 N   0  0  0  0  0  0  0  0  0  0  0  0
    8.6176  -14.9115   22.7147 C   0  0  0  0  0  0  0  0  0  0  0  0
    9.4736  -16.1029   23.0336 C   0  0  0  0  0  0  0  0  0  0  0  0
    9.3003  -17.2173   22.4595 O   0  0  0  0  0  0  0  0  0  0  0  0
   10.4987  -16.0064   23.9880 N   0  0  0  0  0  0  0  0  0  0  0  0
   11.3210  -17.1864   24.3241 C   0  0  1  0  0  0  0  0  0  0  0  0
   12.6830  -17.0014   23.7114 C   0  0  0  0  0  0  0  0  0  0  0  0
   13.3206  -15.6696   24.0017 C   0  0  0  0  0  0  0  0  0  0  0  0
   14.6745  -15.6052   23.3631 C   0  0  0  0  0  0  0  0  0  0  0  0
   15.6922  -15.8811   24.0499 O   0  0  0  0  0  0  0  0  0  0  0  0
   11.3747  -17.3641   25.7918 C   0  0  0  0  0  0  0  0  0  0  0  0
   10.8509  -16.5687   26.5688 O   0  0  0  0  0  0  0  0  0  0  0  0
   14.8322  -15.2534   22.0496 O   0  0  0  0  0  0  0  0  0  0  0  0
   12.0529  -18.4880   26.2973 O   0  0  0  0  0  0  0  0  0  0  0  0
  2  3  1  0
  2  1  1  6
  4  3  1  0
  5  2  1  0
  5  6  2  0
  7  5  1  0
  8  7  1  0
  9  8  1  0
 10  9  2  0
 11  9  1  0
 12 13  1  1
 12 11  1  0
 13 14  1  0
 15 14  1  0
 15 19  1  0
 16 15  2  0
 17 20  1  0
 17 12  1  0
 18 17  2  0
M  END
$$$$
