CGE.pdb
     RDKit          3D

 20 19  0  0  1  0  0  0  0  0999 V2000
    6.2558  -13.9878   26.1272 N   0  0  0  0  0  0  0  0  0  0  0  0
    6.8342  -12.8388   25.4566 C   0  0  1  0  0  0  0  0  0  0  0  0
    7.9521  -12.3299   26.3420 C   0  0  0  0  0  0  0  0  0  0  0  0
    7.3387  -11.6215   27.8848 S   0  0  0  0  0  0  0  0  0  0  0  0
    7.3054  -13.1951   24.1091 C   0  0  0  0  0  0  0  0  0  0  0  0
    7.9770  -12.4200   23.4052 O   0  0  0  0  0  0  0  0  0  0  0  0
    6.9829  -14.4755   23.5864 N   0  0  0  0  0  0  0  0  0  0  0  0
    7.3761  -14.8666   22.2650 C   0  0  0  0  0  0  0  0  0  0  0  0
    8.4947  -15.8610   22.3826 C   0  0  0  0  0  0  0  0  0  0  0  0
    8.8902  -16.5356   21.3877 O   0  0  0  0  0  0  0  0  0  0  0  0
    9.1353  -16.0675   23.6147 N   0  0  0  0  0  0  0  0  0  0  0  0
    9.9906  -17.2534   23.8233 C   0  0  1  0  0  0  0  0  0  0  0  0
   11.3836  -16.9162   23.3647 C   0  0  0  0  0  0  0  0  0  0  0  0
   12.1264  -15.9727   24.2718 C   0  0  0  0  0  0  0  0  0  0  0  0
   13.5265  -15.7855   23.7724 C   0  0  0  0  0  0  0  0  0  0  0  0
   13.7394  -15.7635   22.5323 O   0  0  0  0  0  0  0  0  0  0  0  0
    9.9417  -17.6691   25.2423 C   0  0  0  0  0  0  0  0  0  0  0  0
    9.3661  -17.0047   26.1014 O   0  0  0  0  0  0  0  0  0  0  0  0
   14.5813  -15.6375   24.6324 O   0  0  0  0  0  0  0  0  0  0  0  0
   10.5817  -18.8689   25.6021 O   0  0  0  0  0  0  0  0  0  0  0  0
  2  3  1  0
  2  1  1  1
  4  3  1  0
  5  2  1  0
  5  6  2  0
  7  5  1  0
  8  7  1  0
  9  8  1  0
 10  9  2  0
 11  9  1  0
 12 13  1  1
 12 11  1  0
 13 14  1  0
 15 14  1  0
 15 19  1  0
 16 15  2  0
 17 20  1  0
 17 12  1  0
 18 17  2  0
M  END
$$$$
