CGE.pdb
     RDKit          3D

 20 19  0  0  1  0  0  0  0  0999 V2000
    7.9004  -14.2744   18.3913 N   0  0  0  0  0  0  0  0  0  0  0  0
    8.8505  -13.9388   19.4350 C   0  0  1  0  0  0  0  0  0  0  0  0
    8.7896  -12.4370   19.6184 C   0  0  0  0  0  0  0  0  0  0  0  0
    9.3304  -11.5424   18.1468 S   0  0  0  0  0  0  0  0  0  0  0  0
    8.5497  -14.6671   20.6775 C   0  0  0  0  0  0  0  0  0  0  0  0
    7.3974  -15.0164   20.9897 O   0  0  0  0  0  0  0  0  0  0  0  0
    9.6155  -14.9868   21.5599 N   0  0  0  0  0  0  0  0  0  0  0  0
    9.3962  -15.7424   22.7576 C   0  0  0  0  0  0  0  0  0  0  0  0
   10.6113  -16.5875   23.0091 C   0  0  0  0  0  0  0  0  0  0  0  0
   10.7935  -17.6842   22.4046 O   0  0  0  0  0  0  0  0  0  0  0  0
   11.5852  -16.1749   23.9323 N   0  0  0  0  0  0  0  0  0  0  0  0
   12.6582  -17.0996   24.3508 C   0  0  1  0  0  0  0  0  0  0  0  0
   13.9822  -16.4317   24.0947 C   0  0  0  0  0  0  0  0  0  0  0  0
   14.2962  -16.2095   22.6398 C   0  0  0  0  0  0  0  0  0  0  0  0
   15.6070  -15.4961   22.5068 C   0  0  0  0  0  0  0  0  0  0  0  0
   16.6444  -16.0205   22.9888 O   0  0  0  0  0  0  0  0  0  0  0  0
   12.4749  -17.4784   25.7691 C   0  0  0  0  0  0  0  0  0  0  0  0
   11.6411  -16.9356   26.4909 O   0  0  0  0  0  0  0  0  0  0  0  0
   15.7044  -14.2864   21.8734 O   0  0  0  0  0  0  0  0  0  0  0  0
   13.2918  -18.4970   26.2922 O   0  0  0  0  0  0  0  0  0  0  0  0
  2  3  1  0
  2  1  1  6
  4  3  1  0
  5  2  1  0
  5  6  2  0
  7  5  1  0
  8  7  1  0
  9  8  1  0
 10  9  2  0
 11  9  1  0
 12 13  1  1
 12 11  1  0
 13 14  1  0
 15 14  1  0
 15 19  1  0
 16 15  2  0
 17 20  1  0
 17 12  1  0
 18 17  2  0
M  END
$$$$
