CGE.pdb
     RDKit          3D

 20 19  0  0  1  0  0  0  0  0999 V2000
    8.2864  -15.1788   15.5449 N   0  0  0  0  0  0  0  0  0  0  0  0
    7.8063  -15.6374   16.8348 C   0  0  1  0  0  0  0  0  0  0  0  0
    8.3099  -17.0543   17.0127 C   0  0  0  0  0  0  0  0  0  0  0  0
    8.9427  -17.3549   18.6762 S   0  0  0  0  0  0  0  0  0  0  0  0
    8.2555  -14.7440   17.9140 C   0  0  0  0  0  0  0  0  0  0  0  0
    7.8398  -14.8398   19.0825 O   0  0  0  0  0  0  0  0  0  0  0  0
    9.2024  -13.7291   17.6143 N   0  0  0  0  0  0  0  0  0  0  0  0
    9.6949  -12.8410   18.6254 C   0  0  0  0  0  0  0  0  0  0  0  0
   10.9891  -13.3949   19.1474 C   0  0  0  0  0  0  0  0  0  0  0  0
   12.1072  -12.9750   18.7294 O   0  0  0  0  0  0  0  0  0  0  0  0
   10.9879  -14.4040   20.1235 N   0  0  0  0  0  0  0  0  0  0  0  0
   12.2497  -14.8251   20.7652 C   0  0  1  0  0  0  0  0  0  0  0  0
   11.9524  -15.1904   22.1945 C   0  0  0  0  0  0  0  0  0  0  0  0
   11.2451  -16.5075   22.3662 C   0  0  0  0  0  0  0  0  0  0  0  0
   11.1180  -16.8290   23.8241 C   0  0  0  0  0  0  0  0  0  0  0  0
   11.7267  -16.1186   24.6658 O   0  0  0  0  0  0  0  0  0  0  0  0
   12.8561  -15.9402   20.0053 C   0  0  0  0  0  0  0  0  0  0  0  0
   13.9652  -16.3940   20.2786 O   0  0  0  0  0  0  0  0  0  0  0  0
   10.3555  -17.8774   24.2639 O   0  0  0  0  0  0  0  0  0  0  0  0
   12.1234  -16.4875   18.9365 O   0  0  0  0  0  0  0  0  0  0  0  0
  2  3  1  0
  2  1  1  6
  4  3  1  0
  5  2  1  0
  5  6  2  0
  7  5  1  0
  8  7  1  0
  9  8  1  0
 10  9  2  0
 11  9  1  0
 12 13  1  1
 12 11  1  0
 13 14  1  0
 15 14  1  0
 15 19  1  0
 16 15  2  0
 17 20  1  0
 17 12  1  0
 18 17  2  0
M  END
$$$$
