CGE.pdb
     RDKit          3D

 20 19  0  0  1  0  0  0  0  0999 V2000
    7.2066  -13.9187   26.6890 N   0  0  0  0  0  0  0  0  0  0  0  0
    6.6614  -13.1570   25.5812 C   0  0  1  0  0  0  0  0  0  0  0  0
    6.4381  -11.7468   26.0853 C   0  0  0  0  0  0  0  0  0  0  0  0
    5.2114  -11.6758   27.4076 S   0  0  0  0  0  0  0  0  0  0  0  0
    7.5606  -13.1996   24.4174 C   0  0  0  0  0  0  0  0  0  0  0  0
    8.7569  -12.8645   24.4797 O   0  0  0  0  0  0  0  0  0  0  0  0
    7.0461  -13.6406   23.1694 N   0  0  0  0  0  0  0  0  0  0  0  0
    7.8163  -13.5443   21.9648 C   0  0  0  0  0  0  0  0  0  0  0  0
    8.8683  -14.6151   21.9929 C   0  0  0  0  0  0  0  0  0  0  0  0
    9.6379  -14.8152   21.0085 O   0  0  0  0  0  0  0  0  0  0  0  0
    9.0239  -15.4288   23.1264 N   0  0  0  0  0  0  0  0  0  0  0  0
   10.0737  -16.4670   23.1631 C   0  0  1  0  0  0  0  0  0  0  0  0
   10.3857  -16.7708   24.6036 C   0  0  0  0  0  0  0  0  0  0  0  0
   11.3863  -17.8769   24.8040 C   0  0  0  0  0  0  0  0  0  0  0  0
   11.6604  -18.0543   26.2663 C   0  0  0  0  0  0  0  0  0  0  0  0
   11.0335  -17.3498   27.0995 O   0  0  0  0  0  0  0  0  0  0  0  0
    9.6307  -17.6613   22.4108 C   0  0  0  0  0  0  0  0  0  0  0  0
    8.4555  -18.0207   22.3828 O   0  0  0  0  0  0  0  0  0  0  0  0
   12.5768  -18.9649   26.7192 O   0  0  0  0  0  0  0  0  0  0  0  0
   10.6017  -18.3987   21.7094 O   0  0  0  0  0  0  0  0  0  0  0  0
  2  3  1  0
  2  1  1  1
  4  3  1  0
  5  2  1  0
  5  6  2  0
  7  5  1  0
  8  7  1  0
  9  8  1  0
 10  9  2  0
 11  9  1  0
 12 13  1  1
 12 11  1  0
 13 14  1  0
 15 14  1  0
 15 19  1  0
 16 15  2  0
 17 20  1  0
 17 12  1  0
 18 17  2  0
M  END
$$$$
