CGE.pdb
     RDKit          3D

 20 19  0  0  1  0  0  0  0  0999 V2000
    8.5120  -13.4467   21.7508 N   0  0  0  0  0  0  0  0  0  0  0  0
    7.9724  -14.5544   20.9851 C   0  0  1  0  0  0  0  0  0  0  0  0
    7.6783  -14.0269   19.5966 C   0  0  0  0  0  0  0  0  0  0  0  0
    7.0532  -12.3338   19.6227 S   0  0  0  0  0  0  0  0  0  0  0  0
    8.9084  -15.6894   20.9661 C   0  0  0  0  0  0  0  0  0  0  0  0
    8.6180  -16.7918   20.4686 O   0  0  0  0  0  0  0  0  0  0  0  0
   10.1977  -15.5243   21.5382 N   0  0  0  0  0  0  0  0  0  0  0  0
   11.1351  -16.6066   21.5989 C   0  0  0  0  0  0  0  0  0  0  0  0
   11.5299  -16.8061   23.0336 C   0  0  0  0  0  0  0  0  0  0  0  0
   12.6426  -17.3187   23.3505 O   0  0  0  0  0  0  0  0  0  0  0  0
   10.6624  -16.4237   24.0692 N   0  0  0  0  0  0  0  0  0  0  0  0
   11.0790  -16.5542   25.4801 C   0  0  1  0  0  0  0  0  0  0  0  0
   10.4161  -15.4585   26.2704 C   0  0  0  0  0  0  0  0  0  0  0  0
   10.7214  -15.4813   27.7438 C   0  0  0  0  0  0  0  0  0  0  0  0
   10.0334  -14.3364   28.4224 C   0  0  0  0  0  0  0  0  0  0  0  0
    9.2695  -13.5937   27.7527 O   0  0  0  0  0  0  0  0  0  0  0  0
   10.7438  -17.9042   25.9837 C   0  0  0  0  0  0  0  0  0  0  0  0
    9.8107  -18.5618   25.5279 O   0  0  0  0  0  0  0  0  0  0  0  0
   10.2152  -14.0777   29.7544 O   0  0  0  0  0  0  0  0  0  0  0  0
   11.5311  -18.4375   27.0203 O   0  0  0  0  0  0  0  0  0  0  0  0
  2  3  1  0
  2  1  1  1
  4  3  1  0
  5  2  1  0
  5  6  2  0
  7  5  1  0
  8  7  1  0
  9  8  1  0
 10  9  2  0
 11  9  1  0
 12 13  1  1
 12 11  1  0
 13 14  1  0
 15 14  1  0
 15 19  1  0
 16 15  2  0
 17 20  1  0
 17 12  1  0
 18 17  2  0
M  END
$$$$
