CGE.pdb
     RDKit          3D

 20 19  0  0  1  0  0  0  0  0999 V2000
    7.9377  -14.2651   17.1708 N   0  0  0  0  0  0  0  0  0  0  0  0
    8.2500  -14.0698   18.5740 C   0  0  1  0  0  0  0  0  0  0  0  0
    7.0128  -13.4853   19.2223 C   0  0  0  0  0  0  0  0  0  0  0  0
    6.5351  -11.9053   18.4917 S   0  0  0  0  0  0  0  0  0  0  0  0
    8.6683  -15.3323   19.2031 C   0  0  0  0  0  0  0  0  0  0  0  0
    8.7101  -16.4103   18.5837 O   0  0  0  0  0  0  0  0  0  0  0  0
    9.0405  -15.3251   20.5735 N   0  0  0  0  0  0  0  0  0  0  0  0
    9.5739  -16.4920   21.2117 C   0  0  0  0  0  0  0  0  0  0  0  0
   10.8471  -16.1064   21.9076 C   0  0  0  0  0  0  0  0  0  0  0  0
   11.4989  -15.0741   21.5747 O   0  0  0  0  0  0  0  0  0  0  0  0
   11.3497  -16.8925   22.9567 N   0  0  0  0  0  0  0  0  0  0  0  0
   12.5382  -16.4544   23.7162 C   0  0  1  0  0  0  0  0  0  0  0  0
   12.4156  -16.9732   25.1235 C   0  0  0  0  0  0  0  0  0  0  0  0
   12.1774  -18.4559   25.2218 C   0  0  0  0  0  0  0  0  0  0  0  0
   12.0658  -18.8575   26.6609 C   0  0  0  0  0  0  0  0  0  0  0  0
   11.0421  -18.5271   27.3140 O   0  0  0  0  0  0  0  0  0  0  0  0
   13.7697  -16.9200   23.0414 C   0  0  0  0  0  0  0  0  0  0  0  0
   13.7475  -17.7484   22.1336 O   0  0  0  0  0  0  0  0  0  0  0  0
   13.0506  -19.5758   27.2839 O   0  0  0  0  0  0  0  0  0  0  0  0
   14.9992  -16.3851   23.4667 O   0  0  0  0  0  0  0  0  0  0  0  0
  2  3  1  0
  2  1  1  6
  4  3  1  0
  5  2  1  0
  5  6  2  0
  7  5  1  0
  8  7  1  0
  9  8  1  0
 10  9  2  0
 11  9  1  0
 12 13  1  1
 12 11  1  0
 13 14  1  0
 15 14  1  0
 15 19  1  0
 16 15  2  0
 17 20  1  0
 17 12  1  0
 18 17  2  0
M  END
$$$$
