GTC.pdb
     RDKit          3D

 18 17  0  0  1  0  0  0  0  0999 V2000
   16.7620  -13.2475  -15.9813 N   0  0  0  0  0  0  0  0  0  0  0  0
   16.5210  -11.9549  -15.3773 C   0  0  0  0  0  0  0  0  0  0  0  0
   17.4825  -10.9877  -15.9156 C   0  0  0  0  0  0  0  0  0  0  0  0
   18.4048  -11.3897  -16.6721 O   0  0  0  0  0  0  0  0  0  0  0  0
   16.6713   -8.1792  -18.0648 C   0  0  0  0  0  0  0  0  0  0  0  0
   17.4851   -7.6045  -16.9295 C   0  0  1  0  0  0  0  0  0  0  0  0
   16.6731   -6.9707  -16.0235 O   0  0  0  0  0  0  0  0  0  0  0  0
   18.3119   -8.6753  -16.2468 C   0  0  2  0  0  0  0  0  0  0  0  0
   17.3931   -9.6229  -15.6030 N   0  0  0  0  0  0  0  0  0  0  0  0
   19.2366   -8.0978  -15.2371 C   0  0  0  0  0  0  0  0  0  0  0  0
   18.8602   -7.8909  -14.0376 O   0  0  0  0  0  0  0  0  0  0  0  0
   20.5616   -7.7598  -15.5700 N   0  0  0  0  0  0  0  0  0  0  0  0
   21.4782   -7.1603  -14.6172 C   0  0  1  0  0  0  0  0  0  0  0  0
   22.8807   -7.6580  -14.7714 C   0  0  0  0  0  0  0  0  0  0  0  0
   22.9272   -9.3772  -14.1871 S   0  0  0  0  0  0  0  0  0  0  0  0
   21.4920   -5.6823  -14.7180 C   0  0  0  0  0  0  0  0  0  0  0  0
   22.1521   -5.0591  -13.8471 O   0  0  0  0  0  0  0  0  0  0  0  0
   20.8402   -4.9584  -15.6869 O   0  0  0  0  0  0  0  0  0  0  0  0
  2  1  1  0
  3  2  1  0
  4  3  2  0
  6  5  1  6
  6  7  1  0
  6  8  1  0
  8  9  1  1
  9  3  1  0
 10  8  1  0
 10 12  1  0
 11 10  2  0
 13 14  1  6
 13 12  1  0
 13 16  1  0
 14 15  1  0
 16 18  1  0
 17 16  2  0
M  END
$$$$
