GTC.pdb
     RDKit          3D

 18 17  0  0  1  0  0  0  0  0999 V2000
   20.0290  -13.2687  -16.2050 N   0  0  0  0  0  0  0  0  0  0  0  0
   20.6562  -12.3898  -17.1684 C   0  0  0  0  0  0  0  0  0  0  0  0
   20.0776  -11.0487  -17.0413 C   0  0  0  0  0  0  0  0  0  0  0  0
   20.1248  -10.2605  -18.0216 O   0  0  0  0  0  0  0  0  0  0  0  0
   17.0019   -7.9482  -14.8868 C   0  0  0  0  0  0  0  0  0  0  0  0
   17.5729   -9.3288  -15.1086 C   0  0  1  0  0  0  0  0  0  0  0  0
   16.7208  -10.0894  -15.8685 O   0  0  0  0  0  0  0  0  0  0  0  0
   18.9439   -9.2615  -15.7507 C   0  0  2  0  0  0  0  0  0  0  0  0
   19.4724  -10.6282  -15.8474 N   0  0  0  0  0  0  0  0  0  0  0  0
   19.8774   -8.4094  -14.9694 C   0  0  0  0  0  0  0  0  0  0  0  0
   20.4354   -8.8406  -13.9084 O   0  0  0  0  0  0  0  0  0  0  0  0
   20.1789   -7.0958  -15.3746 N   0  0  0  0  0  0  0  0  0  0  0  0
   21.0420   -6.2190  -14.6042 C   0  0  1  0  0  0  0  0  0  0  0  0
   22.4134   -6.0961  -15.1897 C   0  0  0  0  0  0  0  0  0  0  0  0
   23.3714   -4.9749  -14.1296 S   0  0  0  0  0  0  0  0  0  0  0  0
   20.4683   -4.8600  -14.4660 C   0  0  0  0  0  0  0  0  0  0  0  0
   19.8661   -4.3925  -15.4666 O   0  0  0  0  0  0  0  0  0  0  0  0
   20.5501   -4.0883  -13.3323 O   0  0  0  0  0  0  0  0  0  0  0  0
  2  1  1  0
  3  2  1  0
  4  3  2  0
  6  5  1  6
  6  7  1  0
  6  8  1  0
  8  9  1  1
  9  3  1  0
 10  8  1  0
 10 12  1  0
 11 10  2  0
 13 14  1  6
 13 12  1  0
 13 16  1  0
 14 15  1  0
 16 18  1  0
 17 16  2  0
M  END
$$$$
