GTC.pdb
     RDKit          3D

 18 17  0  0  1  0  0  0  0  0999 V2000
   24.8293  -13.5820  -19.6053 N   0  0  0  0  0  0  0  0  0  0  0  0
   24.7282  -12.1565  -19.8321 C   0  0  0  0  0  0  0  0  0  0  0  0
   24.6719  -11.4683  -18.5386 C   0  0  0  0  0  0  0  0  0  0  0  0
   23.9831  -11.9604  -17.6071 O   0  0  0  0  0  0  0  0  0  0  0  0
   27.1118  -10.8720  -16.0294 C   0  0  0  0  0  0  0  0  0  0  0  0
   26.5921   -9.4986  -16.3831 C   0  0  1  0  0  0  0  0  0  0  0  0
   27.4784   -8.8397  -17.1969 O   0  0  0  0  0  0  0  0  0  0  0  0
   25.2265   -9.5771  -17.0351 C   0  0  2  0  0  0  0  0  0  0  0  0
   25.3715  -10.2719  -18.3207 N   0  0  0  0  0  0  0  0  0  0  0  0
   24.6393   -8.2290  -17.2491 C   0  0  0  0  0  0  0  0  0  0  0  0
   24.7999   -7.6047  -18.3481 O   0  0  0  0  0  0  0  0  0  0  0  0
   23.8840   -7.5943  -16.2454 N   0  0  0  0  0  0  0  0  0  0  0  0
   23.3895   -6.2362  -16.3805 C   0  0  1  0  0  0  0  0  0  0  0  0
   22.1320   -6.1556  -17.1871 C   0  0  0  0  0  0  0  0  0  0  0  0
   21.5870   -4.4230  -17.1944 S   0  0  0  0  0  0  0  0  0  0  0  0
   23.1425   -5.6041  -15.0635 C   0  0  0  0  0  0  0  0  0  0  0  0
   22.9695   -6.3762  -14.0856 O   0  0  0  0  0  0  0  0  0  0  0  0
   23.0907   -4.2488  -14.8441 O   0  0  0  0  0  0  0  0  0  0  0  0
  2  1  1  0
  3  2  1  0
  4  3  2  0
  6  5  1  6
  6  7  1  0
  6  8  1  0
  8  9  1  6
  9  3  1  0
 10  8  1  0
 10 12  1  0
 11 10  2  0
 13 14  1  6
 13 12  1  0
 13 16  1  0
 14 15  1  0
 16 18  1  0
 17 16  2  0
M  END
$$$$
