GTC.pdb
     RDKit          3D

 18 17  0  0  1  0  0  0  0  0999 V2000
   14.0400  -10.9226  -14.3479 N   0  0  0  0  0  0  0  0  0  0  0  0
   14.4013   -9.5283  -14.2100 C   0  0  0  0  0  0  0  0  0  0  0  0
   15.7372   -9.3211  -14.7777 C   0  0  0  0  0  0  0  0  0  0  0  0
   16.5325  -10.2936  -14.8556 O   0  0  0  0  0  0  0  0  0  0  0  0
   16.6825   -8.4648  -18.0977 C   0  0  0  0  0  0  0  0  0  0  0  0
   17.3469   -7.4200  -17.2326 C   0  0  1  0  0  0  0  0  0  0  0  0
   16.6511   -6.2386  -17.2790 O   0  0  0  0  0  0  0  0  0  0  0  0
   17.4900   -7.8987  -15.8021 C   0  0  2  0  0  0  0  0  0  0  0  0
   16.1447   -8.0590  -15.2355 N   0  0  0  0  0  0  0  0  0  0  0  0
   18.2786   -6.9462  -14.9781 C   0  0  0  0  0  0  0  0  0  0  0  0
   17.7063   -6.0866  -14.2319 O   0  0  0  0  0  0  0  0  0  0  0  0
   19.6858   -6.9605  -14.9923 N   0  0  0  0  0  0  0  0  0  0  0  0
   20.4847   -6.0376  -14.2067 C   0  0  1  0  0  0  0  0  0  0  0  0
   21.8553   -6.5619  -13.9151 C   0  0  0  0  0  0  0  0  0  0  0  0
   22.6986   -5.3522  -12.8546 S   0  0  0  0  0  0  0  0  0  0  0  0
   20.6187   -4.7195  -14.8697 C   0  0  0  0  0  0  0  0  0  0  0  0
   21.0033   -3.7593  -14.1538 O   0  0  0  0  0  0  0  0  0  0  0  0
   20.3540   -4.4811  -16.1967 O   0  0  0  0  0  0  0  0  0  0  0  0
  2  1  1  0
  3  2  1  0
  4  3  2  0
  6  5  1  6
  6  7  1  0
  6  8  1  0
  8  9  1  1
  9  3  1  0
 10  8  1  0
 10 12  1  0
 11 10  2  0
 13 14  1  6
 13 12  1  0
 13 16  1  0
 14 15  1  0
 16 18  1  0
 17 16  2  0
M  END
$$$$
