GTC.pdb
     RDKit          3D

 18 17  0  0  1  0  0  0  0  0999 V2000
   18.7390  -13.2170  -16.1260 N   0  0  0  0  0  0  0  0  0  0  0  0
   20.0006  -12.5972  -16.4691 C   0  0  0  0  0  0  0  0  0  0  0  0
   19.7799  -11.1702  -16.7236 C   0  0  0  0  0  0  0  0  0  0  0  0
   18.9034  -10.8200  -17.5562 O   0  0  0  0  0  0  0  0  0  0  0  0
   17.7749   -9.3085  -16.6503 C   0  0  0  0  0  0  0  0  0  0  0  0
   18.7532   -8.5737  -15.7645 C   0  0  1  0  0  0  0  0  0  0  0  0
   18.6157   -8.9694  -14.4581 O   0  0  0  0  0  0  0  0  0  0  0  0
   20.1798   -8.7731  -16.2347 C   0  0  2  0  0  0  0  0  0  0  0  0
   20.5278  -10.1886  -16.0561 N   0  0  0  0  0  0  0  0  0  0  0  0
   21.1331   -7.9163  -15.4829 C   0  0  0  0  0  0  0  0  0  0  0  0
   21.7489   -8.3548  -14.4573 O   0  0  0  0  0  0  0  0  0  0  0  0
   21.3900   -6.5902  -15.8777 N   0  0  0  0  0  0  0  0  0  0  0  0
   22.4138   -5.7730  -15.2522 C   0  0  1  0  0  0  0  0  0  0  0  0
   23.0455   -4.8073  -16.2046 C   0  0  0  0  0  0  0  0  0  0  0  0
   24.2917   -3.8568  -15.2866 S   0  0  0  0  0  0  0  0  0  0  0  0
   21.8845   -5.0123  -14.0963 C   0  0  0  0  0  0  0  0  0  0  0  0
   20.7777   -4.4355  -14.2538 O   0  0  0  0  0  0  0  0  0  0  0  0
   22.5149   -4.8976  -12.8810 O   0  0  0  0  0  0  0  0  0  0  0  0
  2  1  1  0
  3  2  1  0
  4  3  2  0
  6  5  1  6
  6  7  1  0
  6  8  1  0
  8  9  1  1
  9  3  1  0
 10  8  1  0
 10 12  1  0
 11 10  2  0
 13 14  1  6
 13 12  1  0
 13 16  1  0
 14 15  1  0
 16 18  1  0
 17 16  2  0
M  END
$$$$
