GTC.pdb
     RDKit          3D

 18 17  0  0  1  0  0  0  0  0999 V2000
   13.1260   -8.2111   -7.1836 N   0  0  0  0  0  0  0  0  0  0  0  0
   14.4429   -7.6504   -7.3956 C   0  0  0  0  0  0  0  0  0  0  0  0
   14.8654   -7.9266   -8.7721 C   0  0  0  0  0  0  0  0  0  0  0  0
   14.0407   -8.4229   -9.5833 O   0  0  0  0  0  0  0  0  0  0  0  0
   14.1706   -6.5305  -11.0439 C   0  0  0  0  0  0  0  0  0  0  0  0
   15.6596   -6.2944  -11.1373 C   0  0  1  0  0  0  0  0  0  0  0  0
   16.0152   -5.1638  -10.4465 O   0  0  0  0  0  0  0  0  0  0  0  0
   16.4402   -7.4928  -10.6368 C   0  0  2  0  0  0  0  0  0  0  0  0
   16.1718   -7.6478   -9.2013 N   0  0  0  0  0  0  0  0  0  0  0  0
   17.8997   -7.3355  -10.8671 C   0  0  0  0  0  0  0  0  0  0  0  0
   18.6259   -6.6586  -10.0685 O   0  0  0  0  0  0  0  0  0  0  0  0
   18.5318   -7.9295  -11.9753 N   0  0  0  0  0  0  0  0  0  0  0  0
   19.9657   -7.8563  -12.1892 C   0  0  1  0  0  0  0  0  0  0  0  0
   20.5424   -9.1420  -12.6922 C   0  0  0  0  0  0  0  0  0  0  0  0
   22.3375   -8.9191  -12.8558 S   0  0  0  0  0  0  0  0  0  0  0  0
   20.3290   -6.7774  -13.1374 C   0  0  0  0  0  0  0  0  0  0  0  0
   19.5947   -6.6385  -14.1493 O   0  0  0  0  0  0  0  0  0  0  0  0
   21.4005   -5.9309  -12.9855 O   0  0  0  0  0  0  0  0  0  0  0  0
  2  1  1  0
  3  2  1  0
  4  3  2  0
  6  5  1  1
  6  7  1  0
  6  8  1  0
  8  9  1  1
  9  3  1  0
 10  8  1  0
 10 12  1  0
 11 10  2  0
 13 14  1  6
 13 12  1  0
 13 16  1  0
 14 15  1  0
 16 18  1  0
 17 16  2  0
M  END
$$$$
