GTC.pdb
     RDKit          3D

 18 17  0  0  1  0  0  0  0  0999 V2000
   17.5495  -13.0846  -16.1046 N   0  0  0  0  0  0  0  0  0  0  0  0
   18.5559  -12.4363  -15.2918 C   0  0  0  0  0  0  0  0  0  0  0  0
   18.7609  -11.0699  -15.7823 C   0  0  0  0  0  0  0  0  0  0  0  0
   19.3306  -10.8907  -16.8903 O   0  0  0  0  0  0  0  0  0  0  0  0
   16.2717   -8.7549  -16.8072 C   0  0  0  0  0  0  0  0  0  0  0  0
   17.0746   -8.0247  -15.7567 C   0  0  1  0  0  0  0  0  0  0  0  0
   16.4201   -8.0370  -14.5511 O   0  0  0  0  0  0  0  0  0  0  0  0
   18.4632   -8.6147  -15.6156 C   0  0  2  0  0  0  0  0  0  0  0  0
   18.3338   -9.9592  -15.0393 N   0  0  0  0  0  0  0  0  0  0  0  0
   19.3345   -7.7739  -14.7542 C   0  0  0  0  0  0  0  0  0  0  0  0
   19.6799   -8.1569  -13.5892 O   0  0  0  0  0  0  0  0  0  0  0  0
   19.8100   -6.5249  -15.1954 N   0  0  0  0  0  0  0  0  0  0  0  0
   20.6379   -5.6670  -14.3673 C   0  0  1  0  0  0  0  0  0  0  0  0
   22.1011   -5.8712  -14.6040 C   0  0  0  0  0  0  0  0  0  0  0  0
   23.0033   -4.7063  -13.5420 S   0  0  0  0  0  0  0  0  0  0  0  0
   20.3261   -4.2331  -14.5715 C   0  0  0  0  0  0  0  0  0  0  0  0
   20.0028   -3.8817  -15.7353 O   0  0  0  0  0  0  0  0  0  0  0  0
   20.3665   -3.2761  -13.5866 O   0  0  0  0  0  0  0  0  0  0  0  0
  2  1  1  0
  3  2  1  0
  4  3  2  0
  6  5  1  6
  6  7  1  0
  6  8  1  0
  8  9  1  1
  9  3  1  0
 10  8  1  0
 10 12  1  0
 11 10  2  0
 13 14  1  6
 13 12  1  0
 13 16  1  0
 14 15  1  0
 16 18  1  0
 17 16  2  0
M  END
$$$$
