KPW.pdb
     RDKit          3D

 31 33  0  0  1  0  0  0  0  0999 V2000
   26.6799  -23.2250  -17.1643 N   0  0  0  0  0  0  0  0  0  0  0  0
   26.5025  -21.9261  -16.6090 C   0  0  1  0  0  0  0  0  0  0  0  0
   25.0788  -21.4681  -16.7589 C   0  0  0  0  0  0  0  0  0  0  0  0
   24.6320  -21.3696  -18.1769 C   0  0  0  0  0  0  0  0  0  0  0  0
   23.2338  -20.8293  -18.3422 C   0  0  0  0  0  0  0  0  0  0  0  0
   22.7428  -20.8628  -19.7498 C   0  0  0  0  0  0  0  0  0  0  0  0
   21.3695  -20.4124  -19.8862 N   0  0  0  0  0  0  0  0  0  0  0  0
   26.9162  -21.8686  -15.1709 C   0  0  0  0  0  0  0  0  0  0  0  0
   27.1143  -22.9593  -14.5485 O   0  0  0  0  0  0  0  0  0  0  0  0
   27.0949  -20.6439  -14.4767 N   0  0  0  0  0  0  0  0  0  0  0  0
   26.8483  -19.2906  -14.9206 C   0  0  0  0  0  0  0  0  0  0  0  0
   27.5689  -18.3746  -13.9226 C   0  0  0  0  0  0  0  0  0  0  0  0
   28.5294  -19.3508  -13.2196 C   0  0  0  0  0  0  0  0  0  0  0  0
   27.5796  -20.5533  -13.1185 C   0  0  1  0  0  0  0  0  0  0  0  0
   26.5093  -20.1164  -12.1726 C   0  0  0  0  0  0  0  0  0  0  0  0
   25.4119  -19.6367  -12.5539 O   0  0  0  0  0  0  0  0  0  0  0  0
   26.7134  -20.2360  -10.7963 N   0  0  0  0  0  0  0  0  0  0  0  0
   26.0074  -21.0842   -9.8799 C   0  0  1  0  0  0  0  0  0  0  0  0
   26.7344  -21.4936   -8.6776 C   0  0  0  0  0  0  0  0  0  0  0  0
   27.1467  -20.3809   -7.7954 C   0  0  0  0  0  0  0  0  0  0  0  0
   26.8969  -19.0315   -8.0928 C   0  0  0  0  0  0  0  0  0  0  0  0
   27.3455  -18.2511   -7.1092 N   0  0  0  0  0  0  0  0  0  0  0  0
   27.8919  -18.9967   -6.1499 C   0  0  0  0  0  0  0  0  0  0  0  0
   28.4989  -18.7054   -4.9419 C   0  0  0  0  0  0  0  0  0  0  0  0
   28.9894  -19.7031   -4.1461 C   0  0  0  0  0  0  0  0  0  0  0  0
   28.8755  -21.0038   -4.5555 C   0  0  0  0  0  0  0  0  0  0  0  0
   28.2731  -21.2912   -5.7536 C   0  0  0  0  0  0  0  0  0  0  0  0
   27.7681  -20.3217   -6.5786 C   0  0  0  0  0  0  0  0  0  0  0  0
   24.6548  -20.6037   -9.6148 C   0  0  0  0  0  0  0  0  0  0  0  0
   23.8368  -21.2866   -8.9457 O   0  0  0  0  0  0  0  0  0  0  0  0
   24.1843  -19.3720  -10.0786 O   0  0  0  0  0  0  0  0  0  0  0  0
  2  1  1  1
  3  2  1  0
  4  3  1  0
  5  4  1  0
  5  6  1  0
  6  7  1  0
  8  2  1  0
  9  8  2  0
 10  8  1  0
 10 11  1  0
 12 11  1  0
 13 12  1  0
 14 13  1  0
 14 10  1  0
 14 15  1  1
 15 16  2  0
 17 15  1  0
 18 29  1  0
 18 17  1  0
 18 19  1  1
 20 19  1  0
 20 21  2  0
 22 21  1  0
 23 22  1  0
 24 23  2  0
 25 24  1  0
 26 25  2  0
 26 27  1  0
 27 28  2  0
 28 23  1  0
 28 20  1  0
 29 31  1  0
 30 29  2  0
M  END
$$$$
