KPW.pdb
     RDKit          3D

 31 33  0  0  1  0  0  0  0  0999 V2000
   26.8095  -19.7695  -16.6861 N   0  0  0  0  0  0  0  0  0  0  0  0
   27.2988  -19.4123  -15.3977 C   0  0  1  0  0  0  0  0  0  0  0  0
   26.4389  -18.3501  -14.7724 C   0  0  0  0  0  0  0  0  0  0  0  0
   24.9783  -18.6116  -14.9072 C   0  0  0  0  0  0  0  0  0  0  0  0
   24.1063  -17.5561  -14.2752 C   0  0  0  0  0  0  0  0  0  0  0  0
   22.6461  -17.8086  -14.4423 C   0  0  0  0  0  0  0  0  0  0  0  0
   22.1508  -18.8767  -13.5931 N   0  0  0  0  0  0  0  0  0  0  0  0
   27.4021  -20.5971  -14.4877 C   0  0  0  0  0  0  0  0  0  0  0  0
   26.7659  -21.6558  -14.7891 O   0  0  0  0  0  0  0  0  0  0  0  0
   28.1820  -20.5831  -13.3023 N   0  0  0  0  0  0  0  0  0  0  0  0
   28.8895  -19.4872  -12.6798 C   0  0  0  0  0  0  0  0  0  0  0  0
   29.8526  -20.1198  -11.6664 C   0  0  0  0  0  0  0  0  0  0  0  0
   29.8885  -21.5889  -12.1248 C   0  0  0  0  0  0  0  0  0  0  0  0
   28.4002  -21.7440  -12.4701 C   0  0  1  0  0  0  0  0  0  0  0  0
   27.6905  -21.6325  -11.1605 C   0  0  0  0  0  0  0  0  0  0  0  0
   28.2817  -21.6964  -10.0532 O   0  0  0  0  0  0  0  0  0  0  0  0
   26.3064  -21.4485  -11.1388 N   0  0  0  0  0  0  0  0  0  0  0  0
   25.5210  -20.8569  -10.0943 C   0  0  1  0  0  0  0  0  0  0  0  0
   26.1521  -19.7761   -9.3358 C   0  0  0  0  0  0  0  0  0  0  0  0
   26.2082  -19.9970   -7.8748 C   0  0  0  0  0  0  0  0  0  0  0  0
   25.1711  -20.6050   -7.1493 C   0  0  0  0  0  0  0  0  0  0  0  0
   25.5053  -20.7061   -5.8625 N   0  0  0  0  0  0  0  0  0  0  0  0
   26.7209  -20.1974   -5.6666 C   0  0  0  0  0  0  0  0  0  0  0  0
   27.5253  -20.0455   -4.5520 C   0  0  0  0  0  0  0  0  0  0  0  0
   28.7575  -19.4618   -4.6520 C   0  0  0  0  0  0  0  0  0  0  0  0
   29.1947  -19.0243   -5.8726 C   0  0  0  0  0  0  0  0  0  0  0  0
   28.3960  -19.1758   -6.9772 C   0  0  0  0  0  0  0  0  0  0  0  0
   27.1567  -19.7559   -6.9196 C   0  0  0  0  0  0  0  0  0  0  0  0
   24.1618  -20.5533  -10.5316 C   0  0  0  0  0  0  0  0  0  0  0  0
   23.9438  -19.8843  -11.5747 O   0  0  0  0  0  0  0  0  0  0  0  0
   23.0287  -20.9785   -9.8325 O   0  0  0  0  0  0  0  0  0  0  0  0
  2  1  1  6
  3  2  1  0
  4  3  1  0
  5  4  1  0
  5  6  1  0
  6  7  1  0
  8  2  1  0
  9  8  2  0
 10  8  1  0
 10 11  1  0
 12 11  1  0
 13 12  1  0
 14 13  1  0
 14 10  1  0
 14 15  1  1
 15 16  2  0
 17 15  1  0
 18 29  1  0
 18 17  1  0
 18 19  1  6
 20 19  1  0
 20 21  2  0
 22 21  1  0
 23 22  1  0
 24 23  2  0
 25 24  1  0
 26 25  2  0
 26 27  1  0
 27 28  2  0
 28 23  1  0
 28 20  1  0
 29 31  1  0
 30 29  2  0
M  END
$$$$
