KPW.pdb
     RDKit          3D

 31 33  0  0  1  0  0  0  0  0999 V2000
   27.2613  -21.7104  -17.4946 N   0  0  0  0  0  0  0  0  0  0  0  0
   27.4482  -20.7382  -16.4714 C   0  0  1  0  0  0  0  0  0  0  0  0
   26.4199  -19.6468  -16.5737 C   0  0  0  0  0  0  0  0  0  0  0  0
   26.8828  -18.4648  -17.3539 C   0  0  0  0  0  0  0  0  0  0  0  0
   27.0534  -18.7328  -18.8281 C   0  0  0  0  0  0  0  0  0  0  0  0
   27.5267  -17.5479  -19.5999 C   0  0  0  0  0  0  0  0  0  0  0  0
   27.6603  -17.8091  -21.0216 N   0  0  0  0  0  0  0  0  0  0  0  0
   27.4209  -21.3488  -15.1044 C   0  0  0  0  0  0  0  0  0  0  0  0
   26.6702  -22.3542  -14.8996 O   0  0  0  0  0  0  0  0  0  0  0  0
   28.2001  -20.8481  -14.0293 N   0  0  0  0  0  0  0  0  0  0  0  0
   29.1030  -19.7199  -13.9952 C   0  0  0  0  0  0  0  0  0  0  0  0
   29.9415  -19.8808  -12.7202 C   0  0  0  0  0  0  0  0  0  0  0  0
   29.7018  -21.3575  -12.3572 C   0  0  0  0  0  0  0  0  0  0  0  0
   28.2075  -21.4257  -12.7049 C   0  0  1  0  0  0  0  0  0  0  0  0
   27.5418  -20.5373  -11.7055 C   0  0  0  0  0  0  0  0  0  0  0  0
   27.8256  -19.3199  -11.5746 O   0  0  0  0  0  0  0  0  0  0  0  0
   26.5555  -21.0597  -10.8662 N   0  0  0  0  0  0  0  0  0  0  0  0
   25.6532  -20.3318  -10.0215 C   0  0  1  0  0  0  0  0  0  0  0  0
   24.8165  -19.3246  -10.6753 C   0  0  0  0  0  0  0  0  0  0  0  0
   23.9111  -19.8547  -11.7172 C   0  0  0  0  0  0  0  0  0  0  0  0
   22.8471  -20.7277  -11.4388 C   0  0  0  0  0  0  0  0  0  0  0  0
   22.1801  -21.0143  -12.5572 N   0  0  0  0  0  0  0  0  0  0  0  0
   22.7328  -20.3820  -13.5915 C   0  0  0  0  0  0  0  0  0  0  0  0
   22.4509  -20.3348  -14.9446 C   0  0  0  0  0  0  0  0  0  0  0  0
   23.2177  -19.5866  -15.7939 C   0  0  0  0  0  0  0  0  0  0  0  0
   24.2758  -18.8781  -15.2931 C   0  0  0  0  0  0  0  0  0  0  0  0
   24.5540  -18.9256  -13.9510 C   0  0  0  0  0  0  0  0  0  0  0  0
   23.8102  -19.6615  -13.0673 C   0  0  0  0  0  0  0  0  0  0  0  0
   24.9186  -21.2087   -9.1148 C   0  0  0  0  0  0  0  0  0  0  0  0
   24.9156  -22.4571   -9.2707 O   0  0  0  0  0  0  0  0  0  0  0  0
   24.1807  -20.7284   -8.0292 O   0  0  0  0  0  0  0  0  0  0  0  0
  2  1  1  6
  3  2  1  0
  4  3  1  0
  5  4  1  0
  5  6  1  0
  6  7  1  0
  8  2  1  0
  9  8  2  0
 10  8  1  0
 10 11  1  0
 12 11  1  0
 13 12  1  0
 14 13  1  0
 14 10  1  0
 14 15  1  1
 15 16  2  0
 17 15  1  0
 18 29  1  0
 18 17  1  0
 18 19  1  6
 20 19  1  0
 20 21  2  0
 22 21  1  0
 23 22  1  0
 24 23  2  0
 25 24  1  0
 26 25  2  0
 26 27  1  0
 27 28  2  0
 28 23  1  0
 28 20  1  0
 29 31  1  0
 30 29  2  0
M  END
$$$$
