KPW.pdb
     RDKit          3D

 31 33  0  0  1  0  0  0  0  0999 V2000
   27.8158  -21.5783  -17.2590 N   0  0  0  0  0  0  0  0  0  0  0  0
   27.8669  -20.5876  -16.2378 C   0  0  1  0  0  0  0  0  0  0  0  0
   26.8707  -19.4933  -16.5011 C   0  0  0  0  0  0  0  0  0  0  0  0
   27.2073  -18.6552  -17.6860 C   0  0  0  0  0  0  0  0  0  0  0  0
   26.4428  -19.0224  -18.9329 C   0  0  0  0  0  0  0  0  0  0  0  0
   26.7112  -18.1167  -20.0868 C   0  0  0  0  0  0  0  0  0  0  0  0
   26.0447  -16.8323  -19.9714 N   0  0  0  0  0  0  0  0  0  0  0  0
   27.6465  -21.1719  -14.8767 C   0  0  0  0  0  0  0  0  0  0  0  0
   26.8104  -22.1210  -14.7478 O   0  0  0  0  0  0  0  0  0  0  0  0
   28.3344  -20.7068  -13.7261 N   0  0  0  0  0  0  0  0  0  0  0  0
   29.2947  -19.6339  -13.5997 C   0  0  0  0  0  0  0  0  0  0  0  0
   29.9800  -19.8305  -12.2410 C   0  0  0  0  0  0  0  0  0  0  0  0
   29.6142  -21.2863  -11.8994 C   0  0  0  0  0  0  0  0  0  0  0  0
   28.1646  -21.2693  -12.4060 C   0  0  1  0  0  0  0  0  0  0  0  0
   27.4501  -20.3321  -11.4882 C   0  0  0  0  0  0  0  0  0  0  0  0
   27.6213  -19.0872  -11.5110 O   0  0  0  0  0  0  0  0  0  0  0  0
   26.5450  -20.8379  -10.5527 N   0  0  0  0  0  0  0  0  0  0  0  0
   25.6488  -20.0943   -9.7152 C   0  0  1  0  0  0  0  0  0  0  0  0
   24.7371  -19.1715  -10.3927 C   0  0  0  0  0  0  0  0  0  0  0  0
   23.8791  -19.7949  -11.4230 C   0  0  0  0  0  0  0  0  0  0  0  0
   22.8069  -20.6482  -11.1164 C   0  0  0  0  0  0  0  0  0  0  0  0
   22.1896  -21.0340  -12.2335 N   0  0  0  0  0  0  0  0  0  0  0  0
   22.7842  -20.4886  -13.2936 C   0  0  0  0  0  0  0  0  0  0  0  0
   22.5607  -20.5592  -14.6566 C   0  0  0  0  0  0  0  0  0  0  0  0
   23.3608  -19.8810  -15.5335 C   0  0  0  0  0  0  0  0  0  0  0  0
   24.3941  -19.1250  -15.0506 C   0  0  0  0  0  0  0  0  0  0  0  0
   24.6145  -19.0557  -13.6988 C   0  0  0  0  0  0  0  0  0  0  0  0
   23.8357  -19.7185  -12.7877 C   0  0  0  0  0  0  0  0  0  0  0  0
   24.9978  -20.9389   -8.7184 C   0  0  0  0  0  0  0  0  0  0  0  0
   25.0975  -22.1925   -8.7567 O   0  0  0  0  0  0  0  0  0  0  0  0
   24.2320  -20.4203   -7.6704 O   0  0  0  0  0  0  0  0  0  0  0  0
  2  1  1  6
  3  2  1  0
  4  3  1  0
  5  4  1  0
  5  6  1  0
  6  7  1  0
  8  2  1  0
  9  8  2  0
 10  8  1  0
 10 11  1  0
 12 11  1  0
 13 12  1  0
 14 13  1  0
 14 10  1  0
 14 15  1  1
 15 16  2  0
 17 15  1  0
 18 29  1  0
 18 17  1  0
 18 19  1  6
 20 19  1  0
 20 21  2  0
 22 21  1  0
 23 22  1  0
 24 23  2  0
 25 24  1  0
 26 25  2  0
 26 27  1  0
 27 28  2  0
 28 23  1  0
 28 20  1  0
 29 31  1  0
 30 29  2  0
M  END
$$$$
