KPW.pdb
     RDKit          3D

 31 33  0  0  1  0  0  0  0  0999 V2000
   25.1367  -22.3108  -17.0440 N   0  0  0  0  0  0  0  0  0  0  0  0
   25.6619  -21.2002  -16.3244 C   0  0  1  0  0  0  0  0  0  0  0  0
   24.5970  -20.1688  -16.0771 C   0  0  0  0  0  0  0  0  0  0  0  0
   23.4235  -20.6941  -15.3242 C   0  0  0  0  0  0  0  0  0  0  0  0
   22.2231  -20.9878  -16.1884 C   0  0  0  0  0  0  0  0  0  0  0  0
   21.0323  -21.4509  -15.4195 C   0  0  0  0  0  0  0  0  0  0  0  0
   19.8997  -21.7810  -16.2655 N   0  0  0  0  0  0  0  0  0  0  0  0
   26.2907  -21.6158  -15.0304 C   0  0  0  0  0  0  0  0  0  0  0  0
   26.1359  -22.8136  -14.6332 O   0  0  0  0  0  0  0  0  0  0  0  0
   27.0518  -20.7241  -14.2309 N   0  0  0  0  0  0  0  0  0  0  0  0
   27.3475  -19.3249  -14.4405 C   0  0  0  0  0  0  0  0  0  0  0  0
   28.5021  -18.9840  -13.4891 C   0  0  0  0  0  0  0  0  0  0  0  0
   29.0382  -20.3778  -13.1153 C   0  0  0  0  0  0  0  0  0  0  0  0
   27.6896  -21.1017  -12.9905 C   0  0  1  0  0  0  0  0  0  0  0  0
   27.0265  -20.4733  -11.8088 C   0  0  0  0  0  0  0  0  0  0  0  0
   26.2520  -19.4878  -11.9013 O   0  0  0  0  0  0  0  0  0  0  0  0
   27.2619  -20.9861  -10.5314 N   0  0  0  0  0  0  0  0  0  0  0  0
   26.2876  -21.4168   -9.5707 C   0  0  1  0  0  0  0  0  0  0  0  0
   26.7744  -21.6608   -8.2123 C   0  0  0  0  0  0  0  0  0  0  0  0
   27.2396  -20.4537   -7.4960 C   0  0  0  0  0  0  0  0  0  0  0  0
   26.9233  -19.1481   -7.9047 C   0  0  0  0  0  0  0  0  0  0  0  0
   27.4440  -18.2600   -7.0574 N   0  0  0  0  0  0  0  0  0  0  0  0
   28.1035  -18.8900   -6.0862 C   0  0  0  0  0  0  0  0  0  0  0  0
   28.8180  -18.4617   -4.9823 C   0  0  0  0  0  0  0  0  0  0  0  0
   29.4128  -19.3606   -4.1413 C   0  0  0  0  0  0  0  0  0  0  0  0
   29.2964  -20.6991   -4.4003 C   0  0  0  0  0  0  0  0  0  0  0  0
   28.5873  -21.1224   -5.4953 C   0  0  0  0  0  0  0  0  0  0  0  0
   27.9760  -20.2549   -6.3609 C   0  0  0  0  0  0  0  0  0  0  0  0
   25.0693  -20.6146   -9.6241 C   0  0  0  0  0  0  0  0  0  0  0  0
   25.0963  -19.4052   -9.9699 O   0  0  0  0  0  0  0  0  0  0  0  0
   23.8102  -21.1277   -9.3001 O   0  0  0  0  0  0  0  0  0  0  0  0
  2  1  1  1
  3  2  1  0
  4  3  1  0
  5  4  1  0
  5  6  1  0
  6  7  1  0
  8  2  1  0
  9  8  2  0
 10  8  1  0
 10 11  1  0
 12 11  1  0
 13 12  1  0
 14 13  1  0
 14 10  1  0
 14 15  1  1
 15 16  2  0
 17 15  1  0
 18 29  1  0
 18 17  1  0
 18 19  1  1
 20 19  1  0
 20 21  2  0
 22 21  1  0
 23 22  1  0
 24 23  2  0
 25 24  1  0
 26 25  2  0
 26 27  1  0
 27 28  2  0
 28 23  1  0
 28 20  1  0
 29 31  1  0
 30 29  2  0
M  END
$$$$
