EVD.pdb
     RDKit          3D

 25 24  0  0  1  0  0  0  0  0999 V2000
    9.0864  -17.5958   16.8457 N   0  0  0  0  0  0  0  0  0  0  0  0
    8.1648  -17.3663   17.9335 C   0  0  1  0  0  0  0  0  0  0  0  0
    7.7191  -18.6728   18.5659 C   0  0  0  0  0  0  0  0  0  0  0  0
    7.2638  -19.6572   17.5066 C   0  0  0  0  0  0  0  0  0  0  0  0
    6.7388  -20.8634   18.1601 C   0  0  0  0  0  0  0  0  0  0  0  0
    7.3721  -21.9538   18.1691 O   0  0  0  0  0  0  0  0  0  0  0  0
    8.7308  -16.5205   19.0129 C   0  0  0  0  0  0  0  0  0  0  0  0
    9.9702  -16.5499   19.2964 O   0  0  0  0  0  0  0  0  0  0  0  0
    5.5136  -20.8295   18.7914 O   0  0  0  0  0  0  0  0  0  0  0  0
    8.1190  -13.1067   22.4896 C   0  0  0  0  0  0  0  0  0  0  0  0
    7.5484  -13.7450   21.2375 C   0  0  1  0  0  0  0  0  0  0  0  0
    7.5381  -12.7588   20.0711 C   0  0  0  0  0  0  0  0  0  0  0  0
    8.4475  -14.8827   20.8452 C   0  0  2  0  0  0  0  0  0  0  0  0
    7.8794  -15.6585   19.7490 N   0  0  0  0  0  0  0  0  0  0  0  0
    8.5380  -15.8105   22.0263 C   0  0  0  0  0  0  0  0  0  0  0  0
    7.5906  -16.5280   22.3997 O   0  0  0  0  0  0  0  0  0  0  0  0
    9.7578  -15.8417   22.7110 N   0  0  0  0  0  0  0  0  0  0  0  0
   10.0107  -16.7384   23.8619 C   0  0  1  0  0  0  0  0  0  0  0  0
   11.3421  -17.3514   23.5815 C   0  0  0  0  0  0  0  0  0  0  0  0
   11.9490  -18.1262   24.6484 C   0  0  0  0  0  0  0  0  0  0  0  0
   11.1750  -18.6444   25.4963 O   0  0  0  0  0  0  0  0  0  0  0  0
    9.9526  -15.8835   25.0575 C   0  0  0  0  0  0  0  0  0  0  0  0
    9.5164  -16.3935   26.2564 O   0  0  0  0  0  0  0  0  0  0  0  0
   13.3021  -18.3284   24.7915 O   0  0  0  0  0  0  0  0  0  0  0  0
   10.2969  -14.6824   25.0024 O   0  0  0  0  0  0  0  0  0  0  0  0
  2  1  1  6
  2  7  1  0
  3  2  1  0
  4  3  1  0
  5  4  1  0
  6  5  2  0
  7  8  2  0
  9  5  1  0
 11 10  1  1
 11 12  1  0
 13 11  1  0
 14  7  1  0
 13 14  1  6
 15 17  1  0
 15 13  1  0
 16 15  2  0
 18 22  1  0
 18 19  1  6
 18 17  1  0
 19 20  1  0
 20 21  2  0
 20 24  1  0
 22 23  1  0
 25 22  2  0
M  END
$$$$
