EVD.pdb
     RDKit          3D

 25 24  0  0  1  0  0  0  0  0999 V2000
    7.0244  -16.5751   22.3964 N   0  0  0  0  0  0  0  0  0  0  0  0
    8.2258  -15.8104   22.1569 C   0  0  1  0  0  0  0  0  0  0  0  0
    8.1004  -14.9610   20.9046 C   0  0  0  0  0  0  0  0  0  0  0  0
    7.2347  -15.6513   19.8689 C   0  0  0  0  0  0  0  0  0  0  0  0
    8.0600  -16.0064   18.7068 C   0  0  0  0  0  0  0  0  0  0  0  0
    9.3078  -15.8255   18.6870 O   0  0  0  0  0  0  0  0  0  0  0  0
    8.5757  -14.9023   23.2765 C   0  0  0  0  0  0  0  0  0  0  0  0
    9.6146  -14.1699   23.2353 O   0  0  0  0  0  0  0  0  0  0  0  0
    7.4751  -16.5569   17.5863 O   0  0  0  0  0  0  0  0  0  0  0  0
    7.4065  -12.4345   27.2834 C   0  0  0  0  0  0  0  0  0  0  0  0
    6.9240  -13.3034   26.1375 C   0  0  1  0  0  0  0  0  0  0  0  0
    6.2672  -12.4613   25.0454 C   0  0  0  0  0  0  0  0  0  0  0  0
    8.1226  -13.9673   25.5216 C   0  0  2  0  0  0  0  0  0  0  0  0
    7.7403  -14.8434   24.4203 N   0  0  0  0  0  0  0  0  0  0  0  0
    8.7392  -14.8463   26.5757 C   0  0  0  0  0  0  0  0  0  0  0  0
    9.1542  -14.4092   27.6660 O   0  0  0  0  0  0  0  0  0  0  0  0
    8.8331  -16.2110   26.2821 N   0  0  0  0  0  0  0  0  0  0  0  0
    9.3881  -17.2014   27.2329 C   0  0  1  0  0  0  0  0  0  0  0  0
    8.9333  -18.5243   26.7131 C   0  0  0  0  0  0  0  0  0  0  0  0
    9.5180  -19.7068   27.3186 C   0  0  0  0  0  0  0  0  0  0  0  0
   10.1236  -19.5546   28.4125 O   0  0  0  0  0  0  0  0  0  0  0  0
   10.8439  -16.9916   27.2272 C   0  0  0  0  0  0  0  0  0  0  0  0
   11.5101  -16.7083   28.3950 O   0  0  0  0  0  0  0  0  0  0  0  0
    9.4540  -20.9706   26.7792 O   0  0  0  0  0  0  0  0  0  0  0  0
   11.4969  -17.0663   26.1630 O   0  0  0  0  0  0  0  0  0  0  0  0
  2  1  1  1
  2  7  1  0
  3  2  1  0
  4  3  1  0
  5  4  1  0
  6  5  2  0
  7  8  2  0
  9  5  1  0
 11 10  1  1
 11 12  1  0
 13 11  1  0
 14  7  1  0
 13 14  1  6
 15 17  1  0
 15 13  1  0
 16 15  2  0
 18 22  1  0
 18 19  1  6
 18 17  1  0
 19 20  1  0
 20 21  2  0
 20 24  1  0
 22 23  1  0
 25 22  2  0
M  END
$$$$
