EVD.pdb
     RDKit          3D

 25 24  0  0  1  0  0  0  0  0999 V2000
    7.6894  -14.5713   20.6177 N   0  0  0  0  0  0  0  0  0  0  0  0
    7.2689  -15.1674   21.8639 C   0  0  1  0  0  0  0  0  0  0  0  0
    7.4762  -16.6715   21.8554 C   0  0  0  0  0  0  0  0  0  0  0  0
    7.5093  -17.2036   20.4362 C   0  0  0  0  0  0  0  0  0  0  0  0
    7.6596  -18.6644   20.4699 C   0  0  0  0  0  0  0  0  0  0  0  0
    8.7472  -19.2221   20.7800 O   0  0  0  0  0  0  0  0  0  0  0  0
    7.9868  -14.6266   23.0442 C   0  0  0  0  0  0  0  0  0  0  0  0
    9.1963  -14.2416   22.9647 O   0  0  0  0  0  0  0  0  0  0  0  0
    6.5908  -19.4763   20.1551 O   0  0  0  0  0  0  0  0  0  0  0  0
    7.8827  -12.5707   27.4437 C   0  0  0  0  0  0  0  0  0  0  0  0
    7.0731  -13.1842   26.3171 C   0  0  1  0  0  0  0  0  0  0  0  0
    6.4014  -12.1054   25.4696 C   0  0  0  0  0  0  0  0  0  0  0  0
    8.0187  -13.9272   25.4169 C   0  0  2  0  0  0  0  0  0  0  0  0
    7.3182  -14.5335   24.2908 N   0  0  0  0  0  0  0  0  0  0  0  0
    8.6046  -15.0583   26.2177 C   0  0  0  0  0  0  0  0  0  0  0  0
    7.9258  -16.0141   26.6392 O   0  0  0  0  0  0  0  0  0  0  0  0
    9.9775  -14.9993   26.4804 N   0  0  0  0  0  0  0  0  0  0  0  0
   10.7015  -16.0611   27.2161 C   0  0  1  0  0  0  0  0  0  0  0  0
   12.1452  -15.7902   26.9526 C   0  0  0  0  0  0  0  0  0  0  0  0
   12.6320  -16.0574   25.6116 C   0  0  0  0  0  0  0  0  0  0  0  0
   11.8575  -16.6685   24.8285 O   0  0  0  0  0  0  0  0  0  0  0  0
   10.2849  -15.9320   28.6208 C   0  0  0  0  0  0  0  0  0  0  0  0
   10.2703  -17.0308   29.4455 O   0  0  0  0  0  0  0  0  0  0  0  0
   13.8731  -15.6900   25.1459 O   0  0  0  0  0  0  0  0  0  0  0  0
    9.9372  -14.8241   29.0858 O   0  0  0  0  0  0  0  0  0  0  0  0
  2  1  1  6
  2  7  1  0
  3  2  1  0
  4  3  1  0
  5  4  1  0
  6  5  2  0
  7  8  2  0
  9  5  1  0
 11 10  1  1
 11 12  1  0
 13 11  1  0
 14  7  1  0
 13 14  1  6
 15 17  1  0
 15 13  1  0
 16 15  2  0
 18 22  1  0
 18 19  1  1
 18 17  1  0
 19 20  1  0
 20 21  2  0
 20 24  1  0
 22 23  1  0
 25 22  2  0
M  END
$$$$
