VSI.pdb
     RDKit          3D

 22 21  0  0  1  0  0  0  0  0999 V2000
    8.1635  -12.6640   18.0262 C   0  0  0  0  0  0  0  0  0  0  0  0
    7.8159  -13.4211   19.2938 C   0  0  2  0  0  0  0  0  0  0  0  0
    8.3525  -12.7340   20.5086 C   0  0  0  0  0  0  0  0  0  0  0  0
    8.2785  -14.8593   19.2248 C   0  0  2  0  0  0  0  0  0  0  0  0
    7.7299  -15.5745   18.1184 N   0  0  0  0  0  0  0  0  0  0  0  0
    7.8682  -15.5247   20.4830 C   0  0  0  0  0  0  0  0  0  0  0  0
    6.6889  -15.8957   20.6600 O   0  0  0  0  0  0  0  0  0  0  0  0
    8.3322  -18.3572   24.0506 O   0  0  0  0  0  0  0  0  0  0  0  0
    8.7424  -17.8549   22.8219 C   0  0  0  0  0  0  0  0  0  0  0  0
    8.4101  -16.3950   22.7374 C   0  0  2  0  0  0  0  0  0  0  0  0
    8.7887  -15.7650   21.5267 N   0  0  0  0  0  0  0  0  0  0  0  0
    8.9459  -15.6368   23.8843 C   0  0  0  0  0  0  0  0  0  0  0  0
   10.1647  -15.3621   23.9407 O   0  0  0  0  0  0  0  0  0  0  0  0
    5.6946  -11.9389   25.8187 C   0  0  0  0  0  0  0  0  0  0  0  0
    6.8799  -12.7724   25.3734 C   0  0  0  0  0  0  0  0  0  0  0  0
    7.4994  -13.5179   26.5301 C   0  0  2  0  0  0  0  0  0  0  0  0
    8.0105  -12.6221   27.6102 C   0  0  0  0  0  0  0  0  0  0  0  0
    8.5901  -14.4299   26.0464 C   0  0  2  0  0  0  0  0  0  0  0  0
    8.1018  -15.2081   24.9346 N   0  0  0  0  0  0  0  0  0  0  0  0
    9.0771  -15.3362   27.1231 C   0  0  0  0  0  0  0  0  0  0  0  0
    8.5002  -16.4175   27.3964 O   0  0  0  0  0  0  0  0  0  0  0  0
   10.2017  -15.0004   27.8639 O   0  0  0  0  0  0  0  0  0  0  0  0
  2  1  1  6
  3  2  1  0
  4  2  1  0
  4  5  1  6
  6  4  1  0
  6  7  2  0
  8  9  1  0
 10  9  1  6
 10 11  1  0
 10 12  1  0
 11  6  1  0
 12 13  2  0
 12 19  1  0
 14 15  1  0
 16 17  1  1
 16 15  1  0
 18 16  1  0
 18 19  1  6
 20 22  1  0
 20 18  1  0
 21 20  2  0
M  END
$$$$
