VSI.pdb
     RDKit          3D

 22 21  0  0  1  0  0  0  0  0999 V2000
    7.5022  -13.1321   21.4050 C   0  0  0  0  0  0  0  0  0  0  0  0
    8.6161  -13.3800   20.4057 C   0  0  2  0  0  0  0  0  0  0  0  0
    8.5729  -12.3970   19.2798 C   0  0  0  0  0  0  0  0  0  0  0  0
    8.5962  -14.8034   19.8952 C   0  0  2  0  0  0  0  0  0  0  0  0
    7.4534  -15.0976   19.0926 N   0  0  0  0  0  0  0  0  0  0  0  0
    8.6062  -15.7035   21.0717 C   0  0  0  0  0  0  0  0  0  0  0  0
    7.5406  -16.1198   21.5726 O   0  0  0  0  0  0  0  0  0  0  0  0
   11.7744  -18.1580   22.0188 O   0  0  0  0  0  0  0  0  0  0  0  0
   10.4772  -18.3508   22.4773 C   0  0  0  0  0  0  0  0  0  0  0  0
    9.8412  -17.0235   22.7645 C   0  0  2  0  0  0  0  0  0  0  0  0
    9.8139  -16.1245   21.6704 N   0  0  0  0  0  0  0  0  0  0  0  0
   10.4420  -16.3630   23.9393 C   0  0  0  0  0  0  0  0  0  0  0  0
   11.3678  -15.5356   23.7889 O   0  0  0  0  0  0  0  0  0  0  0  0
    9.3992  -12.9048   28.3542 C   0  0  0  0  0  0  0  0  0  0  0  0
   10.2208  -14.1293   28.0027 C   0  0  0  0  0  0  0  0  0  0  0  0
    9.6473  -14.8587   26.8125 C   0  0  2  0  0  0  0  0  0  0  0  0
    8.2505  -15.3416   27.0268 C   0  0  0  0  0  0  0  0  0  0  0  0
   10.5397  -15.9984   26.4122 C   0  0  2  0  0  0  0  0  0  0  0  0
    9.9892  -16.6480   25.2482 N   0  0  0  0  0  0  0  0  0  0  0  0
   10.7070  -16.9881   27.5123 C   0  0  0  0  0  0  0  0  0  0  0  0
    9.9767  -18.0048   27.6116 O   0  0  0  0  0  0  0  0  0  0  0  0
   11.6929  -16.8065   28.4721 O   0  0  0  0  0  0  0  0  0  0  0  0
  2  1  1  1
  3  2  1  0
  4  2  1  0
  4  5  1  1
  6  4  1  0
  6  7  2  0
  8  9  1  0
 10  9  1  6
 10 11  1  0
 10 12  1  0
 11  6  1  0
 12 13  2  0
 12 19  1  0
 14 15  1  0
 16 17  1  1
 16 15  1  0
 18 16  1  0
 18 19  1  6
 20 22  1  0
 20 18  1  0
 21 20  2  0
M  END
$$$$
