VSI.pdb
     RDKit          3D

 22 21  0  0  1  0  0  0  0  0999 V2000
    8.1885  -12.6361   17.6288 C   0  0  0  0  0  0  0  0  0  0  0  0
    7.8402  -13.4035   18.8900 C   0  0  2  0  0  0  0  0  0  0  0  0
    8.2232  -12.6430   20.1192 C   0  0  0  0  0  0  0  0  0  0  0  0
    8.4529  -14.7861   18.8845 C   0  0  2  0  0  0  0  0  0  0  0  0
    8.0007  -15.5977   17.8011 N   0  0  0  0  0  0  0  0  0  0  0  0
    8.0947  -15.4421   20.1633 C   0  0  0  0  0  0  0  0  0  0  0  0
    6.9623  -15.9397   20.3364 O   0  0  0  0  0  0  0  0  0  0  0  0
    9.0115  -18.1228   23.7960 O   0  0  0  0  0  0  0  0  0  0  0  0
    9.3164  -17.5830   22.5526 C   0  0  0  0  0  0  0  0  0  0  0  0
    8.7108  -16.2163   22.4337 C   0  0  2  0  0  0  0  0  0  0  0  0
    9.0138  -15.5309   21.2318 N   0  0  0  0  0  0  0  0  0  0  0  0
    9.0368  -15.3623   23.5920 C   0  0  0  0  0  0  0  0  0  0  0  0
   10.1566  -14.8106   23.6694 O   0  0  0  0  0  0  0  0  0  0  0  0
    6.4798  -11.3237   27.2197 C   0  0  0  0  0  0  0  0  0  0  0  0
    7.5294  -12.4122   27.1115 C   0  0  0  0  0  0  0  0  0  0  0  0
    7.2410  -13.3482   25.9633 C   0  0  2  0  0  0  0  0  0  0  0  0
    5.9571  -14.0961   26.1133 C   0  0  0  0  0  0  0  0  0  0  0  0
    8.3827  -14.3028   25.7616 C   0  0  2  0  0  0  0  0  0  0  0  0
    8.1000  -15.1508   24.6297 N   0  0  0  0  0  0  0  0  0  0  0  0
    8.6312  -15.1376   26.9696 C   0  0  0  0  0  0  0  0  0  0  0  0
    9.1204  -14.6587   28.0223 O   0  0  0  0  0  0  0  0  0  0  0  0
    8.3219  -16.4906   26.9601 O   0  0  0  0  0  0  0  0  0  0  0  0
  2  1  1  6
  3  2  1  0
  4  2  1  0
  4  5  1  6
  6  4  1  0
  6  7  2  0
  8  9  1  0
 10  9  1  1
 10 11  1  0
 10 12  1  0
 11  6  1  0
 12 13  2  0
 12 19  1  0
 14 15  1  0
 16 17  1  1
 16 15  1  0
 18 16  1  0
 18 19  1  6
 20 22  1  0
 20 18  1  0
 21 20  2  0
M  END
$$$$
