VSI.pdb
     RDKit          3D

 22 21  0  0  1  0  0  0  0  0999 V2000
    7.7783  -12.8604   18.7506 C   0  0  0  0  0  0  0  0  0  0  0  0
    7.6898  -13.5306   20.1084 C   0  0  2  0  0  0  0  0  0  0  0  0
    8.5706  -12.8573   21.1118 C   0  0  0  0  0  0  0  0  0  0  0  0
    7.9899  -15.0100   20.0169 C   0  0  2  0  0  0  0  0  0  0  0  0
    7.1438  -15.7001   19.0978 N   0  0  0  0  0  0  0  0  0  0  0  0
    7.8114  -15.5898   21.3682 C   0  0  0  0  0  0  0  0  0  0  0  0
    6.6744  -15.7170   21.8690 O   0  0  0  0  0  0  0  0  0  0  0  0
   10.6507  -17.9903   23.2691 O   0  0  0  0  0  0  0  0  0  0  0  0
    9.2960  -17.9779   23.5772 C   0  0  0  0  0  0  0  0  0  0  0  0
    8.7576  -16.5862   23.4287 C   0  0  2  0  0  0  0  0  0  0  0  0
    8.9133  -16.0195   22.1400 N   0  0  0  0  0  0  0  0  0  0  0  0
    9.3031  -15.6686   24.4474 C   0  0  0  0  0  0  0  0  0  0  0  0
   10.3590  -15.0371   24.2222 O   0  0  0  0  0  0  0  0  0  0  0  0
    6.5033  -12.0175   26.6057 C   0  0  0  0  0  0  0  0  0  0  0  0
    7.6745  -12.8659   26.1512 C   0  0  0  0  0  0  0  0  0  0  0  0
    8.1962  -13.7352   27.2691 C   0  0  2  0  0  0  0  0  0  0  0  0
    8.7421  -12.9584   28.4218 C   0  0  0  0  0  0  0  0  0  0  0  0
    9.2261  -14.6980   26.7517 C   0  0  2  0  0  0  0  0  0  0  0  0
    8.6509  -15.4846   25.6884 N   0  0  0  0  0  0  0  0  0  0  0  0
    9.7389  -15.5951   27.8241 C   0  0  0  0  0  0  0  0  0  0  0  0
   10.5860  -15.2101   28.6674 O   0  0  0  0  0  0  0  0  0  0  0  0
    9.2838  -16.9028   27.9186 O   0  0  0  0  0  0  0  0  0  0  0  0
  2  1  1  6
  3  2  1  0
  4  2  1  0
  4  5  1  6
  6  4  1  0
  6  7  2  0
  8  9  1  0
 10  9  1  6
 10 11  1  0
 10 12  1  0
 11  6  1  0
 12 13  2  0
 12 19  1  0
 14 15  1  0
 16 17  1  1
 16 15  1  0
 18 16  1  0
 18 19  1  6
 20 22  1  0
 20 18  1  0
 21 20  2  0
M  END
$$$$
