VSI.pdb
     RDKit          3D

 22 21  0  0  1  0  0  0  0  0999 V2000
    6.9749  -12.9317   19.5045 C   0  0  0  0  0  0  0  0  0  0  0  0
    8.4371  -13.2634   19.2747 C   0  0  2  0  0  0  0  0  0  0  0  0
    8.9784  -12.5569   18.0732 C   0  0  0  0  0  0  0  0  0  0  0  0
    8.6589  -14.7565   19.1822 C   0  0  2  0  0  0  0  0  0  0  0  0
    8.0547  -15.3450   18.0310 N   0  0  0  0  0  0  0  0  0  0  0  0
    8.0833  -15.3731   20.3998 C   0  0  0  0  0  0  0  0  0  0  0  0
    6.8899  -15.7400   20.4328 O   0  0  0  0  0  0  0  0  0  0  0  0
    7.9727  -18.2754   23.8450 O   0  0  0  0  0  0  0  0  0  0  0  0
    8.4889  -17.7337   22.6743 C   0  0  0  0  0  0  0  0  0  0  0  0
    8.3479  -16.2410   22.7042 C   0  0  2  0  0  0  0  0  0  0  0  0
    8.8562  -15.5698   21.5653 N   0  0  0  0  0  0  0  0  0  0  0  0
    8.9241  -15.6537   23.9291 C   0  0  0  0  0  0  0  0  0  0  0  0
   10.1649  -15.5651   24.0588 O   0  0  0  0  0  0  0  0  0  0  0  0
    5.6136  -12.4605   27.2435 C   0  0  0  0  0  0  0  0  0  0  0  0
    6.4030  -13.6741   26.7941 C   0  0  0  0  0  0  0  0  0  0  0  0
    7.8293  -13.3140   26.4570 C   0  0  2  0  0  0  0  0  0  0  0  0
    7.9465  -12.3310   25.3388 C   0  0  0  0  0  0  0  0  0  0  0  0
    8.6276  -14.5494   26.1540 C   0  0  2  0  0  0  0  0  0  0  0  0
    8.0947  -15.1829   24.9730 N   0  0  0  0  0  0  0  0  0  0  0  0
    8.6196  -15.5109   27.2912 C   0  0  0  0  0  0  0  0  0  0  0  0
    7.9951  -16.5992   27.2401 O   0  0  0  0  0  0  0  0  0  0  0  0
    9.3154  -15.2212   28.4566 O   0  0  0  0  0  0  0  0  0  0  0  0
  2  1  1  6
  3  2  1  0
  4  2  1  0
  4  5  1  6
  6  4  1  0
  6  7  2  0
  8  9  1  0
 10  9  1  6
 10 11  1  0
 10 12  1  0
 11  6  1  0
 12 13  2  0
 12 19  1  0
 14 15  1  0
 16 17  1  6
 16 15  1  0
 18 16  1  0
 18 19  1  6
 20 22  1  0
 20 18  1  0
 21 20  2  0
M  END
$$$$
