VSI.pdb
     RDKit          3D

 22 21  0  0  1  0  0  0  0  0999 V2000
    7.2595  -12.6664   19.5863 C   0  0  0  0  0  0  0  0  0  0  0  0
    8.5334  -13.3787   19.1729 C   0  0  2  0  0  0  0  0  0  0  0  0
    9.0608  -12.8528   17.8763 C   0  0  0  0  0  0  0  0  0  0  0  0
    8.3384  -14.8775   19.1209 C   0  0  2  0  0  0  0  0  0  0  0  0
    7.5020  -15.2992   18.0443 N   0  0  0  0  0  0  0  0  0  0  0  0
    7.7256  -15.2962   20.4028 C   0  0  0  0  0  0  0  0  0  0  0  0
    6.4942  -15.2021   20.5886 O   0  0  0  0  0  0  0  0  0  0  0  0
    9.1955  -18.1476   22.9524 O   0  0  0  0  0  0  0  0  0  0  0  0
    7.9081  -17.6285   23.0109 C   0  0  0  0  0  0  0  0  0  0  0  0
    7.9428  -16.1589   22.7141 C   0  0  2  0  0  0  0  0  0  0  0  0
    8.5045  -15.8156   21.4601 N   0  0  0  0  0  0  0  0  0  0  0  0
    8.6062  -15.3920   23.7859 C   0  0  0  0  0  0  0  0  0  0  0  0
    9.7654  -14.9531   23.6183 O   0  0  0  0  0  0  0  0  0  0  0  0
    5.6432  -12.4542   27.5250 C   0  0  0  0  0  0  0  0  0  0  0  0
    6.4034  -13.6289   26.9419 C   0  0  0  0  0  0  0  0  0  0  0  0
    7.7634  -13.2134   26.4364 C   0  0  2  0  0  0  0  0  0  0  0  0
    7.7058  -12.2723   25.2783 C   0  0  0  0  0  0  0  0  0  0  0  0
    8.5887  -14.4195   26.0906 C   0  0  2  0  0  0  0  0  0  0  0  0
    7.9530  -15.1386   25.0141 N   0  0  0  0  0  0  0  0  0  0  0  0
    8.7750  -15.3214   27.2609 C   0  0  0  0  0  0  0  0  0  0  0  0
    9.4139  -14.9661   28.2819 O   0  0  0  0  0  0  0  0  0  0  0  0
    8.2364  -16.6005   27.2505 O   0  0  0  0  0  0  0  0  0  0  0  0
  2  1  1  6
  3  2  1  0
  4  2  1  0
  4  5  1  6
  6  4  1  0
  6  7  2  0
  8  9  1  0
 10  9  1  1
 10 11  1  0
 10 12  1  0
 11  6  1  0
 12 13  2  0
 12 19  1  0
 14 15  1  0
 16 17  1  6
 16 15  1  0
 18 16  1  0
 18 19  1  6
 20 22  1  0
 20 18  1  0
 21 20  2  0
M  END
$$$$
