VSI.pdb
     RDKit          3D

 22 21  0  0  1  0  0  0  0  0999 V2000
   12.0468  -17.9217   22.2582 C   0  0  0  0  0  0  0  0  0  0  0  0
   10.9415  -18.9127   21.9466 C   0  0  2  0  0  0  0  0  0  0  0  0
   11.4674  -20.3088   21.8466 C   0  0  0  0  0  0  0  0  0  0  0  0
   10.1805  -18.5202   20.7000 C   0  0  2  0  0  0  0  0  0  0  0  0
   11.0062  -18.4380   19.5389 N   0  0  0  0  0  0  0  0  0  0  0  0
    9.5615  -17.1976   20.9485 C   0  0  0  0  0  0  0  0  0  0  0  0
   10.1313  -16.1438   20.5955 O   0  0  0  0  0  0  0  0  0  0  0  0
    5.8357  -16.8920   22.7944 O   0  0  0  0  0  0  0  0  0  0  0  0
    6.2589  -15.7985   22.0492 C   0  0  0  0  0  0  0  0  0  0  0  0
    7.7535  -15.8179   21.9290 C   0  0  2  0  0  0  0  0  0  0  0  0
    8.3096  -17.0758   21.5906 N   0  0  0  0  0  0  0  0  0  0  0  0
    8.4143  -15.2879   23.1372 C   0  0  0  0  0  0  0  0  0  0  0  0
    9.6284  -14.9892   23.1085 O   0  0  0  0  0  0  0  0  0  0  0  0
    5.7753  -11.6591   25.6433 C   0  0  0  0  0  0  0  0  0  0  0  0
    6.9705  -12.4601   25.1659 C   0  0  0  0  0  0  0  0  0  0  0  0
    7.3264  -13.5579   26.1383 C   0  0  2  0  0  0  0  0  0  0  0  0
    7.8581  -13.0517   27.4388 C   0  0  0  0  0  0  0  0  0  0  0  0
    8.2962  -14.5205   25.5152 C   0  0  2  0  0  0  0  0  0  0  0  0
    7.6967  -15.1078   24.3422 N   0  0  0  0  0  0  0  0  0  0  0  0
    8.7055  -15.5923   26.4647 C   0  0  0  0  0  0  0  0  0  0  0  0
    9.6610  -15.4444   27.2659 O   0  0  0  0  0  0  0  0  0  0  0  0
    8.0275  -16.8031   26.4867 O   0  0  0  0  0  0  0  0  0  0  0  0
  2  1  1  6
  3  2  1  0
  4  2  1  0
  4  5  1  6
  6  4  1  0
  6  7  2  0
  8  9  1  0
 10  9  1  1
 10 11  1  0
 10 12  1  0
 11  6  1  0
 12 13  2  0
 12 19  1  0
 14 15  1  0
 16 17  1  1
 16 15  1  0
 18 16  1  0
 18 19  1  6
 20 22  1  0
 20 18  1  0
 21 20  2  0
M  END
$$$$
