VSI.pdb
     RDKit          3D

 22 21  0  0  1  0  0  0  0  0999 V2000
    7.4333  -12.7896   21.1315 C   0  0  0  0  0  0  0  0  0  0  0  0
    8.4366  -13.4865   20.2321 C   0  0  2  0  0  0  0  0  0  0  0  0
    8.5500  -12.8065   18.9053 C   0  0  0  0  0  0  0  0  0  0  0  0
    8.1116  -14.9548   20.0727 C   0  0  2  0  0  0  0  0  0  0  0  0
    6.9403  -15.1905   19.2923 N   0  0  0  0  0  0  0  0  0  0  0  0
    7.9134  -15.5214   21.4268 C   0  0  0  0  0  0  0  0  0  0  0  0
    6.7848  -15.5312   21.9616 O   0  0  0  0  0  0  0  0  0  0  0  0
   10.5851  -18.1767   23.2991 O   0  0  0  0  0  0  0  0  0  0  0  0
    9.2317  -18.0581   23.5898 C   0  0  0  0  0  0  0  0  0  0  0  0
    8.8103  -16.6253   23.4543 C   0  0  2  0  0  0  0  0  0  0  0  0
    8.9863  -16.0701   22.1633 N   0  0  0  0  0  0  0  0  0  0  0  0
    9.4528  -15.7603   24.4623 C   0  0  0  0  0  0  0  0  0  0  0  0
   10.5165  -15.1618   24.1892 O   0  0  0  0  0  0  0  0  0  0  0  0
    6.4686  -12.4161   26.8877 C   0  0  0  0  0  0  0  0  0  0  0  0
    7.6456  -13.1691   26.2999 C   0  0  0  0  0  0  0  0  0  0  0  0
    8.4404  -13.8778   27.3694 C   0  0  2  0  0  0  0  0  0  0  0  0
    9.0533  -12.9513   28.3675 C   0  0  0  0  0  0  0  0  0  0  0  0
    9.4930  -14.7528   26.7516 C   0  0  2  0  0  0  0  0  0  0  0  0
    8.8860  -15.5904   25.7465 N   0  0  0  0  0  0  0  0  0  0  0  0
   10.1810  -15.5981   27.7665 C   0  0  0  0  0  0  0  0  0  0  0  0
    9.7355  -16.7198   28.1131 O   0  0  0  0  0  0  0  0  0  0  0  0
   11.3533  -15.1574   28.3647 O   0  0  0  0  0  0  0  0  0  0  0  0
  2  1  1  1
  3  2  1  0
  4  2  1  0
  4  5  1  6
  6  4  1  0
  6  7  2  0
  8  9  1  0
 10  9  1  6
 10 11  1  0
 10 12  1  0
 11  6  1  0
 12 13  2  0
 12 19  1  0
 14 15  1  0
 16 17  1  1
 16 15  1  0
 18 16  1  0
 18 19  1  6
 20 22  1  0
 20 18  1  0
 21 20  2  0
M  END
$$$$
