TAV.pdb
     RDKit          3D

 20 19  0  0  1  0  0  0  0  0999 V2000
   10.0116  -14.3269   18.3906 C   0  0  0  0  0  0  0  0  0  0  0  0
    9.4421  -14.4024   19.8101 C   0  0  1  0  0  0  0  0  0  0  0  0
    9.6502  -13.2336   20.5146 O   0  0  0  0  0  0  0  0  0  0  0  0
    7.9587  -14.7241   19.6755 C   0  0  2  0  0  0  0  0  0  0  0  0
    7.3019  -13.6179   19.0157 N   0  0  0  0  0  0  0  0  0  0  0  0
    7.3565  -14.9084   21.0141 C   0  0  0  0  0  0  0  0  0  0  0  0
    6.8290  -13.9403   21.5967 O   0  0  0  0  0  0  0  0  0  0  0  0
    6.6585  -17.6709   23.5224 C   0  0  0  0  0  0  0  0  0  0  0  0
    6.8047  -16.2501   23.0321 C   0  0  2  0  0  0  0  0  0  0  0  0
    7.3353  -16.1532   21.7070 N   0  0  0  0  0  0  0  0  0  0  0  0
    7.6444  -15.5004   24.0223 C   0  0  0  0  0  0  0  0  0  0  0  0
    8.8873  -15.4338   23.8909 O   0  0  0  0  0  0  0  0  0  0  0  0
    7.8972  -12.1683   27.6493 C   0  0  0  0  0  0  0  0  0  0  0  0
    7.0510  -13.0072   26.7476 C   0  0  1  0  0  0  0  0  0  0  0  0
    6.3483  -12.1836   25.7197 C   0  0  0  0  0  0  0  0  0  0  0  0
    7.8174  -14.1293   26.0831 C   0  0  2  0  0  0  0  0  0  0  0  0
    7.0432  -14.8501   25.1309 N   0  0  0  0  0  0  0  0  0  0  0  0
    8.4944  -14.9976   27.0750 C   0  0  0  0  0  0  0  0  0  0  0  0
    9.6412  -14.5240   27.6906 O   0  0  0  0  0  0  0  0  0  0  0  0
    8.1108  -16.1432   27.4097 O   0  0  0  0  0  0  0  0  0  0  0  0
  2  1  1  6
  2  3  1  0
  4  5  1  1
  4  2  1  0
  6 10  1  0
  6  4  1  0
  7  6  2  0
  9 10  1  0
  9  8  1  1
 11  9  1  0
 12 11  2  0
 14 13  1  6
 14 15  1  0
 16 17  1  1
 16 14  1  0
 17 11  1  0
 18 16  1  0
 19 18  1  0
 20 18  2  0
M  END
$$$$
