TAV.pdb
     RDKit          3D

 20 19  0  0  1  0  0  0  0  0999 V2000
    9.5028  -18.2709   19.8670 C   0  0  0  0  0  0  0  0  0  0  0  0
    8.5527  -17.1780   20.3649 C   0  0  1  0  0  0  0  0  0  0  0  0
    8.3292  -16.2099   19.4065 O   0  0  0  0  0  0  0  0  0  0  0  0
    7.2604  -17.8704   20.7803 C   0  0  2  0  0  0  0  0  0  0  0  0
    6.2219  -17.5190   19.8377 N   0  0  0  0  0  0  0  0  0  0  0  0
    6.8546  -17.4191   22.1294 C   0  0  0  0  0  0  0  0  0  0  0  0
    6.1474  -16.3999   22.2570 O   0  0  0  0  0  0  0  0  0  0  0  0
    6.8830  -18.6207   25.7098 C   0  0  0  0  0  0  0  0  0  0  0  0
    6.8152  -17.5896   24.6086 C   0  0  2  0  0  0  0  0  0  0  0  0
    7.2259  -18.0874   23.3317 N   0  0  0  0  0  0  0  0  0  0  0  0
    7.6304  -16.4043   25.0304 C   0  0  0  0  0  0  0  0  0  0  0  0
    8.8264  -16.2893   24.6801 O   0  0  0  0  0  0  0  0  0  0  0  0
    7.7691  -11.8740   27.0358 C   0  0  0  0  0  0  0  0  0  0  0  0
    6.9701  -13.0546   26.5876 C   0  0  1  0  0  0  0  0  0  0  0  0
    6.0967  -12.7248   25.4227 C   0  0  0  0  0  0  0  0  0  0  0  0
    7.8195  -14.2670   26.2767 C   0  0  2  0  0  0  0  0  0  0  0  0
    7.0587  -15.3870   25.8377 N   0  0  0  0  0  0  0  0  0  0  0  0
    8.7548  -14.5830   27.3820 C   0  0  0  0  0  0  0  0  0  0  0  0
    9.8211  -13.7282   27.6068 O   0  0  0  0  0  0  0  0  0  0  0  0
    8.6611  -15.5747   28.1432 O   0  0  0  0  0  0  0  0  0  0  0  0
  2  1  1  6
  2  3  1  0
  4  5  1  6
  4  2  1  0
  6 10  1  0
  6  4  1  0
  7  6  2  0
  9 10  1  0
  9  8  1  1
 11  9  1  0
 12 11  2  0
 14 13  1  6
 14 15  1  0
 16 17  1  1
 16 14  1  0
 17 11  1  0
 18 16  1  0
 19 18  1  0
 20 18  2  0
M  END
$$$$
