TAV.pdb
     RDKit          3D

 20 19  0  0  1  0  0  0  0  0999 V2000
    8.7248  -12.5157   19.9530 C   0  0  0  0  0  0  0  0  0  0  0  0
    7.9857  -13.3820   18.9291 C   0  0  1  0  0  0  0  0  0  0  0  0
    8.3628  -13.0886   17.6340 O   0  0  0  0  0  0  0  0  0  0  0  0
    8.2760  -14.8346   19.2864 C   0  0  2  0  0  0  0  0  0  0  0  0
    7.6292  -15.6894   18.3161 N   0  0  0  0  0  0  0  0  0  0  0  0
    7.7383  -15.1433   20.6296 C   0  0  0  0  0  0  0  0  0  0  0  0
    6.5059  -15.1475   20.8196 O   0  0  0  0  0  0  0  0  0  0  0  0
    8.1414  -17.2812   23.3446 C   0  0  0  0  0  0  0  0  0  0  0  0
    7.9719  -15.8184   23.0100 C   0  0  2  0  0  0  0  0  0  0  0  0
    8.5545  -15.4461   21.7575 N   0  0  0  0  0  0  0  0  0  0  0  0
    8.5326  -15.0139   24.1439 C   0  0  0  0  0  0  0  0  0  0  0  0
    9.7354  -14.6680   24.1533 O   0  0  0  0  0  0  0  0  0  0  0  0
    6.9847  -11.7330   25.5408 C   0  0  0  0  0  0  0  0  0  0  0  0
    7.2430  -12.6900   26.6590 C   0  0  1  0  0  0  0  0  0  0  0  0
    5.9764  -13.2582   27.2081 C   0  0  0  0  0  0  0  0  0  0  0  0
    8.1954  -13.8036   26.2836 C   0  0  2  0  0  0  0  0  0  0  0  0
    7.7069  -14.6283   25.2315 N   0  0  0  0  0  0  0  0  0  0  0  0
    8.6486  -14.5653   27.4713 C   0  0  0  0  0  0  0  0  0  0  0  0
    9.4018  -13.9057   28.4284 O   0  0  0  0  0  0  0  0  0  0  0  0
    8.4041  -15.7758   27.6868 O   0  0  0  0  0  0  0  0  0  0  0  0
  2  1  1  1
  2  3  1  0
  4  5  1  6
  4  2  1  0
  6 10  1  0
  6  4  1  0
  7  6  2  0
  9 10  1  0
  9  8  1  1
 11  9  1  0
 12 11  2  0
 14 13  1  6
 14 15  1  0
 16 17  1  6
 16 14  1  0
 17 11  1  0
 18 16  1  0
 19 18  1  0
 20 18  2  0
M  END
$$$$
