TAV.pdb
     RDKit          3D

 20 19  0  0  1  0  0  0  0  0999 V2000
   12.1690  -18.2580   21.7933 C   0  0  0  0  0  0  0  0  0  0  0  0
   11.6916  -17.2988   20.6991 C   0  0  1  0  0  0  0  0  0  0  0  0
   12.2277  -17.6116   19.4661 O   0  0  0  0  0  0  0  0  0  0  0  0
   10.1693  -17.3646   20.6862 C   0  0  2  0  0  0  0  0  0  0  0  0
    9.6792  -16.5578   19.5911 N   0  0  0  0  0  0  0  0  0  0  0  0
    9.6279  -16.8291   21.9545 C   0  0  0  0  0  0  0  0  0  0  0  0
    9.8296  -15.6375   22.2621 O   0  0  0  0  0  0  0  0  0  0  0  0
    7.2023  -17.8636   24.6718 C   0  0  0  0  0  0  0  0  0  0  0  0
    8.2448  -16.9921   24.0130 C   0  0  2  0  0  0  0  0  0  0  0  0
    8.8681  -17.6024   22.8790 N   0  0  0  0  0  0  0  0  0  0  0  0
    9.2495  -16.6005   25.0545 C   0  0  0  0  0  0  0  0  0  0  0  0
   10.3465  -17.1961   25.1454 O   0  0  0  0  0  0  0  0  0  0  0  0
    8.2586  -13.6445   28.1330 C   0  0  0  0  0  0  0  0  0  0  0  0
    9.6357  -13.8291   27.5830 C   0  0  1  0  0  0  0  0  0  0  0  0
   10.6858  -13.5018   28.5923 C   0  0  0  0  0  0  0  0  0  0  0  0
    9.8709  -15.2108   27.0140 C   0  0  2  0  0  0  0  0  0  0  0  0
    8.9741  -15.5433   25.9600 N   0  0  0  0  0  0  0  0  0  0  0  0
    9.9422  -16.2403   28.0776 C   0  0  0  0  0  0  0  0  0  0  0  0
   11.1176  -16.3596   28.8006 O   0  0  0  0  0  0  0  0  0  0  0  0
    9.0137  -17.0251   28.3835 O   0  0  0  0  0  0  0  0  0  0  0  0
  2  1  1  1
  2  3  1  0
  4  5  1  6
  4  2  1  0
  6 10  1  0
  6  4  1  0
  7  6  2  0
  9 10  1  0
  9  8  1  1
 11  9  1  0
 12 11  2  0
 14 13  1  1
 14 15  1  0
 16 17  1  6
 16 14  1  0
 17 11  1  0
 18 16  1  0
 19 18  1  0
 20 18  2  0
M  END
$$$$
