TAV.pdb
     RDKit          3D

 20 19  0  0  1  0  0  0  0  0999 V2000
   10.8679  -14.2011   17.8878 C   0  0  0  0  0  0  0  0  0  0  0  0
   10.1964  -14.2798   19.2618 C   0  0  1  0  0  0  0  0  0  0  0  0
   10.6476  -13.2938   20.1161 O   0  0  0  0  0  0  0  0  0  0  0  0
    8.6942  -14.1793   19.0268 C   0  0  2  0  0  0  0  0  0  0  0  0
    8.3952  -12.8713   18.4882 N   0  0  0  0  0  0  0  0  0  0  0  0
    7.9688  -14.3476   20.3051 C   0  0  0  0  0  0  0  0  0  0  0  0
    7.5080  -13.3497   20.8940 O   0  0  0  0  0  0  0  0  0  0  0  0
    6.6523  -17.1233   22.5295 C   0  0  0  0  0  0  0  0  0  0  0  0
    7.0227  -15.7072   22.1580 C   0  0  2  0  0  0  0  0  0  0  0  0
    7.7522  -15.6090   20.9311 N   0  0  0  0  0  0  0  0  0  0  0  0
    7.7816  -15.1090   23.3042 C   0  0  0  0  0  0  0  0  0  0  0  0
    9.0311  -15.1666   23.3476 O   0  0  0  0  0  0  0  0  0  0  0  0
    5.7407  -13.1591   26.7194 C   0  0  0  0  0  0  0  0  0  0  0  0
    7.0575  -12.7657   26.1327 C   0  0  1  0  0  0  0  0  0  0  0  0
    7.9372  -12.0994   27.1382 C   0  0  0  0  0  0  0  0  0  0  0  0
    7.7890  -13.9183   25.4811 C   0  0  2  0  0  0  0  0  0  0  0  0
    7.0946  -14.4640   24.3650 N   0  0  0  0  0  0  0  0  0  0  0  0
    8.2085  -14.9363   26.4731 C   0  0  0  0  0  0  0  0  0  0  0  0
    9.3124  -14.6679   27.2654 O   0  0  0  0  0  0  0  0  0  0  0  0
    7.6395  -16.0379   26.6588 O   0  0  0  0  0  0  0  0  0  0  0  0
  2  1  1  6
  2  3  1  0
  4  5  1  1
  4  2  1  0
  6 10  1  0
  6  4  1  0
  7  6  2  0
  9 10  1  0
  9  8  1  1
 11  9  1  0
 12 11  2  0
 14 13  1  1
 14 15  1  0
 16 17  1  6
 16 14  1  0
 17 11  1  0
 18 16  1  0
 19 18  1  0
 20 18  2  0
M  END
$$$$
