TAV.pdb
     RDKit          3D

 20 19  0  0  1  0  0  0  0  0999 V2000
   14.1992  -18.6749   20.9665 C   0  0  0  0  0  0  0  0  0  0  0  0
   13.3385  -17.9586   22.0111 C   0  0  1  0  0  0  0  0  0  0  0  0
   13.9320  -16.7971   22.4630 O   0  0  0  0  0  0  0  0  0  0  0  0
   11.9877  -17.6864   21.3604 C   0  0  2  0  0  0  0  0  0  0  0  0
   12.1672  -16.7097   20.3096 N   0  0  0  0  0  0  0  0  0  0  0  0
   11.0430  -17.1439   22.3614 C   0  0  0  0  0  0  0  0  0  0  0  0
   10.9815  -15.9136   22.5548 O   0  0  0  0  0  0  0  0  0  0  0  0
    8.1495  -18.2558   24.5166 C   0  0  0  0  0  0  0  0  0  0  0  0
    9.3094  -17.3704   24.1277 C   0  0  2  0  0  0  0  0  0  0  0  0
   10.1705  -17.9531   23.1449 N   0  0  0  0  0  0  0  0  0  0  0  0
   10.0569  -17.0082   25.3758 C   0  0  0  0  0  0  0  0  0  0  0  0
   11.1480  -17.5552   25.6530 O   0  0  0  0  0  0  0  0  0  0  0  0
   10.5688  -13.8550   29.1660 C   0  0  0  0  0  0  0  0  0  0  0  0
    9.6801  -14.4131   28.1022 C   0  0  1  0  0  0  0  0  0  0  0  0
    9.3463  -13.3927   27.0649 C   0  0  0  0  0  0  0  0  0  0  0  0
   10.2395  -15.6577   27.4493 C   0  0  2  0  0  0  0  0  0  0  0  0
    9.5392  -16.0349   26.2691 N   0  0  0  0  0  0  0  0  0  0  0  0
   10.4014  -16.7648   28.4211 C   0  0  0  0  0  0  0  0  0  0  0  0
   11.5599  -16.8115   29.1788 O   0  0  0  0  0  0  0  0  0  0  0  0
    9.5650  -17.6775   28.6188 O   0  0  0  0  0  0  0  0  0  0  0  0
  2  1  1  6
  2  3  1  0
  4  5  1  6
  4  2  1  0
  6 10  1  0
  6  4  1  0
  7  6  2  0
  9 10  1  0
  9  8  1  1
 11  9  1  0
 12 11  2  0
 14 13  1  1
 14 15  1  0
 16 17  1  6
 16 14  1  0
 17 11  1  0
 18 16  1  0
 19 18  1  0
 20 18  2  0
M  END
$$$$
