TAV.pdb
     RDKit          3D

 20 19  0  0  1  0  0  0  0  0999 V2000
    8.8545  -13.8315   20.3624 C   0  0  0  0  0  0  0  0  0  0  0  0
    7.6725  -14.3991   19.5714 C   0  0  1  0  0  0  0  0  0  0  0  0
    7.8706  -14.3091   18.2082 O   0  0  0  0  0  0  0  0  0  0  0  0
    7.4914  -15.8436   20.0215 C   0  0  2  0  0  0  0  0  0  0  0  0
    6.4055  -16.4314   19.2694 N   0  0  0  0  0  0  0  0  0  0  0  0
    7.1547  -15.8874   21.4614 C   0  0  0  0  0  0  0  0  0  0  0  0
    6.1902  -15.2261   21.8943 O   0  0  0  0  0  0  0  0  0  0  0  0
    7.7531  -18.0525   24.4422 C   0  0  0  0  0  0  0  0  0  0  0  0
    7.4457  -16.7298   23.7814 C   0  0  2  0  0  0  0  0  0  0  0  0
    7.8770  -16.6561   22.4193 N   0  0  0  0  0  0  0  0  0  0  0  0
    8.0520  -15.6414   24.6152 C   0  0  0  0  0  0  0  0  0  0  0  0
    9.1982  -15.2045   24.3669 O   0  0  0  0  0  0  0  0  0  0  0  0
    7.3729  -11.9195   27.7703 C   0  0  0  0  0  0  0  0  0  0  0  0
    6.8152  -13.0364   26.9489 C   0  0  1  0  0  0  0  0  0  0  0  0
    6.0293  -12.5312   25.7845 C   0  0  0  0  0  0  0  0  0  0  0  0
    7.8677  -14.0175   26.4823 C   0  0  2  0  0  0  0  0  0  0  0  0
    7.3347  -15.0843   25.7054 N   0  0  0  0  0  0  0  0  0  0  0  0
    8.7315  -14.4714   27.5977 C   0  0  0  0  0  0  0  0  0  0  0  0
    8.6434  -15.7929   28.0029 O   0  0  0  0  0  0  0  0  0  0  0  0
    9.5485  -13.7487   28.2157 O   0  0  0  0  0  0  0  0  0  0  0  0
  2  1  1  1
  2  3  1  0
  4  5  1  6
  4  2  1  0
  6 10  1  0
  6  4  1  0
  7  6  2  0
  9 10  1  0
  9  8  1  1
 11  9  1  0
 12 11  2  0
 14 13  1  6
 14 15  1  0
 16 17  1  1
 16 14  1  0
 17 11  1  0
 18 16  1  0
 19 18  1  0
 20 18  2  0
M  END
$$$$
