TAV.pdb
     RDKit          3D

 20 19  0  0  1  0  0  0  0  0999 V2000
   10.3586  -19.4192   21.2804 C   0  0  0  0  0  0  0  0  0  0  0  0
   11.0843  -18.2022   21.8612 C   0  0  1  0  0  0  0  0  0  0  0  0
   12.4187  -18.4612   22.1019 O   0  0  0  0  0  0  0  0  0  0  0  0
   10.9007  -17.0615   20.8677 C   0  0  2  0  0  0  0  0  0  0  0  0
   12.1999  -16.5189   20.5387 N   0  0  0  0  0  0  0  0  0  0  0  0
   10.0745  -15.9925   21.4703 C   0  0  0  0  0  0  0  0  0  0  0  0
   10.6218  -15.0598   22.0912 O   0  0  0  0  0  0  0  0  0  0  0  0
    6.4647  -14.8463   21.6103 C   0  0  0  0  0  0  0  0  0  0  0  0
    7.9057  -14.9288   22.0547 C   0  0  2  0  0  0  0  0  0  0  0  0
    8.6526  -15.9515   21.3890 N   0  0  0  0  0  0  0  0  0  0  0  0
    7.9239  -15.1078   23.5430 C   0  0  0  0  0  0  0  0  0  0  0  0
    8.1965  -16.2175   24.0535 O   0  0  0  0  0  0  0  0  0  0  0  0
    8.0180  -11.7126   26.1913 C   0  0  0  0  0  0  0  0  0  0  0  0
    7.1994  -12.9109   26.5477 C   0  0  1  0  0  0  0  0  0  0  0  0
    5.7407  -12.6688   26.3417 C   0  0  0  0  0  0  0  0  0  0  0  0
    7.6285  -14.1652   25.8192 C   0  0  2  0  0  0  0  0  0  0  0  0
    7.6314  -14.0182   24.4035 N   0  0  0  0  0  0  0  0  0  0  0  0
    6.8846  -15.3576   26.2892 C   0  0  0  0  0  0  0  0  0  0  0  0
    7.3624  -16.0371   27.3974 O   0  0  0  0  0  0  0  0  0  0  0  0
    5.8423  -15.8108   25.7600 O   0  0  0  0  0  0  0  0  0  0  0  0
  2  1  1  6
  2  3  1  0
  4  5  1  1
  4  2  1  0
  6 10  1  0
  6  4  1  0
  7  6  2  0
  9 10  1  0
  9  8  1  6
 11  9  1  0
 12 11  2  0
 14 13  1  6
 14 15  1  0
 16 17  1  6
 16 14  1  0
 17 11  1  0
 18 16  1  0
 19 18  1  0
 20 18  2  0
M  END
$$$$
