LAD.pdb
     RDKit          3D

 22 21  0  0  1  0  0  0  0  0999 V2000
    6.0694  -12.4074   25.9446 C   0  0  0  0  0  0  0  0  0  0  0  0
    6.9076  -13.2718   26.8705 C   0  0  2  0  0  0  0  0  0  0  0  0
    7.6956  -12.3831   27.8007 C   0  0  0  0  0  0  0  0  0  0  0  0
    7.7747  -14.2231   26.1079 C   0  0  0  0  0  0  0  0  0  0  0  0
    7.0285  -15.1012   25.1680 C   0  0  2  0  0  0  0  0  0  0  0  0
    6.0252  -15.9118   25.8391 N   0  0  0  0  0  0  0  0  0  0  0  0
    7.8649  -16.0112   24.3607 C   0  0  0  0  0  0  0  0  0  0  0  0
    8.0879  -17.1980   24.6835 O   0  0  0  0  0  0  0  0  0  0  0  0
    9.2166  -15.9548   20.8240 C   0  0  0  0  0  0  0  0  0  0  0  0
    9.1621  -16.4579   22.2243 C   0  0  2  0  0  0  0  0  0  0  0  0
    8.4865  -15.5896   23.1348 N   0  0  0  0  0  0  0  0  0  0  0  0
   10.5180  -16.8407   22.6769 C   0  0  0  0  0  0  0  0  0  0  0  0
   11.2227  -17.6978   22.1070 O   0  0  0  0  0  0  0  0  0  0  0  0
   11.0452  -16.1933   23.8270 N   0  0  0  0  0  0  0  0  0  0  0  0
   12.2400  -16.6106   24.5064 C   0  0  1  0  0  0  0  0  0  0  0  0
   13.3337  -15.6028   24.3497 C   0  0  0  0  0  0  0  0  0  0  0  0
   14.0086  -15.6686   23.0479 C   0  0  0  0  0  0  0  0  0  0  0  0
   14.5394  -16.7634   22.7161 O   0  0  0  0  0  0  0  0  0  0  0  0
   12.0291  -17.0480   25.8804 C   0  0  0  0  0  0  0  0  0  0  0  0
   13.0697  -17.5948   26.5926 O   0  0  0  0  0  0  0  0  0  0  0  0
   14.0907  -14.6124   22.1853 O   0  0  0  0  0  0  0  0  0  0  0  0
   10.9157  -16.9329   26.4197 O   0  0  0  0  0  0  0  0  0  0  0  0
  2  3  1  6
  2  1  1  0
  4  2  1  0
  4  5  1  0
  5  7  1  0
  5  6  1  1
  7  8  2  0
 10  9  1  6
 10 12  1  0
 11  7  1  0
 11 10  1  0
 12 13  2  0
 14 12  1  0
 14 15  1  0
 15 19  1  0
 16 17  1  0
 15 16  1  1
 17 21  1  0
 17 18  2  0
 19 22  2  0
 19 20  1  0
M  END
$$$$
