LAD.pdb
     RDKit          3D

 22 21  0  0  1  0  0  0  0  0999 V2000
    6.0412  -12.2553   26.6717 C   0  0  0  0  0  0  0  0  0  0  0  0
    7.1300  -13.1675   27.2098 C   0  0  2  0  0  0  0  0  0  0  0  0
    8.1587  -12.3371   27.9365 C   0  0  0  0  0  0  0  0  0  0  0  0
    7.7282  -14.0141   26.1309 C   0  0  0  0  0  0  0  0  0  0  0  0
    6.7392  -14.8499   25.3995 C   0  0  2  0  0  0  0  0  0  0  0  0
    6.0924  -15.8287   26.2582 N   0  0  0  0  0  0  0  0  0  0  0  0
    7.2725  -15.5726   24.2279 C   0  0  0  0  0  0  0  0  0  0  0  0
    7.4668  -16.8075   24.2196 O   0  0  0  0  0  0  0  0  0  0  0  0
    8.1435  -14.6812   20.6217 C   0  0  0  0  0  0  0  0  0  0  0  0
    8.1336  -15.5376   21.8397 C   0  0  2  0  0  0  0  0  0  0  0  0
    7.6081  -14.8982   23.0034 N   0  0  0  0  0  0  0  0  0  0  0  0
    9.4727  -16.1305   22.0515 C   0  0  0  0  0  0  0  0  0  0  0  0
   10.0482  -16.8587   21.2180 O   0  0  0  0  0  0  0  0  0  0  0  0
   10.1395  -15.8528   23.2755 N   0  0  0  0  0  0  0  0  0  0  0  0
   11.4145  -16.4058   23.6388 C   0  0  1  0  0  0  0  0  0  0  0  0
   12.5100  -15.4024   23.4675 C   0  0  0  0  0  0  0  0  0  0  0  0
   13.5469  -15.8237   22.5179 C   0  0  0  0  0  0  0  0  0  0  0  0
   13.4513  -16.9773   22.0173 O   0  0  0  0  0  0  0  0  0  0  0  0
   11.4299  -17.0865   24.9272 C   0  0  0  0  0  0  0  0  0  0  0  0
   12.5482  -17.7815   25.3214 O   0  0  0  0  0  0  0  0  0  0  0  0
   14.6018  -15.0361   22.1525 O   0  0  0  0  0  0  0  0  0  0  0  0
   10.4408  -17.0470   25.6782 O   0  0  0  0  0  0  0  0  0  0  0  0
  2  3  1  6
  2  1  1  0
  4  2  1  0
  4  5  1  0
  5  7  1  0
  5  6  1  1
  7  8  2  0
 10  9  1  6
 10 12  1  0
 11  7  1  0
 11 10  1  0
 12 13  2  0
 14 12  1  0
 14 15  1  0
 15 19  1  0
 16 17  1  0
 15 16  1  1
 17 21  1  0
 17 18  2  0
 19 22  2  0
 19 20  1  0
M  END
$$$$
