LAD.pdb
     RDKit          3D

 22 21  0  0  1  0  0  0  0  0999 V2000
    5.4003  -11.5618   27.5360 C   0  0  0  0  0  0  0  0  0  0  0  0
    6.6281  -12.0309   26.7746 C   0  0  2  0  0  0  0  0  0  0  0  0
    7.2044  -10.8718   25.9999 C   0  0  0  0  0  0  0  0  0  0  0  0
    6.3257  -13.2121   25.9075 C   0  0  0  0  0  0  0  0  0  0  0  0
    7.4312  -14.2036   25.8288 C   0  0  2  0  0  0  0  0  0  0  0  0
    8.7431  -13.5862   25.9374 N   0  0  0  0  0  0  0  0  0  0  0  0
    7.4363  -15.0431   24.6145 C   0  0  0  0  0  0  0  0  0  0  0  0
    6.5808  -15.9275   24.3940 O   0  0  0  0  0  0  0  0  0  0  0  0
    8.6382  -14.9679   21.1502 C   0  0  0  0  0  0  0  0  0  0  0  0
    8.5365  -15.7228   22.4295 C   0  0  2  0  0  0  0  0  0  0  0  0
    8.4362  -14.8989   23.5916 N   0  0  0  0  0  0  0  0  0  0  0  0
    9.6229  -16.7240   22.5134 C   0  0  0  0  0  0  0  0  0  0  0  0
    9.8426  -17.5836   21.6366 O   0  0  0  0  0  0  0  0  0  0  0  0
   10.4628  -16.7029   23.6597 N   0  0  0  0  0  0  0  0  0  0  0  0
   11.5217  -17.6441   23.8967 C   0  0  1  0  0  0  0  0  0  0  0  0
   12.8621  -16.9876   23.8049 C   0  0  0  0  0  0  0  0  0  0  0  0
   13.2688  -16.6760   22.4294 C   0  0  0  0  0  0  0  0  0  0  0  0
   12.7942  -17.3861   21.5015 O   0  0  0  0  0  0  0  0  0  0  0  0
   11.3429  -18.4632   25.0887 C   0  0  0  0  0  0  0  0  0  0  0  0
   12.2541  -19.4482   25.3859 O   0  0  0  0  0  0  0  0  0  0  0  0
   14.1287  -15.6647   22.1065 O   0  0  0  0  0  0  0  0  0  0  0  0
   10.3730  -18.2823   25.8439 O   0  0  0  0  0  0  0  0  0  0  0  0
  2  3  1  6
  2  1  1  0
  4  2  1  0
  4  5  1  0
  5  7  1  0
  5  6  1  6
  7  8  2  0
 10  9  1  6
 10 12  1  0
 11  7  1  0
 11 10  1  0
 12 13  2  0
 14 12  1  0
 14 15  1  0
 15 19  1  0
 16 17  1  0
 15 16  1  1
 17 21  1  0
 17 18  2  0
 19 22  2  0
 19 20  1  0
M  END
$$$$
