LAD.pdb
     RDKit          3D

 22 21  0  0  1  0  0  0  0  0999 V2000
    7.8757  -12.1759   27.3871 C   0  0  0  0  0  0  0  0  0  0  0  0
    6.7777  -12.6663   26.4592 C   0  0  2  0  0  0  0  0  0  0  0  0
    5.5953  -11.7342   26.5537 C   0  0  0  0  0  0  0  0  0  0  0  0
    6.4137  -14.0912   26.7343 C   0  0  0  0  0  0  0  0  0  0  0  0
    7.3391  -15.0811   26.1218 C   0  0  2  0  0  0  0  0  0  0  0  0
    8.7359  -14.7055   26.2707 N   0  0  0  0  0  0  0  0  0  0  0  0
    7.1052  -15.3574   24.6906 C   0  0  0  0  0  0  0  0  0  0  0  0
    6.1040  -15.9775   24.2712 O   0  0  0  0  0  0  0  0  0  0  0  0
    7.9211  -14.0672   21.3781 C   0  0  0  0  0  0  0  0  0  0  0  0
    7.9074  -15.2487   22.2842 C   0  0  2  0  0  0  0  0  0  0  0  0
    8.0226  -14.9273   23.6708 N   0  0  0  0  0  0  0  0  0  0  0  0
    8.9016  -16.2459   21.8295 C   0  0  0  0  0  0  0  0  0  0  0  0
    9.0959  -16.5346   20.6317 O   0  0  0  0  0  0  0  0  0  0  0  0
    9.6785  -16.9114   22.8162 N   0  0  0  0  0  0  0  0  0  0  0  0
   10.9471  -17.5324   22.5550 C   0  0  1  0  0  0  0  0  0  0  0  0
   11.8388  -16.6324   21.7605 C   0  0  0  0  0  0  0  0  0  0  0  0
   13.1193  -17.2502   21.3953 C   0  0  0  0  0  0  0  0  0  0  0  0
   13.2061  -18.5065   21.4641 O   0  0  0  0  0  0  0  0  0  0  0  0
   11.5855  -18.1136   23.7291 C   0  0  0  0  0  0  0  0  0  0  0  0
   11.0605  -17.8841   24.9784 O   0  0  0  0  0  0  0  0  0  0  0  0
   14.2125  -16.5389   20.9888 O   0  0  0  0  0  0  0  0  0  0  0  0
   12.6032  -18.8174   23.6156 O   0  0  0  0  0  0  0  0  0  0  0  0
  2  3  1  1
  2  1  1  0
  4  2  1  0
  4  5  1  0
  5  7  1  0
  5  6  1  6
  7  8  2  0
 10  9  1  6
 10 12  1  0
 11  7  1  0
 11 10  1  0
 12 13  2  0
 14 12  1  0
 14 15  1  0
 15 19  1  0
 16 17  1  0
 15 16  1  1
 17 21  1  0
 17 18  2  0
 19 22  2  0
 19 20  1  0
M  END
$$$$
