LAD.pdb
     RDKit          3D

 22 21  0  0  1  0  0  0  0  0999 V2000
    8.1117  -12.1475   27.3699 C   0  0  0  0  0  0  0  0  0  0  0  0
    7.0049  -12.5425   26.4076 C   0  0  2  0  0  0  0  0  0  0  0  0
    5.7547  -11.7682   26.7445 C   0  0  0  0  0  0  0  0  0  0  0  0
    6.7822  -14.0220   26.3948 C   0  0  0  0  0  0  0  0  0  0  0  0
    7.8125  -14.7822   25.6385 C   0  0  2  0  0  0  0  0  0  0  0  0
    9.1272  -14.1656   25.7126 N   0  0  0  0  0  0  0  0  0  0  0  0
    7.5074  -15.0038   24.2112 C   0  0  0  0  0  0  0  0  0  0  0  0
    6.4781  -15.5945   23.8182 O   0  0  0  0  0  0  0  0  0  0  0  0
    8.2744  -13.4936   20.9560 C   0  0  0  0  0  0  0  0  0  0  0  0
    8.1458  -14.7347   21.7686 C   0  0  2  0  0  0  0  0  0  0  0  0
    8.3826  -14.5503   23.1647 N   0  0  0  0  0  0  0  0  0  0  0  0
    8.9632  -15.8153   21.1736 C   0  0  0  0  0  0  0  0  0  0  0  0
    8.9735  -16.0865   19.9561 O   0  0  0  0  0  0  0  0  0  0  0  0
    9.7828  -16.5869   22.0414 N   0  0  0  0  0  0  0  0  0  0  0  0
   11.2035  -16.7311   21.8863 C   0  0  1  0  0  0  0  0  0  0  0  0
   11.8246  -15.4703   21.3753 C   0  0  0  0  0  0  0  0  0  0  0  0
   12.7120  -15.6791   20.2249 C   0  0  0  0  0  0  0  0  0  0  0  0
   12.8164  -16.8501   19.7684 O   0  0  0  0  0  0  0  0  0  0  0  0
   11.8806  -17.2981   23.0456 C   0  0  0  0  0  0  0  0  0  0  0  0
   11.8459  -16.6373   24.2502 O   0  0  0  0  0  0  0  0  0  0  0  0
   13.4251  -14.6775   19.6293 O   0  0  0  0  0  0  0  0  0  0  0  0
   12.4921  -18.3763   22.9593 O   0  0  0  0  0  0  0  0  0  0  0  0
  2  3  1  1
  2  1  1  0
  4  2  1  0
  4  5  1  0
  5  7  1  0
  5  6  1  6
  7  8  2  0
 10  9  1  6
 10 12  1  0
 11  7  1  0
 11 10  1  0
 12 13  2  0
 14 12  1  0
 14 15  1  0
 15 19  1  0
 16 17  1  0
 15 16  1  1
 17 21  1  0
 17 18  2  0
 19 22  2  0
 19 20  1  0
M  END
$$$$
