PNC.pdb
     RDKit          3D

 22 22  0  0  1  0  0  0  0  0999 V2000
    8.0949  -14.9257   18.0481 N   0  0  0  0  0  0  0  0  0  0  0  0
    8.0942  -13.6630   17.2916 C   0  0  0  0  0  0  0  0  0  0  0  0
    7.4696  -12.7134   18.2743 C   0  0  0  0  0  0  0  0  0  0  0  0
    8.1098  -13.1255   19.5841 C   0  0  0  0  0  0  0  0  0  0  0  0
    8.6473  -14.5106   19.2957 C   0  0  1  0  0  0  0  0  0  0  0  0
    8.3433  -15.4539   20.4059 C   0  0  0  0  0  0  0  0  0  0  0  0
    7.9314  -16.6137   20.2266 O   0  0  0  0  0  0  0  0  0  0  0  0
   10.0869  -19.0106   24.1164 N   0  0  0  0  0  0  0  0  0  0  0  0
    9.0378  -18.0678   23.8640 C   0  0  0  0  0  0  0  0  0  0  0  0
    8.0729  -18.0837   24.7053 O   0  0  0  0  0  0  0  0  0  0  0  0
    9.0738  -17.1481   22.7156 C   0  0  0  0  0  0  0  0  0  0  0  0
    8.4131  -15.8265   22.9182 C   0  0  2  0  0  0  0  0  0  0  0  0
    8.5299  -15.0165   21.7490 N   0  0  0  0  0  0  0  0  0  0  0  0
    8.7098  -15.1659   24.1986 C   0  0  0  0  0  0  0  0  0  0  0  0
    9.8743  -14.6614   24.3174 O   0  0  0  0  0  0  0  0  0  0  0  0
    7.8550  -15.0330   25.3042 N   0  0  0  0  0  0  0  0  0  0  0  0
    7.9319  -13.8956   26.2295 C   0  0  1  0  0  0  0  0  0  0  0  0
    6.5791  -13.2620   26.4632 C   0  0  0  0  0  0  0  0  0  0  0  0
    6.8224  -11.9260   27.6635 S   0  0  0  0  0  0  0  0  0  0  0  0
    8.5140  -14.3575   27.4991 C   0  0  0  0  0  0  0  0  0  0  0  0
    8.3686  -15.5601   27.8615 O   0  0  0  0  0  0  0  0  0  0  0  0
    9.2437  -13.5437   28.3722 O   0  0  0  0  0  0  0  0  0  0  0  0
  1  2  1  0
  3  4  1  0
  3  2  1  0
  4  5  1  0
  5  1  1  0
  5  6  1  1
  7  6  2  0
  9 11  1  0
  9  8  1  0
 10  9  2  0
 12 11  1  6
 12 13  1  0
 12 14  1  0
 13  6  1  0
 14 16  1  0
 15 14  2  0
 16 17  1  0
 17 20  1  0
 17 18  1  1
 18 19  1  0
 20 21  2  0
 20 22  1  0
M  END
$$$$
