PNC.pdb
     RDKit          3D

 22 22  0  0  1  0  0  0  0  0999 V2000
    8.7151  -14.6561   18.1082 N   0  0  0  0  0  0  0  0  0  0  0  0
    7.9465  -13.7220   17.2697 C   0  0  0  0  0  0  0  0  0  0  0  0
    7.1898  -12.9319   18.2995 C   0  0  0  0  0  0  0  0  0  0  0  0
    8.2275  -12.7232   19.3835 C   0  0  0  0  0  0  0  0  0  0  0  0
    9.2735  -13.7740   19.0800 C   0  0  1  0  0  0  0  0  0  0  0  0
    9.7122  -14.4774   20.3160 C   0  0  0  0  0  0  0  0  0  0  0  0
   10.1126  -13.8874   21.3350 O   0  0  0  0  0  0  0  0  0  0  0  0
   10.1861  -20.3753   22.1944 N   0  0  0  0  0  0  0  0  0  0  0  0
    9.9559  -18.9853   22.4550 C   0  0  0  0  0  0  0  0  0  0  0  0
   10.1542  -18.6143   23.6642 O   0  0  0  0  0  0  0  0  0  0  0  0
    9.5218  -18.0545   21.4008 C   0  0  0  0  0  0  0  0  0  0  0  0
   10.2119  -16.7326   21.3740 C   0  0  2  0  0  0  0  0  0  0  0  0
    9.6763  -15.9015   20.3450 N   0  0  0  0  0  0  0  0  0  0  0  0
   11.6790  -16.7883   21.4665 C   0  0  0  0  0  0  0  0  0  0  0  0
   12.3231  -16.5027   20.4043 O   0  0  0  0  0  0  0  0  0  0  0  0
   12.4472  -17.1244   22.5923 N   0  0  0  0  0  0  0  0  0  0  0  0
   13.8884  -16.8560   22.6736 C   0  0  1  0  0  0  0  0  0  0  0  0
   14.2033  -15.3884   22.4911 C   0  0  0  0  0  0  0  0  0  0  0  0
   15.9869  -15.1954   22.7488 S   0  0  0  0  0  0  0  0  0  0  0  0
   14.3859  -17.3350   23.9725 C   0  0  0  0  0  0  0  0  0  0  0  0
   15.2174  -18.2864   24.0199 O   0  0  0  0  0  0  0  0  0  0  0  0
   13.9994  -16.8035   25.2075 O   0  0  0  0  0  0  0  0  0  0  0  0
  1  2  1  0
  3  4  1  0
  3  2  1  0
  4  5  1  0
  5  1  1  0
  5  6  1  1
  7  6  2  0
  9 11  1  0
  9  8  1  0
 10  9  2  0
 12 11  1  6
 12 13  1  0
 12 14  1  0
 13  6  1  0
 14 16  1  0
 15 14  2  0
 16 17  1  0
 17 20  1  0
 17 18  1  1
 18 19  1  0
 20 21  2  0
 20 22  1  0
M  END
$$$$
