PNC.pdb
     RDKit          3D

 22 22  0  0  1  0  0  0  0  0999 V2000
    8.5273  -15.1131   19.6027 N   0  0  0  0  0  0  0  0  0  0  0  0
    8.5427  -14.5422   18.2461 C   0  0  0  0  0  0  0  0  0  0  0  0
    7.4237  -13.5423   18.3179 C   0  0  0  0  0  0  0  0  0  0  0  0
    7.6143  -12.9317   19.6913 C   0  0  0  0  0  0  0  0  0  0  0  0
    8.4912  -13.9361   20.4073 C   0  0  1  0  0  0  0  0  0  0  0  0
    8.0048  -14.1946   21.7899 C   0  0  0  0  0  0  0  0  0  0  0  0
    7.7658  -13.2927   22.6123 O   0  0  0  0  0  0  0  0  0  0  0  0
    6.3044  -17.1796   25.8922 N   0  0  0  0  0  0  0  0  0  0  0  0
    6.8233  -18.0116   24.8473 C   0  0  0  0  0  0  0  0  0  0  0  0
    6.8037  -19.2690   25.0874 O   0  0  0  0  0  0  0  0  0  0  0  0
    7.3410  -17.4525   23.5882 C   0  0  0  0  0  0  0  0  0  0  0  0
    7.3599  -15.9641   23.4951 C   0  0  2  0  0  0  0  0  0  0  0  0
    7.7987  -15.5421   22.2044 N   0  0  0  0  0  0  0  0  0  0  0  0
    7.9612  -15.2707   24.6447 C   0  0  0  0  0  0  0  0  0  0  0  0
    9.2336  -15.2941   24.7160 O   0  0  0  0  0  0  0  0  0  0  0  0
    7.2897  -14.5902   25.6726 N   0  0  0  0  0  0  0  0  0  0  0  0
    7.9949  -13.7925   26.6836 C   0  0  1  0  0  0  0  0  0  0  0  0
    7.0775  -12.8045   27.3679 C   0  0  0  0  0  0  0  0  0  0  0  0
    6.0423  -12.0645   26.0773 S   0  0  0  0  0  0  0  0  0  0  0  0
    8.6006  -14.7039   27.6667 C   0  0  0  0  0  0  0  0  0  0  0  0
    8.4190  -15.9514   27.5691 O   0  0  0  0  0  0  0  0  0  0  0  0
    9.3917  -14.2873   28.7427 O   0  0  0  0  0  0  0  0  0  0  0  0
  1  2  1  0
  3  4  1  0
  3  2  1  0
  4  5  1  0
  5  1  1  0
  5  6  1  1
  7  6  2  0
  9 11  1  0
  9  8  1  0
 10  9  2  0
 12 11  1  1
 12 13  1  0
 12 14  1  0
 13  6  1  0
 14 16  1  0
 15 14  2  0
 16 17  1  0
 17 20  1  0
 17 18  1  1
 18 19  1  0
 20 21  2  0
 20 22  1  0
M  END
$$$$
