PNC.pdb
     RDKit          3D

 22 22  0  0  1  0  0  0  0  0999 V2000
    8.6741  -15.0487   19.8232 N   0  0  0  0  0  0  0  0  0  0  0  0
    8.5639  -14.4012   18.5060 C   0  0  0  0  0  0  0  0  0  0  0  0
    7.3846  -13.4920   18.7052 C   0  0  0  0  0  0  0  0  0  0  0  0
    7.6183  -12.9490   20.1001 C   0  0  0  0  0  0  0  0  0  0  0  0
    8.6068  -13.9256   20.6997 C   0  0  1  0  0  0  0  0  0  0  0  0
    8.2279  -14.2981   22.0899 C   0  0  0  0  0  0  0  0  0  0  0  0
    7.9262  -13.4667   22.9643 O   0  0  0  0  0  0  0  0  0  0  0  0
    6.0537  -18.7638   21.9914 N   0  0  0  0  0  0  0  0  0  0  0  0
    6.2442  -17.9377   23.1466 C   0  0  0  0  0  0  0  0  0  0  0  0
    5.1720  -17.4785   23.6745 O   0  0  0  0  0  0  0  0  0  0  0  0
    7.5823  -17.6419   23.6833 C   0  0  0  0  0  0  0  0  0  0  0  0
    7.9521  -16.1988   23.7532 C   0  0  2  0  0  0  0  0  0  0  0  0
    8.2063  -15.6766   22.4496 N   0  0  0  0  0  0  0  0  0  0  0  0
    8.9310  -15.8512   24.7947 C   0  0  0  0  0  0  0  0  0  0  0  0
   10.1587  -16.0107   24.4918 O   0  0  0  0  0  0  0  0  0  0  0  0
    8.6631  -15.3674   26.0850 N   0  0  0  0  0  0  0  0  0  0  0  0
    9.7272  -14.9879   27.0228 C   0  0  1  0  0  0  0  0  0  0  0  0
    9.3445  -13.7883   27.8598 C   0  0  0  0  0  0  0  0  0  0  0  0
   10.7753  -13.3920   28.8992 S   0  0  0  0  0  0  0  0  0  0  0  0
   10.0344  -16.1422   27.8814 C   0  0  0  0  0  0  0  0  0  0  0  0
    9.1194  -16.9537   28.2019 O   0  0  0  0  0  0  0  0  0  0  0  0
   11.3053  -16.4265   28.3922 O   0  0  0  0  0  0  0  0  0  0  0  0
  1  2  1  0
  3  4  1  0
  3  2  1  0
  4  5  1  0
  5  1  1  0
  5  6  1  1
  7  6  2  0
  9 11  1  0
  9  8  1  0
 10  9  2  0
 12 11  1  6
 12 13  1  0
 12 14  1  0
 13  6  1  0
 14 16  1  0
 15 14  2  0
 16 17  1  0
 17 20  1  0
 17 18  1  1
 18 19  1  0
 20 21  2  0
 20 22  1  0
M  END
$$$$
