PNC.pdb
     RDKit          3D

 22 22  0  0  1  0  0  0  0  0999 V2000
    9.0803  -14.7071   19.2982 N   0  0  0  0  0  0  0  0  0  0  0  0
    9.0940  -14.2367   17.9035 C   0  0  0  0  0  0  0  0  0  0  0  0
    7.7279  -13.6261   17.7690 C   0  0  0  0  0  0  0  0  0  0  0  0
    7.5547  -12.9098   19.0927 C   0  0  0  0  0  0  0  0  0  0  0  0
    8.5948  -13.5543   19.9833 C   0  0  1  0  0  0  0  0  0  0  0  0
    8.0390  -13.8710   21.3272 C   0  0  0  0  0  0  0  0  0  0  0  0
    7.5237  -13.0200   22.0737 O   0  0  0  0  0  0  0  0  0  0  0  0
    5.6421  -18.3043   24.4007 N   0  0  0  0  0  0  0  0  0  0  0  0
    6.9835  -17.8277   24.2374 C   0  0  0  0  0  0  0  0  0  0  0  0
    7.7503  -17.9916   25.2495 O   0  0  0  0  0  0  0  0  0  0  0  0
    7.4410  -17.1948   22.9899 C   0  0  0  0  0  0  0  0  0  0  0  0
    7.5283  -15.7061   23.0084 C   0  0  2  0  0  0  0  0  0  0  0  0
    8.0948  -15.2160   21.7936 N   0  0  0  0  0  0  0  0  0  0  0  0
    8.0547  -15.1234   24.2523 C   0  0  0  0  0  0  0  0  0  0  0  0
    9.3238  -15.0779   24.3619 O   0  0  0  0  0  0  0  0  0  0  0  0
    7.3152  -14.6159   25.3322 N   0  0  0  0  0  0  0  0  0  0  0  0
    7.9501  -13.9967   26.5025 C   0  0  1  0  0  0  0  0  0  0  0  0
    6.9916  -13.1102   27.2651 C   0  0  0  0  0  0  0  0  0  0  0  0
    6.6932  -11.6481   26.2365 S   0  0  0  0  0  0  0  0  0  0  0  0
    8.4765  -15.0598   27.3724 C   0  0  0  0  0  0  0  0  0  0  0  0
    8.1738  -16.2671   27.1504 O   0  0  0  0  0  0  0  0  0  0  0  0
    9.3172  -14.8355   28.4679 O   0  0  0  0  0  0  0  0  0  0  0  0
  1  2  1  0
  3  4  1  0
  3  2  1  0
  4  5  1  0
  5  1  1  0
  5  6  1  1
  7  6  2  0
  9 11  1  0
  9  8  1  0
 10  9  2  0
 12 11  1  1
 12 13  1  0
 12 14  1  0
 13  6  1  0
 14 16  1  0
 15 14  2  0
 16 17  1  0
 17 20  1  0
 17 18  1  1
 18 19  1  0
 20 21  2  0
 20 22  1  0
M  END
$$$$
