PNC.pdb
     RDKit          3D

 22 22  0  0  1  0  0  0  0  0999 V2000
    7.4769  -15.0378   19.0231 N   0  0  0  0  0  0  0  0  0  0  0  0
    7.6777  -13.9882   18.0109 C   0  0  0  0  0  0  0  0  0  0  0  0
    7.4776  -12.7369   18.8180 C   0  0  0  0  0  0  0  0  0  0  0  0
    8.1901  -13.0630   20.1146 C   0  0  0  0  0  0  0  0  0  0  0  0
    8.3060  -14.5717   20.0858 C   0  0  1  0  0  0  0  0  0  0  0  0
    7.9511  -15.1695   21.4017 C   0  0  0  0  0  0  0  0  0  0  0  0
    6.8037  -15.5498   21.6948 O   0  0  0  0  0  0  0  0  0  0  0  0
   12.1683  -16.7709   24.4030 N   0  0  0  0  0  0  0  0  0  0  0  0
   11.0540  -16.8539   23.5060 C   0  0  0  0  0  0  0  0  0  0  0  0
   11.3496  -16.8238   22.2607 O   0  0  0  0  0  0  0  0  0  0  0  0
    9.6686  -16.9660   23.9899 C   0  0  0  0  0  0  0  0  0  0  0  0
    8.7866  -15.7944   23.7183 C   0  0  2  0  0  0  0  0  0  0  0  0
    8.9710  -15.3189   22.3854 N   0  0  0  0  0  0  0  0  0  0  0  0
    8.7584  -14.7714   24.7750 C   0  0  0  0  0  0  0  0  0  0  0  0
    9.7031  -13.9158   24.7581 O   0  0  0  0  0  0  0  0  0  0  0  0
    7.8098  -14.6354   25.8008 N   0  0  0  0  0  0  0  0  0  0  0  0
    7.8666  -13.5521   26.7903 C   0  0  1  0  0  0  0  0  0  0  0  0
    6.5109  -12.9241   27.0222 C   0  0  0  0  0  0  0  0  0  0  0  0
    6.0083  -12.1606   25.4571 S   0  0  0  0  0  0  0  0  0  0  0  0
    8.4112  -14.0881   28.0473 C   0  0  0  0  0  0  0  0  0  0  0  0
    8.5979  -13.3204   29.0344 O   0  0  0  0  0  0  0  0  0  0  0  0
    8.7528  -15.4298   28.2477 O   0  0  0  0  0  0  0  0  0  0  0  0
  1  2  1  0
  3  4  1  0
  3  2  1  0
  4  5  1  0
  5  1  1  0
  5  6  1  1
  7  6  2  0
  9 11  1  0
  9  8  1  0
 10  9  2  0
 12 11  1  1
 12 13  1  0
 12 14  1  0
 13  6  1  0
 14 16  1  0
 15 14  2  0
 16 17  1  0
 17 20  1  0
 17 18  1  1
 18 19  1  0
 20 21  2  0
 20 22  1  0
M  END
$$$$
