PNC.pdb
     RDKit          3D

 22 22  0  0  1  0  0  0  0  0999 V2000
    7.4483  -15.0646   18.5313 N   0  0  0  0  0  0  0  0  0  0  0  0
    7.4575  -13.9583   17.5604 C   0  0  0  0  0  0  0  0  0  0  0  0
    7.2146  -12.7681   18.4444 C   0  0  0  0  0  0  0  0  0  0  0  0
    8.0688  -13.0775   19.6568 C   0  0  0  0  0  0  0  0  0  0  0  0
    8.3226  -14.5650   19.5413 C   0  0  1  0  0  0  0  0  0  0  0  0
    8.1457  -15.2501   20.8507 C   0  0  0  0  0  0  0  0  0  0  0  0
    7.0782  -15.7779   21.2094 O   0  0  0  0  0  0  0  0  0  0  0  0
   10.0668  -18.5508   25.1435 N   0  0  0  0  0  0  0  0  0  0  0  0
   10.4492  -17.2334   24.7298 C   0  0  0  0  0  0  0  0  0  0  0  0
   10.9302  -16.4874   25.6524 O   0  0  0  0  0  0  0  0  0  0  0  0
   10.2970  -16.7765   23.3390 C   0  0  0  0  0  0  0  0  0  0  0  0
    9.2114  -15.7836   23.0945 C   0  0  2  0  0  0  0  0  0  0  0  0
    9.2503  -15.3106   21.7486 N   0  0  0  0  0  0  0  0  0  0  0  0
    9.0498  -14.7599   24.1385 C   0  0  0  0  0  0  0  0  0  0  0  0
    9.4798  -13.5935   23.8572 O   0  0  0  0  0  0  0  0  0  0  0  0
    8.4787  -14.9260   25.4101 N   0  0  0  0  0  0  0  0  0  0  0  0
    8.0862  -13.7903   26.2539 C   0  0  1  0  0  0  0  0  0  0  0  0
    6.7885  -13.1646   25.7952 C   0  0  0  0  0  0  0  0  0  0  0  0
    6.3540  -11.8965   27.0150 S   0  0  0  0  0  0  0  0  0  0  0  0
    7.9752  -14.2521   27.6462 C   0  0  0  0  0  0  0  0  0  0  0  0
    7.8805  -15.4876   27.8976 O   0  0  0  0  0  0  0  0  0  0  0  0
    7.9655  -13.4031   28.7581 O   0  0  0  0  0  0  0  0  0  0  0  0
  1  2  1  0
  3  4  1  0
  3  2  1  0
  4  5  1  0
  5  1  1  0
  5  6  1  1
  7  6  2  0
  9 11  1  0
  9  8  1  0
 10  9  2  0
 12 11  1  1
 12 13  1  0
 12 14  1  0
 13  6  1  0
 14 16  1  0
 15 14  2  0
 16 17  1  0
 17 20  1  0
 17 18  1  6
 18 19  1  0
 20 21  2  0
 20 22  1  0
M  END
$$$$
