PNC.pdb
     RDKit          3D

 22 22  0  0  1  0  0  0  0  0999 V2000
    8.4043  -15.1585   19.0149 N   0  0  0  0  0  0  0  0  0  0  0  0
    8.2168  -14.5827   17.6734 C   0  0  0  0  0  0  0  0  0  0  0  0
    7.1586  -13.5465   17.9260 C   0  0  0  0  0  0  0  0  0  0  0  0
    7.5915  -12.9484   19.2490 C   0  0  0  0  0  0  0  0  0  0  0  0
    8.5396  -13.9843   19.8131 C   0  0  1  0  0  0  0  0  0  0  0  0
    8.2775  -14.2325   21.2569 C   0  0  0  0  0  0  0  0  0  0  0  0
    8.2756  -13.3345   22.1175 O   0  0  0  0  0  0  0  0  0  0  0  0
    5.9003  -18.5572   24.6724 N   0  0  0  0  0  0  0  0  0  0  0  0
    7.1914  -17.9873   24.4250 C   0  0  0  0  0  0  0  0  0  0  0  0
    7.9874  -17.9779   25.4276 O   0  0  0  0  0  0  0  0  0  0  0  0
    7.5694  -17.4520   23.1071 C   0  0  0  0  0  0  0  0  0  0  0  0
    7.7150  -15.9701   23.0230 C   0  0  2  0  0  0  0  0  0  0  0  0
    8.0138  -15.5647   21.6877 N   0  0  0  0  0  0  0  0  0  0  0  0
    8.5278  -15.3578   24.0853 C   0  0  0  0  0  0  0  0  0  0  0  0
    9.5516  -14.7006   23.7052 O   0  0  0  0  0  0  0  0  0  0  0  0
    8.3033  -15.4202   25.4696 N   0  0  0  0  0  0  0  0  0  0  0  0
    8.2834  -14.2242   26.3211 C   0  0  1  0  0  0  0  0  0  0  0  0
    7.1445  -13.2948   25.9671 C   0  0  0  0  0  0  0  0  0  0  0  0
    7.1189  -11.9892   27.2239 S   0  0  0  0  0  0  0  0  0  0  0  0
    8.1898  -14.6464   27.7271 C   0  0  0  0  0  0  0  0  0  0  0  0
    7.5632  -15.7019   28.0306 O   0  0  0  0  0  0  0  0  0  0  0  0
    8.7593  -13.9487   28.7976 O   0  0  0  0  0  0  0  0  0  0  0  0
  1  2  1  0
  3  4  1  0
  3  2  1  0
  4  5  1  0
  5  1  1  0
  5  6  1  1
  7  6  2  0
  9 11  1  0
  9  8  1  0
 10  9  2  0
 12 11  1  6
 12 13  1  0
 12 14  1  0
 13  6  1  0
 14 16  1  0
 15 14  2  0
 16 17  1  0
 17 20  1  0
 17 18  1  6
 18 19  1  0
 20 21  2  0
 20 22  1  0
M  END
$$$$
