PNC.pdb
     RDKit          3D

 22 22  0  0  1  0  0  0  0  0999 V2000
    9.0652  -14.6034   19.4539 N   0  0  0  0  0  0  0  0  0  0  0  0
    8.6893  -14.0818   18.1298 C   0  0  0  0  0  0  0  0  0  0  0  0
    7.1985  -13.9490   18.2610 C   0  0  0  0  0  0  0  0  0  0  0  0
    7.0380  -13.4008   19.6641 C   0  0  0  0  0  0  0  0  0  0  0  0
    8.3655  -13.7129   20.3206 C   0  0  1  0  0  0  0  0  0  0  0  0
    8.1784  -14.2655   21.6898 C   0  0  0  0  0  0  0  0  0  0  0  0
    7.3596  -13.8090   22.5072 O   0  0  0  0  0  0  0  0  0  0  0  0
   10.5566  -18.4719   21.3878 N   0  0  0  0  0  0  0  0  0  0  0  0
    9.6345  -18.1571   22.4384 C   0  0  0  0  0  0  0  0  0  0  0  0
    8.5494  -18.8367   22.4370 O   0  0  0  0  0  0  0  0  0  0  0  0
    9.9216  -17.1233   23.4459 C   0  0  0  0  0  0  0  0  0  0  0  0
    9.0409  -15.9201   23.4141 C   0  0  2  0  0  0  0  0  0  0  0  0
    8.9735  -15.3755   22.0967 N   0  0  0  0  0  0  0  0  0  0  0  0
    9.2543  -14.9569   24.5053 C   0  0  0  0  0  0  0  0  0  0  0  0
   10.3550  -14.3145   24.4845 O   0  0  0  0  0  0  0  0  0  0  0  0
    8.3828  -14.6698   25.5676 N   0  0  0  0  0  0  0  0  0  0  0  0
    8.7125  -13.6998   26.6194 C   0  0  1  0  0  0  0  0  0  0  0  0
    7.6648  -12.6165   26.7407 C   0  0  0  0  0  0  0  0  0  0  0  0
    6.0554  -13.4069   26.4764 S   0  0  0  0  0  0  0  0  0  0  0  0
    8.8650  -14.4182   27.8940 C   0  0  0  0  0  0  0  0  0  0  0  0
    9.2168  -13.7927   28.9350 O   0  0  0  0  0  0  0  0  0  0  0  0
    8.6441  -15.7902   28.0550 O   0  0  0  0  0  0  0  0  0  0  0  0
  1  2  1  0
  3  4  1  0
  3  2  1  0
  4  5  1  0
  5  1  1  0
  5  6  1  1
  7  6  2  0
  9 11  1  0
  9  8  1  0
 10  9  2  0
 12 11  1  6
 12 13  1  0
 12 14  1  0
 13  6  1  0
 14 16  1  0
 15 14  2  0
 16 17  1  0
 17 20  1  0
 17 18  1  1
 18 19  1  0
 20 21  2  0
 20 22  1  0
M  END
$$$$
