PNC.pdb
     RDKit          3D

 22 22  0  0  1  0  0  0  0  0999 V2000
    8.7665  -15.1626   19.8201 N   0  0  0  0  0  0  0  0  0  0  0  0
    8.8085  -14.6887   18.4272 C   0  0  0  0  0  0  0  0  0  0  0  0
    7.5425  -13.8850   18.3350 C   0  0  0  0  0  0  0  0  0  0  0  0
    7.5133  -13.1611   19.6656 C   0  0  0  0  0  0  0  0  0  0  0  0
    8.4737  -13.9567   20.5231 C   0  0  1  0  0  0  0  0  0  0  0  0
    7.9165  -14.1994   21.8817 C   0  0  0  0  0  0  0  0  0  0  0  0
    7.4305  -13.3027   22.5934 O   0  0  0  0  0  0  0  0  0  0  0  0
    6.7649  -18.9395   21.9635 N   0  0  0  0  0  0  0  0  0  0  0  0
    6.4473  -18.0602   23.0493 C   0  0  0  0  0  0  0  0  0  0  0  0
    5.1977  -17.8966   23.2745 O   0  0  0  0  0  0  0  0  0  0  0  0
    7.4906  -17.3948   23.8463 C   0  0  0  0  0  0  0  0  0  0  0  0
    7.5552  -15.9097   23.7253 C   0  0  2  0  0  0  0  0  0  0  0  0
    7.9358  -15.5244   22.4049 N   0  0  0  0  0  0  0  0  0  0  0  0
    8.2429  -15.2194   24.8273 C   0  0  0  0  0  0  0  0  0  0  0  0
    9.5164  -15.2726   24.8199 O   0  0  0  0  0  0  0  0  0  0  0  0
    7.6528  -14.5125   25.8869 N   0  0  0  0  0  0  0  0  0  0  0  0
    8.4440  -13.8367   26.9228 C   0  0  1  0  0  0  0  0  0  0  0  0
    7.6662  -12.7303   27.5990 C   0  0  0  0  0  0  0  0  0  0  0  0
    6.6699  -11.9257   26.3164 S   0  0  0  0  0  0  0  0  0  0  0  0
    8.8856  -14.8362   27.9076 C   0  0  0  0  0  0  0  0  0  0  0  0
    8.5022  -16.0368   27.8063 O   0  0  0  0  0  0  0  0  0  0  0  0
    9.7279  -14.5563   28.9890 O   0  0  0  0  0  0  0  0  0  0  0  0
  1  2  1  0
  3  4  1  0
  3  2  1  0
  4  5  1  0
  5  1  1  0
  5  6  1  1
  7  6  2  0
  9 11  1  0
  9  8  1  0
 10  9  2  0
 12 11  1  6
 12 13  1  0
 12 14  1  0
 13  6  1  0
 14 16  1  0
 15 14  2  0
 16 17  1  0
 17 20  1  0
 17 18  1  1
 18 19  1  0
 20 21  2  0
 20 22  1  0
M  END
$$$$
