PNC.pdb
     RDKit          3D

 22 22  0  0  1  0  0  0  0  0999 V2000
    8.3231  -15.0190   19.6131 N   0  0  0  0  0  0  0  0  0  0  0  0
    8.1381  -14.2525   18.3702 C   0  0  0  0  0  0  0  0  0  0  0  0
    7.2145  -13.1552   18.8174 C   0  0  0  0  0  0  0  0  0  0  0  0
    7.7724  -12.7877   20.1772 C   0  0  0  0  0  0  0  0  0  0  0  0
    8.6251  -13.9826   20.5452 C   0  0  1  0  0  0  0  0  0  0  0  0
    8.4049  -14.3931   21.9587 C   0  0  0  0  0  0  0  0  0  0  0  0
    8.4903  -13.6100   22.9212 O   0  0  0  0  0  0  0  0  0  0  0  0
    6.7883  -17.6540   25.8761 N   0  0  0  0  0  0  0  0  0  0  0  0
    6.8126  -18.3482   24.6229 C   0  0  0  0  0  0  0  0  0  0  0  0
    6.4046  -19.5611   24.6604 O   0  0  0  0  0  0  0  0  0  0  0  0
    7.2756  -17.7051   23.3827 C   0  0  0  0  0  0  0  0  0  0  0  0
    7.6996  -16.2805   23.5064 C   0  0  2  0  0  0  0  0  0  0  0  0
    8.0788  -15.7521   22.2361 N   0  0  0  0  0  0  0  0  0  0  0  0
    8.6063  -15.9904   24.6278 C   0  0  0  0  0  0  0  0  0  0  0  0
    9.8413  -16.2400   24.4347 O   0  0  0  0  0  0  0  0  0  0  0  0
    8.2622  -15.4734   25.8867 N   0  0  0  0  0  0  0  0  0  0  0  0
    9.2681  -15.0268   26.8587 C   0  0  1  0  0  0  0  0  0  0  0  0
    8.7375  -13.9388   27.7647 C   0  0  0  0  0  0  0  0  0  0  0  0
   10.0658  -13.5252   28.9264 S   0  0  0  0  0  0  0  0  0  0  0  0
    9.7115  -16.1871   27.6469 C   0  0  0  0  0  0  0  0  0  0  0  0
    8.9381  -17.1738   27.8106 O   0  0  0  0  0  0  0  0  0  0  0  0
   10.9676  -16.2922   28.2538 O   0  0  0  0  0  0  0  0  0  0  0  0
  1  2  1  0
  3  4  1  0
  3  2  1  0
  4  5  1  0
  5  1  1  0
  5  6  1  1
  7  6  2  0
  9 11  1  0
  9  8  1  0
 10  9  2  0
 12 11  1  6
 12 13  1  0
 12 14  1  0
 13  6  1  0
 14 16  1  0
 15 14  2  0
 16 17  1  0
 17 20  1  0
 17 18  1  1
 18 19  1  0
 20 21  2  0
 20 22  1  0
M  END
$$$$
