QQS.pdb
     RDKit          3D

 25 24  0  0  1  0  0  0  0  0999 V2000
   16.7024  -14.8215  -15.1815 N   0  0  0  0  0  0  0  0  0  0  0  0
   16.8102  -14.4002  -16.5312 C   0  0  0  0  0  0  0  0  0  0  0  0
   16.1348  -15.0162  -17.3917 O   0  0  0  0  0  0  0  0  0  0  0  0
   17.6704  -13.2853  -16.9569 C   0  0  0  0  0  0  0  0  0  0  0  0
   18.3504  -12.5980  -15.8061 C   0  0  0  0  0  0  0  0  0  0  0  0
   19.8023  -12.3739  -16.1641 C   0  0  2  0  0  0  0  0  0  0  0  0
   20.5421  -13.5553  -15.7844 N   0  0  0  0  0  0  0  0  0  0  0  0
   20.3403  -11.1390  -15.5405 C   0  0  0  0  0  0  0  0  0  0  0  0
   20.3073  -11.0443  -14.3048 O   0  0  0  0  0  0  0  0  0  0  0  0
   25.8334   -8.8726  -16.0968 N   0  0  0  0  0  0  0  0  0  0  0  0
   25.1911   -9.7561  -15.1950 C   0  0  0  0  0  0  0  0  0  0  0  0
   25.8739  -10.5236  -14.4923 O   0  0  0  0  0  0  0  0  0  0  0  0
   23.6916   -9.8038  -15.0468 C   0  0  0  0  0  0  0  0  0  0  0  0
   22.9779   -8.8567  -15.9251 C   0  0  0  0  0  0  0  0  0  0  0  0
   21.4868   -8.9023  -15.9512 C   0  0  2  0  0  0  0  0  0  0  0  0
   20.8684  -10.1176  -16.3543 N   0  0  0  0  0  0  0  0  0  0  0  0
   20.9652   -7.6806  -16.6029 C   0  0  0  0  0  0  0  0  0  0  0  0
   20.9545   -7.5527  -17.8655 O   0  0  0  0  0  0  0  0  0  0  0  0
   17.9892   -4.1116  -17.0250 O   0  0  0  0  0  0  0  0  0  0  0  0
   18.4609   -5.2586  -16.4355 C   0  0  0  0  0  0  0  0  0  0  0  0
   19.9595   -5.3799  -16.4891 C   0  0  2  0  0  0  0  0  0  0  0  0
   20.4473   -6.5822  -15.8545 N   0  0  0  0  0  0  0  0  0  0  0  0
   20.5994   -4.1439  -15.9133 C   0  0  0  0  0  0  0  0  0  0  0  0
   20.9138   -4.1365  -14.7049 O   0  0  0  0  0  0  0  0  0  0  0  0
   20.8478   -3.0255  -16.6751 O   0  0  0  0  0  0  0  0  0  0  0  0
  1  2  1  0
  2  4  1  0
  3  2  2  0
  4  5  1  0
  6  7  1  1
  6  5  1  0
  8  6  1  0
  8  9  2  0
 10 11  1  0
 11 13  1  0
 12 11  2  0
 13 14  1  0
 15 14  1  6
 15 16  1  0
 15 17  1  0
 16  8  1  0
 17 22  1  0
 17 18  2  0
 20 19  1  0
 21 20  1  1
 22 21  1  0
 23 25  1  0
 23 21  1  0
 24 23  2  0
M  END
$$$$
