QQS.pdb
     RDKit          3D

 25 24  0  0  1  0  0  0  0  0999 V2000
   25.1971  -23.2153  -13.6643 N   0  0  0  0  0  0  0  0  0  0  0  0
   24.1380  -23.9602  -13.0861 C   0  0  0  0  0  0  0  0  0  0  0  0
   24.2627  -25.2081  -13.0315 O   0  0  0  0  0  0  0  0  0  0  0  0
   22.9159  -23.3368  -12.5551 C   0  0  0  0  0  0  0  0  0  0  0  0
   22.9229  -21.8387  -12.6756 C   0  0  0  0  0  0  0  0  0  0  0  0
   22.7094  -21.4674  -14.1257 C   0  0  2  0  0  0  0  0  0  0  0  0
   23.6938  -22.1709  -14.9152 N   0  0  0  0  0  0  0  0  0  0  0  0
   22.7567  -19.9982  -14.3321 C   0  0  0  0  0  0  0  0  0  0  0  0
   22.6633  -19.2636  -13.3379 O   0  0  0  0  0  0  0  0  0  0  0  0
   26.5494  -16.9044  -18.1911 N   0  0  0  0  0  0  0  0  0  0  0  0
   25.6021  -15.9146  -17.8315 C   0  0  0  0  0  0  0  0  0  0  0  0
   25.8478  -14.7155  -18.0569 O   0  0  0  0  0  0  0  0  0  0  0  0
   24.2873  -16.2592  -17.1794 C   0  0  0  0  0  0  0  0  0  0  0  0
   24.1419  -17.6919  -16.8572 C   0  0  0  0  0  0  0  0  0  0  0  0
   22.9716  -18.1170  -16.0352 C   0  0  2  0  0  0  0  0  0  0  0  0
   22.9043  -19.4793  -15.6334 N   0  0  0  0  0  0  0  0  0  0  0  0
   21.7289  -17.5684  -16.6219 C   0  0  0  0  0  0  0  0  0  0  0  0
   21.1974  -18.0812  -17.6539 O   0  0  0  0  0  0  0  0  0  0  0  0
   17.4320  -15.8800  -16.2678 O   0  0  0  0  0  0  0  0  0  0  0  0
   18.6213  -16.3621  -15.7792 C   0  0  0  0  0  0  0  0  0  0  0  0
   19.8122  -15.9426  -16.5972 C   0  0  2  0  0  0  0  0  0  0  0  0
   21.0601  -16.4382  -16.0650 N   0  0  0  0  0  0  0  0  0  0  0  0
   19.8277  -14.4451  -16.7580 C   0  0  0  0  0  0  0  0  0  0  0  0
   20.4293  -13.7550  -15.9090 O   0  0  0  0  0  0  0  0  0  0  0  0
   19.2011  -13.8151  -17.8085 O   0  0  0  0  0  0  0  0  0  0  0  0
  1  2  1  0
  2  4  1  0
  3  2  2  0
  4  5  1  0
  6  7  1  6
  6  5  1  0
  8  6  1  0
  8  9  2  0
 10 11  1  0
 11 13  1  0
 12 11  2  0
 13 14  1  0
 15 14  1  6
 15 16  1  0
 15 17  1  0
 16  8  1  0
 17 22  1  0
 17 18  2  0
 20 19  1  0
 21 20  1  1
 22 21  1  0
 23 25  1  0
 23 21  1  0
 24 23  2  0
M  END
$$$$
