QQS.pdb
     RDKit          3D

 25 24  0  0  1  0  0  0  0  0999 V2000
   19.1880  -11.9749  -16.4499 N   0  0  0  0  0  0  0  0  0  0  0  0
   18.4415  -12.8432  -15.6136 C   0  0  0  0  0  0  0  0  0  0  0  0
   18.6312  -14.0782  -15.7352 O   0  0  0  0  0  0  0  0  0  0  0  0
   17.4669  -12.3606  -14.6230 C   0  0  0  0  0  0  0  0  0  0  0  0
   17.3725  -10.8612  -14.5769 C   0  0  0  0  0  0  0  0  0  0  0  0
   16.2970  -10.4728  -13.5875 C   0  0  2  0  0  0  0  0  0  0  0  0
   15.0220  -10.8753  -14.1347 N   0  0  0  0  0  0  0  0  0  0  0  0
   16.3457   -9.0261  -13.2589 C   0  0  0  0  0  0  0  0  0  0  0  0
   15.7489   -8.2355  -14.0044 O   0  0  0  0  0  0  0  0  0  0  0  0
   15.6801   -5.8165   -7.9342 N   0  0  0  0  0  0  0  0  0  0  0  0
   14.8060   -6.4237   -8.8689 C   0  0  0  0  0  0  0  0  0  0  0  0
   13.6057   -6.5799   -8.5791 O   0  0  0  0  0  0  0  0  0  0  0  0
   15.2762   -6.8933  -10.2220 C   0  0  0  0  0  0  0  0  0  0  0  0
   16.7386   -6.8129  -10.4032 C   0  0  0  0  0  0  0  0  0  0  0  0
   17.3155   -7.2560  -11.7058 C   0  0  2  0  0  0  0  0  0  0  0  0
   17.0581   -8.5903  -12.1245 N   0  0  0  0  0  0  0  0  0  0  0  0
   18.7290   -6.8273  -11.7929 C   0  0  0  0  0  0  0  0  0  0  0  0
   19.6516   -7.4482  -11.1817 O   0  0  0  0  0  0  0  0  0  0  0  0
   22.5677   -6.0749  -13.8201 O   0  0  0  0  0  0  0  0  0  0  0  0
   21.2684   -6.4217  -13.5425 C   0  0  0  0  0  0  0  0  0  0  0  0
   20.5246   -5.3656  -12.7713 C   0  0  2  0  0  0  0  0  0  0  0  0
   19.1342   -5.6979  -12.5644 N   0  0  0  0  0  0  0  0  0  0  0  0
   20.6863   -4.0260  -13.4407 C   0  0  0  0  0  0  0  0  0  0  0  0
   19.7665   -3.6039  -14.1718 O   0  0  0  0  0  0  0  0  0  0  0  0
   21.8131   -3.2548  -13.2722 O   0  0  0  0  0  0  0  0  0  0  0  0
  1  2  1  0
  2  4  1  0
  3  2  2  0
  4  5  1  0
  6  7  1  6
  6  5  1  0
  8  6  1  0
  8  9  2  0
 10 11  1  0
 11 13  1  0
 12 11  2  0
 13 14  1  0
 15 14  1  1
 15 16  1  0
 15 17  1  0
 16  8  1  0
 17 22  1  0
 17 18  2  0
 20 19  1  0
 21 20  1  6
 22 21  1  0
 23 25  1  0
 23 21  1  0
 24 23  2  0
M  END
$$$$
