QQS.pdb
     RDKit          3D

 25 24  0  0  1  0  0  0  0  0999 V2000
   16.4101  -14.1594  -13.8759 N   0  0  0  0  0  0  0  0  0  0  0  0
   17.0446  -14.0522  -15.1395 C   0  0  0  0  0  0  0  0  0  0  0  0
   17.6534  -15.0597  -15.5753 O   0  0  0  0  0  0  0  0  0  0  0  0
   17.0178  -12.8238  -15.9485 C   0  0  0  0  0  0  0  0  0  0  0  0
   16.2369  -11.7140  -15.3022 C   0  0  0  0  0  0  0  0  0  0  0  0
   17.1455  -10.5177  -15.1300 C   0  0  2  0  0  0  0  0  0  0  0  0
   18.2546  -10.9173  -14.2950 N   0  0  0  0  0  0  0  0  0  0  0  0
   16.4163   -9.3444  -14.5869 C   0  0  0  0  0  0  0  0  0  0  0  0
   15.4394   -8.9174  -15.2195 O   0  0  0  0  0  0  0  0  0  0  0  0
   15.2051   -7.9253   -8.5721 N   0  0  0  0  0  0  0  0  0  0  0  0
   14.9628   -6.7015   -9.2429 C   0  0  0  0  0  0  0  0  0  0  0  0
   14.3931   -5.7718   -8.6427 O   0  0  0  0  0  0  0  0  0  0  0  0
   15.3754   -6.4741  -10.6749 C   0  0  0  0  0  0  0  0  0  0  0  0
   15.9877   -7.6564  -11.3112 C   0  0  0  0  0  0  0  0  0  0  0  0
   16.3484   -7.5748  -12.7566 C   0  0  2  0  0  0  0  0  0  0  0  0
   16.8441   -8.7511  -13.3829 N   0  0  0  0  0  0  0  0  0  0  0  0
   17.1373   -6.3472  -13.0017 C   0  0  0  0  0  0  0  0  0  0  0  0
   18.4019   -6.3781  -13.1032 O   0  0  0  0  0  0  0  0  0  0  0  0
   18.2500   -3.3004  -15.8626 O   0  0  0  0  0  0  0  0  0  0  0  0
   17.6513   -4.3420  -15.1977 C   0  0  0  0  0  0  0  0  0  0  0  0
   17.1759   -3.9708  -13.8195 C   0  0  2  0  0  0  0  0  0  0  0  0
   16.5260   -5.0655  -13.1373 N   0  0  0  0  0  0  0  0  0  0  0  0
   16.2945   -2.7513  -13.8874 C   0  0  0  0  0  0  0  0  0  0  0  0
   15.0723   -2.9030  -14.0930 O   0  0  0  0  0  0  0  0  0  0  0  0
   16.7925   -1.4784  -13.7303 O   0  0  0  0  0  0  0  0  0  0  0  0
  1  2  1  0
  2  4  1  0
  3  2  2  0
  4  5  1  0
  6  7  1  1
  6  5  1  0
  8  6  1  0
  8  9  2  0
 10 11  1  0
 11 13  1  0
 12 11  2  0
 13 14  1  0
 15 14  1  1
 15 16  1  0
 15 17  1  0
 16  8  1  0
 17 22  1  0
 17 18  2  0
 20 19  1  0
 21 20  1  6
 22 21  1  0
 23 25  1  0
 23 21  1  0
 24 23  2  0
M  END
$$$$
