QQS.pdb
     RDKit          3D

 25 24  0  0  1  0  0  0  0  0999 V2000
   16.0828  -11.5590  -16.0640 N   0  0  0  0  0  0  0  0  0  0  0  0
   16.1669  -11.8682  -17.4453 C   0  0  0  0  0  0  0  0  0  0  0  0
   15.1724  -12.4127  -17.9842 O   0  0  0  0  0  0  0  0  0  0  0  0
   17.3572  -11.5801  -18.2604 C   0  0  0  0  0  0  0  0  0  0  0  0
   18.3833  -10.7607  -17.5292 C   0  0  0  0  0  0  0  0  0  0  0  0
   19.6403  -11.5860  -17.3707 C   0  0  2  0  0  0  0  0  0  0  0  0
   19.2560  -12.8975  -16.9025 N   0  0  0  0  0  0  0  0  0  0  0  0
   20.6243  -10.9266  -16.4761 C   0  0  0  0  0  0  0  0  0  0  0  0
   20.2946  -10.7100  -15.3008 O   0  0  0  0  0  0  0  0  0  0  0  0
   26.9804  -11.3445  -16.8506 N   0  0  0  0  0  0  0  0  0  0  0  0
   26.7515  -10.3326  -15.8863 C   0  0  0  0  0  0  0  0  0  0  0  0
   27.7006   -9.9052  -15.2041 O   0  0  0  0  0  0  0  0  0  0  0  0
   25.3851   -9.7409  -15.6505 C   0  0  0  0  0  0  0  0  0  0  0  0
   24.3285  -10.3322  -16.4941 C   0  0  0  0  0  0  0  0  0  0  0  0
   22.9275   -9.8520  -16.3134 C   0  0  2  0  0  0  0  0  0  0  0  0
   21.8918  -10.5672  -16.9749 N   0  0  0  0  0  0  0  0  0  0  0  0
   22.8832   -8.3817  -16.4740 C   0  0  0  0  0  0  0  0  0  0  0  0
   22.8839   -7.8372  -17.6203 O   0  0  0  0  0  0  0  0  0  0  0  0
   20.7264   -4.6218  -16.2450 O   0  0  0  0  0  0  0  0  0  0  0  0
   21.1372   -5.9309  -16.1895 C   0  0  0  0  0  0  0  0  0  0  0  0
   22.4562   -6.1094  -15.4882 C   0  0  2  0  0  0  0  0  0  0  0  0
   22.8375   -7.4963  -15.3565 N   0  0  0  0  0  0  0  0  0  0  0  0
   22.4331   -5.4063  -14.1564 C   0  0  0  0  0  0  0  0  0  0  0  0
   22.5217   -6.0885  -13.1144 O   0  0  0  0  0  0  0  0  0  0  0  0
   22.3179   -4.0393  -14.0521 O   0  0  0  0  0  0  0  0  0  0  0  0
  1  2  1  0
  2  4  1  0
  3  2  2  0
  4  5  1  0
  6  7  1  1
  6  5  1  0
  8  6  1  0
  8  9  2  0
 10 11  1  0
 11 13  1  0
 12 11  2  0
 13 14  1  0
 15 14  1  6
 15 16  1  0
 15 17  1  0
 16  8  1  0
 17 22  1  0
 17 18  2  0
 20 19  1  0
 21 20  1  1
 22 21  1  0
 23 25  1  0
 23 21  1  0
 24 23  2  0
M  END
$$$$
