QQS.pdb
     RDKit          3D

 25 24  0  0  1  0  0  0  0  0999 V2000
   10.9756  -13.8492  -10.0140 N   0  0  0  0  0  0  0  0  0  0  0  0
   11.2769  -14.7275  -11.0857 C   0  0  0  0  0  0  0  0  0  0  0  0
   10.5058  -15.6988  -11.2801 O   0  0  0  0  0  0  0  0  0  0  0  0
   12.4415  -14.5477  -11.9664 C   0  0  0  0  0  0  0  0  0  0  0  0
   13.3197  -13.4015  -11.5493 C   0  0  0  0  0  0  0  0  0  0  0  0
   14.5306  -13.3635  -12.4541 C   0  0  2  0  0  0  0  0  0  0  0  0
   15.1639  -14.6610  -12.4054 N   0  0  0  0  0  0  0  0  0  0  0  0
   15.4572  -12.2625  -12.0903 C   0  0  0  0  0  0  0  0  0  0  0  0
   16.2753  -12.4617  -11.1804 O   0  0  0  0  0  0  0  0  0  0  0  0
   18.0647   -8.1370  -16.0887 N   0  0  0  0  0  0  0  0  0  0  0  0
   18.2779   -7.5216  -14.8308 C   0  0  0  0  0  0  0  0  0  0  0  0
   19.0126   -6.5202  -14.7512 O   0  0  0  0  0  0  0  0  0  0  0  0
   17.6395   -8.0357  -13.5656 C   0  0  0  0  0  0  0  0  0  0  0  0
   16.8062   -9.2369  -13.7668 C   0  0  0  0  0  0  0  0  0  0  0  0
   16.1715   -9.8659  -12.5720 C   0  0  2  0  0  0  0  0  0  0  0  0
   15.3874  -11.0343  -12.7767 N   0  0  0  0  0  0  0  0  0  0  0  0
   15.5412   -8.8192  -11.7374 C   0  0  0  0  0  0  0  0  0  0  0  0
   14.3832   -8.3693  -11.9963 O   0  0  0  0  0  0  0  0  0  0  0  0
   15.0557   -6.5147   -7.5705 O   0  0  0  0  0  0  0  0  0  0  0  0
   15.6329   -7.5013   -8.3314 C   0  0  0  0  0  0  0  0  0  0  0  0
   15.5957   -7.2103   -9.8070 C   0  0  2  0  0  0  0  0  0  0  0  0
   16.1945   -8.2586  -10.6000 N   0  0  0  0  0  0  0  0  0  0  0  0
   16.2231   -5.8697  -10.0859 C   0  0  0  0  0  0  0  0  0  0  0  0
   17.3146   -5.8305  -10.6909 O   0  0  0  0  0  0  0  0  0  0  0  0
   15.6327   -4.6898   -9.6958 O   0  0  0  0  0  0  0  0  0  0  0  0
  1  2  1  0
  2  4  1  0
  3  2  2  0
  4  5  1  0
  6  7  1  1
  6  5  1  0
  8  6  1  0
  8  9  2  0
 10 11  1  0
 11 13  1  0
 12 11  2  0
 13 14  1  0
 15 14  1  6
 15 16  1  0
 15 17  1  0
 16  8  1  0
 17 22  1  0
 17 18  2  0
 20 19  1  0
 21 20  1  1
 22 21  1  0
 23 25  1  0
 23 21  1  0
 24 23  2  0
M  END
$$$$
