QQS.pdb
     RDKit          3D

 25 24  0  0  1  0  0  0  0  0999 V2000
   24.9144  -22.1841   -9.3217 N   0  0  0  0  0  0  0  0  0  0  0  0
   25.0812  -20.8326   -8.9264 C   0  0  0  0  0  0  0  0  0  0  0  0
   24.5084  -20.4561   -7.8748 O   0  0  0  0  0  0  0  0  0  0  0  0
   25.8879  -19.8678   -9.6896 C   0  0  0  0  0  0  0  0  0  0  0  0
   26.6064  -20.4947  -10.8515 C   0  0  0  0  0  0  0  0  0  0  0  0
   25.7327  -20.3819  -12.0804 C   0  0  2  0  0  0  0  0  0  0  0  0
   24.6085  -21.2733  -11.9111 N   0  0  0  0  0  0  0  0  0  0  0  0
   26.4937  -20.6537  -13.3255 C   0  0  0  0  0  0  0  0  0  0  0  0
   27.4085  -21.4893  -13.2825 O   0  0  0  0  0  0  0  0  0  0  0  0
   27.3010  -23.9354  -16.5086 N   0  0  0  0  0  0  0  0  0  0  0  0
   26.1029  -23.7588  -15.7739 C   0  0  0  0  0  0  0  0  0  0  0  0
   25.6387  -24.7070  -15.1146 O   0  0  0  0  0  0  0  0  0  0  0  0
   25.3569  -22.4490  -15.7549 C   0  0  0  0  0  0  0  0  0  0  0  0
   25.9999  -21.3880  -16.5539 C   0  0  0  0  0  0  0  0  0  0  0  0
   26.6098  -20.2319  -15.8344 C   0  0  2  0  0  0  0  0  0  0  0  0
   26.1646  -19.9664  -14.5103 N   0  0  0  0  0  0  0  0  0  0  0  0
   26.6563  -19.0577  -16.7335 C   0  0  0  0  0  0  0  0  0  0  0  0
   25.6570  -18.2886  -16.8760 O   0  0  0  0  0  0  0  0  0  0  0  0
   30.2236  -17.8395  -18.8201 O   0  0  0  0  0  0  0  0  0  0  0  0
   29.2900  -16.9518  -18.3447 C   0  0  0  0  0  0  0  0  0  0  0  0
   27.9003  -17.5253  -18.2898 C   0  0  2  0  0  0  0  0  0  0  0  0
   27.8202  -18.7238  -17.4878 N   0  0  0  0  0  0  0  0  0  0  0  0
   27.3776  -17.7491  -19.6846 C   0  0  0  0  0  0  0  0  0  0  0  0
   27.3487  -16.7856  -20.4781 O   0  0  0  0  0  0  0  0  0  0  0  0
   26.9320  -18.9791  -20.1107 O   0  0  0  0  0  0  0  0  0  0  0  0
  1  2  1  0
  2  4  1  0
  3  2  2  0
  4  5  1  0
  6  7  1  1
  6  5  1  0
  8  6  1  0
  8  9  2  0
 10 11  1  0
 11 13  1  0
 12 11  2  0
 13 14  1  0
 15 14  1  6
 15 16  1  0
 15 17  1  0
 16  8  1  0
 17 22  1  0
 17 18  2  0
 20 19  1  0
 21 20  1  6
 22 21  1  0
 23 25  1  0
 23 21  1  0
 24 23  2  0
M  END
$$$$
