QQS.pdb
     RDKit          3D

 25 24  0  0  1  0  0  0  0  0999 V2000
   16.2735  -10.7035  -14.6487 N   0  0  0  0  0  0  0  0  0  0  0  0
   16.3888  -11.9854  -15.2437 C   0  0  0  0  0  0  0  0  0  0  0  0
   15.3383  -12.6551  -15.3977 O   0  0  0  0  0  0  0  0  0  0  0  0
   17.6732  -12.5535  -15.6815 C   0  0  0  0  0  0  0  0  0  0  0  0
   18.8540  -11.7238  -15.2615 C   0  0  0  0  0  0  0  0  0  0  0  0
   18.9654  -10.5341  -16.1881 C   0  0  2  0  0  0  0  0  0  0  0  0
   19.0198  -11.0292  -17.5441 N   0  0  0  0  0  0  0  0  0  0  0  0
   20.1274   -9.6758  -15.8471 C   0  0  0  0  0  0  0  0  0  0  0  0
   20.4413   -9.5617  -14.6532 O   0  0  0  0  0  0  0  0  0  0  0  0
   24.7575   -7.9266  -20.0156 N   0  0  0  0  0  0  0  0  0  0  0  0
   24.5105   -9.1709  -19.3855 C   0  0  0  0  0  0  0  0  0  0  0  0
   25.0979  -10.1923  -19.7865 O   0  0  0  0  0  0  0  0  0  0  0  0
   23.5528   -9.3109  -18.2297 C   0  0  0  0  0  0  0  0  0  0  0  0
   22.9253   -8.0392  -17.8214 C   0  0  0  0  0  0  0  0  0  0  0  0
   21.8909   -8.0737  -16.7467 C   0  0  2  0  0  0  0  0  0  0  0  0
   20.8369   -9.0198  -16.8722 N   0  0  0  0  0  0  0  0  0  0  0  0
   21.4669   -6.6936  -16.4228 C   0  0  0  0  0  0  0  0  0  0  0  0
   20.7289   -6.0228  -17.2074 O   0  0  0  0  0  0  0  0  0  0  0  0
   19.3374   -3.5030  -14.3780 O   0  0  0  0  0  0  0  0  0  0  0  0
   19.8384   -4.7110  -14.7968 C   0  0  0  0  0  0  0  0  0  0  0  0
   21.3419   -4.7477  -14.8367 C   0  0  2  0  0  0  0  0  0  0  0  0
   21.8607   -6.0410  -15.2170 N   0  0  0  0  0  0  0  0  0  0  0  0
   21.9059   -4.2838  -13.5194 C   0  0  0  0  0  0  0  0  0  0  0  0
   22.4785   -5.1146  -12.7840 O   0  0  0  0  0  0  0  0  0  0  0  0
   21.8100   -2.9763  -13.1018 O   0  0  0  0  0  0  0  0  0  0  0  0
  1  2  1  0
  2  4  1  0
  3  2  2  0
  4  5  1  0
  6  7  1  6
  6  5  1  0
  8  6  1  0
  8  9  2  0
 10 11  1  0
 11 13  1  0
 12 11  2  0
 13 14  1  0
 15 14  1  6
 15 16  1  0
 15 17  1  0
 16  8  1  0
 17 22  1  0
 17 18  2  0
 20 19  1  0
 21 20  1  1
 22 21  1  0
 23 25  1  0
 23 21  1  0
 24 23  2  0
M  END
$$$$
