YHS.pdb
     RDKit          3D

 29 30  0  0  1  0  0  0  0  0999 V2000
   25.5302   -7.9137  -26.5992 O   0  0  0  0  0  0  0  0  0  0  0  0
   25.4661   -7.9992  -25.2192 C   0  0  0  0  0  0  0  0  0  0  0  0
   26.1665   -8.9969  -24.5650 C   0  0  0  0  0  0  0  0  0  0  0  0
   26.1012   -9.0802  -23.1957 C   0  0  0  0  0  0  0  0  0  0  0  0
   25.3688   -8.2170  -22.4222 C   0  0  0  0  0  0  0  0  0  0  0  0
   25.2770   -8.2729  -20.9560 C   0  0  0  0  0  0  0  0  0  0  0  0
   26.1404   -7.2259  -20.3517 C   0  0  2  0  0  0  0  0  0  0  0  0
   27.5273   -7.5312  -20.6097 N   0  0  0  0  0  0  0  0  0  0  0  0
   25.9205   -7.0013  -18.9232 C   0  0  0  0  0  0  0  0  0  0  0  0
   26.3372   -7.9161  -18.1309 O   0  0  0  0  0  0  0  0  0  0  0  0
   24.6698   -7.2188  -23.0978 C   0  0  0  0  0  0  0  0  0  0  0  0
   24.7299   -7.1263  -24.4811 C   0  0  0  0  0  0  0  0  0  0  0  0
   25.3043   -5.9022  -18.3016 N   0  0  0  0  0  0  0  0  0  0  0  0
   25.1023   -5.7552  -16.8981 C   0  0  1  0  0  0  0  0  0  0  0  0
   26.1174   -5.0291  -16.1225 C   0  0  0  0  0  0  0  0  0  0  0  0
   27.0192   -4.1697  -16.9184 C   0  0  0  0  0  0  0  0  0  0  0  0
   26.9295   -4.0997  -18.3068 C   0  0  0  0  0  0  0  0  0  0  0  0
   27.8619   -3.2574  -18.7452 N   0  0  0  0  0  0  0  0  0  0  0  0
   28.5234   -2.8052  -17.6841 C   0  0  0  0  0  0  0  0  0  0  0  0
   28.0078   -3.3649  -16.5495 N   0  0  0  0  0  0  0  0  0  0  0  0
   23.7211   -5.2531  -16.6586 C   0  0  0  0  0  0  0  0  0  0  0  0
   23.0552   -4.8647  -17.6452 O   0  0  0  0  0  0  0  0  0  0  0  0
   19.4564   -5.1542  -15.7064 O   0  0  0  0  0  0  0  0  0  0  0  0
   20.7523   -5.5478  -15.9192 C   0  0  0  0  0  0  0  0  0  0  0  0
   21.7668   -4.7509  -15.1285 C   0  0  2  0  0  0  0  0  0  0  0  0
   23.1199   -5.1906  -15.3913 N   0  0  0  0  0  0  0  0  0  0  0  0
   21.4444   -4.7113  -13.6895 C   0  0  0  0  0  0  0  0  0  0  0  0
   22.0148   -5.4198  -12.8404 O   0  0  0  0  0  0  0  0  0  0  0  0
   20.4406   -3.8291  -13.2409 O   0  0  0  0  0  0  0  0  0  0  0  0
  2  1  1  0
  3  2  2  0
  4  3  1  0
  5 11  1  0
  5  4  2  0
  6  7  1  0
  6  5  1  0
  7  9  1  0
  7  8  1  1
  9 10  2  0
 11 12  2  0
 12  2  1  0
 13 14  1  0
 13  9  1  0
 14 21  1  0
 15 16  1  0
 14 15  1  6
 16 17  2  0
 17 18  1  0
 19 18  1  0
 20 16  1  0
 20 19  2  0
 21 26  1  0
 22 21  2  0
 24 23  1  0
 25 24  1  6
 26 25  1  0
 27 29  1  0
 27 25  1  0
 28 27  2  0
M  END
$$$$
