YHS.pdb
     RDKit          3D

 29 30  0  0  1  0  0  0  0  0999 V2000
   11.2423   -9.6360   -9.2423 O   0  0  0  0  0  0  0  0  0  0  0  0
   12.5400   -9.3170   -9.6026 C   0  0  0  0  0  0  0  0  0  0  0  0
   13.5567  -10.2236   -9.3611 C   0  0  0  0  0  0  0  0  0  0  0  0
   14.8438   -9.9048   -9.7189 C   0  0  0  0  0  0  0  0  0  0  0  0
   15.1890   -8.7183  -10.3128 C   0  0  0  0  0  0  0  0  0  0  0  0
   16.5533   -8.3432  -10.7120 C   0  0  0  0  0  0  0  0  0  0  0  0
   16.7182   -8.5097  -12.1790 C   0  0  2  0  0  0  0  0  0  0  0  0
   16.6420   -9.9098  -12.5209 N   0  0  0  0  0  0  0  0  0  0  0  0
   17.9341   -7.9114  -12.7295 C   0  0  0  0  0  0  0  0  0  0  0  0
   18.9625   -8.6703  -12.7992 O   0  0  0  0  0  0  0  0  0  0  0  0
   14.1526   -7.8174  -10.5483 C   0  0  0  0  0  0  0  0  0  0  0  0
   12.8488   -8.1306  -10.1906 C   0  0  0  0  0  0  0  0  0  0  0  0
   18.1225   -6.5992  -13.1950 N   0  0  0  0  0  0  0  0  0  0  0  0
   19.2749   -6.1282  -13.8896 C   0  0  1  0  0  0  0  0  0  0  0  0
   19.8002   -6.9413  -14.9951 C   0  0  0  0  0  0  0  0  0  0  0  0
   20.1437   -8.3349  -14.6410 C   0  0  0  0  0  0  0  0  0  0  0  0
   21.3285   -8.6533  -13.9811 C   0  0  0  0  0  0  0  0  0  0  0  0
   21.3669   -9.9713  -13.8009 N   0  0  0  0  0  0  0  0  0  0  0  0
   20.2544  -10.4790  -14.3231 C   0  0  0  0  0  0  0  0  0  0  0  0
   19.4919   -9.4727  -14.8449 N   0  0  0  0  0  0  0  0  0  0  0  0
   19.0626   -4.7037  -14.2678 C   0  0  0  0  0  0  0  0  0  0  0  0
   17.8867   -4.2775  -14.3252 O   0  0  0  0  0  0  0  0  0  0  0  0
   19.2625   -0.3117  -13.8113 O   0  0  0  0  0  0  0  0  0  0  0  0
   19.3117   -1.6729  -13.6559 C   0  0  0  0  0  0  0  0  0  0  0  0
   19.9417   -2.3956  -14.8266 C   0  0  2  0  0  0  0  0  0  0  0  0
   20.1036   -3.8089  -14.5627 N   0  0  0  0  0  0  0  0  0  0  0  0
   21.1890   -1.7478  -15.2747 C   0  0  0  0  0  0  0  0  0  0  0  0
   22.3215   -2.2062  -15.0388 O   0  0  0  0  0  0  0  0  0  0  0  0
   21.1066   -0.5475  -16.0093 O   0  0  0  0  0  0  0  0  0  0  0  0
  2  1  1  0
  3  2  2  0
  4  3  1  0
  5 11  1  0
  5  4  2  0
  6  7  1  0
  6  5  1  0
  7  9  1  0
  7  8  1  1
  9 10  2  0
 11 12  2  0
 12  2  1  0
 13 14  1  0
 13  9  1  0
 14 21  1  0
 15 16  1  0
 14 15  1  6
 16 17  2  0
 17 18  1  0
 19 18  1  0
 20 16  1  0
 20 19  2  0
 21 26  1  0
 22 21  2  0
 24 23  1  0
 25 24  1  1
 26 25  1  0
 27 29  1  0
 27 25  1  0
 28 27  2  0
M  END
$$$$
