YHS.pdb
     RDKit          3D

 29 30  0  0  1  0  0  0  0  0999 V2000
   29.3903   -7.8189  -23.9922 O   0  0  0  0  0  0  0  0  0  0  0  0
   28.3236   -7.5904  -23.1402 C   0  0  0  0  0  0  0  0  0  0  0  0
   28.4708   -7.8274  -21.7852 C   0  0  0  0  0  0  0  0  0  0  0  0
   27.4110   -7.6004  -20.9417 C   0  0  0  0  0  0  0  0  0  0  0  0
   26.1912   -7.1441  -21.3701 C   0  0  0  0  0  0  0  0  0  0  0  0
   25.0358   -6.8871  -20.4980 C   0  0  0  0  0  0  0  0  0  0  0  0
   24.4578   -8.1721  -20.0272 C   0  0  2  0  0  0  0  0  0  0  0  0
   23.9411   -8.9138  -21.1524 N   0  0  0  0  0  0  0  0  0  0  0  0
   23.4380   -8.0393  -18.9871 C   0  0  0  0  0  0  0  0  0  0  0  0
   22.2245   -7.9548  -19.3850 O   0  0  0  0  0  0  0  0  0  0  0  0
   26.0609   -6.9111  -22.7375 C   0  0  0  0  0  0  0  0  0  0  0  0
   27.1262   -7.1371  -23.5977 C   0  0  0  0  0  0  0  0  0  0  0  0
   23.6190   -7.9905  -17.5945 N   0  0  0  0  0  0  0  0  0  0  0  0
   22.5736   -7.8958  -16.6300 C   0  0  1  0  0  0  0  0  0  0  0  0
   22.3923   -9.0109  -15.6903 C   0  0  0  0  0  0  0  0  0  0  0  0
   21.2696   -8.8556  -14.7412 C   0  0  0  0  0  0  0  0  0  0  0  0
   21.4808   -8.5484  -13.3990 C   0  0  0  0  0  0  0  0  0  0  0  0
   20.2976   -8.4765  -12.7941 N   0  0  0  0  0  0  0  0  0  0  0  0
   19.3651   -8.7272  -13.7083 C   0  0  0  0  0  0  0  0  0  0  0  0
   19.9585   -8.9627  -14.9161 N   0  0  0  0  0  0  0  0  0  0  0  0
   22.6611   -6.5737  -15.9507 C   0  0  0  0  0  0  0  0  0  0  0  0
   23.7588   -6.2392  -15.4499 O   0  0  0  0  0  0  0  0  0  0  0  0
   22.2014   -3.2874  -17.3511 O   0  0  0  0  0  0  0  0  0  0  0  0
   21.3567   -3.2756  -16.2713 C   0  0  0  0  0  0  0  0  0  0  0  0
   21.6546   -4.3565  -15.2552 C   0  0  2  0  0  0  0  0  0  0  0  0
   21.5853   -5.6783  -15.8394 N   0  0  0  0  0  0  0  0  0  0  0  0
   20.8290   -4.2210  -14.0402 C   0  0  0  0  0  0  0  0  0  0  0  0
   19.9267   -5.0209  -13.7328 O   0  0  0  0  0  0  0  0  0  0  0  0
   21.0653   -3.1337  -13.1745 O   0  0  0  0  0  0  0  0  0  0  0  0
  2  1  1  0
  3  2  2  0
  4  3  1  0
  5 11  1  0
  5  4  2  0
  6  7  1  0
  6  5  1  0
  7  9  1  0
  7  8  1  6
  9 10  2  0
 11 12  2  0
 12  2  1  0
 13 14  1  0
 13  9  1  0
 14 21  1  0
 15 16  1  0
 14 15  1  1
 16 17  2  0
 17 18  1  0
 19 18  1  0
 20 16  1  0
 20 19  2  0
 21 26  1  0
 22 21  2  0
 24 23  1  0
 25 24  1  6
 26 25  1  0
 27 29  1  0
 27 25  1  0
 28 27  2  0
M  END
$$$$
