YHS.pdb
     RDKit          3D

 29 30  0  0  1  0  0  0  0  0999 V2000
   25.1757  -14.1413  -16.6549 O   0  0  0  0  0  0  0  0  0  0  0  0
   24.5484  -12.9369  -16.3871 C   0  0  0  0  0  0  0  0  0  0  0  0
   23.9056  -12.2614  -17.4091 C   0  0  0  0  0  0  0  0  0  0  0  0
   23.2842  -11.0662  -17.1413 C   0  0  0  0  0  0  0  0  0  0  0  0
   23.2622  -10.4904  -15.8973 C   0  0  0  0  0  0  0  0  0  0  0  0
   22.6059   -9.2156  -15.5721 C   0  0  0  0  0  0  0  0  0  0  0  0
   21.3699   -9.4653  -14.7868 C   0  0  2  0  0  0  0  0  0  0  0  0
   20.4882  -10.3326  -15.5308 N   0  0  0  0  0  0  0  0  0  0  0  0
   20.6630   -8.2584  -14.3587 C   0  0  0  0  0  0  0  0  0  0  0  0
   19.7192   -7.8493  -15.1204 O   0  0  0  0  0  0  0  0  0  0  0  0
   23.9146  -11.1843  -14.8804 C   0  0  0  0  0  0  0  0  0  0  0  0
   24.5449  -12.3928  -15.1411 C   0  0  0  0  0  0  0  0  0  0  0  0
   20.8882   -7.4814  -13.2099 N   0  0  0  0  0  0  0  0  0  0  0  0
   20.2104   -6.2691  -12.8886 C   0  0  1  0  0  0  0  0  0  0  0  0
   19.8033   -6.0495  -11.4939 C   0  0  0  0  0  0  0  0  0  0  0  0
   18.6927   -6.9037  -11.0225 C   0  0  0  0  0  0  0  0  0  0  0  0
   18.0395   -7.7931  -11.8727 C   0  0  0  0  0  0  0  0  0  0  0  0
   17.0908   -8.4168  -11.1784 N   0  0  0  0  0  0  0  0  0  0  0  0
   17.1318   -7.9482   -9.9346 C   0  0  0  0  0  0  0  0  0  0  0  0
   18.1207   -7.0114   -9.8299 N   0  0  0  0  0  0  0  0  0  0  0  0
   20.9735   -5.1236  -13.4569 C   0  0  0  0  0  0  0  0  0  0  0  0
   22.1924   -5.0339  -13.1852 O   0  0  0  0  0  0  0  0  0  0  0  0
   20.9473   -3.9712  -17.1021 O   0  0  0  0  0  0  0  0  0  0  0  0
   20.7571   -2.8493  -16.3375 C   0  0  0  0  0  0  0  0  0  0  0  0
   21.1268   -3.0361  -14.8821 C   0  0  2  0  0  0  0  0  0  0  0  0
   20.4072   -4.1381  -14.2812 N   0  0  0  0  0  0  0  0  0  0  0  0
   21.0073   -1.7834  -14.1122 C   0  0  0  0  0  0  0  0  0  0  0  0
   20.0465   -1.5288  -13.3638 O   0  0  0  0  0  0  0  0  0  0  0  0
   22.0283   -0.8175  -14.2214 O   0  0  0  0  0  0  0  0  0  0  0  0
  2  1  1  0
  3  2  2  0
  4  3  1  0
  5 11  1  0
  5  4  2  0
  6  7  1  0
  6  5  1  0
  7  9  1  0
  7  8  1  6
  9 10  2  0
 11 12  2  0
 12  2  1  0
 13 14  1  0
 13  9  1  0
 14 21  1  0
 15 16  1  0
 14 15  1  1
 16 17  2  0
 17 18  1  0
 19 18  1  0
 20 16  1  0
 20 19  2  0
 21 26  1  0
 22 21  2  0
 24 23  1  0
 25 24  1  6
 26 25  1  0
 27 29  1  0
 27 25  1  0
 28 27  2  0
M  END
$$$$
