YHS.pdb
     RDKit          3D

 29 30  0  0  1  0  0  0  0  0999 V2000
   27.9152  -10.5371  -16.0281 O   0  0  0  0  0  0  0  0  0  0  0  0
   26.6961   -9.9522  -15.7325 C   0  0  0  0  0  0  0  0  0  0  0  0
   25.9229  -10.4689  -14.7082 C   0  0  0  0  0  0  0  0  0  0  0  0
   24.7133   -9.8873  -14.4169 C   0  0  0  0  0  0  0  0  0  0  0  0
   24.2156   -8.8038  -15.0936 C   0  0  0  0  0  0  0  0  0  0  0  0
   22.9282   -8.1533  -14.8090 C   0  0  0  0  0  0  0  0  0  0  0  0
   21.8092   -9.0705  -15.1457 C   0  0  2  0  0  0  0  0  0  0  0  0
   21.7999   -9.3248  -16.5664 N   0  0  0  0  0  0  0  0  0  0  0  0
   20.4925   -8.6198  -14.6955 C   0  0  0  0  0  0  0  0  0  0  0  0
   19.8900   -7.7770  -15.4472 O   0  0  0  0  0  0  0  0  0  0  0  0
   25.0073   -8.2969  -16.1219 C   0  0  0  0  0  0  0  0  0  0  0  0
   26.2312   -8.8774  -16.4235 C   0  0  0  0  0  0  0  0  0  0  0  0
   19.7968   -8.9940  -13.5335 N   0  0  0  0  0  0  0  0  0  0  0  0
   18.4900   -8.5506  -13.1761 C   0  0  1  0  0  0  0  0  0  0  0  0
   17.4550   -9.5647  -12.9317 C   0  0  0  0  0  0  0  0  0  0  0  0
   17.0537  -10.3503  -14.1179 C   0  0  0  0  0  0  0  0  0  0  0  0
   17.3203   -9.9115  -15.4129 C   0  0  0  0  0  0  0  0  0  0  0  0
   16.8439  -10.8135  -16.2676 N   0  0  0  0  0  0  0  0  0  0  0  0
   16.2938  -11.7905  -15.5528 C   0  0  0  0  0  0  0  0  0  0  0  0
   16.4197  -11.5115  -14.2214 N   0  0  0  0  0  0  0  0  0  0  0  0
   18.6017   -7.5584  -12.0714 C   0  0  0  0  0  0  0  0  0  0  0  0
   19.3961   -7.8044  -11.1355 O   0  0  0  0  0  0  0  0  0  0  0  0
   17.3463   -3.1225  -10.3576 O   0  0  0  0  0  0  0  0  0  0  0  0
   17.2765   -4.0829  -11.3336 C   0  0  0  0  0  0  0  0  0  0  0  0
   17.9315   -5.3909  -10.9465 C   0  0  2  0  0  0  0  0  0  0  0  0
   17.8694   -6.3615  -12.0176 N   0  0  0  0  0  0  0  0  0  0  0  0
   17.4171   -5.9136   -9.6665 C   0  0  0  0  0  0  0  0  0  0  0  0
   16.5440   -6.7967   -9.5890 O   0  0  0  0  0  0  0  0  0  0  0  0
   17.9341   -5.3941   -8.4623 O   0  0  0  0  0  0  0  0  0  0  0  0
  2  1  1  0
  3  2  2  0
  4  3  1  0
  5 11  1  0
  5  4  2  0
  6  7  1  0
  6  5  1  0
  7  9  1  0
  7  8  1  6
  9 10  2  0
 11 12  2  0
 12  2  1  0
 13 14  1  0
 13  9  1  0
 14 21  1  0
 15 16  1  0
 14 15  1  1
 16 17  2  0
 17 18  1  0
 19 18  1  0
 20 16  1  0
 20 19  2  0
 21 26  1  0
 22 21  2  0
 24 23  1  0
 25 24  1  6
 26 25  1  0
 27 29  1  0
 27 25  1  0
 28 27  2  0
M  END
$$$$
