YHS.pdb
     RDKit          3D

 29 30  0  0  1  0  0  0  0  0999 V2000
   28.7656  -18.7472   -4.8426 O   0  0  0  0  0  0  0  0  0  0  0  0
   28.3798  -19.1748   -6.1012 C   0  0  0  0  0  0  0  0  0  0  0  0
   28.9283  -20.3314   -6.6259 C   0  0  0  0  0  0  0  0  0  0  0  0
   28.5443  -20.7537   -7.8752 C   0  0  0  0  0  0  0  0  0  0  0  0
   27.6320  -20.0844   -8.6494 C   0  0  0  0  0  0  0  0  0  0  0  0
   27.1948  -20.5064   -9.9882 C   0  0  0  0  0  0  0  0  0  0  0  0
   25.7173  -20.6591  -10.0163 C   0  0  2  0  0  0  0  0  0  0  0  0
   25.3173  -21.6884   -9.0870 N   0  0  0  0  0  0  0  0  0  0  0  0
   25.1543  -20.9160  -11.3416 C   0  0  0  0  0  0  0  0  0  0  0  0
   25.1545  -22.1338  -11.7356 O   0  0  0  0  0  0  0  0  0  0  0  0
   27.0901  -18.9218   -8.1054 C   0  0  0  0  0  0  0  0  0  0  0  0
   27.4716  -18.4874   -6.8438 C   0  0  0  0  0  0  0  0  0  0  0  0
   24.6091  -19.9910  -12.2479 N   0  0  0  0  0  0  0  0  0  0  0  0
   24.0193  -20.3169  -13.5042 C   0  0  1  0  0  0  0  0  0  0  0  0
   22.6968  -19.7578  -13.8166 C   0  0  0  0  0  0  0  0  0  0  0  0
   21.6318  -20.0849  -12.8449 C   0  0  0  0  0  0  0  0  0  0  0  0
   21.2890  -21.4020  -12.5480 C   0  0  0  0  0  0  0  0  0  0  0  0
   20.3052  -21.3874  -11.6519 N   0  0  0  0  0  0  0  0  0  0  0  0
   20.0267  -20.1150  -11.3843 C   0  0  0  0  0  0  0  0  0  0  0  0
   20.8436  -19.3025  -12.1185 N   0  0  0  0  0  0  0  0  0  0  0  0
   25.0182  -20.0803  -14.5829 C   0  0  0  0  0  0  0  0  0  0  0  0
   25.1590  -18.9121  -15.0106 O   0  0  0  0  0  0  0  0  0  0  0  0
   28.8193  -21.9035  -17.1036 O   0  0  0  0  0  0  0  0  0  0  0  0
   27.7920  -22.0727  -16.2117 C   0  0  0  0  0  0  0  0  0  0  0  0
   26.8643  -20.8808  -16.1203 C   0  0  2  0  0  0  0  0  0  0  0  0
   25.8133  -21.0901  -15.1483 N   0  0  0  0  0  0  0  0  0  0  0  0
   26.3522  -20.4714  -17.4418 C   0  0  0  0  0  0  0  0  0  0  0  0
   27.0573  -19.9274  -18.3107 O   0  0  0  0  0  0  0  0  0  0  0  0
   24.9958  -20.7037  -17.7478 O   0  0  0  0  0  0  0  0  0  0  0  0
  2  1  1  0
  3  2  2  0
  4  3  1  0
  5 11  1  0
  5  4  2  0
  6  7  1  0
  6  5  1  0
  7  9  1  0
  7  8  1  1
  9 10  2  0
 11 12  2  0
 12  2  1  0
 13 14  1  0
 13  9  1  0
 14 21  1  0
 15 16  1  0
 14 15  1  6
 16 17  2  0
 17 18  1  0
 19 18  1  0
 20 16  1  0
 20 19  2  0
 21 26  1  0
 22 21  2  0
 24 23  1  0
 25 24  1  6
 26 25  1  0
 27 29  1  0
 27 25  1  0
 28 27  2  0
M  END
$$$$
