YHS.pdb
     RDKit          3D

 29 30  0  0  1  0  0  0  0  0999 V2000
   16.7973  -17.7515  -15.1996 O   0  0  0  0  0  0  0  0  0  0  0  0
   17.5317  -16.6490  -15.6007 C   0  0  0  0  0  0  0  0  0  0  0  0
   18.1783  -16.6691  -16.8236 C   0  0  0  0  0  0  0  0  0  0  0  0
   18.9068  -15.5742  -17.2194 C   0  0  0  0  0  0  0  0  0  0  0  0
   19.0347  -14.4395  -16.4605 C   0  0  0  0  0  0  0  0  0  0  0  0
   19.8026  -13.2483  -16.8514 C   0  0  0  0  0  0  0  0  0  0  0  0
   18.9159  -12.2741  -17.5382 C   0  0  2  0  0  0  0  0  0  0  0  0
   18.3737  -12.8706  -18.7355 N   0  0  0  0  0  0  0  0  0  0  0  0
   19.5410  -10.9873  -17.8426 C   0  0  0  0  0  0  0  0  0  0  0  0
   19.9296  -10.8128  -19.0495 O   0  0  0  0  0  0  0  0  0  0  0  0
   18.3771  -14.4370  -15.2321 C   0  0  0  0  0  0  0  0  0  0  0  0
   17.6383  -15.5384  -14.8236 C   0  0  0  0  0  0  0  0  0  0  0  0
   19.7738   -9.9077  -16.9739 N   0  0  0  0  0  0  0  0  0  0  0  0
   20.2383   -8.6185  -17.3669 C   0  0  1  0  0  0  0  0  0  0  0  0
   19.6986   -8.0324  -18.6017 C   0  0  0  0  0  0  0  0  0  0  0  0
   20.2640   -6.7175  -18.9715 C   0  0  0  0  0  0  0  0  0  0  0  0
   21.5878   -6.5776  -19.3822 C   0  0  0  0  0  0  0  0  0  0  0  0
   21.8122   -5.2921  -19.6430 N   0  0  0  0  0  0  0  0  0  0  0  0
   20.6811   -4.6331  -19.4095 C   0  0  0  0  0  0  0  0  0  0  0  0
   19.7180   -5.5083  -18.9937 N   0  0  0  0  0  0  0  0  0  0  0  0
   20.1496   -7.6967  -16.2009 C   0  0  0  0  0  0  0  0  0  0  0  0
   19.0615   -7.6269  -15.5854 O   0  0  0  0  0  0  0  0  0  0  0  0
   22.5433   -4.5920  -13.2151 O   0  0  0  0  0  0  0  0  0  0  0  0
   22.5208   -5.3830  -14.3347 C   0  0  0  0  0  0  0  0  0  0  0  0
   21.1812   -6.0396  -14.5877 C   0  0  2  0  0  0  0  0  0  0  0  0
   21.2151   -6.9015  -15.7492 N   0  0  0  0  0  0  0  0  0  0  0  0
   20.0800   -5.0589  -14.6315 C   0  0  0  0  0  0  0  0  0  0  0  0
   19.8479   -4.3336  -15.6156 O   0  0  0  0  0  0  0  0  0  0  0  0
   19.2403   -4.9277  -13.5068 O   0  0  0  0  0  0  0  0  0  0  0  0
  2  1  1  0
  3  2  2  0
  4  3  1  0
  5 11  1  0
  5  4  2  0
  6  7  1  0
  6  5  1  0
  7  9  1  0
  7  8  1  6
  9 10  2  0
 11 12  2  0
 12  2  1  0
 13 14  1  0
 13  9  1  0
 14 21  1  0
 15 16  1  0
 14 15  1  6
 16 17  2  0
 17 18  1  0
 19 18  1  0
 20 16  1  0
 20 19  2  0
 21 26  1  0
 22 21  2  0
 24 23  1  0
 25 24  1  6
 26 25  1  0
 27 29  1  0
 27 25  1  0
 28 27  2  0
M  END
$$$$
