YHS.pdb
     RDKit          3D

 29 30  0  0  1  0  0  0  0  0999 V2000
   29.0233  -19.7052   -6.0124 O   0  0  0  0  0  0  0  0  0  0  0  0
   28.3881  -19.8383   -7.2350 C   0  0  0  0  0  0  0  0  0  0  0  0
   29.0786  -20.3749   -8.3069 C   0  0  0  0  0  0  0  0  0  0  0  0
   28.4466  -20.5056   -9.5192 C   0  0  0  0  0  0  0  0  0  0  0  0
   27.1463  -20.1286   -9.7357 C   0  0  0  0  0  0  0  0  0  0  0  0
   26.4361  -20.2555  -11.0167 C   0  0  0  0  0  0  0  0  0  0  0  0
   25.5427  -21.4421  -10.9879 C   0  0  2  0  0  0  0  0  0  0  0  0
   26.2826  -22.6171  -11.3816 N   0  0  0  0  0  0  0  0  0  0  0  0
   24.3246  -21.3099  -11.7867 C   0  0  0  0  0  0  0  0  0  0  0  0
   24.3433  -21.8456  -12.9490 O   0  0  0  0  0  0  0  0  0  0  0  0
   26.4664  -19.5901   -8.6453 C   0  0  0  0  0  0  0  0  0  0  0  0
   27.0964  -19.4544   -7.4163 C   0  0  0  0  0  0  0  0  0  0  0  0
   23.1253  -20.6642  -11.4414 N   0  0  0  0  0  0  0  0  0  0  0  0
   21.9204  -20.7011  -12.2023 C   0  0  1  0  0  0  0  0  0  0  0  0
   20.6468  -20.5037  -11.4965 C   0  0  0  0  0  0  0  0  0  0  0  0
   20.3229  -21.5335  -10.4864 C   0  0  0  0  0  0  0  0  0  0  0  0
   19.8588  -22.7960  -10.8488 C   0  0  0  0  0  0  0  0  0  0  0  0
   19.6504  -23.5004   -9.7391 N   0  0  0  0  0  0  0  0  0  0  0  0
   19.9666  -22.7239   -8.7070 C   0  0  0  0  0  0  0  0  0  0  0  0
   20.3839  -21.5049   -9.1611 N   0  0  0  0  0  0  0  0  0  0  0  0
   22.0699  -19.8124  -13.3876 C   0  0  0  0  0  0  0  0  0  0  0  0
   22.2866  -18.5954  -13.1889 O   0  0  0  0  0  0  0  0  0  0  0  0
   23.2926  -21.0819  -17.2128 O   0  0  0  0  0  0  0  0  0  0  0  0
   23.3523  -19.8115  -16.7008 C   0  0  0  0  0  0  0  0  0  0  0  0
   22.1348  -19.4257  -15.8894 C   0  0  2  0  0  0  0  0  0  0  0  0
   21.9838  -20.2586  -14.7162 N   0  0  0  0  0  0  0  0  0  0  0  0
   20.9127  -19.3663  -16.7135 C   0  0  0  0  0  0  0  0  0  0  0  0
   20.8173  -18.6818  -17.7483 O   0  0  0  0  0  0  0  0  0  0  0  0
   19.7885  -20.1198  -16.3189 O   0  0  0  0  0  0  0  0  0  0  0  0
  2  1  1  0
  3  2  2  0
  4  3  1  0
  5 11  1  0
  5  4  2  0
  6  7  1  0
  6  5  1  0
  7  9  1  0
  7  8  1  6
  9 10  2  0
 11 12  2  0
 12  2  1  0
 13 14  1  0
 13  9  1  0
 14 21  1  0
 15 16  1  0
 14 15  1  1
 16 17  2  0
 17 18  1  0
 19 18  1  0
 20 16  1  0
 20 19  2  0
 21 26  1  0
 22 21  2  0
 24 23  1  0
 25 24  1  6
 26 25  1  0
 27 29  1  0
 27 25  1  0
 28 27  2  0
M  END
$$$$
