KDH.pdb
     RDKit          3D

 28 28  0  0  1  0  0  0  0  0999 V2000
    7.0703  -17.1416   21.6683 N   0  0  0  0  0  0  0  0  0  0  0  0
    8.3296  -16.5270   21.9635 C   0  0  1  0  0  0  0  0  0  0  0  0
    8.3553  -15.0570   21.8525 C   0  0  0  0  0  0  0  0  0  0  0  0
    8.0135  -14.5270   20.5060 C   0  0  0  0  0  0  0  0  0  0  0  0
    8.0058  -13.0418   20.3964 C   0  0  0  0  0  0  0  0  0  0  0  0
    7.6297  -12.5972   19.0055 C   0  0  0  0  0  0  0  0  0  0  0  0
    7.6656  -11.1291   18.9374 N   0  0  0  0  0  0  0  0  0  0  0  0
    8.8311  -17.0492   23.2601 C   0  0  0  0  0  0  0  0  0  0  0  0
    7.9705  -17.5102   24.0592 O   0  0  0  0  0  0  0  0  0  0  0  0
   10.2056  -17.0098   23.5344 N   0  0  0  0  0  0  0  0  0  0  0  0
   10.6840  -17.5192   24.8225 C   0  0  1  0  0  0  0  0  0  0  0  0
   12.0069  -18.1761   24.6143 C   0  0  0  0  0  0  0  0  0  0  0  0
   12.4664  -18.8782   25.7995 C   0  0  0  0  0  0  0  0  0  0  0  0
   11.8666  -19.0094   26.8781 O   0  0  0  0  0  0  0  0  0  0  0  0
   10.7404  -16.3657   25.7887 C   0  0  0  0  0  0  0  0  0  0  0  0
   11.5214  -15.4027   25.6862 O   0  0  0  0  0  0  0  0  0  0  0  0
   13.7469  -19.4792   25.7042 O   0  0  0  0  0  0  0  0  0  0  0  0
    9.8558  -16.3280   26.9184 N   0  0  0  0  0  0  0  0  0  0  0  0
    9.9385  -15.2725   27.9426 C   0  0  1  0  0  0  0  0  0  0  0  0
    8.5953  -14.6825   28.2032 C   0  0  0  0  0  0  0  0  0  0  0  0
    8.0684  -14.0441   26.9823 C   0  0  0  0  0  0  0  0  0  0  0  0
    8.4408  -12.8111   26.4586 C   0  0  0  0  0  0  0  0  0  0  0  0
    7.7345  -12.5491   25.3523 N   0  0  0  0  0  0  0  0  0  0  0  0
    6.9170  -13.5820   25.1505 C   0  0  0  0  0  0  0  0  0  0  0  0
    7.1085  -14.5029   26.1365 N   0  0  0  0  0  0  0  0  0  0  0  0
   10.6898  -15.7262   29.1126 C   0  0  0  0  0  0  0  0  0  0  0  0
   11.0790  -14.9124   30.1697 O   0  0  0  0  0  0  0  0  0  0  0  0
   11.0220  -16.9297   29.1985 O   0  0  0  0  0  0  0  0  0  0  0  0
  2  1  1  1
  3  2  1  0
  3  4  1  0
  4  5  1  0
  5  6  1  0
  7  6  1  0
  8  9  2  0
  8  2  1  0
 10  8  1  0
 11 10  1  0
 11 12  1  6
 12 13  1  0
 13 17  1  0
 14 13  2  0
 15 11  1  0
 16 15  2  0
 18 15  1  0
 19 18  1  0
 19 20  1  1
 20 21  1  0
 21 25  1  0
 21 22  2  0
 22 23  1  0
 24 23  1  0
 25 24  2  0
 26 19  1  0
 27 26  1  0
 28 26  2  0
M  END
$$$$
