KDH.pdb
     RDKit          3D

 28 28  0  0  1  0  0  0  0  0999 V2000
    9.6363  -13.0545   19.3673 N   0  0  0  0  0  0  0  0  0  0  0  0
    8.3859  -13.6686   19.6995 C   0  0  1  0  0  0  0  0  0  0  0  0
    7.4945  -13.9418   18.5573 C   0  0  0  0  0  0  0  0  0  0  0  0
    8.1703  -14.5080   17.3601 C   0  0  0  0  0  0  0  0  0  0  0  0
    7.2966  -14.6830   16.1668 C   0  0  0  0  0  0  0  0  0  0  0  0
    8.0845  -15.1733   14.9783 C   0  0  0  0  0  0  0  0  0  0  0  0
    7.3648  -14.8318   13.7427 N   0  0  0  0  0  0  0  0  0  0  0  0
    8.6404  -14.8451   20.5693 C   0  0  0  0  0  0  0  0  0  0  0  0
    7.6511  -15.5823   20.8334 O   0  0  0  0  0  0  0  0  0  0  0  0
    9.9370  -15.0818   21.0476 N   0  0  0  0  0  0  0  0  0  0  0  0
   10.1900  -16.2919   21.8344 C   0  0  1  0  0  0  0  0  0  0  0  0
   11.6053  -16.7121   21.6217 C   0  0  0  0  0  0  0  0  0  0  0  0
   11.8404  -17.1946   20.2724 C   0  0  0  0  0  0  0  0  0  0  0  0
   11.3459  -18.1972   19.7333 O   0  0  0  0  0  0  0  0  0  0  0  0
    9.8721  -15.9873   23.2743 C   0  0  0  0  0  0  0  0  0  0  0  0
   10.5061  -15.1797   23.9768 O   0  0  0  0  0  0  0  0  0  0  0  0
   12.7383  -16.4264   19.4891 O   0  0  0  0  0  0  0  0  0  0  0  0
    8.7751  -16.6458   23.9249 N   0  0  0  0  0  0  0  0  0  0  0  0
    8.4489  -16.4090   25.3417 C   0  0  1  0  0  0  0  0  0  0  0  0
    7.0061  -16.0732   25.5030 C   0  0  0  0  0  0  0  0  0  0  0  0
    6.7864  -14.6310   25.2860 C   0  0  0  0  0  0  0  0  0  0  0  0
    7.7556  -13.6706   25.0184 C   0  0  0  0  0  0  0  0  0  0  0  0
    7.1877  -12.4641   24.9021 N   0  0  0  0  0  0  0  0  0  0  0  0
    5.8778  -12.6235   25.0880 C   0  0  0  0  0  0  0  0  0  0  0  0
    5.6166  -13.9400   25.3234 N   0  0  0  0  0  0  0  0  0  0  0  0
    8.9684  -17.4796   26.1919 C   0  0  0  0  0  0  0  0  0  0  0  0
    9.0294  -17.4317   27.5795 O   0  0  0  0  0  0  0  0  0  0  0  0
    9.3973  -18.5293   25.6621 O   0  0  0  0  0  0  0  0  0  0  0  0
  2  1  1  6
  3  2  1  0
  3  4  1  0
  4  5  1  0
  5  6  1  0
  7  6  1  0
  8  9  2  0
  8  2  1  0
 10  8  1  0
 11 10  1  0
 11 12  1  1
 12 13  1  0
 13 17  1  0
 14 13  2  0
 15 11  1  0
 16 15  2  0
 18 15  1  0
 19 18  1  0
 19 20  1  6
 20 21  1  0
 21 25  1  0
 21 22  2  0
 22 23  1  0
 24 23  1  0
 25 24  2  0
 26 19  1  0
 27 26  1  0
 28 26  2  0
M  END
$$$$
