KDH.pdb
     RDKit          3D

 28 28  0  0  1  0  0  0  0  0999 V2000
   10.1826  -13.4941   18.8800 N   0  0  0  0  0  0  0  0  0  0  0  0
    8.9684  -13.4566   19.6384 C   0  0  1  0  0  0  0  0  0  0  0  0
    7.7529  -13.1372   18.8673 C   0  0  0  0  0  0  0  0  0  0  0  0
    7.4463  -14.0862   17.7647 C   0  0  0  0  0  0  0  0  0  0  0  0
    8.4157  -14.0737   16.6342 C   0  0  0  0  0  0  0  0  0  0  0  0
    8.0419  -15.0858   15.5809 C   0  0  0  0  0  0  0  0  0  0  0  0
    9.0587  -15.0815   14.5191 N   0  0  0  0  0  0  0  0  0  0  0  0
    8.8667  -14.6955   20.4510 C   0  0  0  0  0  0  0  0  0  0  0  0
    7.7184  -15.0097   20.8686 O   0  0  0  0  0  0  0  0  0  0  0  0
   10.0222  -15.4456   20.7125 N   0  0  0  0  0  0  0  0  0  0  0  0
    9.9043  -16.6707   21.5081 C   0  0  1  0  0  0  0  0  0  0  0  0
   10.9737  -17.6199   21.0839 C   0  0  0  0  0  0  0  0  0  0  0  0
   10.9016  -18.8847   21.7938 C   0  0  0  0  0  0  0  0  0  0  0  0
    9.8951  -19.5847   21.9867 O   0  0  0  0  0  0  0  0  0  0  0  0
    9.9905  -16.2923   22.9630 C   0  0  0  0  0  0  0  0  0  0  0  0
   10.7928  -15.4612   23.4252 O   0  0  0  0  0  0  0  0  0  0  0  0
   12.1253  -19.3669   22.3230 O   0  0  0  0  0  0  0  0  0  0  0  0
    9.1112  -16.9023   23.9195 N   0  0  0  0  0  0  0  0  0  0  0  0
    9.1862  -16.5961   25.3585 C   0  0  1  0  0  0  0  0  0  0  0  0
    7.8324  -16.3030   25.9077 C   0  0  0  0  0  0  0  0  0  0  0  0
    7.4317  -14.9222   25.5784 C   0  0  0  0  0  0  0  0  0  0  0  0
    8.2027  -13.9613   24.9337 C   0  0  0  0  0  0  0  0  0  0  0  0
    7.5164  -12.8172   24.8265 N   0  0  0  0  0  0  0  0  0  0  0  0
    6.3234  -13.0171   25.3857 C   0  0  0  0  0  0  0  0  0  0  0  0
    6.2559  -14.2967   25.8493 N   0  0  0  0  0  0  0  0  0  0  0  0
    9.9775  -17.5969   26.0735 C   0  0  0  0  0  0  0  0  0  0  0  0
   10.6051  -18.6848   25.4786 O   0  0  0  0  0  0  0  0  0  0  0  0
   10.1193  -17.4949   27.3128 O   0  0  0  0  0  0  0  0  0  0  0  0
  2  1  1  6
  3  2  1  0
  3  4  1  0
  4  5  1  0
  5  6  1  0
  7  6  1  0
  8  9  2  0
  8  2  1  0
 10  8  1  0
 11 10  1  0
 11 12  1  6
 12 13  1  0
 13 17  1  0
 14 13  2  0
 15 11  1  0
 16 15  2  0
 18 15  1  0
 19 18  1  0
 19 20  1  1
 20 21  1  0
 21 25  1  0
 21 22  2  0
 22 23  1  0
 24 23  1  0
 25 24  2  0
 26 19  1  0
 27 26  1  0
 28 26  2  0
M  END
$$$$
