KDH.pdb
     RDKit          3D

 28 28  0  0  1  0  0  0  0  0999 V2000
    7.7146  -17.3774   18.2785 N   0  0  0  0  0  0  0  0  0  0  0  0
    9.0959  -17.0005   18.2502 C   0  0  1  0  0  0  0  0  0  0  0  0
    9.3547  -15.5731   17.9863 C   0  0  0  0  0  0  0  0  0  0  0  0
    8.6753  -14.6335   18.9170 C   0  0  0  0  0  0  0  0  0  0  0  0
    8.8308  -13.1909   18.5812 C   0  0  0  0  0  0  0  0  0  0  0  0
    8.0824  -12.3178   19.5565 C   0  0  0  0  0  0  0  0  0  0  0  0
    8.2687  -10.9067   19.1888 N   0  0  0  0  0  0  0  0  0  0  0  0
    9.7665  -17.5268   19.4663 C   0  0  0  0  0  0  0  0  0  0  0  0
    9.0203  -17.8754   20.4220 O   0  0  0  0  0  0  0  0  0  0  0  0
   11.1656  -17.6129   19.4998 N   0  0  0  0  0  0  0  0  0  0  0  0
   11.8073  -18.2398   20.6586 C   0  0  1  0  0  0  0  0  0  0  0  0
   13.2549  -18.4338   20.3555 C   0  0  0  0  0  0  0  0  0  0  0  0
   13.4689  -19.3582   19.2562 C   0  0  0  0  0  0  0  0  0  0  0  0
   12.9561  -20.4779   19.1019 O   0  0  0  0  0  0  0  0  0  0  0  0
   11.5653  -17.3619   21.8578 C   0  0  0  0  0  0  0  0  0  0  0  0
   12.0696  -16.2356   22.0156 O   0  0  0  0  0  0  0  0  0  0  0  0
   14.3673  -18.9236   18.2493 O   0  0  0  0  0  0  0  0  0  0  0  0
   10.7040  -17.8083   22.9156 N   0  0  0  0  0  0  0  0  0  0  0  0
   10.5877  -17.0798   24.1906 C   0  0  1  0  0  0  0  0  0  0  0  0
    9.1677  -17.0217   24.6385 C   0  0  0  0  0  0  0  0  0  0  0  0
    8.3445  -16.3047   23.6467 C   0  0  0  0  0  0  0  0  0  0  0  0
    8.8022  -15.5296   22.5869 C   0  0  0  0  0  0  0  0  0  0  0  0
    7.7666  -15.0167   21.9115 N   0  0  0  0  0  0  0  0  0  0  0  0
    6.6542  -15.4419   22.5095 C   0  0  0  0  0  0  0  0  0  0  0  0
    6.9897  -16.2289   23.5701 N   0  0  0  0  0  0  0  0  0  0  0  0
   11.5610  -17.5639   25.1691 C   0  0  0  0  0  0  0  0  0  0  0  0
   11.7856  -16.9907   26.4150 O   0  0  0  0  0  0  0  0  0  0  0  0
   12.2589  -18.5660   24.8949 O   0  0  0  0  0  0  0  0  0  0  0  0
  2  1  1  1
  3  2  1  0
  3  4  1  0
  4  5  1  0
  5  6  1  0
  7  6  1  0
  8  9  2  0
  8  2  1  0
 10  8  1  0
 11 10  1  0
 11 12  1  6
 12 13  1  0
 13 17  1  0
 14 13  2  0
 15 11  1  0
 16 15  2  0
 18 15  1  0
 19 18  1  0
 19 20  1  1
 20 21  1  0
 21 25  1  0
 21 22  2  0
 22 23  1  0
 24 23  1  0
 25 24  2  0
 26 19  1  0
 27 26  1  0
 28 26  2  0
M  END
$$$$
