KDH.pdb
     RDKit          3D

 28 28  0  0  1  0  0  0  0  0999 V2000
   10.7349  -14.9067   19.6619 N   0  0  0  0  0  0  0  0  0  0  0  0
    9.6174  -14.5103   20.4650 C   0  0  1  0  0  0  0  0  0  0  0  0
    8.3643  -14.2687   19.7265 C   0  0  0  0  0  0  0  0  0  0  0  0
    8.5232  -14.1384   18.2540 C   0  0  0  0  0  0  0  0  0  0  0  0
    7.2682  -13.8445   17.5080 C   0  0  0  0  0  0  0  0  0  0  0  0
    7.5378  -13.6516   16.0371 C   0  0  0  0  0  0  0  0  0  0  0  0
    6.2883  -13.2793   15.3579 N   0  0  0  0  0  0  0  0  0  0  0  0
    9.4814  -15.4530   21.6044 C   0  0  0  0  0  0  0  0  0  0  0  0
    8.3592  -15.4928   22.1794 O   0  0  0  0  0  0  0  0  0  0  0  0
   10.5783  -16.2402   21.9830 N   0  0  0  0  0  0  0  0  0  0  0  0
   10.3756  -17.3090   22.9650 C   0  0  1  0  0  0  0  0  0  0  0  0
   11.4807  -18.3009   22.8256 C   0  0  0  0  0  0  0  0  0  0  0  0
   11.5649  -18.8474   21.4828 C   0  0  0  0  0  0  0  0  0  0  0  0
   12.5313  -18.7931   20.7060 O   0  0  0  0  0  0  0  0  0  0  0  0
   10.3118  -16.6808   24.3319 C   0  0  0  0  0  0  0  0  0  0  0  0
   11.1320  -15.8492   24.7606 O   0  0  0  0  0  0  0  0  0  0  0  0
   10.4067  -19.5176   21.0146 O   0  0  0  0  0  0  0  0  0  0  0  0
    9.2546  -17.0311   25.2374 N   0  0  0  0  0  0  0  0  0  0  0  0
    9.2164  -16.5376   26.6248 C   0  0  1  0  0  0  0  0  0  0  0  0
    7.8551  -16.0407   26.9717 C   0  0  0  0  0  0  0  0  0  0  0  0
    7.4933  -14.8936   26.1180 C   0  0  0  0  0  0  0  0  0  0  0  0
    8.1450  -13.6673   26.0485 C   0  0  0  0  0  0  0  0  0  0  0  0
    7.5203  -12.8632   25.1798 N   0  0  0  0  0  0  0  0  0  0  0  0
    6.4833  -13.5407   24.6883 C   0  0  0  0  0  0  0  0  0  0  0  0
    6.4528  -14.7814   25.2508 N   0  0  0  0  0  0  0  0  0  0  0  0
    9.8136  -17.5022   27.5478 C   0  0  0  0  0  0  0  0  0  0  0  0
   10.3615  -18.7234   27.1739 O   0  0  0  0  0  0  0  0  0  0  0  0
    9.8496  -17.2388   28.7708 O   0  0  0  0  0  0  0  0  0  0  0  0
  2  1  1  6
  3  2  1  0
  3  4  1  0
  4  5  1  0
  5  6  1  0
  7  6  1  0
  8  9  2  0
  8  2  1  0
 10  8  1  0
 11 10  1  0
 11 12  1  1
 12 13  1  0
 13 17  1  0
 14 13  2  0
 15 11  1  0
 16 15  2  0
 18 15  1  0
 19 18  1  0
 19 20  1  1
 20 21  1  0
 21 25  1  0
 21 22  2  0
 22 23  1  0
 24 23  1  0
 25 24  2  0
 26 19  1  0
 27 26  1  0
 28 26  2  0
M  END
$$$$
