KDH.pdb
     RDKit          3D

 28 28  0  0  1  0  0  0  0  0999 V2000
    9.4963  -15.8746   16.5166 N   0  0  0  0  0  0  0  0  0  0  0  0
   10.1836  -14.7289   17.0323 C   0  0  1  0  0  0  0  0  0  0  0  0
    9.3171  -13.6521   17.5458 C   0  0  0  0  0  0  0  0  0  0  0  0
    8.4129  -14.0546   18.6553 C   0  0  0  0  0  0  0  0  0  0  0  0
    7.5088  -12.9808   19.1528 C   0  0  0  0  0  0  0  0  0  0  0  0
    6.6340  -13.4781   20.2758 C   0  0  0  0  0  0  0  0  0  0  0  0
    5.7275  -12.4013   20.7002 N   0  0  0  0  0  0  0  0  0  0  0  0
   11.2269  -15.1798   17.9882 C   0  0  0  0  0  0  0  0  0  0  0  0
   11.0556  -16.3074   18.5275 O   0  0  0  0  0  0  0  0  0  0  0  0
   12.3311  -14.3544   18.2440 N   0  0  0  0  0  0  0  0  0  0  0  0
   13.4676  -14.9049   18.9876 C   0  0  1  0  0  0  0  0  0  0  0  0
   14.6453  -14.0112   18.7897 C   0  0  0  0  0  0  0  0  0  0  0  0
   15.8398  -14.5213   19.4392 C   0  0  0  0  0  0  0  0  0  0  0  0
   16.7476  -13.8637   19.9718 O   0  0  0  0  0  0  0  0  0  0  0  0
   13.0603  -15.0379   20.4311 C   0  0  0  0  0  0  0  0  0  0  0  0
   12.2070  -14.3238   20.9877 O   0  0  0  0  0  0  0  0  0  0  0  0
   15.9757  -15.9323   19.4627 O   0  0  0  0  0  0  0  0  0  0  0  0
   13.6670  -16.0390   21.2617 N   0  0  0  0  0  0  0  0  0  0  0  0
   12.9614  -16.6385   22.4075 C   0  0  1  0  0  0  0  0  0  0  0  0
   11.8522  -17.5186   21.9434 C   0  0  0  0  0  0  0  0  0  0  0  0
   10.5726  -16.7852   21.9598 C   0  0  0  0  0  0  0  0  0  0  0  0
   10.3615  -15.4860   22.4079 C   0  0  0  0  0  0  0  0  0  0  0  0
    9.0678  -15.1635   22.2905 N   0  0  0  0  0  0  0  0  0  0  0  0
    8.4408  -16.2219   21.7782 C   0  0  0  0  0  0  0  0  0  0  0  0
    9.3451  -17.2200   21.5707 N   0  0  0  0  0  0  0  0  0  0  0  0
   13.9018  -17.2230   23.3629 C   0  0  0  0  0  0  0  0  0  0  0  0
   15.2673  -17.3647   23.1466 O   0  0  0  0  0  0  0  0  0  0  0  0
   13.4777  -17.6357   24.4658 O   0  0  0  0  0  0  0  0  0  0  0  0
  2  1  1  1
  3  2  1  0
  3  4  1  0
  4  5  1  0
  5  6  1  0
  7  6  1  0
  8  9  2  0
  8  2  1  0
 10  8  1  0
 11 10  1  0
 11 12  1  1
 12 13  1  0
 13 17  1  0
 14 13  2  0
 15 11  1  0
 16 15  2  0
 18 15  1  0
 19 18  1  0
 19 20  1  6
 20 21  1  0
 21 25  1  0
 21 22  2  0
 22 23  1  0
 24 23  1  0
 25 24  2  0
 26 19  1  0
 27 26  1  0
 28 26  2  0
M  END
$$$$
