GRE.pdb
     RDKit          3D

 25 24  0  0  1  0  0  0  0  0999 V2000
   28.1402  -22.3438  -16.4870 N   0  0  0  0  0  0  0  0  0  0  0  0
   27.8170  -20.9320  -16.5025 C   0  0  0  0  0  0  0  0  0  0  0  0
   26.3541  -20.7599  -16.2546 C   0  0  0  0  0  0  0  0  0  0  0  0
   25.4908  -21.5709  -16.6925 O   0  0  0  0  0  0  0  0  0  0  0  0
   25.9127  -21.0501   -9.0246 N   0  0  0  0  0  0  0  0  0  0  0  0
   24.6048  -21.0227   -9.5976 C   0  0  0  0  0  0  0  0  0  0  0  0
   23.6023  -20.7777   -8.7955 N   0  0  0  0  0  0  0  0  0  0  0  0
   24.4113  -21.2532  -10.9859 N   0  0  0  0  0  0  0  0  0  0  0  0
   24.8681  -20.2775  -11.9344 C   0  0  0  0  0  0  0  0  0  0  0  0
   23.7714  -19.8345  -12.8752 C   0  0  0  0  0  0  0  0  0  0  0  0
   24.2739  -18.8097  -13.8708 C   0  0  0  0  0  0  0  0  0  0  0  0
   24.4727  -19.4250  -15.2413 C   0  0  2  0  0  0  0  0  0  0  0  0
   25.8754  -19.6553  -15.5021 N   0  0  0  0  0  0  0  0  0  0  0  0
   23.8394  -18.5059  -16.2273 C   0  0  0  0  0  0  0  0  0  0  0  0
   24.3617  -17.3762  -16.3773 O   0  0  0  0  0  0  0  0  0  0  0  0
   22.6265  -20.7175   -9.1026 N   0  0  0  0  0  0  0  0  0  0  0  0
   22.6993  -18.8335  -16.9910 C   0  0  2  0  0  0  0  0  0  0  0  0
   22.0315  -17.9686  -17.9315 C   0  0  0  0  0  0  0  0  0  0  0  0
   21.3102  -18.6930  -19.0318 C   0  0  0  0  0  0  0  0  0  0  0  0
   22.2158  -19.5633  -19.8483 C   0  0  0  0  0  0  0  0  0  0  0  0
   21.4808  -20.4565  -20.7671 O   0  0  0  0  0  0  0  0  0  0  0  0
   20.2306  -20.5441  -20.8312 C   0  0  0  0  0  0  0  0  0  0  0  0
   21.1500  -16.9554  -17.2858 O   0  0  0  0  0  0  0  0  0  0  0  0
   20.8910  -15.7442  -17.9059 O   0  0  0  0  0  0  0  0  0  0  0  0
   22.2358  -21.2646  -21.6297 O   0  0  0  0  0  0  0  0  0  0  0  0
  1  2  1  0
  3  2  1  0
  3 13  1  0
  4  3  2  0
  5  6  1  0
  6  7  2  0
  6  8  1  0
  8  9  1  0
  9 10  1  0
 10 11  1  0
 12 11  1  1
 12 13  1  0
 12 14  1  0
 14 15  2  0
 14 16  1  0
 16 17  1  0
 17 22  1  0
 18 19  1  0
 17 18  1  6
 20 19  1  0
 21 20  2  0
 22 25  2  0
 22 23  1  0
 24 20  1  0
M  END
$$$$
