GRE.pdb
     RDKit          3D

 25 24  0  0  1  0  0  0  0  0999 V2000
   17.9321  -12.2134  -14.9674 N   0  0  0  0  0  0  0  0  0  0  0  0
   18.1443  -12.0855  -13.5403 C   0  0  0  0  0  0  0  0  0  0  0  0
   17.5372  -10.8058  -13.0659 C   0  0  0  0  0  0  0  0  0  0  0  0
   17.5023   -9.7647  -13.7798 O   0  0  0  0  0  0  0  0  0  0  0  0
   14.9044   -6.3833   -7.3667 N   0  0  0  0  0  0  0  0  0  0  0  0
   13.5079   -6.6345   -7.5289 C   0  0  0  0  0  0  0  0  0  0  0  0
   12.6868   -5.6492   -7.2770 N   0  0  0  0  0  0  0  0  0  0  0  0
   13.0394   -7.9082   -7.9487 N   0  0  0  0  0  0  0  0  0  0  0  0
   13.9859   -8.9370   -8.2743 C   0  0  0  0  0  0  0  0  0  0  0  0
   14.7509   -8.6327   -9.5417 C   0  0  0  0  0  0  0  0  0  0  0  0
   15.6393   -9.7907   -9.9460 C   0  0  0  0  0  0  0  0  0  0  0  0
   16.3311   -9.5189  -11.2665 C   0  0  2  0  0  0  0  0  0  0  0  0
   16.9670  -10.7156  -11.7689 N   0  0  0  0  0  0  0  0  0  0  0  0
   17.2894   -8.4028  -11.0345 C   0  0  0  0  0  0  0  0  0  0  0  0
   17.9752   -8.4433   -9.9859 O   0  0  0  0  0  0  0  0  0  0  0  0
   11.6738   -5.6979   -7.4241 N   0  0  0  0  0  0  0  0  0  0  0  0
   17.4646   -7.3176  -11.9187 C   0  0  1  0  0  0  0  0  0  0  0  0
   18.4470   -6.2700  -11.7914 C   0  0  0  0  0  0  0  0  0  0  0  0
   19.6608   -6.4534  -12.6567 C   0  0  0  0  0  0  0  0  0  0  0  0
   20.6477   -5.3345  -12.5213 C   0  0  0  0  0  0  0  0  0  0  0  0
   21.8539   -5.5276  -13.3520 O   0  0  0  0  0  0  0  0  0  0  0  0
   23.0215   -5.6310  -12.9040 C   0  0  0  0  0  0  0  0  0  0  0  0
   17.8795   -4.9007  -11.9433 O   0  0  0  0  0  0  0  0  0  0  0  0
   16.5935   -4.7164  -12.4238 O   0  0  0  0  0  0  0  0  0  0  0  0
   21.6804   -5.6006  -14.7420 O   0  0  0  0  0  0  0  0  0  0  0  0
  1  2  1  0
  3  2  1  0
  3 13  1  0
  4  3  2  0
  5  6  1  0
  6  7  2  0
  6  8  1  0
  8  9  1  0
  9 10  1  0
 10 11  1  0
 12 11  1  1
 12 13  1  0
 12 14  1  0
 14 15  2  0
 14 16  1  0
 16 17  1  0
 17 22  1  0
 18 19  1  0
 17 18  1  6
 20 19  1  0
 21 20  2  0
 22 25  2  0
 22 23  1  0
 24 20  1  0
M  END
$$$$
