GRE.pdb
     RDKit          3D

 25 24  0  0  1  0  0  0  0  0999 V2000
   19.5026  -24.3426  -11.2016 N   0  0  0  0  0  0  0  0  0  0  0  0
   20.2719  -24.3679  -12.4286 C   0  0  0  0  0  0  0  0  0  0  0  0
   20.4764  -22.9686  -12.9096 C   0  0  0  0  0  0  0  0  0  0  0  0
   19.6541  -22.0408  -12.6695 O   0  0  0  0  0  0  0  0  0  0  0  0
   28.2970  -21.7224  -15.4040 N   0  0  0  0  0  0  0  0  0  0  0  0
   27.1998  -22.5748  -15.7344 C   0  0  0  0  0  0  0  0  0  0  0  0
   27.4442  -23.5933  -16.5165 N   0  0  0  0  0  0  0  0  0  0  0  0
   25.8978  -22.3182  -15.2275 N   0  0  0  0  0  0  0  0  0  0  0  0
   25.6988  -21.2346  -14.3074 C   0  0  0  0  0  0  0  0  0  0  0  0
   24.3071  -21.2304  -13.7182 C   0  0  0  0  0  0  0  0  0  0  0  0
   23.2464  -21.1995  -14.7988 C   0  0  0  0  0  0  0  0  0  0  0  0
   21.8551  -21.3066  -14.2078 C   0  0  2  0  0  0  0  0  0  0  0  0
   21.6267  -22.6279  -13.6686 N   0  0  0  0  0  0  0  0  0  0  0  0
   20.8946  -20.9428  -15.2861 C   0  0  0  0  0  0  0  0  0  0  0  0
   20.5672  -21.8453  -16.0922 O   0  0  0  0  0  0  0  0  0  0  0  0
   26.7477  -24.3023  -16.7655 N   0  0  0  0  0  0  0  0  0  0  0  0
   20.3410  -19.6552  -15.4472 C   0  0  1  0  0  0  0  0  0  0  0  0
   19.1545  -19.3302  -16.1989 C   0  0  0  0  0  0  0  0  0  0  0  0
   17.9342  -20.1054  -15.7920 C   0  0  0  0  0  0  0  0  0  0  0  0
   16.7404  -19.8035  -16.6452 C   0  0  0  0  0  0  0  0  0  0  0  0
   15.5377  -20.5595  -16.2400 O   0  0  0  0  0  0  0  0  0  0  0  0
   14.4953  -20.6680  -16.9302 C   0  0  0  0  0  0  0  0  0  0  0  0
   18.8691  -17.8689  -16.2578 O   0  0  0  0  0  0  0  0  0  0  0  0
   18.1649  -17.3272  -17.3204 O   0  0  0  0  0  0  0  0  0  0  0  0
   15.5637  -21.2020  -14.9935 O   0  0  0  0  0  0  0  0  0  0  0  0
  1  2  1  0
  3  2  1  0
  3 13  1  0
  4  3  2  0
  5  6  1  0
  6  7  2  0
  6  8  1  0
  8  9  1  0
  9 10  1  0
 10 11  1  0
 12 11  1  6
 12 13  1  0
 12 14  1  0
 14 15  2  0
 14 16  1  0
 16 17  1  0
 17 22  1  0
 18 19  1  0
 17 18  1  6
 20 19  1  0
 21 20  2  0
 22 25  2  0
 22 23  1  0
 24 20  1  0
M  END
$$$$
