GRE.pdb
     RDKit          3D

 25 24  0  0  1  0  0  0  0  0999 V2000
   28.1910  -24.5973  -16.8867 N   0  0  0  0  0  0  0  0  0  0  0  0
   27.5560  -23.3025  -17.0220 C   0  0  0  0  0  0  0  0  0  0  0  0
   26.2887  -23.2916  -16.2314 C   0  0  0  0  0  0  0  0  0  0  0  0
   25.8196  -24.3293  -15.6855 O   0  0  0  0  0  0  0  0  0  0  0  0
   25.9380  -22.3881  -10.9545 N   0  0  0  0  0  0  0  0  0  0  0  0
   25.7817  -21.0124  -10.6045 C   0  0  0  0  0  0  0  0  0  0  0  0
   26.2280  -20.6352   -9.4352 N   0  0  0  0  0  0  0  0  0  0  0  0
   25.1649  -20.0973  -11.4990 N   0  0  0  0  0  0  0  0  0  0  0  0
   23.7793  -20.2628  -11.8348 C   0  0  0  0  0  0  0  0  0  0  0  0
   23.5769  -21.2375  -12.9719 C   0  0  0  0  0  0  0  0  0  0  0  0
   24.6717  -21.1140  -14.0110 C   0  0  0  0  0  0  0  0  0  0  0  0
   24.3872  -21.9865  -15.2169 C   0  0  2  0  0  0  0  0  0  0  0  0
   25.5539  -22.0885  -16.0636 N   0  0  0  0  0  0  0  0  0  0  0  0
   23.2108  -21.3963  -15.9137 C   0  0  0  0  0  0  0  0  0  0  0  0
   23.3172  -20.2154  -16.3206 O   0  0  0  0  0  0  0  0  0  0  0  0
   26.2096  -19.6663   -9.1021 N   0  0  0  0  0  0  0  0  0  0  0  0
   21.9999  -22.0848  -16.1374 C   0  0  2  0  0  0  0  0  0  0  0  0
   20.6745  -21.5302  -16.0184 C   0  0  0  0  0  0  0  0  0  0  0  0
   19.9278  -21.9725  -14.7926 C   0  0  0  0  0  0  0  0  0  0  0  0
   19.7841  -23.4610  -14.7030 C   0  0  0  0  0  0  0  0  0  0  0  0
   18.5677  -23.8788  -13.9763 O   0  0  0  0  0  0  0  0  0  0  0  0
   17.7513  -23.0926  -13.4376 C   0  0  0  0  0  0  0  0  0  0  0  0
   20.6341  -20.0481  -16.1678 O   0  0  0  0  0  0  0  0  0  0  0  0
   20.1013  -19.4654  -17.3059 O   0  0  0  0  0  0  0  0  0  0  0  0
   18.3075  -25.2538  -13.8821 O   0  0  0  0  0  0  0  0  0  0  0  0
  1  2  1  0
  3  2  1  0
  3 13  1  0
  4  3  2  0
  5  6  1  0
  6  7  2  0
  6  8  1  0
  8  9  1  0
  9 10  1  0
 10 11  1  0
 12 11  1  1
 12 13  1  0
 12 14  1  0
 14 15  2  0
 14 16  1  0
 16 17  1  0
 17 22  1  0
 18 19  1  0
 17 18  1  1
 20 19  1  0
 21 20  2  0
 22 25  2  0
 22 23  1  0
 24 20  1  0
M  END
$$$$
