GRE.pdb
     RDKit          3D

 25 24  0  0  1  0  0  0  0  0999 V2000
   15.5262  -10.9192   -9.8108 N   0  0  0  0  0  0  0  0  0  0  0  0
   15.7549  -10.5980  -11.2046 C   0  0  0  0  0  0  0  0  0  0  0  0
   16.1647   -9.1660  -11.3181 C   0  0  0  0  0  0  0  0  0  0  0  0
   16.2353   -8.5655  -12.4267 O   0  0  0  0  0  0  0  0  0  0  0  0
   13.0573   -3.9886   -5.6151 N   0  0  0  0  0  0  0  0  0  0  0  0
   12.2952   -4.8748   -6.4357 C   0  0  0  0  0  0  0  0  0  0  0  0
   11.0081   -4.9390   -6.2171 N   0  0  0  0  0  0  0  0  0  0  0  0
   12.9203   -5.6514   -7.4476 N   0  0  0  0  0  0  0  0  0  0  0  0
   14.3498   -5.6273   -7.5748 C   0  0  0  0  0  0  0  0  0  0  0  0
   14.8294   -6.3679   -8.8018 C   0  0  0  0  0  0  0  0  0  0  0  0
   16.3381   -6.3201   -8.9253 C   0  0  0  0  0  0  0  0  0  0  0  0
   16.8088   -7.0062  -10.1918 C   0  0  2  0  0  0  0  0  0  0  0  0
   16.4952   -8.4166  -10.1585 N   0  0  0  0  0  0  0  0  0  0  0  0
   18.2680   -6.7360  -10.3169 C   0  0  0  0  0  0  0  0  0  0  0  0
   18.9631   -6.8436   -9.2792 O   0  0  0  0  0  0  0  0  0  0  0  0
   10.3669   -5.5339   -6.7510 N   0  0  0  0  0  0  0  0  0  0  0  0
   18.9015   -6.3708  -11.5234 C   0  0  1  0  0  0  0  0  0  0  0  0
   20.3157   -6.1607  -11.7090 C   0  0  0  0  0  0  0  0  0  0  0  0
   21.0578   -7.3650  -12.2135 C   0  0  0  0  0  0  0  0  0  0  0  0
   20.6441   -7.7679  -13.5958 C   0  0  0  0  0  0  0  0  0  0  0  0
   21.3562   -8.9670  -14.0830 O   0  0  0  0  0  0  0  0  0  0  0  0
   22.5095   -8.9619  -14.5775 C   0  0  0  0  0  0  0  0  0  0  0  0
   20.6363   -4.9522  -12.5195 O   0  0  0  0  0  0  0  0  0  0  0  0
   21.9283   -4.4551  -12.5691 O   0  0  0  0  0  0  0  0  0  0  0  0
   20.6944  -10.1998  -13.9853 O   0  0  0  0  0  0  0  0  0  0  0  0
  1  2  1  0
  3  2  1  0
  3 13  1  0
  4  3  2  0
  5  6  1  0
  6  7  2  0
  6  8  1  0
  8  9  1  0
  9 10  1  0
 10 11  1  0
 12 11  1  1
 12 13  1  0
 12 14  1  0
 14 15  2  0
 14 16  1  0
 16 17  1  0
 17 22  1  0
 18 19  1  0
 17 18  1  1
 20 19  1  0
 21 20  2  0
 22 25  2  0
 22 23  1  0
 24 20  1  0
M  END
$$$$
