GRE.pdb
     RDKit          3D

 25 24  0  0  1  0  0  0  0  0999 V2000
   28.1047  -21.7732  -17.4953 N   0  0  0  0  0  0  0  0  0  0  0  0
   27.7200  -20.6595  -16.6528 C   0  0  0  0  0  0  0  0  0  0  0  0
   27.2374  -21.1809  -15.3388 C   0  0  0  0  0  0  0  0  0  0  0  0
   26.5071  -22.2066  -15.2418 O   0  0  0  0  0  0  0  0  0  0  0  0
   32.1603  -22.4603   -8.9970 N   0  0  0  0  0  0  0  0  0  0  0  0
   32.2682  -22.7482  -10.3916 C   0  0  0  0  0  0  0  0  0  0  0  0
   33.1152  -23.6772  -10.7498 N   0  0  0  0  0  0  0  0  0  0  0  0
   31.4811  -22.0479  -11.3445 N   0  0  0  0  0  0  0  0  0  0  0  0
   30.1221  -21.7115  -11.0279 C   0  0  0  0  0  0  0  0  0  0  0  0
   29.4887  -20.8312  -12.0804 C   0  0  0  0  0  0  0  0  0  0  0  0
   28.0516  -20.4998  -11.7362 C   0  0  0  0  0  0  0  0  0  0  0  0
   27.1060  -20.9441  -12.8338 C   0  0  2  0  0  0  0  0  0  0  0  0
   27.5914  -20.5268  -14.1296 N   0  0  0  0  0  0  0  0  0  0  0  0
   25.7650  -20.3856  -12.5059 C   0  0  0  0  0  0  0  0  0  0  0  0
   25.7090  -19.1735  -12.1911 O   0  0  0  0  0  0  0  0  0  0  0  0
   33.2719  -23.9636  -11.7210 N   0  0  0  0  0  0  0  0  0  0  0  0
   24.5709  -21.1365  -12.5301 C   0  0  2  0  0  0  0  0  0  0  0  0
   23.2631  -20.6390  -12.8775 C   0  0  0  0  0  0  0  0  0  0  0  0
   23.2267  -19.8278  -14.1410 C   0  0  0  0  0  0  0  0  0  0  0  0
   21.8728  -19.2536  -14.4263 C   0  0  0  0  0  0  0  0  0  0  0  0
   21.8070  -18.5532  -15.7253 O   0  0  0  0  0  0  0  0  0  0  0  0
   20.7735  -18.0230  -16.2001 C   0  0  0  0  0  0  0  0  0  0  0  0
   22.2083  -21.6915  -12.8830 O   0  0  0  0  0  0  0  0  0  0  0  0
   22.4739  -22.9577  -13.3780 O   0  0  0  0  0  0  0  0  0  0  0  0
   22.9856  -18.4757  -16.4818 O   0  0  0  0  0  0  0  0  0  0  0  0
  1  2  1  0
  3  2  1  0
  3 13  1  0
  4  3  2  0
  5  6  1  0
  6  7  2  0
  6  8  1  0
  8  9  1  0
  9 10  1  0
 10 11  1  0
 12 11  1  1
 12 13  1  0
 12 14  1  0
 14 15  2  0
 14 16  1  0
 16 17  1  0
 17 22  1  0
 18 19  1  0
 17 18  1  1
 20 19  1  0
 21 20  2  0
 22 25  2  0
 22 23  1  0
 24 20  1  0
M  END
$$$$
