GRE.pdb
     RDKit          3D

 25 24  0  0  1  0  0  0  0  0999 V2000
   24.0987  -12.8836  -16.5952 N   0  0  0  0  0  0  0  0  0  0  0  0
   23.9956  -13.9232  -15.5920 C   0  0  0  0  0  0  0  0  0  0  0  0
   25.0112  -14.9815  -15.8747 C   0  0  0  0  0  0  0  0  0  0  0  0
   25.8889  -14.8577  -16.7741 O   0  0  0  0  0  0  0  0  0  0  0  0
   26.6581  -22.2487  -11.7960 N   0  0  0  0  0  0  0  0  0  0  0  0
   25.9768  -21.0143  -11.5684 C   0  0  0  0  0  0  0  0  0  0  0  0
   24.9028  -21.0490  -10.8241 N   0  0  0  0  0  0  0  0  0  0  0  0
   26.4556  -19.8016  -12.1323 N   0  0  0  0  0  0  0  0  0  0  0  0
   27.5908  -19.8305  -13.0102 C   0  0  0  0  0  0  0  0  0  0  0  0
   27.3734  -19.0044  -14.2568 C   0  0  0  0  0  0  0  0  0  0  0  0
   26.2013  -18.0583  -14.0990 C   0  0  0  0  0  0  0  0  0  0  0  0
   25.9676  -17.2556  -15.3629 C   0  0  2  0  0  0  0  0  0  0  0  0
   25.0237  -16.1873  -15.1255 N   0  0  0  0  0  0  0  0  0  0  0  0
   25.5136  -18.2131  -16.4093 C   0  0  0  0  0  0  0  0  0  0  0  0
   24.4296  -18.8103  -16.2099 O   0  0  0  0  0  0  0  0  0  0  0  0
   24.3468  -20.2222  -10.5847 N   0  0  0  0  0  0  0  0  0  0  0  0
   26.2277  -18.4806  -17.5963 C   0  0  1  0  0  0  0  0  0  0  0  0
   25.6601  -18.6208  -18.9141 C   0  0  0  0  0  0  0  0  0  0  0  0
   24.5995  -17.6087  -19.2403 C   0  0  0  0  0  0  0  0  0  0  0  0
   23.2239  -18.0617  -18.8570 C   0  0  0  0  0  0  0  0  0  0  0  0
   22.1663  -17.1340  -19.3078 O   0  0  0  0  0  0  0  0  0  0  0  0
   22.1659  -16.5306  -20.4082 C   0  0  0  0  0  0  0  0  0  0  0  0
   26.6812  -18.6985  -19.9965 O   0  0  0  0  0  0  0  0  0  0  0  0
   28.0261  -18.5234  -19.7151 O   0  0  0  0  0  0  0  0  0  0  0  0
   21.0848  -16.9122  -18.4426 O   0  0  0  0  0  0  0  0  0  0  0  0
  1  2  1  0
  3  2  1  0
  3 13  1  0
  4  3  2  0
  5  6  1  0
  6  7  2  0
  6  8  1  0
  8  9  1  0
  9 10  1  0
 10 11  1  0
 12 11  1  1
 12 13  1  0
 12 14  1  0
 14 15  2  0
 14 16  1  0
 16 17  1  0
 17 22  1  0
 18 19  1  0
 17 18  1  6
 20 19  1  0
 21 20  2  0
 22 25  2  0
 22 23  1  0
 24 20  1  0
M  END
$$$$
