SRD.pdb
     RDKit          3D

 26 25  0  0  1  0  0  0  0  0999 V2000
   26.9717  -22.7458  -19.3356 O   0  0  0  0  0  0  0  0  0  0  0  0
   25.9024  -22.7773  -18.4507 C   0  0  0  0  0  0  0  0  0  0  0  0
   26.2672  -23.5444  -17.1948 C   0  0  2  0  0  0  0  0  0  0  0  0
   26.2101  -24.9581  -17.5403 N   0  0  0  0  0  0  0  0  0  0  0  0
   25.2399  -23.3197  -16.1329 C   0  0  0  0  0  0  0  0  0  0  0  0
   24.2020  -24.0225  -16.0413 O   0  0  0  0  0  0  0  0  0  0  0  0
   26.0547  -20.0848   -7.8016 N   0  0  0  0  0  0  0  0  0  0  0  0
   24.7219  -20.5299   -8.0201 C   0  0  0  0  0  0  0  0  0  0  0  0
   23.8654  -20.5475   -7.0484 N   0  0  0  0  0  0  0  0  0  0  0  0
   24.2761  -20.9671   -9.2909 N   0  0  0  0  0  0  0  0  0  0  0  0
   25.1315  -21.0427  -10.4494 C   0  0  0  0  0  0  0  0  0  0  0  0
   24.2996  -21.4585  -11.6743 C   0  0  0  0  0  0  0  0  0  0  0  0
   25.1544  -21.5846  -12.8857 C   0  0  0  0  0  0  0  0  0  0  0  0
   24.4195  -22.0674  -14.1103 C   0  0  2  0  0  0  0  0  0  0  0  0
   25.4007  -22.2855  -15.1702 N   0  0  0  0  0  0  0  0  0  0  0  0
   23.4042  -21.0846  -14.5145 C   0  0  0  0  0  0  0  0  0  0  0  0
   23.6621  -19.9214  -14.9087 O   0  0  0  0  0  0  0  0  0  0  0  0
   22.8675  -20.8560   -7.1984 N   0  0  0  0  0  0  0  0  0  0  0  0
   21.9906  -21.3779  -14.4932 C   0  0  1  0  0  0  0  0  0  0  0  0
   20.9885  -20.4039  -14.8698 C   0  0  0  0  0  0  0  0  0  0  0  0
   20.0350  -20.9306  -15.9120 C   0  0  0  0  0  0  0  0  0  0  0  0
   20.6427  -21.1602  -17.2161 O   0  0  0  0  0  0  0  0  0  0  0  0
   21.5289  -20.3813  -17.6367 C   0  0  0  0  0  0  0  0  0  0  0  0
   20.2557  -20.0158  -13.6408 O   0  0  0  0  0  0  0  0  0  0  0  0
   20.2822  -20.7887  -12.4900 O   0  0  0  0  0  0  0  0  0  0  0  0
   20.2684  -22.2235  -18.0128 O   0  0  0  0  0  0  0  0  0  0  0  0
  2  1  1  0
  3  5  1  0
  3  2  1  0
  3  4  1  6
  5  6  2  0
  8  7  1  0
  8  9  2  0
 10  8  1  0
 11 10  1  0
 11 12  1  0
 12 13  1  0
 14 13  1  1
 15 14  1  0
 15  5  1  0
 16 17  2  0
 16 14  1  0
 18 16  1  0
 19 23  1  0
 19 18  1  0
 19 20  1  1
 21 20  1  0
 22 21  2  0
 23 24  1  0
 25 21  1  0
 26 23  2  0
M  END
$$$$
