SRD.pdb
     RDKit          3D

 26 25  0  0  1  0  0  0  0  0999 V2000
   18.8377  -11.4780  -13.3185 O   0  0  0  0  0  0  0  0  0  0  0  0
   18.6682  -11.9965  -12.0418 C   0  0  0  0  0  0  0  0  0  0  0  0
   17.1954  -12.1472  -11.7147 C   0  0  2  0  0  0  0  0  0  0  0  0
   16.6037  -12.9100  -12.8052 N   0  0  0  0  0  0  0  0  0  0  0  0
   16.5254  -10.8112  -11.7118 C   0  0  0  0  0  0  0  0  0  0  0  0
   16.0408  -10.2993  -12.7523 O   0  0  0  0  0  0  0  0  0  0  0  0
   10.3231   -8.4745   -6.5879 N   0  0  0  0  0  0  0  0  0  0  0  0
   11.3987   -7.5520   -6.4678 C   0  0  0  0  0  0  0  0  0  0  0  0
   11.4585   -6.7368   -5.4629 N   0  0  0  0  0  0  0  0  0  0  0  0
   12.4386   -7.4837   -7.4263 N   0  0  0  0  0  0  0  0  0  0  0  0
   12.3399   -8.0552   -8.7466 C   0  0  0  0  0  0  0  0  0  0  0  0
   13.6210   -7.7416   -9.5377 C   0  0  0  0  0  0  0  0  0  0  0  0
   14.5671   -8.8895   -9.5036 C   0  0  0  0  0  0  0  0  0  0  0  0
   15.7105   -8.7741  -10.4795 C   0  0  2  0  0  0  0  0  0  0  0  0
   16.4088  -10.0568  -10.5121 N   0  0  0  0  0  0  0  0  0  0  0  0
   16.6117   -7.6839  -10.0804 C   0  0  0  0  0  0  0  0  0  0  0  0
   17.2986   -7.6816   -9.0303 O   0  0  0  0  0  0  0  0  0  0  0  0
   12.2651   -6.0670   -5.3434 N   0  0  0  0  0  0  0  0  0  0  0  0
   16.7895   -6.4943  -10.8793 C   0  0  1  0  0  0  0  0  0  0  0  0
   17.7082   -5.4391  -10.5092 C   0  0  0  0  0  0  0  0  0  0  0  0
   18.6777   -5.1044  -11.6142 C   0  0  0  0  0  0  0  0  0  0  0  0
   19.6114   -6.1759  -11.9347 O   0  0  0  0  0  0  0  0  0  0  0  0
   19.9989   -6.9552  -11.0338 C   0  0  0  0  0  0  0  0  0  0  0  0
   16.9020   -4.2496  -10.1443 O   0  0  0  0  0  0  0  0  0  0  0  0
   17.4569   -3.1464   -9.5136 O   0  0  0  0  0  0  0  0  0  0  0  0
   20.0879   -6.3624  -13.2167 O   0  0  0  0  0  0  0  0  0  0  0  0
  2  1  1  0
  3  5  1  0
  3  2  1  0
  3  4  1  6
  5  6  2  0
  8  7  1  0
  8  9  2  0
 10  8  1  0
 11 10  1  0
 11 12  1  0
 12 13  1  0
 14 13  1  1
 15 14  1  0
 15  5  1  0
 16 17  2  0
 16 14  1  0
 18 16  1  0
 19 23  1  0
 19 18  1  0
 19 20  1  1
 21 20  1  0
 22 21  2  0
 23 24  1  0
 25 21  1  0
 26 23  2  0
M  END
$$$$
