SRD.pdb
     RDKit          3D

 26 25  0  0  1  0  0  0  0  0999 V2000
   22.1054   -8.7528  -14.6249 O   0  0  0  0  0  0  0  0  0  0  0  0
   21.9058   -9.8921  -13.8570 C   0  0  0  0  0  0  0  0  0  0  0  0
   20.7307  -10.6939  -14.3815 C   0  0  2  0  0  0  0  0  0  0  0  0
   21.0739  -11.0941  -15.7391 N   0  0  0  0  0  0  0  0  0  0  0  0
   19.5162   -9.8288  -14.4825 C   0  0  0  0  0  0  0  0  0  0  0  0
   19.2263   -9.1956  -15.5288 O   0  0  0  0  0  0  0  0  0  0  0  0
   13.9192   -9.2045   -8.0291 N   0  0  0  0  0  0  0  0  0  0  0  0
   14.6156   -8.0548   -8.4934 C   0  0  0  0  0  0  0  0  0  0  0  0
   14.8326   -7.0519   -7.7028 N   0  0  0  0  0  0  0  0  0  0  0  0
   15.0972   -7.9551   -9.8212 N   0  0  0  0  0  0  0  0  0  0  0  0
   14.5215   -8.6746  -10.9305 C   0  0  0  0  0  0  0  0  0  0  0  0
   15.3145   -8.3621  -12.2107 C   0  0  0  0  0  0  0  0  0  0  0  0
   16.6401   -9.0377  -12.1990 C   0  0  0  0  0  0  0  0  0  0  0  0
   17.4488   -8.8284  -13.4541 C   0  0  2  0  0  0  0  0  0  0  0  0
   18.6283   -9.6872  -13.3809 N   0  0  0  0  0  0  0  0  0  0  0  0
   17.8242   -7.4137  -13.5872 C   0  0  0  0  0  0  0  0  0  0  0  0
   18.6995   -6.8448  -12.8908 O   0  0  0  0  0  0  0  0  0  0  0  0
   15.3763   -6.2057   -8.0220 N   0  0  0  0  0  0  0  0  0  0  0  0
   17.2052   -6.5356  -14.5520 C   0  0  2  0  0  0  0  0  0  0  0  0
   17.6451   -5.1722  -14.7572 C   0  0  0  0  0  0  0  0  0  0  0  0
   17.9674   -4.8810  -16.2009 C   0  0  0  0  0  0  0  0  0  0  0  0
   18.3256   -3.4937  -16.4650 O   0  0  0  0  0  0  0  0  0  0  0  0
   18.3977   -2.6774  -15.5177 C   0  0  0  0  0  0  0  0  0  0  0  0
   16.5688   -4.2755  -14.2717 O   0  0  0  0  0  0  0  0  0  0  0  0
   16.8240   -2.9847  -13.8343 O   0  0  0  0  0  0  0  0  0  0  0  0
   18.5924   -3.0450  -17.7428 O   0  0  0  0  0  0  0  0  0  0  0  0
  2  1  1  0
  3  5  1  0
  3  2  1  0
  3  4  1  6
  5  6  2  0
  8  7  1  0
  8  9  2  0
 10  8  1  0
 11 10  1  0
 11 12  1  0
 12 13  1  0
 14 13  1  1
 15 14  1  0
 15  5  1  0
 16 17  2  0
 16 14  1  0
 18 16  1  0
 19 23  1  0
 19 18  1  0
 19 20  1  6
 21 20  1  0
 22 21  2  0
 23 24  1  0
 25 21  1  0
 26 23  2  0
M  END
$$$$
