SRD.pdb
     RDKit          3D

 26 25  0  0  1  0  0  0  0  0999 V2000
   14.0882  -11.4813  -17.3407 O   0  0  0  0  0  0  0  0  0  0  0  0
   14.6735  -10.3388  -16.8121 C   0  0  0  0  0  0  0  0  0  0  0  0
   14.8792  -10.4836  -15.3169 C   0  0  2  0  0  0  0  0  0  0  0  0
   13.5891  -10.2236  -14.6930 N   0  0  0  0  0  0  0  0  0  0  0  0
   15.8174   -9.4326  -14.8181 C   0  0  0  0  0  0  0  0  0  0  0  0
   15.4245   -8.4401  -14.1546 O   0  0  0  0  0  0  0  0  0  0  0  0
   24.0105  -11.0256  -14.8689 N   0  0  0  0  0  0  0  0  0  0  0  0
   23.5403   -9.9675  -15.6944 C   0  0  0  0  0  0  0  0  0  0  0  0
   24.1983   -9.6156  -16.7532 N   0  0  0  0  0  0  0  0  0  0  0  0
   22.3486   -9.2610  -15.4019 N   0  0  0  0  0  0  0  0  0  0  0  0
   21.9568   -8.8842  -14.0662 C   0  0  0  0  0  0  0  0  0  0  0  0
   20.5908   -8.1789  -14.1127 C   0  0  0  0  0  0  0  0  0  0  0  0
   19.5320   -9.0933  -14.6194 C   0  0  0  0  0  0  0  0  0  0  0  0
   18.1450   -8.5029  -14.5941 C   0  0  2  0  0  0  0  0  0  0  0  0
   17.2125   -9.5172  -15.0796 N   0  0  0  0  0  0  0  0  0  0  0  0
   18.0938   -7.2891  -15.4212 C   0  0  0  0  0  0  0  0  0  0  0  0
   18.0944   -7.2867  -16.6761 O   0  0  0  0  0  0  0  0  0  0  0  0
   23.8397   -8.8636  -17.4009 N   0  0  0  0  0  0  0  0  0  0  0  0
   18.0371   -5.9642  -14.8497 C   0  0  2  0  0  0  0  0  0  0  0  0
   17.8933   -4.7735  -15.6596 C   0  0  0  0  0  0  0  0  0  0  0  0
   16.7492   -3.9023  -15.2065 C   0  0  0  0  0  0  0  0  0  0  0  0
   16.6420   -2.6374  -15.9215 O   0  0  0  0  0  0  0  0  0  0  0  0
   16.7516   -1.5572  -15.2970 C   0  0  0  0  0  0  0  0  0  0  0  0
   19.1737   -4.0289  -15.5942 O   0  0  0  0  0  0  0  0  0  0  0  0
   20.2014   -4.4006  -14.7408 O   0  0  0  0  0  0  0  0  0  0  0  0
   16.4215   -2.5915  -17.2834 O   0  0  0  0  0  0  0  0  0  0  0  0
  2  1  1  0
  3  5  1  0
  3  2  1  0
  3  4  1  1
  5  6  2  0
  8  7  1  0
  8  9  2  0
 10  8  1  0
 11 10  1  0
 11 12  1  0
 12 13  1  0
 14 13  1  6
 15 14  1  0
 15  5  1  0
 16 17  2  0
 16 14  1  0
 18 16  1  0
 19 23  1  0
 19 18  1  0
 19 20  1  1
 21 20  1  0
 22 21  2  0
 23 24  1  0
 25 21  1  0
 26 23  2  0
M  END
$$$$
