SRD.pdb
     RDKit          3D

 26 25  0  0  1  0  0  0  0  0999 V2000
   25.7679  -24.2083  -18.9963 O   0  0  0  0  0  0  0  0  0  0  0  0
   24.9238  -23.9231  -17.9315 C   0  0  0  0  0  0  0  0  0  0  0  0
   25.7217  -23.5161  -16.7081 C   0  0  2  0  0  0  0  0  0  0  0  0
   26.2232  -24.7462  -16.1112 N   0  0  0  0  0  0  0  0  0  0  0  0
   24.8274  -22.8797  -15.6938 C   0  0  0  0  0  0  0  0  0  0  0  0
   24.9380  -23.1066  -14.4626 O   0  0  0  0  0  0  0  0  0  0  0  0
   21.7610  -15.4702  -17.3752 N   0  0  0  0  0  0  0  0  0  0  0  0
   20.7106  -16.3598  -17.0180 C   0  0  0  0  0  0  0  0  0  0  0  0
   19.4795  -16.0733  -17.3012 N   0  0  0  0  0  0  0  0  0  0  0  0
   20.9584  -17.5818  -16.3470 N   0  0  0  0  0  0  0  0  0  0  0  0
   21.6914  -17.6728  -15.1084 C   0  0  0  0  0  0  0  0  0  0  0  0
   21.7794  -19.1450  -14.6721 C   0  0  0  0  0  0  0  0  0  0  0  0
   22.7444  -19.8983  -15.5178 C   0  0  0  0  0  0  0  0  0  0  0  0
   22.9249  -21.3389  -15.1115 C   0  0  2  0  0  0  0  0  0  0  0  0
   23.8011  -21.9786  -16.0898 N   0  0  0  0  0  0  0  0  0  0  0  0
   21.6214  -22.0139  -15.0383 C   0  0  0  0  0  0  0  0  0  0  0  0
   20.8533  -22.1784  -16.0168 O   0  0  0  0  0  0  0  0  0  0  0  0
   18.6896  -16.7268  -17.0511 N   0  0  0  0  0  0  0  0  0  0  0  0
   21.0994  -22.5586  -13.8071 C   0  0  2  0  0  0  0  0  0  0  0  0
   19.8018  -23.1946  -13.7267 C   0  0  0  0  0  0  0  0  0  0  0  0
   19.6704  -24.0863  -12.5182 C   0  0  0  0  0  0  0  0  0  0  0  0
   18.4143  -24.8215  -12.4520 O   0  0  0  0  0  0  0  0  0  0  0  0
   17.5132  -24.5928  -13.2914 C   0  0  0  0  0  0  0  0  0  0  0  0
   18.7777  -22.1230  -13.6982 O   0  0  0  0  0  0  0  0  0  0  0  0
   19.0906  -20.8107  -13.3776 O   0  0  0  0  0  0  0  0  0  0  0  0
   18.1833  -25.7753  -11.4813 O   0  0  0  0  0  0  0  0  0  0  0  0
  2  1  1  0
  3  5  1  0
  3  2  1  0
  3  4  1  1
  5  6  2  0
  8  7  1  0
  8  9  2  0
 10  8  1  0
 11 10  1  0
 11 12  1  0
 12 13  1  0
 14 13  1  6
 15 14  1  0
 15  5  1  0
 16 17  2  0
 16 14  1  0
 18 16  1  0
 19 23  1  0
 19 18  1  0
 19 20  1  1
 21 20  1  0
 22 21  2  0
 23 24  1  0
 25 21  1  0
 26 23  2  0
M  END
$$$$
