SRD.pdb
     RDKit          3D

 26 25  0  0  1  0  0  0  0  0999 V2000
   25.8963  -18.4140  -18.6375 O   0  0  0  0  0  0  0  0  0  0  0  0
   25.9390  -19.0818  -17.4210 C   0  0  0  0  0  0  0  0  0  0  0  0
   26.9761  -20.1873  -17.4516 C   0  0  2  0  0  0  0  0  0  0  0  0
   26.4409  -21.2353  -18.3098 N   0  0  0  0  0  0  0  0  0  0  0  0
   27.1365  -20.7858  -16.0915 C   0  0  0  0  0  0  0  0  0  0  0  0
   26.6551  -21.9066  -15.7887 O   0  0  0  0  0  0  0  0  0  0  0  0
   32.1505  -22.8306  -10.8120 N   0  0  0  0  0  0  0  0  0  0  0  0
   31.6177  -22.0596   -9.7424 C   0  0  0  0  0  0  0  0  0  0  0  0
   31.5517  -22.5503   -8.5454 N   0  0  0  0  0  0  0  0  0  0  0  0
   31.1427  -20.7395   -9.9336 N   0  0  0  0  0  0  0  0  0  0  0  0
   30.8861  -20.1686  -11.2327 C   0  0  0  0  0  0  0  0  0  0  0  0
   29.5721  -20.7392  -11.7926 C   0  0  0  0  0  0  0  0  0  0  0  0
   29.2721  -20.1755  -13.1366 C   0  0  0  0  0  0  0  0  0  0  0  0
   27.9598  -20.6361  -13.7184 C   0  0  2  0  0  0  0  0  0  0  0  0
   27.8517  -20.0988  -15.0725 N   0  0  0  0  0  0  0  0  0  0  0  0
   26.8437  -20.1875  -12.8738 C   0  0  0  0  0  0  0  0  0  0  0  0
   26.5485  -18.9850  -12.6703 O   0  0  0  0  0  0  0  0  0  0  0  0
   31.2640  -21.9573   -7.7214 N   0  0  0  0  0  0  0  0  0  0  0  0
   25.9702  -21.1116  -12.1895 C   0  0  1  0  0  0  0  0  0  0  0  0
   24.8713  -20.6714  -11.3569 C   0  0  0  0  0  0  0  0  0  0  0  0
   23.5974  -21.4280  -11.6356 C   0  0  0  0  0  0  0  0  0  0  0  0
   22.4474  -20.5786  -11.9163 O   0  0  0  0  0  0  0  0  0  0  0  0
   22.5605  -19.3332  -11.8465 C   0  0  0  0  0  0  0  0  0  0  0  0
   25.2822  -20.8443   -9.9430 O   0  0  0  0  0  0  0  0  0  0  0  0
   25.8326  -22.0271   -9.4731 O   0  0  0  0  0  0  0  0  0  0  0  0
   21.2214  -21.1102  -12.2621 O   0  0  0  0  0  0  0  0  0  0  0  0
  2  1  1  0
  3  5  1  0
  3  2  1  0
  3  4  1  6
  5  6  2  0
  8  7  1  0
  8  9  2  0
 10  8  1  0
 11 10  1  0
 11 12  1  0
 12 13  1  0
 14 13  1  1
 15 14  1  0
 15  5  1  0
 16 17  2  0
 16 14  1  0
 18 16  1  0
 19 23  1  0
 19 18  1  0
 19 20  1  1
 21 20  1  0
 22 21  2  0
 23 24  1  0
 25 21  1  0
 26 23  2  0
M  END
$$$$
