SRD.pdb
     RDKit          3D

 26 25  0  0  1  0  0  0  0  0999 V2000
   26.6785  -19.1428  -15.7745 O   0  0  0  0  0  0  0  0  0  0  0  0
   27.7386  -19.0631  -14.8816 C   0  0  0  0  0  0  0  0  0  0  0  0
   28.0625  -20.4293  -14.3093 C   0  0  2  0  0  0  0  0  0  0  0  0
   28.3310  -21.3019  -15.4441 N   0  0  0  0  0  0  0  0  0  0  0  0
   26.8702  -20.9931  -13.6063 C   0  0  0  0  0  0  0  0  0  0  0  0
   26.1486  -21.8866  -14.1166 O   0  0  0  0  0  0  0  0  0  0  0  0
   28.0133  -18.7080   -5.9362 N   0  0  0  0  0  0  0  0  0  0  0  0
   28.4885  -19.9652   -6.4010 C   0  0  0  0  0  0  0  0  0  0  0  0
   29.4503  -20.5752   -5.7840 N   0  0  0  0  0  0  0  0  0  0  0  0
   27.9398  -20.5991   -7.5420 N   0  0  0  0  0  0  0  0  0  0  0  0
   26.8021  -20.0863   -8.2648 C   0  0  0  0  0  0  0  0  0  0  0  0
   26.4720  -21.0277   -9.4353 C   0  0  0  0  0  0  0  0  0  0  0  0
   25.3163  -20.5195  -10.2229 C   0  0  0  0  0  0  0  0  0  0  0  0
   25.2858  -21.0005  -11.6514 C   0  0  2  0  0  0  0  0  0  0  0  0
   26.5015  -20.5326  -12.3125 N   0  0  0  0  0  0  0  0  0  0  0  0
   24.0814  -20.5018  -12.3303 C   0  0  0  0  0  0  0  0  0  0  0  0
   23.9436  -19.3302  -12.7582 O   0  0  0  0  0  0  0  0  0  0  0  0
   29.8170  -21.5064   -6.1184 N   0  0  0  0  0  0  0  0  0  0  0  0
   22.9264  -21.3346  -12.5697 C   0  0  2  0  0  0  0  0  0  0  0  0
   21.7726  -20.8700  -13.3097 C   0  0  0  0  0  0  0  0  0  0  0  0
   21.3731  -21.8190  -14.4109 C   0  0  0  0  0  0  0  0  0  0  0  0
   20.1843  -21.4119  -15.1483 O   0  0  0  0  0  0  0  0  0  0  0  0
   19.3957  -22.2801  -15.5878 C   0  0  0  0  0  0  0  0  0  0  0  0
   20.6614  -20.6936  -12.3442 O   0  0  0  0  0  0  0  0  0  0  0  0
   19.7062  -19.6993  -12.4911 O   0  0  0  0  0  0  0  0  0  0  0  0
   19.8954  -20.0822  -15.3800 O   0  0  0  0  0  0  0  0  0  0  0  0
  2  1  1  0
  3  5  1  0
  3  2  1  0
  3  4  1  6
  5  6  2  0
  8  7  1  0
  8  9  2  0
 10  8  1  0
 11 10  1  0
 11 12  1  0
 12 13  1  0
 14 13  1  1
 15 14  1  0
 15  5  1  0
 16 17  2  0
 16 14  1  0
 18 16  1  0
 19 23  1  0
 19 18  1  0
 19 20  1  6
 21 20  1  0
 22 21  2  0
 23 24  1  0
 25 21  1  0
 26 23  2  0
M  END
$$$$
