IMR.pdb
     RDKit          3D

 28 27  0  0  1  0  0  0  0  0999 V2000
   29.3422  -19.0739  -16.0915 C   0  0  0  0  0  0  0  0  0  0  0  0
   28.0171  -18.8322  -15.4474 C   0  0  0  0  0  0  0  0  0  0  0  0
   27.6366  -19.8852  -14.4249 C   0  0  2  0  0  0  0  0  0  0  0  0
   27.8046  -21.2378  -15.0222 C   0  0  0  0  0  0  0  0  0  0  0  0
   26.2549  -19.5667  -13.9281 C   0  0  2  0  0  0  0  0  0  0  0  0
   26.3476  -18.1985  -13.3875 N   0  0  0  0  0  0  0  0  0  0  0  0
   25.8516  -20.4339  -12.7896 C   0  0  0  0  0  0  0  0  0  0  0  0
   25.6548  -21.6804  -12.9339 O   0  0  0  0  0  0  0  0  0  0  0  0
   27.2310  -18.3013   -6.8859 C   0  0  0  0  0  0  0  0  0  0  0  0
   27.1645  -20.0999   -6.9335 S   0  0  0  0  0  0  0  0  0  0  0  0
   26.8692  -20.7281   -8.6172 C   0  0  0  0  0  0  0  0  0  0  0  0
   25.5146  -20.2596   -9.0314 C   0  0  0  0  0  0  0  0  0  0  0  0
   25.0957  -20.7567  -10.4061 C   0  0  2  0  0  0  0  0  0  0  0  0
   25.6531  -19.9572  -11.4589 N   0  0  0  0  0  0  0  0  0  0  0  0
   23.6436  -20.9430  -10.5186 C   0  0  0  0  0  0  0  0  0  0  0  0
   23.0210  -20.1487  -11.2908 O   0  0  0  0  0  0  0  0  0  0  0  0
   17.7966  -25.1585   -5.1479 N   0  0  0  0  0  0  0  0  0  0  0  0
   16.9939  -24.5989   -6.1774 C   0  0  0  0  0  0  0  0  0  0  0  0
   15.7165  -24.7141   -6.1979 N   0  0  0  0  0  0  0  0  0  0  0  0
   17.6453  -23.8847   -7.2227 N   0  0  0  0  0  0  0  0  0  0  0  0
   19.0857  -23.6880   -7.2457 C   0  0  0  0  0  0  0  0  0  0  0  0
   19.5183  -22.9039   -8.4446 C   0  0  0  0  0  0  0  0  0  0  0  0
   20.9556  -22.6844   -8.6428 C   0  0  0  0  0  0  0  0  0  0  0  0
   21.4087  -21.9605   -9.8251 C   0  0  2  0  0  0  0  0  0  0  0  0
   22.8974  -21.9219   -9.8455 N   0  0  0  0  0  0  0  0  0  0  0  0
   20.8556  -20.6803  -10.1612 C   0  0  0  0  0  0  0  0  0  0  0  0
   21.1018  -19.6215   -9.5468 O   0  0  0  0  0  0  0  0  0  0  0  0
   19.9722  -20.5580  -11.2468 O   0  0  0  0  0  0  0  0  0  0  0  0
  2  1  1  0
  3  4  1  6
  3  2  1  0
  5  3  1  0
  5  6  1  1
  7  5  1  0
  7  8  2  0
  9 10  1  0
 10 11  1  0
 11 12  1  0
 13 12  1  1
 13 14  1  0
 14  7  1  0
 15 25  1  0
 15 13  1  0
 16 15  2  0
 17 18  1  0
 18 20  1  0
 19 18  2  0
 20 21  1  0
 21 22  1  0
 22 23  1  0
 24 23  1  1
 24 25  1  0
 24 26  1  0
 26 27  2  0
 26 28  1  0
M  END
$$$$
