IMR.pdb
     RDKit          3D

 28 27  0  0  1  0  0  0  0  0999 V2000
   31.2043  -13.0502  -17.0146 C   0  0  0  0  0  0  0  0  0  0  0  0
   29.9125  -13.7187  -17.3521 C   0  0  0  0  0  0  0  0  0  0  0  0
   28.7337  -12.7672  -17.4158 C   0  0  2  0  0  0  0  0  0  0  0  0
   28.5558  -12.1110  -16.0922 C   0  0  0  0  0  0  0  0  0  0  0  0
   27.5461  -13.5384  -17.9181 C   0  0  2  0  0  0  0  0  0  0  0  0
   28.0638  -14.3615  -19.0260 N   0  0  0  0  0  0  0  0  0  0  0  0
   26.5092  -12.6531  -18.5113 C   0  0  0  0  0  0  0  0  0  0  0  0
   25.6603  -12.0404  -17.7921 O   0  0  0  0  0  0  0  0  0  0  0  0
   24.4169   -8.2555  -24.7846 C   0  0  0  0  0  0  0  0  0  0  0  0
   25.4470   -9.5239  -24.0283 S   0  0  0  0  0  0  0  0  0  0  0  0
   24.7811  -10.0793  -22.4268 C   0  0  0  0  0  0  0  0  0  0  0  0
   25.7945  -10.9905  -21.8199 C   0  0  0  0  0  0  0  0  0  0  0  0
   25.3674  -11.5635  -20.4775 C   0  0  2  0  0  0  0  0  0  0  0  0
   26.3746  -12.4145  -19.9122 N   0  0  0  0  0  0  0  0  0  0  0  0
   24.0377  -12.1841  -20.5281 C   0  0  0  0  0  0  0  0  0  0  0  0
   23.9798  -13.3849  -20.9395 O   0  0  0  0  0  0  0  0  0  0  0  0
   17.3518  -13.1362  -15.0683 N   0  0  0  0  0  0  0  0  0  0  0  0
   16.9523  -13.8634  -16.2211 C   0  0  0  0  0  0  0  0  0  0  0  0
   15.9083  -14.6083  -16.2413 N   0  0  0  0  0  0  0  0  0  0  0  0
   17.7515  -13.7530  -17.3943 N   0  0  0  0  0  0  0  0  0  0  0  0
   19.0466  -13.0923  -17.3899 C   0  0  0  0  0  0  0  0  0  0  0  0
   19.5972  -12.9441  -18.7734 C   0  0  0  0  0  0  0  0  0  0  0  0
   20.9575  -12.4138  -18.9208 C   0  0  0  0  0  0  0  0  0  0  0  0
   21.5003  -12.2086  -20.2589 C   0  0  2  0  0  0  0  0  0  0  0  0
   22.8369  -11.5590  -20.1600 N   0  0  0  0  0  0  0  0  0  0  0  0
   20.7080  -11.6023  -21.2896 C   0  0  0  0  0  0  0  0  0  0  0  0
   21.0588  -10.6063  -21.9561 O   0  0  0  0  0  0  0  0  0  0  0  0
   19.4446  -12.1282  -21.6077 O   0  0  0  0  0  0  0  0  0  0  0  0
  2  1  1  0
  3  4  1  1
  3  2  1  0
  5  3  1  0
  5  6  1  6
  7  5  1  0
  7  8  2  0
  9 10  1  0
 10 11  1  0
 11 12  1  0
 13 12  1  6
 13 14  1  0
 14  7  1  0
 15 25  1  0
 15 13  1  0
 16 15  2  0
 17 18  1  0
 18 20  1  0
 19 18  2  0
 20 21  1  0
 21 22  1  0
 22 23  1  0
 24 23  1  1
 24 25  1  0
 24 26  1  0
 26 27  2  0
 26 28  1  0
M  END
$$$$
