IMR.pdb
     RDKit          3D

 28 27  0  0  1  0  0  0  0  0999 V2000
   18.6709  -23.6970   -8.1181 C   0  0  0  0  0  0  0  0  0  0  0  0
   19.8449  -23.2310   -7.3219 C   0  0  0  0  0  0  0  0  0  0  0  0
   20.8319  -22.4028   -8.1213 C   0  0  2  0  0  0  0  0  0  0  0  0
   21.2262  -23.1499   -9.3463 C   0  0  0  0  0  0  0  0  0  0  0  0
   21.9613  -22.0226   -7.2063 C   0  0  2  0  0  0  0  0  0  0  0  0
   21.3300  -21.2612   -6.1134 N   0  0  0  0  0  0  0  0  0  0  0  0
   22.9234  -21.0929   -7.8549 C   0  0  0  0  0  0  0  0  0  0  0  0
   22.5698  -19.9462   -8.2714 O   0  0  0  0  0  0  0  0  0  0  0  0
   28.6410  -19.6622   -4.6766 C   0  0  0  0  0  0  0  0  0  0  0  0
   28.4170  -20.1235   -6.4025 S   0  0  0  0  0  0  0  0  0  0  0  0
   26.6697  -20.0433   -6.9096 C   0  0  0  0  0  0  0  0  0  0  0  0
   26.5922  -20.5578   -8.3079 C   0  0  0  0  0  0  0  0  0  0  0  0
   25.1776  -20.5878   -8.8650 C   0  0  2  0  0  0  0  0  0  0  0  0
   24.3025  -21.3953   -8.0648 N   0  0  0  0  0  0  0  0  0  0  0  0
   25.1425  -20.9253  -10.2935 C   0  0  0  0  0  0  0  0  0  0  0  0
   24.9177  -22.1400  -10.5911 O   0  0  0  0  0  0  0  0  0  0  0  0
   19.1386  -21.5481  -13.3989 N   0  0  0  0  0  0  0  0  0  0  0  0
   19.4636  -21.2597  -14.7512 C   0  0  0  0  0  0  0  0  0  0  0  0
   18.5810  -20.9159  -15.6161 N   0  0  0  0  0  0  0  0  0  0  0  0
   20.8267  -21.3604  -15.1498 N   0  0  0  0  0  0  0  0  0  0  0  0
   21.9043  -21.5299  -14.1886 C   0  0  0  0  0  0  0  0  0  0  0  0
   22.2131  -20.2529  -13.4722 C   0  0  0  0  0  0  0  0  0  0  0  0
   23.1710  -20.3000  -12.3615 C   0  0  0  0  0  0  0  0  0  0  0  0
   24.5854  -20.0675  -12.6312 C   0  0  2  0  0  0  0  0  0  0  0  0
   25.3360  -20.0179  -11.3458 N   0  0  0  0  0  0  0  0  0  0  0  0
   25.0034  -19.0157  -13.5126 C   0  0  0  0  0  0  0  0  0  0  0  0
   25.1713  -17.8282  -13.1651 O   0  0  0  0  0  0  0  0  0  0  0  0
   25.2532  -19.2903  -14.8677 O   0  0  0  0  0  0  0  0  0  0  0  0
  2  1  1  0
  3  4  1  6
  3  2  1  0
  5  3  1  0
  5  6  1  1
  7  5  1  0
  7  8  2  0
  9 10  1  0
 10 11  1  0
 11 12  1  0
 13 12  1  1
 13 14  1  0
 14  7  1  0
 15 25  1  0
 15 13  1  0
 16 15  2  0
 17 18  1  0
 18 20  1  0
 19 18  2  0
 20 21  1  0
 21 22  1  0
 22 23  1  0
 24 23  1  1
 24 25  1  0
 24 26  1  0
 26 27  2  0
 26 28  1  0
M  END
$$$$
