IMR.pdb
     RDKit          3D

 28 27  0  0  1  0  0  0  0  0999 V2000
   26.7367  -14.6907  -16.7281 C   0  0  0  0  0  0  0  0  0  0  0  0
   27.6213  -15.8239  -16.3250 C   0  0  0  0  0  0  0  0  0  0  0  0
   26.8923  -16.9344  -15.5939 C   0  0  2  0  0  0  0  0  0  0  0  0
   26.2389  -16.3797  -14.3775 C   0  0  0  0  0  0  0  0  0  0  0  0
   27.8731  -18.0459  -15.3492 C   0  0  2  0  0  0  0  0  0  0  0  0
   28.3076  -18.4763  -16.6903 N   0  0  0  0  0  0  0  0  0  0  0  0
   27.2345  -19.2329  -14.7215 C   0  0  0  0  0  0  0  0  0  0  0  0
   26.5456  -20.0588  -15.3973 O   0  0  0  0  0  0  0  0  0  0  0  0
   29.1775  -20.9452   -8.7969 C   0  0  0  0  0  0  0  0  0  0  0  0
   29.6260  -22.0112  -10.1769 S   0  0  0  0  0  0  0  0  0  0  0  0
   28.9071  -21.4341  -11.7474 C   0  0  0  0  0  0  0  0  0  0  0  0
   27.4604  -21.1675  -11.4987 C   0  0  0  0  0  0  0  0  0  0  0  0
   26.7107  -20.6926  -12.7336 C   0  0  2  0  0  0  0  0  0  0  0  0
   27.3341  -19.5478  -13.3329 N   0  0  0  0  0  0  0  0  0  0  0  0
   25.2745  -20.5144  -12.4860 C   0  0  0  0  0  0  0  0  0  0  0  0
   24.9038  -19.3810  -12.0471 O   0  0  0  0  0  0  0  0  0  0  0  0
   19.6280  -18.6969  -17.1140 N   0  0  0  0  0  0  0  0  0  0  0  0
   18.9143  -18.6879  -15.8859 C   0  0  0  0  0  0  0  0  0  0  0  0
   17.6330  -18.6628  -15.8311 N   0  0  0  0  0  0  0  0  0  0  0  0
   19.6627  -18.7073  -14.6749 N   0  0  0  0  0  0  0  0  0  0  0  0
   21.1088  -18.5580  -14.6554 C   0  0  0  0  0  0  0  0  0  0  0  0
   21.8019  -19.8332  -15.0198 C   0  0  0  0  0  0  0  0  0  0  0  0
   23.0134  -20.1962  -14.2754 C   0  0  0  0  0  0  0  0  0  0  0  0
   22.9247  -21.1925  -13.2140 C   0  0  2  0  0  0  0  0  0  0  0  0
   24.2886  -21.4904  -12.6952 N   0  0  0  0  0  0  0  0  0  0  0  0
   22.1688  -22.3978  -13.3972 C   0  0  0  0  0  0  0  0  0  0  0  0
   22.6387  -23.4650  -13.8439 O   0  0  0  0  0  0  0  0  0  0  0  0
   20.8038  -22.4300  -13.0661 O   0  0  0  0  0  0  0  0  0  0  0  0
  2  1  1  0
  3  4  1  1
  3  2  1  0
  5  3  1  0
  5  6  1  6
  7  5  1  0
  7  8  2  0
  9 10  1  0
 10 11  1  0
 11 12  1  0
 13 12  1  1
 13 14  1  0
 14  7  1  0
 15 25  1  0
 15 13  1  0
 16 15  2  0
 17 18  1  0
 18 20  1  0
 19 18  2  0
 20 21  1  0
 21 22  1  0
 22 23  1  0
 24 23  1  6
 24 25  1  0
 24 26  1  0
 26 27  2  0
 26 28  1  0
M  END
$$$$
