IMR.pdb
     RDKit          3D

 28 27  0  0  1  0  0  0  0  0999 V2000
   27.1211  -17.0573  -14.2856 C   0  0  0  0  0  0  0  0  0  0  0  0
   26.7636  -18.5054  -14.2182 C   0  0  0  0  0  0  0  0  0  0  0  0
   27.9614  -19.4319  -14.2953 C   0  0  2  0  0  0  0  0  0  0  0  0
   28.6823  -19.2024  -15.5766 C   0  0  0  0  0  0  0  0  0  0  0  0
   27.4731  -20.8352  -14.0724 C   0  0  2  0  0  0  0  0  0  0  0  0
   26.3897  -21.0248  -15.0537 N   0  0  0  0  0  0  0  0  0  0  0  0
   26.8518  -21.0095  -12.7328 C   0  0  0  0  0  0  0  0  0  0  0  0
   27.5465  -21.2620  -11.6999 O   0  0  0  0  0  0  0  0  0  0  0  0
   27.7057  -19.6352   -7.9518 C   0  0  0  0  0  0  0  0  0  0  0  0
   25.9466  -19.4457   -7.6181 S   0  0  0  0  0  0  0  0  0  0  0  0
   24.9240  -20.4115   -8.7749 C   0  0  0  0  0  0  0  0  0  0  0  0
   25.5029  -20.2245  -10.1371 C   0  0  0  0  0  0  0  0  0  0  0  0
   24.8546  -21.1018  -11.1967 C   0  0  2  0  0  0  0  0  0  0  0  0
   25.4489  -20.9112  -12.4885 N   0  0  0  0  0  0  0  0  0  0  0  0
   23.3908  -20.9876  -11.2031 C   0  0  0  0  0  0  0  0  0  0  0  0
   22.8949  -19.9978  -11.8270 O   0  0  0  0  0  0  0  0  0  0  0  0
   17.3877  -25.1863   -6.5867 N   0  0  0  0  0  0  0  0  0  0  0  0
   18.0648  -25.7844   -7.6829 C   0  0  0  0  0  0  0  0  0  0  0  0
   18.2209  -27.0529   -7.7902 N   0  0  0  0  0  0  0  0  0  0  0  0
   18.5866  -24.9305   -8.6957 N   0  0  0  0  0  0  0  0  0  0  0  0
   18.1998  -23.5333   -8.8060 C   0  0  0  0  0  0  0  0  0  0  0  0
   18.9009  -22.8527   -9.9394 C   0  0  0  0  0  0  0  0  0  0  0  0
   20.3479  -22.6371   -9.8249 C   0  0  0  0  0  0  0  0  0  0  0  0
   21.0587  -21.9830  -10.9177 C   0  0  2  0  0  0  0  0  0  0  0  0
   22.5054  -21.8793  -10.5794 N   0  0  0  0  0  0  0  0  0  0  0  0
   20.5727  -20.7572  -11.4824 C   0  0  0  0  0  0  0  0  0  0  0  0
   19.5279  -20.6567  -12.1588 O   0  0  0  0  0  0  0  0  0  0  0  0
   21.2853  -19.5618  -11.2893 O   0  0  0  0  0  0  0  0  0  0  0  0
  2  1  1  0
  3  4  1  6
  3  2  1  0
  5  3  1  0
  5  6  1  6
  7  5  1  0
  7  8  2  0
  9 10  1  0
 10 11  1  0
 11 12  1  0
 13 12  1  1
 13 14  1  0
 14  7  1  0
 15 25  1  0
 15 13  1  0
 16 15  2  0
 17 18  1  0
 18 20  1  0
 19 18  2  0
 20 21  1  0
 21 22  1  0
 22 23  1  0
 24 23  1  1
 24 25  1  0
 24 26  1  0
 26 27  2  0
 26 28  1  0
M  END
$$$$
