IMR.pdb
     RDKit          3D

 28 27  0  0  1  0  0  0  0  0999 V2000
   26.8762  -20.9858  -19.1390 C   0  0  0  0  0  0  0  0  0  0  0  0
   27.5264  -21.3655  -17.8497 C   0  0  0  0  0  0  0  0  0  0  0  0
   26.5665  -21.4202  -16.6772 C   0  0  2  0  0  0  0  0  0  0  0  0
   25.7968  -20.1485  -16.6087 C   0  0  0  0  0  0  0  0  0  0  0  0
   27.3602  -21.7607  -15.4478 C   0  0  2  0  0  0  0  0  0  0  0  0
   27.9218  -23.0977  -15.7119 N   0  0  0  0  0  0  0  0  0  0  0  0
   26.4998  -21.9049  -14.2437 C   0  0  0  0  0  0  0  0  0  0  0  0
   25.6749  -22.8629  -14.1207 O   0  0  0  0  0  0  0  0  0  0  0  0
   27.8212  -20.0448   -8.0504 C   0  0  0  0  0  0  0  0  0  0  0  0
   26.1073  -19.5336   -8.2578 S   0  0  0  0  0  0  0  0  0  0  0  0
   25.2839  -20.4367   -9.6080 C   0  0  0  0  0  0  0  0  0  0  0  0
   26.1680  -20.3413  -10.8060 C   0  0  0  0  0  0  0  0  0  0  0  0
   25.6456  -21.1130  -12.0077 C   0  0  2  0  0  0  0  0  0  0  0  0
   26.5205  -21.0011  -13.1392 N   0  0  0  0  0  0  0  0  0  0  0  0
   24.2460  -20.7939  -12.3161 C   0  0  0  0  0  0  0  0  0  0  0  0
   24.0311  -19.7237  -12.9668 O   0  0  0  0  0  0  0  0  0  0  0  0
   18.1491  -25.9552  -10.3835 N   0  0  0  0  0  0  0  0  0  0  0  0
   18.1812  -24.7821   -9.5832 C   0  0  0  0  0  0  0  0  0  0  0  0
   17.7320  -24.7520   -8.3822 N   0  0  0  0  0  0  0  0  0  0  0  0
   18.7363  -23.5992  -10.1487 N   0  0  0  0  0  0  0  0  0  0  0  0
   18.4959  -23.2144  -11.5300 C   0  0  0  0  0  0  0  0  0  0  0  0
   19.3847  -22.0874  -11.9534 C   0  0  0  0  0  0  0  0  0  0  0  0
   20.8333  -22.2517  -11.7859 C   0  0  0  0  0  0  0  0  0  0  0  0
   21.7264  -21.1882  -12.2317 C   0  0  2  0  0  0  0  0  0  0  0  0
   23.1376  -21.5728  -11.9515 N   0  0  0  0  0  0  0  0  0  0  0  0
   21.4830  -19.8220  -11.8681 C   0  0  0  0  0  0  0  0  0  0  0  0
   21.7748  -19.3232  -10.7613 O   0  0  0  0  0  0  0  0  0  0  0  0
   20.8777  -18.9465  -12.7852 O   0  0  0  0  0  0  0  0  0  0  0  0
  2  1  1  0
  3  4  1  1
  3  2  1  0
  5  3  1  0
  5  6  1  6
  7  5  1  0
  7  8  2  0
  9 10  1  0
 10 11  1  0
 11 12  1  0
 13 12  1  1
 13 14  1  0
 14  7  1  0
 15 25  1  0
 15 13  1  0
 16 15  2  0
 17 18  1  0
 18 20  1  0
 19 18  2  0
 20 21  1  0
 21 22  1  0
 22 23  1  0
 24 23  1  1
 24 25  1  0
 24 26  1  0
 26 27  2  0
 26 28  1  0
M  END
$$$$
