IMR.pdb
     RDKit          3D

 28 27  0  0  1  0  0  0  0  0999 V2000
   23.9632  -21.5633   -6.3078 C   0  0  0  0  0  0  0  0  0  0  0  0
   23.8702  -21.4166   -7.7907 C   0  0  0  0  0  0  0  0  0  0  0  0
   25.0638  -20.7147   -8.4087 C   0  0  2  0  0  0  0  0  0  0  0  0
   25.3319  -19.4515   -7.6692 C   0  0  0  0  0  0  0  0  0  0  0  0
   24.7951  -20.5571   -9.8785 C   0  0  2  0  0  0  0  0  0  0  0  0
   24.6255  -21.9302  -10.3869 N   0  0  0  0  0  0  0  0  0  0  0  0
   25.9603  -19.9884  -10.6064 C   0  0  0  0  0  0  0  0  0  0  0  0
   26.2856  -18.7653  -10.4986 O   0  0  0  0  0  0  0  0  0  0  0  0
   30.9764  -23.5638  -10.5596 C   0  0  0  0  0  0  0  0  0  0  0  0
   31.4377  -21.9937  -11.3104 S   0  0  0  0  0  0  0  0  0  0  0  0
   30.1039  -20.7598  -11.1875 C   0  0  0  0  0  0  0  0  0  0  0  0
   29.1035  -21.0849  -12.2454 C   0  0  0  0  0  0  0  0  0  0  0  0
   27.8837  -20.1770  -12.2255 C   0  0  2  0  0  0  0  0  0  0  0  0
   26.8026  -20.7468  -11.4739 N   0  0  0  0  0  0  0  0  0  0  0  0
   27.4920  -19.7314  -13.5686 C   0  0  0  0  0  0  0  0  0  0  0  0
   26.8033  -20.5416  -14.2642 O   0  0  0  0  0  0  0  0  0  0  0  0
   23.0914  -14.8336  -16.9862 N   0  0  0  0  0  0  0  0  0  0  0  0
   23.2714  -14.5432  -15.6075 C   0  0  0  0  0  0  0  0  0  0  0  0
   22.2906  -14.4549  -14.7857 N   0  0  0  0  0  0  0  0  0  0  0  0
   24.5984  -14.3437  -15.1317 N   0  0  0  0  0  0  0  0  0  0  0  0
   25.7546  -14.4091  -16.0109 C   0  0  0  0  0  0  0  0  0  0  0  0
   26.1760  -15.8220  -16.2672 C   0  0  0  0  0  0  0  0  0  0  0  0
   26.7905  -16.5689  -15.1637 C   0  0  0  0  0  0  0  0  0  0  0  0
   27.1848  -17.9569  -15.3764 C   0  0  2  0  0  0  0  0  0  0  0  0
   27.8164  -18.4908  -14.1377 N   0  0  0  0  0  0  0  0  0  0  0  0
   27.9300  -18.3402  -16.5407 C   0  0  0  0  0  0  0  0  0  0  0  0
   29.1762  -18.3277  -16.6172 O   0  0  0  0  0  0  0  0  0  0  0  0
   27.2574  -18.7659  -17.6985 O   0  0  0  0  0  0  0  0  0  0  0  0
  2  1  1  0
  3  4  1  1
  3  2  1  0
  5  3  1  0
  5  6  1  6
  7  5  1  0
  7  8  2  0
  9 10  1  0
 10 11  1  0
 11 12  1  0
 13 12  1  6
 13 14  1  0
 14  7  1  0
 15 25  1  0
 15 13  1  0
 16 15  2  0
 17 18  1  0
 18 20  1  0
 19 18  2  0
 20 21  1  0
 21 22  1  0
 22 23  1  0
 24 23  1  1
 24 25  1  0
 24 26  1  0
 26 27  2  0
 26 28  1  0
M  END
$$$$
