QYL.pdb
     RDKit          3D

 30 30  0  0  1  0  0  0  0  0999 V2000
   11.8708  -18.9612   16.8275 N   0  0  0  0  0  0  0  0  0  0  0  0
   11.8083  -17.6677   17.4129 C   0  0  0  0  0  0  0  0  0  0  0  0
   12.5516  -16.7831   16.9316 O   0  0  0  0  0  0  0  0  0  0  0  0
   10.9100  -17.4138   18.5258 C   0  0  0  0  0  0  0  0  0  0  0  0
   10.1284  -18.5438   19.0610 C   0  0  0  0  0  0  0  0  0  0  0  0
    9.2897  -18.3002   20.2777 C   0  0  2  0  0  0  0  0  0  0  0  0
    7.8828  -18.3753   20.1077 N   0  0  0  0  0  0  0  0  0  0  0  0
    9.6577  -16.9711   20.8340 C   0  0  0  0  0  0  0  0  0  0  0  0
   10.0102  -16.0556   19.9942 O   0  0  0  0  0  0  0  0  0  0  0  0
    8.0731  -12.7325   16.8738 O   0  0  0  0  0  0  0  0  0  0  0  0
    8.0302  -13.3022   18.1540 C   0  0  0  0  0  0  0  0  0  0  0  0
    7.1971  -14.3618   18.4342 C   0  0  0  0  0  0  0  0  0  0  0  0
    7.1534  -14.9255   19.6976 C   0  0  0  0  0  0  0  0  0  0  0  0
    7.9388  -14.4542   20.7308 C   0  0  0  0  0  0  0  0  0  0  0  0
    7.8839  -15.0599   22.0798 C   0  0  0  0  0  0  0  0  0  0  0  0
    9.2557  -15.3241   22.6586 C   0  0  2  0  0  0  0  0  0  0  0  0
    9.6430  -16.6555   22.2005 N   0  0  0  0  0  0  0  0  0  0  0  0
    9.3108  -15.2571   24.1193 C   0  0  0  0  0  0  0  0  0  0  0  0
   10.3632  -15.5461   24.7686 O   0  0  0  0  0  0  0  0  0  0  0  0
    8.7681  -13.3924   20.4339 C   0  0  0  0  0  0  0  0  0  0  0  0
    8.8212  -12.8216   19.1791 C   0  0  0  0  0  0  0  0  0  0  0  0
    8.2951  -11.7998   26.8966 C   0  0  0  0  0  0  0  0  0  0  0  0
    7.0473  -12.5789   26.5242 C   0  0  2  0  0  0  0  0  0  0  0  0
    5.8330  -11.8153   26.8751 C   0  0  0  0  0  0  0  0  0  0  0  0
    7.1019  -14.0153   26.8571 C   0  0  0  0  0  0  0  0  0  0  0  0
    8.2121  -14.8409   26.3284 C   0  0  2  0  0  0  0  0  0  0  0  0
    8.1594  -14.8581   24.8429 N   0  0  0  0  0  0  0  0  0  0  0  0
    8.3391  -16.2138   26.8347 C   0  0  0  0  0  0  0  0  0  0  0  0
    7.7519  -17.1458   26.1710 O   0  0  0  0  0  0  0  0  0  0  0  0
    9.0186  -16.6351   27.9413 O   0  0  0  0  0  0  0  0  0  0  0  0
  1  2  1  0
  2  3  2  0
  2  4  1  0
  4  5  1  0
  6  7  1  6
  6  5  1  0
  8  6  1  0
  9  8  2  0
 10 11  1  0
 11 12  2  0
 11 21  1  0
 12 13  1  0
 13 14  2  0
 14 15  1  0
 16 15  1  1
 16 17  1  0
 17  8  1  0
 18 27  1  0
 18 16  1  0
 19 18  2  0
 20 14  1  0
 21 20  2  0
 23 22  1  1
 23 25  1  0
 24 23  1  0
 26 25  1  1
 26 27  1  0
 28 26  1  0
 28 30  1  0
 29 28  2  0
M  END
$$$$
