QYL.pdb
     RDKit          3D

 30 30  0  0  1  0  0  0  0  0999 V2000
    7.5961  -12.3822   17.2746 N   0  0  0  0  0  0  0  0  0  0  0  0
    7.8168  -13.6571   16.6867 C   0  0  0  0  0  0  0  0  0  0  0  0
    7.6137  -13.7651   15.4564 O   0  0  0  0  0  0  0  0  0  0  0  0
    8.2576  -14.7718   17.5072 C   0  0  0  0  0  0  0  0  0  0  0  0
    8.4330  -14.5446   18.9535 C   0  0  0  0  0  0  0  0  0  0  0  0
    9.0263  -15.6521   19.7687 C   0  0  2  0  0  0  0  0  0  0  0  0
    8.9648  -16.9565   19.2129 N   0  0  0  0  0  0  0  0  0  0  0  0
    8.3723  -15.6444   21.1042 C   0  0  0  0  0  0  0  0  0  0  0  0
    7.9327  -14.5114   21.5407 O   0  0  0  0  0  0  0  0  0  0  0  0
    2.8240  -19.3724   19.6584 O   0  0  0  0  0  0  0  0  0  0  0  0
    3.8289  -19.0545   20.5828 C   0  0  0  0  0  0  0  0  0  0  0  0
    3.5621  -18.2713   21.6831 C   0  0  0  0  0  0  0  0  0  0  0  0
    4.5529  -17.9564   22.5969 C   0  0  0  0  0  0  0  0  0  0  0  0
    5.8485  -18.4105   22.4487 C   0  0  0  0  0  0  0  0  0  0  0  0
    6.9033  -18.0667   23.4280 C   0  0  0  0  0  0  0  0  0  0  0  0
    7.5029  -16.6997   23.1861 C   0  0  2  0  0  0  0  0  0  0  0  0
    8.2044  -16.7816   21.9078 N   0  0  0  0  0  0  0  0  0  0  0  0
    8.4188  -16.2547   24.2368 C   0  0  0  0  0  0  0  0  0  0  0  0
    9.6532  -16.5525   24.2262 O   0  0  0  0  0  0  0  0  0  0  0  0
    6.0995  -19.1941   21.3413 C   0  0  0  0  0  0  0  0  0  0  0  0
    5.1210  -19.5152   20.4232 C   0  0  0  0  0  0  0  0  0  0  0  0
    7.1809  -12.4751   24.7348 C   0  0  0  0  0  0  0  0  0  0  0  0
    7.1278  -13.0198   26.1501 C   0  0  2  0  0  0  0  0  0  0  0  0
    6.3120  -12.1437   27.0147 C   0  0  0  0  0  0  0  0  0  0  0  0
    8.4193  -13.5167   26.6621 C   0  0  0  0  0  0  0  0  0  0  0  0
    8.8882  -14.8638   26.2631 C   0  0  2  0  0  0  0  0  0  0  0  0
    7.9239  -15.4657   25.3051 N   0  0  0  0  0  0  0  0  0  0  0  0
    9.1868  -15.8243   27.3334 C   0  0  0  0  0  0  0  0  0  0  0  0
    8.4771  -16.8958   27.3817 O   0  0  0  0  0  0  0  0  0  0  0  0
   10.1444  -15.7236   28.3012 O   0  0  0  0  0  0  0  0  0  0  0  0
  1  2  1  0
  2  3  2  0
  2  4  1  0
  4  5  1  0
  6  7  1  6
  6  5  1  0
  8  6  1  0
  9  8  2  0
 10 11  1  0
 11 12  2  0
 11 21  1  0
 12 13  1  0
 13 14  2  0
 14 15  1  0
 16 15  1  1
 16 17  1  0
 17  8  1  0
 18 27  1  0
 18 16  1  0
 19 18  2  0
 20 14  1  0
 21 20  2  0
 23 22  1  6
 23 25  1  0
 24 23  1  0
 26 25  1  1
 26 27  1  0
 28 26  1  0
 28 30  1  0
 29 28  2  0
M  END
$$$$
