QYL.pdb
     RDKit          3D

 30 30  0  0  1  0  0  0  0  0999 V2000
   13.4708  -18.4296   18.5415 N   0  0  0  0  0  0  0  0  0  0  0  0
   12.2777  -19.0142   18.0370 C   0  0  0  0  0  0  0  0  0  0  0  0
   12.3994  -19.9283   17.1909 O   0  0  0  0  0  0  0  0  0  0  0  0
   10.9835  -18.5462   18.5019 C   0  0  0  0  0  0  0  0  0  0  0  0
   10.9537  -17.5212   19.5615 C   0  0  0  0  0  0  0  0  0  0  0  0
   10.5999  -17.9598   20.9491 C   0  0  2  0  0  0  0  0  0  0  0  0
    9.5268  -18.8802   21.0729 N   0  0  0  0  0  0  0  0  0  0  0  0
   10.3152  -16.7455   21.7590 C   0  0  0  0  0  0  0  0  0  0  0  0
   11.1494  -15.7640   21.6663 O   0  0  0  0  0  0  0  0  0  0  0  0
    6.0706  -10.8526   26.9014 O   0  0  0  0  0  0  0  0  0  0  0  0
    6.4209  -11.9283   26.0734 C   0  0  0  0  0  0  0  0  0  0  0  0
    7.2013  -11.7408   24.9548 C   0  0  0  0  0  0  0  0  0  0  0  0
    7.5482  -12.8017   24.1362 C   0  0  0  0  0  0  0  0  0  0  0  0
    7.1301  -14.0906   24.4012 C   0  0  0  0  0  0  0  0  0  0  0  0
    7.5020  -15.2191   23.5192 C   0  0  0  0  0  0  0  0  0  0  0  0
    8.9986  -15.3759   23.3697 C   0  0  2  0  0  0  0  0  0  0  0  0
    9.2066  -16.6034   22.6063 N   0  0  0  0  0  0  0  0  0  0  0  0
    9.7220  -15.4429   24.6398 C   0  0  0  0  0  0  0  0  0  0  0  0
   10.0313  -14.4004   25.2957 O   0  0  0  0  0  0  0  0  0  0  0  0
    6.3490  -14.2617   25.5256 C   0  0  0  0  0  0  0  0  0  0  0  0
    5.9963  -13.2131   26.3497 C   0  0  0  0  0  0  0  0  0  0  0  0
   11.2458  -14.1465   27.8919 C   0  0  0  0  0  0  0  0  0  0  0  0
    9.8382  -14.6895   27.7289 C   0  0  2  0  0  0  0  0  0  0  0  0
    8.9277  -14.0810   28.7194 C   0  0  0  0  0  0  0  0  0  0  0  0
    9.7677  -16.1458   27.5024 C   0  0  0  0  0  0  0  0  0  0  0  0
   10.6875  -16.7737   26.5260 C   0  0  2  0  0  0  0  0  0  0  0  0
   10.0943  -16.7057   25.1646 N   0  0  0  0  0  0  0  0  0  0  0  0
   11.1385  -18.1441   26.8010 C   0  0  0  0  0  0  0  0  0  0  0  0
   11.7803  -18.3470   27.8969 O   0  0  0  0  0  0  0  0  0  0  0  0
   10.9559  -19.2535   26.0266 O   0  0  0  0  0  0  0  0  0  0  0  0
  1  2  1  0
  2  3  2  0
  2  4  1  0
  4  5  1  0
  6  7  1  6
  6  5  1  0
  8  6  1  0
  9  8  2  0
 10 11  1  0
 11 12  2  0
 11 21  1  0
 12 13  1  0
 13 14  2  0
 14 15  1  0
 16 15  1  1
 16 17  1  0
 17  8  1  0
 18 27  1  0
 18 16  1  0
 19 18  2  0
 20 14  1  0
 21 20  2  0
 23 22  1  1
 23 25  1  0
 24 23  1  0
 26 25  1  1
 26 27  1  0
 28 26  1  0
 28 30  1  0
 29 28  2  0
M  END
$$$$
