QYL.pdb
     RDKit          3D

 30 30  0  0  1  0  0  0  0  0999 V2000
    8.6268  -21.3811   21.4202 N   0  0  0  0  0  0  0  0  0  0  0  0
    9.6933  -21.7013   20.5371 C   0  0  0  0  0  0  0  0  0  0  0  0
    9.6376  -22.8027   19.9450 O   0  0  0  0  0  0  0  0  0  0  0  0
   10.7915  -20.7688   20.3520 C   0  0  0  0  0  0  0  0  0  0  0  0
   10.7625  -19.5012   21.1048 C   0  0  0  0  0  0  0  0  0  0  0  0
   10.2165  -18.2898   20.4139 C   0  0  2  0  0  0  0  0  0  0  0  0
   10.8739  -17.8841   19.2234 N   0  0  0  0  0  0  0  0  0  0  0  0
   10.2064  -17.1670   21.3890 C   0  0  0  0  0  0  0  0  0  0  0  0
   11.2769  -16.4499   21.4760 O   0  0  0  0  0  0  0  0  0  0  0  0
    7.5571  -12.7338   17.6687 O   0  0  0  0  0  0  0  0  0  0  0  0
    7.6515  -13.2667   18.9620 C   0  0  0  0  0  0  0  0  0  0  0  0
    6.9462  -14.3932   19.3210 C   0  0  0  0  0  0  0  0  0  0  0  0
    7.0382  -14.9207   20.5974 C   0  0  0  0  0  0  0  0  0  0  0  0
    7.8371  -14.3450   21.5654 C   0  0  0  0  0  0  0  0  0  0  0  0
    7.9275  -14.9128   22.9290 C   0  0  0  0  0  0  0  0  0  0  0  0
    9.1865  -15.7226   23.1431 C   0  0  2  0  0  0  0  0  0  0  0  0
    9.1156  -16.8427   22.2087 N   0  0  0  0  0  0  0  0  0  0  0  0
    9.3541  -16.2158   24.5104 C   0  0  0  0  0  0  0  0  0  0  0  0
    8.4738  -16.9301   25.0826 O   0  0  0  0  0  0  0  0  0  0  0  0
    8.5372  -13.2171   21.1899 C   0  0  0  0  0  0  0  0  0  0  0  0
    8.4544  -12.6814   19.9212 C   0  0  0  0  0  0  0  0  0  0  0  0
    7.9840  -13.5693   28.7415 C   0  0  0  0  0  0  0  0  0  0  0  0
    9.1671  -14.4875   28.4972 C   0  0  2  0  0  0  0  0  0  0  0  0
   10.2798  -14.1568   29.4100 C   0  0  0  0  0  0  0  0  0  0  0  0
    9.4674  -14.7312   27.0733 C   0  0  0  0  0  0  0  0  0  0  0  0
   10.4623  -15.7658   26.7082 C   0  0  2  0  0  0  0  0  0  0  0  0
   10.5324  -15.8925   25.2288 N   0  0  0  0  0  0  0  0  0  0  0  0
   10.3122  -17.0963   27.3120 C   0  0  0  0  0  0  0  0  0  0  0  0
   10.9774  -17.3371   28.3860 O   0  0  0  0  0  0  0  0  0  0  0  0
    9.5372  -18.1299   26.8705 O   0  0  0  0  0  0  0  0  0  0  0  0
  1  2  1  0
  2  3  2  0
  2  4  1  0
  4  5  1  0
  6  7  1  6
  6  5  1  0
  8  6  1  0
  9  8  2  0
 10 11  1  0
 11 12  2  0
 11 21  1  0
 12 13  1  0
 13 14  2  0
 14 15  1  0
 16 15  1  1
 16 17  1  0
 17  8  1  0
 18 27  1  0
 18 16  1  0
 19 18  2  0
 20 14  1  0
 21 20  2  0
 23 22  1  6
 23 25  1  0
 24 23  1  0
 26 25  1  6
 26 27  1  0
 28 26  1  0
 28 30  1  0
 29 28  2  0
M  END
$$$$
