QYL.pdb
     RDKit          3D

 30 30  0  0  1  0  0  0  0  0999 V2000
   11.4375  -17.0160   16.6773 N   0  0  0  0  0  0  0  0  0  0  0  0
   11.1885  -18.3774   17.0006 C   0  0  0  0  0  0  0  0  0  0  0  0
   11.2311  -19.2070   16.0644 O   0  0  0  0  0  0  0  0  0  0  0  0
   10.8963  -18.7595   18.3712 C   0  0  0  0  0  0  0  0  0  0  0  0
   10.8469  -17.6984   19.3940 C   0  0  0  0  0  0  0  0  0  0  0  0
   10.5677  -18.1030   20.8087 C   0  0  2  0  0  0  0  0  0  0  0  0
    9.3357  -18.7642   21.0515 N   0  0  0  0  0  0  0  0  0  0  0  0
   10.6631  -16.8899   21.6636 C   0  0  0  0  0  0  0  0  0  0  0  0
   11.7876  -16.2550   21.6657 O   0  0  0  0  0  0  0  0  0  0  0  0
    7.0784  -13.4570   17.4919 O   0  0  0  0  0  0  0  0  0  0  0  0
    7.4041  -13.6916   18.8352 C   0  0  0  0  0  0  0  0  0  0  0  0
    6.8721  -14.7606   19.5205 C   0  0  0  0  0  0  0  0  0  0  0  0
    7.1925  -14.9937   20.8467 C   0  0  0  0  0  0  0  0  0  0  0  0
    8.0559  -14.1697   21.5410 C   0  0  0  0  0  0  0  0  0  0  0  0
    8.3909  -14.4235   22.9599 C   0  0  0  0  0  0  0  0  0  0  0  0
    9.7281  -15.1084   23.1317 C   0  0  2  0  0  0  0  0  0  0  0  0
    9.6160  -16.3987   22.4569 N   0  0  0  0  0  0  0  0  0  0  0  0
   10.1256  -15.3012   24.5266 C   0  0  0  0  0  0  0  0  0  0  0  0
   11.1162  -14.6916   25.0362 O   0  0  0  0  0  0  0  0  0  0  0  0
    8.5805  -13.1033   20.8403 C   0  0  0  0  0  0  0  0  0  0  0  0
    8.2693  -12.8598   19.5185 C   0  0  0  0  0  0  0  0  0  0  0  0
   10.1837  -13.4443   28.3866 C   0  0  0  0  0  0  0  0  0  0  0  0
    9.0304  -13.9072   27.5157 C   0  0  2  0  0  0  0  0  0  0  0  0
    7.8770  -12.9951   27.6515 C   0  0  0  0  0  0  0  0  0  0  0  0
    8.7899  -15.3626   27.5436 C   0  0  0  0  0  0  0  0  0  0  0  0
    9.6987  -16.2627   26.7969 C   0  0  2  0  0  0  0  0  0  0  0  0
    9.3889  -16.1939   25.3446 N   0  0  0  0  0  0  0  0  0  0  0  0
    9.7654  -17.6669   27.2224 C   0  0  0  0  0  0  0  0  0  0  0  0
   10.0456  -17.8986   28.4560 O   0  0  0  0  0  0  0  0  0  0  0  0
    9.5598  -18.7803   26.4594 O   0  0  0  0  0  0  0  0  0  0  0  0
  1  2  1  0
  2  3  2  0
  2  4  1  0
  4  5  1  0
  6  7  1  6
  6  5  1  0
  8  6  1  0
  9  8  2  0
 10 11  1  0
 11 12  2  0
 11 21  1  0
 12 13  1  0
 13 14  2  0
 14 15  1  0
 16 15  1  1
 16 17  1  0
 17  8  1  0
 18 27  1  0
 18 16  1  0
 19 18  2  0
 20 14  1  0
 21 20  2  0
 23 22  1  1
 23 25  1  0
 24 23  1  0
 26 25  1  1
 26 27  1  0
 28 26  1  0
 28 30  1  0
 29 28  2  0
M  END
$$$$
