QYL.pdb
     RDKit          3D

 30 30  0  0  1  0  0  0  0  0999 V2000
   12.8186  -20.0674   19.3783 N   0  0  0  0  0  0  0  0  0  0  0  0
   12.6064  -18.8524   18.6723 C   0  0  0  0  0  0  0  0  0  0  0  0
   13.0763  -18.7711   17.5151 O   0  0  0  0  0  0  0  0  0  0  0  0
   11.8722  -17.7654   19.2963 C   0  0  0  0  0  0  0  0  0  0  0  0
   11.3180  -17.9841   20.6450 C   0  0  0  0  0  0  0  0  0  0  0  0
   10.4933  -16.8891   21.2484 C   0  0  2  0  0  0  0  0  0  0  0  0
   10.9035  -15.5581   20.9763 N   0  0  0  0  0  0  0  0  0  0  0  0
   10.4403  -17.1071   22.7185 C   0  0  0  0  0  0  0  0  0  0  0  0
   10.1166  -18.2876   23.1298 O   0  0  0  0  0  0  0  0  0  0  0  0
   11.2516  -15.8378   31.4880 O   0  0  0  0  0  0  0  0  0  0  0  0
   11.3130  -15.7329   30.0913 C   0  0  0  0  0  0  0  0  0  0  0  0
   10.8538  -14.6097   29.4409 C   0  0  0  0  0  0  0  0  0  0  0  0
   10.9136  -14.5044   28.0621 C   0  0  0  0  0  0  0  0  0  0  0  0
   11.4336  -15.5152   27.2783 C   0  0  0  0  0  0  0  0  0  0  0  0
   11.4908  -15.3967   25.8044 C   0  0  0  0  0  0  0  0  0  0  0  0
   10.6082  -16.4038   25.1019 C   0  0  2  0  0  0  0  0  0  0  0  0
   10.7197  -16.1191   23.6739 N   0  0  0  0  0  0  0  0  0  0  0  0
    9.2058  -16.3612   25.5170 C   0  0  0  0  0  0  0  0  0  0  0  0
    8.7857  -16.9861   26.5396 O   0  0  0  0  0  0  0  0  0  0  0  0
   11.8895  -16.6337   27.9450 C   0  0  0  0  0  0  0  0  0  0  0  0
   11.8358  -16.7512   29.3185 C   0  0  0  0  0  0  0  0  0  0  0  0
    6.4353  -13.1207   27.0144 C   0  0  0  0  0  0  0  0  0  0  0  0
    6.6881  -13.1425   25.5183 C   0  0  2  0  0  0  0  0  0  0  0  0
    6.3955  -11.8237   24.9218 C   0  0  0  0  0  0  0  0  0  0  0  0
    6.1982  -14.3542   24.8337 C   0  0  0  0  0  0  0  0  0  0  0  0
    6.8368  -15.6590   25.1224 C   0  0  2  0  0  0  0  0  0  0  0  0
    8.2778  -15.6014   24.7618 N   0  0  0  0  0  0  0  0  0  0  0  0
    6.2274  -16.8590   24.5342 C   0  0  0  0  0  0  0  0  0  0  0  0
    5.0022  -17.1084   24.8352 O   0  0  0  0  0  0  0  0  0  0  0  0
    6.8076  -17.7598   23.6881 O   0  0  0  0  0  0  0  0  0  0  0  0
  1  2  1  0
  2  3  2  0
  2  4  1  0
  4  5  1  0
  6  7  1  1
  6  5  1  0
  8  6  1  0
  9  8  2  0
 10 11  1  0
 11 12  2  0
 11 21  1  0
 12 13  1  0
 13 14  2  0
 14 15  1  0
 16 15  1  1
 16 17  1  0
 17  8  1  0
 18 27  1  0
 18 16  1  0
 19 18  2  0
 20 14  1  0
 21 20  2  0
 23 22  1  1
 23 25  1  0
 24 23  1  0
 26 25  1  6
 26 27  1  0
 28 26  1  0
 28 30  1  0
 29 28  2  0
M  END
$$$$
