QYL.pdb
     RDKit          3D

 30 30  0  0  1  0  0  0  0  0999 V2000
   11.3559  -19.7896   16.7389 N   0  0  0  0  0  0  0  0  0  0  0  0
   10.1909  -19.1522   17.2451 C   0  0  0  0  0  0  0  0  0  0  0  0
    9.4650  -18.5467   16.4246 O   0  0  0  0  0  0  0  0  0  0  0  0
    9.8830  -19.2159   18.6633 C   0  0  0  0  0  0  0  0  0  0  0  0
   10.2139  -18.0480   19.5003 C   0  0  0  0  0  0  0  0  0  0  0  0
    9.8169  -18.0871   20.9439 C   0  0  2  0  0  0  0  0  0  0  0  0
    8.5406  -18.6325   21.2398 N   0  0  0  0  0  0  0  0  0  0  0  0
    9.9101  -16.7056   21.4863 C   0  0  0  0  0  0  0  0  0  0  0  0
   11.0049  -16.0568   21.2669 O   0  0  0  0  0  0  0  0  0  0  0  0
    7.7157  -13.6156   16.3586 O   0  0  0  0  0  0  0  0  0  0  0  0
    7.7220  -13.7105   17.7573 C   0  0  0  0  0  0  0  0  0  0  0  0
    8.3368  -12.7537   18.5330 C   0  0  0  0  0  0  0  0  0  0  0  0
    8.3440  -12.8458   19.9141 C   0  0  0  0  0  0  0  0  0  0  0  0
    7.7384  -13.8959   20.5752 C   0  0  0  0  0  0  0  0  0  0  0  0
    7.7534  -13.9894   22.0519 C   0  0  0  0  0  0  0  0  0  0  0  0
    8.9987  -14.6633   22.5827 C   0  0  2  0  0  0  0  0  0  0  0  0
    8.8909  -16.0716   22.2119 N   0  0  0  0  0  0  0  0  0  0  0  0
    9.1772  -14.5345   24.0293 C   0  0  0  0  0  0  0  0  0  0  0  0
    9.4574  -13.4242   24.5782 O   0  0  0  0  0  0  0  0  0  0  0  0
    7.1267  -14.8462   19.7837 C   0  0  0  0  0  0  0  0  0  0  0  0
    7.1123  -14.7661   18.4065 C   0  0  0  0  0  0  0  0  0  0  0  0
    8.6778  -12.6643   27.3506 C   0  0  0  0  0  0  0  0  0  0  0  0
    7.5876  -13.2098   26.4470 C   0  0  2  0  0  0  0  0  0  0  0  0
    6.3509  -12.4146   26.5852 C   0  0  0  0  0  0  0  0  0  0  0  0
    7.4857  -14.6816   26.4327 C   0  0  0  0  0  0  0  0  0  0  0  0
    8.7171  -15.4929   26.2943 C   0  0  2  0  0  0  0  0  0  0  0  0
    9.0349  -15.6782   24.8540 N   0  0  0  0  0  0  0  0  0  0  0  0
    8.7566  -16.7909   26.9805 C   0  0  0  0  0  0  0  0  0  0  0  0
    8.4188  -17.8296   26.3014 O   0  0  0  0  0  0  0  0  0  0  0  0
    9.1175  -17.0403   28.2733 O   0  0  0  0  0  0  0  0  0  0  0  0
  1  2  1  0
  2  3  2  0
  2  4  1  0
  4  5  1  0
  6  7  1  6
  6  5  1  0
  8  6  1  0
  9  8  2  0
 10 11  1  0
 11 12  2  0
 11 21  1  0
 12 13  1  0
 13 14  2  0
 14 15  1  0
 16 15  1  1
 16 17  1  0
 17  8  1  0
 18 27  1  0
 18 16  1  0
 19 18  2  0
 20 14  1  0
 21 20  2  0
 23 22  1  1
 23 25  1  0
 24 23  1  0
 26 25  1  6
 26 27  1  0
 28 26  1  0
 28 30  1  0
 29 28  2  0
M  END
$$$$
