PSC.pdb
     RDKit          3D

 20 20  0  0  1  0  0  0  0  0999 V2000
   -3.5447  -21.2923   23.3096 N   0  0  0  0  0  0  0  0  0  0  0  0
   -3.7511  -20.9531   21.9198 C   0  0  0  0  0  0  0  0  0  0  0  0
   -3.8270  -19.4345   21.9305 C   0  0  0  0  0  0  0  0  0  0  0  0
   -4.4630  -19.1110   23.2434 C   0  0  0  0  0  0  0  0  0  0  0  0
   -4.2160  -20.3236   24.1001 C   0  0  1  0  0  0  0  0  0  0  0  0
   -5.4483  -20.7640   24.7627 C   0  0  0  0  0  0  0  0  0  0  0  0
   -6.0554  -19.9214   25.4737 O   0  0  0  0  0  0  0  0  0  0  0  0
   -8.4937  -22.8807   23.3800 O   0  0  0  0  0  0  0  0  0  0  0  0
   -8.0406  -23.4422   24.5899 C   0  0  0  0  0  0  0  0  0  0  0  0
   -7.2618  -22.3535   25.2939 C   0  0  2  0  0  0  0  0  0  0  0  0
   -6.0142  -22.0587   24.6705 N   0  0  0  0  0  0  0  0  0  0  0  0
   -7.0762  -22.8115   26.7005 C   0  0  0  0  0  0  0  0  0  0  0  0
   -6.1616  -23.6335   26.9679 O   0  0  0  0  0  0  0  0  0  0  0  0
   -7.8872  -22.3651   27.7754 N   0  0  0  0  0  0  0  0  0  0  0  0
   -7.6566  -22.7506   29.1497 C   0  0  1  0  0  0  0  0  0  0  0  0
   -6.8973  -21.6187   29.8072 C   0  0  0  0  0  0  0  0  0  0  0  0
   -5.1639  -21.5931   29.3425 S   0  0  0  0  0  0  0  0  0  0  0  0
   -8.9634  -22.9857   29.7943 C   0  0  0  0  0  0  0  0  0  0  0  0
  -10.0283  -22.8549   29.1462 O   0  0  0  0  0  0  0  0  0  0  0  0
   -9.0790  -23.3591   31.1351 O   0  0  0  0  0  0  0  0  0  0  0  0
  2  1  1  0
  3  2  1  0
  4  3  1  0
  4  5  1  0
  5  6  1  6
  5  1  1  0
  6 11  1  0
  7  6  2  0
  9  8  1  0
 10  9  1  6
 10 12  1  0
 11 10  1  0
 12 14  1  0
 12 13  2  0
 14 15  1  0
 15 18  1  0
 15 16  1  1
 17 16  1  0
 18 20  1  0
 19 18  2  0
M  END
$$$$
