PSC.pdb
     RDKit          3D

 20 20  0  0  1  0  0  0  0  0999 V2000
    8.2903  -14.9426   18.9264 N   0  0  0  0  0  0  0  0  0  0  0  0
    7.1471  -14.2993   18.3193 C   0  0  0  0  0  0  0  0  0  0  0  0
    7.3281  -12.8337   18.6816 C   0  0  0  0  0  0  0  0  0  0  0  0
    7.9800  -12.8687   20.0258 C   0  0  0  0  0  0  0  0  0  0  0  0
    8.6140  -14.2311   20.1108 C   0  0  1  0  0  0  0  0  0  0  0  0
    8.2833  -14.8912   21.3783 C   0  0  0  0  0  0  0  0  0  0  0  0
    7.0647  -15.0737   21.6344 O   0  0  0  0  0  0  0  0  0  0  0  0
    8.8636  -17.7059   25.0686 O   0  0  0  0  0  0  0  0  0  0  0  0
    9.5036  -17.1980   23.9210 C   0  0  0  0  0  0  0  0  0  0  0  0
    8.7819  -15.9165   23.5686 C   0  0  2  0  0  0  0  0  0  0  0  0
    9.2200  -15.3416   22.3400 N   0  0  0  0  0  0  0  0  0  0  0  0
    8.9930  -14.9862   24.7143 C   0  0  0  0  0  0  0  0  0  0  0  0
   10.0825  -14.3642   24.8135 O   0  0  0  0  0  0  0  0  0  0  0  0
    8.0172  -14.7575   25.7183 N   0  0  0  0  0  0  0  0  0  0  0  0
    8.2075  -13.8216   26.8038 C   0  0  1  0  0  0  0  0  0  0  0  0
    6.8644  -13.1801   27.0778 C   0  0  0  0  0  0  0  0  0  0  0  0
    6.2198  -12.3000   25.6526 S   0  0  0  0  0  0  0  0  0  0  0  0
    8.7141  -14.5622   27.9756 C   0  0  0  0  0  0  0  0  0  0  0  0
    8.7997  -15.8126   27.9531 O   0  0  0  0  0  0  0  0  0  0  0  0
    9.1171  -13.9202   29.1486 O   0  0  0  0  0  0  0  0  0  0  0  0
  2  1  1  0
  3  2  1  0
  4  3  1  0
  4  5  1  0
  5  6  1  1
  5  1  1  0
  6 11  1  0
  7  6  2  0
  9  8  1  0
 10  9  1  1
 10 12  1  0
 11 10  1  0
 12 14  1  0
 12 13  2  0
 14 15  1  0
 15 18  1  0
 15 16  1  1
 17 16  1  0
 18 20  1  0
 19 18  2  0
M  END
$$$$
