PSC.pdb
     RDKit          3D

 20 20  0  0  1  0  0  0  0  0999 V2000
    8.3683  -13.9366   17.7206 N   0  0  0  0  0  0  0  0  0  0  0  0
    7.1409  -13.7671   18.4649 C   0  0  0  0  0  0  0  0  0  0  0  0
    7.4029  -12.5293   19.3082 C   0  0  0  0  0  0  0  0  0  0  0  0
    8.8655  -12.5954   19.6073 C   0  0  0  0  0  0  0  0  0  0  0  0
    9.4385  -13.4804   18.5332 C   0  0  1  0  0  0  0  0  0  0  0  0
   10.3080  -14.5136   19.1059 C   0  0  0  0  0  0  0  0  0  0  0  0
    9.7511  -15.4787   19.6911 O   0  0  0  0  0  0  0  0  0  0  0  0
   14.4368  -14.4508   19.1017 O   0  0  0  0  0  0  0  0  0  0  0  0
   13.8563  -15.7324   19.0306 C   0  0  0  0  0  0  0  0  0  0  0  0
   12.4673  -15.5985   19.6136 C   0  0  2  0  0  0  0  0  0  0  0  0
   11.7231  -14.5179   19.0564 N   0  0  0  0  0  0  0  0  0  0  0  0
   12.6423  -15.4409   21.0858 C   0  0  0  0  0  0  0  0  0  0  0  0
   12.9315  -14.3103   21.5569 O   0  0  0  0  0  0  0  0  0  0  0  0
   12.4989  -16.5131   22.0036 N   0  0  0  0  0  0  0  0  0  0  0  0
   12.7645  -16.3802   23.4185 C   0  0  1  0  0  0  0  0  0  0  0  0
   11.6268  -17.0594   24.1498 C   0  0  0  0  0  0  0  0  0  0  0  0
   10.0326  -16.3261   23.7725 S   0  0  0  0  0  0  0  0  0  0  0  0
   14.0647  -17.0144   23.7112 C   0  0  0  0  0  0  0  0  0  0  0  0
   14.7055  -17.6038   22.8094 O   0  0  0  0  0  0  0  0  0  0  0  0
   14.6378  -16.9912   24.9846 O   0  0  0  0  0  0  0  0  0  0  0  0
  2  1  1  0
  3  2  1  0
  4  3  1  0
  4  5  1  0
  5  6  1  1
  5  1  1  0
  6 11  1  0
  7  6  2  0
  9  8  1  0
 10  9  1  6
 10 12  1  0
 11 10  1  0
 12 14  1  0
 12 13  2  0
 14 15  1  0
 15 18  1  0
 15 16  1  1
 17 16  1  0
 18 20  1  0
 19 18  2  0
M  END
$$$$
