PSC.pdb
     RDKit          3D

 20 20  0  0  1  0  0  0  0  0999 V2000
    8.6012  -15.1949   19.6729 N   0  0  0  0  0  0  0  0  0  0  0  0
    7.4705  -14.9608   18.8034 C   0  0  0  0  0  0  0  0  0  0  0  0
    7.5366  -13.4672   18.5262 C   0  0  0  0  0  0  0  0  0  0  0  0
    8.0869  -12.8867   19.7884 C   0  0  0  0  0  0  0  0  0  0  0  0
    8.7925  -14.0320   20.4634 C   0  0  1  0  0  0  0  0  0  0  0  0
    8.4076  -14.1334   21.8752 C   0  0  0  0  0  0  0  0  0  0  0  0
    8.5017  -13.0924   22.5763 O   0  0  0  0  0  0  0  0  0  0  0  0
    7.2417  -17.5910   23.8533 O   0  0  0  0  0  0  0  0  0  0  0  0
    6.6068  -16.4023   24.2638 C   0  0  0  0  0  0  0  0  0  0  0  0
    7.5405  -15.2741   23.8862 C   0  0  2  0  0  0  0  0  0  0  0  0
    7.9382  -15.3047   22.5177 N   0  0  0  0  0  0  0  0  0  0  0  0
    8.7143  -15.3759   24.7998 C   0  0  0  0  0  0  0  0  0  0  0  0
    9.8232  -15.7564   24.3422 O   0  0  0  0  0  0  0  0  0  0  0  0
    8.6515  -15.0626   26.1819 N   0  0  0  0  0  0  0  0  0  0  0  0
    9.7966  -15.1422   27.0610 C   0  0  1  0  0  0  0  0  0  0  0  0
    9.5639  -14.1550   28.1843 C   0  0  0  0  0  0  0  0  0  0  0  0
   10.9340  -14.0964   29.3422 S   0  0  0  0  0  0  0  0  0  0  0  0
    9.9080  -16.5272   27.5585 C   0  0  0  0  0  0  0  0  0  0  0  0
    8.8844  -17.2326   27.7194 O   0  0  0  0  0  0  0  0  0  0  0  0
   11.1371  -17.1130   27.8699 O   0  0  0  0  0  0  0  0  0  0  0  0
  2  1  1  0
  3  2  1  0
  4  3  1  0
  4  5  1  0
  5  6  1  1
  5  1  1  0
  6 11  1  0
  7  6  2  0
  9  8  1  0
 10  9  1  6
 10 12  1  0
 11 10  1  0
 12 14  1  0
 12 13  2  0
 14 15  1  0
 15 18  1  0
 15 16  1  1
 17 16  1  0
 18 20  1  0
 19 18  2  0
M  END
$$$$
