PSC.pdb
     RDKit          3D

 20 20  0  0  1  0  0  0  0  0999 V2000
    9.3134  -14.4995   19.2826 N   0  0  0  0  0  0  0  0  0  0  0  0
    8.3107  -14.8519   18.3030 C   0  0  0  0  0  0  0  0  0  0  0  0
    7.4079  -13.6291   18.2604 C   0  0  0  0  0  0  0  0  0  0  0  0
    7.4363  -13.1067   19.6602 C   0  0  0  0  0  0  0  0  0  0  0  0
    8.7008  -13.6663   20.2545 C   0  0  1  0  0  0  0  0  0  0  0  0
    8.4468  -14.2728   21.5656 C   0  0  0  0  0  0  0  0  0  0  0  0
    7.6462  -13.6774   22.3328 O   0  0  0  0  0  0  0  0  0  0  0  0
   10.4674  -17.4880   23.2460 O   0  0  0  0  0  0  0  0  0  0  0  0
    9.0859  -17.4357   23.5165 C   0  0  0  0  0  0  0  0  0  0  0  0
    8.6728  -15.9939   23.3218 C   0  0  2  0  0  0  0  0  0  0  0  0
    9.0265  -15.4734   22.0427 N   0  0  0  0  0  0  0  0  0  0  0  0
    9.3133  -15.2203   24.4237 C   0  0  0  0  0  0  0  0  0  0  0  0
   10.3965  -14.6172   24.2078 O   0  0  0  0  0  0  0  0  0  0  0  0
    8.7608  -15.1233   25.7267 N   0  0  0  0  0  0  0  0  0  0  0  0
    9.3897  -14.3811   26.7962 C   0  0  1  0  0  0  0  0  0  0  0  0
    8.3624  -13.4015   27.3211 C   0  0  0  0  0  0  0  0  0  0  0  0
    7.8553  -12.2073   26.0809 S   0  0  0  0  0  0  0  0  0  0  0  0
    9.8228  -15.3356   27.8353 C   0  0  0  0  0  0  0  0  0  0  0  0
    9.5668  -16.5578   27.7267 O   0  0  0  0  0  0  0  0  0  0  0  0
   10.5274  -14.9339   28.9723 O   0  0  0  0  0  0  0  0  0  0  0  0
  2  1  1  0
  3  2  1  0
  4  3  1  0
  4  5  1  0
  5  6  1  1
  5  1  1  0
  6 11  1  0
  7  6  2  0
  9  8  1  0
 10  9  1  6
 10 12  1  0
 11 10  1  0
 12 14  1  0
 12 13  2  0
 14 15  1  0
 15 18  1  0
 15 16  1  1
 17 16  1  0
 18 20  1  0
 19 18  2  0
M  END
$$$$
