PSC.pdb
     RDKit          3D

 20 20  0  0  1  0  0  0  0  0999 V2000
    9.1064  -14.7644   19.2791 N   0  0  0  0  0  0  0  0  0  0  0  0
    7.9555  -14.6642   18.4104 C   0  0  0  0  0  0  0  0  0  0  0  0
    7.5837  -13.1914   18.4790 C   0  0  0  0  0  0  0  0  0  0  0  0
    7.9428  -12.7898   19.8728 C   0  0  0  0  0  0  0  0  0  0  0  0
    8.9520  -13.8127   20.3204 C   0  0  1  0  0  0  0  0  0  0  0  0
    8.6149  -14.3453   21.6449 C   0  0  0  0  0  0  0  0  0  0  0  0
    8.3451  -13.5142   22.5508 O   0  0  0  0  0  0  0  0  0  0  0  0
    7.5884  -18.0990   22.3628 O   0  0  0  0  0  0  0  0  0  0  0  0
    8.2465  -17.6183   23.5118 C   0  0  0  0  0  0  0  0  0  0  0  0
    8.3489  -16.1189   23.3422 C   0  0  2  0  0  0  0  0  0  0  0  0
    8.5668  -15.7172   21.9920 N   0  0  0  0  0  0  0  0  0  0  0  0
    9.4571  -15.6697   24.2326 C   0  0  0  0  0  0  0  0  0  0  0  0
   10.2248  -14.7493   23.8486 O   0  0  0  0  0  0  0  0  0  0  0  0
    9.7005  -16.2311   25.5124 N   0  0  0  0  0  0  0  0  0  0  0  0
   10.1438  -15.4491   26.6448 C   0  0  1  0  0  0  0  0  0  0  0  0
    9.0307  -14.4793   26.9780 C   0  0  0  0  0  0  0  0  0  0  0  0
    9.4015  -13.4771   28.4201 S   0  0  0  0  0  0  0  0  0  0  0  0
   10.4280  -16.3679   27.7643 C   0  0  0  0  0  0  0  0  0  0  0  0
   11.3616  -16.1288   28.5659 O   0  0  0  0  0  0  0  0  0  0  0  0
    9.6852  -17.5300   27.9847 O   0  0  0  0  0  0  0  0  0  0  0  0
  2  1  1  0
  3  2  1  0
  4  3  1  0
  4  5  1  0
  5  6  1  1
  5  1  1  0
  6 11  1  0
  7  6  2  0
  9  8  1  0
 10  9  1  6
 10 12  1  0
 11 10  1  0
 12 14  1  0
 12 13  2  0
 14 15  1  0
 15 18  1  0
 15 16  1  1
 17 16  1  0
 18 20  1  0
 19 18  2  0
M  END
$$$$
