PSC.pdb
     RDKit          3D

 20 20  0  0  1  0  0  0  0  0999 V2000
    9.5543  -14.3603   19.4400 N   0  0  0  0  0  0  0  0  0  0  0  0
    8.5580  -14.6007   18.4207 C   0  0  0  0  0  0  0  0  0  0  0  0
    7.6614  -13.3754   18.5020 C   0  0  0  0  0  0  0  0  0  0  0  0
    7.6807  -13.0054   19.9496 C   0  0  0  0  0  0  0  0  0  0  0  0
    8.9377  -13.6321   20.4905 C   0  0  1  0  0  0  0  0  0  0  0  0
    8.6702  -14.3736   21.7274 C   0  0  0  0  0  0  0  0  0  0  0  0
    8.0189  -13.7816   22.6271 O   0  0  0  0  0  0  0  0  0  0  0  0
   10.4589  -17.9448   23.0158 O   0  0  0  0  0  0  0  0  0  0  0  0
    9.0835  -17.7936   23.2801 C   0  0  0  0  0  0  0  0  0  0  0  0
    8.8115  -16.3061   23.2581 C   0  0  2  0  0  0  0  0  0  0  0  0
    9.0829  -15.7012   21.9962 N   0  0  0  0  0  0  0  0  0  0  0  0
    9.6448  -15.7101   24.3413 C   0  0  0  0  0  0  0  0  0  0  0  0
   10.6302  -14.9886   24.0377 O   0  0  0  0  0  0  0  0  0  0  0  0
    9.3854  -15.9137   25.7210 N   0  0  0  0  0  0  0  0  0  0  0  0
   10.2001  -15.3407   26.7691 C   0  0  1  0  0  0  0  0  0  0  0  0
    9.4246  -14.1775   27.3489 C   0  0  0  0  0  0  0  0  0  0  0  0
   10.3282  -13.3279   28.6462 S   0  0  0  0  0  0  0  0  0  0  0  0
   10.4648  -16.3846   27.7783 C   0  0  0  0  0  0  0  0  0  0  0  0
    9.6308  -17.2965   27.9882 O   0  0  0  0  0  0  0  0  0  0  0  0
   11.6367  -16.4100   28.5378 O   0  0  0  0  0  0  0  0  0  0  0  0
  2  1  1  0
  3  2  1  0
  4  3  1  0
  4  5  1  0
  5  6  1  1
  5  1  1  0
  6 11  1  0
  7  6  2  0
  9  8  1  0
 10  9  1  6
 10 12  1  0
 11 10  1  0
 12 14  1  0
 12 13  2  0
 14 15  1  0
 15 18  1  0
 15 16  1  1
 17 16  1  0
 18 20  1  0
 19 18  2  0
M  END
$$$$
