SVG.pdb
     RDKit          3D

 18 17  0  0  1  0  0  0  0  0999 V2000
   18.1093   -8.2832  -19.4619 O   0  0  0  0  0  0  0  0  0  0  0  0
   18.4854   -8.2113  -18.1406 C   0  0  0  0  0  0  0  0  0  0  0  0
   18.9314   -9.5980  -17.6787 C   0  0  2  0  0  0  0  0  0  0  0  0
   17.7256  -10.4237  -17.6362 N   0  0  0  0  0  0  0  0  0  0  0  0
   19.5209   -9.5549  -16.3351 C   0  0  0  0  0  0  0  0  0  0  0  0
   18.7973   -9.6209  -15.3015 O   0  0  0  0  0  0  0  0  0  0  0  0
   22.2834  -11.7115  -14.8316 C   0  0  0  0  0  0  0  0  0  0  0  0
   22.6613  -10.2661  -14.6661 C   0  0  2  0  0  0  0  0  0  0  0  0
   23.4461  -10.0367  -13.3972 C   0  0  0  0  0  0  0  0  0  0  0  0
   21.4530   -9.3667  -14.7665 C   0  0  2  0  0  0  0  0  0  0  0  0
   20.9199   -9.4381  -16.1113 N   0  0  0  0  0  0  0  0  0  0  0  0
   21.7424   -7.9802  -14.3535 C   0  0  0  0  0  0  0  0  0  0  0  0
   21.9222   -7.7372  -13.1444 O   0  0  0  0  0  0  0  0  0  0  0  0
   21.8300   -6.8898  -15.2610 N   0  0  0  0  0  0  0  0  0  0  0  0
   22.1032   -5.5417  -14.8852 C   0  0  0  0  0  0  0  0  0  0  0  0
   20.9135   -4.7714  -14.5087 C   0  0  0  0  0  0  0  0  0  0  0  0
   19.6430   -5.3150  -14.4331 O   0  0  0  0  0  0  0  0  0  0  0  0
   21.0432   -3.5514  -14.2381 O   0  0  0  0  0  0  0  0  0  0  0  0
  1  2  1  0
  3  2  1  0
  3  4  1  1
  5 11  1  0
  5  3  1  0
  6  5  2  0
  8  7  1  1
  9  8  1  0
 10 11  1  6
 10  8  1  0
 12 13  2  0
 12 10  1  0
 14 12  1  0
 15 14  1  0
 15 16  1  0
 16 17  1  0
 18 16  2  0
M  END
$$$$
