SVG.pdb
     RDKit          3D

 18 17  0  0  1  0  0  0  0  0999 V2000
   26.6143  -10.4790  -22.9413 O   0  0  0  0  0  0  0  0  0  0  0  0
   25.7445  -10.2889  -21.8925 C   0  0  0  0  0  0  0  0  0  0  0  0
   26.1385  -11.2238  -20.7495 C   0  0  2  0  0  0  0  0  0  0  0  0
   25.6867  -12.5590  -21.1375 N   0  0  0  0  0  0  0  0  0  0  0  0
   25.4772  -10.8485  -19.4940 C   0  0  0  0  0  0  0  0  0  0  0  0
   24.2476  -11.0738  -19.3101 O   0  0  0  0  0  0  0  0  0  0  0  0
   25.6162  -10.4028  -14.7142 C   0  0  0  0  0  0  0  0  0  0  0  0
   26.2685  -10.6319  -16.0490 C   0  0  2  0  0  0  0  0  0  0  0  0
   27.7232  -10.2289  -16.0350 C   0  0  0  0  0  0  0  0  0  0  0  0
   25.4963   -9.9632  -17.1605 C   0  0  2  0  0  0  0  0  0  0  0  0
   26.1636  -10.2180  -18.4205 N   0  0  0  0  0  0  0  0  0  0  0  0
   25.2891   -8.5224  -16.9198 C   0  0  0  0  0  0  0  0  0  0  0  0
   26.2099   -7.7279  -17.1921 O   0  0  0  0  0  0  0  0  0  0  0  0
   24.0884   -7.9770  -16.3897 N   0  0  0  0  0  0  0  0  0  0  0  0
   23.8813   -6.5950  -16.1061 C   0  0  0  0  0  0  0  0  0  0  0  0
   22.5431   -6.2819  -15.5948 C   0  0  0  0  0  0  0  0  0  0  0  0
   22.1883   -5.0436  -15.0887 O   0  0  0  0  0  0  0  0  0  0  0  0
   21.6634   -7.1787  -15.6125 O   0  0  0  0  0  0  0  0  0  0  0  0
  1  2  1  0
  3  2  1  0
  3  4  1  6
  5 11  1  0
  5  3  1  0
  6  5  2  0
  8  7  1  1
  9  8  1  0
 10 11  1  6
 10  8  1  0
 12 13  2  0
 12 10  1  0
 14 12  1  0
 15 14  1  0
 15 16  1  0
 16 17  1  0
 18 16  2  0
M  END
$$$$
