SVG.pdb
     RDKit          3D

 18 17  0  0  1  0  0  0  0  0999 V2000
   18.2080  -13.2356  -15.2311 O   0  0  0  0  0  0  0  0  0  0  0  0
   19.2231  -12.3436  -15.4887 C   0  0  0  0  0  0  0  0  0  0  0  0
   18.8771  -11.5538  -16.7504 C   0  0  2  0  0  0  0  0  0  0  0  0
   19.2465  -12.4042  -17.8808 N   0  0  0  0  0  0  0  0  0  0  0  0
   19.6427  -10.3039  -16.8307 C   0  0  0  0  0  0  0  0  0  0  0  0
   20.7204  -10.2386  -17.4869 O   0  0  0  0  0  0  0  0  0  0  0  0
   17.8602   -6.6068  -16.1292 C   0  0  0  0  0  0  0  0  0  0  0  0
   19.0976   -6.8248  -16.9543 C   0  0  2  0  0  0  0  0  0  0  0  0
   18.7615   -7.1190  -18.3963 C   0  0  0  0  0  0  0  0  0  0  0  0
   19.9871   -7.8805  -16.3434 C   0  0  2  0  0  0  0  0  0  0  0  0
   19.2299   -9.1053  -16.1873 N   0  0  0  0  0  0  0  0  0  0  0  0
   20.6030   -7.4396  -15.0773 C   0  0  0  0  0  0  0  0  0  0  0  0
   19.9276   -7.4863  -14.0309 O   0  0  0  0  0  0  0  0  0  0  0  0
   21.9365   -6.9584  -14.9755 N   0  0  0  0  0  0  0  0  0  0  0  0
   22.5244   -6.4443  -13.7825 C   0  0  0  0  0  0  0  0  0  0  0  0
   22.1425   -5.0627  -13.4731 C   0  0  0  0  0  0  0  0  0  0  0  0
   22.5835   -4.3802  -12.3528 O   0  0  0  0  0  0  0  0  0  0  0  0
   21.3739   -4.4564  -14.2606 O   0  0  0  0  0  0  0  0  0  0  0  0
  1  2  1  0
  3  2  1  0
  3  4  1  6
  5 11  1  0
  5  3  1  0
  6  5  2  0
  8  7  1  1
  9  8  1  0
 10 11  1  1
 10  8  1  0
 12 13  2  0
 12 10  1  0
 14 12  1  0
 15 14  1  0
 15 16  1  0
 16 17  1  0
 18 16  2  0
M  END
$$$$
