SVG.pdb
     RDKit          3D

 18 17  0  0  1  0  0  0  0  0999 V2000
   23.1514   -8.2389  -21.0856 O   0  0  0  0  0  0  0  0  0  0  0  0
   22.3727   -8.0028  -19.9763 C   0  0  0  0  0  0  0  0  0  0  0  0
   22.3879   -9.2470  -19.0892 C   0  0  2  0  0  0  0  0  0  0  0  0
   21.5889  -10.2555  -19.7834 N   0  0  0  0  0  0  0  0  0  0  0  0
   21.7795   -8.9828  -17.7798 C   0  0  0  0  0  0  0  0  0  0  0  0
   20.5258   -9.0057  -17.6249 O   0  0  0  0  0  0  0  0  0  0  0  0
   23.6166   -9.6982  -14.1276 C   0  0  0  0  0  0  0  0  0  0  0  0
   22.1481   -9.5152  -14.3911 C   0  0  2  0  0  0  0  0  0  0  0  0
   21.4957  -10.8036  -14.8307 C   0  0  0  0  0  0  0  0  0  0  0  0
   21.8998   -8.3842  -15.3598 C   0  0  2  0  0  0  0  0  0  0  0  0
   22.5465   -8.6890  -16.6194 N   0  0  0  0  0  0  0  0  0  0  0  0
   22.3152   -7.0750  -14.8212 C   0  0  0  0  0  0  0  0  0  0  0  0
   23.5140   -6.8962  -14.5312 O   0  0  0  0  0  0  0  0  0  0  0  0
   21.4212   -5.9905  -14.6098 N   0  0  0  0  0  0  0  0  0  0  0  0
   21.7729   -4.7601  -13.9807 C   0  0  0  0  0  0  0  0  0  0  0  0
   20.6790   -3.7858  -13.9158 C   0  0  0  0  0  0  0  0  0  0  0  0
   20.7772   -2.5681  -13.2655 O   0  0  0  0  0  0  0  0  0  0  0  0
   19.5893   -4.0610  -14.4774 O   0  0  0  0  0  0  0  0  0  0  0  0
  1  2  1  0
  3  2  1  0
  3  4  1  6
  5 11  1  0
  5  3  1  0
  6  5  2  0
  8  7  1  6
  9  8  1  0
 10 11  1  6
 10  8  1  0
 12 13  2  0
 12 10  1  0
 14 12  1  0
 15 14  1  0
 15 16  1  0
 16 17  1  0
 18 16  2  0
M  END
$$$$
