SVG.pdb
     RDKit          3D

 18 17  0  0  1  0  0  0  0  0999 V2000
   17.2300  -10.9779  -18.8938 O   0  0  0  0  0  0  0  0  0  0  0  0
   17.5174  -10.5274  -17.6261 C   0  0  0  0  0  0  0  0  0  0  0  0
   18.6950  -11.3292  -17.0730 C   0  0  2  0  0  0  0  0  0  0  0  0
   18.1432  -12.6006  -16.6079 N   0  0  0  0  0  0  0  0  0  0  0  0
   19.3266  -10.6458  -15.9378 C   0  0  0  0  0  0  0  0  0  0  0  0
   18.8325  -10.7136  -14.7770 O   0  0  0  0  0  0  0  0  0  0  0  0
   23.3881   -9.3056  -15.9006 C   0  0  0  0  0  0  0  0  0  0  0  0
   22.5214   -9.7135  -14.7421 C   0  0  2  0  0  0  0  0  0  0  0  0
   22.5894  -11.2005  -14.4913 C   0  0  0  0  0  0  0  0  0  0  0  0
   21.1043   -9.2229  -14.9160 C   0  0  2  0  0  0  0  0  0  0  0  0
   20.5149   -9.8761  -16.0665 N   0  0  0  0  0  0  0  0  0  0  0  0
   21.0202   -7.7526  -15.0047 C   0  0  0  0  0  0  0  0  0  0  0  0
   21.2693   -7.1999  -16.0935 O   0  0  0  0  0  0  0  0  0  0  0  0
   20.6680   -6.9163  -13.9107 N   0  0  0  0  0  0  0  0  0  0  0  0
   20.5400   -5.4979  -13.9825 C   0  0  0  0  0  0  0  0  0  0  0  0
   21.8110   -4.7749  -13.8722 C   0  0  0  0  0  0  0  0  0  0  0  0
   21.9200   -3.3995  -13.9798 O   0  0  0  0  0  0  0  0  0  0  0  0
   22.8640   -5.4295  -13.6691 O   0  0  0  0  0  0  0  0  0  0  0  0
  1  2  1  0
  3  2  1  0
  3  4  1  1
  5 11  1  0
  5  3  1  0
  6  5  2  0
  8  7  1  6
  9  8  1  0
 10 11  1  6
 10  8  1  0
 12 13  2  0
 12 10  1  0
 14 12  1  0
 15 14  1  0
 15 16  1  0
 16 17  1  0
 18 16  2  0
M  END
$$$$
