SVG.pdb
     RDKit          3D

 18 17  0  0  1  0  0  0  0  0999 V2000
   15.5275   -4.3222   -8.8516 O   0  0  0  0  0  0  0  0  0  0  0  0
   16.5536   -5.1827   -9.1665 C   0  0  0  0  0  0  0  0  0  0  0  0
   15.9594   -6.5303   -9.5743 C   0  0  2  0  0  0  0  0  0  0  0  0
   15.4807   -7.1570   -8.3432 N   0  0  0  0  0  0  0  0  0  0  0  0
   16.9699   -7.4022  -10.1852 C   0  0  0  0  0  0  0  0  0  0  0  0
   17.7999   -8.0378   -9.4756 O   0  0  0  0  0  0  0  0  0  0  0  0
   16.6716   -8.8383  -14.0855 C   0  0  0  0  0  0  0  0  0  0  0  0
   17.5962   -9.4274  -13.0571 C   0  0  2  0  0  0  0  0  0  0  0  0
   16.9328  -10.5412  -12.2837 C   0  0  0  0  0  0  0  0  0  0  0  0
   18.1667   -8.3601  -12.1547 C   0  0  2  0  0  0  0  0  0  0  0  0
   17.0800   -7.5865  -11.5905 N   0  0  0  0  0  0  0  0  0  0  0  0
   19.1603   -7.5108  -12.8390 C   0  0  0  0  0  0  0  0  0  0  0  0
   18.7607   -6.6355  -13.6311 O   0  0  0  0  0  0  0  0  0  0  0  0
   20.5637   -7.6304  -12.6484 N   0  0  0  0  0  0  0  0  0  0  0  0
   21.5392   -6.7822  -13.2501 C   0  0  0  0  0  0  0  0  0  0  0  0
   21.2987   -5.3506  -13.0427 C   0  0  0  0  0  0  0  0  0  0  0  0
   21.7695   -4.6469  -11.9480 O   0  0  0  0  0  0  0  0  0  0  0  0
   20.6302   -4.7190  -13.8988 O   0  0  0  0  0  0  0  0  0  0  0  0
  1  2  1  0
  3  2  1  0
  3  4  1  1
  5 11  1  0
  5  3  1  0
  6  5  2  0
  8  7  1  6
  9  8  1  0
 10 11  1  6
 10  8  1  0
 12 13  2  0
 12 10  1  0
 14 12  1  0
 15 14  1  0
 15 16  1  0
 16 17  1  0
 18 16  2  0
M  END
$$$$
