SVG.pdb
     RDKit          3D

 18 17  0  0  1  0  0  0  0  0999 V2000
   16.7575   -9.8626  -18.5182 O   0  0  0  0  0  0  0  0  0  0  0  0
   17.3340   -9.3847  -17.3642 C   0  0  0  0  0  0  0  0  0  0  0  0
   18.4120  -10.3672  -16.9081 C   0  0  2  0  0  0  0  0  0  0  0  0
   17.7067  -11.5329  -16.3778 N   0  0  0  0  0  0  0  0  0  0  0  0
   19.2461   -9.7963  -15.8437 C   0  0  0  0  0  0  0  0  0  0  0  0
   18.8683   -9.8116  -14.6381 O   0  0  0  0  0  0  0  0  0  0  0  0
   23.4139   -9.0289  -16.3202 C   0  0  0  0  0  0  0  0  0  0  0  0
   22.6790   -9.3748  -15.0553 C   0  0  2  0  0  0  0  0  0  0  0  0
   22.5894  -10.8680  -14.8531 C   0  0  0  0  0  0  0  0  0  0  0  0
   21.3273   -8.7045  -15.0037 C   0  0  2  0  0  0  0  0  0  0  0  0
   20.5117   -9.1990  -16.0937 N   0  0  0  0  0  0  0  0  0  0  0  0
   21.4242   -7.2323  -15.0021 C   0  0  0  0  0  0  0  0  0  0  0  0
   21.4365   -6.6285  -16.0923 O   0  0  0  0  0  0  0  0  0  0  0  0
   21.5055   -6.4495  -13.8186 N   0  0  0  0  0  0  0  0  0  0  0  0
   21.5493   -5.0245  -13.7901 C   0  0  0  0  0  0  0  0  0  0  0  0
   22.7486   -4.4491  -14.4071 C   0  0  0  0  0  0  0  0  0  0  0  0
   22.9131   -3.0951  -14.6417 O   0  0  0  0  0  0  0  0  0  0  0  0
   23.6834   -5.2175  -14.7450 O   0  0  0  0  0  0  0  0  0  0  0  0
  1  2  1  0
  3  2  1  0
  3  4  1  1
  5 11  1  0
  5  3  1  0
  6  5  2  0
  8  7  1  6
  9  8  1  0
 10 11  1  6
 10  8  1  0
 12 13  2  0
 12 10  1  0
 14 12  1  0
 15 14  1  0
 15 16  1  0
 16 17  1  0
 18 16  2  0
M  END
$$$$
