PRA.pdb
     RDKit          3D

 24 24  0  0  1  0  0  0  0  0999 V2000
   27.4904  -19.8319  -16.3422 N   0  0  0  0  0  0  0  0  0  0  0  0
   28.9285  -19.9067  -16.5481 C   0  0  0  0  0  0  0  0  0  0  0  0
   29.2928  -21.3666  -16.5465 C   0  0  0  0  0  0  0  0  0  0  0  0
   28.2075  -21.9513  -15.6281 C   0  0  0  0  0  0  0  0  0  0  0  0
   27.0176  -21.1702  -16.2109 C   0  0  1  0  0  0  0  0  0  0  0  0
   25.8120  -21.3843  -15.4286 C   0  0  0  0  0  0  0  0  0  0  0  0
   25.2766  -22.5320  -15.4136 O   0  0  0  0  0  0  0  0  0  0  0  0
   23.2868  -20.8265   -7.2145 N   0  0  0  0  0  0  0  0  0  0  0  0
   22.2326  -21.4676   -7.9207 C   0  0  0  0  0  0  0  0  0  0  0  0
   21.2634  -22.0463   -7.2798 N   0  0  0  0  0  0  0  0  0  0  0  0
   22.1708  -21.5149   -9.3353 N   0  0  0  0  0  0  0  0  0  0  0  0
   23.2554  -21.1401  -10.1673 C   0  0  0  0  0  0  0  0  0  0  0  0
   22.9712  -21.1321  -11.6444 C   0  0  0  0  0  0  0  0  0  0  0  0
   24.2572  -20.7277  -12.3713 C   0  0  0  0  0  0  0  0  0  0  0  0
   23.9804  -20.6756  -13.8494 C   0  0  2  0  0  0  0  0  0  0  0  0
   25.1403  -20.4093  -14.6481 N   0  0  0  0  0  0  0  0  0  0  0  0
   22.9334  -19.6889  -14.1706 C   0  0  0  0  0  0  0  0  0  0  0  0
   23.1004  -18.4875  -13.8772 O   0  0  0  0  0  0  0  0  0  0  0  0
   20.5201  -22.5081   -7.8394 C   0  0  0  0  0  0  0  0  0  0  0  0
   19.9472  -19.7100  -16.3549 C   0  0  1  0  0  0  0  0  0  0  0  0
   20.7592  -19.1061  -15.2166 N   0  0  0  0  0  0  0  0  0  0  0  0
   21.7347  -20.0814  -14.8099 C   0  0  0  0  0  0  0  0  0  0  0  0
   19.8771  -18.7977  -14.0737 O   0  0  0  0  0  0  0  0  0  0  0  0
   19.2778  -17.6756  -13.9979 O   0  0  0  0  0  0  0  0  0  0  0  0
  1  2  1  0
  3  2  1  0
  4  3  1  0
  4  5  1  0
  5  1  1  0
  5  6  1  1
  6  7  2  0
  8  9  1  0
  9 11  1  0
  9 10  2  0
 11 12  1  0
 12 13  1  0
 14 13  1  0
 15 14  1  1
 16  6  1  0
 16 15  1  0
 17 18  2  0
 17 15  1  0
 20 19  1  6
 20 21  1  0
 21 17  1  0
 22 20  1  0
 22 24  1  0
 23 22  2  0
M  END
$$$$
