PRA.pdb
     RDKit          3D

 24 24  0  0  1  0  0  0  0  0999 V2000
   23.7882  -21.5769  -15.6086 N   0  0  0  0  0  0  0  0  0  0  0  0
   25.0858  -20.9290  -15.4953 C   0  0  0  0  0  0  0  0  0  0  0  0
   25.7013  -21.4102  -14.2094 C   0  0  0  0  0  0  0  0  0  0  0  0
   24.4518  -21.6902  -13.3586 C   0  0  0  0  0  0  0  0  0  0  0  0
   23.6260  -22.3916  -14.4503 C   0  0  1  0  0  0  0  0  0  0  0  0
   22.2708  -22.6565  -13.9981 C   0  0  0  0  0  0  0  0  0  0  0  0
   21.7593  -23.7970  -14.2025 O   0  0  0  0  0  0  0  0  0  0  0  0
   19.4598  -24.9281   -7.7097 N   0  0  0  0  0  0  0  0  0  0  0  0
   18.3570  -24.2927   -8.3431 C   0  0  0  0  0  0  0  0  0  0  0  0
   17.2303  -24.1436   -7.7160 N   0  0  0  0  0  0  0  0  0  0  0  0
   18.4136  -23.7917   -9.6670 N   0  0  0  0  0  0  0  0  0  0  0  0
   19.5303  -23.9862  -10.5179 C   0  0  0  0  0  0  0  0  0  0  0  0
   20.4598  -22.8112  -10.6525 C   0  0  0  0  0  0  0  0  0  0  0  0
   19.7606  -21.7507  -11.5081 C   0  0  0  0  0  0  0  0  0  0  0  0
   20.0658  -22.0209  -12.9565 C   0  0  2  0  0  0  0  0  0  0  0  0
   21.4220  -21.7407  -13.3260 N   0  0  0  0  0  0  0  0  0  0  0  0
   19.1569  -21.2798  -13.8497 C   0  0  0  0  0  0  0  0  0  0  0  0
   19.1588  -20.0319  -13.8421 O   0  0  0  0  0  0  0  0  0  0  0  0
   16.4315  -23.7407   -8.2438 C   0  0  0  0  0  0  0  0  0  0  0  0
   17.0578  -22.1955  -16.7658 C   0  0  1  0  0  0  0  0  0  0  0  0
   17.4420  -21.2401  -15.6437 N   0  0  0  0  0  0  0  0  0  0  0  0
   18.2768  -21.9617  -14.7214 C   0  0  0  0  0  0  0  0  0  0  0  0
   16.2314  -20.7744  -14.9387 O   0  0  0  0  0  0  0  0  0  0  0  0
   15.5015  -19.8554  -15.4355 O   0  0  0  0  0  0  0  0  0  0  0  0
  1  2  1  0
  3  2  1  0
  4  3  1  0
  4  5  1  0
  5  1  1  0
  5  6  1  1
  6  7  2  0
  8  9  1  0
  9 11  1  0
  9 10  2  0
 11 12  1  0
 12 13  1  0
 14 13  1  0
 15 14  1  1
 16  6  1  0
 16 15  1  0
 17 18  2  0
 17 15  1  0
 20 19  1  6
 20 21  1  0
 21 17  1  0
 22 20  1  0
 22 24  1  0
 23 22  2  0
M  END
$$$$
