PRA.pdb
     RDKit          3D

 24 24  0  0  1  0  0  0  0  0999 V2000
   14.3351  -11.3578  -11.4172 N   0  0  0  0  0  0  0  0  0  0  0  0
   13.9279  -12.7543  -11.4043 C   0  0  0  0  0  0  0  0  0  0  0  0
   14.4992  -13.3624  -10.1522 C   0  0  0  0  0  0  0  0  0  0  0  0
   15.7588  -12.5060   -9.9439 C   0  0  0  0  0  0  0  0  0  0  0  0
   15.1182  -11.1407  -10.2462 C   0  0  1  0  0  0  0  0  0  0  0  0
   16.1180  -10.0873  -10.2908 C   0  0  0  0  0  0  0  0  0  0  0  0
   16.8347   -9.8671   -9.2700 O   0  0  0  0  0  0  0  0  0  0  0  0
   22.7919   -8.7994  -15.0523 N   0  0  0  0  0  0  0  0  0  0  0  0
   22.4034   -9.9987  -14.3952 C   0  0  0  0  0  0  0  0  0  0  0  0
   23.1813  -11.0378  -14.4014 N   0  0  0  0  0  0  0  0  0  0  0  0
   21.1731  -10.1353  -13.7062 N   0  0  0  0  0  0  0  0  0  0  0  0
   20.2756   -9.0560  -13.5096 C   0  0  0  0  0  0  0  0  0  0  0  0
   18.9970   -9.3939  -12.7928 C   0  0  0  0  0  0  0  0  0  0  0  0
   18.1816   -8.1056  -12.6476 C   0  0  0  0  0  0  0  0  0  0  0  0
   17.3644   -8.1911  -11.3871 C   0  0  2  0  0  0  0  0  0  0  0  0
   16.3907   -9.2427  -11.3968 N   0  0  0  0  0  0  0  0  0  0  0  0
   16.6945   -6.9126  -11.0874 C   0  0  0  0  0  0  0  0  0  0  0  0
   15.5376   -6.7039  -11.5063 O   0  0  0  0  0  0  0  0  0  0  0  0
   22.8287  -11.9097  -13.9605 C   0  0  0  0  0  0  0  0  0  0  0  0
   15.2808   -4.7330  -10.6092 C   0  0  2  0  0  0  0  0  0  0  0  0
   16.6574   -4.7024   -9.9585 N   0  0  0  0  0  0  0  0  0  0  0  0
   17.3429   -5.9113  -10.3282 C   0  0  0  0  0  0  0  0  0  0  0  0
   16.5219   -4.6523   -8.4893 O   0  0  0  0  0  0  0  0  0  0  0  0
   15.9763   -3.6516   -7.9194 O   0  0  0  0  0  0  0  0  0  0  0  0
  1  2  1  0
  3  2  1  0
  4  3  1  0
  4  5  1  0
  5  1  1  0
  5  6  1  6
  6  7  2  0
  8  9  1  0
  9 11  1  0
  9 10  2  0
 11 12  1  0
 12 13  1  0
 14 13  1  0
 15 14  1  6
 16  6  1  0
 16 15  1  0
 17 18  2  0
 17 15  1  0
 20 19  1  6
 20 21  1  0
 21 17  1  0
 22 20  1  0
 22 24  1  0
 23 22  2  0
M  END
$$$$
