PRA.pdb
     RDKit          3D

 24 24  0  0  1  0  0  0  0  0999 V2000
   25.5819  -13.5672  -19.2204 N   0  0  0  0  0  0  0  0  0  0  0  0
   25.0449  -12.2587  -19.5606 C   0  0  0  0  0  0  0  0  0  0  0  0
   24.6620  -11.5955  -18.2654 C   0  0  0  0  0  0  0  0  0  0  0  0
   24.3211  -12.8115  -17.3887 C   0  0  0  0  0  0  0  0  0  0  0  0
   25.5140  -13.6901  -17.8019 C   0  0  1  0  0  0  0  0  0  0  0  0
   25.4008  -15.0282  -17.2470 C   0  0  0  0  0  0  0  0  0  0  0  0
   25.0937  -15.9927  -18.0084 O   0  0  0  0  0  0  0  0  0  0  0  0
   27.4639  -21.2883  -13.3388 N   0  0  0  0  0  0  0  0  0  0  0  0
   26.7948  -21.0059  -12.1167 C   0  0  0  0  0  0  0  0  0  0  0  0
   26.2875  -21.9647  -11.4038 N   0  0  0  0  0  0  0  0  0  0  0  0
   26.6424  -19.6925  -11.6080 N   0  0  0  0  0  0  0  0  0  0  0  0
   26.9155  -18.5322  -12.3749 C   0  0  0  0  0  0  0  0  0  0  0  0
   25.9953  -18.2893  -13.5398 C   0  0  0  0  0  0  0  0  0  0  0  0
   26.4596  -17.0151  -14.2516 C   0  0  0  0  0  0  0  0  0  0  0  0
   25.5199  -16.7294  -15.3916 C   0  0  2  0  0  0  0  0  0  0  0  0
   25.6037  -15.3884  -15.8906 N   0  0  0  0  0  0  0  0  0  0  0  0
   24.1221  -17.0256  -15.0294 C   0  0  0  0  0  0  0  0  0  0  0  0
   23.4322  -16.1596  -14.4536 O   0  0  0  0  0  0  0  0  0  0  0  0
   25.8709  -21.7172  -10.4850 C   0  0  0  0  0  0  0  0  0  0  0  0
   21.4728  -17.0963  -15.1692 C   0  0  2  0  0  0  0  0  0  0  0  0
   22.1194  -18.4711  -15.2753 N   0  0  0  0  0  0  0  0  0  0  0  0
   23.5441  -18.2819  -15.3247 C   0  0  0  0  0  0  0  0  0  0  0  0
   21.6770  -19.1444  -16.5124 O   0  0  0  0  0  0  0  0  0  0  0  0
   22.5173  -19.4662  -17.4148 O   0  0  0  0  0  0  0  0  0  0  0  0
  1  2  1  0
  3  2  1  0
  4  3  1  0
  4  5  1  0
  5  1  1  0
  5  6  1  6
  6  7  2  0
  8  9  1  0
  9 11  1  0
  9 10  2  0
 11 12  1  0
 12 13  1  0
 14 13  1  0
 15 14  1  1
 16  6  1  0
 16 15  1  0
 17 18  2  0
 17 15  1  0
 20 19  1  1
 20 21  1  0
 21 17  1  0
 22 20  1  0
 22 24  1  0
 23 22  2  0
M  END
$$$$
