PRA.pdb
     RDKit          3D

 24 24  0  0  1  0  0  0  0  0999 V2000
   25.2658  -12.0008  -15.8439 N   0  0  0  0  0  0  0  0  0  0  0  0
   25.7698  -13.3624  -15.9357 C   0  0  0  0  0  0  0  0  0  0  0  0
   25.3997  -13.8720  -17.3021 C   0  0  0  0  0  0  0  0  0  0  0  0
   24.1171  -13.0743  -17.5887 C   0  0  0  0  0  0  0  0  0  0  0  0
   24.6175  -11.7117  -17.0800 C   0  0  1  0  0  0  0  0  0  0  0  0
   23.5475  -10.7289  -17.0650 C   0  0  0  0  0  0  0  0  0  0  0  0
   23.0626  -10.3214  -18.1618 O   0  0  0  0  0  0  0  0  0  0  0  0
   15.5187  -10.0000  -14.0861 N   0  0  0  0  0  0  0  0  0  0  0  0
   15.7632   -8.8147  -14.8319 C   0  0  0  0  0  0  0  0  0  0  0  0
   14.7934   -7.9996  -15.1148 N   0  0  0  0  0  0  0  0  0  0  0  0
   17.0494   -8.4529  -15.3027 N   0  0  0  0  0  0  0  0  0  0  0  0
   18.1846   -9.2903  -15.1647 C   0  0  0  0  0  0  0  0  0  0  0  0
   19.4877   -8.7046  -15.6354 C   0  0  0  0  0  0  0  0  0  0  0  0
   20.5852   -9.7483  -15.4074 C   0  0  0  0  0  0  0  0  0  0  0  0
   21.8844   -9.2066  -15.9390 C   0  0  2  0  0  0  0  0  0  0  0  0
   22.9622  -10.1509  -15.9099 N   0  0  0  0  0  0  0  0  0  0  0  0
   22.2931   -7.9821  -15.2273 C   0  0  0  0  0  0  0  0  0  0  0  0
   22.7470   -8.0595  -14.0674 O   0  0  0  0  0  0  0  0  0  0  0  0
   15.0275   -7.1277  -15.6284 C   0  0  0  0  0  0  0  0  0  0  0  0
   22.4900   -4.3606  -16.1448 C   0  0  1  0  0  0  0  0  0  0  0  0
   22.6691   -5.5290  -15.1845 N   0  0  0  0  0  0  0  0  0  0  0  0
   22.1799   -6.7123  -15.8391 C   0  0  0  0  0  0  0  0  0  0  0  0
   21.8865   -5.2976  -13.9542 O   0  0  0  0  0  0  0  0  0  0  0  0
   20.7023   -5.7544  -13.8401 O   0  0  0  0  0  0  0  0  0  0  0  0
  1  2  1  0
  3  2  1  0
  4  3  1  0
  4  5  1  0
  5  1  1  0
  5  6  1  1
  6  7  2  0
  8  9  1  0
  9 11  1  0
  9 10  2  0
 11 12  1  0
 12 13  1  0
 14 13  1  0
 15 14  1  1
 16  6  1  0
 16 15  1  0
 17 18  2  0
 17 15  1  0
 20 19  1  6
 20 21  1  0
 21 17  1  0
 22 20  1  0
 22 24  1  0
 23 22  2  0
M  END
$$$$
