PRA.pdb
     RDKit          3D

 24 24  0  0  1  0  0  0  0  0999 V2000
   17.7011  -11.9011  -19.5819 N   0  0  0  0  0  0  0  0  0  0  0  0
   16.9231  -13.0319  -20.0638 C   0  0  0  0  0  0  0  0  0  0  0  0
   16.3516  -13.7150  -18.8511 C   0  0  0  0  0  0  0  0  0  0  0  0
   17.4137  -13.3897  -17.7883 C   0  0  0  0  0  0  0  0  0  0  0  0
   17.6138  -11.9105  -18.1592 C   0  0  1  0  0  0  0  0  0  0  0  0
   18.7143  -11.3240  -17.4135 C   0  0  0  0  0  0  0  0  0  0  0  0
   18.6423  -11.2547  -16.1509 O   0  0  0  0  0  0  0  0  0  0  0  0
   27.3348  -12.4646  -17.0664 N   0  0  0  0  0  0  0  0  0  0  0  0
   27.0746  -11.3705  -16.1967 C   0  0  0  0  0  0  0  0  0  0  0  0
   28.0276  -10.8503  -15.4853 N   0  0  0  0  0  0  0  0  0  0  0  0
   25.7907  -10.7892  -16.0536 N   0  0  0  0  0  0  0  0  0  0  0  0
   24.6767  -11.1773  -16.8394 C   0  0  0  0  0  0  0  0  0  0  0  0
   23.4029  -10.4192  -16.5837 C   0  0  0  0  0  0  0  0  0  0  0  0
   22.3230  -10.9821  -17.5125 C   0  0  0  0  0  0  0  0  0  0  0  0
   21.0131  -10.3160  -17.1891 C   0  0  2  0  0  0  0  0  0  0  0  0
   19.9095  -10.7978  -17.9663 N   0  0  0  0  0  0  0  0  0  0  0  0
   21.1009   -8.8510  -17.3276 C   0  0  0  0  0  0  0  0  0  0  0  0
   21.4569   -8.3496  -18.4135 O   0  0  0  0  0  0  0  0  0  0  0  0
   27.7850  -10.0643  -14.8510 C   0  0  0  0  0  0  0  0  0  0  0  0
   19.6343   -5.9067  -16.0976 C   0  0  1  0  0  0  0  0  0  0  0  0
   20.9802   -6.5757  -16.3433 N   0  0  0  0  0  0  0  0  0  0  0  0
   20.7866   -7.9973  -16.2451 C   0  0  0  0  0  0  0  0  0  0  0  0
   21.9528   -6.1475  -15.3184 O   0  0  0  0  0  0  0  0  0  0  0  0
   22.3483   -4.9374  -15.2611 O   0  0  0  0  0  0  0  0  0  0  0  0
  1  2  1  0
  3  2  1  0
  4  3  1  0
  4  5  1  0
  5  1  1  0
  5  6  1  1
  6  7  2  0
  8  9  1  0
  9 11  1  0
  9 10  2  0
 11 12  1  0
 12 13  1  0
 14 13  1  0
 15 14  1  6
 16  6  1  0
 16 15  1  0
 17 18  2  0
 17 15  1  0
 20 19  1  6
 20 21  1  0
 21 17  1  0
 22 20  1  0
 22 24  1  0
 23 22  2  0
M  END
$$$$
