PRA.pdb
     RDKit          3D

 24 24  0  0  1  0  0  0  0  0999 V2000
   18.1840  -24.6141   -7.0908 N   0  0  0  0  0  0  0  0  0  0  0  0
   18.5210  -25.6059   -8.1002 C   0  0  0  0  0  0  0  0  0  0  0  0
   17.4194  -26.6307   -8.0879 C   0  0  0  0  0  0  0  0  0  0  0  0
   16.9507  -26.5578   -6.6255 C   0  0  0  0  0  0  0  0  0  0  0  0
   16.9560  -25.0253   -6.4954 C   0  0  1  0  0  0  0  0  0  0  0  0
   16.6999  -24.6113   -5.1264 C   0  0  0  0  0  0  0  0  0  0  0  0
   17.6691  -24.5032   -4.3183 O   0  0  0  0  0  0  0  0  0  0  0  0
   10.9938  -18.9227   -1.7094 N   0  0  0  0  0  0  0  0  0  0  0  0
   11.7616  -19.3366   -2.8320 C   0  0  0  0  0  0  0  0  0  0  0  0
   11.5504  -18.8205   -4.0042 N   0  0  0  0  0  0  0  0  0  0  0  0
   12.7833  -20.3143   -2.7476 N   0  0  0  0  0  0  0  0  0  0  0  0
   12.8631  -21.2570   -1.6920 C   0  0  0  0  0  0  0  0  0  0  0  0
   14.0211  -22.2146   -1.7596 C   0  0  0  0  0  0  0  0  0  0  0  0
   14.0882  -22.7760   -3.1830 C   0  0  0  0  0  0  0  0  0  0  0  0
   15.2373  -23.7439   -3.2665 C   0  0  2  0  0  0  0  0  0  0  0  0
   15.4317  -24.3028   -4.5719 N   0  0  0  0  0  0  0  0  0  0  0  0
   15.0981  -24.8367   -2.2869 C   0  0  0  0  0  0  0  0  0  0  0  0
   14.2954  -25.7673   -2.5037 O   0  0  0  0  0  0  0  0  0  0  0  0
   12.1483  -19.1424   -4.7902 C   0  0  0  0  0  0  0  0  0  0  0  0
   17.0329  -25.9546    0.6719 C   0  0  1  0  0  0  0  0  0  0  0  0
   15.7595  -25.9384   -0.1634 N   0  0  0  0  0  0  0  0  0  0  0  0
   15.8631  -24.8502   -1.0978 C   0  0  0  0  0  0  0  0  0  0  0  0
   14.5865  -25.7202    0.7061 O   0  0  0  0  0  0  0  0  0  0  0  0
   14.0356  -24.5735    0.7807 O   0  0  0  0  0  0  0  0  0  0  0  0
  1  2  1  0
  3  2  1  0
  4  3  1  0
  4  5  1  0
  5  1  1  0
  5  6  1  1
  6  7  2  0
  8  9  1  0
  9 11  1  0
  9 10  2  0
 11 12  1  0
 12 13  1  0
 14 13  1  0
 15 14  1  6
 16  6  1  0
 16 15  1  0
 17 18  2  0
 17 15  1  0
 20 19  1  6
 20 21  1  0
 21 17  1  0
 22 20  1  0
 22 24  1  0
 23 22  2  0
M  END
$$$$
