PRA.pdb
     RDKit          3D

 24 24  0  0  1  0  0  0  0  0999 V2000
   26.7677  -18.6078  -15.4796 N   0  0  0  0  0  0  0  0  0  0  0  0
   28.1146  -18.1507  -15.7847 C   0  0  0  0  0  0  0  0  0  0  0  0
   28.9533  -19.3813  -15.9995 C   0  0  0  0  0  0  0  0  0  0  0  0
   28.2363  -20.4006  -15.0992 C   0  0  0  0  0  0  0  0  0  0  0  0
   26.7967  -20.0328  -15.4967 C   0  0  1  0  0  0  0  0  0  0  0  0
   25.8266  -20.7356  -14.6745 C   0  0  0  0  0  0  0  0  0  0  0  0
   25.6341  -21.9734  -14.8616 O   0  0  0  0  0  0  0  0  0  0  0  0
   29.1301  -22.2880  -10.1308 N   0  0  0  0  0  0  0  0  0  0  0  0
   28.8921  -21.0013  -10.6867 C   0  0  0  0  0  0  0  0  0  0  0  0
   29.8367  -20.3652  -11.3097 N   0  0  0  0  0  0  0  0  0  0  0  0
   27.6395  -20.3453  -10.6008 N   0  0  0  0  0  0  0  0  0  0  0  0
   26.4950  -20.9422  -10.0151 C   0  0  0  0  0  0  0  0  0  0  0  0
   25.5928  -21.6874  -10.9603 C   0  0  0  0  0  0  0  0  0  0  0  0
   24.4304  -20.7622  -11.3327 C   0  0  0  0  0  0  0  0  0  0  0  0
   24.1477  -20.9103  -12.8032 C   0  0  2  0  0  0  0  0  0  0  0  0
   25.0381  -20.1649  -13.6434 N   0  0  0  0  0  0  0  0  0  0  0  0
   22.7565  -20.5463  -13.1273 C   0  0  0  0  0  0  0  0  0  0  0  0
   22.3934  -19.3544  -13.0575 O   0  0  0  0  0  0  0  0  0  0  0  0
   30.7478  -20.8487  -11.4316 C   0  0  0  0  0  0  0  0  0  0  0  0
   19.9285  -22.2585  -14.7898 C   0  0  2  0  0  0  0  0  0  0  0  0
   20.4732  -21.1694  -13.8750 N   0  0  0  0  0  0  0  0  0  0  0  0
   21.8191  -21.5299  -13.5190 C   0  0  0  0  0  0  0  0  0  0  0  0
   19.6549  -21.0818  -12.6493 O   0  0  0  0  0  0  0  0  0  0  0  0
   20.0304  -21.6523  -11.5735 O   0  0  0  0  0  0  0  0  0  0  0  0
  1  2  1  0
  3  2  1  0
  4  3  1  0
  4  5  1  0
  5  1  1  0
  5  6  1  1
  6  7  2  0
  8  9  1  0
  9 11  1  0
  9 10  2  0
 11 12  1  0
 12 13  1  0
 14 13  1  0
 15 14  1  1
 16  6  1  0
 16 15  1  0
 17 18  2  0
 17 15  1  0
 20 19  1  6
 20 21  1  0
 21 17  1  0
 22 20  1  0
 22 24  1  0
 23 22  2  0
M  END
$$$$
