GFW.pdb
     RDKit          3D

 30 32  0  0  1  0  0  0  0  0999 V2000
   10.5158  -19.1156   17.8209 N   0  0  0  0  0  0  0  0  0  0  0  0
    9.4727  -19.1936   18.7969 C   0  0  0  0  0  0  0  0  0  0  0  0
    9.4594  -17.9445   19.5953 C   0  0  0  0  0  0  0  0  0  0  0  0
   10.4416  -17.1902   19.5525 O   0  0  0  0  0  0  0  0  0  0  0  0
    8.3302  -17.6084   20.4078 N   0  0  0  0  0  0  0  0  0  0  0  0
    8.3234  -16.4194   21.2208 C   0  0  1  0  0  0  0  0  0  0  0  0
    6.9367  -15.8619   21.3953 C   0  0  0  0  0  0  0  0  0  0  0  0
    6.9787  -14.6962   22.3119 C   0  0  0  0  0  0  0  0  0  0  0  0
    6.6712  -14.8174   23.6414 C   0  0  0  0  0  0  0  0  0  0  0  0
    6.7142  -13.7368   24.4781 C   0  0  0  0  0  0  0  0  0  0  0  0
    7.0796  -12.4977   23.9502 C   0  0  0  0  0  0  0  0  0  0  0  0
    7.3864  -12.3880   22.6127 C   0  0  0  0  0  0  0  0  0  0  0  0
    7.3395  -13.4802   21.7833 C   0  0  0  0  0  0  0  0  0  0  0  0
    8.9176  -16.7207   22.5611 C   0  0  0  0  0  0  0  0  0  0  0  0
    8.5866  -17.7794   23.1264 O   0  0  0  0  0  0  0  0  0  0  0  0
    9.8310  -15.8545   23.1991 N   0  0  0  0  0  0  0  0  0  0  0  0
   10.6444  -16.3604   24.2789 C   0  0  1  0  0  0  0  0  0  0  0  0
    9.8724  -16.6324   25.5073 C   0  0  0  0  0  0  0  0  0  0  0  0
    8.9780  -15.5606   25.9907 C   0  0  0  0  0  0  0  0  0  0  0  0
    7.5768  -15.5862   25.9034 C   0  0  0  0  0  0  0  0  0  0  0  0
    7.0873  -14.4476   26.4003 N   0  0  0  0  0  0  0  0  0  0  0  0
    8.1076  -13.6786   26.8096 C   0  0  0  0  0  0  0  0  0  0  0  0
    8.1751  -12.4192   27.4089 C   0  0  0  0  0  0  0  0  0  0  0  0
    9.3974  -11.8813   27.7403 C   0  0  0  0  0  0  0  0  0  0  0  0
   10.5668  -12.5603   27.4933 C   0  0  0  0  0  0  0  0  0  0  0  0
   10.5046  -13.8054   26.9003 C   0  0  0  0  0  0  0  0  0  0  0  0
    9.2745  -14.3498   26.5644 C   0  0  0  0  0  0  0  0  0  0  0  0
   11.6204  -17.3630   23.8331 C   0  0  0  0  0  0  0  0  0  0  0  0
   11.5908  -17.7440   22.6374 O   0  0  0  0  0  0  0  0  0  0  0  0
   12.6002  -17.9500   24.6249 O   0  0  0  0  0  0  0  0  0  0  0  0
  2  1  1  0
  3  2  1  0
  4  3  2  0
  5  3  1  0
  6  7  1  1
  6  5  1  0
  8  7  1  0
  9  8  2  0
 10  9  1  0
 11 12  1  0
 11 10  2  0
 12 13  2  0
 13  8  1  0
 14 15  2  0
 14  6  1  0
 16 14  1  0
 17 16  1  0
 17 18  1  1
 19 18  1  0
 20 19  2  0
 21 20  1  0
 22 21  1  0
 22 27  2  0
 23 22  1  0
 24 23  2  0
 24 25  1  0
 25 26  2  0
 26 27  1  0
 27 19  1  0
 28 30  1  0
 28 17  1  0
 29 28  2  0
M  END
$$$$
