GFW.pdb
     RDKit          3D

 30 32  0  0  1  0  0  0  0  0999 V2000
    8.2216  -18.3593   19.7614 N   0  0  0  0  0  0  0  0  0  0  0  0
    9.6486  -18.3240   19.8576 C   0  0  0  0  0  0  0  0  0  0  0  0
   10.0592  -17.0736   20.5401 C   0  0  0  0  0  0  0  0  0  0  0  0
   11.1947  -16.6205   20.3381 O   0  0  0  0  0  0  0  0  0  0  0  0
    9.1609  -16.3939   21.4229 N   0  0  0  0  0  0  0  0  0  0  0  0
    9.5958  -15.2666   22.2071 C   0  0  1  0  0  0  0  0  0  0  0  0
    8.4770  -14.2954   22.4696 C   0  0  0  0  0  0  0  0  0  0  0  0
    7.8794  -13.8620   21.1828 C   0  0  0  0  0  0  0  0  0  0  0  0
    8.3777  -12.7941   20.4840 C   0  0  0  0  0  0  0  0  0  0  0  0
    7.8203  -12.4034   19.2981 C   0  0  0  0  0  0  0  0  0  0  0  0
    6.7259  -13.1170   18.8075 C   0  0  0  0  0  0  0  0  0  0  0  0
    6.2339  -14.1883   19.5184 C   0  0  0  0  0  0  0  0  0  0  0  0
    6.8022  -14.5704   20.7075 C   0  0  0  0  0  0  0  0  0  0  0  0
   10.1634  -15.7447   23.5069 C   0  0  0  0  0  0  0  0  0  0  0  0
   11.1771  -15.1744   23.9510 O   0  0  0  0  0  0  0  0  0  0  0  0
    9.5943  -16.8087   24.2387 N   0  0  0  0  0  0  0  0  0  0  0  0
    9.9287  -16.9616   25.6345 C   0  0  1  0  0  0  0  0  0  0  0  0
    9.6701  -15.7444   26.4287 C   0  0  0  0  0  0  0  0  0  0  0  0
    8.3400  -15.1178   26.2852 C   0  0  0  0  0  0  0  0  0  0  0  0
    7.1852  -15.7817   25.8409 C   0  0  0  0  0  0  0  0  0  0  0  0
    6.1721  -14.9131   25.7961 N   0  0  0  0  0  0  0  0  0  0  0  0
    6.6138  -13.7100   26.1925 C   0  0  0  0  0  0  0  0  0  0  0  0
    5.9945  -12.4684   26.3501 C   0  0  0  0  0  0  0  0  0  0  0  0
    6.7209  -11.3916   26.8038 C   0  0  0  0  0  0  0  0  0  0  0  0
    8.0561  -11.5088   27.1091 C   0  0  0  0  0  0  0  0  0  0  0  0
    8.6725  -12.7343   26.9540 C   0  0  0  0  0  0  0  0  0  0  0  0
    7.9433  -13.8211   26.4962 C   0  0  0  0  0  0  0  0  0  0  0  0
    9.5011  -18.2551   26.1827 C   0  0  0  0  0  0  0  0  0  0  0  0
    8.7229  -18.9699   25.5050 O   0  0  0  0  0  0  0  0  0  0  0  0
    9.8808  -18.7813   27.4116 O   0  0  0  0  0  0  0  0  0  0  0  0
  2  1  1  0
  3  2  1  0
  4  3  2  0
  5  3  1  0
  6  7  1  1
  6  5  1  0
  8  7  1  0
  9  8  2  0
 10  9  1  0
 11 12  1  0
 11 10  2  0
 12 13  2  0
 13  8  1  0
 14 15  2  0
 14  6  1  0
 16 14  1  0
 17 16  1  0
 17 18  1  1
 19 18  1  0
 20 19  2  0
 21 20  1  0
 22 21  1  0
 22 27  2  0
 23 22  1  0
 24 23  2  0
 24 25  1  0
 25 26  2  0
 26 27  1  0
 27 19  1  0
 28 30  1  0
 28 17  1  0
 29 28  2  0
M  END
$$$$
