GFW.pdb
     RDKit          3D

 30 32  0  0  1  0  0  0  0  0999 V2000
   10.1218  -16.7348   17.3791 N   0  0  0  0  0  0  0  0  0  0  0  0
    9.1011  -17.1832   18.2758 C   0  0  0  0  0  0  0  0  0  0  0  0
    9.1922  -16.4143   19.5400 C   0  0  0  0  0  0  0  0  0  0  0  0
   10.2245  -15.7736   19.7838 O   0  0  0  0  0  0  0  0  0  0  0  0
    8.1059  -16.4084   20.4718 N   0  0  0  0  0  0  0  0  0  0  0  0
    8.2076  -15.7184   21.7321 C   0  0  1  0  0  0  0  0  0  0  0  0
    6.8566  -15.3987   22.3121 C   0  0  0  0  0  0  0  0  0  0  0  0
    7.0228  -14.6622   23.5891 C   0  0  0  0  0  0  0  0  0  0  0  0
    7.3832  -13.3407   23.6135 C   0  0  0  0  0  0  0  0  0  0  0  0
    7.5325  -12.6706   24.7960 C   0  0  0  0  0  0  0  0  0  0  0  0
    7.3098  -13.3617   25.9878 C   0  0  0  0  0  0  0  0  0  0  0  0
    6.9481  -14.6894   25.9509 C   0  0  0  0  0  0  0  0  0  0  0  0
    6.8014  -15.3507   24.7575 C   0  0  0  0  0  0  0  0  0  0  0  0
    8.9881  -16.5500   22.7014 C   0  0  0  0  0  0  0  0  0  0  0  0
    8.7658  -17.7743   22.7380 O   0  0  0  0  0  0  0  0  0  0  0  0
    9.9577  -15.9989   23.5662 N   0  0  0  0  0  0  0  0  0  0  0  0
   10.8105  -16.8840   24.3231 C   0  0  1  0  0  0  0  0  0  0  0  0
   11.6308  -16.1791   25.3277 C   0  0  0  0  0  0  0  0  0  0  0  0
   11.1637  -16.2234   26.7285 C   0  0  0  0  0  0  0  0  0  0  0  0
   11.1002  -17.3846   27.5155 C   0  0  0  0  0  0  0  0  0  0  0  0
   10.6000  -17.0732   28.7138 N   0  0  0  0  0  0  0  0  0  0  0  0
   10.3343  -15.7586   28.7451 C   0  0  0  0  0  0  0  0  0  0  0  0
    9.8248  -14.9093   29.7293 C   0  0  0  0  0  0  0  0  0  0  0  0
    9.6779  -13.5663   29.4684 C   0  0  0  0  0  0  0  0  0  0  0  0
   10.0240  -13.0339   28.2492 C   0  0  0  0  0  0  0  0  0  0  0  0
   10.5274  -13.8702   27.2729 C   0  0  0  0  0  0  0  0  0  0  0  0
   10.6759  -15.2241   27.5326 C   0  0  0  0  0  0  0  0  0  0  0  0
   10.1310  -18.1227   24.7235 C   0  0  0  0  0  0  0  0  0  0  0  0
   10.7612  -19.2061   24.6544 O   0  0  0  0  0  0  0  0  0  0  0  0
    8.8228  -18.2187   25.1828 O   0  0  0  0  0  0  0  0  0  0  0  0
  2  1  1  0
  3  2  1  0
  4  3  2  0
  5  3  1  0
  6  7  1  1
  6  5  1  0
  8  7  1  0
  9  8  2  0
 10  9  1  0
 11 12  1  0
 11 10  2  0
 12 13  2  0
 13  8  1  0
 14 15  2  0
 14  6  1  0
 16 14  1  0
 17 16  1  0
 17 18  1  1
 19 18  1  0
 20 19  2  0
 21 20  1  0
 22 21  1  0
 22 27  2  0
 23 22  1  0
 24 23  2  0
 24 25  1  0
 25 26  2  0
 26 27  1  0
 27 19  1  0
 28 30  1  0
 28 17  1  0
 29 28  2  0
M  END
$$$$
