GFW.pdb
     RDKit          3D

 30 32  0  0  1  0  0  0  0  0999 V2000
    8.5240  -18.5314   19.1638 N   0  0  0  0  0  0  0  0  0  0  0  0
    8.4773  -18.5049   20.5935 C   0  0  0  0  0  0  0  0  0  0  0  0
    9.2818  -17.3609   21.0853 C   0  0  0  0  0  0  0  0  0  0  0  0
   10.4381  -17.2113   20.6656 O   0  0  0  0  0  0  0  0  0  0  0  0
    8.7364  -16.4377   22.0332 N   0  0  0  0  0  0  0  0  0  0  0  0
    9.5273  -15.3556   22.5609 C   0  0  1  0  0  0  0  0  0  0  0  0
    8.7540  -14.0662   22.6188 C   0  0  0  0  0  0  0  0  0  0  0  0
    8.0489  -13.8484   21.3318 C   0  0  0  0  0  0  0  0  0  0  0  0
    8.5843  -13.0644   20.3441 C   0  0  0  0  0  0  0  0  0  0  0  0
    7.9269  -12.8710   19.1609 C   0  0  0  0  0  0  0  0  0  0  0  0
    6.6906  -13.4911   18.9750 C   0  0  0  0  0  0  0  0  0  0  0  0
    6.1624  -14.2767   19.9745 C   0  0  0  0  0  0  0  0  0  0  0  0
    6.8322  -14.4629   21.1576 C   0  0  0  0  0  0  0  0  0  0  0  0
   10.0187  -15.7102   23.9296 C   0  0  0  0  0  0  0  0  0  0  0  0
   10.9542  -15.0435   24.4094 O   0  0  0  0  0  0  0  0  0  0  0  0
    9.4632  -16.7636   24.6868 N   0  0  0  0  0  0  0  0  0  0  0  0
   10.0027  -17.0516   25.9943 C   0  0  1  0  0  0  0  0  0  0  0  0
    9.2729  -16.3740   27.0840 C   0  0  0  0  0  0  0  0  0  0  0  0
    8.0403  -15.6468   26.7176 C   0  0  0  0  0  0  0  0  0  0  0  0
    6.8443  -16.2551   26.3036 C   0  0  0  0  0  0  0  0  0  0  0  0
    5.9486  -15.3071   26.0172 N   0  0  0  0  0  0  0  0  0  0  0  0
    6.5065  -14.1052   26.2265 C   0  0  0  0  0  0  0  0  0  0  0  0
    6.0333  -12.7971   26.1048 C   0  0  0  0  0  0  0  0  0  0  0  0
    6.8544  -11.7382   26.4172 C   0  0  0  0  0  0  0  0  0  0  0  0
    8.1434  -11.9380   26.8508 C   0  0  0  0  0  0  0  0  0  0  0  0
    8.6156  -13.2296   26.9719 C   0  0  0  0  0  0  0  0  0  0  0  0
    7.7909  -14.2988   26.6571 C   0  0  0  0  0  0  0  0  0  0  0  0
   10.3523  -18.4675   26.1652 C   0  0  0  0  0  0  0  0  0  0  0  0
    9.9051  -19.3030   25.3419 O   0  0  0  0  0  0  0  0  0  0  0  0
   11.1498  -18.9903   27.1762 O   0  0  0  0  0  0  0  0  0  0  0  0
  2  1  1  0
  3  2  1  0
  4  3  2  0
  5  3  1  0
  6  7  1  1
  6  5  1  0
  8  7  1  0
  9  8  2  0
 10  9  1  0
 11 12  1  0
 11 10  2  0
 12 13  2  0
 13  8  1  0
 14 15  2  0
 14  6  1  0
 16 14  1  0
 17 16  1  0
 17 18  1  1
 19 18  1  0
 20 19  2  0
 21 20  1  0
 22 21  1  0
 22 27  2  0
 23 22  1  0
 24 23  2  0
 24 25  1  0
 25 26  2  0
 26 27  1  0
 27 19  1  0
 28 30  1  0
 28 17  1  0
 29 28  2  0
M  END
$$$$
