GFW.pdb
     RDKit          3D

 30 32  0  0  1  0  0  0  0  0999 V2000
    7.8655  -20.3499   19.3597 N   0  0  0  0  0  0  0  0  0  0  0  0
    7.4283  -19.2883   20.2133 C   0  0  0  0  0  0  0  0  0  0  0  0
    8.6131  -18.6011   20.7805 C   0  0  0  0  0  0  0  0  0  0  0  0
    9.7416  -19.0637   20.5617 O   0  0  0  0  0  0  0  0  0  0  0  0
    8.4626  -17.4183   21.5722 N   0  0  0  0  0  0  0  0  0  0  0  0
    9.6078  -16.6603   22.0065 C   0  0  1  0  0  0  0  0  0  0  0  0
    9.9947  -15.6004   21.0110 C   0  0  0  0  0  0  0  0  0  0  0  0
    8.8952  -14.6132   20.8797 C   0  0  0  0  0  0  0  0  0  0  0  0
    7.9191  -14.7489   19.9280 C   0  0  0  0  0  0  0  0  0  0  0  0
    6.9091  -13.8340   19.8160 C   0  0  0  0  0  0  0  0  0  0  0  0
    6.8894  -12.7503   20.6952 C   0  0  0  0  0  0  0  0  0  0  0  0
    7.8756  -12.6244   21.6474 C   0  0  0  0  0  0  0  0  0  0  0  0
    8.8839  -13.5495   21.7494 C   0  0  0  0  0  0  0  0  0  0  0  0
    9.3207  -16.0262   23.3316 C   0  0  0  0  0  0  0  0  0  0  0  0
    8.1480  -15.6913   23.5814 O   0  0  0  0  0  0  0  0  0  0  0  0
   10.3239  -15.7976   24.2975 N   0  0  0  0  0  0  0  0  0  0  0  0
   10.1142  -16.2515   25.6515 C   0  0  1  0  0  0  0  0  0  0  0  0
    8.7338  -16.7112   25.9011 C   0  0  0  0  0  0  0  0  0  0  0  0
    7.6735  -15.6826   25.9086 C   0  0  0  0  0  0  0  0  0  0  0  0
    6.3443  -15.8992   25.5110 C   0  0  0  0  0  0  0  0  0  0  0  0
    5.6669  -14.7527   25.6087 N   0  0  0  0  0  0  0  0  0  0  0  0
    6.4951  -13.7956   26.0537 C   0  0  0  0  0  0  0  0  0  0  0  0
    6.3212  -12.4418   26.3482 C   0  0  0  0  0  0  0  0  0  0  0  0
    7.3803  -11.7000   26.8185 C   0  0  0  0  0  0  0  0  0  0  0  0
    8.6192  -12.2648   27.0078 C   0  0  0  0  0  0  0  0  0  0  0  0
    8.7957  -13.6028   26.7172 C   0  0  0  0  0  0  0  0  0  0  0  0
    7.7305  -14.3527   26.2424 C   0  0  0  0  0  0  0  0  0  0  0  0
   11.2234  -17.0728   26.1534 C   0  0  0  0  0  0  0  0  0  0  0  0
   11.3079  -17.2829   27.3880 O   0  0  0  0  0  0  0  0  0  0  0  0
   12.2176  -17.6559   25.3768 O   0  0  0  0  0  0  0  0  0  0  0  0
  2  1  1  0
  3  2  1  0
  4  3  2  0
  5  3  1  0
  6  7  1  6
  6  5  1  0
  8  7  1  0
  9  8  2  0
 10  9  1  0
 11 12  1  0
 11 10  2  0
 12 13  2  0
 13  8  1  0
 14 15  2  0
 14  6  1  0
 16 14  1  0
 17 16  1  0
 17 18  1  6
 19 18  1  0
 20 19  2  0
 21 20  1  0
 22 21  1  0
 22 27  2  0
 23 22  1  0
 24 23  2  0
 24 25  1  0
 25 26  2  0
 26 27  1  0
 27 19  1  0
 28 30  1  0
 28 17  1  0
 29 28  2  0
M  END
$$$$
