GFW.pdb
     RDKit          3D

 30 32  0  0  1  0  0  0  0  0999 V2000
    7.0058  -20.1895   20.4144 N   0  0  0  0  0  0  0  0  0  0  0  0
    7.1974  -19.5297   21.6693 C   0  0  0  0  0  0  0  0  0  0  0  0
    8.5099  -18.8405   21.6610 C   0  0  0  0  0  0  0  0  0  0  0  0
    9.5232  -19.4755   21.3359 O   0  0  0  0  0  0  0  0  0  0  0  0
    8.6128  -17.4598   22.0233 N   0  0  0  0  0  0  0  0  0  0  0  0
    9.8909  -16.7987   22.0886 C   0  0  1  0  0  0  0  0  0  0  0  0
    9.9554  -15.6021   21.1787 C   0  0  0  0  0  0  0  0  0  0  0  0
    8.8439  -14.6723   21.4966 C   0  0  0  0  0  0  0  0  0  0  0  0
    7.5338  -15.0378   21.3327 C   0  0  0  0  0  0  0  0  0  0  0  0
    6.5166  -14.1737   21.6298 C   0  0  0  0  0  0  0  0  0  0  0  0
    6.8384  -12.9023   22.1067 C   0  0  0  0  0  0  0  0  0  0  0  0
    8.1584  -12.5462   22.2673 C   0  0  0  0  0  0  0  0  0  0  0  0
    9.1702  -13.4226   21.9655 C   0  0  0  0  0  0  0  0  0  0  0  0
   10.1694  -16.3761   23.4972 C   0  0  0  0  0  0  0  0  0  0  0  0
   10.9475  -15.4220   23.6819 O   0  0  0  0  0  0  0  0  0  0  0  0
    9.5858  -17.0158   24.6116 N   0  0  0  0  0  0  0  0  0  0  0  0
   10.0983  -16.7368   25.9319 C   0  0  1  0  0  0  0  0  0  0  0  0
    9.0381  -16.4255   26.9108 C   0  0  0  0  0  0  0  0  0  0  0  0
    7.7842  -15.8490   26.3838 C   0  0  0  0  0  0  0  0  0  0  0  0
    6.7162  -16.5963   25.8615 C   0  0  0  0  0  0  0  0  0  0  0  0
    5.7620  -15.7610   25.4435 N   0  0  0  0  0  0  0  0  0  0  0  0
    6.1591  -14.4998   25.6702 C   0  0  0  0  0  0  0  0  0  0  0  0
    5.5643  -13.2559   25.4498 C   0  0  0  0  0  0  0  0  0  0  0  0
    6.2250  -12.1050   25.8134 C   0  0  0  0  0  0  0  0  0  0  0  0
    7.4699  -12.1497   26.3945 C   0  0  0  0  0  0  0  0  0  0  0  0
    8.0620  -13.3774   26.6135 C   0  0  0  0  0  0  0  0  0  0  0  0
    7.3991  -14.5390   26.2476 C   0  0  0  0  0  0  0  0  0  0  0  0
   11.1675  -17.6601   26.3329 C   0  0  0  0  0  0  0  0  0  0  0  0
   11.3922  -18.6690   25.6206 O   0  0  0  0  0  0  0  0  0  0  0  0
   11.9773  -17.5260   27.4544 O   0  0  0  0  0  0  0  0  0  0  0  0
  2  1  1  0
  3  2  1  0
  4  3  2  0
  5  3  1  0
  6  7  1  6
  6  5  1  0
  8  7  1  0
  9  8  2  0
 10  9  1  0
 11 12  1  0
 11 10  2  0
 12 13  2  0
 13  8  1  0
 14 15  2  0
 14  6  1  0
 16 14  1  0
 17 16  1  0
 17 18  1  1
 19 18  1  0
 20 19  2  0
 21 20  1  0
 22 21  1  0
 22 27  2  0
 23 22  1  0
 24 23  2  0
 24 25  1  0
 25 26  2  0
 26 27  1  0
 27 19  1  0
 28 30  1  0
 28 17  1  0
 29 28  2  0
M  END
$$$$
