GFW.pdb
     RDKit          3D

 30 32  0  0  1  0  0  0  0  0999 V2000
    9.8289  -21.0703   20.3221 N   0  0  0  0  0  0  0  0  0  0  0  0
    8.8525  -20.4117   21.1344 C   0  0  0  0  0  0  0  0  0  0  0  0
    9.0015  -18.9448   20.9807 C   0  0  0  0  0  0  0  0  0  0  0  0
   10.0094  -18.4962   20.4165 O   0  0  0  0  0  0  0  0  0  0  0  0
    7.9982  -18.0524   21.4761 N   0  0  0  0  0  0  0  0  0  0  0  0
    8.1637  -16.6239   21.3934 C   0  0  1  0  0  0  0  0  0  0  0  0
    6.8436  -15.9022   21.3730 C   0  0  0  0  0  0  0  0  0  0  0  0
    7.0731  -14.4455   21.2113 C   0  0  0  0  0  0  0  0  0  0  0  0
    6.9565  -13.5794   22.2663 C   0  0  0  0  0  0  0  0  0  0  0  0
    7.1714  -12.2385   22.1069 C   0  0  0  0  0  0  0  0  0  0  0  0
    7.5142  -11.7631   20.8404 C   0  0  0  0  0  0  0  0  0  0  0  0
    7.6284  -12.6429   19.7877 C   0  0  0  0  0  0  0  0  0  0  0  0
    7.4102  -13.9865   19.9607 C   0  0  0  0  0  0  0  0  0  0  0  0
    8.9830  -16.1427   22.5499 C   0  0  0  0  0  0  0  0  0  0  0  0
    9.5516  -15.0398   22.4492 O   0  0  0  0  0  0  0  0  0  0  0  0
    9.1312  -16.8891   23.7385 N   0  0  0  0  0  0  0  0  0  0  0  0
    9.9479  -16.3604   24.8048 C   0  0  1  0  0  0  0  0  0  0  0  0
    9.1922  -16.1247   26.0508 C   0  0  0  0  0  0  0  0  0  0  0  0
    7.9685  -15.3033   25.9500 C   0  0  0  0  0  0  0  0  0  0  0  0
    6.6745  -15.8137   25.7578 C   0  0  0  0  0  0  0  0  0  0  0  0
    5.8119  -14.7977   25.6767 N   0  0  0  0  0  0  0  0  0  0  0  0
    6.4853  -13.6449   25.8083 C   0  0  0  0  0  0  0  0  0  0  0  0
    6.0937  -12.3046   25.8175 C   0  0  0  0  0  0  0  0  0  0  0  0
    7.0340  -11.3159   25.9953 C   0  0  0  0  0  0  0  0  0  0  0  0
    8.3641  -11.6181   26.1660 C   0  0  0  0  0  0  0  0  0  0  0  0
    8.7556  -12.9419   26.1569 C   0  0  0  0  0  0  0  0  0  0  0  0
    7.8106  -13.9404   25.9771 C   0  0  0  0  0  0  0  0  0  0  0  0
   11.2568  -17.0197   24.8980 C   0  0  0  0  0  0  0  0  0  0  0  0
   12.0996  -16.5747   25.7149 O   0  0  0  0  0  0  0  0  0  0  0  0
   11.6681  -18.1167   24.1504 O   0  0  0  0  0  0  0  0  0  0  0  0
  2  1  1  0
  3  2  1  0
  4  3  2  0
  5  3  1  0
  6  7  1  1
  6  5  1  0
  8  7  1  0
  9  8  2  0
 10  9  1  0
 11 12  1  0
 11 10  2  0
 12 13  2  0
 13  8  1  0
 14 15  2  0
 14  6  1  0
 16 14  1  0
 17 16  1  0
 17 18  1  1
 19 18  1  0
 20 19  2  0
 21 20  1  0
 22 21  1  0
 22 27  2  0
 23 22  1  0
 24 23  2  0
 24 25  1  0
 25 26  2  0
 26 27  1  0
 27 19  1  0
 28 30  1  0
 28 17  1  0
 29 28  2  0
M  END
$$$$
