GFW.pdb
     RDKit          3D

 30 32  0  0  1  0  0  0  0  0999 V2000
    9.6617  -17.3632   18.5781 N   0  0  0  0  0  0  0  0  0  0  0  0
    9.1184  -17.8098   19.8241 C   0  0  0  0  0  0  0  0  0  0  0  0
    9.1191  -16.6824   20.7868 C   0  0  0  0  0  0  0  0  0  0  0  0
    9.9839  -15.8010   20.6836 O   0  0  0  0  0  0  0  0  0  0  0  0
    8.1369  -16.6074   21.8251 N   0  0  0  0  0  0  0  0  0  0  0  0
    8.2322  -15.6233   22.8726 C   0  0  1  0  0  0  0  0  0  0  0  0
    6.8783  -15.1840   23.3603 C   0  0  0  0  0  0  0  0  0  0  0  0
    7.0378  -14.2377   24.4917 C   0  0  0  0  0  0  0  0  0  0  0  0
    6.5841  -14.5392   25.7486 C   0  0  0  0  0  0  0  0  0  0  0  0
    6.7371  -13.6605   26.7850 C   0  0  0  0  0  0  0  0  0  0  0  0
    7.3688  -12.4408   26.5383 C   0  0  0  0  0  0  0  0  0  0  0  0
    7.8206  -12.1487   25.2712 C   0  0  0  0  0  0  0  0  0  0  0  0
    7.6609  -13.0392   24.2395 C   0  0  0  0  0  0  0  0  0  0  0  0
    9.0239  -16.1777   24.0156 C   0  0  0  0  0  0  0  0  0  0  0  0
    8.6174  -15.9612   25.1722 O   0  0  0  0  0  0  0  0  0  0  0  0
   10.2032  -16.9299   23.8285 N   0  0  0  0  0  0  0  0  0  0  0  0
   11.4012  -16.5494   24.5382 C   0  0  1  0  0  0  0  0  0  0  0  0
   11.6105  -17.3232   25.7778 C   0  0  0  0  0  0  0  0  0  0  0  0
   10.7576  -16.9832   26.9350 C   0  0  0  0  0  0  0  0  0  0  0  0
    9.9418  -17.8949   27.6244 C   0  0  0  0  0  0  0  0  0  0  0  0
    9.2826  -17.2483   28.5889 N   0  0  0  0  0  0  0  0  0  0  0  0
    9.6322  -15.9534   28.5609 C   0  0  0  0  0  0  0  0  0  0  0  0
    9.2708  -14.8485   29.3345 C   0  0  0  0  0  0  0  0  0  0  0  0
    9.8248  -13.6165   29.0727 C   0  0  0  0  0  0  0  0  0  0  0  0
   10.7352  -13.4443   28.0573 C   0  0  0  0  0  0  0  0  0  0  0  0
   11.0947  -14.5339   27.2895 C   0  0  0  0  0  0  0  0  0  0  0  0
   10.5377  -15.7765   27.5503 C   0  0  0  0  0  0  0  0  0  0  0  0
   12.5481  -16.3405   23.6454 C   0  0  0  0  0  0  0  0  0  0  0  0
   13.2354  -15.2986   23.7797 O   0  0  0  0  0  0  0  0  0  0  0  0
   12.9598  -17.2040   22.6372 O   0  0  0  0  0  0  0  0  0  0  0  0
  2  1  1  0
  3  2  1  0
  4  3  2  0
  5  3  1  0
  6  7  1  1
  6  5  1  0
  8  7  1  0
  9  8  2  0
 10  9  1  0
 11 12  1  0
 11 10  2  0
 12 13  2  0
 13  8  1  0
 14 15  2  0
 14  6  1  0
 16 14  1  0
 17 16  1  0
 17 18  1  1
 19 18  1  0
 20 19  2  0
 21 20  1  0
 22 21  1  0
 22 27  2  0
 23 22  1  0
 24 23  2  0
 24 25  1  0
 25 26  2  0
 26 27  1  0
 27 19  1  0
 28 30  1  0
 28 17  1  0
 29 28  2  0
M  END
$$$$
