GFW.pdb
     RDKit          3D

 30 32  0  0  1  0  0  0  0  0999 V2000
   10.5607  -17.2634   17.5478 N   0  0  0  0  0  0  0  0  0  0  0  0
    9.6589  -17.8955   18.4612 C   0  0  0  0  0  0  0  0  0  0  0  0
    9.5862  -17.0938   19.7060 C   0  0  0  0  0  0  0  0  0  0  0  0
   10.5449  -16.3726   20.0165 O   0  0  0  0  0  0  0  0  0  0  0  0
    8.4269  -17.1478   20.5435 N   0  0  0  0  0  0  0  0  0  0  0  0
    8.3238  -16.3353   21.7284 C   0  0  1  0  0  0  0  0  0  0  0  0
    6.8950  -16.1406   22.1578 C   0  0  0  0  0  0  0  0  0  0  0  0
    6.8520  -15.3213   23.3938 C   0  0  0  0  0  0  0  0  0  0  0  0
    6.6689  -15.8910   24.6262 C   0  0  0  0  0  0  0  0  0  0  0  0
    6.6320  -15.1270   25.7595 C   0  0  0  0  0  0  0  0  0  0  0  0
    6.7853  -13.7452   25.6385 C   0  0  0  0  0  0  0  0  0  0  0  0
    6.9686  -13.1839   24.3950 C   0  0  0  0  0  0  0  0  0  0  0  0
    7.0037  -13.9617   23.2650 C   0  0  0  0  0  0  0  0  0  0  0  0
    9.1030  -16.9640   22.8411 C   0  0  0  0  0  0  0  0  0  0  0  0
    9.2590  -18.1990   22.8249 O   0  0  0  0  0  0  0  0  0  0  0  0
    9.6612  -16.2121   23.8968 N   0  0  0  0  0  0  0  0  0  0  0  0
   10.7385  -16.7791   24.6724 C   0  0  1  0  0  0  0  0  0  0  0  0
   11.4873  -15.7706   25.4477 C   0  0  0  0  0  0  0  0  0  0  0  0
   11.0017  -15.4737   26.8109 C   0  0  0  0  0  0  0  0  0  0  0  0
   11.2047  -16.2963   27.9306 C   0  0  0  0  0  0  0  0  0  0  0  0
   10.6048  -15.7478   28.9900 N   0  0  0  0  0  0  0  0  0  0  0  0
   10.0189  -14.6017   28.6121 C   0  0  0  0  0  0  0  0  0  0  0  0
    9.2827  -13.6330   29.2972 C   0  0  0  0  0  0  0  0  0  0  0  0
    8.8141  -12.5261   28.6276 C   0  0  0  0  0  0  0  0  0  0  0  0
    9.0550  -12.3481   27.2860 C   0  0  0  0  0  0  0  0  0  0  0  0
    9.7819  -13.3038   26.6047 C   0  0  0  0  0  0  0  0  0  0  0  0
   10.2549  -14.4207   27.2764 C   0  0  0  0  0  0  0  0  0  0  0  0
   10.3598  -18.0310   25.3402 C   0  0  0  0  0  0  0  0  0  0  0  0
   11.2219  -18.9353   25.4606 O   0  0  0  0  0  0  0  0  0  0  0  0
    9.1070  -18.3237   25.8658 O   0  0  0  0  0  0  0  0  0  0  0  0
  2  1  1  0
  3  2  1  0
  4  3  2  0
  5  3  1  0
  6  7  1  1
  6  5  1  0
  8  7  1  0
  9  8  2  0
 10  9  1  0
 11 12  1  0
 11 10  2  0
 12 13  2  0
 13  8  1  0
 14 15  2  0
 14  6  1  0
 16 14  1  0
 17 16  1  0
 17 18  1  1
 19 18  1  0
 20 19  2  0
 21 20  1  0
 22 21  1  0
 22 27  2  0
 23 22  1  0
 24 23  2  0
 24 25  1  0
 25 26  2  0
 26 27  1  0
 27 19  1  0
 28 30  1  0
 28 17  1  0
 29 28  2  0
M  END
$$$$
