AQS.pdb
     RDKit          3D

 21 20  0  0  1  0  0  0  0  0999 V2000
    3.8535  -18.4929   22.1504 C   0  0  0  0  0  0  0  0  0  0  0  0
    4.8381  -18.2951   21.0147 C   0  0  2  0  0  0  0  0  0  0  0  0
    5.1086  -19.5763   20.4264 N   0  0  0  0  0  0  0  0  0  0  0  0
    6.0777  -17.6107   21.4877 C   0  0  0  0  0  0  0  0  0  0  0  0
    6.9736  -18.2842   22.0270 O   0  0  0  0  0  0  0  0  0  0  0  0
    8.2073  -11.8384   19.4493 N   0  0  0  0  0  0  0  0  0  0  0  0
    8.1925  -13.1108   18.8152 C   0  0  0  0  0  0  0  0  0  0  0  0
    8.4222  -13.1326   17.5932 O   0  0  0  0  0  0  0  0  0  0  0  0
    7.9163  -14.3260   19.5663 C   0  0  0  0  0  0  0  0  0  0  0  0
    7.6078  -14.2227   21.0141 C   0  0  0  0  0  0  0  0  0  0  0  0
    7.3560  -15.4334   21.7838 C   0  0  2  0  0  0  0  0  0  0  0  0
    6.2423  -16.2020   21.3278 N   0  0  0  0  0  0  0  0  0  0  0  0
    7.3730  -15.3089   23.2612 C   0  0  0  0  0  0  0  0  0  0  0  0
    6.5318  -14.5567   23.8025 O   0  0  0  0  0  0  0  0  0  0  0  0
    7.0925  -17.8364   25.7312 O   0  0  0  0  0  0  0  0  0  0  0  0
    7.0444  -16.4690   25.9864 C   0  0  0  0  0  0  0  0  0  0  0  0
    8.3489  -15.8823   25.4372 C   0  0  2  0  0  0  0  0  0  0  0  0
    8.3356  -16.0417   24.0147 N   0  0  0  0  0  0  0  0  0  0  0  0
    9.4448  -16.6745   26.0429 C   0  0  0  0  0  0  0  0  0  0  0  0
   10.3572  -17.3510   25.2492 O   0  0  0  0  0  0  0  0  0  0  0  0
    9.5751  -16.7534   27.2877 O   0  0  0  0  0  0  0  0  0  0  0  0
  2  1  1  1
  3  2  1  0
  4  2  1  0
  4 12  1  0
  5  4  2  0
  6  7  1  0
  7  8  2  0
  9 10  1  0
  9  7  1  0
 11 10  1  6
 11 12  1  0
 11 13  1  0
 13 14  2  0
 13 18  1  0
 15 16  1  0
 17 16  1  1
 17 19  1  0
 18 17  1  0
 19 21  2  0
 19 20  1  0
M  END
$$$$
