AQS.pdb
     RDKit          3D

 21 20  0  0  1  0  0  0  0  0999 V2000
    7.9591  -12.3578   19.1604 C   0  0  0  0  0  0  0  0  0  0  0  0
    8.3405  -13.6691   18.5022 C   0  0  2  0  0  0  0  0  0  0  0  0
    7.4016  -13.9327   17.4488 N   0  0  0  0  0  0  0  0  0  0  0  0
    8.4035  -14.7766   19.5013 C   0  0  0  0  0  0  0  0  0  0  0  0
    7.3840  -15.4548   19.7193 O   0  0  0  0  0  0  0  0  0  0  0  0
   11.6067  -20.0603   19.8910 N   0  0  0  0  0  0  0  0  0  0  0  0
   11.8955  -19.3691   21.0994 C   0  0  0  0  0  0  0  0  0  0  0  0
   12.9148  -19.7214   21.7186 O   0  0  0  0  0  0  0  0  0  0  0  0
   11.0320  -18.3035   21.5851 C   0  0  0  0  0  0  0  0  0  0  0  0
   10.7083  -17.1715   20.6819 C   0  0  0  0  0  0  0  0  0  0  0  0
    9.8073  -16.1221   21.1388 C   0  0  2  0  0  0  0  0  0  0  0  0
    9.6136  -15.0614   20.2026 N   0  0  0  0  0  0  0  0  0  0  0  0
   10.0094  -15.6125   22.5165 C   0  0  0  0  0  0  0  0  0  0  0  0
   11.0108  -14.8969   22.7430 O   0  0  0  0  0  0  0  0  0  0  0  0
    7.0281  -15.9837   25.0148 O   0  0  0  0  0  0  0  0  0  0  0  0
    7.9660  -15.0588   25.4646 C   0  0  0  0  0  0  0  0  0  0  0  0
    9.3104  -15.4822   24.8639 C   0  0  2  0  0  0  0  0  0  0  0  0
    9.0676  -15.9480   23.5323 N   0  0  0  0  0  0  0  0  0  0  0  0
    9.8167  -16.5813   25.7192 C   0  0  0  0  0  0  0  0  0  0  0  0
   10.2133  -16.3422   27.0252 O   0  0  0  0  0  0  0  0  0  0  0  0
    9.8992  -17.7545   25.2842 O   0  0  0  0  0  0  0  0  0  0  0  0
  2  1  1  1
  3  2  1  0
  4  2  1  0
  4 12  1  0
  5  4  2  0
  6  7  1  0
  7  8  2  0
  9 10  1  0
  9  7  1  0
 11 10  1  6
 11 12  1  0
 11 13  1  0
 13 14  2  0
 13 18  1  0
 15 16  1  0
 17 16  1  1
 17 19  1  0
 18 17  1  0
 19 21  2  0
 19 20  1  0
M  END
$$$$
