AQS.pdb
     RDKit          3D

 21 20  0  0  1  0  0  0  0  0999 V2000
    3.1809  -18.3265   21.9440 C   0  0  0  0  0  0  0  0  0  0  0  0
    4.3111  -18.2468   20.9367 C   0  0  2  0  0  0  0  0  0  0  0  0
    4.4937  -19.5497   20.3624 N   0  0  0  0  0  0  0  0  0  0  0  0
    5.5585  -17.7199   21.5654 C   0  0  0  0  0  0  0  0  0  0  0  0
    6.3103  -18.5046   22.1704 O   0  0  0  0  0  0  0  0  0  0  0  0
    8.4718  -12.0926   20.0173 N   0  0  0  0  0  0  0  0  0  0  0  0
    8.2703  -13.2793   19.2606 C   0  0  0  0  0  0  0  0  0  0  0  0
    8.5202  -13.2193   18.0439 O   0  0  0  0  0  0  0  0  0  0  0  0
    7.7897  -14.5017   19.8865 C   0  0  0  0  0  0  0  0  0  0  0  0
    7.4563  -14.4870   21.3323 C   0  0  0  0  0  0  0  0  0  0  0  0
    7.0772  -15.7273   21.9955 C   0  0  2  0  0  0  0  0  0  0  0  0
    5.8930  -16.3351   21.4787 N   0  0  0  0  0  0  0  0  0  0  0  0
    7.0990  -15.7331   23.4781 C   0  0  0  0  0  0  0  0  0  0  0  0
    6.2627  -15.0278   24.0861 O   0  0  0  0  0  0  0  0  0  0  0  0
    7.6225  -18.7032   25.5541 O   0  0  0  0  0  0  0  0  0  0  0  0
    7.2710  -17.5194   26.1963 C   0  0  0  0  0  0  0  0  0  0  0  0
    8.1480  -16.4215   25.5856 C   0  0  2  0  0  0  0  0  0  0  0  0
    8.0606  -16.5332   24.1612 N   0  0  0  0  0  0  0  0  0  0  0  0
    9.5294  -16.6918   26.0485 C   0  0  0  0  0  0  0  0  0  0  0  0
    9.8412  -16.6896   27.3987 O   0  0  0  0  0  0  0  0  0  0  0  0
   10.4510  -16.9292   25.2319 O   0  0  0  0  0  0  0  0  0  0  0  0
  2  1  1  1
  3  2  1  0
  4  2  1  0
  4 12  1  0
  5  4  2  0
  6  7  1  0
  7  8  2  0
  9 10  1  0
  9  7  1  0
 11 10  1  1
 11 12  1  0
 11 13  1  0
 13 14  2  0
 13 18  1  0
 15 16  1  0
 17 16  1  1
 17 19  1  0
 18 17  1  0
 19 21  2  0
 19 20  1  0
M  END
$$$$
