AQS.pdb
     RDKit          3D

 21 20  0  0  1  0  0  0  0  0999 V2000
    7.8778  -12.3396   20.0773 C   0  0  0  0  0  0  0  0  0  0  0  0
    8.0545  -13.8341   19.8945 C   0  0  2  0  0  0  0  0  0  0  0  0
    7.0543  -14.2955   18.9740 N   0  0  0  0  0  0  0  0  0  0  0  0
    7.9983  -14.5487   21.2041 C   0  0  0  0  0  0  0  0  0  0  0  0
    6.8905  -14.8439   21.6863 O   0  0  0  0  0  0  0  0  0  0  0  0
   11.5633  -19.3248   22.9967 N   0  0  0  0  0  0  0  0  0  0  0  0
   10.6390  -19.0214   21.9599 C   0  0  0  0  0  0  0  0  0  0  0  0
   10.5394  -19.8479   21.0361 O   0  0  0  0  0  0  0  0  0  0  0  0
    9.8530  -17.7971   21.9830 C   0  0  0  0  0  0  0  0  0  0  0  0
   10.0706  -16.8228   23.0808 C   0  0  0  0  0  0  0  0  0  0  0  0
    9.2669  -15.6092   23.1350 C   0  0  2  0  0  0  0  0  0  0  0  0
    9.1949  -14.8932   21.9017 N   0  0  0  0  0  0  0  0  0  0  0  0
    9.4905  -14.7032   24.2872 C   0  0  0  0  0  0  0  0  0  0  0  0
   10.4571  -13.9096   24.2385 O   0  0  0  0  0  0  0  0  0  0  0  0
    7.2672  -12.3069   25.8685 O   0  0  0  0  0  0  0  0  0  0  0  0
    7.5420  -13.2122   26.8893 C   0  0  0  0  0  0  0  0  0  0  0  0
    8.8620  -13.8946   26.5159 C   0  0  2  0  0  0  0  0  0  0  0  0
    8.6080  -14.7607   25.4049 N   0  0  0  0  0  0  0  0  0  0  0  0
    9.2737  -14.6758   27.7058 C   0  0  0  0  0  0  0  0  0  0  0  0
    9.5040  -16.0394   27.6175 O   0  0  0  0  0  0  0  0  0  0  0  0
    9.4244  -14.1243   28.8219 O   0  0  0  0  0  0  0  0  0  0  0  0
  2  1  1  1
  3  2  1  0
  4  2  1  0
  4 12  1  0
  5  4  2  0
  6  7  1  0
  7  8  2  0
  9 10  1  0
  9  7  1  0
 11 10  1  6
 11 12  1  0
 11 13  1  0
 13 14  2  0
 13 18  1  0
 15 16  1  0
 17 16  1  1
 17 19  1  0
 18 17  1  0
 19 21  2  0
 19 20  1  0
M  END
$$$$
