AQS.pdb
     RDKit          3D

 21 20  0  0  1  0  0  0  0  0999 V2000
    7.9084  -12.4081   19.5202 C   0  0  0  0  0  0  0  0  0  0  0  0
    8.2709  -13.8715   19.6790 C   0  0  2  0  0  0  0  0  0  0  0  0
    7.7266  -14.5927   18.5635 N   0  0  0  0  0  0  0  0  0  0  0  0
    7.7976  -14.4059   20.9902 C   0  0  0  0  0  0  0  0  0  0  0  0
    6.5772  -14.5537   21.1794 O   0  0  0  0  0  0  0  0  0  0  0  0
    9.9290  -19.3525   23.9215 N   0  0  0  0  0  0  0  0  0  0  0  0
   10.8188  -18.2437   23.9372 C   0  0  0  0  0  0  0  0  0  0  0  0
   12.0166  -18.4874   24.1661 O   0  0  0  0  0  0  0  0  0  0  0  0
   10.3424  -16.8894   23.7001 C   0  0  0  0  0  0  0  0  0  0  0  0
    8.8902  -16.6628   23.4958 C   0  0  0  0  0  0  0  0  0  0  0  0
    8.3959  -15.3082   23.2902 C   0  0  2  0  0  0  0  0  0  0  0  0
    8.7257  -14.7458   22.0198 N   0  0  0  0  0  0  0  0  0  0  0  0
    8.6040  -14.3397   24.3935 C   0  0  0  0  0  0  0  0  0  0  0  0
    9.6773  -13.6967   24.4235 O   0  0  0  0  0  0  0  0  0  0  0  0
    5.9545  -11.9600   25.8592 O   0  0  0  0  0  0  0  0  0  0  0  0
    6.4633  -12.7144   26.9125 C   0  0  0  0  0  0  0  0  0  0  0  0
    7.8221  -13.2456   26.4447 C   0  0  2  0  0  0  0  0  0  0  0  0
    7.5869  -14.1700   25.3775 N   0  0  0  0  0  0  0  0  0  0  0  0
    8.4200  -13.9345   27.6125 C   0  0  0  0  0  0  0  0  0  0  0  0
    8.7448  -13.2340   28.7631 O   0  0  0  0  0  0  0  0  0  0  0  0
    8.6474  -15.1676   27.5900 O   0  0  0  0  0  0  0  0  0  0  0  0
  2  1  1  6
  3  2  1  0
  4  2  1  0
  4 12  1  0
  5  4  2  0
  6  7  1  0
  7  8  2  0
  9 10  1  0
  9  7  1  0
 11 10  1  1
 11 12  1  0
 11 13  1  0
 13 14  2  0
 13 18  1  0
 15 16  1  0
 17 16  1  1
 17 19  1  0
 18 17  1  0
 19 21  2  0
 19 20  1  0
M  END
$$$$
