AQS.pdb
     RDKit          3D

 21 20  0  0  1  0  0  0  0  0999 V2000
    8.0217  -12.4432   19.6152 C   0  0  0  0  0  0  0  0  0  0  0  0
    8.0767  -13.9580   19.6405 C   0  0  2  0  0  0  0  0  0  0  0  0
    7.1161  -14.4581   18.6983 N   0  0  0  0  0  0  0  0  0  0  0  0
    7.8510  -14.4836   21.0195 C   0  0  0  0  0  0  0  0  0  0  0  0
    6.7013  -14.4669   21.4937 O   0  0  0  0  0  0  0  0  0  0  0  0
   11.2943  -18.8392   21.0022 N   0  0  0  0  0  0  0  0  0  0  0  0
   10.9682  -18.5551   22.3566 C   0  0  0  0  0  0  0  0  0  0  0  0
   11.7841  -18.9226   23.2202 O   0  0  0  0  0  0  0  0  0  0  0  0
    9.7338  -17.8700   22.7087 C   0  0  0  0  0  0  0  0  0  0  0  0
    9.8099  -16.5700   23.4200 C   0  0  0  0  0  0  0  0  0  0  0  0
    8.8402  -15.5263   23.1162 C   0  0  2  0  0  0  0  0  0  0  0  0
    8.9341  -15.0006   21.7919 N   0  0  0  0  0  0  0  0  0  0  0  0
    8.6658  -14.4537   24.1249 C   0  0  0  0  0  0  0  0  0  0  0  0
    9.4300  -13.4637   24.0759 O   0  0  0  0  0  0  0  0  0  0  0  0
    5.8451  -11.9704   26.7852 O   0  0  0  0  0  0  0  0  0  0  0  0
    5.9747  -13.0917   25.9708 C   0  0  0  0  0  0  0  0  0  0  0  0
    7.4507  -13.4982   26.0293 C   0  0  2  0  0  0  0  0  0  0  0  0
    7.6439  -14.5788   25.1106 N   0  0  0  0  0  0  0  0  0  0  0  0
    7.7016  -13.9422   27.4206 C   0  0  0  0  0  0  0  0  0  0  0  0
    7.9480  -15.2749   27.7092 O   0  0  0  0  0  0  0  0  0  0  0  0
    7.6975  -13.1249   28.3717 O   0  0  0  0  0  0  0  0  0  0  0  0
  2  1  1  1
  3  2  1  0
  4  2  1  0
  4 12  1  0
  5  4  2  0
  6  7  1  0
  7  8  2  0
  9 10  1  0
  9  7  1  0
 11 10  1  1
 11 12  1  0
 11 13  1  0
 13 14  2  0
 13 18  1  0
 15 16  1  0
 17 16  1  1
 17 19  1  0
 18 17  1  0
 19 21  2  0
 19 20  1  0
M  END
$$$$
