AQS.pdb
     RDKit          3D

 21 20  0  0  1  0  0  0  0  0999 V2000
    7.9806  -12.2483   19.5329 C   0  0  0  0  0  0  0  0  0  0  0  0
    8.4680  -13.5038   18.8369 C   0  0  2  0  0  0  0  0  0  0  0  0
    7.6049  -13.7616   17.7192 N   0  0  0  0  0  0  0  0  0  0  0  0
    8.5344  -14.6554   19.7847 C   0  0  0  0  0  0  0  0  0  0  0  0
    7.5607  -15.4241   19.8734 O   0  0  0  0  0  0  0  0  0  0  0  0
   13.0288  -18.7478   20.0374 N   0  0  0  0  0  0  0  0  0  0  0  0
   11.9626  -18.3821   19.1708 C   0  0  0  0  0  0  0  0  0  0  0  0
   11.9706  -18.8771   18.0300 O   0  0  0  0  0  0  0  0  0  0  0  0
   10.9171  -17.4674   19.6037 C   0  0  0  0  0  0  0  0  0  0  0  0
   10.9788  -16.9004   20.9736 C   0  0  0  0  0  0  0  0  0  0  0  0
    9.9230  -16.0068   21.4301 C   0  0  2  0  0  0  0  0  0  0  0  0
    9.6960  -14.8799   20.5830 N   0  0  0  0  0  0  0  0  0  0  0  0
    9.9342  -15.6268   22.8633 C   0  0  0  0  0  0  0  0  0  0  0  0
   10.6604  -14.6711   23.2177 O   0  0  0  0  0  0  0  0  0  0  0  0
    6.9615  -16.7059   25.0153 O   0  0  0  0  0  0  0  0  0  0  0  0
    7.7524  -15.7566   25.6561 C   0  0  0  0  0  0  0  0  0  0  0  0
    9.1863  -15.9923   25.1705 C   0  0  2  0  0  0  0  0  0  0  0  0
    9.1261  -16.3523   23.7864 N   0  0  0  0  0  0  0  0  0  0  0  0
    9.7173  -17.1135   25.9808 C   0  0  0  0  0  0  0  0  0  0  0  0
    9.9726  -16.9558   27.3337 O   0  0  0  0  0  0  0  0  0  0  0  0
    9.9492  -18.2325   25.4645 O   0  0  0  0  0  0  0  0  0  0  0  0
  2  1  1  1
  3  2  1  0
  4  2  1  0
  4 12  1  0
  5  4  2  0
  6  7  1  0
  7  8  2  0
  9 10  1  0
  9  7  1  0
 11 10  1  6
 11 12  1  0
 11 13  1  0
 13 14  2  0
 13 18  1  0
 15 16  1  0
 17 16  1  1
 17 19  1  0
 18 17  1  0
 19 21  2  0
 19 20  1  0
M  END
$$$$
