AQS.pdb
     RDKit          3D

 21 20  0  0  1  0  0  0  0  0999 V2000
   12.3973  -19.8220   17.6207 C   0  0  0  0  0  0  0  0  0  0  0  0
   11.3581  -18.7281   17.4731 C   0  0  2  0  0  0  0  0  0  0  0  0
   11.5623  -18.0823   16.2075 N   0  0  0  0  0  0  0  0  0  0  0  0
   11.4147  -17.7716   18.6180 C   0  0  0  0  0  0  0  0  0  0  0  0
   12.5117  -17.5297   19.1519 O   0  0  0  0  0  0  0  0  0  0  0  0
    6.5644  -13.7456   19.9517 N   0  0  0  0  0  0  0  0  0  0  0  0
    7.4333  -13.8429   18.8305 C   0  0  0  0  0  0  0  0  0  0  0  0
    7.0842  -13.2482   17.7957 O   0  0  0  0  0  0  0  0  0  0  0  0
    8.6691  -14.6080   18.8967 C   0  0  0  0  0  0  0  0  0  0  0  0
    9.0033  -15.3284   20.1502 C   0  0  0  0  0  0  0  0  0  0  0  0
   10.1615  -16.2111   20.1853 C   0  0  2  0  0  0  0  0  0  0  0  0
   10.2307  -17.1376   19.1010 N   0  0  0  0  0  0  0  0  0  0  0  0
   10.4796  -16.8547   21.4826 C   0  0  0  0  0  0  0  0  0  0  0  0
    9.9439  -17.9547   21.7459 O   0  0  0  0  0  0  0  0  0  0  0  0
   13.9572  -16.4089   23.1547 O   0  0  0  0  0  0  0  0  0  0  0  0
   12.9956  -16.2484   24.1481 C   0  0  0  0  0  0  0  0  0  0  0  0
   11.7074  -16.8762   23.6058 C   0  0  2  0  0  0  0  0  0  0  0  0
   11.3770  -16.2099   22.3828 N   0  0  0  0  0  0  0  0  0  0  0  0
   10.6665  -16.6339   24.6322 C   0  0  0  0  0  0  0  0  0  0  0  0
   10.7600  -17.2071   25.8903 O   0  0  0  0  0  0  0  0  0  0  0  0
    9.6754  -15.9050   24.3896 O   0  0  0  0  0  0  0  0  0  0  0  0
  2  1  1  1
  3  2  1  0
  4  2  1  0
  4 12  1  0
  5  4  2  0
  6  7  1  0
  7  8  2  0
  9 10  1  0
  9  7  1  0
 11 10  1  1
 11 12  1  0
 11 13  1  0
 13 14  2  0
 13 18  1  0
 15 16  1  0
 17 16  1  1
 17 19  1  0
 18 17  1  0
 19 21  2  0
 19 20  1  0
M  END
$$$$
