AQS.pdb
     RDKit          3D

 21 20  0  0  1  0  0  0  0  0999 V2000
    7.1156  -12.9493   19.9139 C   0  0  0  0  0  0  0  0  0  0  0  0
    8.1955  -13.9088   20.3739 C   0  0  2  0  0  0  0  0  0  0  0  0
    8.0626  -15.1268   19.6259 N   0  0  0  0  0  0  0  0  0  0  0  0
    8.1259  -14.1336   21.8482 C   0  0  0  0  0  0  0  0  0  0  0  0
    8.1470  -13.1525   22.6124 O   0  0  0  0  0  0  0  0  0  0  0  0
    6.4795  -19.8955   24.4609 N   0  0  0  0  0  0  0  0  0  0  0  0
    6.7979  -19.0505   25.5591 C   0  0  0  0  0  0  0  0  0  0  0  0
    6.6638  -19.5334   26.6972 O   0  0  0  0  0  0  0  0  0  0  0  0
    7.2544  -17.6843   25.3535 C   0  0  0  0  0  0  0  0  0  0  0  0
    7.3810  -17.1687   23.9679 C   0  0  0  0  0  0  0  0  0  0  0  0
    7.7846  -15.7863   23.7493 C   0  0  2  0  0  0  0  0  0  0  0  0
    8.0360  -15.4535   22.3836 N   0  0  0  0  0  0  0  0  0  0  0  0
    8.8247  -15.2367   24.6519 C   0  0  0  0  0  0  0  0  0  0  0  0
   10.0261  -15.4222   24.3544 O   0  0  0  0  0  0  0  0  0  0  0  0
    7.7133  -12.5531   27.2310 O   0  0  0  0  0  0  0  0  0  0  0  0
    9.0939  -12.5786   27.0558 C   0  0  0  0  0  0  0  0  0  0  0  0
    9.4545  -14.0214   26.6872 C   0  0  2  0  0  0  0  0  0  0  0  0
    8.4311  -14.5203   25.8196 N   0  0  0  0  0  0  0  0  0  0  0  0
    9.4772  -14.7791   27.9604 C   0  0  0  0  0  0  0  0  0  0  0  0
   10.3739  -14.4551   28.9659 O   0  0  0  0  0  0  0  0  0  0  0  0
    8.6868  -15.7318   28.1610 O   0  0  0  0  0  0  0  0  0  0  0  0
  2  1  1  6
  3  2  1  0
  4  2  1  0
  4 12  1  0
  5  4  2  0
  6  7  1  0
  7  8  2  0
  9 10  1  0
  9  7  1  0
 11 10  1  6
 11 12  1  0
 11 13  1  0
 13 14  2  0
 13 18  1  0
 15 16  1  0
 17 16  1  1
 17 19  1  0
 18 17  1  0
 19 21  2  0
 19 20  1  0
M  END
$$$$
