AQS.pdb
     RDKit          3D

 21 20  0  0  1  0  0  0  0  0999 V2000
    8.3092  -12.7892   19.6215 C   0  0  0  0  0  0  0  0  0  0  0  0
    8.2076  -14.2923   19.7903 C   0  0  2  0  0  0  0  0  0  0  0  0
    7.5274  -14.8280   18.6454 N   0  0  0  0  0  0  0  0  0  0  0  0
    7.5322  -14.6472   21.0736 C   0  0  0  0  0  0  0  0  0  0  0  0
    6.2901  -14.6203   21.1323 O   0  0  0  0  0  0  0  0  0  0  0  0
    8.2409  -19.5221   24.6946 N   0  0  0  0  0  0  0  0  0  0  0  0
    7.5069  -18.6286   25.5219 C   0  0  0  0  0  0  0  0  0  0  0  0
    7.0199  -19.0998   26.5646 O   0  0  0  0  0  0  0  0  0  0  0  0
    7.3341  -17.2307   25.1571 C   0  0  0  0  0  0  0  0  0  0  0  0
    7.8498  -16.7595   23.8479 C   0  0  0  0  0  0  0  0  0  0  0  0
    7.7615  -15.3462   23.5069 C   0  0  2  0  0  0  0  0  0  0  0  0
    8.2932  -15.0140   22.2240 N   0  0  0  0  0  0  0  0  0  0  0  0
    8.1791  -14.3744   24.5460 C   0  0  0  0  0  0  0  0  0  0  0  0
    9.4016  -14.1463   24.6875 O   0  0  0  0  0  0  0  0  0  0  0  0
    5.3356  -12.6798   26.8400 O   0  0  0  0  0  0  0  0  0  0  0  0
    6.4168  -11.8393   26.5911 C   0  0  0  0  0  0  0  0  0  0  0  0
    7.6119  -12.7513   26.2953 C   0  0  2  0  0  0  0  0  0  0  0  0
    7.1876  -13.7344   25.3452 N   0  0  0  0  0  0  0  0  0  0  0  0
    7.9730  -13.3890   27.5832 C   0  0  0  0  0  0  0  0  0  0  0  0
    8.5143  -12.6447   28.6191 O   0  0  0  0  0  0  0  0  0  0  0  0
    7.7986  -14.6169   27.7690 O   0  0  0  0  0  0  0  0  0  0  0  0
  2  1  1  6
  3  2  1  0
  4  2  1  0
  4 12  1  0
  5  4  2  0
  6  7  1  0
  7  8  2  0
  9 10  1  0
  9  7  1  0
 11 10  1  1
 11 12  1  0
 11 13  1  0
 13 14  2  0
 13 18  1  0
 15 16  1  0
 17 16  1  1
 17 19  1  0
 18 17  1  0
 19 21  2  0
 19 20  1  0
M  END
$$$$
