KMK.pdb
     RDKit          3D

 27 26  0  0  1  0  0  0  0  0999 V2000
    7.2020  -15.7852   20.3837 N   0  0  0  0  0  0  0  0  0  0  0  0
    8.5582  -15.2712   20.4607 C   0  0  1  0  0  0  0  0  0  0  0  0
    8.5540  -13.8626   19.7966 C   0  0  0  0  0  0  0  0  0  0  0  0
    7.8707  -13.9758   18.4648 C   0  0  0  0  0  0  0  0  0  0  0  0
    8.2597  -12.9547   17.4495 C   0  0  0  0  0  0  0  0  0  0  0  0
    7.5932  -13.0170   16.1331 C   0  0  0  0  0  0  0  0  0  0  0  0
    8.3227  -13.7578   15.1403 N   0  0  0  0  0  0  0  0  0  0  0  0
    8.9708  -15.0750   21.8817 C   0  0  0  0  0  0  0  0  0  0  0  0
   10.1875  -14.7929   22.1752 O   0  0  0  0  0  0  0  0  0  0  0  0
    6.7944  -11.2520   27.2520 C   0  0  0  0  0  0  0  0  0  0  0  0
    6.0407  -12.9139   27.1216 S   0  0  0  0  0  0  0  0  0  0  0  0
    7.3077  -14.0787   26.4676 C   0  0  0  0  0  0  0  0  0  0  0  0
    7.0375  -14.2739   24.9776 C   0  0  0  0  0  0  0  0  0  0  0  0
    8.1905  -15.0227   24.3150 C   0  0  2  0  0  0  0  0  0  0  0  0
    8.0120  -15.1952   22.8995 N   0  0  0  0  0  0  0  0  0  0  0  0
    8.5605  -16.2655   24.9534 C   0  0  0  0  0  0  0  0  0  0  0  0
    7.8604  -17.3046   25.0363 O   0  0  0  0  0  0  0  0  0  0  0  0
    9.8426  -16.3525   25.5540 N   0  0  0  0  0  0  0  0  0  0  0  0
   10.2188  -17.6512   26.2459 C   0  0  1  0  0  0  0  0  0  0  0  0
   11.4909  -18.0301   25.5575 C   0  0  0  0  0  0  0  0  0  0  0  0
   12.1026  -19.3306   25.6104 C   0  0  0  0  0  0  0  0  0  0  0  0
   13.3810  -19.5832   24.9007 C   0  0  0  0  0  0  0  0  0  0  0  0
   13.7862  -21.0356   25.2638 C   0  0  0  0  0  0  0  0  0  0  0  0
   14.8658  -21.3980   24.3735 N   0  0  0  0  0  0  0  0  0  0  0  0
   10.4241  -17.2115   27.6329 C   0  0  0  0  0  0  0  0  0  0  0  0
   10.4941  -18.1887   28.6686 O   0  0  0  0  0  0  0  0  0  0  0  0
   10.5420  -16.0022   28.0027 O   0  0  0  0  0  0  0  0  0  0  0  0
  2  1  1  1
  2  8  1  0
  2  3  1  0
  3  4  1  0
  4  5  1  0
  5  6  1  0
  6  7  1  0
  8 15  1  0
  9  8  2  0
 10 11  1  0
 11 12  1  0
 14 13  1  1
 13 12  1  0
 15 14  1  0
 16 14  1  0
 16 17  2  0
 18 16  1  0
 19 18  1  0
 19 25  1  0
 19 20  1  6
 21 20  1  0
 21 22  1  0
 23 24  1  0
 23 22  1  0
 25 26  1  0
 27 25  2  0
M  END
$$$$
