KMK.pdb
     RDKit          3D

 27 26  0  0  1  0  0  0  0  0999 V2000
    7.0755  -15.7813   20.5777 N   0  0  0  0  0  0  0  0  0  0  0  0
    8.4346  -15.2695   20.5932 C   0  0  1  0  0  0  0  0  0  0  0  0
    8.4172  -13.8979   19.8558 C   0  0  0  0  0  0  0  0  0  0  0  0
    7.8709  -14.1164   18.4748 C   0  0  0  0  0  0  0  0  0  0  0  0
    8.3649  -13.1762   17.4276 C   0  0  0  0  0  0  0  0  0  0  0  0
    7.7984  -13.3120   16.0705 C   0  0  0  0  0  0  0  0  0  0  0  0
    8.2478  -12.3090   15.1437 N   0  0  0  0  0  0  0  0  0  0  0  0
    8.8837  -15.0001   21.9909 C   0  0  0  0  0  0  0  0  0  0  0  0
   10.1066  -14.7006   22.2373 O   0  0  0  0  0  0  0  0  0  0  0  0
    7.5200  -10.8311   26.6665 C   0  0  0  0  0  0  0  0  0  0  0  0
    6.5426  -12.3023   27.1433 S   0  0  0  0  0  0  0  0  0  0  0  0
    7.4476  -13.8074   26.5905 C   0  0  0  0  0  0  0  0  0  0  0  0
    7.1008  -14.0479   25.1232 C   0  0  0  0  0  0  0  0  0  0  0  0
    8.1804  -14.8873   24.4455 C   0  0  2  0  0  0  0  0  0  0  0  0
    7.9525  -15.0706   23.0385 N   0  0  0  0  0  0  0  0  0  0  0  0
    8.4794  -16.1421   25.0974 C   0  0  0  0  0  0  0  0  0  0  0  0
    7.7589  -17.1704   25.1134 O   0  0  0  0  0  0  0  0  0  0  0  0
    9.7086  -16.2559   25.7963 N   0  0  0  0  0  0  0  0  0  0  0  0
   10.0421  -17.5912   26.4385 C   0  0  1  0  0  0  0  0  0  0  0  0
   11.1477  -18.1023   25.5713 C   0  0  0  0  0  0  0  0  0  0  0  0
   11.3742  -19.4861   25.2522 C   0  0  0  0  0  0  0  0  0  0  0  0
   12.4624  -19.8681   24.3185 C   0  0  0  0  0  0  0  0  0  0  0  0
   12.4688  -21.4188   24.2884 C   0  0  0  0  0  0  0  0  0  0  0  0
   13.4822  -21.8091   23.3345 N   0  0  0  0  0  0  0  0  0  0  0  0
   10.5001  -17.1834   27.7740 C   0  0  0  0  0  0  0  0  0  0  0  0
   10.7678  -18.1849   28.7527 O   0  0  0  0  0  0  0  0  0  0  0  0
   10.6778  -15.9824   28.1467 O   0  0  0  0  0  0  0  0  0  0  0  0
  2  1  1  1
  2  8  1  0
  2  3  1  0
  3  4  1  0
  4  5  1  0
  5  6  1  0
  6  7  1  0
  8 15  1  0
  9  8  2  0
 10 11  1  0
 11 12  1  0
 14 13  1  1
 13 12  1  0
 15 14  1  0
 16 14  1  0
 16 17  2  0
 18 16  1  0
 19 18  1  0
 19 25  1  0
 19 20  1  6
 21 20  1  0
 21 22  1  0
 23 24  1  0
 23 22  1  0
 25 26  1  0
 27 25  2  0
M  END
$$$$
