KMK.pdb
     RDKit          3D

 27 26  0  0  1  0  0  0  0  0999 V2000
    7.9610  -13.5718   19.3365 N   0  0  0  0  0  0  0  0  0  0  0  0
    7.1923  -14.0386   20.4770 C   0  0  1  0  0  0  0  0  0  0  0  0
    6.5194  -15.3796   20.0595 C   0  0  0  0  0  0  0  0  0  0  0  0
    7.5994  -16.4041   19.8659 C   0  0  0  0  0  0  0  0  0  0  0  0
    7.1526  -17.7207   19.3257 C   0  0  0  0  0  0  0  0  0  0  0  0
    8.1971  -18.7164   19.0120 C   0  0  0  0  0  0  0  0  0  0  0  0
    7.6894  -19.9528   18.4826 N   0  0  0  0  0  0  0  0  0  0  0  0
    8.0889  -14.3485   21.6294 C   0  0  0  0  0  0  0  0  0  0  0  0
    9.3640  -14.3045   21.4947 O   0  0  0  0  0  0  0  0  0  0  0  0
    7.7700  -11.1054   28.2473 C   0  0  0  0  0  0  0  0  0  0  0  0
    6.7383  -11.7795   26.8950 S   0  0  0  0  0  0  0  0  0  0  0  0
    7.3616  -13.4585   26.4680 C   0  0  0  0  0  0  0  0  0  0  0  0
    6.8347  -13.8129   25.0796 C   0  0  0  0  0  0  0  0  0  0  0  0
    7.9683  -14.3012   24.1820 C   0  0  2  0  0  0  0  0  0  0  0  0
    7.5243  -14.6836   22.8698 N   0  0  0  0  0  0  0  0  0  0  0  0
    8.8179  -15.3144   24.7655 C   0  0  0  0  0  0  0  0  0  0  0  0
    9.3254  -15.2986   25.9139 O   0  0  0  0  0  0  0  0  0  0  0  0
    9.1251  -16.4590   23.9859 N   0  0  0  0  0  0  0  0  0  0  0  0
    9.9496  -17.5598   24.6303 C   0  0  1  0  0  0  0  0  0  0  0  0
   11.2914  -17.3745   23.9972 C   0  0  0  0  0  0  0  0  0  0  0  0
   11.6071  -17.6782   22.6274 C   0  0  0  0  0  0  0  0  0  0  0  0
   13.0088  -17.5928   22.1481 C   0  0  0  0  0  0  0  0  0  0  0  0
   12.9705  -18.0059   20.6537 C   0  0  0  0  0  0  0  0  0  0  0  0
   14.3329  -17.9481   20.1743 N   0  0  0  0  0  0  0  0  0  0  0  0
    9.9238  -17.1726   26.0476 C   0  0  0  0  0  0  0  0  0  0  0  0
   10.4030  -15.8841   26.4250 O   0  0  0  0  0  0  0  0  0  0  0  0
    9.5059  -17.9080   26.9950 O   0  0  0  0  0  0  0  0  0  0  0  0
  2  1  1  6
  2  8  1  0
  2  3  1  0
  3  4  1  0
  4  5  1  0
  5  6  1  0
  6  7  1  0
  8 15  1  0
  9  8  2  0
 10 11  1  0
 11 12  1  0
 14 13  1  1
 13 12  1  0
 15 14  1  0
 16 14  1  0
 16 17  2  0
 18 16  1  0
 19 18  1  0
 19 25  1  0
 19 20  1  6
 21 20  1  0
 21 22  1  0
 23 24  1  0
 23 22  1  0
 25 26  1  0
 27 25  2  0
M  END
$$$$
