KMK.pdb
     RDKit          3D

 27 26  0  0  1  0  0  0  0  0999 V2000
    8.0716  -17.5638   21.0572 N   0  0  0  0  0  0  0  0  0  0  0  0
    8.9709  -16.4292   20.9406 C   0  0  1  0  0  0  0  0  0  0  0  0
    8.4862  -15.5818   19.7273 C   0  0  0  0  0  0  0  0  0  0  0  0
    8.4527  -16.4719   18.5190 C   0  0  0  0  0  0  0  0  0  0  0  0
    8.5704  -15.7803   17.2027 C   0  0  0  0  0  0  0  0  0  0  0  0
    8.4733  -16.6126   15.9866 C   0  0  0  0  0  0  0  0  0  0  0  0
    8.4025  -15.8595   14.7641 N   0  0  0  0  0  0  0  0  0  0  0  0
    8.8748  -15.5510   22.1438 C   0  0  0  0  0  0  0  0  0  0  0  0
    8.7520  -14.2803   22.0162 O   0  0  0  0  0  0  0  0  0  0  0  0
    6.7604  -11.1854   26.1230 C   0  0  0  0  0  0  0  0  0  0  0  0
    7.8680  -12.6358   26.2525 S   0  0  0  0  0  0  0  0  0  0  0  0
    6.8735  -14.1567   25.9566 C   0  0  0  0  0  0  0  0  0  0  0  0
    7.2576  -14.7061   24.5848 C   0  0  0  0  0  0  0  0  0  0  0  0
    8.5327  -15.5398   24.6765 C   0  0  2  0  0  0  0  0  0  0  0  0
    8.9134  -16.1286   23.4221 N   0  0  0  0  0  0  0  0  0  0  0  0
    8.5505  -16.5159   25.7423 C   0  0  0  0  0  0  0  0  0  0  0  0
    7.6202  -17.2967   26.0610 O   0  0  0  0  0  0  0  0  0  0  0  0
    9.7284  -16.6298   26.5245 N   0  0  0  0  0  0  0  0  0  0  0  0
    9.9890  -17.9482   27.2322 C   0  0  1  0  0  0  0  0  0  0  0  0
   11.1789  -18.4810   26.5000 C   0  0  0  0  0  0  0  0  0  0  0  0
   11.7598  -19.7806   26.7037 C   0  0  0  0  0  0  0  0  0  0  0  0
   12.9603  -20.1903   25.9338 C   0  0  0  0  0  0  0  0  0  0  0  0
   13.2323  -21.6655   26.3279 C   0  0  0  0  0  0  0  0  0  0  0  0
   14.3048  -22.1293   25.4770 N   0  0  0  0  0  0  0  0  0  0  0  0
   10.3041  -17.5064   28.5977 C   0  0  0  0  0  0  0  0  0  0  0  0
   10.3173  -16.1113   28.8912 O   0  0  0  0  0  0  0  0  0  0  0  0
   10.5800  -18.2794   29.5669 O   0  0  0  0  0  0  0  0  0  0  0  0
  2  1  1  1
  2  8  1  0
  2  3  1  0
  3  4  1  0
  4  5  1  0
  5  6  1  0
  6  7  1  0
  8 15  1  0
  9  8  2  0
 10 11  1  0
 11 12  1  0
 14 13  1  6
 13 12  1  0
 15 14  1  0
 16 14  1  0
 16 17  2  0
 18 16  1  0
 19 18  1  0
 19 25  1  0
 19 20  1  6
 21 20  1  0
 21 22  1  0
 23 24  1  0
 23 22  1  0
 25 26  1  0
 27 25  2  0
M  END
$$$$
