KMK.pdb
     RDKit          3D

 27 26  0  0  1  0  0  0  0  0999 V2000
    8.1231  -17.0952   20.8592 N   0  0  0  0  0  0  0  0  0  0  0  0
    9.5115  -17.2718   21.2474 C   0  0  1  0  0  0  0  0  0  0  0  0
   10.3869  -16.6749   20.1061 C   0  0  0  0  0  0  0  0  0  0  0  0
    9.9194  -17.2584   18.8044 C   0  0  0  0  0  0  0  0  0  0  0  0
   10.9592  -17.9650   18.0018 C   0  0  0  0  0  0  0  0  0  0  0  0
   10.5287  -18.5988   16.7392 C   0  0  0  0  0  0  0  0  0  0  0  0
   11.5608  -19.3499   16.0778 N   0  0  0  0  0  0  0  0  0  0  0  0
    9.8208  -16.4892   22.4802 C   0  0  0  0  0  0  0  0  0  0  0  0
   11.0117  -16.4659   22.9569 O   0  0  0  0  0  0  0  0  0  0  0  0
    6.6633  -11.2846   27.6041 C   0  0  0  0  0  0  0  0  0  0  0  0
    6.3133  -12.3969   26.1942 S   0  0  0  0  0  0  0  0  0  0  0  0
    7.7033  -13.5940   26.0375 C   0  0  0  0  0  0  0  0  0  0  0  0
    7.6444  -14.1969   24.6360 C   0  0  0  0  0  0  0  0  0  0  0  0
    8.8129  -15.1526   24.4115 C   0  0  2  0  0  0  0  0  0  0  0  0
    8.7959  -15.7698   23.1137 N   0  0  0  0  0  0  0  0  0  0  0  0
    9.0129  -16.1311   25.4562 C   0  0  0  0  0  0  0  0  0  0  0  0
    8.2366  -17.0682   25.7660 O   0  0  0  0  0  0  0  0  0  0  0  0
   10.2017  -16.0530   26.2263 N   0  0  0  0  0  0  0  0  0  0  0  0
   10.4445  -17.1266   27.2729 C   0  0  1  0  0  0  0  0  0  0  0  0
   11.7186  -17.7543   26.8057 C   0  0  0  0  0  0  0  0  0  0  0  0
   11.8706  -18.5078   25.5903 C   0  0  0  0  0  0  0  0  0  0  0  0
   13.2031  -19.0293   25.1975 C   0  0  0  0  0  0  0  0  0  0  0  0
   13.0232  -19.6205   23.7750 C   0  0  0  0  0  0  0  0  0  0  0  0
   14.3393  -20.0062   23.3185 N   0  0  0  0  0  0  0  0  0  0  0  0
   10.6104  -16.3301   28.4965 C   0  0  0  0  0  0  0  0  0  0  0  0
   10.5307  -14.9089   28.4170 O   0  0  0  0  0  0  0  0  0  0  0  0
   10.8312  -16.8091   29.6519 O   0  0  0  0  0  0  0  0  0  0  0  0
  2  1  1  6
  2  8  1  0
  2  3  1  0
  3  4  1  0
  4  5  1  0
  5  6  1  0
  6  7  1  0
  8 15  1  0
  9  8  2  0
 10 11  1  0
 11 12  1  0
 14 13  1  1
 13 12  1  0
 15 14  1  0
 16 14  1  0
 16 17  2  0
 18 16  1  0
 19 18  1  0
 19 25  1  0
 19 20  1  6
 21 20  1  0
 21 22  1  0
 23 24  1  0
 23 22  1  0
 25 26  1  0
 27 25  2  0
M  END
$$$$
