KMK.pdb
     RDKit          3D

 27 26  0  0  1  0  0  0  0  0999 V2000
    7.9902  -16.8296   20.2453 N   0  0  0  0  0  0  0  0  0  0  0  0
    8.9985  -17.4300   21.1010 C   0  0  1  0  0  0  0  0  0  0  0  0
   10.2505  -17.7007   20.2152 C   0  0  0  0  0  0  0  0  0  0  0  0
    9.8941  -17.3823   18.7922 C   0  0  0  0  0  0  0  0  0  0  0  0
   10.9404  -17.6979   17.7772 C   0  0  0  0  0  0  0  0  0  0  0  0
   10.6894  -17.2693   16.3864 C   0  0  0  0  0  0  0  0  0  0  0  0
   11.8276  -17.3987   15.5178 N   0  0  0  0  0  0  0  0  0  0  0  0
    9.4248  -16.4766   22.1674 C   0  0  0  0  0  0  0  0  0  0  0  0
   10.6681  -16.3149   22.4396 O   0  0  0  0  0  0  0  0  0  0  0  0
    6.5816  -11.3091   27.5736 C   0  0  0  0  0  0  0  0  0  0  0  0
    6.2908  -12.2141   26.0103 S   0  0  0  0  0  0  0  0  0  0  0  0
    7.6565  -13.4264   25.7761 C   0  0  0  0  0  0  0  0  0  0  0  0
    7.4701  -14.0812   24.4095 C   0  0  0  0  0  0  0  0  0  0  0  0
    8.5727  -15.1034   24.1474 C   0  0  2  0  0  0  0  0  0  0  0  0
    8.4513  -15.7494   22.8694 N   0  0  0  0  0  0  0  0  0  0  0  0
    8.7788  -16.0662   25.2055 C   0  0  0  0  0  0  0  0  0  0  0  0
    7.9706  -16.9487   25.5857 O   0  0  0  0  0  0  0  0  0  0  0  0
   10.0139  -16.0388   25.9027 N   0  0  0  0  0  0  0  0  0  0  0  0
   10.2697  -17.1165   26.9419 C   0  0  1  0  0  0  0  0  0  0  0  0
   11.5299  -17.7521   26.4484 C   0  0  0  0  0  0  0  0  0  0  0  0
   12.0137  -19.0459   26.8485 C   0  0  0  0  0  0  0  0  0  0  0  0
   13.2691  -19.5848   26.2695 C   0  0  0  0  0  0  0  0  0  0  0  0
   13.5133  -20.9423   26.9790 C   0  0  0  0  0  0  0  0  0  0  0  0
   14.7059  -21.5076   26.3897 N   0  0  0  0  0  0  0  0  0  0  0  0
   10.4651  -16.3241   28.1638 C   0  0  0  0  0  0  0  0  0  0  0  0
   10.4661  -16.9842   29.4275 O   0  0  0  0  0  0  0  0  0  0  0  0
   10.6321  -15.0655   28.1957 O   0  0  0  0  0  0  0  0  0  0  0  0
  2  1  1  6
  2  8  1  0
  2  3  1  0
  3  4  1  0
  4  5  1  0
  5  6  1  0
  6  7  1  0
  8 15  1  0
  9  8  2  0
 10 11  1  0
 11 12  1  0
 14 13  1  1
 13 12  1  0
 15 14  1  0
 16 14  1  0
 16 17  2  0
 18 16  1  0
 19 18  1  0
 19 25  1  0
 19 20  1  6
 21 20  1  0
 21 22  1  0
 23 24  1  0
 23 22  1  0
 25 26  1  0
 27 25  2  0
M  END
$$$$
