YMQ.pdb
     RDKit          3D

 30 30  0  0  1  0  0  0  0  0999 V2000
    7.8327  -13.9659   14.7814 O   0  0  0  0  0  0  0  0  0  0  0  0
    8.1235  -13.8800   16.1335 C   0  0  0  0  0  0  0  0  0  0  0  0
    7.4379  -13.0286   16.9722 C   0  0  0  0  0  0  0  0  0  0  0  0
    7.7190  -12.9350   18.3189 C   0  0  0  0  0  0  0  0  0  0  0  0
    8.7167  -13.7056   18.8874 C   0  0  0  0  0  0  0  0  0  0  0  0
    9.0478  -13.6350   20.3177 C   0  0  0  0  0  0  0  0  0  0  0  0
    8.8485  -14.9805   20.9802 C   0  0  2  0  0  0  0  0  0  0  0  0
    7.5131  -15.4337   20.6343 N   0  0  0  0  0  0  0  0  0  0  0  0
    9.0159  -14.8891   22.4565 C   0  0  0  0  0  0  0  0  0  0  0  0
   10.1568  -14.6151   22.9511 O   0  0  0  0  0  0  0  0  0  0  0  0
    9.4018  -14.5585   18.0418 C   0  0  0  0  0  0  0  0  0  0  0  0
    9.1305  -14.6602   16.6982 C   0  0  0  0  0  0  0  0  0  0  0  0
    7.5408  -11.4639   26.6768 C   0  0  0  0  0  0  0  0  0  0  0  0
    6.3347  -12.6035   27.4056 S   0  0  0  0  0  0  0  0  0  0  0  0
    6.8616  -14.3056   26.9039 C   0  0  0  0  0  0  0  0  0  0  0  0
    6.9034  -14.3741   25.4165 C   0  0  0  0  0  0  0  0  0  0  0  0
    8.1422  -14.9696   24.8371 C   0  0  2  0  0  0  0  0  0  0  0  0
    7.9627  -15.0920   23.3710 N   0  0  0  0  0  0  0  0  0  0  0  0
    8.5700  -16.2697   25.3835 C   0  0  0  0  0  0  0  0  0  0  0  0
    7.7808  -17.2733   25.3606 O   0  0  0  0  0  0  0  0  0  0  0  0
   13.8729  -19.1791   24.9992 N   0  0  0  0  0  0  0  0  0  0  0  0
   12.8537  -18.8949   24.0645 C   0  0  0  0  0  0  0  0  0  0  0  0
   13.0695  -19.0620   22.8492 O   0  0  0  0  0  0  0  0  0  0  0  0
   11.5304  -18.3968   24.5573 C   0  0  0  0  0  0  0  0  0  0  0  0
   11.5148  -18.2736   26.0507 C   0  0  0  0  0  0  0  0  0  0  0  0
   10.2110  -17.7820   26.5446 C   0  0  2  0  0  0  0  0  0  0  0  0
    9.8242  -16.5125   25.9424 N   0  0  0  0  0  0  0  0  0  0  0  0
   10.1869  -17.6664   27.9961 C   0  0  0  0  0  0  0  0  0  0  0  0
   10.1965  -18.5976   28.8354 O   0  0  0  0  0  0  0  0  0  0  0  0
   10.1490  -16.3825   28.5829 O   0  0  0  0  0  0  0  0  0  0  0  0
  2  1  1  0
  3  2  2  0
  4  3  1  0
  5  4  2  0
  5 11  1  0
  6  5  1  0
  7  6  1  0
  7  8  1  1
  9  7  1  0
  9 10  2  0
 11 12  2  0
 12  2  1  0
 14 13  1  0
 14 15  1  0
 15 16  1  0
 17 16  1  1
 17 19  1  0
 17 18  1  0
 18  9  1  0
 19 20  2  0
 22 24  1  0
 22 21  1  0
 23 22  2  0
 24 25  1  0
 26 25  1  6
 26 28  1  0
 27 26  1  0
 27 19  1  0
 28 29  2  0
 28 30  1  0
M  END
$$$$
