YMQ.pdb
     RDKit          3D

 30 30  0  0  1  0  0  0  0  0999 V2000
    8.0680  -14.1585   14.8355 O   0  0  0  0  0  0  0  0  0  0  0  0
    8.3605  -14.0825   16.1879 C   0  0  0  0  0  0  0  0  0  0  0  0
    9.4084  -14.7818   16.7457 C   0  0  0  0  0  0  0  0  0  0  0  0
    9.7082  -14.7135   18.0899 C   0  0  0  0  0  0  0  0  0  0  0  0
    8.9554  -13.9270   18.9425 C   0  0  0  0  0  0  0  0  0  0  0  0
    9.2414  -13.8277   20.3808 C   0  0  0  0  0  0  0  0  0  0  0  0
    8.8357  -15.0977   21.0960 C   0  0  2  0  0  0  0  0  0  0  0  0
    7.5111  -15.4527   20.6188 N   0  0  0  0  0  0  0  0  0  0  0  0
    8.8398  -14.9140   22.5732 C   0  0  0  0  0  0  0  0  0  0  0  0
    9.9437  -14.7876   23.1950 O   0  0  0  0  0  0  0  0  0  0  0  0
    7.9050  -13.2271   18.3780 C   0  0  0  0  0  0  0  0  0  0  0  0
    7.5966  -13.2874   17.0399 C   0  0  0  0  0  0  0  0  0  0  0  0
    8.6442  -12.2073   27.8153 C   0  0  0  0  0  0  0  0  0  0  0  0
    7.0547  -11.9194   26.9939 S   0  0  0  0  0  0  0  0  0  0  0  0
    6.3347  -13.5913   26.6583 C   0  0  0  0  0  0  0  0  0  0  0  0
    6.4714  -13.8877   25.2049 C   0  0  0  0  0  0  0  0  0  0  0  0
    7.6888  -14.6587   24.8198 C   0  0  2  0  0  0  0  0  0  0  0  0
    7.6664  -14.8695   23.3530 N   0  0  0  0  0  0  0  0  0  0  0  0
    7.8927  -15.9538   25.4928 C   0  0  0  0  0  0  0  0  0  0  0  0
    6.9633  -16.8295   25.5076 O   0  0  0  0  0  0  0  0  0  0  0  0
   11.7028  -18.7935   22.8445 N   0  0  0  0  0  0  0  0  0  0  0  0
   11.9743  -18.9326   24.2229 C   0  0  0  0  0  0  0  0  0  0  0  0
   12.7632  -19.8159   24.6085 O   0  0  0  0  0  0  0  0  0  0  0  0
   11.3049  -18.0108   25.1947 C   0  0  0  0  0  0  0  0  0  0  0  0
    9.9675  -18.5394   25.6167 C   0  0  0  0  0  0  0  0  0  0  0  0
    9.3334  -17.6726   26.6323 C   0  0  2  0  0  0  0  0  0  0  0  0
    9.0711  -16.3268   26.1382 N   0  0  0  0  0  0  0  0  0  0  0  0
   10.1191  -17.6035   27.8566 C   0  0  0  0  0  0  0  0  0  0  0  0
   10.4957  -18.5587   28.5757 O   0  0  0  0  0  0  0  0  0  0  0  0
   10.5337  -16.3419   28.3370 O   0  0  0  0  0  0  0  0  0  0  0  0
  2  1  1  0
  3  2  2  0
  4  3  1  0
  5  4  2  0
  5 11  1  0
  6  5  1  0
  7  6  1  0
  7  8  1  6
  9  7  1  0
  9 10  2  0
 11 12  2  0
 12  2  1  0
 14 13  1  0
 14 15  1  0
 15 16  1  0
 17 16  1  1
 17 19  1  0
 17 18  1  0
 18  9  1  0
 19 20  2  0
 22 24  1  0
 22 21  1  0
 23 22  2  0
 24 25  1  0
 26 25  1  6
 26 28  1  0
 27 26  1  0
 27 19  1  0
 28 29  2  0
 28 30  1  0
M  END
$$$$
