YMQ.pdb
     RDKit          3D

 30 30  0  0  1  0  0  0  0  0999 V2000
    9.7074  -21.7437   30.4931 O   0  0  0  0  0  0  0  0  0  0  0  0
    9.5350  -21.1853   29.2366 C   0  0  0  0  0  0  0  0  0  0  0  0
    9.3108  -21.9614   28.1204 C   0  0  0  0  0  0  0  0  0  0  0  0
    9.1380  -21.4164   26.8656 C   0  0  0  0  0  0  0  0  0  0  0  0
    9.1841  -20.0472   26.6777 C   0  0  0  0  0  0  0  0  0  0  0  0
    9.0058  -19.4270   25.3571 C   0  0  0  0  0  0  0  0  0  0  0  0
    7.6974  -18.6701   25.2937 C   0  0  2  0  0  0  0  0  0  0  0  0
    6.6314  -19.6470   25.4259 N   0  0  0  0  0  0  0  0  0  0  0  0
    7.5707  -17.9104   24.0199 C   0  0  0  0  0  0  0  0  0  0  0  0
    8.1954  -18.3016   22.9816 O   0  0  0  0  0  0  0  0  0  0  0  0
    9.4092  -19.2726   27.8008 C   0  0  0  0  0  0  0  0  0  0  0  0
    9.5829  -19.8044   29.0562 C   0  0  0  0  0  0  0  0  0  0  0  0
    6.5160  -12.1189   27.0560 C   0  0  0  0  0  0  0  0  0  0  0  0
    6.7788  -12.4091   25.2866 S   0  0  0  0  0  0  0  0  0  0  0  0
    6.1696  -14.1237   24.9468 C   0  0  0  0  0  0  0  0  0  0  0  0
    6.3367  -14.4114   23.4949 C   0  0  0  0  0  0  0  0  0  0  0  0
    7.2525  -15.5422   23.1670 C   0  0  2  0  0  0  0  0  0  0  0  0
    6.7808  -16.7511   23.8830 N   0  0  0  0  0  0  0  0  0  0  0  0
    8.6842  -15.3382   23.4507 C   0  0  0  0  0  0  0  0  0  0  0  0
    9.3216  -14.3750   22.9061 O   0  0  0  0  0  0  0  0  0  0  0  0
   11.2288  -16.4627   29.4284 N   0  0  0  0  0  0  0  0  0  0  0  0
   11.3312  -15.2271   28.7532 C   0  0  0  0  0  0  0  0  0  0  0  0
   11.2170  -14.1648   29.3935 O   0  0  0  0  0  0  0  0  0  0  0  0
   11.5761  -15.2213   27.2760 C   0  0  0  0  0  0  0  0  0  0  0  0
   10.3948  -15.7556   26.5243 C   0  0  0  0  0  0  0  0  0  0  0  0
   10.5890  -15.6596   25.0620 C   0  0  2  0  0  0  0  0  0  0  0  0
    9.4367  -16.1387   24.3093 N   0  0  0  0  0  0  0  0  0  0  0  0
   11.7888  -16.3598   24.6249 C   0  0  0  0  0  0  0  0  0  0  0  0
   12.9719  -16.1362   24.9738 O   0  0  0  0  0  0  0  0  0  0  0  0
   11.6670  -17.4225   23.7029 O   0  0  0  0  0  0  0  0  0  0  0  0
  2  1  1  0
  3  2  2  0
  4  3  1  0
  5  4  2  0
  5 11  1  0
  6  5  1  0
  7  6  1  0
  7  8  1  6
  9  7  1  0
  9 10  2  0
 11 12  2  0
 12  2  1  0
 14 13  1  0
 14 15  1  0
 15 16  1  0
 17 16  1  1
 17 19  1  0
 17 18  1  0
 18  9  1  0
 19 20  2  0
 22 24  1  0
 22 21  1  0
 23 22  2  0
 24 25  1  0
 26 25  1  1
 26 28  1  0
 27 26  1  0
 27 19  1  0
 28 29  2  0
 28 30  1  0
M  END
$$$$
