YMQ.pdb
     RDKit          3D

 30 30  0  0  1  0  0  0  0  0999 V2000
    7.3311  -14.2886   14.6335 O   0  0  0  0  0  0  0  0  0  0  0  0
    7.4661  -14.5372   15.9901 C   0  0  0  0  0  0  0  0  0  0  0  0
    7.6148  -13.5177   16.9050 C   0  0  0  0  0  0  0  0  0  0  0  0
    7.7500  -13.7537   18.2568 C   0  0  0  0  0  0  0  0  0  0  0  0
    7.7412  -15.0444   18.7529 C   0  0  0  0  0  0  0  0  0  0  0  0
    7.8833  -15.3383   20.1860 C   0  0  0  0  0  0  0  0  0  0  0  0
    8.9765  -14.4917   20.8000 C   0  0  2  0  0  0  0  0  0  0  0  0
   10.2332  -14.9291   20.2191 N   0  0  0  0  0  0  0  0  0  0  0  0
    8.9984  -14.6247   22.2825 C   0  0  0  0  0  0  0  0  0  0  0  0
    9.9488  -15.2537   22.8503 O   0  0  0  0  0  0  0  0  0  0  0  0
    7.5916  -16.0640   17.8309 C   0  0  0  0  0  0  0  0  0  0  0  0
    7.4561  -15.8410   16.4815 C   0  0  0  0  0  0  0  0  0  0  0  0
    6.5805  -10.4201   27.3356 C   0  0  0  0  0  0  0  0  0  0  0  0
    5.6806  -11.9818   27.1464 S   0  0  0  0  0  0  0  0  0  0  0  0
    6.9389  -13.2490   26.6594 C   0  0  0  0  0  0  0  0  0  0  0  0
    6.9615  -13.3539   25.1737 C   0  0  0  0  0  0  0  0  0  0  0  0
    8.1010  -14.1291   24.6033 C   0  0  2  0  0  0  0  0  0  0  0  0
    8.0062  -14.0839   23.1249 N   0  0  0  0  0  0  0  0  0  0  0  0
    8.2316  -15.5311   25.0383 C   0  0  0  0  0  0  0  0  0  0  0  0
    7.4344  -16.4242   24.5936 O   0  0  0  0  0  0  0  0  0  0  0  0
   12.7400  -19.6732   23.8771 N   0  0  0  0  0  0  0  0  0  0  0  0
   11.4444  -20.0107   24.3251 C   0  0  0  0  0  0  0  0  0  0  0  0
   10.7798  -20.8601   23.7020 O   0  0  0  0  0  0  0  0  0  0  0  0
   10.8959  -19.3370   25.5447 C   0  0  0  0  0  0  0  0  0  0  0  0
   10.5888  -17.8942   25.2804 C   0  0  0  0  0  0  0  0  0  0  0  0
    9.4982  -17.4002   26.1475 C   0  0  2  0  0  0  0  0  0  0  0  0
    9.2012  -15.9903   25.9290 N   0  0  0  0  0  0  0  0  0  0  0  0
    9.7764  -17.6323   27.5580 C   0  0  0  0  0  0  0  0  0  0  0  0
    9.8470  -16.7772   28.4720 O   0  0  0  0  0  0  0  0  0  0  0  0
    9.9998  -18.9527   28.0064 O   0  0  0  0  0  0  0  0  0  0  0  0
  2  1  1  0
  3  2  2  0
  4  3  1  0
  5  4  2  0
  5 11  1  0
  6  5  1  0
  7  6  1  0
  7  8  1  6
  9  7  1  0
  9 10  2  0
 11 12  2  0
 12  2  1  0
 14 13  1  0
 14 15  1  0
 15 16  1  0
 17 16  1  1
 17 19  1  0
 17 18  1  0
 18  9  1  0
 19 20  2  0
 22 24  1  0
 22 21  1  0
 23 22  2  0
 24 25  1  0
 26 25  1  6
 26 28  1  0
 27 26  1  0
 27 19  1  0
 28 29  2  0
 28 30  1  0
M  END
$$$$
