YMQ.pdb
     RDKit          3D

 30 30  0  0  1  0  0  0  0  0999 V2000
    7.5913  -14.2801   14.8443 O   0  0  0  0  0  0  0  0  0  0  0  0
    7.9628  -14.1598   16.1739 C   0  0  0  0  0  0  0  0  0  0  0  0
    8.8825  -15.0077   16.7515 C   0  0  0  0  0  0  0  0  0  0  0  0
    9.2593  -14.8971   18.0733 C   0  0  0  0  0  0  0  0  0  0  0  0
    8.7190  -13.9141   18.8820 C   0  0  0  0  0  0  0  0  0  0  0  0
    9.0933  -13.7633   20.2954 C   0  0  0  0  0  0  0  0  0  0  0  0
    8.9242  -15.0715   21.0363 C   0  0  2  0  0  0  0  0  0  0  0  0
    7.6001  -15.5751   20.7180 N   0  0  0  0  0  0  0  0  0  0  0  0
    9.0876  -14.8890   22.5046 C   0  0  0  0  0  0  0  0  0  0  0  0
   10.2071  -14.5088   22.9772 O   0  0  0  0  0  0  0  0  0  0  0  0
    7.7967  -13.0656   18.2978 C   0  0  0  0  0  0  0  0  0  0  0  0
    7.4134  -13.1662   16.9817 C   0  0  0  0  0  0  0  0  0  0  0  0
    7.9490  -11.1020   27.1109 C   0  0  0  0  0  0  0  0  0  0  0  0
    6.4995  -12.1840   27.2237 S   0  0  0  0  0  0  0  0  0  0  0  0
    7.1075  -13.9007   26.8927 C   0  0  0  0  0  0  0  0  0  0  0  0
    7.0986  -14.1358   25.4219 C   0  0  0  0  0  0  0  0  0  0  0  0
    8.2380  -14.9411   24.8947 C   0  0  2  0  0  0  0  0  0  0  0  0
    8.0531  -15.1163   23.4347 N   0  0  0  0  0  0  0  0  0  0  0  0
    8.4615  -16.2583   25.5168 C   0  0  0  0  0  0  0  0  0  0  0  0
    7.5181  -17.1172   25.5717 O   0  0  0  0  0  0  0  0  0  0  0  0
   13.2979  -19.9052   24.8895 N   0  0  0  0  0  0  0  0  0  0  0  0
   12.5750  -20.6346   25.8583 C   0  0  0  0  0  0  0  0  0  0  0  0
   12.9691  -21.7668   26.1964 O   0  0  0  0  0  0  0  0  0  0  0  0
   11.3453  -20.0282   26.4602 C   0  0  0  0  0  0  0  0  0  0  0  0
   11.0893  -18.6563   25.9139 C   0  0  0  0  0  0  0  0  0  0  0  0
    9.9226  -18.0197   26.5611 C   0  0  2  0  0  0  0  0  0  0  0  0
    9.6736  -16.6706   26.0692 N   0  0  0  0  0  0  0  0  0  0  0  0
   10.0483  -17.9997   28.0119 C   0  0  0  0  0  0  0  0  0  0  0  0
    9.7719  -18.9227   28.8140 O   0  0  0  0  0  0  0  0  0  0  0  0
   10.5328  -16.8335   28.6439 O   0  0  0  0  0  0  0  0  0  0  0  0
  2  1  1  0
  3  2  2  0
  4  3  1  0
  5  4  2  0
  5 11  1  0
  6  5  1  0
  7  6  1  0
  7  8  1  1
  9  7  1  0
  9 10  2  0
 11 12  2  0
 12  2  1  0
 14 13  1  0
 14 15  1  0
 15 16  1  0
 17 16  1  1
 17 19  1  0
 17 18  1  0
 18  9  1  0
 19 20  2  0
 22 24  1  0
 22 21  1  0
 23 22  2  0
 24 25  1  0
 26 25  1  6
 26 28  1  0
 27 26  1  0
 27 19  1  0
 28 29  2  0
 28 30  1  0
M  END
$$$$
