YMQ.pdb
     RDKit          3D

 30 30  0  0  1  0  0  0  0  0999 V2000
    8.3870  -21.5463   16.9507 O   0  0  0  0  0  0  0  0  0  0  0  0
    8.7199  -20.6950   17.9922 C   0  0  0  0  0  0  0  0  0  0  0  0
    9.7482  -19.7841   17.8866 C   0  0  0  0  0  0  0  0  0  0  0  0
   10.0880  -18.9325   18.9165 C   0  0  0  0  0  0  0  0  0  0  0  0
    9.3972  -18.9615   20.1141 C   0  0  0  0  0  0  0  0  0  0  0  0
    9.7283  -18.0716   21.2361 C   0  0  0  0  0  0  0  0  0  0  0  0
    9.1831  -16.6811   20.9951 C   0  0  2  0  0  0  0  0  0  0  0  0
    9.9407  -16.1092   19.8963 N   0  0  0  0  0  0  0  0  0  0  0  0
    9.2919  -15.8360   22.2157 C   0  0  0  0  0  0  0  0  0  0  0  0
   10.4344  -15.4413   22.6158 O   0  0  0  0  0  0  0  0  0  0  0  0
    8.3660  -19.8772   20.2152 C   0  0  0  0  0  0  0  0  0  0  0  0
    8.0184  -20.7309   19.1957 C   0  0  0  0  0  0  0  0  0  0  0  0
    7.8636  -11.4975   27.5001 C   0  0  0  0  0  0  0  0  0  0  0  0
    6.6597  -12.1147   26.2942 S   0  0  0  0  0  0  0  0  0  0  0  0
    6.8981  -13.9487   26.2165 C   0  0  0  0  0  0  0  0  0  0  0  0
    6.9934  -14.3582   24.7876 C   0  0  0  0  0  0  0  0  0  0  0  0
    8.3042  -14.9368   24.3728 C   0  0  2  0  0  0  0  0  0  0  0  0
    8.1796  -15.4316   22.9813 N   0  0  0  0  0  0  0  0  0  0  0  0
    8.8526  -16.0094   25.2217 C   0  0  0  0  0  0  0  0  0  0  0  0
    8.2749  -17.1466   25.2827 O   0  0  0  0  0  0  0  0  0  0  0  0
   13.7045  -15.2433   25.4167 N   0  0  0  0  0  0  0  0  0  0  0  0
   13.2325  -16.2074   24.4997 C   0  0  0  0  0  0  0  0  0  0  0  0
   13.5928  -16.1518   23.3086 O   0  0  0  0  0  0  0  0  0  0  0  0
   12.3054  -17.2799   24.9816 C   0  0  0  0  0  0  0  0  0  0  0  0
   12.0445  -17.1562   26.4522 C   0  0  0  0  0  0  0  0  0  0  0  0
   10.6041  -16.9883   26.7391 C   0  0  2  0  0  0  0  0  0  0  0  0
   10.0072  -15.8871   25.9940 N   0  0  0  0  0  0  0  0  0  0  0  0
   10.3488  -16.8158   28.1624 C   0  0  0  0  0  0  0  0  0  0  0  0
    9.7010  -15.8955   28.7148 O   0  0  0  0  0  0  0  0  0  0  0  0
   10.8648  -17.7636   29.0732 O   0  0  0  0  0  0  0  0  0  0  0  0
  2  1  1  0
  3  2  2  0
  4  3  1  0
  5  4  2  0
  5 11  1  0
  6  5  1  0
  7  6  1  0
  7  8  1  6
  9  7  1  0
  9 10  2  0
 11 12  2  0
 12  2  1  0
 14 13  1  0
 14 15  1  0
 15 16  1  0
 17 16  1  1
 17 19  1  0
 17 18  1  0
 18  9  1  0
 19 20  2  0
 22 24  1  0
 22 21  1  0
 23 22  2  0
 24 25  1  0
 26 25  1  1
 26 28  1  0
 27 26  1  0
 27 19  1  0
 28 29  2  0
 28 30  1  0
M  END
$$$$
