YMQ.pdb
     RDKit          3D

 30 30  0  0  1  0  0  0  0  0999 V2000
    6.7083  -15.4186   14.2665 O   0  0  0  0  0  0  0  0  0  0  0  0
    7.0387  -15.5407   15.6068 C   0  0  0  0  0  0  0  0  0  0  0  0
    7.8806  -14.6475   16.2325 C   0  0  0  0  0  0  0  0  0  0  0  0
    8.2161  -14.7596   17.5653 C   0  0  0  0  0  0  0  0  0  0  0  0
    7.7112  -15.7904   18.3365 C   0  0  0  0  0  0  0  0  0  0  0  0
    8.0448  -15.9457   19.7595 C   0  0  0  0  0  0  0  0  0  0  0  0
    8.9572  -14.8301   20.2201 C   0  0  2  0  0  0  0  0  0  0  0  0
   10.2421  -15.0352   19.5758 N   0  0  0  0  0  0  0  0  0  0  0  0
    9.0981  -14.8206   21.7019 C   0  0  0  0  0  0  0  0  0  0  0  0
   10.1312  -15.3293   22.2455 O   0  0  0  0  0  0  0  0  0  0  0  0
    6.8667  -16.6842   17.7041 C   0  0  0  0  0  0  0  0  0  0  0  0
    6.5253  -16.5826   16.3766 C   0  0  0  0  0  0  0  0  0  0  0  0
    6.2595  -11.5474   28.3286 C   0  0  0  0  0  0  0  0  0  0  0  0
    6.0377  -11.8531   26.5562 S   0  0  0  0  0  0  0  0  0  0  0  0
    7.3439  -13.0726   26.0734 C   0  0  0  0  0  0  0  0  0  0  0  0
    7.2893  -13.2728   24.5984 C   0  0  0  0  0  0  0  0  0  0  0  0
    8.3415  -14.1666   24.0336 C   0  0  2  0  0  0  0  0  0  0  0  0
    8.1341  -14.2690   22.5697 N   0  0  0  0  0  0  0  0  0  0  0  0
    8.4365  -15.5213   24.6059 C   0  0  0  0  0  0  0  0  0  0  0  0
    7.5406  -16.3955   24.3534 O   0  0  0  0  0  0  0  0  0  0  0  0
   12.5764  -19.6008   23.9853 N   0  0  0  0  0  0  0  0  0  0  0  0
   11.9179  -20.2072   25.0770 C   0  0  0  0  0  0  0  0  0  0  0  0
   12.2317  -21.3627   25.4201 O   0  0  0  0  0  0  0  0  0  0  0  0
   10.8523  -19.4442   25.8012 C   0  0  0  0  0  0  0  0  0  0  0  0
   10.6930  -18.0632   25.2413 C   0  0  0  0  0  0  0  0  0  0  0  0
    9.6061  -17.3224   25.9160 C   0  0  2  0  0  0  0  0  0  0  0  0
    9.4734  -15.9543   25.4316 N   0  0  0  0  0  0  0  0  0  0  0  0
    9.7661  -17.3192   27.3635 C   0  0  0  0  0  0  0  0  0  0  0  0
    9.9548  -16.3281   28.1076 O   0  0  0  0  0  0  0  0  0  0  0  0
    9.7106  -18.5442   28.0639 O   0  0  0  0  0  0  0  0  0  0  0  0
  2  1  1  0
  3  2  2  0
  4  3  1  0
  5  4  2  0
  5 11  1  0
  6  5  1  0
  7  6  1  0
  7  8  1  6
  9  7  1  0
  9 10  2  0
 11 12  2  0
 12  2  1  0
 14 13  1  0
 14 15  1  0
 15 16  1  0
 17 16  1  1
 17 19  1  0
 17 18  1  0
 18  9  1  0
 19 20  2  0
 22 24  1  0
 22 21  1  0
 23 22  2  0
 24 25  1  0
 26 25  1  6
 26 28  1  0
 27 26  1  0
 27 19  1  0
 28 29  2  0
 28 30  1  0
M  END
$$$$
