YMQ.pdb
     RDKit          3D

 30 30  0  0  1  0  0  0  0  0999 V2000
    7.8500  -14.0799   15.2549 O   0  0  0  0  0  0  0  0  0  0  0  0
    7.9407  -13.9996   16.6353 C   0  0  0  0  0  0  0  0  0  0  0  0
    7.7011  -12.8239   17.3127 C   0  0  0  0  0  0  0  0  0  0  0  0
    7.7886  -12.7327   18.6858 C   0  0  0  0  0  0  0  0  0  0  0  0
    8.1258  -13.8369   19.4470 C   0  0  0  0  0  0  0  0  0  0  0  0
    8.2305  -13.7813   20.9120 C   0  0  0  0  0  0  0  0  0  0  0  0
    8.6862  -15.1130   21.4668 C   0  0  2  0  0  0  0  0  0  0  0  0
    7.7120  -16.1058   21.0500 N   0  0  0  0  0  0  0  0  0  0  0  0
    8.8052  -15.0713   22.9500 C   0  0  0  0  0  0  0  0  0  0  0  0
    9.8324  -14.5481   23.4909 O   0  0  0  0  0  0  0  0  0  0  0  0
    8.3651  -15.0144   18.7627 C   0  0  0  0  0  0  0  0  0  0  0  0
    8.2810  -15.1172   17.3947 C   0  0  0  0  0  0  0  0  0  0  0  0
    6.6414  -11.2551   27.2503 C   0  0  0  0  0  0  0  0  0  0  0  0
    7.3293  -12.9292   27.1579 S   0  0  0  0  0  0  0  0  0  0  0  0
    6.3229  -13.8338   25.8949 C   0  0  0  0  0  0  0  0  0  0  0  0
    6.6952  -15.2757   25.9304 C   0  0  0  0  0  0  0  0  0  0  0  0
    8.0002  -15.6164   25.2936 C   0  0  2  0  0  0  0  0  0  0  0  0
    7.8259  -15.5886   23.8220 N   0  0  0  0  0  0  0  0  0  0  0  0
    8.6133  -16.8981   25.6851 C   0  0  0  0  0  0  0  0  0  0  0  0
    7.9213  -17.9713   25.6936 O   0  0  0  0  0  0  0  0  0  0  0  0
   14.3975  -18.0121   24.4848 N   0  0  0  0  0  0  0  0  0  0  0  0
   13.1397  -17.7659   23.8928 C   0  0  0  0  0  0  0  0  0  0  0  0
   13.0518  -16.9591   22.9479 O   0  0  0  0  0  0  0  0  0  0  0  0
   11.9343  -18.4837   24.4162 C   0  0  0  0  0  0  0  0  0  0  0  0
   11.9133  -18.4953   25.9146 C   0  0  0  0  0  0  0  0  0  0  0  0
   10.5435  -18.3222   26.4429 C   0  0  2  0  0  0  0  0  0  0  0  0
    9.9488  -17.0490   26.0567 N   0  0  0  0  0  0  0  0  0  0  0  0
   10.4957  -18.4693   27.8910 C   0  0  0  0  0  0  0  0  0  0  0  0
   10.0694  -17.6391   28.7280 O   0  0  0  0  0  0  0  0  0  0  0  0
   10.9698  -19.6636   28.4767 O   0  0  0  0  0  0  0  0  0  0  0  0
  2  1  1  0
  3  2  2  0
  4  3  1  0
  5  4  2  0
  5 11  1  0
  6  5  1  0
  7  6  1  0
  7  8  1  1
  9  7  1  0
  9 10  2  0
 11 12  2  0
 12  2  1  0
 14 13  1  0
 14 15  1  0
 15 16  1  0
 17 16  1  1
 17 19  1  0
 17 18  1  0
 18  9  1  0
 19 20  2  0
 22 24  1  0
 22 21  1  0
 23 22  2  0
 24 25  1  0
 26 25  1  1
 26 28  1  0
 27 26  1  0
 27 19  1  0
 28 29  2  0
 28 30  1  0
M  END
$$$$
