IFI.pdb
     RDKit          3D

 28 28  0  0  1  0  0  0  0  0999 V2000
   12.8484  -20.3583   19.7367 C   0  0  0  0  0  0  0  0  0  0  0  0
   11.8657  -19.2538   19.5363 C   0  0  0  0  0  0  0  0  0  0  0  0
   11.6008  -18.4153   20.7617 C   0  0  2  0  0  0  0  0  0  0  0  0
   11.0563  -19.3174   21.8345 C   0  0  0  0  0  0  0  0  0  0  0  0
   10.6969  -17.2876   20.4029 C   0  0  2  0  0  0  0  0  0  0  0  0
   11.2454  -16.5761   19.2731 N   0  0  0  0  0  0  0  0  0  0  0  0
   10.4212  -16.3784   21.5490 C   0  0  0  0  0  0  0  0  0  0  0  0
   11.3289  -15.6069   21.9060 O   0  0  0  0  0  0  0  0  0  0  0  0
    9.1997  -16.3559   22.2325 N   0  0  0  0  0  0  0  0  0  0  0  0
    8.8516  -15.4533   23.2980 C   0  0  1  0  0  0  0  0  0  0  0  0
    7.4005  -15.1247   23.3757 C   0  0  0  0  0  0  0  0  0  0  0  0
    6.9876  -14.2833   24.4793 C   0  0  0  0  0  0  0  0  0  0  0  0
    6.2419  -14.7808   25.5206 C   0  0  0  0  0  0  0  0  0  0  0  0
    5.8682  -13.9514   26.5534 C   0  0  0  0  0  0  0  0  0  0  0  0
    6.2195  -12.6121   26.5864 C   0  0  0  0  0  0  0  0  0  0  0  0
    6.9658  -12.1221   25.5405 C   0  0  0  0  0  0  0  0  0  0  0  0
    7.3498  -12.9515   24.4899 C   0  0  0  0  0  0  0  0  0  0  0  0
    9.2044  -16.1624   24.5803 C   0  0  0  0  0  0  0  0  0  0  0  0
    9.0813  -17.4143   24.6367 O   0  0  0  0  0  0  0  0  0  0  0  0
   11.2302  -12.9286   28.6589 C   0  0  0  0  0  0  0  0  0  0  0  0
   11.1899  -13.9832   27.5638 C   0  0  0  0  0  0  0  0  0  0  0  0
   10.4632  -15.2232   28.0208 C   0  0  2  0  0  0  0  0  0  0  0  0
   11.2115  -15.8427   29.1703 C   0  0  0  0  0  0  0  0  0  0  0  0
   10.1803  -16.1760   26.9125 C   0  0  2  0  0  0  0  0  0  0  0  0
    9.6664  -15.4836   25.7195 N   0  0  0  0  0  0  0  0  0  0  0  0
    9.2454  -17.2584   27.2595 C   0  0  0  0  0  0  0  0  0  0  0  0
    8.0003  -17.1270   27.2769 O   0  0  0  0  0  0  0  0  0  0  0  0
    9.7416  -18.5073   27.5911 O   0  0  0  0  0  0  0  0  0  0  0  0
  1  2  1  0
  3  5  1  0
  3  4  1  1
  3  2  1  0
  5  6  1  6
  7  8  2  0
  7  5  1  0
  9  7  1  0
 10  9  1  0
 11 12  1  0
 10 11  1  1
 12 13  2  0
 12 17  1  0
 13 14  1  0
 14 15  2  0
 16 15  1  0
 17 16  2  0
 18 19  2  0
 18 10  1  0
 20 21  1  0
 21 22  1  0
 22 24  1  0
 22 23  1  1
 24 26  1  0
 24 25  1  6
 25 18  1  0
 26 28  1  0
 27 26  2  0
M  END
$$$$
