IFI.pdb
     RDKit          3D

 28 28  0  0  1  0  0  0  0  0999 V2000
   12.7974  -20.5691   19.7724 C   0  0  0  0  0  0  0  0  0  0  0  0
   11.8291  -19.4558   19.5520 C   0  0  0  0  0  0  0  0  0  0  0  0
   11.6158  -18.5596   20.7462 C   0  0  2  0  0  0  0  0  0  0  0  0
   11.2932  -19.4295   21.9296 C   0  0  0  0  0  0  0  0  0  0  0  0
   10.5634  -17.5551   20.4287 C   0  0  2  0  0  0  0  0  0  0  0  0
   10.8955  -16.8895   19.1917 N   0  0  0  0  0  0  0  0  0  0  0  0
   10.3347  -16.5856   21.5350 C   0  0  0  0  0  0  0  0  0  0  0  0
   11.1945  -15.7064   21.7199 O   0  0  0  0  0  0  0  0  0  0  0  0
    9.2077  -16.6219   22.3647 N   0  0  0  0  0  0  0  0  0  0  0  0
    8.8919  -15.6650   23.3922 C   0  0  1  0  0  0  0  0  0  0  0  0
    7.4341  -15.4156   23.5727 C   0  0  0  0  0  0  0  0  0  0  0  0
    7.0683  -14.3882   24.5251 C   0  0  0  0  0  0  0  0  0  0  0  0
    7.5025  -13.0923   24.3841 C   0  0  0  0  0  0  0  0  0  0  0  0
    7.1340  -12.1417   25.3087 C   0  0  0  0  0  0  0  0  0  0  0  0
    6.3290  -12.4437   26.3946 C   0  0  0  0  0  0  0  0  0  0  0  0
    5.8988  -13.7429   26.5284 C   0  0  0  0  0  0  0  0  0  0  0  0
    6.2651  -14.7134   25.5994 C   0  0  0  0  0  0  0  0  0  0  0  0
    9.3933  -16.2566   24.6845 C   0  0  0  0  0  0  0  0  0  0  0  0
    9.4867  -17.5084   24.7846 O   0  0  0  0  0  0  0  0  0  0  0  0
   10.3604  -12.7284   28.9641 C   0  0  0  0  0  0  0  0  0  0  0  0
   10.6093  -13.6605   27.7884 C   0  0  0  0  0  0  0  0  0  0  0  0
   10.2990  -15.0923   28.1463 C   0  0  2  0  0  0  0  0  0  0  0  0
   11.1372  -15.5022   29.3271 C   0  0  0  0  0  0  0  0  0  0  0  0
   10.4088  -16.0207   26.9878 C   0  0  2  0  0  0  0  0  0  0  0  0
    9.7624  -15.4680   25.7863 N   0  0  0  0  0  0  0  0  0  0  0  0
    9.8660  -17.3672   27.2289 C   0  0  0  0  0  0  0  0  0  0  0  0
   10.5709  -18.3668   27.4969 O   0  0  0  0  0  0  0  0  0  0  0  0
    8.4987  -17.5728   27.1626 O   0  0  0  0  0  0  0  0  0  0  0  0
  1  2  1  0
  3  5  1  0
  3  4  1  1
  3  2  1  0
  5  6  1  6
  7  8  2  0
  7  5  1  0
  9  7  1  0
 10  9  1  0
 11 12  1  0
 10 11  1  1
 12 13  2  0
 12 17  1  0
 13 14  1  0
 14 15  2  0
 16 15  1  0
 17 16  2  0
 18 19  2  0
 18 10  1  0
 20 21  1  0
 21 22  1  0
 22 24  1  0
 22 23  1  1
 24 26  1  0
 24 25  1  6
 25 18  1  0
 26 28  1  0
 27 26  2  0
M  END
$$$$
