IFI.pdb
     RDKit          3D

 28 28  0  0  1  0  0  0  0  0999 V2000
   12.4848  -20.8276   19.9025 C   0  0  0  0  0  0  0  0  0  0  0  0
   11.5428  -19.7173   19.5774 C   0  0  0  0  0  0  0  0  0  0  0  0
   11.3957  -18.6777   20.6602 C   0  0  2  0  0  0  0  0  0  0  0  0
   11.0505  -19.3853   21.9414 C   0  0  0  0  0  0  0  0  0  0  0  0
   10.3897  -17.6640   20.2387 C   0  0  2  0  0  0  0  0  0  0  0  0
   10.7462  -17.1486   18.9384 N   0  0  0  0  0  0  0  0  0  0  0  0
   10.2119  -16.5738   21.2367 C   0  0  0  0  0  0  0  0  0  0  0  0
   11.1310  -15.7447   21.3567 O   0  0  0  0  0  0  0  0  0  0  0  0
    9.0691  -16.4447   22.0348 N   0  0  0  0  0  0  0  0  0  0  0  0
    8.8350  -15.4049   23.0018 C   0  0  1  0  0  0  0  0  0  0  0  0
    7.3979  -15.0705   23.2091 C   0  0  0  0  0  0  0  0  0  0  0  0
    7.1080  -14.0553   24.1999 C   0  0  0  0  0  0  0  0  0  0  0  0
    7.4777  -12.7452   24.0138 C   0  0  0  0  0  0  0  0  0  0  0  0
    7.1846  -11.8070   24.9772 C   0  0  0  0  0  0  0  0  0  0  0  0
    6.5203  -12.1356   26.1472 C   0  0  0  0  0  0  0  0  0  0  0  0
    6.1538  -13.4489   26.3257 C   0  0  0  0  0  0  0  0  0  0  0  0
    6.4449  -14.4071   25.3582 C   0  0  0  0  0  0  0  0  0  0  0  0
    9.3511  -15.9309   24.3166 C   0  0  0  0  0  0  0  0  0  0  0  0
    9.1797  -17.1471   24.5944 O   0  0  0  0  0  0  0  0  0  0  0  0
   10.8448  -13.8395   29.9380 C   0  0  0  0  0  0  0  0  0  0  0  0
   11.1008  -14.9108   28.8893 C   0  0  0  0  0  0  0  0  0  0  0  0
   10.6465  -14.4626   27.5229 C   0  0  2  0  0  0  0  0  0  0  0  0
    9.4546  -13.5552   27.6682 C   0  0  0  0  0  0  0  0  0  0  0  0
   10.4215  -15.5942   26.5821 C   0  0  2  0  0  0  0  0  0  0  0  0
   10.0177  -15.1192   25.2486 N   0  0  0  0  0  0  0  0  0  0  0  0
    9.4339  -16.5842   27.0407 C   0  0  0  0  0  0  0  0  0  0  0  0
    8.2083  -16.5143   26.7937 O   0  0  0  0  0  0  0  0  0  0  0  0
    9.8539  -17.6684   27.7918 O   0  0  0  0  0  0  0  0  0  0  0  0
  1  2  1  0
  3  5  1  0
  3  4  1  1
  3  2  1  0
  5  6  1  6
  7  8  2  0
  7  5  1  0
  9  7  1  0
 10  9  1  0
 11 12  1  0
 10 11  1  1
 12 13  2  0
 12 17  1  0
 13 14  1  0
 14 15  2  0
 16 15  1  0
 17 16  2  0
 18 19  2  0
 18 10  1  0
 20 21  1  0
 21 22  1  0
 22 24  1  0
 22 23  1  1
 24 26  1  0
 24 25  1  6
 25 18  1  0
 26 28  1  0
 27 26  2  0
M  END
$$$$
