IFI.pdb
     RDKit          3D

 28 28  0  0  1  0  0  0  0  0999 V2000
    7.8386  -12.7572   18.3533 C   0  0  0  0  0  0  0  0  0  0  0  0
    8.1888  -13.8836   19.2666 C   0  0  0  0  0  0  0  0  0  0  0  0
    9.4146  -14.6645   18.8638 C   0  0  2  0  0  0  0  0  0  0  0  0
    9.1952  -15.1909   17.4724 C   0  0  0  0  0  0  0  0  0  0  0  0
    9.6810  -15.7232   19.8764 C   0  0  2  0  0  0  0  0  0  0  0  0
    8.7301  -16.7960   19.7080 N   0  0  0  0  0  0  0  0  0  0  0  0
    9.6874  -15.2029   21.2713 C   0  0  0  0  0  0  0  0  0  0  0  0
   10.5665  -14.3779   21.5763 O   0  0  0  0  0  0  0  0  0  0  0  0
    8.7580  -15.5983   22.2406 N   0  0  0  0  0  0  0  0  0  0  0  0
    8.5601  -14.9674   23.5189 C   0  0  1  0  0  0  0  0  0  0  0  0
    7.1331  -14.8441   23.9290 C   0  0  0  0  0  0  0  0  0  0  0  0
    6.8450  -13.8973   24.9859 C   0  0  0  0  0  0  0  0  0  0  0  0
    6.1608  -14.2715   26.1171 C   0  0  0  0  0  0  0  0  0  0  0  0
    5.9056  -13.3443   27.1017 C   0  0  0  0  0  0  0  0  0  0  0  0
    6.3178  -12.0262   26.9968 C   0  0  0  0  0  0  0  0  0  0  0  0
    7.0018  -11.6599   25.8616 C   0  0  0  0  0  0  0  0  0  0  0  0
    7.2659  -12.5890   24.8585 C   0  0  0  0  0  0  0  0  0  0  0  0
    9.2270  -15.8593   24.5344 C   0  0  0  0  0  0  0  0  0  0  0  0
    9.6452  -16.9897   24.1696 O   0  0  0  0  0  0  0  0  0  0  0  0
   10.3431  -13.4164   29.4288 C   0  0  0  0  0  0  0  0  0  0  0  0
   10.5369  -14.0741   28.0713 C   0  0  0  0  0  0  0  0  0  0  0  0
   10.3178  -15.5644   28.1459 C   0  0  2  0  0  0  0  0  0  0  0  0
   11.3337  -16.1701   29.0765 C   0  0  0  0  0  0  0  0  0  0  0  0
   10.2739  -16.2157   26.8080 C   0  0  2  0  0  0  0  0  0  0  0  0
    9.4027  -15.4819   25.8756 N   0  0  0  0  0  0  0  0  0  0  0  0
    9.8503  -17.6250   26.8270 C   0  0  0  0  0  0  0  0  0  0  0  0
   10.6400  -18.5902   26.9407 O   0  0  0  0  0  0  0  0  0  0  0  0
    8.5058  -17.9342   26.7144 O   0  0  0  0  0  0  0  0  0  0  0  0
  1  2  1  0
  3  5  1  0
  3  4  1  6
  3  2  1  0
  5  6  1  1
  7  8  2  0
  7  5  1  0
  9  7  1  0
 10  9  1  0
 11 12  1  0
 10 11  1  1
 12 13  2  0
 12 17  1  0
 13 14  1  0
 14 15  2  0
 16 15  1  0
 17 16  2  0
 18 19  2  0
 18 10  1  0
 20 21  1  0
 21 22  1  0
 22 24  1  0
 22 23  1  1
 24 26  1  0
 24 25  1  6
 25 18  1  0
 26 28  1  0
 27 26  2  0
M  END
$$$$
