IFI.pdb
     RDKit          3D

 28 28  0  0  1  0  0  0  0  0999 V2000
   13.0877  -20.3938   19.9551 C   0  0  0  0  0  0  0  0  0  0  0  0
   11.9774  -19.4363   19.6797 C   0  0  0  0  0  0  0  0  0  0  0  0
   11.7225  -18.4335   20.7770 C   0  0  2  0  0  0  0  0  0  0  0  0
   11.5363  -19.1886   22.0640 C   0  0  0  0  0  0  0  0  0  0  0  0
   10.5625  -17.5773   20.4044 C   0  0  2  0  0  0  0  0  0  0  0  0
   10.7853  -17.0141   19.0942 N   0  0  0  0  0  0  0  0  0  0  0  0
   10.2694  -16.5256   21.4166 C   0  0  0  0  0  0  0  0  0  0  0  0
   11.0237  -15.5377   21.4585 O   0  0  0  0  0  0  0  0  0  0  0  0
    9.1952  -16.6013   22.3110 N   0  0  0  0  0  0  0  0  0  0  0  0
    8.8815  -15.6331   23.3284 C   0  0  1  0  0  0  0  0  0  0  0  0
    7.4282  -15.3351   23.4662 C   0  0  0  0  0  0  0  0  0  0  0  0
    7.0617  -14.3620   24.4737 C   0  0  0  0  0  0  0  0  0  0  0  0
    7.4079  -13.0380   24.3515 C   0  0  0  0  0  0  0  0  0  0  0  0
    7.0416  -12.1409   25.3289 C   0  0  0  0  0  0  0  0  0  0  0  0
    6.3254  -12.5252   26.4503 C   0  0  0  0  0  0  0  0  0  0  0  0
    5.9829  -13.8520   26.5650 C   0  0  0  0  0  0  0  0  0  0  0  0
    6.3479  -14.7691   25.5827 C   0  0  0  0  0  0  0  0  0  0  0  0
    9.3250  -16.2392   24.6351 C   0  0  0  0  0  0  0  0  0  0  0  0
    9.2905  -17.4910   24.7677 O   0  0  0  0  0  0  0  0  0  0  0  0
   10.1444  -12.7420   28.9214 C   0  0  0  0  0  0  0  0  0  0  0  0
   10.4288  -13.6827   27.7607 C   0  0  0  0  0  0  0  0  0  0  0  0
   10.1013  -15.1110   28.1173 C   0  0  2  0  0  0  0  0  0  0  0  0
   10.8824  -15.5095   29.3404 C   0  0  0  0  0  0  0  0  0  0  0  0
   10.2656  -16.0505   26.9743 C   0  0  2  0  0  0  0  0  0  0  0  0
    9.7771  -15.4643   25.7155 N   0  0  0  0  0  0  0  0  0  0  0  0
    9.6172  -17.3587   27.1593 C   0  0  0  0  0  0  0  0  0  0  0  0
    8.3820  -17.5448   27.0709 O   0  0  0  0  0  0  0  0  0  0  0  0
   10.3920  -18.4685   27.4492 O   0  0  0  0  0  0  0  0  0  0  0  0
  1  2  1  0
  3  5  1  0
  3  4  1  1
  3  2  1  0
  5  6  1  6
  7  8  2  0
  7  5  1  0
  9  7  1  0
 10  9  1  0
 11 12  1  0
 10 11  1  1
 12 13  2  0
 12 17  1  0
 13 14  1  0
 14 15  2  0
 16 15  1  0
 17 16  2  0
 18 19  2  0
 18 10  1  0
 20 21  1  0
 21 22  1  0
 22 24  1  0
 22 23  1  1
 24 26  1  0
 24 25  1  6
 25 18  1  0
 26 28  1  0
 27 26  2  0
M  END
$$$$
