FHN.pdb
     RDKit          3D

 30 31  0  0  1  0  0  0  0  0999 V2000
    5.6080  -17.0234   24.6595 N   0  0  0  0  0  0  0  0  0  0  0  0
    6.6827  -16.0833   24.5773 C   0  0  1  0  0  0  0  0  0  0  0  0
    6.9864  -15.5555   25.9869 C   0  0  0  0  0  0  0  0  0  0  0  0
    6.8104  -14.0959   25.9824 C   0  0  0  0  0  0  0  0  0  0  0  0
    7.7596  -13.2731   25.4251 C   0  0  0  0  0  0  0  0  0  0  0  0
    7.6004  -11.8902   25.4175 C   0  0  0  0  0  0  0  0  0  0  0  0
    6.4759  -11.3309   25.9757 C   0  0  0  0  0  0  0  0  0  0  0  0
    5.5242  -12.1227   26.5325 C   0  0  0  0  0  0  0  0  0  0  0  0
    5.6859  -13.4897   26.5378 C   0  0  0  0  0  0  0  0  0  0  0  0
    7.9150  -16.7597   24.1178 C   0  0  0  0  0  0  0  0  0  0  0  0
    8.0619  -17.9713   24.3830 O   0  0  0  0  0  0  0  0  0  0  0  0
    8.8702  -16.0097   23.4020 N   0  0  0  0  0  0  0  0  0  0  0  0
   10.0741  -16.6830   22.8549 C   0  0  1  0  0  0  0  0  0  0  0  0
   10.6168  -15.8823   21.7380 C   0  0  0  0  0  0  0  0  0  0  0  0
    9.9164  -16.0784   20.4600 C   0  0  0  0  0  0  0  0  0  0  0  0
    8.7947  -16.8955   20.2434 C   0  0  0  0  0  0  0  0  0  0  0  0
    8.4149  -16.8420   18.9627 N   0  0  0  0  0  0  0  0  0  0  0  0
    9.2690  -16.0072   18.3492 C   0  0  0  0  0  0  0  0  0  0  0  0
   10.1608  -15.5552   19.2439 N   0  0  0  0  0  0  0  0  0  0  0  0
   10.9503  -17.0078   23.9651 C   0  0  0  0  0  0  0  0  0  0  0  0
   11.3581  -16.0139   24.6875 O   0  0  0  0  0  0  0  0  0  0  0  0
   11.8788  -19.7058   28.8622 N   0  0  0  0  0  0  0  0  0  0  0  0
   12.3728  -19.9889   27.5634 C   0  0  0  0  0  0  0  0  0  0  0  0
   13.4413  -20.6178   27.4568 O   0  0  0  0  0  0  0  0  0  0  0  0
   11.6308  -19.5444   26.3815 C   0  0  0  0  0  0  0  0  0  0  0  0
   12.2290  -18.4136   25.6092 C   0  0  2  0  0  0  0  0  0  0  0  0
   11.4294  -18.2521   24.3939 N   0  0  0  0  0  0  0  0  0  0  0  0
   13.6392  -18.5729   25.2350 C   0  0  0  0  0  0  0  0  0  0  0  0
   14.0985  -18.9501   23.9827 O   0  0  0  0  0  0  0  0  0  0  0  0
   14.5297  -18.3592   26.0927 O   0  0  0  0  0  0  0  0  0  0  0  0
  2  1  1  1
  2 10  1  0
  3  2  1  0
  3  4  1  0
  4  5  2  0
  4  9  1  0
  5  6  1  0
  6  7  2  0
  8  7  1  0
  9  8  2  0
 10 11  2  0
 12 10  1  0
 12 13  1  0
 13 20  1  0
 13 14  1  6
 14 15  1  0
 15 16  2  0
 15 19  1  0
 16 17  1  0
 17 18  1  0
 19 18  2  0
 20 21  2  0
 22 23  1  0
 23 24  2  0
 25 23  1  0
 26 25  1  6
 26 28  1  0
 27 26  1  0
 27 20  1  0
 28 29  1  0
 30 28  2  0
M  END
$$$$
