FHN.pdb
     RDKit          3D

 30 31  0  0  1  0  0  0  0  0999 V2000
    7.3031  -17.7049   26.5495 N   0  0  0  0  0  0  0  0  0  0  0  0
    6.5027  -17.0233   25.5798 C   0  0  1  0  0  0  0  0  0  0  0  0
    6.0737  -15.6672   26.1583 C   0  0  0  0  0  0  0  0  0  0  0  0
    7.2628  -15.0032   26.7119 C   0  0  0  0  0  0  0  0  0  0  0  0
    7.4427  -13.6480   26.5723 C   0  0  0  0  0  0  0  0  0  0  0  0
    8.5661  -13.0122   27.0932 C   0  0  0  0  0  0  0  0  0  0  0  0
    9.5167  -13.7470   27.7604 C   0  0  0  0  0  0  0  0  0  0  0  0
    9.3617  -15.0872   27.9111 C   0  0  0  0  0  0  0  0  0  0  0  0
    8.2492  -15.7117   27.3943 C   0  0  0  0  0  0  0  0  0  0  0  0
    7.3096  -16.7202   24.3779 C   0  0  0  0  0  0  0  0  0  0  0  0
    8.3023  -17.4371   24.1324 O   0  0  0  0  0  0  0  0  0  0  0  0
    6.9252  -15.6366   23.5623 N   0  0  0  0  0  0  0  0  0  0  0  0
    7.6698  -15.3591   22.3091 C   0  0  1  0  0  0  0  0  0  0  0  0
    6.9248  -14.3665   21.5074 C   0  0  0  0  0  0  0  0  0  0  0  0
    7.5577  -14.0321   20.2229 C   0  0  0  0  0  0  0  0  0  0  0  0
    8.7557  -14.5676   19.7218 C   0  0  0  0  0  0  0  0  0  0  0  0
    9.0412  -14.0421   18.5262 N   0  0  0  0  0  0  0  0  0  0  0  0
    8.0519  -13.1786   18.2463 C   0  0  0  0  0  0  0  0  0  0  0  0
    7.1714  -13.1759   19.2586 N   0  0  0  0  0  0  0  0  0  0  0  0
    9.0485  -15.0730   22.6601 C   0  0  0  0  0  0  0  0  0  0  0  0
    9.2456  -14.5067   23.8075 O   0  0  0  0  0  0  0  0  0  0  0  0
   13.0278  -16.4921   25.3839 N   0  0  0  0  0  0  0  0  0  0  0  0
   12.4926  -17.1779   24.2639 C   0  0  0  0  0  0  0  0  0  0  0  0
   13.0603  -18.2139   23.8731 O   0  0  0  0  0  0  0  0  0  0  0  0
   11.2965  -16.6661   23.5912 C   0  0  0  0  0  0  0  0  0  0  0  0
   11.5113  -15.5687   22.6000 C   0  0  2  0  0  0  0  0  0  0  0  0
   10.2259  -15.3238   21.9441 N   0  0  0  0  0  0  0  0  0  0  0  0
   12.5290  -15.8263   21.5744 C   0  0  0  0  0  0  0  0  0  0  0  0
   12.2719  -16.2346   20.2748 O   0  0  0  0  0  0  0  0  0  0  0  0
   13.7412  -15.6758   21.8610 O   0  0  0  0  0  0  0  0  0  0  0  0
  2  1  1  1
  2 10  1  0
  3  2  1  0
  3  4  1  0
  4  5  2  0
  4  9  1  0
  5  6  1  0
  6  7  2  0
  8  7  1  0
  9  8  2  0
 10 11  2  0
 12 10  1  0
 12 13  1  0
 13 20  1  0
 13 14  1  1
 14 15  1  0
 15 16  2  0
 15 19  1  0
 16 17  1  0
 17 18  1  0
 19 18  2  0
 20 21  2  0
 22 23  1  0
 23 24  2  0
 25 23  1  0
 26 25  1  1
 26 28  1  0
 27 26  1  0
 27 20  1  0
 28 29  1  0
 30 28  2  0
M  END
$$$$
