FHN.pdb
     RDKit          3D

 30 31  0  0  1  0  0  0  0  0999 V2000
    6.3316  -16.7400   25.9508 N   0  0  0  0  0  0  0  0  0  0  0  0
    6.6650  -15.6179   25.1289 C   0  0  1  0  0  0  0  0  0  0  0  0
    7.8078  -14.8390   25.7961 C   0  0  0  0  0  0  0  0  0  0  0  0
    7.2506  -13.6110   26.3818 C   0  0  0  0  0  0  0  0  0  0  0  0
    7.3115  -13.3851   27.7359 C   0  0  0  0  0  0  0  0  0  0  0  0
    6.7858  -12.2252   28.2980 C   0  0  0  0  0  0  0  0  0  0  0  0
    6.1935  -11.2845   27.4898 C   0  0  0  0  0  0  0  0  0  0  0  0
    6.1209  -11.4849   26.1491 C   0  0  0  0  0  0  0  0  0  0  0  0
    6.6421  -12.6334   25.5978 C   0  0  0  0  0  0  0  0  0  0  0  0
    7.1897  -16.0809   23.8259 C   0  0  0  0  0  0  0  0  0  0  0  0
    7.5690  -17.2666   23.7256 O   0  0  0  0  0  0  0  0  0  0  0  0
    7.2400  -15.1660   22.7547 N   0  0  0  0  0  0  0  0  0  0  0  0
    7.7870  -15.5973   21.4444 C   0  0  1  0  0  0  0  0  0  0  0  0
    7.4009  -14.6183   20.4074 C   0  0  0  0  0  0  0  0  0  0  0  0
    7.9339  -14.9157   19.0696 C   0  0  0  0  0  0  0  0  0  0  0  0
    8.6921  -16.0415   18.7080 C   0  0  0  0  0  0  0  0  0  0  0  0
    9.0134  -15.9947   17.4112 N   0  0  0  0  0  0  0  0  0  0  0  0
    8.4780  -14.8616   16.9294 C   0  0  0  0  0  0  0  0  0  0  0  0
    7.8366  -14.2227   17.9196 N   0  0  0  0  0  0  0  0  0  0  0  0
    9.1951  -15.8992   21.6231 C   0  0  0  0  0  0  0  0  0  0  0  0
    9.8882  -15.0380   22.2967 O   0  0  0  0  0  0  0  0  0  0  0  0
   13.3567  -19.8097   21.8356 N   0  0  0  0  0  0  0  0  0  0  0  0
   12.6453  -19.0179   22.7727 C   0  0  0  0  0  0  0  0  0  0  0  0
   13.1629  -18.8008   23.8833 O   0  0  0  0  0  0  0  0  0  0  0  0
   11.3301  -18.4738   22.4272 C   0  0  0  0  0  0  0  0  0  0  0  0
   11.3234  -17.2347   21.5920 C   0  0  2  0  0  0  0  0  0  0  0  0
    9.9384  -17.0007   21.1805 N   0  0  0  0  0  0  0  0  0  0  0  0
   12.1771  -17.2659   20.3985 C   0  0  0  0  0  0  0  0  0  0  0  0
   11.7543  -17.5905   19.1189 O   0  0  0  0  0  0  0  0  0  0  0  0
   13.3944  -16.9818   20.5069 O   0  0  0  0  0  0  0  0  0  0  0  0
  2  1  1  1
  2 10  1  0
  3  2  1  0
  3  4  1  0
  4  5  2  0
  4  9  1  0
  5  6  1  0
  6  7  2  0
  8  7  1  0
  9  8  2  0
 10 11  2  0
 12 10  1  0
 12 13  1  0
 13 20  1  0
 13 14  1  6
 14 15  1  0
 15 16  2  0
 15 19  1  0
 16 17  1  0
 17 18  1  0
 19 18  2  0
 20 21  2  0
 22 23  1  0
 23 24  2  0
 25 23  1  0
 26 25  1  6
 26 28  1  0
 27 26  1  0
 27 20  1  0
 28 29  1  0
 30 28  2  0
M  END
$$$$
