FHN.pdb
     RDKit          3D

 30 31  0  0  1  0  0  0  0  0999 V2000
    5.1506  -16.9689   23.6041 N   0  0  0  0  0  0  0  0  0  0  0  0
    6.0881  -15.9475   23.9555 C   0  0  1  0  0  0  0  0  0  0  0  0
    6.2849  -15.9603   25.4783 C   0  0  0  0  0  0  0  0  0  0  0  0
    6.5891  -14.5905   25.9171 C   0  0  0  0  0  0  0  0  0  0  0  0
    5.5867  -13.6662   26.0885 C   0  0  0  0  0  0  0  0  0  0  0  0
    5.8668  -12.3673   26.5032 C   0  0  0  0  0  0  0  0  0  0  0  0
    7.1673  -11.9956   26.7474 C   0  0  0  0  0  0  0  0  0  0  0  0
    8.1749  -12.8906   26.5850 C   0  0  0  0  0  0  0  0  0  0  0  0
    7.8932  -14.1740   26.1747 C   0  0  0  0  0  0  0  0  0  0  0  0
    7.4114  -16.2490   23.3680 C   0  0  0  0  0  0  0  0  0  0  0  0
    7.6985  -17.4411   23.1306 O   0  0  0  0  0  0  0  0  0  0  0  0
    8.2914  -15.1803   23.1020 N   0  0  0  0  0  0  0  0  0  0  0  0
    9.5719  -15.4399   22.3986 C   0  0  1  0  0  0  0  0  0  0  0  0
    9.9868  -14.2214   21.6731 C   0  0  0  0  0  0  0  0  0  0  0  0
    9.0994  -13.8510   20.5606 C   0  0  0  0  0  0  0  0  0  0  0  0
    7.7197  -14.1013   20.4787 C   0  0  0  0  0  0  0  0  0  0  0  0
    7.2245  -13.6310   19.3294 N   0  0  0  0  0  0  0  0  0  0  0  0
    8.2568  -13.0828   18.6686 C   0  0  0  0  0  0  0  0  0  0  0  0
    9.3705  -13.2160   19.4049 N   0  0  0  0  0  0  0  0  0  0  0  0
   10.4957  -16.0286   23.3503 C   0  0  0  0  0  0  0  0  0  0  0  0
   11.7020  -16.2370   22.9294 O   0  0  0  0  0  0  0  0  0  0  0  0
   13.1687  -17.5589   27.8612 N   0  0  0  0  0  0  0  0  0  0  0  0
   11.7550  -17.6702   27.8788 C   0  0  0  0  0  0  0  0  0  0  0  0
   11.2264  -18.4076   28.7305 O   0  0  0  0  0  0  0  0  0  0  0  0
   10.9468  -16.9273   26.9092 C   0  0  0  0  0  0  0  0  0  0  0  0
   11.3033  -17.1106   25.4697 C   0  0  2  0  0  0  0  0  0  0  0  0
   10.2885  -16.4084   24.6825 N   0  0  0  0  0  0  0  0  0  0  0  0
   11.3892  -18.5005   25.0063 C   0  0  0  0  0  0  0  0  0  0  0  0
   12.5350  -19.2807   25.0203 O   0  0  0  0  0  0  0  0  0  0  0  0
   10.3621  -19.0613   24.5537 O   0  0  0  0  0  0  0  0  0  0  0  0
  2  1  1  1
  2 10  1  0
  3  2  1  0
  3  4  1  0
  4  5  2  0
  4  9  1  0
  5  6  1  0
  6  7  2  0
  8  7  1  0
  9  8  2  0
 10 11  2  0
 12 10  1  0
 12 13  1  0
 13 20  1  0
 13 14  1  1
 14 15  1  0
 15 16  2  0
 15 19  1  0
 16 17  1  0
 17 18  1  0
 19 18  2  0
 20 21  2  0
 22 23  1  0
 23 24  2  0
 25 23  1  0
 26 25  1  1
 26 28  1  0
 27 26  1  0
 27 20  1  0
 28 29  1  0
 30 28  2  0
M  END
$$$$
