FHN.pdb
     RDKit          3D

 30 31  0  0  1  0  0  0  0  0999 V2000
    5.8284  -16.1526   24.5720 N   0  0  0  0  0  0  0  0  0  0  0  0
    6.9671  -15.3346   24.2894 C   0  0  1  0  0  0  0  0  0  0  0  0
    7.7463  -15.1053   25.5925 C   0  0  0  0  0  0  0  0  0  0  0  0
    7.3492  -13.8025   26.1460 C   0  0  0  0  0  0  0  0  0  0  0  0
    8.1321  -12.6887   25.9586 C   0  0  0  0  0  0  0  0  0  0  0  0
    7.7632  -11.4519   26.4799 C   0  0  0  0  0  0  0  0  0  0  0  0
    6.5960  -11.3353   27.1963 C   0  0  0  0  0  0  0  0  0  0  0  0
    5.8059  -12.4211   27.3952 C   0  0  0  0  0  0  0  0  0  0  0  0
    6.1748  -13.6421   26.8777 C   0  0  0  0  0  0  0  0  0  0  0  0
    7.8901  -16.0461   23.3788 C   0  0  0  0  0  0  0  0  0  0  0  0
    7.7675  -17.2829   23.2560 O   0  0  0  0  0  0  0  0  0  0  0  0
    8.8677  -15.2998   22.6900 N   0  0  0  0  0  0  0  0  0  0  0  0
    9.7530  -15.9756   21.7094 C   0  0  1  0  0  0  0  0  0  0  0  0
   10.0855  -15.0337   20.6208 C   0  0  0  0  0  0  0  0  0  0  0  0
    8.9202  -14.5503   19.8653 C   0  0  0  0  0  0  0  0  0  0  0  0
    7.5915  -14.9775   20.0230 C   0  0  0  0  0  0  0  0  0  0  0  0
    6.7863  -14.3310   19.1738 N   0  0  0  0  0  0  0  0  0  0  0  0
    7.5689  -13.4960   18.4717 C   0  0  0  0  0  0  0  0  0  0  0  0
    8.8378  -13.6298   18.8865 N   0  0  0  0  0  0  0  0  0  0  0  0
   10.8389  -16.6008   22.4412 C   0  0  0  0  0  0  0  0  0  0  0  0
   11.4952  -17.5271   21.8189 O   0  0  0  0  0  0  0  0  0  0  0  0
   13.9379  -14.0979   23.1084 N   0  0  0  0  0  0  0  0  0  0  0  0
   14.0298  -15.5053   23.2559 C   0  0  0  0  0  0  0  0  0  0  0  0
   14.5181  -16.1710   22.3248 O   0  0  0  0  0  0  0  0  0  0  0  0
   13.5559  -16.1485   24.4835 C   0  0  0  0  0  0  0  0  0  0  0  0
   12.4129  -17.0996   24.3355 C   0  0  2  0  0  0  0  0  0  0  0  0
   11.3056  -16.3517   23.7382 N   0  0  0  0  0  0  0  0  0  0  0  0
   11.9471  -17.7339   25.5743 C   0  0  0  0  0  0  0  0  0  0  0  0
   10.6694  -17.6228   26.1003 O   0  0  0  0  0  0  0  0  0  0  0  0
   12.7425  -18.4416   26.2383 O   0  0  0  0  0  0  0  0  0  0  0  0
  2  1  1  1
  2 10  1  0
  3  2  1  0
  3  4  1  0
  4  5  2  0
  4  9  1  0
  5  6  1  0
  6  7  2  0
  8  7  1  0
  9  8  2  0
 10 11  2  0
 12 10  1  0
 12 13  1  0
 13 20  1  0
 13 14  1  6
 14 15  1  0
 15 16  2  0
 15 19  1  0
 16 17  1  0
 17 18  1  0
 19 18  2  0
 20 21  2  0
 22 23  1  0
 23 24  2  0
 25 23  1  0
 26 25  1  1
 26 28  1  0
 27 26  1  0
 27 20  1  0
 28 29  1  0
 30 28  2  0
M  END
$$$$
