FHN.pdb
     RDKit          3D

 30 31  0  0  1  0  0  0  0  0999 V2000
    5.9251  -14.4209   23.3073 N   0  0  0  0  0  0  0  0  0  0  0  0
    7.2633  -14.6498   22.8574 C   0  0  1  0  0  0  0  0  0  0  0  0
    8.1248  -13.4349   23.2309 C   0  0  0  0  0  0  0  0  0  0  0  0
    7.7634  -13.0122   24.5919 C   0  0  0  0  0  0  0  0  0  0  0  0
    8.6792  -13.0707   25.6148 C   0  0  0  0  0  0  0  0  0  0  0  0
    8.3445  -12.6728   26.9060 C   0  0  0  0  0  0  0  0  0  0  0  0
    7.0768  -12.2121   27.1698 C   0  0  0  0  0  0  0  0  0  0  0  0
    6.1544  -12.1452   26.1761 C   0  0  0  0  0  0  0  0  0  0  0  0
    6.4899  -12.5397   24.9008 C   0  0  0  0  0  0  0  0  0  0  0  0
    7.8491  -15.8041   23.5729 C   0  0  0  0  0  0  0  0  0  0  0  0
    7.1223  -16.7943   23.7986 O   0  0  0  0  0  0  0  0  0  0  0  0
    9.2002  -15.7375   23.9696 N   0  0  0  0  0  0  0  0  0  0  0  0
    9.8982  -16.9701   24.4117 C   0  0  1  0  0  0  0  0  0  0  0  0
    9.8317  -17.9817   23.3369 C   0  0  0  0  0  0  0  0  0  0  0  0
   10.0536  -17.4422   21.9871 C   0  0  0  0  0  0  0  0  0  0  0  0
   10.3125  -16.1011   21.6598 C   0  0  0  0  0  0  0  0  0  0  0  0
   10.4627  -15.9605   20.3389 N   0  0  0  0  0  0  0  0  0  0  0  0
   10.3057  -17.1835   19.8078 C   0  0  0  0  0  0  0  0  0  0  0  0
   10.0624  -18.0622   20.7921 N   0  0  0  0  0  0  0  0  0  0  0  0
   11.2007  -16.5888   24.9253 C   0  0  0  0  0  0  0  0  0  0  0  0
   11.4373  -15.3189   25.0112 O   0  0  0  0  0  0  0  0  0  0  0  0
   11.6057  -15.4812   28.4770 N   0  0  0  0  0  0  0  0  0  0  0  0
   10.9233  -16.7234   28.4286 C   0  0  0  0  0  0  0  0  0  0  0  0
    9.9245  -16.8828   29.1534 O   0  0  0  0  0  0  0  0  0  0  0  0
   11.3954  -17.7874   27.5396 C   0  0  0  0  0  0  0  0  0  0  0  0
   12.6434  -17.5028   26.7687 C   0  0  2  0  0  0  0  0  0  0  0  0
   12.2628  -17.3920   25.3597 N   0  0  0  0  0  0  0  0  0  0  0  0
   13.7132  -18.4992   26.8971 C   0  0  0  0  0  0  0  0  0  0  0  0
   13.8045  -19.6756   26.1694 O   0  0  0  0  0  0  0  0  0  0  0  0
   14.6373  -18.3047   27.7232 O   0  0  0  0  0  0  0  0  0  0  0  0
  2  1  1  1
  2 10  1  0
  3  2  1  0
  3  4  1  0
  4  5  2  0
  4  9  1  0
  5  6  1  0
  6  7  2  0
  8  7  1  0
  9  8  2  0
 10 11  2  0
 12 10  1  0
 12 13  1  0
 13 20  1  0
 13 14  1  6
 14 15  1  0
 15 16  2  0
 15 19  1  0
 16 17  1  0
 17 18  1  0
 19 18  2  0
 20 21  2  0
 22 23  1  0
 23 24  2  0
 25 23  1  0
 26 25  1  1
 26 28  1  0
 27 26  1  0
 27 20  1  0
 28 29  1  0
 30 28  2  0
M  END
$$$$
