FHN.pdb
     RDKit          3D

 30 31  0  0  1  0  0  0  0  0999 V2000
    5.7773  -16.7459   24.4337 N   0  0  0  0  0  0  0  0  0  0  0  0
    6.9527  -15.9365   24.3385 C   0  0  1  0  0  0  0  0  0  0  0  0
    7.5168  -15.7167   25.7496 C   0  0  0  0  0  0  0  0  0  0  0  0
    7.2411  -14.3283   26.1470 C   0  0  0  0  0  0  0  0  0  0  0  0
    7.4837  -13.2866   25.2842 C   0  0  0  0  0  0  0  0  0  0  0  0
    7.2258  -11.9695   25.6533 C   0  0  0  0  0  0  0  0  0  0  0  0
    6.7194  -11.6987   26.9020 C   0  0  0  0  0  0  0  0  0  0  0  0
    6.4715  -12.7106   27.7722 C   0  0  0  0  0  0  0  0  0  0  0  0
    6.7281  -14.0115   27.4028 C   0  0  0  0  0  0  0  0  0  0  0  0
    8.0031  -16.6535   23.5835 C   0  0  0  0  0  0  0  0  0  0  0  0
    7.9236  -17.8963   23.4891 O   0  0  0  0  0  0  0  0  0  0  0  0
    9.0480  -15.9053   23.0042 N   0  0  0  0  0  0  0  0  0  0  0  0
   10.0994  -16.5970   22.2181 C   0  0  1  0  0  0  0  0  0  0  0  0
   10.4088  -15.8035   21.0108 C   0  0  0  0  0  0  0  0  0  0  0  0
    9.3256  -15.7716   20.0168 C   0  0  0  0  0  0  0  0  0  0  0  0
    8.4672  -16.8337   19.6881 C   0  0  0  0  0  0  0  0  0  0  0  0
    7.5988  -16.4604   18.7427 N   0  0  0  0  0  0  0  0  0  0  0  0
    7.8801  -15.1795   18.4549 C   0  0  0  0  0  0  0  0  0  0  0  0
    8.9083  -14.7738   19.2154 N   0  0  0  0  0  0  0  0  0  0  0  0
   11.1836  -16.9377   23.1205 C   0  0  0  0  0  0  0  0  0  0  0  0
   11.8409  -15.9466   23.6319 O   0  0  0  0  0  0  0  0  0  0  0  0
   14.8125  -19.2774   26.2045 N   0  0  0  0  0  0  0  0  0  0  0  0
   13.6873  -20.1173   26.0051 C   0  0  0  0  0  0  0  0  0  0  0  0
   13.6446  -21.2075   26.6036 O   0  0  0  0  0  0  0  0  0  0  0  0
   12.6059  -19.6977   25.1108 C   0  0  0  0  0  0  0  0  0  0  0  0
   12.7598  -18.3582   24.4667 C   0  0  2  0  0  0  0  0  0  0  0  0
   11.6374  -18.1941   23.5418 N   0  0  0  0  0  0  0  0  0  0  0  0
   14.0148  -18.1422   23.7372 C   0  0  0  0  0  0  0  0  0  0  0  0
   15.1279  -17.4825   24.2348 O   0  0  0  0  0  0  0  0  0  0  0  0
   14.1259  -18.5755   22.5649 O   0  0  0  0  0  0  0  0  0  0  0  0
  2  1  1  1
  2 10  1  0
  3  2  1  0
  3  4  1  0
  4  5  2  0
  4  9  1  0
  5  6  1  0
  6  7  2  0
  8  7  1  0
  9  8  2  0
 10 11  2  0
 12 10  1  0
 12 13  1  0
 13 20  1  0
 13 14  1  6
 14 15  1  0
 15 16  2  0
 15 19  1  0
 16 17  1  0
 17 18  1  0
 19 18  2  0
 20 21  2  0
 22 23  1  0
 23 24  2  0
 25 23  1  0
 26 25  1  6
 26 28  1  0
 27 26  1  0
 27 20  1  0
 28 29  1  0
 30 28  2  0
M  END
$$$$
