FHN.pdb
     RDKit          3D

 30 31  0  0  1  0  0  0  0  0999 V2000
    8.2971  -17.2661   19.6665 N   0  0  0  0  0  0  0  0  0  0  0  0
    9.4812  -16.6789   20.2131 C   0  0  1  0  0  0  0  0  0  0  0  0
    9.0871  -15.7801   21.3940 C   0  0  0  0  0  0  0  0  0  0  0  0
    8.3995  -14.5939   20.8634 C   0  0  0  0  0  0  0  0  0  0  0  0
    7.0491  -14.4198   21.0494 C   0  0  0  0  0  0  0  0  0  0  0  0
    6.3908  -13.2997   20.5497 C   0  0  0  0  0  0  0  0  0  0  0  0
    7.0981  -12.3466   19.8566 C   0  0  0  0  0  0  0  0  0  0  0  0
    8.4329  -12.4962   19.6596 C   0  0  0  0  0  0  0  0  0  0  0  0
    9.0796  -13.6055   20.1556 C   0  0  0  0  0  0  0  0  0  0  0  0
   10.3579  -17.7306   20.7723 C   0  0  0  0  0  0  0  0  0  0  0  0
    9.8258  -18.7438   21.2724 O   0  0  0  0  0  0  0  0  0  0  0  0
   11.7542  -17.5450   20.7179 N   0  0  0  0  0  0  0  0  0  0  0  0
   12.6564  -18.5862   21.2692 C   0  0  1  0  0  0  0  0  0  0  0  0
   13.8884  -18.6460   20.4558 C   0  0  0  0  0  0  0  0  0  0  0  0
   13.6913  -19.1867   19.1026 C   0  0  0  0  0  0  0  0  0  0  0  0
   13.2082  -20.4656   18.7803 C   0  0  0  0  0  0  0  0  0  0  0  0
   13.1559  -20.6275   17.4543 N   0  0  0  0  0  0  0  0  0  0  0  0
   13.5956  -19.4792   16.9152 C   0  0  0  0  0  0  0  0  0  0  0  0
   13.9131  -18.6247   17.8996 N   0  0  0  0  0  0  0  0  0  0  0  0
   12.7790  -18.3634   22.6979 C   0  0  0  0  0  0  0  0  0  0  0  0
   12.4582  -17.1848   23.1270 O   0  0  0  0  0  0  0  0  0  0  0  0
    9.4027  -20.0126   26.5001 N   0  0  0  0  0  0  0  0  0  0  0  0
   10.5390  -19.1795   26.3395 C   0  0  0  0  0  0  0  0  0  0  0  0
   10.9306  -18.5122   27.3141 O   0  0  0  0  0  0  0  0  0  0  0  0
   11.2272  -19.1156   25.0482 C   0  0  0  0  0  0  0  0  0  0  0  0
   12.7208  -19.1270   25.0912 C   0  0  2  0  0  0  0  0  0  0  0  0
   13.1902  -19.2405   23.7095 N   0  0  0  0  0  0  0  0  0  0  0  0
   13.3272  -20.1979   25.8907 C   0  0  0  0  0  0  0  0  0  0  0  0
   13.2094  -21.5550   25.6337 O   0  0  0  0  0  0  0  0  0  0  0  0
   14.0150  -19.8988   26.8967 O   0  0  0  0  0  0  0  0  0  0  0  0
  2  1  1  1
  2 10  1  0
  3  2  1  0
  3  4  1  0
  4  5  2  0
  4  9  1  0
  5  6  1  0
  6  7  2  0
  8  7  1  0
  9  8  2  0
 10 11  2  0
 12 10  1  0
 12 13  1  0
 13 20  1  0
 13 14  1  6
 14 15  1  0
 15 16  2  0
 15 19  1  0
 16 17  1  0
 17 18  1  0
 19 18  2  0
 20 21  2  0
 22 23  1  0
 23 24  2  0
 25 23  1  0
 26 25  1  6
 26 28  1  0
 27 26  1  0
 27 20  1  0
 28 29  1  0
 30 28  2  0
M  END
$$$$
