FHN.pdb
     RDKit          3D

 30 31  0  0  1  0  0  0  0  0999 V2000
    5.5871  -16.2846   24.9392 N   0  0  0  0  0  0  0  0  0  0  0  0
    6.6261  -15.5790   24.2551 C   0  0  1  0  0  0  0  0  0  0  0  0
    7.7300  -15.2263   25.2625 C   0  0  0  0  0  0  0  0  0  0  0  0
    7.4078  -13.9245   25.8651 C   0  0  0  0  0  0  0  0  0  0  0  0
    6.4798  -13.8249   26.8738 C   0  0  0  0  0  0  0  0  0  0  0  0
    6.1690  -12.5961   27.4490 C   0  0  0  0  0  0  0  0  0  0  0  0
    6.7978  -11.4575   27.0048 C   0  0  0  0  0  0  0  0  0  0  0  0
    7.7180  -11.5301   26.0094 C   0  0  0  0  0  0  0  0  0  0  0  0
    8.0221  -12.7475   25.4436 C   0  0  0  0  0  0  0  0  0  0  0  0
    7.2568  -16.4571   23.2458 C   0  0  0  0  0  0  0  0  0  0  0  0
    6.5170  -17.0912   22.4646 O   0  0  0  0  0  0  0  0  0  0  0  0
    8.6635  -16.5414   23.2087 N   0  0  0  0  0  0  0  0  0  0  0  0
    9.4143  -15.8382   22.1393 C   0  0  1  0  0  0  0  0  0  0  0  0
    8.8442  -14.4886   21.9483 C   0  0  0  0  0  0  0  0  0  0  0  0
    8.1975  -14.2869   20.6431 C   0  0  0  0  0  0  0  0  0  0  0  0
    7.1384  -15.0428   20.1142 C   0  0  0  0  0  0  0  0  0  0  0  0
    6.7954  -14.5885   18.9045 N   0  0  0  0  0  0  0  0  0  0  0  0
    7.6119  -13.5554   18.6427 C   0  0  0  0  0  0  0  0  0  0  0  0
    8.4446  -13.3795   19.6798 N   0  0  0  0  0  0  0  0  0  0  0  0
   10.8306  -15.9575   22.4323 C   0  0  0  0  0  0  0  0  0  0  0  0
   11.6455  -15.6322   21.4804 O   0  0  0  0  0  0  0  0  0  0  0  0
   15.8842  -15.9046   23.7714 N   0  0  0  0  0  0  0  0  0  0  0  0
   14.9526  -15.7856   24.8339 C   0  0  0  0  0  0  0  0  0  0  0  0
   15.3756  -15.8227   26.0036 O   0  0  0  0  0  0  0  0  0  0  0  0
   13.5257  -15.6230   24.5460 C   0  0  0  0  0  0  0  0  0  0  0  0
   12.9044  -16.6586   23.6660 C   0  0  2  0  0  0  0  0  0  0  0  0
   11.4707  -16.3697   23.6079 N   0  0  0  0  0  0  0  0  0  0  0  0
   13.0939  -18.0512   24.0888 C   0  0  0  0  0  0  0  0  0  0  0  0
   14.2148  -18.8233   23.8258 O   0  0  0  0  0  0  0  0  0  0  0  0
   12.1885  -18.6227   24.7429 O   0  0  0  0  0  0  0  0  0  0  0  0
  2  1  1  1
  2 10  1  0
  3  2  1  0
  3  4  1  0
  4  5  2  0
  4  9  1  0
  5  6  1  0
  6  7  2  0
  8  7  1  0
  9  8  2  0
 10 11  2  0
 12 10  1  0
 12 13  1  0
 13 20  1  0
 13 14  1  1
 14 15  1  0
 15 16  2  0
 15 19  1  0
 16 17  1  0
 17 18  1  0
 19 18  2  0
 20 21  2  0
 22 23  1  0
 23 24  2  0
 25 23  1  0
 26 25  1  1
 26 28  1  0
 27 26  1  0
 27 20  1  0
 28 29  1  0
 30 28  2  0
M  END
$$$$
