FHN.pdb
     RDKit          3D

 30 31  0  0  1  0  0  0  0  0999 V2000
    9.3931  -14.7492   24.5463 N   0  0  0  0  0  0  0  0  0  0  0  0
    8.4229  -15.6570   25.0757 C   0  0  1  0  0  0  0  0  0  0  0  0
    7.0341  -15.2509   24.5617 C   0  0  0  0  0  0  0  0  0  0  0  0
    6.7136  -13.9197   25.0970 C   0  0  0  0  0  0  0  0  0  0  0  0
    6.9513  -12.7863   24.3571 C   0  0  0  0  0  0  0  0  0  0  0  0
    6.6510  -11.5225   24.8573 C   0  0  0  0  0  0  0  0  0  0  0  0
    6.1067  -11.3985   26.1132 C   0  0  0  0  0  0  0  0  0  0  0  0
    5.8628  -12.5032   26.8635 C   0  0  0  0  0  0  0  0  0  0  0  0
    6.1614  -13.7509   26.3648 C   0  0  0  0  0  0  0  0  0  0  0  0
    8.6690  -17.0210   24.5595 C   0  0  0  0  0  0  0  0  0  0  0  0
    7.8413  -17.9165   24.8291 O   0  0  0  0  0  0  0  0  0  0  0  0
    9.8255  -17.2522   23.7873 N   0  0  0  0  0  0  0  0  0  0  0  0
   10.1553  -18.6320   23.3522 C   0  0  1  0  0  0  0  0  0  0  0  0
   10.7067  -18.5937   21.9819 C   0  0  0  0  0  0  0  0  0  0  0  0
    9.7955  -18.0181   20.9816 C   0  0  0  0  0  0  0  0  0  0  0  0
    8.3971  -17.9336   21.0817 C   0  0  0  0  0  0  0  0  0  0  0  0
    7.8824  -17.3538   19.9926 N   0  0  0  0  0  0  0  0  0  0  0  0
    8.9204  -17.0629   19.1923 C   0  0  0  0  0  0  0  0  0  0  0  0
   10.0569  -17.4599   19.7847 N   0  0  0  0  0  0  0  0  0  0  0  0
   10.9422  -19.2569   24.3991 C   0  0  0  0  0  0  0  0  0  0  0  0
   11.2147  -20.5129   24.2435 O   0  0  0  0  0  0  0  0  0  0  0  0
   12.2294  -18.8148   30.2971 N   0  0  0  0  0  0  0  0  0  0  0  0
   12.7402  -19.2458   29.0463 C   0  0  0  0  0  0  0  0  0  0  0  0
   13.5781  -20.1656   29.0303 O   0  0  0  0  0  0  0  0  0  0  0  0
   12.2821  -18.6128   27.8075 C   0  0  0  0  0  0  0  0  0  0  0  0
   12.0162  -19.5259   26.6549 C   0  0  2  0  0  0  0  0  0  0  0  0
   11.4721  -18.7048   25.5722 N   0  0  0  0  0  0  0  0  0  0  0  0
   11.0945  -20.6365   26.9210 C   0  0  0  0  0  0  0  0  0  0  0  0
    9.7179  -20.5247   27.0402 O   0  0  0  0  0  0  0  0  0  0  0  0
   11.5538  -21.7960   27.0582 O   0  0  0  0  0  0  0  0  0  0  0  0
  2  1  1  6
  2 10  1  0
  3  2  1  0
  3  4  1  0
  4  5  2  0
  4  9  1  0
  5  6  1  0
  6  7  2  0
  8  7  1  0
  9  8  2  0
 10 11  2  0
 12 10  1  0
 12 13  1  0
 13 20  1  0
 13 14  1  6
 14 15  1  0
 15 16  2  0
 15 19  1  0
 16 17  1  0
 17 18  1  0
 19 18  2  0
 20 21  2  0
 22 23  1  0
 23 24  2  0
 25 23  1  0
 26 25  1  1
 26 28  1  0
 27 26  1  0
 27 20  1  0
 28 29  1  0
 30 28  2  0
M  END
$$$$
