FHN.pdb
     RDKit          3D

 30 31  0  0  1  0  0  0  0  0999 V2000
    5.6690  -18.1054   25.8238 N   0  0  0  0  0  0  0  0  0  0  0  0
    6.0299  -16.7298   25.6726 C   0  0  1  0  0  0  0  0  0  0  0  0
    6.8293  -16.2901   26.9077 C   0  0  0  0  0  0  0  0  0  0  0  0
    6.9846  -14.8288   26.8622 C   0  0  0  0  0  0  0  0  0  0  0  0
    5.8961  -13.9998   26.9900 C   0  0  0  0  0  0  0  0  0  0  0  0
    6.0351  -12.6154   26.9475 C   0  0  0  0  0  0  0  0  0  0  0  0
    7.2807  -12.0608   26.7748 C   0  0  0  0  0  0  0  0  0  0  0  0
    8.3713  -12.8588   26.6459 C   0  0  0  0  0  0  0  0  0  0  0  0
    8.2290  -14.2272   26.6886 C   0  0  0  0  0  0  0  0  0  0  0  0
    6.9379  -16.5671   24.5165 C   0  0  0  0  0  0  0  0  0  0  0  0
    7.8017  -17.4453   24.3113 O   0  0  0  0  0  0  0  0  0  0  0  0
    6.7906  -15.4294   23.6972 N   0  0  0  0  0  0  0  0  0  0  0  0
    7.6050  -15.3015   22.4633 C   0  0  1  0  0  0  0  0  0  0  0  0
    7.0962  -14.1730   21.6567 C   0  0  0  0  0  0  0  0  0  0  0  0
    7.7487  -14.0261   20.3471 C   0  0  0  0  0  0  0  0  0  0  0  0
    8.8387  -14.7741   19.8725 C   0  0  0  0  0  0  0  0  0  0  0  0
    9.1795  -14.3787   18.6418 N   0  0  0  0  0  0  0  0  0  0  0  0
    8.3316  -13.3909   18.3133 C   0  0  0  0  0  0  0  0  0  0  0  0
    7.4820  -13.1844   19.3309 N   0  0  0  0  0  0  0  0  0  0  0  0
    9.0045  -15.3044   22.8468 C   0  0  0  0  0  0  0  0  0  0  0  0
    9.3357  -14.5238   23.8251 O   0  0  0  0  0  0  0  0  0  0  0  0
   13.9813  -16.4558   24.0317 N   0  0  0  0  0  0  0  0  0  0  0  0
   12.9744  -17.4362   24.2221 C   0  0  0  0  0  0  0  0  0  0  0  0
   13.2546  -18.4587   24.8735 O   0  0  0  0  0  0  0  0  0  0  0  0
   11.6374  -17.2361   23.6584 C   0  0  0  0  0  0  0  0  0  0  0  0
   11.4258  -15.9757   22.8841 C   0  0  2  0  0  0  0  0  0  0  0  0
   10.0759  -16.0380   22.3216 N   0  0  0  0  0  0  0  0  0  0  0  0
   12.3832  -15.7251   21.8004 C   0  0  0  0  0  0  0  0  0  0  0  0
   12.0590  -15.5916   20.4593 O   0  0  0  0  0  0  0  0  0  0  0  0
   13.6035  -15.6174   22.0721 O   0  0  0  0  0  0  0  0  0  0  0  0
  2  1  1  1
  2 10  1  0
  3  2  1  0
  3  4  1  0
  4  5  2  0
  4  9  1  0
  5  6  1  0
  6  7  2  0
  8  7  1  0
  9  8  2  0
 10 11  2  0
 12 10  1  0
 12 13  1  0
 13 20  1  0
 13 14  1  1
 14 15  1  0
 15 16  2  0
 15 19  1  0
 16 17  1  0
 17 18  1  0
 19 18  2  0
 20 21  2  0
 22 23  1  0
 23 24  2  0
 25 23  1  0
 26 25  1  6
 26 28  1  0
 27 26  1  0
 27 20  1  0
 28 29  1  0
 30 28  2  0
M  END
$$$$
