RCY.pdb
     RDKit          3D

 30 30  0  0  1  0  0  0  0  0999 V2000
   18.8363  -13.5625  -16.3245 N   0  0  0  0  0  0  0  0  0  0  0  0
   18.1240  -14.6983  -15.8872 C   0  0  0  0  0  0  0  0  0  0  0  0
   18.5300  -15.8812  -16.2362 N   0  0  0  0  0  0  0  0  0  0  0  0
   16.9681  -14.5821  -15.0705 N   0  0  0  0  0  0  0  0  0  0  0  0
   16.5604  -13.2470  -14.6627 C   0  0  0  0  0  0  0  0  0  0  0  0
   15.2693  -13.3051  -13.8646 C   0  0  0  0  0  0  0  0  0  0  0  0
   14.8496  -11.9001  -13.5370 C   0  0  0  0  0  0  0  0  0  0  0  0
   13.6924  -11.9003  -12.5934 C   0  0  2  0  0  0  0  0  0  0  0  0
   12.4932  -12.2595  -13.3028 N   0  0  0  0  0  0  0  0  0  0  0  0
   13.5340  -10.5543  -11.9900 C   0  0  0  0  0  0  0  0  0  0  0  0
   12.8411   -9.6529  -12.5742 O   0  0  0  0  0  0  0  0  0  0  0  0
   18.0766  -16.7440  -15.8834 N   0  0  0  0  0  0  0  0  0  0  0  0
   14.1295  -10.1921  -10.7535 C   0  0  2  0  0  0  0  0  0  0  0  0
   14.1013   -8.8693  -10.1996 C   0  0  0  0  0  0  0  0  0  0  0  0
   13.1129   -8.7320   -9.0653 S   0  0  0  0  0  0  0  0  0  0  0  0
   12.7165  -10.2862   -8.2720 C   0  0  0  0  0  0  0  0  0  0  0  0
   15.4638   -8.4021   -9.7953 O   0  0  0  0  0  0  0  0  0  0  0  0
   16.3254   -9.1983   -9.3208 O   0  0  0  0  0  0  0  0  0  0  0  0
   23.3088   -5.4898  -11.0981 C   0  0  0  0  0  0  0  0  0  0  0  0
   22.0083   -5.9486  -11.0647 C   0  0  0  0  0  0  0  0  0  0  0  0
   21.0693   -5.4068  -11.9091 C   0  0  0  0  0  0  0  0  0  0  0  0
   19.7729   -5.8370  -11.9031 C   0  0  0  0  0  0  0  0  0  0  0  0
   19.4135   -6.8447  -11.0179 C   0  0  0  0  0  0  0  0  0  0  0  0
   18.0063   -7.2941  -10.9942 C   0  0  1  0  0  0  0  0  0  0  0  0
   17.2241   -6.5992   -9.9288 N   0  0  0  0  0  0  0  0  0  0  0  0
   15.8188   -7.0490   -9.9369 C   0  0  0  0  0  0  0  0  0  0  0  0
   17.2120   -5.1515  -10.1876 O   0  0  0  0  0  0  0  0  0  0  0  0
   16.3741   -4.6895  -11.0023 C   0  0  0  0  0  0  0  0  0  0  0  0
   20.3434   -7.3944  -10.1683 C   0  0  0  0  0  0  0  0  0  0  0  0
   21.6405   -6.9461  -10.1923 O   0  0  0  0  0  0  0  0  0  0  0  0
  2  1  1  0
  3  2  2  0
  4  2  1  0
  5  6  1  0
  5  4  1  0
  7  6  1  0
  7  8  1  0
  8 10  1  0
  8  9  1  6
 10 11  2  0
 12 10  1  0
 12 13  1  0
 13 14  1  6
 14 15  1  0
 16 17  2  0
 16 13  1  0
 18 19  1  0
 19 29  2  0
 20 19  1  0
 20 21  2  0
 21 22  1  0
 22 28  2  0
 22 23  1  0
 24 23  1  1
 24 26  1  0
 24 25  1  0
 25 16  1  0
 26 30  1  0
 27 26  2  0
 29 28  1  0
M  END
$$$$
