RCY.pdb
     RDKit          3D

 30 30  0  0  1  0  0  0  0  0999 V2000
   29.1894  -25.1832  -17.2891 N   0  0  0  0  0  0  0  0  0  0  0  0
   30.0129  -24.4571  -16.4041 C   0  0  0  0  0  0  0  0  0  0  0  0
   30.7328  -25.0948  -15.5317 N   0  0  0  0  0  0  0  0  0  0  0  0
   30.0763  -23.0389  -16.4418 N   0  0  0  0  0  0  0  0  0  0  0  0
   29.3693  -22.3594  -17.5158 C   0  0  0  0  0  0  0  0  0  0  0  0
   28.4588  -21.2807  -16.9549 C   0  0  0  0  0  0  0  0  0  0  0  0
   27.6712  -20.6871  -18.0883 C   0  0  0  0  0  0  0  0  0  0  0  0
   27.3498  -21.7268  -19.1106 C   0  0  2  0  0  0  0  0  0  0  0  0
   28.0718  -21.4482  -20.3236 N   0  0  0  0  0  0  0  0  0  0  0  0
   25.8918  -21.7305  -19.3845 C   0  0  0  0  0  0  0  0  0  0  0  0
   25.4007  -21.0157  -20.3235 O   0  0  0  0  0  0  0  0  0  0  0  0
   31.4236  -24.6104  -14.9297 N   0  0  0  0  0  0  0  0  0  0  0  0
   24.9719  -22.5110  -18.6366 C   0  0  2  0  0  0  0  0  0  0  0  0
   23.5561  -22.5320  -18.8659 C   0  0  0  0  0  0  0  0  0  0  0  0
   22.8710  -23.6929  -18.1836 S   0  0  0  0  0  0  0  0  0  0  0  0
   23.3824  -25.2902  -18.8075 C   0  0  0  0  0  0  0  0  0  0  0  0
   22.9112  -21.2307  -18.5069 O   0  0  0  0  0  0  0  0  0  0  0  0
   23.5770  -20.2718  -18.0184 O   0  0  0  0  0  0  0  0  0  0  0  0
   18.4653  -13.9319  -18.2822 C   0  0  0  0  0  0  0  0  0  0  0  0
   19.1577  -15.1032  -18.5092 C   0  0  0  0  0  0  0  0  0  0  0  0
   20.3675  -15.3137  -17.8924 C   0  0  0  0  0  0  0  0  0  0  0  0
   21.0799  -16.4616  -18.0942 C   0  0  0  0  0  0  0  0  0  0  0  0
   20.5553  -17.4261  -18.9442 C   0  0  0  0  0  0  0  0  0  0  0  0
   21.3363  -18.6575  -19.1816 C   0  0  1  0  0  0  0  0  0  0  0  0
   20.8452  -19.7914  -18.3432 N   0  0  0  0  0  0  0  0  0  0  0  0
   21.5322  -21.0451  -18.7085 C   0  0  0  0  0  0  0  0  0  0  0  0
   19.4102  -20.0024  -18.5868 O   0  0  0  0  0  0  0  0  0  0  0  0
   18.5798  -19.4721  -17.8068 C   0  0  0  0  0  0  0  0  0  0  0  0
   19.3464  -17.2270  -19.5672 C   0  0  0  0  0  0  0  0  0  0  0  0
   18.6482  -16.0656  -19.3492 O   0  0  0  0  0  0  0  0  0  0  0  0
  2  1  1  0
  3  2  2  0
  4  2  1  0
  5  6  1  0
  5  4  1  0
  7  6  1  0
  7  8  1  0
  8 10  1  0
  8  9  1  6
 10 11  2  0
 12 10  1  0
 12 13  1  0
 13 14  1  6
 14 15  1  0
 16 17  2  0
 16 13  1  0
 18 19  1  0
 19 29  2  0
 20 19  1  0
 20 21  2  0
 21 22  1  0
 22 28  2  0
 22 23  1  0
 24 23  1  1
 24 26  1  0
 24 25  1  0
 25 16  1  0
 26 30  1  0
 27 26  2  0
 29 28  1  0
M  END
$$$$
