RCY.pdb
     RDKit          3D

 30 30  0  0  1  0  0  0  0  0999 V2000
   31.1125  -24.3220  -17.7849 N   0  0  0  0  0  0  0  0  0  0  0  0
   29.7726  -24.7221  -17.9673 C   0  0  0  0  0  0  0  0  0  0  0  0
   29.4936  -25.9837  -18.0947 N   0  0  0  0  0  0  0  0  0  0  0  0
   28.7143  -23.7763  -18.0156 N   0  0  0  0  0  0  0  0  0  0  0  0
   29.0440  -22.3806  -17.7742 C   0  0  0  0  0  0  0  0  0  0  0  0
   29.4150  -22.1655  -16.3171 C   0  0  0  0  0  0  0  0  0  0  0  0
   28.5548  -21.0641  -15.7654 C   0  0  0  0  0  0  0  0  0  0  0  0
   27.1072  -21.3867  -15.9383 C   0  0  2  0  0  0  0  0  0  0  0  0
   26.6190  -20.7754  -17.1459 N   0  0  0  0  0  0  0  0  0  0  0  0
   26.3364  -20.8839  -14.7747 C   0  0  0  0  0  0  0  0  0  0  0  0
   26.0407  -19.6446  -14.6720 O   0  0  0  0  0  0  0  0  0  0  0  0
   28.5322  -26.3166  -18.2929 N   0  0  0  0  0  0  0  0  0  0  0  0
   25.8897  -21.7297  -13.7260 C   0  0  2  0  0  0  0  0  0  0  0  0
   25.0666  -21.2972  -12.6338 C   0  0  0  0  0  0  0  0  0  0  0  0
   23.6778  -21.8903  -12.6783 S   0  0  0  0  0  0  0  0  0  0  0  0
   23.6638  -23.6516  -12.9941 C   0  0  0  0  0  0  0  0  0  0  0  0
   25.7205  -21.5383  -11.3100 O   0  0  0  0  0  0  0  0  0  0  0  0
   26.2184  -22.6624  -11.0099 O   0  0  0  0  0  0  0  0  0  0  0  0
   29.1452  -20.1826   -3.3704 C   0  0  0  0  0  0  0  0  0  0  0  0
   28.6724  -20.0429   -4.6588 C   0  0  0  0  0  0  0  0  0  0  0  0
   29.2279  -20.7814   -5.6757 C   0  0  0  0  0  0  0  0  0  0  0  0
   28.7845  -20.6684   -6.9627 C   0  0  0  0  0  0  0  0  0  0  0  0
   27.7491  -19.7831   -7.2313 C   0  0  0  0  0  0  0  0  0  0  0  0
   27.2850  -19.6428   -8.6268 C   0  0  1  0  0  0  0  0  0  0  0  0
   26.3249  -20.7241   -8.9994 N   0  0  0  0  0  0  0  0  0  0  0  0
   25.7957  -20.5052  -10.3593 C   0  0  0  0  0  0  0  0  0  0  0  0
   25.1745  -20.7024   -8.0833 O   0  0  0  0  0  0  0  0  0  0  0  0
   24.1685  -20.0153   -8.3916 C   0  0  0  0  0  0  0  0  0  0  0  0
   27.1855  -19.0387   -6.2228 C   0  0  0  0  0  0  0  0  0  0  0  0
   27.6474  -19.1691   -4.9369 O   0  0  0  0  0  0  0  0  0  0  0  0
  2  1  1  0
  3  2  2  0
  4  2  1  0
  5  6  1  0
  5  4  1  0
  7  6  1  0
  7  8  1  0
  8 10  1  0
  8  9  1  6
 10 11  2  0
 12 10  1  0
 12 13  1  0
 13 14  1  6
 14 15  1  0
 16 17  2  0
 16 13  1  0
 18 19  1  0
 19 29  2  0
 20 19  1  0
 20 21  2  0
 21 22  1  0
 22 28  2  0
 22 23  1  0
 24 23  1  6
 24 26  1  0
 24 25  1  0
 25 16  1  0
 26 30  1  0
 27 26  2  0
 29 28  1  0
M  END
$$$$
