RCY.pdb
     RDKit          3D

 30 30  0  0  1  0  0  0  0  0999 V2000
   27.0215  -19.6660  -19.1022 N   0  0  0  0  0  0  0  0  0  0  0  0
   28.0479  -18.7097  -18.9584 C   0  0  0  0  0  0  0  0  0  0  0  0
   28.3362  -17.9266  -19.9532 N   0  0  0  0  0  0  0  0  0  0  0  0
   28.7788  -18.5797  -17.7478 N   0  0  0  0  0  0  0  0  0  0  0  0
   28.2272  -19.2034  -16.5554 C   0  0  0  0  0  0  0  0  0  0  0  0
   26.7317  -19.4190  -16.7106 C   0  0  0  0  0  0  0  0  0  0  0  0
   26.2309  -20.1617  -15.5044 C   0  0  0  0  0  0  0  0  0  0  0  0
   26.6197  -19.4540  -14.2484 C   0  0  2  0  0  0  0  0  0  0  0  0
   27.8227  -18.6978  -14.4750 N   0  0  0  0  0  0  0  0  0  0  0  0
   26.8441  -20.4401  -13.1631 C   0  0  0  0  0  0  0  0  0  0  0  0
   27.1829  -21.6430  -13.4319 O   0  0  0  0  0  0  0  0  0  0  0  0
   29.0952  -17.2230  -19.8965 N   0  0  0  0  0  0  0  0  0  0  0  0
   26.6993  -20.1159  -11.7888 C   0  0  2  0  0  0  0  0  0  0  0  0
   26.2245  -21.0281  -10.7889 C   0  0  0  0  0  0  0  0  0  0  0  0
   26.7845  -20.7340   -9.4168 S   0  0  0  0  0  0  0  0  0  0  0  0
   25.9360  -19.4059   -8.5693 C   0  0  0  0  0  0  0  0  0  0  0  0
   24.7305  -21.1034  -10.7635 O   0  0  0  0  0  0  0  0  0  0  0  0
   24.0099  -20.1149  -11.0875 O   0  0  0  0  0  0  0  0  0  0  0  0
   16.6639  -22.1110   -8.2305 C   0  0  0  0  0  0  0  0  0  0  0  0
   18.0106  -21.9322   -8.4704 C   0  0  0  0  0  0  0  0  0  0  0  0
   18.4205  -21.1267   -9.5053 C   0  0  0  0  0  0  0  0  0  0  0  0
   19.7454  -20.9272   -9.7712 C   0  0  0  0  0  0  0  0  0  0  0  0
   20.6848  -21.5600   -8.9681 C   0  0  0  0  0  0  0  0  0  0  0  0
   22.1177  -21.3638   -9.2696 C   0  0  2  0  0  0  0  0  0  0  0  0
   22.6225  -22.3854  -10.2347 N   0  0  0  0  0  0  0  0  0  0  0  0
   24.0885  -22.2918  -10.3732 C   0  0  0  0  0  0  0  0  0  0  0  0
   22.0495  -22.1350  -11.5659 O   0  0  0  0  0  0  0  0  0  0  0  0
   22.3938  -21.0985  -12.1875 C   0  0  0  0  0  0  0  0  0  0  0  0
   20.2873  -22.3684   -7.9300 C   0  0  0  0  0  0  0  0  0  0  0  0
   18.9502  -22.5540   -7.6817 O   0  0  0  0  0  0  0  0  0  0  0  0
  2  1  1  0
  3  2  2  0
  4  2  1  0
  5  6  1  0
  5  4  1  0
  7  6  1  0
  7  8  1  0
  8 10  1  0
  8  9  1  6
 10 11  2  0
 12 10  1  0
 12 13  1  0
 13 14  1  1
 14 15  1  0
 16 17  2  0
 16 13  1  0
 18 19  1  0
 19 29  2  0
 20 19  1  0
 20 21  2  0
 21 22  1  0
 22 28  2  0
 22 23  1  0
 24 23  1  1
 24 26  1  0
 24 25  1  0
 25 16  1  0
 26 30  1  0
 27 26  2  0
 29 28  1  0
M  END
$$$$
