RCY.pdb
     RDKit          3D

 30 30  0  0  1  0  0  0  0  0999 V2000
   12.2493  -12.6172  -14.6867 N   0  0  0  0  0  0  0  0  0  0  0  0
   12.9821  -13.7773  -15.0120 C   0  0  0  0  0  0  0  0  0  0  0  0
   12.3953  -14.9350  -14.9774 N   0  0  0  0  0  0  0  0  0  0  0  0
   14.3525  -13.7126  -15.3787 N   0  0  0  0  0  0  0  0  0  0  0  0
   14.8979  -12.4102  -15.7271 C   0  0  0  0  0  0  0  0  0  0  0  0
   16.3601  -12.3206  -15.3255 C   0  0  0  0  0  0  0  0  0  0  0  0
   16.8895  -10.9815  -15.7546 C   0  0  0  0  0  0  0  0  0  0  0  0
   18.3519  -10.8759  -15.4723 C   0  0  2  0  0  0  0  0  0  0  0  0
   18.9150  -12.1944  -15.3511 N   0  0  0  0  0  0  0  0  0  0  0  0
   18.5689  -10.1204  -14.2142 C   0  0  0  0  0  0  0  0  0  0  0  0
   18.6413  -10.7266  -13.0911 O   0  0  0  0  0  0  0  0  0  0  0  0
   12.8937  -15.8111  -15.2189 N   0  0  0  0  0  0  0  0  0  0  0  0
   18.7064   -8.7080  -14.1804 C   0  0  1  0  0  0  0  0  0  0  0  0
   18.9781   -7.9505  -12.9930 C   0  0  0  0  0  0  0  0  0  0  0  0
   19.9664   -6.8321  -13.2270 S   0  0  0  0  0  0  0  0  0  0  0  0
   20.4786   -6.0063  -11.7244 C   0  0  0  0  0  0  0  0  0  0  0  0
   17.7243   -7.4452  -12.3519 O   0  0  0  0  0  0  0  0  0  0  0  0
   16.7922   -6.9268  -13.0330 O   0  0  0  0  0  0  0  0  0  0  0  0
   11.4139   -6.3283   -6.4129 C   0  0  0  0  0  0  0  0  0  0  0  0
   12.6089   -6.6543   -7.0200 C   0  0  0  0  0  0  0  0  0  0  0  0
   13.6995   -5.8319   -6.8705 C   0  0  0  0  0  0  0  0  0  0  0  0
   14.8979   -6.1240   -7.4573 C   0  0  0  0  0  0  0  0  0  0  0  0
   14.9985   -7.2813   -8.2179 C   0  0  0  0  0  0  0  0  0  0  0  0
   16.2875   -7.5857   -8.8724 C   0  0  2  0  0  0  0  0  0  0  0  0
   16.3130   -7.1092  -10.2874 N   0  0  0  0  0  0  0  0  0  0  0  0
   17.5548   -7.5379  -10.9592 C   0  0  0  0  0  0  0  0  0  0  0  0
   16.2964   -5.6388  -10.3153 O   0  0  0  0  0  0  0  0  0  0  0  0
   17.3903   -5.0208  -10.2901 C   0  0  0  0  0  0  0  0  0  0  0  0
   13.9147   -8.1118   -8.3752 C   0  0  0  0  0  0  0  0  0  0  0  0
   12.7204   -7.7978   -7.7759 O   0  0  0  0  0  0  0  0  0  0  0  0
  2  1  1  0
  3  2  2  0
  4  2  1  0
  5  6  1  0
  5  4  1  0
  7  6  1  0
  7  8  1  0
  8 10  1  0
  8  9  1  1
 10 11  2  0
 12 10  1  0
 12 13  1  0
 13 14  1  6
 14 15  1  0
 16 17  2  0
 16 13  1  0
 18 19  1  0
 19 29  2  0
 20 19  1  0
 20 21  2  0
 21 22  1  0
 22 28  2  0
 22 23  1  0
 24 23  1  6
 24 26  1  0
 24 25  1  0
 25 16  1  0
 26 30  1  0
 27 26  2  0
 29 28  1  0
M  END
$$$$
