RCY.pdb
     RDKit          3D

 30 30  0  0  1  0  0  0  0  0999 V2000
   27.9512  -17.7855  -18.0607 N   0  0  0  0  0  0  0  0  0  0  0  0
   28.1258  -16.3963  -17.8932 C   0  0  0  0  0  0  0  0  0  0  0  0
   28.7104  -15.7081  -18.8262 N   0  0  0  0  0  0  0  0  0  0  0  0
   27.6769  -15.7261  -16.7245 N   0  0  0  0  0  0  0  0  0  0  0  0
   26.9321  -16.5014  -15.7451 C   0  0  0  0  0  0  0  0  0  0  0  0
   27.5599  -17.8725  -15.5626 C   0  0  0  0  0  0  0  0  0  0  0  0
   26.7503  -18.6352  -14.5525 C   0  0  0  0  0  0  0  0  0  0  0  0
   27.3755  -19.9604  -14.2653 C   0  0  2  0  0  0  0  0  0  0  0  0
   27.7932  -20.5725  -15.4986 N   0  0  0  0  0  0  0  0  0  0  0  0
   26.3997  -20.8388  -13.5748 C   0  0  0  0  0  0  0  0  0  0  0  0
   25.6702  -21.6536  -14.2365 O   0  0  0  0  0  0  0  0  0  0  0  0
   28.8895  -14.6918  -18.7291 N   0  0  0  0  0  0  0  0  0  0  0  0
   26.2194  -20.8288  -12.1669 C   0  0  2  0  0  0  0  0  0  0  0  0
   25.0609  -21.3445  -11.4967 C   0  0  0  0  0  0  0  0  0  0  0  0
   25.1733  -21.2666   -9.9921 S   0  0  0  0  0  0  0  0  0  0  0  0
   25.8707  -19.7258   -9.4074 C   0  0  0  0  0  0  0  0  0  0  0  0
   23.8002  -20.7027  -11.9833 O   0  0  0  0  0  0  0  0  0  0  0  0
   23.6736  -19.4448  -12.0388 O   0  0  0  0  0  0  0  0  0  0  0  0
   24.3223  -17.3305  -17.3568 C   0  0  0  0  0  0  0  0  0  0  0  0
   23.6057  -18.2599  -16.6317 C   0  0  0  0  0  0  0  0  0  0  0  0
   24.0141  -19.5717  -16.6070 C   0  0  0  0  0  0  0  0  0  0  0  0
   23.3287  -20.5181  -15.8997 C   0  0  0  0  0  0  0  0  0  0  0  0
   22.1969  -20.1285  -15.1960 C   0  0  0  0  0  0  0  0  0  0  0  0
   21.4415  -21.1560  -14.4501 C   0  0  2  0  0  0  0  0  0  0  0  0
   21.4906  -20.9149  -12.9772 N   0  0  0  0  0  0  0  0  0  0  0  0
   22.7151  -21.4966  -12.3947 C   0  0  0  0  0  0  0  0  0  0  0  0
   20.3500  -21.5789  -12.3283 O   0  0  0  0  0  0  0  0  0  0  0  0
   19.2427  -20.9855  -12.2961 C   0  0  0  0  0  0  0  0  0  0  0  0
   21.7781  -18.8196  -15.2131 C   0  0  0  0  0  0  0  0  0  0  0  0
   22.4830  -17.8858  -15.9310 O   0  0  0  0  0  0  0  0  0  0  0  0
  2  1  1  0
  3  2  2  0
  4  2  1  0
  5  6  1  0
  5  4  1  0
  7  6  1  0
  7  8  1  0
  8 10  1  0
  8  9  1  6
 10 11  2  0
 12 10  1  0
 12 13  1  0
 13 14  1  1
 14 15  1  0
 16 17  2  0
 16 13  1  0
 18 19  1  0
 19 29  2  0
 20 19  1  0
 20 21  2  0
 21 22  1  0
 22 28  2  0
 22 23  1  0
 24 23  1  6
 24 26  1  0
 24 25  1  0
 25 16  1  0
 26 30  1  0
 27 26  2  0
 29 28  1  0
M  END
$$$$
