RCY.pdb
     RDKit          3D

 30 30  0  0  1  0  0  0  0  0999 V2000
   28.0617  -19.1765  -21.8145 N   0  0  0  0  0  0  0  0  0  0  0  0
   27.0515  -18.2582  -21.4617 C   0  0  0  0  0  0  0  0  0  0  0  0
   26.3965  -17.6379  -22.3956 N   0  0  0  0  0  0  0  0  0  0  0  0
   26.7296  -17.9922  -20.1044 N   0  0  0  0  0  0  0  0  0  0  0  0
   27.5052  -18.6735  -19.0801 C   0  0  0  0  0  0  0  0  0  0  0  0
   26.8238  -19.9672  -18.6688 C   0  0  0  0  0  0  0  0  0  0  0  0
   26.8801  -20.0788  -17.1715 C   0  0  0  0  0  0  0  0  0  0  0  0
   28.0846  -20.8506  -16.7436 C   0  0  2  0  0  0  0  0  0  0  0  0
   28.2429  -22.0033  -17.5900 N   0  0  0  0  0  0  0  0  0  0  0  0
   27.9317  -21.2817  -15.3324 C   0  0  0  0  0  0  0  0  0  0  0  0
   27.0943  -22.1936  -15.0140 O   0  0  0  0  0  0  0  0  0  0  0  0
   25.6648  -16.9361  -22.1803 N   0  0  0  0  0  0  0  0  0  0  0  0
   28.6892  -20.7203  -14.2715 C   0  0  2  0  0  0  0  0  0  0  0  0
   28.4215  -20.9447  -12.8803 C   0  0  0  0  0  0  0  0  0  0  0  0
   29.5284  -20.4412  -11.9838 S   0  0  0  0  0  0  0  0  0  0  0  0
   29.2416  -20.7619  -10.2468 C   0  0  0  0  0  0  0  0  0  0  0  0
   27.0931  -20.3925  -12.4693 O   0  0  0  0  0  0  0  0  0  0  0  0
   26.5070  -19.4986  -13.1466 O   0  0  0  0  0  0  0  0  0  0  0  0
   18.9481  -19.3889  -10.2143 C   0  0  0  0  0  0  0  0  0  0  0  0
   20.2052  -19.7995  -10.6067 C   0  0  0  0  0  0  0  0  0  0  0  0
   20.9222  -20.6624   -9.8133 C   0  0  0  0  0  0  0  0  0  0  0  0
   22.1694  -21.0895  -10.1710 C   0  0  0  0  0  0  0  0  0  0  0  0
   22.7090  -20.6317  -11.3657 C   0  0  0  0  0  0  0  0  0  0  0  0
   24.0674  -21.0744  -11.7417 C   0  0  2  0  0  0  0  0  0  0  0  0
   25.1133  -20.4141  -10.9051 N   0  0  0  0  0  0  0  0  0  0  0  0
   26.4607  -20.8633  -11.3051 C   0  0  0  0  0  0  0  0  0  0  0  0
   24.9349  -20.7965   -9.4962 O   0  0  0  0  0  0  0  0  0  0  0  0
   24.4642  -19.9509   -8.6947 C   0  0  0  0  0  0  0  0  0  0  0  0
   22.0018  -19.7682  -12.1677 C   0  0  0  0  0  0  0  0  0  0  0  0
   20.7501  -19.3526  -11.7877 O   0  0  0  0  0  0  0  0  0  0  0  0
  2  1  1  0
  3  2  2  0
  4  2  1  0
  5  6  1  0
  5  4  1  0
  7  6  1  0
  7  8  1  0
  8 10  1  0
  8  9  1  6
 10 11  2  0
 12 10  1  0
 12 13  1  0
 13 14  1  6
 14 15  1  0
 16 17  2  0
 16 13  1  0
 18 19  1  0
 19 29  2  0
 20 19  1  0
 20 21  2  0
 21 22  1  0
 22 28  2  0
 22 23  1  0
 24 23  1  6
 24 26  1  0
 24 25  1  0
 25 16  1  0
 26 30  1  0
 27 26  2  0
 29 28  1  0
M  END
$$$$
