RCY.pdb
     RDKit          3D

 30 30  0  0  1  0  0  0  0  0999 V2000
   29.1426  -29.2375  -17.2336 N   0  0  0  0  0  0  0  0  0  0  0  0
   27.7736  -29.5236  -17.4142 C   0  0  0  0  0  0  0  0  0  0  0  0
   27.3416  -30.7322  -17.2180 N   0  0  0  0  0  0  0  0  0  0  0  0
   26.8498  -28.5193  -17.8072 N   0  0  0  0  0  0  0  0  0  0  0  0
   27.3432  -27.1564  -17.9259 C   0  0  0  0  0  0  0  0  0  0  0  0
   27.4384  -26.5036  -16.5577 C   0  0  0  0  0  0  0  0  0  0  0  0
   26.3297  -25.4972  -16.4332 C   0  0  0  0  0  0  0  0  0  0  0  0
   26.6811  -24.2325  -17.1449 C   0  0  2  0  0  0  0  0  0  0  0  0
   28.0640  -23.9146  -16.9064 N   0  0  0  0  0  0  0  0  0  0  0  0
   25.8210  -23.1255  -16.6596 C   0  0  0  0  0  0  0  0  0  0  0  0
   26.1093  -22.4959  -15.5851 O   0  0  0  0  0  0  0  0  0  0  0  0
   26.3394  -30.9793  -17.3112 N   0  0  0  0  0  0  0  0  0  0  0  0
   24.6500  -22.7063  -17.3434 C   0  0  2  0  0  0  0  0  0  0  0  0
   23.7719  -21.6702  -16.8821 C   0  0  0  0  0  0  0  0  0  0  0  0
   23.7106  -20.4928  -17.8267 S   0  0  0  0  0  0  0  0  0  0  0  0
   22.7209  -19.1348  -17.2115 C   0  0  0  0  0  0  0  0  0  0  0  0
   22.4045  -22.1920  -16.5716 O   0  0  0  0  0  0  0  0  0  0  0  0
   21.7246  -22.8261  -17.4301 O   0  0  0  0  0  0  0  0  0  0  0  0
   22.5074  -28.3611  -14.2855 C   0  0  0  0  0  0  0  0  0  0  0  0
   22.0226  -27.0797  -14.1248 C   0  0  0  0  0  0  0  0  0  0  0  0
   20.6674  -26.8529  -14.1444 C   0  0  0  0  0  0  0  0  0  0  0  0
   20.1528  -25.5973  -13.9883 C   0  0  0  0  0  0  0  0  0  0  0  0
   21.0327  -24.5386  -13.8068 C   0  0  0  0  0  0  0  0  0  0  0  0
   20.4779  -23.1771  -13.6617 C   0  0  2  0  0  0  0  0  0  0  0  0
   20.4783  -22.4406  -14.9608 N   0  0  0  0  0  0  0  0  0  0  0  0
   21.8399  -21.9848  -15.3007 C   0  0  0  0  0  0  0  0  0  0  0  0
   19.6393  -21.2380  -14.8486 O   0  0  0  0  0  0  0  0  0  0  0  0
   20.1987  -20.1180  -14.7393 C   0  0  0  0  0  0  0  0  0  0  0  0
   22.3902  -24.7525  -13.7856 C   0  0  0  0  0  0  0  0  0  0  0  0
   22.8844  -26.0232  -13.9444 O   0  0  0  0  0  0  0  0  0  0  0  0
  2  1  1  0
  3  2  2  0
  4  2  1  0
  5  6  1  0
  5  4  1  0
  7  6  1  0
  7  8  1  0
  8 10  1  0
  8  9  1  1
 10 11  2  0
 12 10  1  0
 12 13  1  0
 13 14  1  6
 14 15  1  0
 16 17  2  0
 16 13  1  0
 18 19  1  0
 19 29  2  0
 20 19  1  0
 20 21  2  0
 21 22  1  0
 22 28  2  0
 22 23  1  0
 24 23  1  6
 24 26  1  0
 24 25  1  0
 25 16  1  0
 26 30  1  0
 27 26  2  0
 29 28  1  0
M  END
$$$$
