RCY.pdb
     RDKit          3D

 30 30  0  0  1  0  0  0  0  0999 V2000
   27.0718  -17.6155  -19.3808 N   0  0  0  0  0  0  0  0  0  0  0  0
   26.6528  -16.6007  -18.4958 C   0  0  0  0  0  0  0  0  0  0  0  0
   26.7750  -15.3564  -18.8458 N   0  0  0  0  0  0  0  0  0  0  0  0
   26.0975  -16.9053  -17.2248 N   0  0  0  0  0  0  0  0  0  0  0  0
   26.0423  -18.3036  -16.8291 C   0  0  0  0  0  0  0  0  0  0  0  0
   24.8037  -18.9705  -17.4019 C   0  0  0  0  0  0  0  0  0  0  0  0
   24.1180  -19.7265  -16.2992 C   0  0  0  0  0  0  0  0  0  0  0  0
   25.0117  -20.7902  -15.7522 C   0  0  2  0  0  0  0  0  0  0  0  0
   25.0971  -21.8768  -16.6915 N   0  0  0  0  0  0  0  0  0  0  0  0
   24.4745  -21.2847  -14.4608 C   0  0  0  0  0  0  0  0  0  0  0  0
   23.4477  -22.0453  -14.4277 O   0  0  0  0  0  0  0  0  0  0  0  0
   26.5032  -14.5792  -18.2162 N   0  0  0  0  0  0  0  0  0  0  0  0
   25.0550  -20.9508  -13.2093 C   0  0  2  0  0  0  0  0  0  0  0  0
   24.4107  -21.1439  -11.9424 C   0  0  0  0  0  0  0  0  0  0  0  0
   25.3554  -20.9770  -10.7752 S   0  0  0  0  0  0  0  0  0  0  0  0
   24.5615  -21.1625   -9.1823 C   0  0  0  0  0  0  0  0  0  0  0  0
   23.1999  -20.2782  -11.7921 O   0  0  0  0  0  0  0  0  0  0  0  0
   23.2839  -19.0156  -11.7744 O   0  0  0  0  0  0  0  0  0  0  0  0
   18.2984  -22.2249  -16.8806 C   0  0  0  0  0  0  0  0  0  0  0  0
   18.8135  -21.4741  -15.8443 C   0  0  0  0  0  0  0  0  0  0  0  0
   20.1540  -21.1731  -15.8175 C   0  0  0  0  0  0  0  0  0  0  0  0
   20.6977  -20.4321  -14.8070 C   0  0  0  0  0  0  0  0  0  0  0  0
   19.8631  -19.9812  -13.7931 C   0  0  0  0  0  0  0  0  0  0  0  0
   20.4545  -19.1998  -12.6875 C   0  0  1  0  0  0  0  0  0  0  0  0
   20.7058  -20.0493  -11.4854 N   0  0  0  0  0  0  0  0  0  0  0  0
   21.9258  -20.8593  -11.6656 C   0  0  0  0  0  0  0  0  0  0  0  0
   19.5902  -20.9899  -11.3016 O   0  0  0  0  0  0  0  0  0  0  0  0
   19.8033  -22.2187  -11.4558 C   0  0  0  0  0  0  0  0  0  0  0  0
   18.5207  -20.2759  -13.8086 C   0  0  0  0  0  0  0  0  0  0  0  0
   17.9966  -21.0222  -14.8344 O   0  0  0  0  0  0  0  0  0  0  0  0
  2  1  1  0
  3  2  2  0
  4  2  1  0
  5  6  1  0
  5  4  1  0
  7  6  1  0
  7  8  1  0
  8 10  1  0
  8  9  1  6
 10 11  2  0
 12 10  1  0
 12 13  1  0
 13 14  1  1
 14 15  1  0
 16 17  2  0
 16 13  1  0
 18 19  1  0
 19 29  2  0
 20 19  1  0
 20 21  2  0
 21 22  1  0
 22 28  2  0
 22 23  1  0
 24 23  1  1
 24 26  1  0
 24 25  1  0
 25 16  1  0
 26 30  1  0
 27 26  2  0
 29 28  1  0
M  END
$$$$
