RID.pdb
     RDKit          3D

 28 27  0  0  1  0  0  0  0  0999 V2000
   23.3717  -25.2168  -17.6982 N   0  0  0  0  0  0  0  0  0  0  0  0
   23.3196  -26.3297  -16.8033 C   0  0  0  0  0  0  0  0  0  0  0  0
   23.2522  -27.5367  -17.2600 N   0  0  0  0  0  0  0  0  0  0  0  0
   23.3387  -26.1903  -15.3910 N   0  0  0  0  0  0  0  0  0  0  0  0
   23.6933  -24.9312  -14.7680 C   0  0  0  0  0  0  0  0  0  0  0  0
   25.1137  -24.5219  -15.0171 C   0  0  0  0  0  0  0  0  0  0  0  0
   25.4983  -23.2402  -14.3262 C   0  0  0  0  0  0  0  0  0  0  0  0
   24.8169  -22.0376  -14.9348 C   0  0  2  0  0  0  0  0  0  0  0  0
   25.6903  -21.0649  -15.4906 N   0  0  0  0  0  0  0  0  0  0  0  0
   23.6978  -21.5253  -14.1225 C   0  0  0  0  0  0  0  0  0  0  0  0
   23.9657  -20.8922  -13.0885 O   0  0  0  0  0  0  0  0  0  0  0  0
   23.2206  -28.3201  -16.5873 C   0  0  0  0  0  0  0  0  0  0  0  0
   21.0671  -17.6455  -15.1178 C   0  0  0  0  0  0  0  0  0  0  0  0
   21.7779  -18.8224  -14.4426 C   0  0  2  0  0  0  0  0  0  0  0  0
   20.7937  -19.9172  -14.2434 C   0  0  0  0  0  0  0  0  0  0  0  0
   19.4441  -19.4190  -13.7469 C   0  0  2  0  0  0  0  0  0  0  0  0
   21.2451  -21.1531  -13.5990 N   0  0  0  0  0  0  0  0  0  0  0  0
   22.3075  -21.7223  -14.4594 C   0  0  0  0  0  0  0  0  0  0  0  0
   20.3463  -22.1717  -13.1186 O   0  0  0  0  0  0  0  0  0  0  0  0
   19.7694  -22.9111  -14.0005 N   0  0  0  0  0  0  0  0  0  0  0  0
   20.0021  -22.4916  -11.7913 C   0  0  1  0  0  0  0  0  0  0  0  0
   18.9827  -23.4622  -11.4455 C   0  0  0  0  0  0  0  0  0  0  0  0
   19.1468  -23.9266  -10.0090 C   0  0  0  0  0  0  0  0  0  0  0  0
   18.1388  -24.9785   -9.7574 O   0  0  0  0  0  0  0  0  0  0  0  0
   17.3730  -25.4197  -10.6522 C   0  0  0  0  0  0  0  0  0  0  0  0
   17.6145  -22.9857  -11.6929 O   0  0  0  0  0  0  0  0  0  0  0  0
   17.2266  -21.8289  -11.3470 O   0  0  0  0  0  0  0  0  0  0  0  0
   18.0416  -25.4955   -8.4768 O   0  0  0  0  0  0  0  0  0  0  0  0
  2  1  1  0
  3  2  2  0
  4  2  1  0
  5  4  1  0
  6  5  1  0
  7  6  1  0
  8 10  1  0
  8  7  1  0
  8  9  1  1
 10 11  2  0
 13 14  1  0
 13 12  1  0
 14 16  1  0
 14 15  1  6
 16 17  1  1
 17 10  1  0
 18 16  1  0
 19 18  2  0
 20 18  1  0
 21 22  1  6
 21 20  1  0
 23 24  2  0
 23 22  1  0
 25 28  1  0
 25 21  1  0
 26 25  2  0
 27 23  1  0
M  END
$$$$
