RID.pdb
     RDKit          3D

 28 27  0  0  1  0  0  0  0  0999 V2000
   19.7879  -19.4164  -17.9990 N   0  0  0  0  0  0  0  0  0  0  0  0
   20.9582  -20.2012  -17.7615 C   0  0  0  0  0  0  0  0  0  0  0  0
   20.8692  -21.4803  -17.6004 N   0  0  0  0  0  0  0  0  0  0  0  0
   22.2624  -19.6460  -17.6893 N   0  0  0  0  0  0  0  0  0  0  0  0
   22.5929  -18.6372  -16.7032 C   0  0  0  0  0  0  0  0  0  0  0  0
   23.7222  -19.0332  -15.8006 C   0  0  0  0  0  0  0  0  0  0  0  0
   23.4232  -20.2496  -14.9646 C   0  0  0  0  0  0  0  0  0  0  0  0
   24.6170  -20.6900  -14.1511 C   0  0  2  0  0  0  0  0  0  0  0  0
   25.6761  -21.2719  -14.8979 N   0  0  0  0  0  0  0  0  0  0  0  0
   24.2508  -21.3698  -12.8947 C   0  0  0  0  0  0  0  0  0  0  0  0
   24.3636  -22.6053  -12.8424 O   0  0  0  0  0  0  0  0  0  0  0  0
   21.7358  -22.0225  -17.4510 C   0  0  0  0  0  0  0  0  0  0  0  0
   26.3452  -20.0882   -8.5672 C   0  0  0  0  0  0  0  0  0  0  0  0
   25.7045  -20.9531   -9.6570 C   0  0  2  0  0  0  0  0  0  0  0  0
   24.2375  -20.9932   -9.4265 C   0  0  0  0  0  0  0  0  0  0  0  0
   23.8658  -21.5640   -8.0656 C   0  0  2  0  0  0  0  0  0  0  0  0
   23.3714  -21.4460  -10.5179 N   0  0  0  0  0  0  0  0  0  0  0  0
   23.7640  -20.6802  -11.7232 C   0  0  0  0  0  0  0  0  0  0  0  0
   21.9395  -21.5573  -10.4010 O   0  0  0  0  0  0  0  0  0  0  0  0
   21.2644  -20.4614  -10.3739 N   0  0  0  0  0  0  0  0  0  0  0  0
   21.1477  -22.7184  -10.3171 C   0  0  2  0  0  0  0  0  0  0  0  0
   19.7024  -22.6900  -10.2103 C   0  0  0  0  0  0  0  0  0  0  0  0
   19.2738  -22.4068   -8.7812 C   0  0  0  0  0  0  0  0  0  0  0  0
   19.7947  -23.4976   -7.9299 O   0  0  0  0  0  0  0  0  0  0  0  0
   20.4840  -24.4477   -8.3816 C   0  0  0  0  0  0  0  0  0  0  0  0
   19.0659  -21.7536  -11.1475 O   0  0  0  0  0  0  0  0  0  0  0  0
   17.8076  -21.6090  -11.2115 O   0  0  0  0  0  0  0  0  0  0  0  0
   19.5065  -23.4625   -6.5763 O   0  0  0  0  0  0  0  0  0  0  0  0
  2  1  1  0
  3  2  2  0
  4  2  1  0
  5  4  1  0
  6  5  1  0
  7  6  1  0
  8 10  1  0
  8  7  1  0
  8  9  1  6
 10 11  2  0
 13 14  1  0
 13 12  1  0
 14 16  1  0
 14 15  1  6
 16 17  1  6
 17 10  1  0
 18 16  1  0
 19 18  2  0
 20 18  1  0
 21 22  1  1
 21 20  1  0
 23 24  2  0
 23 22  1  0
 25 28  1  0
 25 21  1  0
 26 25  2  0
 27 23  1  0
M  END
$$$$
