RID.pdb
     RDKit          3D

 28 27  0  0  1  0  0  0  0  0999 V2000
   27.8207  -22.5823  -21.0979 N   0  0  0  0  0  0  0  0  0  0  0  0
   28.7211  -23.2887  -20.2421 C   0  0  0  0  0  0  0  0  0  0  0  0
   29.9957  -23.2450  -20.4508 N   0  0  0  0  0  0  0  0  0  0  0  0
   28.2901  -24.0642  -19.1343 N   0  0  0  0  0  0  0  0  0  0  0  0
   26.8921  -24.1185  -18.7574 C   0  0  0  0  0  0  0  0  0  0  0  0
   26.2417  -22.7700  -18.6835 C   0  0  0  0  0  0  0  0  0  0  0  0
   25.4479  -22.5556  -17.4219 C   0  0  0  0  0  0  0  0  0  0  0  0
   26.1138  -23.1759  -16.2167 C   0  0  2  0  0  0  0  0  0  0  0  0
   26.5928  -24.4999  -16.4052 N   0  0  0  0  0  0  0  0  0  0  0  0
   25.4016  -22.9107  -14.9529 C   0  0  0  0  0  0  0  0  0  0  0  0
   24.6108  -23.7715  -14.5339 O   0  0  0  0  0  0  0  0  0  0  0  0
   30.6126  -23.8434  -19.8777 C   0  0  0  0  0  0  0  0  0  0  0  0
   27.9950  -20.9991  -10.8411 C   0  0  0  0  0  0  0  0  0  0  0  0
   27.0815  -21.7890  -11.7834 C   0  0  2  0  0  0  0  0  0  0  0  0
   25.7926  -21.0615  -11.9115 C   0  0  0  0  0  0  0  0  0  0  0  0
   25.1730  -20.7102  -10.5667 C   0  0  2  0  0  0  0  0  0  0  0  0
   24.8251  -21.5257  -12.9090 N   0  0  0  0  0  0  0  0  0  0  0  0
   25.5685  -21.7042  -14.1772 C   0  0  0  0  0  0  0  0  0  0  0  0
   23.5458  -20.8991  -13.1255 O   0  0  0  0  0  0  0  0  0  0  0  0
   23.5458  -19.6423  -13.4046 N   0  0  0  0  0  0  0  0  0  0  0  0
   22.2616  -21.4749  -13.0831 C   0  0  1  0  0  0  0  0  0  0  0  0
   21.0430  -20.7181  -13.2909 C   0  0  0  0  0  0  0  0  0  0  0  0
   20.3123  -21.2043  -14.5302 C   0  0  0  0  0  0  0  0  0  0  0  0
   20.4473  -20.1625  -15.5706 O   0  0  0  0  0  0  0  0  0  0  0  0
   21.0832  -19.0928  -15.3887 C   0  0  0  0  0  0  0  0  0  0  0  0
   20.1525  -20.7123  -12.1216 O   0  0  0  0  0  0  0  0  0  0  0  0
   19.0658  -20.0590  -12.1003 O   0  0  0  0  0  0  0  0  0  0  0  0
   19.8445  -20.3840  -16.7971 O   0  0  0  0  0  0  0  0  0  0  0  0
  2  1  1  0
  3  2  2  0
  4  2  1  0
  5  4  1  0
  6  5  1  0
  7  6  1  0
  8 10  1  0
  8  7  1  0
  8  9  1  6
 10 11  2  0
 13 14  1  0
 13 12  1  0
 14 16  1  0
 14 15  1  6
 16 17  1  1
 17 10  1  0
 18 16  1  0
 19 18  2  0
 20 18  1  0
 21 22  1  1
 21 20  1  0
 23 24  2  0
 23 22  1  0
 25 28  1  0
 25 21  1  0
 26 25  2  0
 27 23  1  0
M  END
$$$$
