RID.pdb
     RDKit          3D

 28 27  0  0  1  0  0  0  0  0999 V2000
   20.0716  -31.0044  -12.7408 N   0  0  0  0  0  0  0  0  0  0  0  0
   19.6476  -30.2198  -11.6242 C   0  0  0  0  0  0  0  0  0  0  0  0
   18.4526  -30.3463  -11.1490 N   0  0  0  0  0  0  0  0  0  0  0  0
   20.4863  -29.2749  -10.9776 N   0  0  0  0  0  0  0  0  0  0  0  0
   21.8631  -29.0906  -11.3898 C   0  0  0  0  0  0  0  0  0  0  0  0
   22.0013  -28.4318  -12.7292 C   0  0  0  0  0  0  0  0  0  0  0  0
   22.2040  -26.9419  -12.6463 C   0  0  0  0  0  0  0  0  0  0  0  0
   23.6665  -26.5664  -12.6114 C   0  0  2  0  0  0  0  0  0  0  0  0
   24.3863  -27.0432  -11.4833 N   0  0  0  0  0  0  0  0  0  0  0  0
   23.9220  -25.1695  -13.0089 C   0  0  0  0  0  0  0  0  0  0  0  0
   24.2453  -24.3585  -12.1258 O   0  0  0  0  0  0  0  0  0  0  0  0
   18.1760  -29.7639  -10.3418 C   0  0  0  0  0  0  0  0  0  0  0  0
   27.5703  -24.1539  -16.2679 C   0  0  0  0  0  0  0  0  0  0  0  0
   26.5393  -24.1417  -15.1351 C   0  0  2  0  0  0  0  0  0  0  0  0
   25.3524  -23.3700  -15.5851 C   0  0  0  0  0  0  0  0  0  0  0  0
   25.7182  -22.0433  -16.2346 C   0  0  2  0  0  0  0  0  0  0  0  0
   24.1897  -23.2966  -14.6967 N   0  0  0  0  0  0  0  0  0  0  0  0
   23.8131  -24.6902  -14.3666 C   0  0  0  0  0  0  0  0  0  0  0  0
   23.0323  -22.4829  -14.9699 O   0  0  0  0  0  0  0  0  0  0  0  0
   22.2238  -22.8970  -15.8822 N   0  0  0  0  0  0  0  0  0  0  0  0
   22.6402  -21.2732  -14.3653 C   0  0  1  0  0  0  0  0  0  0  0  0
   21.5106  -20.4864  -14.8190 C   0  0  0  0  0  0  0  0  0  0  0  0
   21.1010  -19.4744  -13.7634 C   0  0  0  0  0  0  0  0  0  0  0  0
   19.9059  -18.7612  -14.2626 O   0  0  0  0  0  0  0  0  0  0  0  0
   19.4126  -18.9672  -15.4010 C   0  0  0  0  0  0  0  0  0  0  0  0
   21.7368  -19.8336  -16.1162 O   0  0  0  0  0  0  0  0  0  0  0  0
   22.8110  -19.2160  -16.3862 O   0  0  0  0  0  0  0  0  0  0  0  0
   19.3097  -17.8276  -13.4323 O   0  0  0  0  0  0  0  0  0  0  0  0
  2  1  1  0
  3  2  2  0
  4  2  1  0
  5  4  1  0
  6  5  1  0
  7  6  1  0
  8 10  1  0
  8  7  1  0
  8  9  1  1
 10 11  2  0
 13 14  1  0
 13 12  1  0
 14 16  1  0
 14 15  1  6
 16 17  1  1
 17 10  1  0
 18 16  1  0
 19 18  2  0
 20 18  1  0
 21 22  1  6
 21 20  1  0
 23 24  2  0
 23 22  1  0
 25 28  1  0
 25 21  1  0
 26 25  2  0
 27 23  1  0
M  END
$$$$
