RID.pdb
     RDKit          3D

 28 27  0  0  1  0  0  0  0  0999 V2000
   18.8012  -13.7070    3.9002 N   0  0  0  0  0  0  0  0  0  0  0  0
   17.3940  -13.7595    4.1434 C   0  0  0  0  0  0  0  0  0  0  0  0
   16.7343  -12.6822    4.4158 N   0  0  0  0  0  0  0  0  0  0  0  0
   16.6447  -14.9642    4.1025 N   0  0  0  0  0  0  0  0  0  0  0  0
   17.2610  -16.2161    3.7126 C   0  0  0  0  0  0  0  0  0  0  0  0
   16.2932  -17.3582    3.6346 C   0  0  0  0  0  0  0  0  0  0  0  0
   16.9358  -18.6628    3.2434 C   0  0  0  0  0  0  0  0  0  0  0  0
   15.9272  -19.7797    3.1161 C   0  0  2  0  0  0  0  0  0  0  0  0
   14.5816  -19.3615    2.9361 N   0  0  0  0  0  0  0  0  0  0  0  0
   16.1488  -20.8805    4.0720 C   0  0  0  0  0  0  0  0  0  0  0  0
   15.3493  -21.0092    5.0134 O   0  0  0  0  0  0  0  0  0  0  0  0
   15.7166  -12.7522    4.5790 C   0  0  0  0  0  0  0  0  0  0  0  0
   17.2613  -25.8582    2.7600 C   0  0  0  0  0  0  0  0  0  0  0  0
   16.6786  -24.6490    3.4979 C   0  0  2  0  0  0  0  0  0  0  0  0
   17.7249  -24.0937    4.3944 C   0  0  0  0  0  0  0  0  0  0  0  0
   18.3428  -25.1431    5.3070 C   0  0  2  0  0  0  0  0  0  0  0  0
   17.4711  -22.8092    5.0517 N   0  0  0  0  0  0  0  0  0  0  0  0
   17.2458  -21.8147    3.9778 C   0  0  0  0  0  0  0  0  0  0  0  0
   18.3007  -22.2783    6.1035 O   0  0  0  0  0  0  0  0  0  0  0  0
   19.4398  -21.7851    5.7622 N   0  0  0  0  0  0  0  0  0  0  0  0
   18.0396  -22.2105    7.4854 C   0  0  1  0  0  0  0  0  0  0  0  0
   18.9764  -21.6625    8.4462 C   0  0  0  0  0  0  0  0  0  0  0  0
   18.3854  -20.4492    9.1425 C   0  0  0  0  0  0  0  0  0  0  0  0
   19.4583  -19.8223    9.9436 O   0  0  0  0  0  0  0  0  0  0  0  0
   20.6381  -20.2574    9.9659 C   0  0  0  0  0  0  0  0  0  0  0  0
   19.4556  -22.6503    9.4234 O   0  0  0  0  0  0  0  0  0  0  0  0
   18.9384  -23.8032    9.5313 O   0  0  0  0  0  0  0  0  0  0  0  0
   19.1406  -18.7064   10.6989 O   0  0  0  0  0  0  0  0  0  0  0  0
  2  1  1  0
  3  2  2  0
  4  2  1  0
  5  4  1  0
  6  5  1  0
  7  6  1  0
  8 10  1  0
  8  7  1  0
  8  9  1  1
 10 11  2  0
 13 14  1  0
 13 12  1  0
 14 16  1  0
 14 15  1  6
 16 17  1  1
 17 10  1  0
 18 16  1  0
 19 18  2  0
 20 18  1  0
 21 22  1  1
 21 20  1  0
 23 24  2  0
 23 22  1  0
 25 28  1  0
 25 21  1  0
 26 25  2  0
 27 23  1  0
M  END
$$$$
