RID.pdb
     RDKit          3D

 28 27  0  0  1  0  0  0  0  0999 V2000
   16.8907  -22.3047  -13.0246 N   0  0  0  0  0  0  0  0  0  0  0  0
   17.0042  -23.3743  -13.9655 C   0  0  0  0  0  0  0  0  0  0  0  0
   15.9625  -23.8077  -14.5955 N   0  0  0  0  0  0  0  0  0  0  0  0
   18.2344  -24.0155  -14.2655 N   0  0  0  0  0  0  0  0  0  0  0  0
   19.5005  -23.3467  -14.0443 C   0  0  0  0  0  0  0  0  0  0  0  0
   19.6573  -22.0881  -14.8433 C   0  0  0  0  0  0  0  0  0  0  0  0
   20.9248  -21.3358  -14.5341 C   0  0  0  0  0  0  0  0  0  0  0  0
   21.2954  -21.4192  -13.0724 C   0  0  2  0  0  0  0  0  0  0  0  0
   20.2474  -21.1104  -12.1645 N   0  0  0  0  0  0  0  0  0  0  0  0
   22.6169  -20.8391  -12.7694 C   0  0  0  0  0  0  0  0  0  0  0  0
   22.7207  -19.6021  -12.7375 O   0  0  0  0  0  0  0  0  0  0  0  0
   16.0599  -24.6388  -15.2013 C   0  0  0  0  0  0  0  0  0  0  0  0
   25.2129  -20.0637   -9.2292 C   0  0  0  0  0  0  0  0  0  0  0  0
   24.9650  -21.4675   -9.7899 C   0  0  1  0  0  0  0  0  0  0  0  0
   25.6839  -21.5930  -11.0838 C   0  0  0  0  0  0  0  0  0  0  0  0
   27.1858  -21.3859  -10.9509 C   0  0  2  0  0  0  0  0  0  0  0  0
   25.0997  -20.9639  -12.2709 N   0  0  0  0  0  0  0  0  0  0  0  0
   23.7984  -21.6284  -12.5121 C   0  0  0  0  0  0  0  0  0  0  0  0
   25.8264  -20.7554  -13.4976 O   0  0  0  0  0  0  0  0  0  0  0  0
   26.9647  -20.1599  -13.4132 N   0  0  0  0  0  0  0  0  0  0  0  0
   25.4697  -21.1230  -14.8091 C   0  0  2  0  0  0  0  0  0  0  0  0
   26.2966  -20.8442  -15.9664 C   0  0  0  0  0  0  0  0  0  0  0  0
   26.9086  -19.4578  -15.8691 C   0  0  0  0  0  0  0  0  0  0  0  0
   27.6502  -19.2036  -17.1227 O   0  0  0  0  0  0  0  0  0  0  0  0
   27.3776  -19.7794  -18.2072 C   0  0  0  0  0  0  0  0  0  0  0  0
   27.3301  -21.8617  -16.2046 O   0  0  0  0  0  0  0  0  0  0  0  0
   27.8387  -22.5444  -15.2646 O   0  0  0  0  0  0  0  0  0  0  0  0
   28.6886  -18.2885  -17.0919 O   0  0  0  0  0  0  0  0  0  0  0  0
  2  1  1  0
  3  2  2  0
  4  2  1  0
  5  4  1  0
  6  5  1  0
  7  6  1  0
  8 10  1  0
  8  7  1  0
  8  9  1  1
 10 11  2  0
 13 14  1  0
 13 12  1  0
 14 16  1  0
 14 15  1  1
 16 17  1  6
 17 10  1  0
 18 16  1  0
 19 18  2  0
 20 18  1  0
 21 22  1  1
 21 20  1  0
 23 24  2  0
 23 22  1  0
 25 28  1  0
 25 21  1  0
 26 25  2  0
 27 23  1  0
M  END
$$$$
