RID.pdb
     RDKit          3D

 28 27  0  0  1  0  0  0  0  0999 V2000
   23.4492  -26.8441  -17.2633 N   0  0  0  0  0  0  0  0  0  0  0  0
   24.4513  -26.6095  -16.2719 C   0  0  0  0  0  0  0  0  0  0  0  0
   25.6825  -26.9332  -16.4936 N   0  0  0  0  0  0  0  0  0  0  0  0
   24.1716  -26.0205  -15.0113 N   0  0  0  0  0  0  0  0  0  0  0  0
   22.8267  -25.6148  -14.6565 C   0  0  0  0  0  0  0  0  0  0  0  0
   22.3055  -24.4838  -15.4910 C   0  0  0  0  0  0  0  0  0  0  0  0
   22.9302  -23.1549  -15.1567 C   0  0  0  0  0  0  0  0  0  0  0  0
   22.4242  -22.6004  -13.8462 C   0  0  2  0  0  0  0  0  0  0  0  0
   21.0193  -22.4019  -13.7759 N   0  0  0  0  0  0  0  0  0  0  0  0
   23.2666  -21.5182  -13.3040 C   0  0  0  0  0  0  0  0  0  0  0  0
   22.8641  -20.3490  -13.4179 O   0  0  0  0  0  0  0  0  0  0  0  0
   26.3747  -26.7956  -15.7392 C   0  0  0  0  0  0  0  0  0  0  0  0
   25.5405  -20.8524   -8.6130 C   0  0  0  0  0  0  0  0  0  0  0  0
   24.8524  -20.8302   -9.9814 C   0  0  2  0  0  0  0  0  0  0  0  0
   25.8930  -20.6800  -11.0309 C   0  0  0  0  0  0  0  0  0  0  0  0
   26.9669  -19.6669  -10.6614 C   0  0  2  0  0  0  0  0  0  0  0  0
   25.4676  -20.6115  -12.4311 N   0  0  0  0  0  0  0  0  0  0  0  0
   24.5356  -21.7410  -12.6521 C   0  0  0  0  0  0  0  0  0  0  0  0
   26.3836  -20.4539  -13.5322 O   0  0  0  0  0  0  0  0  0  0  0  0
   27.4753  -21.1350  -13.4916 N   0  0  0  0  0  0  0  0  0  0  0  0
   26.2546  -19.6492  -14.6803 C   0  0  1  0  0  0  0  0  0  0  0  0
   27.1783  -19.7009  -15.7962 C   0  0  0  0  0  0  0  0  0  0  0  0
   27.3861  -21.1330  -16.2568 C   0  0  0  0  0  0  0  0  0  0  0  0
   26.3121  -21.4569  -17.2199 O   0  0  0  0  0  0  0  0  0  0  0  0
   25.2572  -20.7796  -17.3211 C   0  0  0  0  0  0  0  0  0  0  0  0
   26.7868  -18.8370  -16.9190 O   0  0  0  0  0  0  0  0  0  0  0  0
   27.5085  -18.7002  -17.9527 O   0  0  0  0  0  0  0  0  0  0  0  0
   26.4849  -22.5560  -18.0437 O   0  0  0  0  0  0  0  0  0  0  0  0
  2  1  1  0
  3  2  2  0
  4  2  1  0
  5  4  1  0
  6  5  1  0
  7  6  1  0
  8 10  1  0
  8  7  1  0
  8  9  1  6
 10 11  2  0
 13 14  1  0
 13 12  1  0
 14 16  1  0
 14 15  1  6
 16 17  1  6
 17 10  1  0
 18 16  1  0
 19 18  2  0
 20 18  1  0
 21 22  1  6
 21 20  1  0
 23 24  2  0
 23 22  1  0
 25 28  1  0
 25 21  1  0
 26 25  2  0
 27 23  1  0
M  END
$$$$
