SYF.pdb
     RDKit          3D

 30 31  0  0  1  0  0  0  0  0999 V2000
   19.7942  -17.6959  -28.5784 O   0  0  0  0  0  0  0  0  0  0  0  0
   19.4599  -18.9890  -28.2118 C   0  0  0  0  0  0  0  0  0  0  0  0
   18.0143  -19.1272  -27.7916 C   0  0  2  0  0  0  0  0  0  0  0  0
   17.3548  -17.8644  -28.0563 N   0  0  0  0  0  0  0  0  0  0  0  0
   17.8611  -19.4616  -26.3738 C   0  0  0  0  0  0  0  0  0  0  0  0
   17.5409  -18.5755  -25.5412 O   0  0  0  0  0  0  0  0  0  0  0  0
   12.6234  -23.6044  -27.2218 O   0  0  0  0  0  0  0  0  0  0  0  0
   13.5600  -22.9010  -26.4421 C   0  0  0  0  0  0  0  0  0  0  0  0
   13.9636  -21.6477  -26.8498 C   0  0  0  0  0  0  0  0  0  0  0  0
   14.8804  -20.9328  -26.1072 C   0  0  0  0  0  0  0  0  0  0  0  0
   15.4206  -21.4332  -24.9486 C   0  0  0  0  0  0  0  0  0  0  0  0
   16.3965  -20.6866  -24.1545 C   0  0  0  0  0  0  0  0  0  0  0  0
   17.7972  -21.1022  -24.4440 C   0  0  2  0  0  0  0  0  0  0  0  0
   18.0554  -20.7703  -25.8431 N   0  0  0  0  0  0  0  0  0  0  0  0
   18.0372  -22.5183  -24.1643 C   0  0  0  0  0  0  0  0  0  0  0  0
   18.0309  -23.4331  -25.0035 O   0  0  0  0  0  0  0  0  0  0  0  0
   14.9995  -22.7037  -24.5520 C   0  0  0  0  0  0  0  0  0  0  0  0
   14.0858  -23.4236  -25.2861 C   0  0  0  0  0  0  0  0  0  0  0  0
   18.3031  -22.8937  -22.8113 N   0  0  0  0  0  0  0  0  0  0  0  0
   18.7418  -24.2481  -22.4863 C   0  0  1  0  0  0  0  0  0  0  0  0
   19.5691  -24.2950  -21.2595 C   0  0  0  0  0  0  0  0  0  0  0  0
   18.9591  -23.5074  -20.1750 C   0  0  0  0  0  0  0  0  0  0  0  0
   19.1781  -22.1737  -19.9860 C   0  0  0  0  0  0  0  0  0  0  0  0
   18.5629  -21.5103  -18.9542 C   0  0  0  0  0  0  0  0  0  0  0  0
   17.7131  -22.1388  -18.0760 C   0  0  0  0  0  0  0  0  0  0  0  0
   17.4784  -23.4786  -18.2463 C   0  0  0  0  0  0  0  0  0  0  0  0
   18.0913  -24.1406  -19.2748 C   0  0  0  0  0  0  0  0  0  0  0  0
   17.5380  -25.0598  -22.3175 C   0  0  0  0  0  0  0  0  0  0  0  0
   16.4162  -24.5279  -22.2626 O   0  0  0  0  0  0  0  0  0  0  0  0
   17.6328  -26.4306  -22.2169 O   0  0  0  0  0  0  0  0  0  0  0  0
  1  2  1  0
  2  3  1  0
  3  5  1  0
  3  4  1  1
  5 14  1  0
  6  5  2  0
  8  7  1  0
  9  8  2  0
 10  9  1  0
 11 10  2  0
 11 17  1  0
 12 11  1  0
 13 12  1  6
 14 13  1  0
 15 13  1  0
 16 15  2  0
 17 18  2  0
 18  8  1  0
 19 15  1  0
 20 19  1  0
 21 22  1  0
 20 21  1  1
 22 23  2  0
 23 24  1  0
 25 24  2  0
 26 25  1  0
 27 26  2  0
 27 22  1  0
 28 20  1  0
 28 30  1  0
 29 28  2  0
M  END
$$$$
