SYF.pdb
     RDKit          3D

 30 31  0  0  1  0  0  0  0  0999 V2000
   32.6419    5.2592   -2.7077 O   0  0  0  0  0  0  0  0  0  0  0  0
   31.3419    5.4254   -3.1558 C   0  0  0  0  0  0  0  0  0  0  0  0
   31.1872    5.1435   -4.6329 C   0  0  2  0  0  0  0  0  0  0  0  0
   31.5535    6.3465   -5.3529 N   0  0  0  0  0  0  0  0  0  0  0  0
   29.8225    4.7597   -5.0013 C   0  0  0  0  0  0  0  0  0  0  0  0
   28.8988    5.6126   -5.0016 O   0  0  0  0  0  0  0  0  0  0  0  0
   23.2335    1.5066   -9.6541 O   0  0  0  0  0  0  0  0  0  0  0  0
   24.4785    1.8070   -9.0715 C   0  0  0  0  0  0  0  0  0  0  0  0
   25.0473    0.9003   -8.2030 C   0  0  0  0  0  0  0  0  0  0  0  0
   26.2669    1.1657   -7.6155 C   0  0  0  0  0  0  0  0  0  0  0  0
   26.9540    2.3270   -7.8680 C   0  0  0  0  0  0  0  0  0  0  0  0
   28.2460    2.6219   -7.2482 C   0  0  0  0  0  0  0  0  0  0  0  0
   28.1035    3.1004   -5.8449 C   0  0  2  0  0  0  0  0  0  0  0  0
   29.4454    3.4368   -5.3754 N   0  0  0  0  0  0  0  0  0  0  0  0
   27.4493    2.1214   -4.9763 C   0  0  0  0  0  0  0  0  0  0  0  0
   27.9563    1.0656   -4.5650 O   0  0  0  0  0  0  0  0  0  0  0  0
   26.3619    3.2327   -8.7500 C   0  0  0  0  0  0  0  0  0  0  0  0
   25.1464    2.9765   -9.3404 C   0  0  0  0  0  0  0  0  0  0  0  0
   26.1099    2.3928   -4.5581 N   0  0  0  0  0  0  0  0  0  0  0  0
   25.4298    1.5083   -3.6161 C   0  0  1  0  0  0  0  0  0  0  0  0
   26.0582    1.5196   -2.2758 C   0  0  0  0  0  0  0  0  0  0  0  0
   25.3400    0.6348   -1.3430 C   0  0  0  0  0  0  0  0  0  0  0  0
   24.4226    1.0717   -0.4322 C   0  0  0  0  0  0  0  0  0  0  0  0
   23.7899    0.1792    0.3963 C   0  0  0  0  0  0  0  0  0  0  0  0
   24.0407   -1.1713    0.3544 C   0  0  0  0  0  0  0  0  0  0  0  0
   24.9590   -1.6331   -0.5526 C   0  0  0  0  0  0  0  0  0  0  0  0
   25.5899   -0.7439   -1.3790 C   0  0  0  0  0  0  0  0  0  0  0  0
   24.0423    1.9597   -3.5294 C   0  0  0  0  0  0  0  0  0  0  0  0
   23.7653    3.1707   -3.5642 O   0  0  0  0  0  0  0  0  0  0  0  0
   23.0200    1.0441   -3.4077 O   0  0  0  0  0  0  0  0  0  0  0  0
  1  2  1  0
  2  3  1  0
  3  5  1  0
  3  4  1  6
  5 14  1  0
  6  5  2  0
  8  7  1  0
  9  8  2  0
 10  9  1  0
 11 10  2  0
 11 17  1  0
 12 11  1  0
 13 12  1  6
 14 13  1  0
 15 13  1  0
 16 15  2  0
 17 18  2  0
 18  8  1  0
 19 15  1  0
 20 19  1  0
 21 22  1  0
 20 21  1  1
 22 23  2  0
 23 24  1  0
 25 24  2  0
 26 25  1  0
 27 26  2  0
 27 22  1  0
 28 20  1  0
 28 30  1  0
 29 28  2  0
M  END
$$$$
