SYF.pdb
     RDKit          3D

 30 31  0  0  1  0  0  0  0  0999 V2000
   19.8569  -20.2295  -11.4879 O   0  0  0  0  0  0  0  0  0  0  0  0
   19.7284  -19.0121  -12.1359 C   0  0  0  0  0  0  0  0  0  0  0  0
   19.5714  -19.1550  -13.6326 C   0  0  2  0  0  0  0  0  0  0  0  0
   18.6739  -20.2657  -13.8786 N   0  0  0  0  0  0  0  0  0  0  0  0
   20.8415  -19.4023  -14.3191 C   0  0  0  0  0  0  0  0  0  0  0  0
   21.1189  -20.5497  -14.7520 O   0  0  0  0  0  0  0  0  0  0  0  0
   28.5629  -17.9378  -18.4244 O   0  0  0  0  0  0  0  0  0  0  0  0
   27.3327  -17.8026  -17.7549 C   0  0  0  0  0  0  0  0  0  0  0  0
   27.3282  -17.3884  -16.4402 C   0  0  0  0  0  0  0  0  0  0  0  0
   26.1386  -17.2462  -15.7565 C   0  0  0  0  0  0  0  0  0  0  0  0
   24.9281  -17.5078  -16.3487 C   0  0  0  0  0  0  0  0  0  0  0  0
   23.6601  -17.3646  -15.6331 C   0  0  0  0  0  0  0  0  0  0  0  0
   23.1025  -18.6772  -15.2033 C   0  0  2  0  0  0  0  0  0  0  0  0
   21.8290  -18.3992  -14.5434 N   0  0  0  0  0  0  0  0  0  0  0  0
   24.0155  -19.4245  -14.3380 C   0  0  0  0  0  0  0  0  0  0  0  0
   24.3144  -19.1252  -13.1709 O   0  0  0  0  0  0  0  0  0  0  0  0
   24.9531  -17.9260  -17.6803 C   0  0  0  0  0  0  0  0  0  0  0  0
   26.1344  -18.0704  -18.3699 C   0  0  0  0  0  0  0  0  0  0  0  0
   24.6224  -20.6034  -14.8710 N   0  0  0  0  0  0  0  0  0  0  0  0
   25.7264  -21.2547  -14.1714 C   0  0  1  0  0  0  0  0  0  0  0  0
   25.2601  -22.2757  -13.2062 C   0  0  0  0  0  0  0  0  0  0  0  0
   24.9229  -21.6672  -11.9083 C   0  0  0  0  0  0  0  0  0  0  0  0
   25.8477  -21.3156  -10.9684 C   0  0  0  0  0  0  0  0  0  0  0  0
   25.4505  -20.7443   -9.7857 C   0  0  0  0  0  0  0  0  0  0  0  0
   24.1305  -20.5015   -9.4906 C   0  0  0  0  0  0  0  0  0  0  0  0
   23.1836  -20.8468  -10.4198 C   0  0  0  0  0  0  0  0  0  0  0  0
   23.5790  -21.4163  -11.5993 C   0  0  0  0  0  0  0  0  0  0  0  0
   26.5758  -21.8699  -15.1895 C   0  0  0  0  0  0  0  0  0  0  0  0
   26.2516  -21.8409  -16.3889 O   0  0  0  0  0  0  0  0  0  0  0  0
   27.7515  -22.4920  -14.8304 O   0  0  0  0  0  0  0  0  0  0  0  0
  1  2  1  0
  2  3  1  0
  3  5  1  0
  3  4  1  1
  5 14  1  0
  6  5  2  0
  8  7  1  0
  9  8  2  0
 10  9  1  0
 11 10  2  0
 11 17  1  0
 12 11  1  0
 13 12  1  1
 14 13  1  0
 15 13  1  0
 16 15  2  0
 17 18  2  0
 18  8  1  0
 19 15  1  0
 20 19  1  0
 21 22  1  0
 20 21  1  1
 22 23  2  0
 23 24  1  0
 25 24  2  0
 26 25  1  0
 27 26  2  0
 27 22  1  0
 28 20  1  0
 28 30  1  0
 29 28  2  0
M  END
$$$$
