SYF.pdb
     RDKit          3D

 30 31  0  0  1  0  0  0  0  0999 V2000
   28.0411  -18.9367  -16.9292 O   0  0  0  0  0  0  0  0  0  0  0  0
   27.4411  -18.7254  -15.6988 C   0  0  0  0  0  0  0  0  0  0  0  0
   27.9689  -19.6439  -14.6204 C   0  0  2  0  0  0  0  0  0  0  0  0
   27.9698  -20.9926  -15.1503 N   0  0  0  0  0  0  0  0  0  0  0  0
   27.1650  -19.6090  -13.3965 C   0  0  0  0  0  0  0  0  0  0  0  0
   26.9039  -18.5139  -12.8366 O   0  0  0  0  0  0  0  0  0  0  0  0
   20.9346  -19.3829  -15.5361 O   0  0  0  0  0  0  0  0  0  0  0  0
   21.8565  -19.9538  -14.6394 C   0  0  0  0  0  0  0  0  0  0  0  0
   21.9301  -19.4640  -13.3531 C   0  0  0  0  0  0  0  0  0  0  0  0
   22.8236  -20.0024  -12.4504 C   0  0  0  0  0  0  0  0  0  0  0  0
   23.6639  -21.0329  -12.7913 C   0  0  0  0  0  0  0  0  0  0  0  0
   24.6184  -21.6097  -11.8444 C   0  0  0  0  0  0  0  0  0  0  0  0
   25.7736  -20.7059  -11.5853 C   0  0  2  0  0  0  0  0  0  0  0  0
   26.6333  -20.7709  -12.7646 N   0  0  0  0  0  0  0  0  0  0  0  0
   26.4975  -21.0488  -10.3608 C   0  0  0  0  0  0  0  0  0  0  0  0
   27.2152  -22.0488  -10.2002 O   0  0  0  0  0  0  0  0  0  0  0  0
   23.5745  -21.5154  -14.0982 C   0  0  0  0  0  0  0  0  0  0  0  0
   22.6867  -20.9848  -15.0049 C   0  0  0  0  0  0  0  0  0  0  0  0
   26.3759  -20.1634   -9.2456 N   0  0  0  0  0  0  0  0  0  0  0  0
   27.0168  -20.4773   -7.9716 C   0  0  1  0  0  0  0  0  0  0  0  0
   27.8312  -19.3534   -7.4566 C   0  0  0  0  0  0  0  0  0  0  0  0
   28.3666  -19.6528   -6.1179 C   0  0  0  0  0  0  0  0  0  0  0  0
   29.3246  -20.5933   -5.8733 C   0  0  0  0  0  0  0  0  0  0  0  0
   29.7767  -20.8054   -4.5951 C   0  0  0  0  0  0  0  0  0  0  0  0
   29.2998  -20.0986   -3.5175 C   0  0  0  0  0  0  0  0  0  0  0  0
   28.3365  -19.1487   -3.7391 C   0  0  0  0  0  0  0  0  0  0  0  0
   27.8855  -18.9367   -5.0133 C   0  0  0  0  0  0  0  0  0  0  0  0
   25.9524  -20.8073   -7.0259 C   0  0  0  0  0  0  0  0  0  0  0  0
   24.7930  -20.3982   -7.2070 O   0  0  0  0  0  0  0  0  0  0  0  0
   26.2227  -21.5794   -5.9172 O   0  0  0  0  0  0  0  0  0  0  0  0
  1  2  1  0
  2  3  1  0
  3  5  1  0
  3  4  1  6
  5 14  1  0
  6  5  2  0
  8  7  1  0
  9  8  2  0
 10  9  1  0
 11 10  2  0
 11 17  1  0
 12 11  1  0
 13 12  1  6
 14 13  1  0
 15 13  1  0
 16 15  2  0
 17 18  2  0
 18  8  1  0
 19 15  1  0
 20 19  1  0
 21 22  1  0
 20 21  1  1
 22 23  2  0
 23 24  1  0
 25 24  2  0
 26 25  1  0
 27 26  2  0
 27 22  1  0
 28 20  1  0
 28 30  1  0
 29 28  2  0
M  END
$$$$
