SYF.pdb
     RDKit          3D

 30 31  0  0  1  0  0  0  0  0999 V2000
   27.4093  -23.2500  -16.2862 O   0  0  0  0  0  0  0  0  0  0  0  0
   27.5674  -22.3672  -15.2307 C   0  0  0  0  0  0  0  0  0  0  0  0
   26.3646  -21.4751  -15.0234 C   0  0  2  0  0  0  0  0  0  0  0  0
   26.2487  -20.6137  -16.1828 N   0  0  0  0  0  0  0  0  0  0  0  0
   26.4676  -20.6484  -13.8187 C   0  0  0  0  0  0  0  0  0  0  0  0
   26.8426  -19.4509  -13.8978 O   0  0  0  0  0  0  0  0  0  0  0  0
   20.0746  -21.8854  -11.6925 O   0  0  0  0  0  0  0  0  0  0  0  0
   21.3283  -21.2480  -11.6503 C   0  0  0  0  0  0  0  0  0  0  0  0
   21.7985  -20.7755  -10.4438 C   0  0  0  0  0  0  0  0  0  0  0  0
   23.0238  -20.1461  -10.3695 C   0  0  0  0  0  0  0  0  0  0  0  0
   23.8135  -19.9671  -11.4780 C   0  0  0  0  0  0  0  0  0  0  0  0
   25.1128  -19.2978  -11.4129 C   0  0  0  0  0  0  0  0  0  0  0  0
   26.2426  -20.2644  -11.3244 C   0  0  2  0  0  0  0  0  0  0  0  0
   26.1621  -21.1174  -12.5077 N   0  0  0  0  0  0  0  0  0  0  0  0
   26.2257  -21.0436  -10.0860 C   0  0  0  0  0  0  0  0  0  0  0  0
   25.6218  -22.1142   -9.9125 O   0  0  0  0  0  0  0  0  0  0  0  0
   23.3204  -20.4524  -12.6905 C   0  0  0  0  0  0  0  0  0  0  0  0
   22.1000  -21.0812  -12.7740 C   0  0  0  0  0  0  0  0  0  0  0  0
   26.9650  -20.5389   -8.9719 N   0  0  0  0  0  0  0  0  0  0  0  0
   27.0515  -21.2999   -7.7287 C   0  0  1  0  0  0  0  0  0  0  0  0
   28.3715  -21.1625   -7.0727 C   0  0  0  0  0  0  0  0  0  0  0  0
   28.3744  -20.0486   -6.1095 C   0  0  0  0  0  0  0  0  0  0  0  0
   28.4551  -18.7337   -6.4655 C   0  0  0  0  0  0  0  0  0  0  0  0
   28.4427  -17.7540   -5.5048 C   0  0  0  0  0  0  0  0  0  0  0  0
   28.3509  -18.0377   -4.1634 C   0  0  0  0  0  0  0  0  0  0  0  0
   28.2691  -19.3519   -3.7820 C   0  0  0  0  0  0  0  0  0  0  0  0
   28.2812  -20.3291   -4.7394 C   0  0  0  0  0  0  0  0  0  0  0  0
   25.9941  -20.8058   -6.8489 C   0  0  0  0  0  0  0  0  0  0  0  0
   25.3761  -19.7630   -7.1228 O   0  0  0  0  0  0  0  0  0  0  0  0
   25.6681  -21.4932   -5.7002 O   0  0  0  0  0  0  0  0  0  0  0  0
  1  2  1  0
  2  3  1  0
  3  5  1  0
  3  4  1  6
  5 14  1  0
  6  5  2  0
  8  7  1  0
  9  8  2  0
 10  9  1  0
 11 10  2  0
 11 17  1  0
 12 11  1  0
 13 12  1  1
 14 13  1  0
 15 13  1  0
 16 15  2  0
 17 18  2  0
 18  8  1  0
 19 15  1  0
 20 19  1  0
 21 22  1  0
 20 21  1  1
 22 23  2  0
 23 24  1  0
 25 24  2  0
 26 25  1  0
 27 26  2  0
 27 22  1  0
 28 20  1  0
 28 30  1  0
 29 28  2  0
M  END
$$$$
