SYF.pdb
     RDKit          3D

 30 31  0  0  1  0  0  0  0  0999 V2000
   16.0546  -12.7892  -15.8950 O   0  0  0  0  0  0  0  0  0  0  0  0
   16.5936  -11.6939  -15.2404 C   0  0  0  0  0  0  0  0  0  0  0  0
   17.9347  -11.2753  -15.7983 C   0  0  2  0  0  0  0  0  0  0  0  0
   18.8813  -12.3351  -15.5146 N   0  0  0  0  0  0  0  0  0  0  0  0
   18.4280  -10.0230  -15.2206 C   0  0  0  0  0  0  0  0  0  0  0  0
   18.8717   -9.9951  -14.0445 O   0  0  0  0  0  0  0  0  0  0  0  0
   21.7121   -1.8269  -14.6293 O   0  0  0  0  0  0  0  0  0  0  0  0
   21.2029   -3.0599  -15.0768 C   0  0  0  0  0  0  0  0  0  0  0  0
   21.7664   -4.2268  -14.6070 C   0  0  0  0  0  0  0  0  0  0  0  0
   21.2897   -5.4514  -15.0267 C   0  0  0  0  0  0  0  0  0  0  0  0
   20.2498   -5.5565  -15.9167 C   0  0  0  0  0  0  0  0  0  0  0  0
   19.7380   -6.8490  -16.3724 C   0  0  0  0  0  0  0  0  0  0  0  0
   18.9432   -7.5443  -15.3220 C   0  0  2  0  0  0  0  0  0  0  0  0
   18.4442   -8.7806  -15.9193 N   0  0  0  0  0  0  0  0  0  0  0  0
   17.8595   -6.7167  -14.7912 C   0  0  0  0  0  0  0  0  0  0  0  0
   16.7548   -6.5386  -15.3287 O   0  0  0  0  0  0  0  0  0  0  0  0
   19.6924   -4.3638  -16.3811 C   0  0  0  0  0  0  0  0  0  0  0  0
   20.1611   -3.1385  -15.9681 C   0  0  0  0  0  0  0  0  0  0  0  0
   18.0795   -6.0503  -13.5463 N   0  0  0  0  0  0  0  0  0  0  0  0
   17.0984   -5.1029  -13.0246 C   0  0  1  0  0  0  0  0  0  0  0  0
   17.0485   -5.0981  -11.5451 C   0  0  0  0  0  0  0  0  0  0  0  0
   16.1803   -4.0190  -11.0447 C   0  0  0  0  0  0  0  0  0  0  0  0
   16.6163   -2.7549  -10.7721 C   0  0  0  0  0  0  0  0  0  0  0  0
   15.7392   -1.8030  -10.3163 C   0  0  0  0  0  0  0  0  0  0  0  0
   14.4055   -2.0655  -10.1142 C   0  0  0  0  0  0  0  0  0  0  0  0
   13.9450   -3.3289  -10.3810 C   0  0  0  0  0  0  0  0  0  0  0  0
   14.8189   -4.2783  -10.8356 C   0  0  0  0  0  0  0  0  0  0  0  0
   17.4715   -3.7808  -13.5237 C   0  0  0  0  0  0  0  0  0  0  0  0
   16.6076   -2.9970  -13.9525 O   0  0  0  0  0  0  0  0  0  0  0  0
   18.7914   -3.3854  -13.5247 O   0  0  0  0  0  0  0  0  0  0  0  0
  1  2  1  0
  2  3  1  0
  3  5  1  0
  3  4  1  1
  5 14  1  0
  6  5  2  0
  8  7  1  0
  9  8  2  0
 10  9  1  0
 11 10  2  0
 11 17  1  0
 12 11  1  0
 13 12  1  6
 14 13  1  0
 15 13  1  0
 16 15  2  0
 17 18  2  0
 18  8  1  0
 19 15  1  0
 20 19  1  0
 21 22  1  0
 20 21  1  1
 22 23  2  0
 23 24  1  0
 25 24  2  0
 26 25  1  0
 27 26  2  0
 27 22  1  0
 28 20  1  0
 28 30  1  0
 29 28  2  0
M  END
$$$$
