SYF.pdb
     RDKit          3D

 30 31  0  0  1  0  0  0  0  0999 V2000
   11.6689  -17.9502    5.3926 O   0  0  0  0  0  0  0  0  0  0  0  0
   12.0829  -17.3071    4.2379 C   0  0  0  0  0  0  0  0  0  0  0  0
   12.3728  -15.8391    4.4526 C   0  0  2  0  0  0  0  0  0  0  0  0
   11.7752  -15.1057    3.3550 N   0  0  0  0  0  0  0  0  0  0  0  0
   13.8061  -15.5418    4.5054 C   0  0  0  0  0  0  0  0  0  0  0  0
   14.4414  -15.2786    3.4528 O   0  0  0  0  0  0  0  0  0  0  0  0
   21.2838  -11.7064    6.5997 O   0  0  0  0  0  0  0  0  0  0  0  0
   20.0125  -12.3070    6.6537 C   0  0  0  0  0  0  0  0  0  0  0  0
   19.0725  -11.9707    5.7032 C   0  0  0  0  0  0  0  0  0  0  0  0
   17.8172  -12.5421    5.7291 C   0  0  0  0  0  0  0  0  0  0  0  0
   17.4579  -13.4557    6.6886 C   0  0  0  0  0  0  0  0  0  0  0  0
   16.1287  -14.0656    6.7291 C   0  0  0  0  0  0  0  0  0  0  0  0
   15.9853  -15.1739    5.7445 C   0  0  2  0  0  0  0  0  0  0  0  0
   14.5682  -15.5272    5.7099 N   0  0  0  0  0  0  0  0  0  0  0  0
   16.8290  -16.3264    6.0621 C   0  0  0  0  0  0  0  0  0  0  0  0
   16.5279  -17.2543    6.8299 O   0  0  0  0  0  0  0  0  0  0  0  0
   18.4232  -13.7835    7.6423 C   0  0  0  0  0  0  0  0  0  0  0  0
   19.6773  -13.2189    7.6243 C   0  0  0  0  0  0  0  0  0  0  0  0
   18.1138  -16.4022    5.4409 N   0  0  0  0  0  0  0  0  0  0  0  0
   19.0080  -17.5241    5.7129 C   0  0  1  0  0  0  0  0  0  0  0  0
   19.7875  -17.9275    4.5207 C   0  0  0  0  0  0  0  0  0  0  0  0
   18.9054  -18.4183    3.4485 C   0  0  0  0  0  0  0  0  0  0  0  0
   18.4485  -19.7015    3.3654 C   0  0  0  0  0  0  0  0  0  0  0  0
   17.6211  -20.0768    2.3370 C   0  0  0  0  0  0  0  0  0  0  0  0
   17.2175  -19.2010    1.3580 C   0  0  0  0  0  0  0  0  0  0  0  0
   17.6643  -17.9065    1.4209 C   0  0  0  0  0  0  0  0  0  0  0  0
   18.4892  -17.5316    2.4460 C   0  0  0  0  0  0  0  0  0  0  0  0
   19.9057  -17.1061    6.7880 C   0  0  0  0  0  0  0  0  0  0  0  0
   21.1343  -17.0600    6.6072 O   0  0  0  0  0  0  0  0  0  0  0  0
   19.3984  -16.7565    8.0203 O   0  0  0  0  0  0  0  0  0  0  0  0
  1  2  1  0
  2  3  1  0
  3  5  1  0
  3  4  1  6
  5 14  1  0
  6  5  2  0
  8  7  1  0
  9  8  2  0
 10  9  1  0
 11 10  2  0
 11 17  1  0
 12 11  1  0
 13 12  1  1
 14 13  1  0
 15 13  1  0
 16 15  2  0
 17 18  2  0
 18  8  1  0
 19 15  1  0
 20 19  1  0
 21 22  1  0
 20 21  1  6
 22 23  2  0
 23 24  1  0
 25 24  2  0
 26 25  1  0
 27 26  2  0
 27 22  1  0
 28 20  1  0
 28 30  1  0
 29 28  2  0
M  END
$$$$
