SYF.pdb
     RDKit          3D

 30 31  0  0  1  0  0  0  0  0999 V2000
   28.6624  -17.4828  -14.7644 O   0  0  0  0  0  0  0  0  0  0  0  0
   28.8071  -18.8572  -14.8561 C   0  0  0  0  0  0  0  0  0  0  0  0
   27.4845  -19.5847  -14.9393 C   0  0  2  0  0  0  0  0  0  0  0  0
   26.6869  -18.9355  -15.9602 N   0  0  0  0  0  0  0  0  0  0  0  0
   26.7465  -19.5746  -13.6741 C   0  0  0  0  0  0  0  0  0  0  0  0
   26.1014  -18.5549  -13.3209 O   0  0  0  0  0  0  0  0  0  0  0  0
   20.6364  -19.8225  -15.0918 O   0  0  0  0  0  0  0  0  0  0  0  0
   21.6648  -20.2720  -14.2432 C   0  0  0  0  0  0  0  0  0  0  0  0
   22.6209  -21.1282  -14.7458 C   0  0  0  0  0  0  0  0  0  0  0  0
   23.6418  -21.5866  -13.9391 C   0  0  0  0  0  0  0  0  0  0  0  0
   23.7457  -21.2143  -12.6219 C   0  0  0  0  0  0  0  0  0  0  0  0
   24.8212  -21.6966  -11.7553 C   0  0  0  0  0  0  0  0  0  0  0  0
   25.8896  -20.6775  -11.5601 C   0  0  2  0  0  0  0  0  0  0  0  0
   26.7018  -20.6794  -12.7744 N   0  0  0  0  0  0  0  0  0  0  0  0
   26.6945  -20.9228  -10.3630 C   0  0  0  0  0  0  0  0  0  0  0  0
   27.7039  -21.6430  -10.3045 O   0  0  0  0  0  0  0  0  0  0  0  0
   22.7682  -20.3468  -12.1313 C   0  0  0  0  0  0  0  0  0  0  0  0
   21.7468  -19.8847  -12.9282 C   0  0  0  0  0  0  0  0  0  0  0  0
   26.2942  -20.2835   -9.1492 N   0  0  0  0  0  0  0  0  0  0  0  0
   27.0327  -20.5086   -7.9097 C   0  0  1  0  0  0  0  0  0  0  0  0
   27.7565  -19.2996   -7.4556 C   0  0  0  0  0  0  0  0  0  0  0  0
   28.3435  -19.5002   -6.1201 C   0  0  0  0  0  0  0  0  0  0  0  0
   27.8561  -18.9299   -4.9801 C   0  0  0  0  0  0  0  0  0  0  0  0
   28.4573  -19.1753   -3.7712 C   0  0  0  0  0  0  0  0  0  0  0  0
   29.5572  -19.9895   -3.6464 C   0  0  0  0  0  0  0  0  0  0  0  0
   30.0645  -20.5732   -4.7783 C   0  0  0  0  0  0  0  0  0  0  0  0
   29.4655  -20.3291   -5.9839 C   0  0  0  0  0  0  0  0  0  0  0  0
   26.0607  -20.9264   -6.9013 C   0  0  0  0  0  0  0  0  0  0  0  0
   24.8651  -20.6017   -6.9990 O   0  0  0  0  0  0  0  0  0  0  0  0
   26.4599  -21.6888   -5.8253 O   0  0  0  0  0  0  0  0  0  0  0  0
  1  2  1  0
  2  3  1  0
  3  5  1  0
  3  4  1  6
  5 14  1  0
  6  5  2  0
  8  7  1  0
  9  8  2  0
 10  9  1  0
 11 10  2  0
 11 17  1  0
 12 11  1  0
 13 12  1  6
 14 13  1  0
 15 13  1  0
 16 15  2  0
 17 18  2  0
 18  8  1  0
 19 15  1  0
 20 19  1  0
 21 22  1  0
 20 21  1  1
 22 23  2  0
 23 24  1  0
 25 24  2  0
 26 25  1  0
 27 26  2  0
 27 22  1  0
 28 20  1  0
 28 30  1  0
 29 28  2  0
M  END
$$$$
