SYF.pdb
     RDKit          3D

 30 31  0  0  1  0  0  0  0  0999 V2000
   24.3867  -22.4986  -17.2662 O   0  0  0  0  0  0  0  0  0  0  0  0
   25.5539  -22.6840  -16.5439 C   0  0  0  0  0  0  0  0  0  0  0  0
   25.3055  -23.2017  -15.1455 C   0  0  2  0  0  0  0  0  0  0  0  0
   24.9512  -24.6029  -15.2496 N   0  0  0  0  0  0  0  0  0  0  0  0
   24.2321  -22.4847  -14.4533 C   0  0  0  0  0  0  0  0  0  0  0  0
   23.1948  -23.0920  -14.0845 O   0  0  0  0  0  0  0  0  0  0  0  0
   24.4759  -21.7829   -7.3442 O   0  0  0  0  0  0  0  0  0  0  0  0
   24.3469  -21.2073   -8.6216 C   0  0  0  0  0  0  0  0  0  0  0  0
   23.0860  -20.9488   -9.1150 C   0  0  0  0  0  0  0  0  0  0  0  0
   22.9263  -20.3850  -10.3638 C   0  0  0  0  0  0  0  0  0  0  0  0
   24.0010  -20.0632  -11.1550 C   0  0  0  0  0  0  0  0  0  0  0  0
   23.8446  -19.4687  -12.4826 C   0  0  0  0  0  0  0  0  0  0  0  0
   23.1983  -20.4018  -13.4470 C   0  0  2  0  0  0  0  0  0  0  0  0
   24.2752  -21.0919  -14.1530 N   0  0  0  0  0  0  0  0  0  0  0  0
   22.2872  -19.7223  -14.3686 C   0  0  0  0  0  0  0  0  0  0  0  0
   21.2933  -19.0539  -14.0424 O   0  0  0  0  0  0  0  0  0  0  0  0
   25.2696  -20.3323  -10.6381 C   0  0  0  0  0  0  0  0  0  0  0  0
   25.4383  -20.8941   -9.3941 C   0  0  0  0  0  0  0  0  0  0  0  0
   22.5539  -19.8299  -15.7684 N   0  0  0  0  0  0  0  0  0  0  0  0
   21.7012  -19.1557  -16.7434 C   0  0  1  0  0  0  0  0  0  0  0  0
   22.4466  -18.7364  -17.9518 C   0  0  0  0  0  0  0  0  0  0  0  0
   21.5668  -18.0405  -18.9059 C   0  0  0  0  0  0  0  0  0  0  0  0
   20.9475  -18.6521  -19.9569 C   0  0  0  0  0  0  0  0  0  0  0  0
   20.1348  -17.9322  -20.7962 C   0  0  0  0  0  0  0  0  0  0  0  0
   19.9063  -16.5878  -20.6275 C   0  0  0  0  0  0  0  0  0  0  0  0
   20.5183  -15.9520  -19.5783 C   0  0  0  0  0  0  0  0  0  0  0  0
   21.3286  -16.6692  -18.7412 C   0  0  0  0  0  0  0  0  0  0  0  0
   20.6378  -20.0917  -17.1030 C   0  0  0  0  0  0  0  0  0  0  0  0
   19.5007  -19.6808  -17.3904 O   0  0  0  0  0  0  0  0  0  0  0  0
   20.8842  -21.4471  -17.1278 O   0  0  0  0  0  0  0  0  0  0  0  0
  1  2  1  0
  2  3  1  0
  3  5  1  0
  3  4  1  6
  5 14  1  0
  6  5  2  0
  8  7  1  0
  9  8  2  0
 10  9  1  0
 11 10  2  0
 11 17  1  0
 12 11  1  0
 13 12  1  1
 14 13  1  0
 15 13  1  0
 16 15  2  0
 17 18  2  0
 18  8  1  0
 19 15  1  0
 20 19  1  0
 21 22  1  0
 20 21  1  6
 22 23  2  0
 23 24  1  0
 25 24  2  0
 26 25  1  0
 27 26  2  0
 27 22  1  0
 28 20  1  0
 28 30  1  0
 29 28  2  0
M  END
$$$$
