SYF.pdb
     RDKit          3D

 30 31  0  0  1  0  0  0  0  0999 V2000
   29.2188  -18.8291  -15.6972 O   0  0  0  0  0  0  0  0  0  0  0  0
   28.2213  -18.4490  -14.8146 C   0  0  0  0  0  0  0  0  0  0  0  0
   27.0580  -19.4139  -14.7890 C   0  0  2  0  0  0  0  0  0  0  0  0
   26.1118  -18.9919  -15.8022 N   0  0  0  0  0  0  0  0  0  0  0  0
   26.3825  -19.4600  -13.4902 C   0  0  0  0  0  0  0  0  0  0  0  0
   25.8108  -18.4379  -13.0327 O   0  0  0  0  0  0  0  0  0  0  0  0
   20.1418  -19.6009  -14.5217 O   0  0  0  0  0  0  0  0  0  0  0  0
   21.2167  -20.0944  -13.7595 C   0  0  0  0  0  0  0  0  0  0  0  0
   22.1419  -20.9191  -14.3627 C   0  0  0  0  0  0  0  0  0  0  0  0
   23.2068  -21.4192  -13.6424 C   0  0  0  0  0  0  0  0  0  0  0  0
   23.3861  -21.1204  -12.3146 C   0  0  0  0  0  0  0  0  0  0  0  0
   24.5089  -21.6476  -11.5389 C   0  0  0  0  0  0  0  0  0  0  0  0
   25.6107  -20.6559  -11.3940 C   0  0  2  0  0  0  0  0  0  0  0  0
   26.3210  -20.6244  -12.6702 N   0  0  0  0  0  0  0  0  0  0  0  0
   26.5052  -20.9622  -10.2773 C   0  0  0  0  0  0  0  0  0  0  0  0
   27.1481  -22.0143  -10.1323 O   0  0  0  0  0  0  0  0  0  0  0  0
   22.4389  -20.2838  -11.7214 C   0  0  0  0  0  0  0  0  0  0  0  0
   21.3741  -19.7806  -12.4318 C   0  0  0  0  0  0  0  0  0  0  0  0
   26.6610  -19.9724   -9.2584 N   0  0  0  0  0  0  0  0  0  0  0  0
   27.2935  -20.3065   -7.9853 C   0  0  1  0  0  0  0  0  0  0  0  0
   27.8280  -19.1141   -7.2896 C   0  0  0  0  0  0  0  0  0  0  0  0
   28.3826  -19.4695   -5.9726 C   0  0  0  0  0  0  0  0  0  0  0  0
   29.4453  -20.3068   -5.7942 C   0  0  0  0  0  0  0  0  0  0  0  0
   29.9072  -20.5803   -4.5312 C   0  0  0  0  0  0  0  0  0  0  0  0
   29.3374  -20.0385   -3.4042 C   0  0  0  0  0  0  0  0  0  0  0  0
   28.2682  -19.1946   -3.5591 C   0  0  0  0  0  0  0  0  0  0  0  0
   27.8073  -18.9215   -4.8180 C   0  0  0  0  0  0  0  0  0  0  0  0
   26.2794  -20.9619   -7.1617 C   0  0  0  0  0  0  0  0  0  0  0  0
   25.0808  -20.6493   -7.2621 O   0  0  0  0  0  0  0  0  0  0  0  0
   26.6415  -21.9388   -6.2601 O   0  0  0  0  0  0  0  0  0  0  0  0
  1  2  1  0
  2  3  1  0
  3  5  1  0
  3  4  1  6
  5 14  1  0
  6  5  2  0
  8  7  1  0
  9  8  2  0
 10  9  1  0
 11 10  2  0
 11 17  1  0
 12 11  1  0
 13 12  1  6
 14 13  1  0
 15 13  1  0
 16 15  2  0
 17 18  2  0
 18  8  1  0
 19 15  1  0
 20 19  1  0
 21 22  1  0
 20 21  1  1
 22 23  2  0
 23 24  1  0
 25 24  2  0
 26 25  1  0
 27 26  2  0
 27 22  1  0
 28 20  1  0
 28 30  1  0
 29 28  2  0
M  END
$$$$
