ENM.pdb
     RDKit          3D

 26 25  0  0  1  0  0  0  0  0999 V2000
   12.4591  -19.4000   21.0369 N   0  0  0  0  0  0  0  0  0  0  0  0
   12.9078  -18.0436   21.0350 C   0  0  1  0  0  0  0  0  0  0  0  0
   13.6409  -17.7633   19.7437 C   0  0  0  0  0  0  0  0  0  0  0  0
   12.8814  -18.4109   18.6189 C   0  0  0  0  0  0  0  0  0  0  0  0
   13.4340  -18.1800   17.2859 C   0  0  0  0  0  0  0  0  0  0  0  0
   12.8387  -17.4784   16.4307 O   0  0  0  0  0  0  0  0  0  0  0  0
   11.7572  -17.1413   21.2301 C   0  0  0  0  0  0  0  0  0  0  0  0
   11.9313  -15.9052   21.1761 O   0  0  0  0  0  0  0  0  0  0  0  0
   14.6519  -18.7410   16.9263 O   0  0  0  0  0  0  0  0  0  0  0  0
    6.6895  -15.4601   20.8372 N   0  0  0  0  0  0  0  0  0  0  0  0
    6.8838  -16.6058   21.6874 C   0  0  0  0  0  0  0  0  0  0  0  0
    6.0964  -16.8003   22.6439 O   0  0  0  0  0  0  0  0  0  0  0  0
    8.0244  -17.5194   21.3898 C   0  0  0  0  0  0  0  0  0  0  0  0
    9.3179  -16.8936   21.7948 C   0  0  2  0  0  0  0  0  0  0  0  0
   10.4781  -17.7049   21.4760 N   0  0  0  0  0  0  0  0  0  0  0  0
    9.2847  -16.5317   23.2333 C   0  0  0  0  0  0  0  0  0  0  0  0
   10.0487  -17.0161   24.1090 O   0  0  0  0  0  0  0  0  0  0  0  0
    6.6903  -10.6912   25.4388 C   0  0  0  0  0  0  0  0  0  0  0  0
    6.1183  -11.9975   26.5580 S   0  0  0  0  0  0  0  0  0  0  0  0
    7.3220  -13.3823   26.6072 C   0  0  0  0  0  0  0  0  0  0  0  0
    7.3633  -13.9616   25.2313 C   0  0  0  0  0  0  0  0  0  0  0  0
    8.3663  -15.0817   25.0596 C   0  0  2  0  0  0  0  0  0  0  0  0
    8.3296  -15.5735   23.6673 N   0  0  0  0  0  0  0  0  0  0  0  0
    8.0998  -16.2367   25.9317 C   0  0  0  0  0  0  0  0  0  0  0  0
    8.7132  -16.3301   27.1585 O   0  0  0  0  0  0  0  0  0  0  0  0
    7.3213  -17.1371   25.5695 O   0  0  0  0  0  0  0  0  0  0  0  0
  2  1  1  6
  2  7  1  0
  3  2  1  0
  4  3  1  0
  4  5  1  0
  5  9  1  0
  5  6  2  0
  7  8  2  0
 10 11  1  0
 11 12  2  0
 14 13  1  1
 13 11  1  0
 15 14  1  0
 15  7  1  0
 16 17  2  0
 16 14  1  0
 19 20  1  0
 19 18  1  0
 20 21  1  0
 22 21  1  6
 22 23  1  0
 22 24  1  0
 23 16  1  0
 24 25  1  0
 26 24  2  0
M  END
$$$$
