ENM.pdb
     RDKit          3D

 26 25  0  0  1  0  0  0  0  0999 V2000
    9.0264  -12.6942   19.1243 N   0  0  0  0  0  0  0  0  0  0  0  0
    7.8245  -13.4663   19.1465 C   0  0  1  0  0  0  0  0  0  0  0  0
    7.4261  -13.8087   17.7297 C   0  0  0  0  0  0  0  0  0  0  0  0
    8.6622  -14.2167   16.9767 C   0  0  0  0  0  0  0  0  0  0  0  0
    8.4317  -14.6612   15.6038 C   0  0  0  0  0  0  0  0  0  0  0  0
    7.2895  -14.6439   15.0812 O   0  0  0  0  0  0  0  0  0  0  0  0
    8.0244  -14.6697   19.9759 C   0  0  0  0  0  0  0  0  0  0  0  0
    7.0929  -15.4938   20.0952 O   0  0  0  0  0  0  0  0  0  0  0  0
    9.4888  -15.1218   14.8306 O   0  0  0  0  0  0  0  0  0  0  0  0
   10.5176  -19.2121   21.8985 N   0  0  0  0  0  0  0  0  0  0  0  0
   10.8816  -17.8588   22.2297 C   0  0  0  0  0  0  0  0  0  0  0  0
   11.3580  -17.6117   23.3631 O   0  0  0  0  0  0  0  0  0  0  0  0
   10.6734  -16.8006   21.1997 C   0  0  0  0  0  0  0  0  0  0  0  0
    9.5112  -15.9366   21.5619 C   0  0  2  0  0  0  0  0  0  0  0  0
    9.2753  -14.8588   20.6192 N   0  0  0  0  0  0  0  0  0  0  0  0
    9.6632  -15.4258   22.9466 C   0  0  0  0  0  0  0  0  0  0  0  0
   10.5501  -14.6110   23.3134 O   0  0  0  0  0  0  0  0  0  0  0  0
    5.9490  -11.6663   25.6666 C   0  0  0  0  0  0  0  0  0  0  0  0
    7.3159  -12.0929   26.7783 S   0  0  0  0  0  0  0  0  0  0  0  0
    7.4814  -13.9143   26.9333 C   0  0  0  0  0  0  0  0  0  0  0  0
    7.5834  -14.4538   25.5445 C   0  0  0  0  0  0  0  0  0  0  0  0
    8.8078  -15.3089   25.2994 C   0  0  2  0  0  0  0  0  0  0  0  0
    8.7521  -15.8792   23.9380 N   0  0  0  0  0  0  0  0  0  0  0  0
    8.9221  -16.4386   26.2354 C   0  0  0  0  0  0  0  0  0  0  0  0
    9.2737  -16.2152   27.5456 O   0  0  0  0  0  0  0  0  0  0  0  0
    8.7040  -17.6023   25.8529 O   0  0  0  0  0  0  0  0  0  0  0  0
  2  1  1  6
  2  7  1  0
  3  2  1  0
  4  3  1  0
  4  5  1  0
  5  9  1  0
  5  6  2  0
  7  8  2  0
 10 11  1  0
 11 12  2  0
 14 13  1  6
 13 11  1  0
 15 14  1  0
 15  7  1  0
 16 17  2  0
 16 14  1  0
 19 20  1  0
 19 18  1  0
 20 21  1  0
 22 21  1  1
 22 23  1  0
 22 24  1  0
 23 16  1  0
 24 25  1  0
 26 24  2  0
M  END
$$$$
