ENM.pdb
     RDKit          3D

 26 25  0  0  1  0  0  0  0  0999 V2000
   10.7525  -16.8669   17.9258 N   0  0  0  0  0  0  0  0  0  0  0  0
   11.1031  -17.2369   19.2606 C   0  0  1  0  0  0  0  0  0  0  0  0
   12.4428  -16.6315   19.6097 C   0  0  0  0  0  0  0  0  0  0  0  0
   12.5282  -15.2727   18.9712 C   0  0  0  0  0  0  0  0  0  0  0  0
   13.8027  -14.5817   19.1551 C   0  0  0  0  0  0  0  0  0  0  0  0
   14.6373  -14.9435   20.0215 O   0  0  0  0  0  0  0  0  0  0  0  0
   10.0391  -16.8092   20.1884 C   0  0  0  0  0  0  0  0  0  0  0  0
    9.1365  -16.0490   19.7779 O   0  0  0  0  0  0  0  0  0  0  0  0
   14.1271  -13.4891   18.3625 O   0  0  0  0  0  0  0  0  0  0  0  0
    7.0838  -19.4064   24.7012 N   0  0  0  0  0  0  0  0  0  0  0  0
    7.1589  -18.5458   23.5492 C   0  0  0  0  0  0  0  0  0  0  0  0
    6.2129  -17.7582   23.3093 O   0  0  0  0  0  0  0  0  0  0  0  0
    8.3704  -18.6305   22.6836 C   0  0  0  0  0  0  0  0  0  0  0  0
    8.8981  -17.2666   22.3839 C   0  0  2  0  0  0  0  0  0  0  0  0
   10.0706  -17.2747   21.5288 N   0  0  0  0  0  0  0  0  0  0  0  0
    9.1479  -16.5245   23.6442 C   0  0  0  0  0  0  0  0  0  0  0  0
   10.1901  -16.6336   24.3421 O   0  0  0  0  0  0  0  0  0  0  0  0
    6.5300  -10.2467   26.3054 C   0  0  0  0  0  0  0  0  0  0  0  0
    5.9507  -11.8911   26.8018 S   0  0  0  0  0  0  0  0  0  0  0  0
    7.3410  -13.0893   26.8230 C   0  0  0  0  0  0  0  0  0  0  0  0
    7.2392  -13.8843   25.5629 C   0  0  0  0  0  0  0  0  0  0  0  0
    8.3721  -14.8661   25.3555 C   0  0  2  0  0  0  0  0  0  0  0  0
    8.1506  -15.6252   24.1079 N   0  0  0  0  0  0  0  0  0  0  0  0
    8.4920  -15.8501   26.4431 C   0  0  0  0  0  0  0  0  0  0  0  0
    9.2580  -15.5655   27.5486 O   0  0  0  0  0  0  0  0  0  0  0  0
    7.9055  -16.9452   26.3736 O   0  0  0  0  0  0  0  0  0  0  0  0
  2  1  1  6
  2  7  1  0
  3  2  1  0
  4  3  1  0
  4  5  1  0
  5  9  1  0
  5  6  2  0
  7  8  2  0
 10 11  1  0
 11 12  2  0
 14 13  1  1
 13 11  1  0
 15 14  1  0
 15  7  1  0
 16 17  2  0
 16 14  1  0
 19 20  1  0
 19 18  1  0
 20 21  1  0
 22 21  1  1
 22 23  1  0
 22 24  1  0
 23 16  1  0
 24 25  1  0
 26 24  2  0
M  END
$$$$
