ENM.pdb
     RDKit          3D

 26 25  0  0  1  0  0  0  0  0999 V2000
   12.6527  -19.6728   19.5971 N   0  0  0  0  0  0  0  0  0  0  0  0
   13.3329  -18.5391   20.1387 C   0  0  1  0  0  0  0  0  0  0  0  0
   13.8810  -17.7000   19.0078 C   0  0  0  0  0  0  0  0  0  0  0  0
   14.7857  -18.5643   18.1736 C   0  0  0  0  0  0  0  0  0  0  0  0
   16.0542  -17.9460   17.7936 C   0  0  0  0  0  0  0  0  0  0  0  0
   17.1591  -18.4969   18.0249 O   0  0  0  0  0  0  0  0  0  0  0  0
   12.4131  -17.7766   21.0037 C   0  0  0  0  0  0  0  0  0  0  0  0
   12.7917  -16.6925   21.4963 O   0  0  0  0  0  0  0  0  0  0  0  0
   16.0683  -16.7126   17.1566 O   0  0  0  0  0  0  0  0  0  0  0  0
    7.9355  -19.2952   19.9222 N   0  0  0  0  0  0  0  0  0  0  0  0
    8.2587  -18.0801   20.6240 C   0  0  0  0  0  0  0  0  0  0  0  0
    8.0954  -16.9777   20.0489 O   0  0  0  0  0  0  0  0  0  0  0  0
    8.7788  -18.1878   22.0175 C   0  0  0  0  0  0  0  0  0  0  0  0
   10.1577  -17.6230   22.1086 C   0  0  2  0  0  0  0  0  0  0  0  0
   11.1172  -18.2983   21.2546 N   0  0  0  0  0  0  0  0  0  0  0  0
   10.6095  -17.5971   23.5216 C   0  0  0  0  0  0  0  0  0  0  0  0
   11.4635  -18.3813   24.0123 O   0  0  0  0  0  0  0  0  0  0  0  0
    9.6907  -13.4721   30.2986 C   0  0  0  0  0  0  0  0  0  0  0  0
    9.4633  -13.6697   28.5111 S   0  0  0  0  0  0  0  0  0  0  0  0
   10.1440  -15.2773   27.9445 C   0  0  0  0  0  0  0  0  0  0  0  0
    9.9135  -15.3432   26.4704 C   0  0  0  0  0  0  0  0  0  0  0  0
   10.4499  -16.5969   25.8140 C   0  0  2  0  0  0  0  0  0  0  0  0
   10.0479  -16.6256   24.3930 N   0  0  0  0  0  0  0  0  0  0  0  0
    9.9450  -17.8344   26.4297 C   0  0  0  0  0  0  0  0  0  0  0  0
   10.6250  -18.4105   27.4765 O   0  0  0  0  0  0  0  0  0  0  0  0
    8.9033  -18.3706   26.0110 O   0  0  0  0  0  0  0  0  0  0  0  0
  2  1  1  6
  2  7  1  0
  3  2  1  0
  4  3  1  0
  4  5  1  0
  5  9  1  0
  5  6  2  0
  7  8  2  0
 10 11  1  0
 11 12  2  0
 14 13  1  1
 13 11  1  0
 15 14  1  0
 15  7  1  0
 16 17  2  0
 16 14  1  0
 19 20  1  0
 19 18  1  0
 20 21  1  0
 22 21  1  1
 22 23  1  0
 22 24  1  0
 23 16  1  0
 24 25  1  0
 26 24  2  0
M  END
$$$$
