ENM.pdb
     RDKit          3D

 26 25  0  0  1  0  0  0  0  0999 V2000
   10.0421  -13.6044   18.7387 N   0  0  0  0  0  0  0  0  0  0  0  0
    8.6973  -13.7736   19.1904 C   0  0  1  0  0  0  0  0  0  0  0  0
    7.8047  -14.0538   18.0037 C   0  0  0  0  0  0  0  0  0  0  0  0
    8.6613  -14.1002   16.7686 C   0  0  0  0  0  0  0  0  0  0  0  0
    7.9726  -14.5317   15.5541 C   0  0  0  0  0  0  0  0  0  0  0  0
    7.5587  -15.7084   15.4057 O   0  0  0  0  0  0  0  0  0  0  0  0
    8.6445  -14.8524   20.1949 C   0  0  0  0  0  0  0  0  0  0  0  0
    7.5495  -15.1503   20.7180 O   0  0  0  0  0  0  0  0  0  0  0  0
    7.7560  -13.6353   14.5164 O   0  0  0  0  0  0  0  0  0  0  0  0
   11.3937  -19.6233   20.1823 N   0  0  0  0  0  0  0  0  0  0  0  0
   10.4665  -18.6009   20.5925 C   0  0  0  0  0  0  0  0  0  0  0  0
    9.2770  -18.6580   20.1993 O   0  0  0  0  0  0  0  0  0  0  0  0
   10.9671  -17.5081   21.4754 C   0  0  0  0  0  0  0  0  0  0  0  0
    9.9229  -16.4561   21.6526 C   0  0  2  0  0  0  0  0  0  0  0  0
    9.8450  -15.5252   20.5420 N   0  0  0  0  0  0  0  0  0  0  0  0
   10.1195  -15.7500   22.9426 C   0  0  0  0  0  0  0  0  0  0  0  0
   11.1997  -15.2149   23.3060 O   0  0  0  0  0  0  0  0  0  0  0  0
    6.2392  -10.9569   27.7171 C   0  0  0  0  0  0  0  0  0  0  0  0
    6.3648  -12.0618   26.2856 S   0  0  0  0  0  0  0  0  0  0  0  0
    7.8717  -13.1034   26.4005 C   0  0  0  0  0  0  0  0  0  0  0  0
    7.9461  -13.8887   25.1324 C   0  0  0  0  0  0  0  0  0  0  0  0
    9.1305  -14.8274   25.0526 C   0  0  2  0  0  0  0  0  0  0  0  0
    9.0215  -15.6641   23.8401 N   0  0  0  0  0  0  0  0  0  0  0  0
    9.2225  -15.7429   26.2010 C   0  0  0  0  0  0  0  0  0  0  0  0
    9.1330  -17.1012   26.0085 O   0  0  0  0  0  0  0  0  0  0  0  0
    9.3801  -15.2998   27.3529 O   0  0  0  0  0  0  0  0  0  0  0  0
  2  1  1  6
  2  7  1  0
  3  2  1  0
  4  3  1  0
  4  5  1  0
  5  9  1  0
  5  6  2  0
  7  8  2  0
 10 11  1  0
 11 12  2  0
 14 13  1  6
 13 11  1  0
 15 14  1  0
 15  7  1  0
 16 17  2  0
 16 14  1  0
 19 20  1  0
 19 18  1  0
 20 21  1  0
 22 21  1  1
 22 23  1  0
 22 24  1  0
 23 16  1  0
 24 25  1  0
 26 24  2  0
M  END
$$$$
