ENM.pdb
     RDKit          3D

 26 25  0  0  1  0  0  0  0  0999 V2000
    6.4290  -17.4171   23.7870 N   0  0  0  0  0  0  0  0  0  0  0  0
    7.1129  -18.6063   24.1861 C   0  0  1  0  0  0  0  0  0  0  0  0
    6.7859  -19.7182   23.2166 C   0  0  0  0  0  0  0  0  0  0  0  0
    6.8626  -19.1654   21.8202 C   0  0  0  0  0  0  0  0  0  0  0  0
    6.7421  -20.1580   20.7544 C   0  0  0  0  0  0  0  0  0  0  0  0
    6.8159  -19.8439   19.5404 O   0  0  0  0  0  0  0  0  0  0  0  0
    8.5620  -18.3418   24.2632 C   0  0  0  0  0  0  0  0  0  0  0  0
    9.3329  -19.2533   24.6322 O   0  0  0  0  0  0  0  0  0  0  0  0
    6.5393  -21.4961   21.0641 O   0  0  0  0  0  0  0  0  0  0  0  0
   10.2143  -16.3257   20.4691 N   0  0  0  0  0  0  0  0  0  0  0  0
   10.9365  -16.7960   21.6227 C   0  0  0  0  0  0  0  0  0  0  0  0
   11.5214  -17.9040   21.5703 O   0  0  0  0  0  0  0  0  0  0  0  0
   10.9564  -15.9359   22.8409 C   0  0  0  0  0  0  0  0  0  0  0  0
   10.4435  -16.6885   24.0237 C   0  0  2  0  0  0  0  0  0  0  0  0
    9.0430  -17.0527   23.9150 N   0  0  0  0  0  0  0  0  0  0  0  0
   10.7145  -15.9315   25.2706 C   0  0  0  0  0  0  0  0  0  0  0  0
   11.8507  -15.5186   25.6223 O   0  0  0  0  0  0  0  0  0  0  0  0
    5.6786  -12.2436   26.1100 C   0  0  0  0  0  0  0  0  0  0  0  0
    6.9678  -12.0972   27.3759 S   0  0  0  0  0  0  0  0  0  0  0  0
    8.5015  -12.9523   26.8414 C   0  0  0  0  0  0  0  0  0  0  0  0
    8.7074  -14.0906   27.7860 C   0  0  0  0  0  0  0  0  0  0  0  0
    9.8769  -14.9845   27.4346 C   0  0  2  0  0  0  0  0  0  0  0  0
    9.6259  -15.6455   26.1377 N   0  0  0  0  0  0  0  0  0  0  0  0
   10.1093  -16.0495   28.4231 C   0  0  0  0  0  0  0  0  0  0  0  0
   10.6277  -15.7418   29.6587 O   0  0  0  0  0  0  0  0  0  0  0  0
    9.8418  -17.2341   28.1524 O   0  0  0  0  0  0  0  0  0  0  0  0
  2  1  1  6
  2  7  1  0
  3  2  1  0
  4  3  1  0
  4  5  1  0
  5  9  1  0
  5  6  2  0
  7  8  2  0
 10 11  1  0
 11 12  2  0
 14 13  1  6
 13 11  1  0
 15 14  1  0
 15  7  1  0
 16 17  2  0
 16 14  1  0
 19 20  1  0
 19 18  1  0
 20 21  1  0
 22 21  1  1
 22 23  1  0
 22 24  1  0
 23 16  1  0
 24 25  1  0
 26 24  2  0
M  END
$$$$
