ENM.pdb
     RDKit          3D

 26 25  0  0  1  0  0  0  0  0999 V2000
    9.9958  -13.4357   18.9965 N   0  0  0  0  0  0  0  0  0  0  0  0
    8.6068  -13.5344   19.3161 C   0  0  1  0  0  0  0  0  0  0  0  0
    7.8350  -13.9096   18.0724 C   0  0  0  0  0  0  0  0  0  0  0  0
    8.8174  -14.1342   16.9563 C   0  0  0  0  0  0  0  0  0  0  0  0
    8.2430  -14.6750   15.7261 C   0  0  0  0  0  0  0  0  0  0  0  0
    8.0891  -15.9092   15.5496 O   0  0  0  0  0  0  0  0  0  0  0  0
    8.4177  -14.5107   20.4056 C   0  0  0  0  0  0  0  0  0  0  0  0
    7.2679  -14.7223   20.8466 O   0  0  0  0  0  0  0  0  0  0  0  0
    7.8471  -13.8222   14.7047 O   0  0  0  0  0  0  0  0  0  0  0  0
   11.5910  -15.7570   20.4004 N   0  0  0  0  0  0  0  0  0  0  0  0
   11.4150  -17.1022   20.8831 C   0  0  0  0  0  0  0  0  0  0  0  0
   12.2298  -17.9899   20.5358 O   0  0  0  0  0  0  0  0  0  0  0  0
   10.2596  -17.3827   21.7834 C   0  0  0  0  0  0  0  0  0  0  0  0
    9.4590  -16.1436   22.0119 C   0  0  2  0  0  0  0  0  0  0  0  0
    9.5526  -15.1856   20.9259 N   0  0  0  0  0  0  0  0  0  0  0  0
    9.8229  -15.5300   23.3128 C   0  0  0  0  0  0  0  0  0  0  0  0
   10.9220  -15.7045   23.9017 O   0  0  0  0  0  0  0  0  0  0  0  0
    5.5506  -11.3835   27.2628 C   0  0  0  0  0  0  0  0  0  0  0  0
    7.2843  -11.4182   26.7343 S   0  0  0  0  0  0  0  0  0  0  0  0
    7.5005  -12.5330   25.2923 C   0  0  0  0  0  0  0  0  0  0  0  0
    7.5035  -13.9275   25.8270 C   0  0  0  0  0  0  0  0  0  0  0  0
    8.7079  -14.7467   25.4162 C   0  0  2  0  0  0  0  0  0  0  0  0
    8.8753  -14.6846   23.9499 N   0  0  0  0  0  0  0  0  0  0  0  0
    8.5914  -16.1686   25.7767 C   0  0  0  0  0  0  0  0  0  0  0  0
    8.9539  -16.5930   27.0332 O   0  0  0  0  0  0  0  0  0  0  0  0
    8.1669  -16.9982   24.9523 O   0  0  0  0  0  0  0  0  0  0  0  0
  2  1  1  6
  2  7  1  0
  3  2  1  0
  4  3  1  0
  4  5  1  0
  5  9  1  0
  5  6  2  0
  7  8  2  0
 10 11  1  0
 11 12  2  0
 14 13  1  6
 13 11  1  0
 15 14  1  0
 15  7  1  0
 16 17  2  0
 16 14  1  0
 19 20  1  0
 19 18  1  0
 20 21  1  0
 22 21  1  6
 22 23  1  0
 22 24  1  0
 23 16  1  0
 24 25  1  0
 26 24  2  0
M  END
$$$$
