ENM.pdb
     RDKit          3D

 26 25  0  0  1  0  0  0  0  0999 V2000
    9.3758  -19.1700   20.0297 N   0  0  0  0  0  0  0  0  0  0  0  0
   10.6570  -18.5453   19.9316 C   0  0  1  0  0  0  0  0  0  0  0  0
   11.2075  -18.7536   18.5399 C   0  0  0  0  0  0  0  0  0  0  0  0
   10.2059  -19.5495   17.7497 C   0  0  0  0  0  0  0  0  0  0  0  0
   10.6144  -19.8780   16.3856 C   0  0  0  0  0  0  0  0  0  0  0  0
   10.8876  -21.0536   16.0371 O   0  0  0  0  0  0  0  0  0  0  0  0
   10.5385  -17.1159   20.2763 C   0  0  0  0  0  0  0  0  0  0  0  0
   11.5496  -16.3845   20.2148 O   0  0  0  0  0  0  0  0  0  0  0  0
   10.7124  -18.8805   15.4250 O   0  0  0  0  0  0  0  0  0  0  0  0
    7.8782  -12.4806   19.4323 N   0  0  0  0  0  0  0  0  0  0  0  0
    7.6855  -13.2108   20.6583 C   0  0  0  0  0  0  0  0  0  0  0  0
    7.4980  -12.5792   21.7253 O   0  0  0  0  0  0  0  0  0  0  0  0
    7.7182  -14.7008   20.6040 C   0  0  0  0  0  0  0  0  0  0  0  0
    9.0632  -15.2115   21.0024 C   0  0  2  0  0  0  0  0  0  0  0  0
    9.2731  -16.6086   20.6710 N   0  0  0  0  0  0  0  0  0  0  0  0
    9.3052  -14.9508   22.4428 C   0  0  0  0  0  0  0  0  0  0  0  0
   10.2882  -14.3081   22.8965 O   0  0  0  0  0  0  0  0  0  0  0  0
    6.8797  -11.4418   28.0884 C   0  0  0  0  0  0  0  0  0  0  0  0
    7.0550  -12.1515   26.4295 S   0  0  0  0  0  0  0  0  0  0  0  0
    6.7044  -13.9530   26.4545 C   0  0  0  0  0  0  0  0  0  0  0  0
    6.8997  -14.4456   25.0582 C   0  0  0  0  0  0  0  0  0  0  0  0
    8.3164  -14.8755   24.7445 C   0  0  2  0  0  0  0  0  0  0  0  0
    8.3714  -15.4556   23.3872 N   0  0  0  0  0  0  0  0  0  0  0  0
    8.8302  -15.8970   25.6707 C   0  0  0  0  0  0  0  0  0  0  0  0
    9.5713  -15.5233   26.7667 O   0  0  0  0  0  0  0  0  0  0  0  0
    8.6018  -17.1039   25.4724 O   0  0  0  0  0  0  0  0  0  0  0  0
  2  1  1  6
  2  7  1  0
  3  2  1  0
  4  3  1  0
  4  5  1  0
  5  9  1  0
  5  6  2  0
  7  8  2  0
 10 11  1  0
 11 12  2  0
 14 13  1  1
 13 11  1  0
 15 14  1  0
 15  7  1  0
 16 17  2  0
 16 14  1  0
 19 20  1  0
 19 18  1  0
 20 21  1  0
 22 21  1  1
 22 23  1  0
 22 24  1  0
 23 16  1  0
 24 25  1  0
 26 24  2  0
M  END
$$$$
