TDI.pdb
     RDKit          3D

 24 23  0  0  1  0  0  0  0  0999 V2000
   28.2700  -21.5918  -15.1728 C   0  0  0  0  0  0  0  0  0  0  0  0
   28.3788  -20.2950  -15.9177 C   0  0  1  0  0  0  0  0  0  0  0  0
   29.2288  -20.4293  -16.9875 O   0  0  0  0  0  0  0  0  0  0  0  0
   26.9928  -19.8242  -16.3232 C   0  0  2  0  0  0  0  0  0  0  0  0
   27.0526  -18.6423  -17.1377 N   0  0  0  0  0  0  0  0  0  0  0  0
   26.1109  -19.6511  -15.1405 C   0  0  0  0  0  0  0  0  0  0  0  0
   26.2300  -18.6095  -14.4453 O   0  0  0  0  0  0  0  0  0  0  0  0
   25.1313  -20.6030  -14.7451 N   0  0  0  0  0  0  0  0  0  0  0  0
   24.3001  -20.4076  -13.5850 C   0  0  1  0  0  0  0  0  0  0  0  0
   22.9097  -20.9065  -13.8425 C   0  0  0  0  0  0  0  0  0  0  0  0
   22.0218  -20.8199  -12.6778 C   0  0  0  0  0  0  0  0  0  0  0  0
   22.1707  -19.8390  -11.9031 O   0  0  0  0  0  0  0  0  0  0  0  0
   24.9005  -20.9774  -12.3552 C   0  0  0  0  0  0  0  0  0  0  0  0
   25.3191  -22.1623  -12.4059 O   0  0  0  0  0  0  0  0  0  0  0  0
   21.0432  -21.7293  -12.3733 O   0  0  0  0  0  0  0  0  0  0  0  0
   27.9610  -19.6481   -7.2661 C   0  0  0  0  0  0  0  0  0  0  0  0
   26.9934  -20.5972   -7.9318 C   0  0  0  0  0  0  0  0  0  0  0  0
   26.4637  -19.9531   -9.1905 C   0  0  2  0  0  0  0  0  0  0  0  0
   25.6684  -18.7355   -8.7628 C   0  0  0  0  0  0  0  0  0  0  0  0
   25.5273  -20.8539   -9.9501 C   0  0  2  0  0  0  0  0  0  0  0  0
   25.0130  -20.2364  -11.1474 N   0  0  0  0  0  0  0  0  0  0  0  0
   24.3859  -21.1657   -9.0562 C   0  0  0  0  0  0  0  0  0  0  0  0
   24.5341  -21.9162   -8.0387 O   0  0  0  0  0  0  0  0  0  0  0  0
   23.1343  -20.6330   -9.3293 O   0  0  0  0  0  0  0  0  0  0  0  0
  2  1  1  6
  2  4  1  0
  2  3  1  0
  4  5  1  1
  6  8  1  0
  6  4  1  0
  7  6  2  0
  9  8  1  0
  9 13  1  0
  9 10  1  6
 11 15  1  0
 11 10  1  0
 12 11  2  0
 13 21  1  0
 14 13  2  0
 17 16  1  0
 18 17  1  0
 18 19  1  1
 20 18  1  0
 20 22  1  0
 20 21  1  6
 22 23  2  0
 22 24  1  0
M  END
$$$$
