TDI.pdb
     RDKit          3D

 24 23  0  0  1  0  0  0  0  0999 V2000
   13.5912   -9.1492  -14.2918 C   0  0  0  0  0  0  0  0  0  0  0  0
   15.0221   -9.5613  -14.4690 C   0  0  1  0  0  0  0  0  0  0  0  0
   15.1669  -10.9029  -14.2156 O   0  0  0  0  0  0  0  0  0  0  0  0
   15.4950   -9.1707  -15.8585 C   0  0  2  0  0  0  0  0  0  0  0  0
   15.9425  -10.3132  -16.6057 N   0  0  0  0  0  0  0  0  0  0  0  0
   16.5195   -8.0967  -15.8010 C   0  0  0  0  0  0  0  0  0  0  0  0
   17.6000   -8.2584  -16.4245 O   0  0  0  0  0  0  0  0  0  0  0  0
   16.3480   -6.8856  -15.0758 N   0  0  0  0  0  0  0  0  0  0  0  0
   17.2943   -5.8030  -15.1613 C   0  0  1  0  0  0  0  0  0  0  0  0
   16.5922   -4.4810  -15.0744 C   0  0  0  0  0  0  0  0  0  0  0  0
   17.4968   -3.3259  -15.0787 C   0  0  0  0  0  0  0  0  0  0  0  0
   18.4314   -3.3208  -15.9220 O   0  0  0  0  0  0  0  0  0  0  0  0
   18.3986   -5.9369  -14.1813 C   0  0  0  0  0  0  0  0  0  0  0  0
   18.0935   -6.2184  -12.9940 O   0  0  0  0  0  0  0  0  0  0  0  0
   17.3973   -2.2536  -14.2316 O   0  0  0  0  0  0  0  0  0  0  0  0
   23.2549   -9.0038  -13.3805 C   0  0  0  0  0  0  0  0  0  0  0  0
   22.7072   -7.6344  -13.0559 C   0  0  0  0  0  0  0  0  0  0  0  0
   21.5734   -7.3237  -14.0034 C   0  0  2  0  0  0  0  0  0  0  0  0
   22.1922   -7.0616  -15.3622 C   0  0  0  0  0  0  0  0  0  0  0  0
   20.8163   -6.0835  -13.6108 C   0  0  2  0  0  0  0  0  0  0  0  0
   19.7624   -5.7595  -14.5402 N   0  0  0  0  0  0  0  0  0  0  0  0
   21.7834   -4.9595  -13.5884 C   0  0  0  0  0  0  0  0  0  0  0  0
   22.7239   -4.9188  -12.7316 O   0  0  0  0  0  0  0  0  0  0  0  0
   21.6651   -3.9332  -14.5144 O   0  0  0  0  0  0  0  0  0  0  0  0
  2  1  1  6
  2  4  1  0
  2  3  1  0
  4  5  1  1
  6  8  1  0
  6  4  1  0
  7  6  2  0
  9  8  1  0
  9 13  1  0
  9 10  1  1
 11 15  1  0
 11 10  1  0
 12 11  2  0
 13 21  1  0
 14 13  2  0
 17 16  1  0
 18 17  1  0
 18 19  1  6
 20 18  1  0
 20 22  1  0
 20 21  1  6
 22 23  2  0
 22 24  1  0
M  END
$$$$
