TDI.pdb
     RDKit          3D

 24 23  0  0  1  0  0  0  0  0999 V2000
   13.5352  -12.5335  -15.8690 C   0  0  0  0  0  0  0  0  0  0  0  0
   14.7938  -13.1082  -16.4473 C   0  0  1  0  0  0  0  0  0  0  0  0
   14.5609  -14.3692  -16.9378 O   0  0  0  0  0  0  0  0  0  0  0  0
   15.3487  -12.1617  -17.4976 C   0  0  2  0  0  0  0  0  0  0  0  0
   15.9297  -12.8766  -18.6000 N   0  0  0  0  0  0  0  0  0  0  0  0
   16.2912  -11.1810  -16.9006 C   0  0  0  0  0  0  0  0  0  0  0  0
   15.9565  -10.5883  -15.8428 O   0  0  0  0  0  0  0  0  0  0  0  0
   17.5610  -10.8708  -17.4605 N   0  0  0  0  0  0  0  0  0  0  0  0
   18.4499   -9.9127  -16.8549 C   0  0  1  0  0  0  0  0  0  0  0  0
   19.8780  -10.3354  -17.0280 C   0  0  0  0  0  0  0  0  0  0  0  0
   20.2313  -11.5532  -16.2899 C   0  0  0  0  0  0  0  0  0  0  0  0
   20.5914  -12.5566  -16.9593 O   0  0  0  0  0  0  0  0  0  0  0  0
   18.1955   -8.5291  -17.3227 C   0  0  0  0  0  0  0  0  0  0  0  0
   18.1983   -8.3235  -18.5635 O   0  0  0  0  0  0  0  0  0  0  0  0
   20.1973  -11.6762  -14.9257 O   0  0  0  0  0  0  0  0  0  0  0  0
   15.3643   -4.1055  -18.1995 C   0  0  0  0  0  0  0  0  0  0  0  0
   16.0262   -4.2219  -16.8472 C   0  0  0  0  0  0  0  0  0  0  0  0
   16.2620   -5.6817  -16.5418 C   0  0  2  0  0  0  0  0  0  0  0  0
   16.1332   -5.8453  -15.0402 C   0  0  0  0  0  0  0  0  0  0  0  0
   17.6454   -6.1353  -16.9234 C   0  0  2  0  0  0  0  0  0  0  0  0
   17.9540   -7.4531  -16.4259 N   0  0  0  0  0  0  0  0  0  0  0  0
   18.6082   -5.1742  -16.3332 C   0  0  0  0  0  0  0  0  0  0  0  0
   19.1643   -5.4062  -15.2118 O   0  0  0  0  0  0  0  0  0  0  0  0
   18.9110   -4.0019  -17.0104 O   0  0  0  0  0  0  0  0  0  0  0  0
  2  1  1  6
  2  4  1  0
  2  3  1  0
  4  5  1  6
  6  8  1  0
  6  4  1  0
  7  6  2  0
  9  8  1  0
  9 13  1  0
  9 10  1  6
 11 15  1  0
 11 10  1  0
 12 11  2  0
 13 21  1  0
 14 13  2  0
 17 16  1  0
 18 17  1  0
 18 19  1  1
 20 18  1  0
 20 22  1  0
 20 21  1  1
 22 23  2  0
 22 24  1  0
M  END
$$$$
