TDI.pdb
     RDKit          3D

 24 23  0  0  1  0  0  0  0  0999 V2000
   13.8052  -12.3294  -16.1804 C   0  0  0  0  0  0  0  0  0  0  0  0
   15.1464  -11.6625  -16.2506 C   0  0  1  0  0  0  0  0  0  0  0  0
   15.7395  -11.6524  -15.0124 O   0  0  0  0  0  0  0  0  0  0  0  0
   15.9991  -12.3459  -17.3056 C   0  0  2  0  0  0  0  0  0  0  0  0
   16.1325  -13.7529  -17.0480 N   0  0  0  0  0  0  0  0  0  0  0  0
   17.3141  -11.6727  -17.4601 C   0  0  0  0  0  0  0  0  0  0  0  0
   18.3600  -12.3251  -17.2094 O   0  0  0  0  0  0  0  0  0  0  0  0
   17.4604  -10.3216  -17.8787 N   0  0  0  0  0  0  0  0  0  0  0  0
   18.7525   -9.7005  -18.0187 C   0  0  1  0  0  0  0  0  0  0  0  0
   18.7697   -8.7801  -19.2022 C   0  0  0  0  0  0  0  0  0  0  0  0
   20.0510   -8.0945  -19.4038 C   0  0  0  0  0  0  0  0  0  0  0  0
   21.0908   -8.8028  -19.4453 O   0  0  0  0  0  0  0  0  0  0  0  0
   19.2039   -9.0436  -16.7686 C   0  0  0  0  0  0  0  0  0  0  0  0
   18.3736   -8.3256  -16.1547 O   0  0  0  0  0  0  0  0  0  0  0  0
   20.1967   -6.7399  -19.5499 O   0  0  0  0  0  0  0  0  0  0  0  0
   24.2005  -10.4553  -14.4431 C   0  0  0  0  0  0  0  0  0  0  0  0
   23.2044   -9.5783  -15.1634 C   0  0  0  0  0  0  0  0  0  0  0  0
   21.9785   -9.4165  -14.2969 C   0  0  2  0  0  0  0  0  0  0  0  0
   21.4393  -10.8079  -14.0299 C   0  0  0  0  0  0  0  0  0  0  0  0
   20.8867   -8.6382  -14.9807 C   0  0  2  0  0  0  0  0  0  0  0  0
   20.5209   -9.2004  -16.2573 N   0  0  0  0  0  0  0  0  0  0  0  0
   21.3922   -7.2619  -15.2024 C   0  0  0  0  0  0  0  0  0  0  0  0
   21.6072   -6.8221  -16.3775 O   0  0  0  0  0  0  0  0  0  0  0  0
   21.6363   -6.4364  -14.1144 O   0  0  0  0  0  0  0  0  0  0  0  0
  2  1  1  1
  2  4  1  0
  2  3  1  0
  4  5  1  1
  6  8  1  0
  6  4  1  0
  7  6  2  0
  9  8  1  0
  9 13  1  0
  9 10  1  6
 11 15  1  0
 11 10  1  0
 12 11  2  0
 13 21  1  0
 14 13  2  0
 17 16  1  0
 18 17  1  0
 18 19  1  6
 20 18  1  0
 20 22  1  0
 20 21  1  6
 22 23  2  0
 22 24  1  0
M  END
$$$$
