TDI.pdb
     RDKit          3D

 24 23  0  0  1  0  0  0  0  0999 V2000
   16.5142  -10.5405   -9.9559 C   0  0  0  0  0  0  0  0  0  0  0  0
   15.0444  -10.4703  -10.2446 C   0  0  1  0  0  0  0  0  0  0  0  0
   14.4228  -11.6251   -9.8383 O   0  0  0  0  0  0  0  0  0  0  0  0
   14.4582   -9.2277   -9.5969 C   0  0  2  0  0  0  0  0  0  0  0  0
   13.0278   -9.1891   -9.7246 N   0  0  0  0  0  0  0  0  0  0  0  0
   15.1047   -7.9924  -10.1095 C   0  0  0  0  0  0  0  0  0  0  0  0
   14.8720   -7.6353  -11.2930 O   0  0  0  0  0  0  0  0  0  0  0  0
   15.9789   -7.1832   -9.3329 N   0  0  0  0  0  0  0  0  0  0  0  0
   16.6444   -6.0305   -9.8837 C   0  0  1  0  0  0  0  0  0  0  0  0
   16.3942   -4.8210   -9.0337 C   0  0  0  0  0  0  0  0  0  0  0  0
   17.0504   -3.6038   -9.5237 C   0  0  0  0  0  0  0  0  0  0  0  0
   17.1648   -3.4646  -10.7695 O   0  0  0  0  0  0  0  0  0  0  0  0
   18.0853   -6.2738  -10.1337 C   0  0  0  0  0  0  0  0  0  0  0  0
   18.8242   -6.4751   -9.1360 O   0  0  0  0  0  0  0  0  0  0  0  0
   17.5471   -2.6088   -8.7233 O   0  0  0  0  0  0  0  0  0  0  0  0
   22.1814   -8.9975  -11.8801 C   0  0  0  0  0  0  0  0  0  0  0  0
   21.7552   -7.9268  -12.8560 C   0  0  0  0  0  0  0  0  0  0  0  0
   20.2865   -7.6390  -12.6560 C   0  0  2  0  0  0  0  0  0  0  0  0
   19.7483   -7.1446  -13.9841 C   0  0  0  0  0  0  0  0  0  0  0  0
   20.0438   -6.5522  -11.6434 C   0  0  2  0  0  0  0  0  0  0  0  0
   18.6411   -6.2852  -11.4418 N   0  0  0  0  0  0  0  0  0  0  0  0
   20.6876   -5.3171  -12.1523 C   0  0  0  0  0  0  0  0  0  0  0  0
   21.9531   -5.1807  -12.1348 O   0  0  0  0  0  0  0  0  0  0  0  0
   19.9020   -4.2908  -12.6565 O   0  0  0  0  0  0  0  0  0  0  0  0
  2  1  1  1
  2  4  1  0
  2  3  1  0
  4  5  1  6
  6  8  1  0
  6  4  1  0
  7  6  2  0
  9  8  1  0
  9 13  1  0
  9 10  1  1
 11 15  1  0
 11 10  1  0
 12 11  2  0
 13 21  1  0
 14 13  2  0
 17 16  1  0
 18 17  1  0
 18 19  1  6
 20 18  1  0
 20 22  1  0
 20 21  1  6
 22 23  2  0
 22 24  1  0
M  END
$$$$
