TDI.pdb
     RDKit          3D

 24 23  0  0  1  0  0  0  0  0999 V2000
   16.3517  -20.5231  -13.5323 C   0  0  0  0  0  0  0  0  0  0  0  0
   17.5647  -21.2164  -14.0770 C   0  0  1  0  0  0  0  0  0  0  0  0
   17.4072  -21.4707  -15.4170 O   0  0  0  0  0  0  0  0  0  0  0  0
   18.8014  -20.3872  -13.7771 C   0  0  2  0  0  0  0  0  0  0  0  0
   18.7632  -19.1180  -14.4489 N   0  0  0  0  0  0  0  0  0  0  0  0
   20.0459  -21.1438  -14.0691 C   0  0  0  0  0  0  0  0  0  0  0  0
   20.2540  -22.2234  -13.4580 O   0  0  0  0  0  0  0  0  0  0  0  0
   21.0241  -20.7145  -15.0077 N   0  0  0  0  0  0  0  0  0  0  0  0
   22.2690  -21.4161  -15.1891 C   0  0  1  0  0  0  0  0  0  0  0  0
   22.4952  -21.7223  -16.6393 C   0  0  0  0  0  0  0  0  0  0  0  0
   23.7877  -22.3582  -16.9182 C   0  0  0  0  0  0  0  0  0  0  0  0
   24.6932  -21.6421  -17.4199 O   0  0  0  0  0  0  0  0  0  0  0  0
   23.4128  -20.7122  -14.5613 C   0  0  0  0  0  0  0  0  0  0  0  0
   23.4601  -19.4605  -14.6743 O   0  0  0  0  0  0  0  0  0  0  0  0
   24.0792  -23.6741  -16.6719 O   0  0  0  0  0  0  0  0  0  0  0  0
   25.2002  -21.1985   -9.5229 C   0  0  0  0  0  0  0  0  0  0  0  0
   24.8056  -20.7098  -10.8961 C   0  0  0  0  0  0  0  0  0  0  0  0
   25.8723  -21.1149  -11.8849 C   0  0  2  0  0  0  0  0  0  0  0  0
   27.1474  -20.4050  -11.4749 C   0  0  0  0  0  0  0  0  0  0  0  0
   25.5518  -20.6811  -13.2901 C   0  0  2  0  0  0  0  0  0  0  0  0
   24.4344  -21.3995  -13.8511 N   0  0  0  0  0  0  0  0  0  0  0  0
   26.7483  -20.9507  -14.1236 C   0  0  0  0  0  0  0  0  0  0  0  0
   27.0442  -22.1349  -14.4848 O   0  0  0  0  0  0  0  0  0  0  0  0
   27.5613  -19.8982  -14.5186 O   0  0  0  0  0  0  0  0  0  0  0  0
  2  1  1  6
  2  4  1  0
  2  3  1  0
  4  5  1  6
  6  8  1  0
  6  4  1  0
  7  6  2  0
  9  8  1  0
  9 13  1  0
  9 10  1  6
 11 15  1  0
 11 10  1  0
 12 11  2  0
 13 21  1  0
 14 13  2  0
 17 16  1  0
 18 17  1  0
 18 19  1  1
 20 18  1  0
 20 22  1  0
 20 21  1  6
 22 23  2  0
 22 24  1  0
M  END
$$$$
