TDI.pdb
     RDKit          3D

 24 23  0  0  1  0  0  0  0  0999 V2000
   14.0393  -11.4687  -16.1553 C   0  0  0  0  0  0  0  0  0  0  0  0
   14.3551  -10.6656  -14.9290 C   0  0  1  0  0  0  0  0  0  0  0  0
   13.4153  -10.8937  -13.9544 O   0  0  0  0  0  0  0  0  0  0  0  0
   15.7683  -10.9770  -14.4677 C   0  0  2  0  0  0  0  0  0  0  0  0
   15.9055  -12.3517  -14.0737 N   0  0  0  0  0  0  0  0  0  0  0  0
   16.2117  -10.0380  -13.4055 C   0  0  0  0  0  0  0  0  0  0  0  0
   16.2606  -10.4490  -12.2177 O   0  0  0  0  0  0  0  0  0  0  0  0
   16.5874   -8.6896  -13.6560 N   0  0  0  0  0  0  0  0  0  0  0  0
   17.0542   -7.8189  -12.6077 C   0  0  1  0  0  0  0  0  0  0  0  0
   18.0385   -6.8248  -13.1472 C   0  0  0  0  0  0  0  0  0  0  0  0
   19.3114   -7.4185  -13.5712 C   0  0  0  0  0  0  0  0  0  0  0  0
   19.9815   -8.0401  -12.7057 O   0  0  0  0  0  0  0  0  0  0  0  0
   15.9419   -7.1845  -11.8606 C   0  0  0  0  0  0  0  0  0  0  0  0
   15.0195   -6.6519  -12.5295 O   0  0  0  0  0  0  0  0  0  0  0  0
   19.8225   -7.3447  -14.8404 O   0  0  0  0  0  0  0  0  0  0  0  0
   11.9993   -7.1832   -8.2401 C   0  0  0  0  0  0  0  0  0  0  0  0
   13.2843   -6.5580   -7.7519 C   0  0  0  0  0  0  0  0  0  0  0  0
   14.4466   -7.2123   -8.4595 C   0  0  2  0  0  0  0  0  0  0  0  0
   15.6483   -7.0875   -7.5439 C   0  0  0  0  0  0  0  0  0  0  0  0
   14.7967   -6.5252   -9.7520 C   0  0  2  0  0  0  0  0  0  0  0  0
   15.8918   -7.1628  -10.4403 N   0  0  0  0  0  0  0  0  0  0  0  0
   15.1953   -5.1350   -9.4239 C   0  0  0  0  0  0  0  0  0  0  0  0
   14.3259   -4.2575   -9.1161 O   0  0  0  0  0  0  0  0  0  0  0  0
   16.5362   -4.7803   -9.4515 O   0  0  0  0  0  0  0  0  0  0  0  0
  2  1  1  6
  2  4  1  0
  2  3  1  0
  4  5  1  1
  6  8  1  0
  6  4  1  0
  7  6  2  0
  9  8  1  0
  9 13  1  0
  9 10  1  6
 11 15  1  0
 11 10  1  0
 12 11  2  0
 13 21  1  0
 14 13  2  0
 17 16  1  0
 18 17  1  0
 18 19  1  1
 20 18  1  0
 20 22  1  0
 20 21  1  1
 22 23  2  0
 22 24  1  0
M  END
$$$$
