TDI.pdb
     RDKit          3D

 24 23  0  0  1  0  0  0  0  0999 V2000
   18.0994   -8.4276  -20.1122 C   0  0  0  0  0  0  0  0  0  0  0  0
   17.2546   -7.4234  -20.8377 C   0  0  1  0  0  0  0  0  0  0  0  0
   16.7562   -7.9671  -21.9957 O   0  0  0  0  0  0  0  0  0  0  0  0
   16.1648   -6.9123  -19.9113 C   0  0  2  0  0  0  0  0  0  0  0  0
   15.2949   -5.9844  -20.5790 N   0  0  0  0  0  0  0  0  0  0  0  0
   16.7355   -6.3513  -18.6598 C   0  0  0  0  0  0  0  0  0  0  0  0
   16.9416   -5.1122  -18.5922 O   0  0  0  0  0  0  0  0  0  0  0  0
   17.0651   -7.1407  -17.5239 N   0  0  0  0  0  0  0  0  0  0  0  0
   17.5310   -6.5533  -16.2940 C   0  0  1  0  0  0  0  0  0  0  0  0
   16.6315   -6.9310  -15.1554 C   0  0  0  0  0  0  0  0  0  0  0  0
   17.0600   -6.3981  -13.8573 C   0  0  0  0  0  0  0  0  0  0  0  0
   17.4852   -5.2138  -13.8250 O   0  0  0  0  0  0  0  0  0  0  0  0
   18.9582   -6.8532  -16.0277 C   0  0  0  0  0  0  0  0  0  0  0  0
   19.3290   -8.0515  -16.1195 O   0  0  0  0  0  0  0  0  0  0  0  0
   17.0304   -7.0966  -12.6788 O   0  0  0  0  0  0  0  0  0  0  0  0
   24.1255   -5.8015  -16.6133 C   0  0  0  0  0  0  0  0  0  0  0  0
   23.6283   -5.2879  -15.2832 C   0  0  0  0  0  0  0  0  0  0  0  0
   22.1629   -4.9460  -15.4074 C   0  0  2  0  0  0  0  0  0  0  0  0
   21.7745   -4.2010  -14.1456 C   0  0  0  0  0  0  0  0  0  0  0  0
   21.2897   -6.1691  -15.4905 C   0  0  2  0  0  0  0  0  0  0  0  0
   19.8973   -5.8448  -15.6792 N   0  0  0  0  0  0  0  0  0  0  0  0
   21.4301   -6.9047  -14.2106 C   0  0  0  0  0  0  0  0  0  0  0  0
   20.5856   -6.7541  -13.2700 O   0  0  0  0  0  0  0  0  0  0  0  0
   22.4977   -7.7723  -14.0307 O   0  0  0  0  0  0  0  0  0  0  0  0
  2  1  1  1
  2  4  1  0
  2  3  1  0
  4  5  1  6
  6  8  1  0
  6  4  1  0
  7  6  2  0
  9  8  1  0
  9 13  1  0
  9 10  1  1
 11 15  1  0
 11 10  1  0
 12 11  2  0
 13 21  1  0
 14 13  2  0
 17 16  1  0
 18 17  1  0
 18 19  1  1
 20 18  1  0
 20 22  1  0
 20 21  1  1
 22 23  2  0
 22 24  1  0
M  END
$$$$
