GEP.pdb
     RDKit          3D

 21 21  0  0  1  0  0  0  0  0999 V2000
    3.0980  -19.7041   21.4096 N   0  0  0  0  0  0  0  0  0  0  0  0
    4.5477  -19.5249   21.4848 C   0  0  0  0  0  0  0  0  0  0  0  0
    4.8941  -18.8272   22.7523 C   0  0  0  0  0  0  0  0  0  0  0  0
    4.0610  -18.1239   23.3890 O   0  0  0  0  0  0  0  0  0  0  0  0
    6.2059  -18.9628   23.2535 N   0  0  0  0  0  0  0  0  0  0  0  0
    6.7231  -18.2181   24.3870 C   0  0  1  0  0  0  0  0  0  0  0  0
    7.1717  -19.2387   25.3922 C   0  0  0  0  0  0  0  0  0  0  0  0
    7.5844  -18.4816   26.6410 C   0  0  0  0  0  0  0  0  0  0  0  0
    8.3341  -19.3128   27.5837 C   0  0  0  0  0  0  0  0  0  0  0  0
    8.1509  -19.2409   28.8203 O   0  0  0  0  0  0  0  0  0  0  0  0
    7.8111  -17.3314   23.9047 C   0  0  0  0  0  0  0  0  0  0  0  0
    8.8311  -17.9521   23.5330 O   0  0  0  0  0  0  0  0  0  0  0  0
    9.2800  -20.2133   27.1181 O   0  0  0  0  0  0  0  0  0  0  0  0
    7.7453  -15.9429   23.8532 N   0  0  0  0  0  0  0  0  0  0  0  0
    6.5389  -15.0953   23.7232 C   0  0  0  0  0  0  0  0  0  0  0  0
    6.7575  -14.1342   24.8707 C   0  0  0  0  0  0  0  0  0  0  0  0
    8.2720  -14.1498   25.1421 C   0  0  0  0  0  0  0  0  0  0  0  0
    8.7379  -14.9287   23.9051 C   0  0  1  0  0  0  0  0  0  0  0  0
   10.1316  -15.1920   23.8734 C   0  0  0  0  0  0  0  0  0  0  0  0
   10.5670  -16.2074   24.5311 O   0  0  0  0  0  0  0  0  0  0  0  0
   11.0842  -14.4839   23.2188 O   0  0  0  0  0  0  0  0  0  0  0  0
  2  1  1  0
  3  2  1  0
  4  3  2  0
  5  3  1  0
  6  5  1  0
  6 11  1  0
  6  7  1  1
  8  7  1  0
  9  8  1  0
 10  9  2  0
 11 12  2  0
 13  9  1  0
 14 11  1  0
 14 18  1  0
 15 14  1  0
 16 15  1  0
 16 17  1  0
 17 18  1  0
 18 19  1  1
 19 20  2  0
 19 21  1  0
M  END
$$$$
