GEP.pdb
     RDKit          3D

 21 21  0  0  1  0  0  0  0  0999 V2000
    7.9471  -12.9571   18.5474 N   0  0  0  0  0  0  0  0  0  0  0  0
    8.7053  -13.3491   19.7353 C   0  0  0  0  0  0  0  0  0  0  0  0
    7.7622  -13.7650   20.8081 C   0  0  0  0  0  0  0  0  0  0  0  0
    6.5587  -14.0664   20.5741 O   0  0  0  0  0  0  0  0  0  0  0  0
    8.2406  -13.8216   22.1342 N   0  0  0  0  0  0  0  0  0  0  0  0
    7.4741  -14.3399   23.2526 C   0  0  1  0  0  0  0  0  0  0  0  0
    7.2179  -15.7882   22.9525 C   0  0  0  0  0  0  0  0  0  0  0  0
    8.4147  -16.2990   22.1716 C   0  0  0  0  0  0  0  0  0  0  0  0
    9.0020  -17.5028   22.7612 C   0  0  0  0  0  0  0  0  0  0  0  0
    8.9632  -17.7230   23.9931 O   0  0  0  0  0  0  0  0  0  0  0  0
    8.2520  -14.1124   24.4958 C   0  0  0  0  0  0  0  0  0  0  0  0
    9.2573  -14.8496   24.5959 O   0  0  0  0  0  0  0  0  0  0  0  0
    9.6248  -18.4413   21.9525 O   0  0  0  0  0  0  0  0  0  0  0  0
    7.9315  -13.1819   25.4789 N   0  0  0  0  0  0  0  0  0  0  0  0
    7.3939  -11.8152   25.2946 C   0  0  0  0  0  0  0  0  0  0  0  0
    6.2093  -11.8607   26.2342 C   0  0  0  0  0  0  0  0  0  0  0  0
    6.5288  -12.9703   27.2512 C   0  0  0  0  0  0  0  0  0  0  0  0
    8.0012  -13.2154   26.8968 C   0  0  1  0  0  0  0  0  0  0  0  0
    8.6088  -14.2684   27.6282 C   0  0  0  0  0  0  0  0  0  0  0  0
    8.4015  -15.4738   27.2317 O   0  0  0  0  0  0  0  0  0  0  0  0
    9.3999  -14.1549   28.7229 O   0  0  0  0  0  0  0  0  0  0  0  0
  2  1  1  0
  3  2  1  0
  4  3  2  0
  5  3  1  0
  6  5  1  0
  6 11  1  0
  6  7  1  6
  8  7  1  0
  9  8  1  0
 10  9  2  0
 11 12  2  0
 13  9  1  0
 14 11  1  0
 14 18  1  0
 15 14  1  0
 16 15  1  0
 16 17  1  0
 17 18  1  0
 18 19  1  6
 19 20  2  0
 19 21  1  0
M  END
$$$$
