GEP.pdb
     RDKit          3D

 21 21  0  0  1  0  0  0  0  0999 V2000
    3.9220  -18.7097   21.8684 N   0  0  0  0  0  0  0  0  0  0  0  0
    5.2932  -18.9205   22.3320 C   0  0  0  0  0  0  0  0  0  0  0  0
    5.5286  -18.1146   23.5602 C   0  0  0  0  0  0  0  0  0  0  0  0
    4.6716  -17.3077   24.0168 O   0  0  0  0  0  0  0  0  0  0  0  0
    6.7596  -18.2650   24.2331 N   0  0  0  0  0  0  0  0  0  0  0  0
    7.1585  -17.4739   25.3828 C   0  0  1  0  0  0  0  0  0  0  0  0
    8.0067  -18.3704   26.2371 C   0  0  0  0  0  0  0  0  0  0  0  0
    8.3161  -17.6075   27.5119 C   0  0  0  0  0  0  0  0  0  0  0  0
    9.3001  -18.2893   28.3538 C   0  0  0  0  0  0  0  0  0  0  0  0
    9.5883  -17.8780   29.5007 O   0  0  0  0  0  0  0  0  0  0  0  0
    7.8663  -16.2647   24.8933 C   0  0  0  0  0  0  0  0  0  0  0  0
    8.9280  -16.5217   24.2846 O   0  0  0  0  0  0  0  0  0  0  0  0
    9.9451  -19.4256   27.8897 O   0  0  0  0  0  0  0  0  0  0  0  0
    7.4280  -14.9566   25.0711 N   0  0  0  0  0  0  0  0  0  0  0  0
    6.0345  -14.4767   25.2086 C   0  0  0  0  0  0  0  0  0  0  0  0
    6.1577  -13.6421   26.4642 C   0  0  0  0  0  0  0  0  0  0  0  0
    7.6450  -13.2608   26.5648 C   0  0  0  0  0  0  0  0  0  0  0  0
    8.1126  -13.7169   25.1765 C   0  0  1  0  0  0  0  0  0  0  0  0
    9.5057  -13.5681   24.9532 C   0  0  0  0  0  0  0  0  0  0  0  0
   10.2791  -14.5293   25.3157 O   0  0  0  0  0  0  0  0  0  0  0  0
   10.1364  -12.5080   24.3915 O   0  0  0  0  0  0  0  0  0  0  0  0
  2  1  1  0
  3  2  1  0
  4  3  2  0
  5  3  1  0
  6  5  1  0
  6 11  1  0
  6  7  1  1
  8  7  1  0
  9  8  1  0
 10  9  2  0
 11 12  2  0
 13  9  1  0
 14 11  1  0
 14 18  1  0
 15 14  1  0
 16 15  1  0
 16 17  1  0
 17 18  1  0
 18 19  1  1
 19 20  2  0
 19 21  1  0
M  END
$$$$
