GEP.pdb
     RDKit          3D

 21 21  0  0  1  0  0  0  0  0999 V2000
    6.8134  -13.0788   17.5256 N   0  0  0  0  0  0  0  0  0  0  0  0
    8.0858  -12.6581   18.1115 C   0  0  0  0  0  0  0  0  0  0  0  0
    8.8376  -13.8565   18.5720 C   0  0  0  0  0  0  0  0  0  0  0  0
    8.4347  -15.0337   18.3580 O   0  0  0  0  0  0  0  0  0  0  0  0
   10.0456  -13.6593   19.2738 N   0  0  0  0  0  0  0  0  0  0  0  0
   10.9026  -14.7366   19.7339 C   0  0  1  0  0  0  0  0  0  0  0  0
   12.2643  -14.4645   19.1638 C   0  0  0  0  0  0  0  0  0  0  0  0
   13.1152  -15.6903   19.4401 C   0  0  0  0  0  0  0  0  0  0  0  0
   14.4909  -15.5421   18.9635 C   0  0  0  0  0  0  0  0  0  0  0  0
   15.3809  -15.0099   19.6653 O   0  0  0  0  0  0  0  0  0  0  0  0
   10.8660  -14.7598   21.2174 C   0  0  0  0  0  0  0  0  0  0  0  0
   11.8337  -14.1719   21.7484 O   0  0  0  0  0  0  0  0  0  0  0  0
   14.8433  -15.9966   17.7018 O   0  0  0  0  0  0  0  0  0  0  0  0
    9.8729  -15.3632   21.9820 N   0  0  0  0  0  0  0  0  0  0  0  0
    8.4108  -15.3399   21.7531 C   0  0  0  0  0  0  0  0  0  0  0  0
    8.1002  -16.8182   21.8321 C   0  0  0  0  0  0  0  0  0  0  0  0
    9.2447  -17.4394   22.6515 C   0  0  0  0  0  0  0  0  0  0  0  0
    9.9115  -16.1548   23.1603 C   0  0  1  0  0  0  0  0  0  0  0  0
   11.0885  -16.3718   23.9221 C   0  0  0  0  0  0  0  0  0  0  0  0
   12.1862  -16.5822   23.2863 O   0  0  0  0  0  0  0  0  0  0  0  0
   11.1988  -16.3863   25.2729 O   0  0  0  0  0  0  0  0  0  0  0  0
  2  1  1  0
  3  2  1  0
  4  3  2  0
  5  3  1  0
  6  5  1  0
  6 11  1  0
  6  7  1  1
  8  7  1  0
  9  8  1  0
 10  9  2  0
 11 12  2  0
 13  9  1  0
 14 11  1  0
 14 18  1  0
 15 14  1  0
 16 15  1  0
 16 17  1  0
 17 18  1  0
 18 19  1  6
 19 20  2  0
 19 21  1  0
M  END
$$$$
