GEP.pdb
     RDKit          3D

 21 21  0  0  1  0  0  0  0  0999 V2000
    7.8569  -12.4628   18.9956 N   0  0  0  0  0  0  0  0  0  0  0  0
    8.6263  -13.3100   19.9064 C   0  0  0  0  0  0  0  0  0  0  0  0
    7.7665  -13.7116   21.0522 C   0  0  0  0  0  0  0  0  0  0  0  0
    6.5327  -13.4480   21.0995 O   0  0  0  0  0  0  0  0  0  0  0  0
    8.3620  -14.4134   22.1215 N   0  0  0  0  0  0  0  0  0  0  0  0
    7.6340  -14.8996   23.2793 C   0  0  1  0  0  0  0  0  0  0  0  0
    7.5074  -16.3850   23.1039 C   0  0  0  0  0  0  0  0  0  0  0  0
    6.6733  -16.9002   24.2623 C   0  0  0  0  0  0  0  0  0  0  0  0
    6.6481  -18.3616   24.3344 C   0  0  0  0  0  0  0  0  0  0  0  0
    5.8219  -18.9750   25.0478 O   0  0  0  0  0  0  0  0  0  0  0  0
    8.3784  -14.5000   24.4994 C   0  0  0  0  0  0  0  0  0  0  0  0
    9.3941  -15.1975   24.7135 O   0  0  0  0  0  0  0  0  0  0  0  0
    7.5554  -19.1106   23.6005 O   0  0  0  0  0  0  0  0  0  0  0  0
    8.0184  -13.4590   25.3489 N   0  0  0  0  0  0  0  0  0  0  0  0
    7.4604  -12.1384   24.9808 C   0  0  0  0  0  0  0  0  0  0  0  0
    6.2555  -12.0890   25.8940 C   0  0  0  0  0  0  0  0  0  0  0  0
    6.5715  -13.0534   27.0505 C   0  0  0  0  0  0  0  0  0  0  0  0
    8.0559  -13.3106   26.7607 C   0  0  1  0  0  0  0  0  0  0  0  0
    8.6656  -14.2491   27.6327 C   0  0  0  0  0  0  0  0  0  0  0  0
    8.3155  -15.4820   27.5291 O   0  0  0  0  0  0  0  0  0  0  0  0
    9.5943  -13.9969   28.5871 O   0  0  0  0  0  0  0  0  0  0  0  0
  2  1  1  0
  3  2  1  0
  4  3  2  0
  5  3  1  0
  6  5  1  0
  6 11  1  0
  6  7  1  6
  8  7  1  0
  9  8  1  0
 10  9  2  0
 11 12  2  0
 13  9  1  0
 14 11  1  0
 14 18  1  0
 15 14  1  0
 16 15  1  0
 16 17  1  0
 17 18  1  0
 18 19  1  1
 19 20  2  0
 19 21  1  0
M  END
$$$$
