PMG.pdb
     RDKit          3D

 20 20  0  0  1  0  0  0  0  0999 V2000
   26.6010  -17.9924  -14.3118 N   0  0  0  0  0  0  0  0  0  0  0  0
   27.3942  -17.0637  -15.0916 C   0  0  0  0  0  0  0  0  0  0  0  0
   28.5017  -17.8518  -15.7587 C   0  0  0  0  0  0  0  0  0  0  0  0
   28.4622  -19.1487  -14.9492 C   0  0  0  0  0  0  0  0  0  0  0  0
   26.9534  -19.2849  -14.8139 C   0  0  1  0  0  0  0  0  0  0  0  0
   26.5623  -20.3984  -13.9533 C   0  0  0  0  0  0  0  0  0  0  0  0
   26.7661  -21.5781  -14.3378 O   0  0  0  0  0  0  0  0  0  0  0  0
   27.3710  -19.6314   -7.9482 C   0  0  0  0  0  0  0  0  0  0  0  0
   28.3653  -20.8667   -8.8602 S   0  0  0  0  0  0  0  0  0  0  0  0
   27.6270  -21.0758  -10.4924 C   0  0  0  0  0  0  0  0  0  0  0  0
   26.1285  -21.0029  -10.4535 C   0  0  0  0  0  0  0  0  0  0  0  0
   25.5027  -21.2119  -11.8143 C   0  0  2  0  0  0  0  0  0  0  0  0
   25.9637  -20.1752  -12.7065 N   0  0  0  0  0  0  0  0  0  0  0  0
   24.0164  -21.0773  -11.6699 C   0  0  0  0  0  0  0  0  0  0  0  0
   23.3861  -21.7619  -10.8330 O   0  0  0  0  0  0  0  0  0  0  0  0
   23.2620  -20.1783  -12.4654 N   0  0  0  0  0  0  0  0  0  0  0  0
   21.8167  -20.0859  -12.3842 C   0  0  0  0  0  0  0  0  0  0  0  0
   21.1591  -20.8133  -13.4931 C   0  0  0  0  0  0  0  0  0  0  0  0
   21.8582  -21.4766  -14.2746 O   0  0  0  0  0  0  0  0  0  0  0  0
   19.7844  -20.8005  -13.7185 O   0  0  0  0  0  0  0  0  0  0  0  0
  1  2  1  0
  3  2  1  0
  4  5  1  0
  4  3  1  0
  5  6  1  1
  5  1  1  0
  6  7  2  0
  9  8  1  0
  9 10  1  0
 10 11  1  0
 12 11  1  1
 12 14  1  0
 13 12  1  0
 13  6  1  0
 14 15  2  0
 14 16  1  0
 16 17  1  0
 18 20  1  0
 18 17  1  0
 19 18  2  0
M  END
$$$$
