PMG.pdb
     RDKit          3D

 20 20  0  0  1  0  0  0  0  0999 V2000
   27.2456  -19.0274  -14.4871 N   0  0  0  0  0  0  0  0  0  0  0  0
   28.3097  -18.5747  -15.3604 C   0  0  0  0  0  0  0  0  0  0  0  0
   29.1839  -19.7694  -15.6781 C   0  0  0  0  0  0  0  0  0  0  0  0
   28.7363  -20.7519  -14.5951 C   0  0  0  0  0  0  0  0  0  0  0  0
   27.2454  -20.4519  -14.6200 C   0  0  1  0  0  0  0  0  0  0  0  0
   26.5100  -21.1595  -13.5749 C   0  0  0  0  0  0  0  0  0  0  0  0
   26.4017  -22.4107  -13.6343 O   0  0  0  0  0  0  0  0  0  0  0  0
   28.1907  -20.1788   -7.4531 C   0  0  0  0  0  0  0  0  0  0  0  0
   26.4180  -20.1282   -7.9015 S   0  0  0  0  0  0  0  0  0  0  0  0
   26.2342  -20.9011   -9.5206 C   0  0  0  0  0  0  0  0  0  0  0  0
   25.0434  -20.3785  -10.2697 C   0  0  0  0  0  0  0  0  0  0  0  0
   24.9007  -21.0029  -11.6396 C   0  0  2  0  0  0  0  0  0  0  0  0
   25.9228  -20.4682  -12.5073 N   0  0  0  0  0  0  0  0  0  0  0  0
   23.5643  -20.6102  -12.1945 C   0  0  0  0  0  0  0  0  0  0  0  0
   23.2456  -19.4059  -12.3142 O   0  0  0  0  0  0  0  0  0  0  0  0
   22.6083  -21.5731  -12.6055 N   0  0  0  0  0  0  0  0  0  0  0  0
   21.3501  -21.2094  -13.2289 C   0  0  0  0  0  0  0  0  0  0  0  0
   20.2301  -21.2455  -12.2618 C   0  0  0  0  0  0  0  0  0  0  0  0
   20.4765  -21.4589  -11.0647 O   0  0  0  0  0  0  0  0  0  0  0  0
   18.8965  -21.0520  -12.6154 O   0  0  0  0  0  0  0  0  0  0  0  0
  1  2  1  0
  3  2  1  0
  4  5  1  0
  4  3  1  0
  5  6  1  1
  5  1  1  0
  6  7  2  0
  9  8  1  0
  9 10  1  0
 10 11  1  0
 12 11  1  1
 12 14  1  0
 13 12  1  0
 13  6  1  0
 14 15  2  0
 14 16  1  0
 16 17  1  0
 18 20  1  0
 18 17  1  0
 19 18  2  0
M  END
$$$$
