PMG.pdb
     RDKit          3D

 20 20  0  0  1  0  0  0  0  0999 V2000
   17.1409  -14.8075    4.7823 N   0  0  0  0  0  0  0  0  0  0  0  0
   16.8076  -13.5232    4.2000 C   0  0  0  0  0  0  0  0  0  0  0  0
   16.3656  -13.7659    2.7723 C   0  0  0  0  0  0  0  0  0  0  0  0
   16.8824  -15.1875    2.5471 C   0  0  0  0  0  0  0  0  0  0  0  0
   16.5419  -15.7704    3.9101 C   0  0  1  0  0  0  0  0  0  0  0  0
   17.0362  -17.1344    4.0798 C   0  0  0  0  0  0  0  0  0  0  0  0
   16.6268  -18.0406    3.3103 O   0  0  0  0  0  0  0  0  0  0  0  0
   22.0365  -17.5632    1.3526 C   0  0  0  0  0  0  0  0  0  0  0  0
   21.9398  -18.1552    3.0807 S   0  0  0  0  0  0  0  0  0  0  0  0
   20.2020  -18.4349    3.4738 C   0  0  0  0  0  0  0  0  0  0  0  0
   19.9879  -18.7342    4.9287 C   0  0  0  0  0  0  0  0  0  0  0  0
   18.5235  -18.7610    5.3054 C   0  0  2  0  0  0  0  0  0  0  0  0
   17.9588  -17.4510    5.0854 N   0  0  0  0  0  0  0  0  0  0  0  0
   18.4237  -19.0730    6.7685 C   0  0  0  0  0  0  0  0  0  0  0  0
   18.7771  -18.2374    7.6307 O   0  0  0  0  0  0  0  0  0  0  0  0
   17.9302  -20.3155    7.2405 N   0  0  0  0  0  0  0  0  0  0  0  0
   17.7834  -20.6133    8.6525 C   0  0  0  0  0  0  0  0  0  0  0  0
   18.9966  -21.2568    9.2047 C   0  0  0  0  0  0  0  0  0  0  0  0
   19.9713  -21.4408    8.4593 O   0  0  0  0  0  0  0  0  0  0  0  0
   19.1158  -21.6753   10.5281 O   0  0  0  0  0  0  0  0  0  0  0  0
  1  2  1  0
  3  2  1  0
  4  5  1  0
  4  3  1  0
  5  6  1  6
  5  1  1  0
  6  7  2  0
  9  8  1  0
  9 10  1  0
 10 11  1  0
 12 11  1  1
 12 14  1  0
 13 12  1  0
 13  6  1  0
 14 15  2  0
 14 16  1  0
 16 17  1  0
 18 20  1  0
 18 17  1  0
 19 18  2  0
M  END
$$$$
