PMG.pdb
     RDKit          3D

 20 20  0  0  1  0  0  0  0  0999 V2000
   27.5211  -19.9452  -16.5451 N   0  0  0  0  0  0  0  0  0  0  0  0
   28.6084  -19.7703  -17.4868 C   0  0  0  0  0  0  0  0  0  0  0  0
   29.4774  -21.0085  -17.4216 C   0  0  0  0  0  0  0  0  0  0  0  0
   28.9964  -21.6309  -16.1102 C   0  0  0  0  0  0  0  0  0  0  0  0
   27.5094  -21.3465  -16.2569 C   0  0  1  0  0  0  0  0  0  0  0  0
   26.7444  -21.7162  -15.0688 C   0  0  0  0  0  0  0  0  0  0  0  0
   26.6334  -22.9294  -14.7578 O   0  0  0  0  0  0  0  0  0  0  0  0
   24.6126  -21.5334   -8.1019 C   0  0  0  0  0  0  0  0  0  0  0  0
   25.7601  -21.3216   -9.5106 S   0  0  0  0  0  0  0  0  0  0  0  0
   24.9449  -20.2805  -10.7371 C   0  0  0  0  0  0  0  0  0  0  0  0
   25.7721  -20.1066  -11.9772 C   0  0  0  0  0  0  0  0  0  0  0  0
   25.3308  -21.0177  -13.1006 C   0  0  2  0  0  0  0  0  0  0  0  0
   26.1317  -20.7424  -14.2695 N   0  0  0  0  0  0  0  0  0  0  0  0
   23.9028  -20.6982  -13.4269 C   0  0  0  0  0  0  0  0  0  0  0  0
   23.5782  -19.5698  -13.8603 O   0  0  0  0  0  0  0  0  0  0  0  0
   22.8631  -21.6479  -13.2621 N   0  0  0  0  0  0  0  0  0  0  0  0
   21.5015  -21.4004  -13.6967 C   0  0  0  0  0  0  0  0  0  0  0  0
   20.6513  -20.9201  -12.5843 C   0  0  0  0  0  0  0  0  0  0  0  0
   21.1945  -20.4977  -11.5519 O   0  0  0  0  0  0  0  0  0  0  0  0
   19.2587  -20.9117  -12.6233 O   0  0  0  0  0  0  0  0  0  0  0  0
  1  2  1  0
  3  2  1  0
  4  5  1  0
  4  3  1  0
  5  6  1  1
  5  1  1  0
  6  7  2  0
  9  8  1  0
  9 10  1  0
 10 11  1  0
 12 11  1  1
 12 14  1  0
 13 12  1  0
 13  6  1  0
 14 15  2  0
 14 16  1  0
 16 17  1  0
 18 20  1  0
 18 17  1  0
 19 18  2  0
M  END
$$$$
