PMG.pdb
     RDKit          3D

 20 20  0  0  1  0  0  0  0  0999 V2000
   29.7414  -20.3984  -11.1303 N   0  0  0  0  0  0  0  0  0  0  0  0
   31.0807  -20.5088  -11.6724 C   0  0  0  0  0  0  0  0  0  0  0  0
   31.6335  -21.8573  -11.2620 C   0  0  0  0  0  0  0  0  0  0  0  0
   30.6580  -22.2437  -10.1495 C   0  0  0  0  0  0  0  0  0  0  0  0
   29.3739  -21.7383  -10.7891 C   0  0  1  0  0  0  0  0  0  0  0  0
   28.2206  -21.8441   -9.8990 C   0  0  0  0  0  0  0  0  0  0  0  0
   27.7744  -22.9804   -9.5978 O   0  0  0  0  0  0  0  0  0  0  0  0
   27.3080  -19.6015   -4.1250 C   0  0  0  0  0  0  0  0  0  0  0  0
   28.6073  -19.2265   -5.3568 S   0  0  0  0  0  0  0  0  0  0  0  0
   28.2094  -20.1216   -6.8712 C   0  0  0  0  0  0  0  0  0  0  0  0
   26.7558  -20.0175   -7.2294 C   0  0  0  0  0  0  0  0  0  0  0  0
   26.4294  -20.7093   -8.5340 C   0  0  2  0  0  0  0  0  0  0  0  0
   27.6025  -20.7014   -9.3750 N   0  0  0  0  0  0  0  0  0  0  0  0
   25.3551  -19.9226   -9.2232 C   0  0  0  0  0  0  0  0  0  0  0  0
   25.2054  -18.7010   -8.9962 O   0  0  0  0  0  0  0  0  0  0  0  0
   24.4672  -20.5179  -10.1545 N   0  0  0  0  0  0  0  0  0  0  0  0
   23.4760  -19.7542  -10.8883 C   0  0  0  0  0  0  0  0  0  0  0  0
   22.6382  -20.6247  -11.7434 C   0  0  0  0  0  0  0  0  0  0  0  0
   22.9039  -21.8347  -11.8121 O   0  0  0  0  0  0  0  0  0  0  0  0
   21.5537  -20.1651  -12.4874 O   0  0  0  0  0  0  0  0  0  0  0  0
  1  2  1  0
  3  2  1  0
  4  5  1  0
  4  3  1  0
  5  6  1  1
  5  1  1  0
  6  7  2  0
  9  8  1  0
  9 10  1  0
 10 11  1  0
 12 11  1  1
 12 14  1  0
 13 12  1  0
 13  6  1  0
 14 15  2  0
 14 16  1  0
 16 17  1  0
 18 20  1  0
 18 17  1  0
 19 18  2  0
M  END
$$$$
