PMG.pdb
     RDKit          3D

 20 20  0  0  1  0  0  0  0  0999 V2000
   22.7049  -11.1484  -17.5269 N   0  0  0  0  0  0  0  0  0  0  0  0
   23.1849  -12.3019  -18.2611 C   0  0  0  0  0  0  0  0  0  0  0  0
   22.9032  -12.0626  -19.7294 C   0  0  0  0  0  0  0  0  0  0  0  0
   21.8951  -10.9157  -19.6476 C   0  0  0  0  0  0  0  0  0  0  0  0
   22.5392  -10.1287  -18.5166 C   0  0  1  0  0  0  0  0  0  0  0  0
   21.7289   -8.9916  -18.0876 C   0  0  0  0  0  0  0  0  0  0  0  0
   21.5398   -8.0335  -18.8796 O   0  0  0  0  0  0  0  0  0  0  0  0
   16.9780  -11.1355  -15.9710 C   0  0  0  0  0  0  0  0  0  0  0  0
   16.5732   -9.5265  -16.7413 S   0  0  0  0  0  0  0  0  0  0  0  0
   18.1245   -8.7076  -17.1608 C   0  0  0  0  0  0  0  0  0  0  0  0
   18.9703   -8.4353  -15.9514 C   0  0  0  0  0  0  0  0  0  0  0  0
   20.3302   -7.8785  -16.3087 C   0  0  2  0  0  0  0  0  0  0  0  0
   21.1586   -8.9496  -16.8087 N   0  0  0  0  0  0  0  0  0  0  0  0
   20.9601   -7.3462  -15.0566 C   0  0  0  0  0  0  0  0  0  0  0  0
   21.1966   -8.0985  -14.0847 O   0  0  0  0  0  0  0  0  0  0  0  0
   21.3141   -5.9807  -14.9147 N   0  0  0  0  0  0  0  0  0  0  0  0
   21.9449   -5.4565  -13.7183 C   0  0  0  0  0  0  0  0  0  0  0  0
   22.2330   -4.0098  -13.8411 C   0  0  0  0  0  0  0  0  0  0  0  0
   21.4400   -3.1949  -13.3445 O   0  0  0  0  0  0  0  0  0  0  0  0
   23.3548   -3.4970  -14.4886 O   0  0  0  0  0  0  0  0  0  0  0  0
  1  2  1  0
  3  2  1  0
  4  5  1  0
  4  3  1  0
  5  6  1  1
  5  1  1  0
  6  7  2  0
  9  8  1  0
  9 10  1  0
 10 11  1  0
 12 11  1  1
 12 14  1  0
 13 12  1  0
 13  6  1  0
 14 15  2  0
 14 16  1  0
 16 17  1  0
 18 20  1  0
 18 17  1  0
 19 18  2  0
M  END
$$$$
