NET.pdb
     RDKit          3D

 25 24  0  0  1  0  0  0  0  0999 V2000
    8.6994  -11.9814   18.5054 N   0  0  0  0  0  0  0  0  0  0  0  0
    7.9834  -13.2074   18.4234 C   0  0  0  0  0  0  0  0  0  0  0  0
    7.7033  -13.6977   17.2960 O   0  0  0  0  0  0  0  0  0  0  0  0
    7.5521  -13.9334   19.6403 C   0  0  0  0  0  0  0  0  0  0  0  0
    8.4871  -15.0741   19.8738 C   0  0  2  0  0  0  0  0  0  0  0  0
    8.2488  -16.1535   18.9488 N   0  0  0  0  0  0  0  0  0  0  0  0
    8.3944  -15.6143   21.2531 C   0  0  0  0  0  0  0  0  0  0  0  0
    7.3008  -16.0754   21.7214 O   0  0  0  0  0  0  0  0  0  0  0  0
    9.5057  -15.6581   22.1470 N   0  0  0  0  0  0  0  0  0  0  0  0
    9.3785  -16.1557   23.5032 C   0  0  1  0  0  0  0  0  0  0  0  0
   10.4490  -17.1653   23.8115 C   0  0  0  0  0  0  0  0  0  0  0  0
   10.2603  -18.4700   23.1165 C   0  0  0  0  0  0  0  0  0  0  0  0
   11.4037  -19.3551   23.4554 C   0  0  0  0  0  0  0  0  0  0  0  0
   12.5055  -19.2765   22.8536 O   0  0  0  0  0  0  0  0  0  0  0  0
    9.4027  -15.0110   24.4521 C   0  0  0  0  0  0  0  0  0  0  0  0
   10.3334  -14.1646   24.4536 O   0  0  0  0  0  0  0  0  0  0  0  0
   11.3008  -20.3092   24.4548 O   0  0  0  0  0  0  0  0  0  0  0  0
    6.8751  -12.2090   25.0572 C   0  0  0  0  0  0  0  0  0  0  0  0
    6.9807  -13.0956   26.2621 C   0  0  1  0  0  0  0  0  0  0  0  0
    5.9791  -14.0670   26.2643 O   0  0  0  0  0  0  0  0  0  0  0  0
    8.3473  -13.7610   26.3732 C   0  0  2  0  0  0  0  0  0  0  0  0
    8.3571  -14.8370   25.4009 N   0  0  0  0  0  0  0  0  0  0  0  0
    8.5428  -14.2916   27.7262 C   0  0  0  0  0  0  0  0  0  0  0  0
    8.5970  -13.5079   28.7079 O   0  0  0  0  0  0  0  0  0  0  0  0
    8.6729  -15.6379   27.9788 O   0  0  0  0  0  0  0  0  0  0  0  0
  1  2  1  0
  2  3  2  0
  4  2  1  0
  4  5  1  0
  5  6  1  6
  7  9  1  0
  7  5  1  0
  8  7  2  0
 10  9  1  0
 10 11  1  1
 11 12  1  0
 12 13  1  0
 13 17  1  0
 14 13  2  0
 15 10  1  0
 16 15  2  0
 19 18  1  6
 19 21  1  0
 20 19  1  0
 21 23  1  0
 21 22  1  6
 22 15  1  0
 23 25  1  0
 24 23  2  0
M  END
$$$$
