NET.pdb
     RDKit          3D

 25 24  0  0  1  0  0  0  0  0999 V2000
    9.0625  -20.1712   14.5633 N   0  0  0  0  0  0  0  0  0  0  0  0
    8.4411  -19.2650   15.4662 C   0  0  0  0  0  0  0  0  0  0  0  0
    7.6071  -18.4225   15.0368 O   0  0  0  0  0  0  0  0  0  0  0  0
    8.7502  -19.2834   16.9147 C   0  0  0  0  0  0  0  0  0  0  0  0
    9.2851  -17.9457   17.3071 C   0  0  2  0  0  0  0  0  0  0  0  0
   10.3999  -17.5566   16.4804 N   0  0  0  0  0  0  0  0  0  0  0  0
    9.7191  -17.8988   18.7256 C   0  0  0  0  0  0  0  0  0  0  0  0
    8.9609  -18.2931   19.6730 O   0  0  0  0  0  0  0  0  0  0  0  0
   10.9991  -17.4161   19.1313 N   0  0  0  0  0  0  0  0  0  0  0  0
   11.4020  -17.3912   20.5241 C   0  0  1  0  0  0  0  0  0  0  0  0
   12.8988  -17.4451   20.6553 C   0  0  0  0  0  0  0  0  0  0  0  0
   13.4776  -18.7880   20.3680 C   0  0  0  0  0  0  0  0  0  0  0  0
   14.9582  -18.6845   20.4180 C   0  0  0  0  0  0  0  0  0  0  0  0
   15.5635  -18.3162   21.4573 O   0  0  0  0  0  0  0  0  0  0  0  0
   10.8284  -16.1870   21.1813 C   0  0  0  0  0  0  0  0  0  0  0  0
   11.1974  -15.0225   20.8803 O   0  0  0  0  0  0  0  0  0  0  0  0
   15.7365  -18.9917   19.3137 O   0  0  0  0  0  0  0  0  0  0  0  0
    7.7006  -14.5283   21.0225 C   0  0  0  0  0  0  0  0  0  0  0  0
    7.8111  -15.0769   22.4138 C   0  0  1  0  0  0  0  0  0  0  0  0
    7.1880  -16.3210   22.5177 O   0  0  0  0  0  0  0  0  0  0  0  0
    9.2578  -15.1820   22.8814 C   0  0  2  0  0  0  0  0  0  0  0  0
    9.8297  -16.3187   22.1858 N   0  0  0  0  0  0  0  0  0  0  0  0
    9.3064  -15.3919   24.3319 C   0  0  0  0  0  0  0  0  0  0  0  0
    9.7484  -16.4732   24.7970 O   0  0  0  0  0  0  0  0  0  0  0  0
    8.8814  -14.4397   25.2296 O   0  0  0  0  0  0  0  0  0  0  0  0
  1  2  1  0
  2  3  2  0
  4  2  1  0
  4  5  1  0
  5  6  1  6
  7  9  1  0
  7  5  1  0
  8  7  2  0
 10  9  1  0
 10 11  1  6
 11 12  1  0
 12 13  1  0
 13 17  1  0
 14 13  2  0
 15 10  1  0
 16 15  2  0
 19 18  1  6
 19 21  1  0
 20 19  1  0
 21 23  1  0
 21 22  1  6
 22 15  1  0
 23 25  1  0
 24 23  2  0
M  END
$$$$
