NET.pdb
     RDKit          3D

 25 24  0  0  1  0  0  0  0  0999 V2000
    9.4842  -14.6238   17.2357 N   0  0  0  0  0  0  0  0  0  0  0  0
    8.1220  -14.3797   16.9081 C   0  0  0  0  0  0  0  0  0  0  0  0
    7.6359  -14.8548   15.8461 O   0  0  0  0  0  0  0  0  0  0  0  0
    7.2475  -13.5731   17.7905 C   0  0  0  0  0  0  0  0  0  0  0  0
    8.0035  -13.2331   19.0325 C   0  0  2  0  0  0  0  0  0  0  0  0
    9.3000  -12.6806   18.7302 N   0  0  0  0  0  0  0  0  0  0  0  0
    8.1935  -14.4050   19.9233 C   0  0  0  0  0  0  0  0  0  0  0  0
    7.2063  -15.0937   20.3464 O   0  0  0  0  0  0  0  0  0  0  0  0
    9.4765  -14.8438   20.3675 N   0  0  0  0  0  0  0  0  0  0  0  0
    9.6267  -15.8921   21.3582 C   0  0  1  0  0  0  0  0  0  0  0  0
   10.8529  -16.7193   21.0887 C   0  0  0  0  0  0  0  0  0  0  0  0
   11.0099  -17.8772   22.0137 C   0  0  0  0  0  0  0  0  0  0  0  0
   12.2508  -18.6074   21.6498 C   0  0  0  0  0  0  0  0  0  0  0  0
   12.9886  -18.2322   20.7026 O   0  0  0  0  0  0  0  0  0  0  0  0
    9.6509  -15.2867   22.7161 C   0  0  0  0  0  0  0  0  0  0  0  0
   10.5531  -14.4865   23.0744 O   0  0  0  0  0  0  0  0  0  0  0  0
   12.6473  -19.7387   22.3444 O   0  0  0  0  0  0  0  0  0  0  0  0
    7.0459  -13.2467   24.6239 C   0  0  0  0  0  0  0  0  0  0  0  0
    7.2804  -14.5550   25.3183 C   0  0  1  0  0  0  0  0  0  0  0  0
    6.3057  -15.4921   24.9736 O   0  0  0  0  0  0  0  0  0  0  0  0
    8.6664  -15.1213   25.0335 C   0  0  2  0  0  0  0  0  0  0  0  0
    8.6381  -15.5998   23.6649 N   0  0  0  0  0  0  0  0  0  0  0  0
    8.9616  -16.2230   25.9552 C   0  0  0  0  0  0  0  0  0  0  0  0
    9.0293  -17.4025   25.5250 O   0  0  0  0  0  0  0  0  0  0  0  0
    9.1730  -16.0231   27.3000 O   0  0  0  0  0  0  0  0  0  0  0  0
  1  2  1  0
  2  3  2  0
  4  2  1  0
  4  5  1  0
  5  6  1  6
  7  9  1  0
  7  5  1  0
  8  7  2  0
 10  9  1  0
 10 11  1  6
 11 12  1  0
 12 13  1  0
 13 17  1  0
 14 13  2  0
 15 10  1  0
 16 15  2  0
 19 18  1  6
 19 21  1  0
 20 19  1  0
 21 23  1  0
 21 22  1  6
 22 15  1  0
 23 25  1  0
 24 23  2  0
M  END
$$$$
