NET.pdb
     RDKit          3D

 25 24  0  0  1  0  0  0  0  0999 V2000
    7.7350  -12.4260   16.6596 N   0  0  0  0  0  0  0  0  0  0  0  0
    7.8818  -13.7818   17.0635 C   0  0  0  0  0  0  0  0  0  0  0  0
    8.4053  -14.6184   16.2787 O   0  0  0  0  0  0  0  0  0  0  0  0
    7.4313  -14.2441   18.3967 C   0  0  0  0  0  0  0  0  0  0  0  0
    8.5260  -14.0008   19.3827 C   0  0  2  0  0  0  0  0  0  0  0  0
    9.8198  -14.3054   18.8253 N   0  0  0  0  0  0  0  0  0  0  0  0
    8.3580  -14.7911   20.6277 C   0  0  0  0  0  0  0  0  0  0  0  0
    7.2898  -14.7299   21.3229 O   0  0  0  0  0  0  0  0  0  0  0  0
    9.3643  -15.6669   21.1341 N   0  0  0  0  0  0  0  0  0  0  0  0
    9.2175  -16.3479   22.4060 C   0  0  1  0  0  0  0  0  0  0  0  0
   10.1737  -17.5029   22.5147 C   0  0  0  0  0  0  0  0  0  0  0  0
   10.0642  -18.2529   23.7978 C   0  0  0  0  0  0  0  0  0  0  0  0
   11.1200  -19.2969   23.8261 C   0  0  0  0  0  0  0  0  0  0  0  0
   12.3071  -19.0323   24.1474 O   0  0  0  0  0  0  0  0  0  0  0  0
    9.3973  -15.3701   23.5118 C   0  0  0  0  0  0  0  0  0  0  0  0
   10.4029  -14.6171   23.5803 O   0  0  0  0  0  0  0  0  0  0  0  0
   10.8369  -20.6127   23.4974 O   0  0  0  0  0  0  0  0  0  0  0  0
    7.0190  -12.5904   24.8044 C   0  0  0  0  0  0  0  0  0  0  0  0
    7.2342  -13.6529   25.8406 C   0  0  1  0  0  0  0  0  0  0  0  0
    6.1981  -14.5874   25.8291 O   0  0  0  0  0  0  0  0  0  0  0  0
    8.5727  -14.3622   25.6731 C   0  0  2  0  0  0  0  0  0  0  0  0
    8.4218  -15.2558   24.5410 N   0  0  0  0  0  0  0  0  0  0  0  0
    8.8978  -15.1212   26.8849 C   0  0  0  0  0  0  0  0  0  0  0  0
    8.9092  -16.3782   26.8562 O   0  0  0  0  0  0  0  0  0  0  0  0
    9.1980  -14.5093   28.0802 O   0  0  0  0  0  0  0  0  0  0  0  0
  1  2  1  0
  2  3  2  0
  4  2  1  0
  4  5  1  0
  5  6  1  6
  7  9  1  0
  7  5  1  0
  8  7  2  0
 10  9  1  0
 10 11  1  1
 11 12  1  0
 12 13  1  0
 13 17  1  0
 14 13  2  0
 15 10  1  0
 16 15  2  0
 19 18  1  6
 19 21  1  0
 20 19  1  0
 21 23  1  0
 21 22  1  6
 22 15  1  0
 23 25  1  0
 24 23  2  0
M  END
$$$$
