NET.pdb
     RDKit          3D

 25 24  0  0  1  0  0  0  0  0999 V2000
    7.6614  -12.6382   17.0929 N   0  0  0  0  0  0  0  0  0  0  0  0
    7.5931  -14.0175   17.4327 C   0  0  0  0  0  0  0  0  0  0  0  0
    7.7773  -14.8935   16.5448 O   0  0  0  0  0  0  0  0  0  0  0  0
    7.3081  -14.4591   18.8175 C   0  0  0  0  0  0  0  0  0  0  0  0
    8.5265  -14.2359   19.6514 C   0  0  2  0  0  0  0  0  0  0  0  0
    9.6890  -14.8591   19.0701 N   0  0  0  0  0  0  0  0  0  0  0  0
    8.3701  -14.7441   21.0371 C   0  0  0  0  0  0  0  0  0  0  0  0
    7.3809  -14.4058   21.7686 O   0  0  0  0  0  0  0  0  0  0  0  0
    9.3011  -15.6369   21.6473 N   0  0  0  0  0  0  0  0  0  0  0  0
    9.0826  -16.1826   22.9730 C   0  0  1  0  0  0  0  0  0  0  0  0
   10.0620  -17.2831   23.2730 C   0  0  0  0  0  0  0  0  0  0  0  0
    9.9081  -17.8674   24.6353 C   0  0  0  0  0  0  0  0  0  0  0  0
   10.9935  -18.8580   24.8496 C   0  0  0  0  0  0  0  0  0  0  0  0
   11.1696  -19.8294   24.0699 O   0  0  0  0  0  0  0  0  0  0  0  0
    9.1532  -15.0860   23.9748 C   0  0  0  0  0  0  0  0  0  0  0  0
   10.1347  -14.3014   24.0379 O   0  0  0  0  0  0  0  0  0  0  0  0
   11.8611  -18.7504   25.9244 O   0  0  0  0  0  0  0  0  0  0  0  0
    6.4481  -12.3088   27.0518 C   0  0  0  0  0  0  0  0  0  0  0  0
    6.6228  -13.3993   26.0372 C   0  0  1  0  0  0  0  0  0  0  0  0
    6.0820  -13.0338   24.8040 O   0  0  0  0  0  0  0  0  0  0  0  0
    8.0830  -13.8000   25.8637 C   0  0  2  0  0  0  0  0  0  0  0  0
    8.0960  -14.8889   24.9060 N   0  0  0  0  0  0  0  0  0  0  0  0
    8.6427  -14.2391   27.1460 C   0  0  0  0  0  0  0  0  0  0  0  0
    8.8052  -13.4113   28.0783 O   0  0  0  0  0  0  0  0  0  0  0  0
    9.0071  -15.5444   27.3833 O   0  0  0  0  0  0  0  0  0  0  0  0
  1  2  1  0
  2  3  2  0
  4  2  1  0
  4  5  1  0
  5  6  1  6
  7  9  1  0
  7  5  1  0
  8  7  2  0
 10  9  1  0
 10 11  1  1
 11 12  1  0
 12 13  1  0
 13 17  1  0
 14 13  2  0
 15 10  1  0
 16 15  2  0
 19 18  1  1
 19 21  1  0
 20 19  1  0
 21 23  1  0
 21 22  1  6
 22 15  1  0
 23 25  1  0
 24 23  2  0
M  END
$$$$
