NET.pdb
     RDKit          3D

 25 24  0  0  1  0  0  0  0  0999 V2000
    8.4147  -14.1138   17.3776 N   0  0  0  0  0  0  0  0  0  0  0  0
    8.3133  -13.1338   18.4032 C   0  0  0  0  0  0  0  0  0  0  0  0
    8.3946  -11.9094   18.1132 O   0  0  0  0  0  0  0  0  0  0  0  0
    8.1122  -13.5160   19.8201 C   0  0  0  0  0  0  0  0  0  0  0  0
    8.0857  -15.0060   19.9149 C   0  0  2  0  0  0  0  0  0  0  0  0
    6.9636  -15.5632   19.2021 N   0  0  0  0  0  0  0  0  0  0  0  0
    8.0311  -15.4873   21.3178 C   0  0  0  0  0  0  0  0  0  0  0  0
    6.9299  -15.5693   21.9570 O   0  0  0  0  0  0  0  0  0  0  0  0
    9.1897  -15.8889   22.0473 N   0  0  0  0  0  0  0  0  0  0  0  0
    9.1104  -16.3375   23.4241 C   0  0  1  0  0  0  0  0  0  0  0  0
   10.1950  -17.3321   23.7323 C   0  0  0  0  0  0  0  0  0  0  0  0
   10.1074  -18.5829   22.9269 C   0  0  0  0  0  0  0  0  0  0  0  0
   11.2791  -19.4360   23.2508 C   0  0  0  0  0  0  0  0  0  0  0  0
   11.4490  -20.5618   22.7161 O   0  0  0  0  0  0  0  0  0  0  0  0
    9.1618  -15.1591   24.3297 C   0  0  0  0  0  0  0  0  0  0  0  0
   10.0141  -14.2447   24.1879 O   0  0  0  0  0  0  0  0  0  0  0  0
   12.2380  -19.0222   24.1614 O   0  0  0  0  0  0  0  0  0  0  0  0
    6.8208  -12.1118   27.2628 C   0  0  0  0  0  0  0  0  0  0  0  0
    6.9137  -13.2751   26.3210 C   0  0  1  0  0  0  0  0  0  0  0  0
    6.6079  -12.8932   25.0142 O   0  0  0  0  0  0  0  0  0  0  0  0
    8.2835  -13.9420   26.3581 C   0  0  2  0  0  0  0  0  0  0  0  0
    8.2337  -15.0296   25.4001 N   0  0  0  0  0  0  0  0  0  0  0  0
    8.5590  -14.4567   27.7033 C   0  0  0  0  0  0  0  0  0  0  0  0
    8.5879  -15.6968   27.9091 O   0  0  0  0  0  0  0  0  0  0  0  0
    8.7928  -13.6280   28.7765 O   0  0  0  0  0  0  0  0  0  0  0  0
  1  2  1  0
  2  3  2  0
  4  2  1  0
  4  5  1  0
  5  6  1  6
  7  9  1  0
  7  5  1  0
  8  7  2  0
 10  9  1  0
 10 11  1  1
 11 12  1  0
 12 13  1  0
 13 17  1  0
 14 13  2  0
 15 10  1  0
 16 15  2  0
 19 18  1  1
 19 21  1  0
 20 19  1  0
 21 23  1  0
 21 22  1  6
 22 15  1  0
 23 25  1  0
 24 23  2  0
M  END
$$$$
