NET.pdb
     RDKit          3D

 25 24  0  0  1  0  0  0  0  0999 V2000
    7.6399  -12.3469   17.4586 N   0  0  0  0  0  0  0  0  0  0  0  0
    7.7745  -13.7532   17.6216 C   0  0  0  0  0  0  0  0  0  0  0  0
    8.1466  -14.4659   16.6503 O   0  0  0  0  0  0  0  0  0  0  0  0
    7.4863  -14.4123   18.9164 C   0  0  0  0  0  0  0  0  0  0  0  0
    8.6347  -14.1744   19.8407 C   0  0  2  0  0  0  0  0  0  0  0  0
    9.8653  -14.6989   19.3041 N   0  0  0  0  0  0  0  0  0  0  0  0
    8.4201  -14.7719   21.1823 C   0  0  0  0  0  0  0  0  0  0  0  0
    7.3341  -14.5975   21.8289 O   0  0  0  0  0  0  0  0  0  0  0  0
    9.3984  -15.5751   21.8409 N   0  0  0  0  0  0  0  0  0  0  0  0
    9.1847  -16.1018   23.1751 C   0  0  1  0  0  0  0  0  0  0  0  0
   10.1032  -17.2591   23.4532 C   0  0  0  0  0  0  0  0  0  0  0  0
    9.8836  -18.4277   22.5548 C   0  0  0  0  0  0  0  0  0  0  0  0
   10.9030  -19.4615   22.8672 C   0  0  0  0  0  0  0  0  0  0  0  0
   10.8380  -20.1653   23.9077 O   0  0  0  0  0  0  0  0  0  0  0  0
    9.3505  -15.0080   24.1688 C   0  0  0  0  0  0  0  0  0  0  0  0
   10.3298  -14.2189   24.1359 O   0  0  0  0  0  0  0  0  0  0  0  0
   11.9735  -19.6929   22.0185 O   0  0  0  0  0  0  0  0  0  0  0  0
    6.9833  -12.1433   25.0809 C   0  0  0  0  0  0  0  0  0  0  0  0
    7.1708  -13.0637   26.2499 C   0  0  1  0  0  0  0  0  0  0  0  0
    6.1354  -13.9956   26.3308 O   0  0  0  0  0  0  0  0  0  0  0  0
    8.5133  -13.7839   26.2102 C   0  0  2  0  0  0  0  0  0  0  0  0
    8.3911  -14.8191   25.2021 N   0  0  0  0  0  0  0  0  0  0  0  0
    8.8084  -14.3759   27.5190 C   0  0  0  0  0  0  0  0  0  0  0  0
    8.8721  -15.6253   27.6447 O   0  0  0  0  0  0  0  0  0  0  0  0
    9.0240  -13.6115   28.6426 O   0  0  0  0  0  0  0  0  0  0  0  0
  1  2  1  0
  2  3  2  0
  4  2  1  0
  4  5  1  0
  5  6  1  6
  7  9  1  0
  7  5  1  0
  8  7  2  0
 10  9  1  0
 10 11  1  1
 11 12  1  0
 12 13  1  0
 13 17  1  0
 14 13  2  0
 15 10  1  0
 16 15  2  0
 19 18  1  6
 19 21  1  0
 20 19  1  0
 21 23  1  0
 21 22  1  6
 22 15  1  0
 23 25  1  0
 24 23  2  0
M  END
$$$$
