NET.pdb
     RDKit          3D

 25 24  0  0  1  0  0  0  0  0999 V2000
    8.2977  -13.9828   13.9346 N   0  0  0  0  0  0  0  0  0  0  0  0
    8.7010  -14.5438   15.1776 C   0  0  0  0  0  0  0  0  0  0  0  0
    9.9073  -14.8608   15.3625 O   0  0  0  0  0  0  0  0  0  0  0  0
    7.7316  -14.7688   16.2747 C   0  0  0  0  0  0  0  0  0  0  0  0
    8.2215  -14.0663   17.4980 C   0  0  2  0  0  0  0  0  0  0  0  0
    8.7938  -12.7824   17.1793 N   0  0  0  0  0  0  0  0  0  0  0  0
    9.2347  -14.8557   18.2416 C   0  0  0  0  0  0  0  0  0  0  0  0
    9.0302  -16.0717   18.5695 O   0  0  0  0  0  0  0  0  0  0  0  0
   10.4964  -14.3218   18.6404 N   0  0  0  0  0  0  0  0  0  0  0  0
   11.4018  -15.0579   19.5016 C   0  0  1  0  0  0  0  0  0  0  0  0
   12.8351  -14.7853   19.1387 C   0  0  0  0  0  0  0  0  0  0  0  0
   13.3058  -15.5441   17.9456 C   0  0  0  0  0  0  0  0  0  0  0  0
   14.7218  -15.1811   17.6836 C   0  0  0  0  0  0  0  0  0  0  0  0
   15.6681  -15.6754   18.3488 O   0  0  0  0  0  0  0  0  0  0  0  0
   11.1133  -14.7220   20.9212 C   0  0  0  0  0  0  0  0  0  0  0  0
   11.8345  -13.9288   21.5795 O   0  0  0  0  0  0  0  0  0  0  0  0
   15.0585  -14.2771   16.6891 O   0  0  0  0  0  0  0  0  0  0  0  0
    8.0120  -13.3013   22.6104 C   0  0  0  0  0  0  0  0  0  0  0  0
    8.2611  -14.6956   23.1032 C   0  0  1  0  0  0  0  0  0  0  0  0
    7.4692  -15.6213   22.4229 O   0  0  0  0  0  0  0  0  0  0  0  0
    9.7285  -15.0933   22.9977 C   0  0  2  0  0  0  0  0  0  0  0  0
    9.9953  -15.2972   21.5869 N   0  0  0  0  0  0  0  0  0  0  0  0
    9.9728  -16.3288   23.7489 C   0  0  0  0  0  0  0  0  0  0  0  0
   10.1813  -17.4070   23.1366 O   0  0  0  0  0  0  0  0  0  0  0  0
    9.9851  -16.3655   25.1242 O   0  0  0  0  0  0  0  0  0  0  0  0
  1  2  1  0
  2  3  2  0
  4  2  1  0
  4  5  1  0
  5  6  1  6
  7  9  1  0
  7  5  1  0
  8  7  2  0
 10  9  1  0
 10 11  1  6
 11 12  1  0
 12 13  1  0
 13 17  1  0
 14 13  2  0
 15 10  1  0
 16 15  2  0
 19 18  1  6
 19 21  1  0
 20 19  1  0
 21 23  1  0
 21 22  1  6
 22 15  1  0
 23 25  1  0
 24 23  2  0
M  END
$$$$
