NET.pdb
     RDKit          3D

 25 24  0  0  1  0  0  0  0  0999 V2000
    7.3809  -12.5658   17.2325 N   0  0  0  0  0  0  0  0  0  0  0  0
    7.7573  -13.8804   17.6230 C   0  0  0  0  0  0  0  0  0  0  0  0
    8.3998  -14.6140   16.8237 O   0  0  0  0  0  0  0  0  0  0  0  0
    7.4113  -14.4187   18.9589 C   0  0  0  0  0  0  0  0  0  0  0  0
    8.5196  -14.0969   19.9064 C   0  0  2  0  0  0  0  0  0  0  0  0
    9.7997  -14.5038   19.3836 N   0  0  0  0  0  0  0  0  0  0  0  0
    8.3364  -14.7322   21.2351 C   0  0  0  0  0  0  0  0  0  0  0  0
    7.2362  -14.6445   21.8753 O   0  0  0  0  0  0  0  0  0  0  0  0
    9.3624  -15.4787   21.8879 N   0  0  0  0  0  0  0  0  0  0  0  0
    9.1744  -16.0455   23.2094 C   0  0  1  0  0  0  0  0  0  0  0  0
   10.1253  -17.1851   23.4495 C   0  0  0  0  0  0  0  0  0  0  0  0
    9.9779  -18.3038   22.4760 C   0  0  0  0  0  0  0  0  0  0  0  0
   11.0298  -19.3142   22.7551 C   0  0  0  0  0  0  0  0  0  0  0  0
   12.0576  -19.4185   22.0374 O   0  0  0  0  0  0  0  0  0  0  0  0
    9.3203  -14.9741   24.2301 C   0  0  0  0  0  0  0  0  0  0  0  0
   10.3593  -14.2697   24.3150 O   0  0  0  0  0  0  0  0  0  0  0  0
   10.9195  -20.1880   23.8247 O   0  0  0  0  0  0  0  0  0  0  0  0
    6.8261  -12.0573   25.2428 C   0  0  0  0  0  0  0  0  0  0  0  0
    7.0467  -13.0509   26.3442 C   0  0  1  0  0  0  0  0  0  0  0  0
    6.0251  -14.0006   26.3804 O   0  0  0  0  0  0  0  0  0  0  0  0
    8.3975  -13.7479   26.2331 C   0  0  2  0  0  0  0  0  0  0  0  0
    8.2724  -14.7101   25.1554 N   0  0  0  0  0  0  0  0  0  0  0  0
    8.7207  -14.4276   27.4916 C   0  0  0  0  0  0  0  0  0  0  0  0
    8.8096  -15.6814   27.5250 O   0  0  0  0  0  0  0  0  0  0  0  0
    8.9366  -13.7430   28.6653 O   0  0  0  0  0  0  0  0  0  0  0  0
  1  2  1  0
  2  3  2  0
  4  2  1  0
  4  5  1  0
  5  6  1  6
  7  9  1  0
  7  5  1  0
  8  7  2  0
 10  9  1  0
 10 11  1  1
 11 12  1  0
 12 13  1  0
 13 17  1  0
 14 13  2  0
 15 10  1  0
 16 15  2  0
 19 18  1  6
 19 21  1  0
 20 19  1  0
 21 23  1  0
 21 22  1  6
 22 15  1  0
 23 25  1  0
 24 23  2  0
M  END
$$$$
