NET.pdb
     RDKit          3D

 25 24  0  0  1  0  0  0  0  0999 V2000
    7.9306  -12.7155   14.2201 N   0  0  0  0  0  0  0  0  0  0  0  0
    7.8137  -14.1328   14.2363 C   0  0  0  0  0  0  0  0  0  0  0  0
    7.8885  -14.7821   13.1580 O   0  0  0  0  0  0  0  0  0  0  0  0
    7.6040  -14.8766   15.4999 C   0  0  0  0  0  0  0  0  0  0  0  0
    8.8993  -14.9370   16.2404 C   0  0  2  0  0  0  0  0  0  0  0  0
    9.8924  -15.6861   15.5123 N   0  0  0  0  0  0  0  0  0  0  0  0
    8.7576  -15.5404   17.5889 C   0  0  0  0  0  0  0  0  0  0  0  0
    7.9001  -15.1102   18.4302 O   0  0  0  0  0  0  0  0  0  0  0  0
    9.5582  -16.6319   18.0402 N   0  0  0  0  0  0  0  0  0  0  0  0
    9.3570  -17.2436   19.3395 C   0  0  1  0  0  0  0  0  0  0  0  0
   10.0860  -18.5547   19.4389 C   0  0  0  0  0  0  0  0  0  0  0  0
   11.5064  -18.4859   18.9930 C   0  0  0  0  0  0  0  0  0  0  0  0
   12.1041  -19.8403   19.1098 C   0  0  0  0  0  0  0  0  0  0  0  0
   13.2593  -20.0956   18.6824 O   0  0  0  0  0  0  0  0  0  0  0  0
    9.7758  -16.2916   20.4023 C   0  0  0  0  0  0  0  0  0  0  0  0
   10.9011  -15.7293   20.3893 O   0  0  0  0  0  0  0  0  0  0  0  0
   11.4076  -20.8835   19.6984 O   0  0  0  0  0  0  0  0  0  0  0  0
    7.7931  -13.2212   21.8655 C   0  0  0  0  0  0  0  0  0  0  0  0
    8.0531  -14.2725   22.9028 C   0  0  1  0  0  0  0  0  0  0  0  0
    6.9428  -15.1003   23.0728 O   0  0  0  0  0  0  0  0  0  0  0  0
    9.2814  -15.1143   22.5787 C   0  0  2  0  0  0  0  0  0  0  0  0
    8.9020  -15.9840   21.4820 N   0  0  0  0  0  0  0  0  0  0  0  0
    9.6744  -15.9067   23.7483 C   0  0  0  0  0  0  0  0  0  0  0  0
    9.5188  -17.1544   23.7444 O   0  0  0  0  0  0  0  0  0  0  0  0
   10.2180  -15.3368   24.8765 O   0  0  0  0  0  0  0  0  0  0  0  0
  1  2  1  0
  2  3  2  0
  4  2  1  0
  4  5  1  0
  5  6  1  6
  7  9  1  0
  7  5  1  0
  8  7  2  0
 10  9  1  0
 10 11  1  6
 11 12  1  0
 12 13  1  0
 13 17  1  0
 14 13  2  0
 15 10  1  0
 16 15  2  0
 19 18  1  6
 19 21  1  0
 20 19  1  0
 21 23  1  0
 21 22  1  6
 22 15  1  0
 23 25  1  0
 24 23  2  0
M  END
$$$$
