NET.pdb
     RDKit          3D

 25 24  0  0  1  0  0  0  0  0999 V2000
    7.8205  -12.5271   17.6618 N   0  0  0  0  0  0  0  0  0  0  0  0
    7.7614  -13.7802   16.9918 C   0  0  0  0  0  0  0  0  0  0  0  0
    6.8690  -13.9885   16.1257 O   0  0  0  0  0  0  0  0  0  0  0  0
    8.7307  -14.8606   17.2865 C   0  0  0  0  0  0  0  0  0  0  0  0
    9.5973  -14.4292   18.4235 C   0  0  2  0  0  0  0  0  0  0  0  0
   10.9966  -14.5464   18.0985 N   0  0  0  0  0  0  0  0  0  0  0  0
    9.3409  -15.2054   19.6623 C   0  0  0  0  0  0  0  0  0  0  0  0
    8.1917  -15.2252   20.2164 O   0  0  0  0  0  0  0  0  0  0  0  0
   10.3461  -15.9771   20.3181 N   0  0  0  0  0  0  0  0  0  0  0  0
   10.0595  -16.7556   21.5076 C   0  0  1  0  0  0  0  0  0  0  0  0
   11.0268  -17.8974   21.6528 C   0  0  0  0  0  0  0  0  0  0  0  0
   10.8152  -18.7091   22.8846 C   0  0  0  0  0  0  0  0  0  0  0  0
   11.8753  -19.7468   22.9540 C   0  0  0  0  0  0  0  0  0  0  0  0
   13.0772  -19.4542   23.1817 O   0  0  0  0  0  0  0  0  0  0  0  0
   10.0707  -15.8617   22.6959 C   0  0  0  0  0  0  0  0  0  0  0  0
   11.0264  -15.0789   22.9334 O   0  0  0  0  0  0  0  0  0  0  0  0
   11.5796  -21.0878   22.7693 O   0  0  0  0  0  0  0  0  0  0  0  0
    7.6270  -13.1994   23.9509 C   0  0  0  0  0  0  0  0  0  0  0  0
    7.6661  -14.3583   24.9019 C   0  0  1  0  0  0  0  0  0  0  0  0
    6.6136  -15.2430   24.6643 O   0  0  0  0  0  0  0  0  0  0  0  0
    8.9929  -15.1063   24.8487 C   0  0  2  0  0  0  0  0  0  0  0  0
    8.9835  -15.8659   23.6134 N   0  0  0  0  0  0  0  0  0  0  0  0
    9.1134  -16.0048   26.0013 C   0  0  0  0  0  0  0  0  0  0  0  0
    9.1521  -17.2495   25.8279 O   0  0  0  0  0  0  0  0  0  0  0  0
    9.1879  -15.5399   27.2942 O   0  0  0  0  0  0  0  0  0  0  0  0
  1  2  1  0
  2  3  2  0
  4  2  1  0
  4  5  1  0
  5  6  1  6
  7  9  1  0
  7  5  1  0
  8  7  2  0
 10  9  1  0
 10 11  1  1
 11 12  1  0
 12 13  1  0
 13 17  1  0
 14 13  2  0
 15 10  1  0
 16 15  2  0
 19 18  1  6
 19 21  1  0
 20 19  1  0
 21 23  1  0
 21 22  1  6
 22 15  1  0
 23 25  1  0
 24 23  2  0
M  END
$$$$
