NET.pdb
     RDKit          3D

 25 24  0  0  1  0  0  0  0  0999 V2000
    7.5439  -12.6697   17.2635 N   0  0  0  0  0  0  0  0  0  0  0  0
    7.8692  -13.9958   17.6614 C   0  0  0  0  0  0  0  0  0  0  0  0
    8.4955  -14.7534   16.8717 O   0  0  0  0  0  0  0  0  0  0  0  0
    7.4880  -14.5183   18.9940 C   0  0  0  0  0  0  0  0  0  0  0  0
    8.2668  -13.7853   20.0361 C   0  0  2  0  0  0  0  0  0  0  0  0
    9.6632  -13.6961   19.6904 N   0  0  0  0  0  0  0  0  0  0  0  0
    8.1585  -14.4140   21.3762 C   0  0  0  0  0  0  0  0  0  0  0  0
    7.1842  -14.1605   22.1600 O   0  0  0  0  0  0  0  0  0  0  0  0
    9.1224  -15.3365   21.8821 N   0  0  0  0  0  0  0  0  0  0  0  0
    9.0066  -15.9157   23.2065 C   0  0  1  0  0  0  0  0  0  0  0  0
   10.0279  -16.9994   23.4142 C   0  0  0  0  0  0  0  0  0  0  0  0
    9.9683  -17.6283   24.7639 C   0  0  0  0  0  0  0  0  0  0  0  0
   11.0114  -18.6826   24.8400 C   0  0  0  0  0  0  0  0  0  0  0  0
   12.1357  -18.4680   25.3617 O   0  0  0  0  0  0  0  0  0  0  0  0
    9.1212  -14.8397   24.2264 C   0  0  0  0  0  0  0  0  0  0  0  0
   10.0561  -13.9981   24.2069 O   0  0  0  0  0  0  0  0  0  0  0  0
   10.7854  -19.9532   24.3357 O   0  0  0  0  0  0  0  0  0  0  0  0
    6.8692  -11.9871   25.2049 C   0  0  0  0  0  0  0  0  0  0  0  0
    6.9483  -12.9754   26.3300 C   0  0  1  0  0  0  0  0  0  0  0  0
    5.8761  -13.8677   26.2953 O   0  0  0  0  0  0  0  0  0  0  0  0
    8.2631  -13.7460   26.3323 C   0  0  2  0  0  0  0  0  0  0  0  0
    8.1616  -14.7288   25.2708 N   0  0  0  0  0  0  0  0  0  0  0  0
    8.4589  -14.4080   27.6260 C   0  0  0  0  0  0  0  0  0  0  0  0
    8.4566  -15.6633   27.6975 O   0  0  0  0  0  0  0  0  0  0  0  0
    8.6495  -13.7046   28.7931 O   0  0  0  0  0  0  0  0  0  0  0  0
  1  2  1  0
  2  3  2  0
  4  2  1  0
  4  5  1  0
  5  6  1  6
  7  9  1  0
  7  5  1  0
  8  7  2  0
 10  9  1  0
 10 11  1  1
 11 12  1  0
 12 13  1  0
 13 17  1  0
 14 13  2  0
 15 10  1  0
 16 15  2  0
 19 18  1  6
 19 21  1  0
 20 19  1  0
 21 23  1  0
 21 22  1  6
 22 15  1  0
 23 25  1  0
 24 23  2  0
M  END
$$$$
