RAT.pdb
     RDKit          3D

 24 23  0  0  1  0  0  0  0  0999 V2000
   20.5395  -18.3129  -13.7052 N   0  0  0  0  0  0  0  0  0  0  0  0
   19.6535  -18.8345  -14.6722 C   0  0  0  0  0  0  0  0  0  0  0  0
   19.2815  -20.0700  -14.6409 N   0  0  0  0  0  0  0  0  0  0  0  0
   19.1502  -17.9827  -15.7132 N   0  0  0  0  0  0  0  0  0  0  0  0
   19.5570  -16.5823  -15.6732 C   0  0  0  0  0  0  0  0  0  0  0  0
   19.0588  -15.8407  -16.8922 C   0  0  0  0  0  0  0  0  0  0  0  0
   19.3866  -14.3695  -16.8387 C   0  0  0  0  0  0  0  0  0  0  0  0
   18.7893  -13.6121  -18.0059 C   0  0  2  0  0  0  0  0  0  0  0  0
   19.4309  -14.0075  -19.2487 N   0  0  0  0  0  0  0  0  0  0  0  0
   18.9972  -12.1662  -17.7786 C   0  0  0  0  0  0  0  0  0  0  0  0
   20.0578  -11.6402  -18.1599 O   0  0  0  0  0  0  0  0  0  0  0  0
   18.5552  -20.4208  -15.3021 C   0  0  0  0  0  0  0  0  0  0  0  0
   16.8818   -9.2516  -16.5702 C   0  0  1  0  0  0  0  0  0  0  0  0
   18.1945   -9.9180  -16.9289 N   0  0  0  0  0  0  0  0  0  0  0  0
   18.0416  -11.3322  -17.1409 C   0  0  0  0  0  0  0  0  0  0  0  0
   19.2099   -9.5924  -15.9168 O   0  0  0  0  0  0  0  0  0  0  0  0
   19.2661  -10.2636  -14.8430 C   0  0  0  0  0  0  0  0  0  0  0  0
   23.0728   -9.5218  -16.0358 C   0  0  2  0  0  0  0  0  0  0  0  0
   22.5513   -8.1726  -15.6552 O   0  0  0  0  0  0  0  0  0  0  0  0
   22.5366   -7.2934  -16.7487 C   0  0  2  0  0  0  0  0  0  0  0  0
   21.1603   -8.2586  -15.0360 N   0  0  0  0  0  0  0  0  0  0  0  0
   20.1596   -8.5532  -16.0559 C   0  0  0  0  0  0  0  0  0  0  0  0
   20.7857   -6.9189  -14.4761 O   0  0  0  0  0  0  0  0  0  0  0  0
   21.4192   -6.4013  -13.3429 O   0  0  0  0  0  0  0  0  0  0  0  0
  1  2  1  0
  2  3  2  0
  4  5  1  0
  4  2  1  0
  6  7  1  0
  6  5  1  0
  7  8  1  0
  8  9  1  6
  8 10  1  0
 10 11  2  0
 13 12  1  6
 14 10  1  0
 14 13  1  0
 15 13  1  0
 15 16  2  0
 18 17  1  1
 18 20  1  0
 19 18  1  0
 20 21  1  1
 21 15  1  0
 22 20  1  0
 23 22  1  0
 24 22  2  0
M  END
$$$$
