RAT.pdb
     RDKit          3D

 24 23  0  0  1  0  0  0  0  0999 V2000
   14.7623  -14.2857  -19.2002 N   0  0  0  0  0  0  0  0  0  0  0  0
   15.7864  -15.1970  -18.8645 C   0  0  0  0  0  0  0  0  0  0  0  0
   15.6134  -16.4705  -18.9828 N   0  0  0  0  0  0  0  0  0  0  0  0
   17.0479  -14.7082  -18.3827 N   0  0  0  0  0  0  0  0  0  0  0  0
   17.1540  -13.2713  -18.1539 C   0  0  0  0  0  0  0  0  0  0  0  0
   18.5022  -12.9159  -17.5706 C   0  0  0  0  0  0  0  0  0  0  0  0
   18.5926  -11.4599  -17.1878 C   0  0  0  0  0  0  0  0  0  0  0  0
   19.9407  -10.8643  -17.5352 C   0  0  2  0  0  0  0  0  0  0  0  0
   20.9065  -11.9171  -17.8029 N   0  0  0  0  0  0  0  0  0  0  0  0
   20.3995  -10.0500  -16.3899 C   0  0  0  0  0  0  0  0  0  0  0  0
   19.6686   -9.1378  -15.9647 O   0  0  0  0  0  0  0  0  0  0  0  0
   16.3944  -17.1316  -18.7807 C   0  0  0  0  0  0  0  0  0  0  0  0
   23.4260  -10.0171  -14.0740 C   0  0  2  0  0  0  0  0  0  0  0  0
   22.1492   -9.4481  -14.6586 N   0  0  0  0  0  0  0  0  0  0  0  0
   21.6445  -10.2528  -15.7385 C   0  0  0  0  0  0  0  0  0  0  0  0
   22.3583   -8.0424  -15.0351 O   0  0  0  0  0  0  0  0  0  0  0  0
   23.0884   -7.7596  -16.0319 C   0  0  0  0  0  0  0  0  0  0  0  0
   20.3279   -5.6296  -16.6588 C   0  0  2  0  0  0  0  0  0  0  0  0
   20.6746   -5.0006  -15.3468 O   0  0  0  0  0  0  0  0  0  0  0  0
   19.6369   -5.1409  -14.4126 C   0  0  2  0  0  0  0  0  0  0  0  0
   21.9712   -5.5642  -14.7751 N   0  0  0  0  0  0  0  0  0  0  0  0
   21.7874   -6.9464  -14.3463 C   0  0  0  0  0  0  0  0  0  0  0  0
   22.3372   -4.8014  -13.5370 O   0  0  0  0  0  0  0  0  0  0  0  0
   22.6579   -3.4421  -13.5884 O   0  0  0  0  0  0  0  0  0  0  0  0
  1  2  1  0
  2  3  2  0
  4  5  1  0
  4  2  1  0
  6  7  1  0
  6  5  1  0
  7  8  1  0
  8  9  1  1
  8 10  1  0
 10 11  2  0
 13 12  1  1
 14 10  1  0
 14 13  1  0
 15 13  1  0
 15 16  2  0
 18 17  1  6
 18 20  1  0
 19 18  1  0
 20 21  1  1
 21 15  1  0
 22 20  1  0
 23 22  1  0
 24 22  2  0
M  END
$$$$
