RAT.pdb
     RDKit          3D

 24 23  0  0  1  0  0  0  0  0999 V2000
   30.8246  -22.2286  -11.2174 N   0  0  0  0  0  0  0  0  0  0  0  0
   30.3646  -21.8647   -9.9338 C   0  0  0  0  0  0  0  0  0  0  0  0
   31.1680  -21.8146   -8.9249 N   0  0  0  0  0  0  0  0  0  0  0  0
   28.9792  -21.5415   -9.7364 N   0  0  0  0  0  0  0  0  0  0  0  0
   28.0532  -21.9383  -10.7916 C   0  0  0  0  0  0  0  0  0  0  0  0
   27.6904  -20.7579  -11.6630 C   0  0  0  0  0  0  0  0  0  0  0  0
   26.2153  -20.4471  -11.6176 C   0  0  0  0  0  0  0  0  0  0  0  0
   25.4138  -21.3659  -12.5156 C   0  0  2  0  0  0  0  0  0  0  0  0
   26.2405  -21.8582  -13.6050 N   0  0  0  0  0  0  0  0  0  0  0  0
   24.2732  -20.6024  -13.0646 C   0  0  0  0  0  0  0  0  0  0  0  0
   23.4027  -20.1723  -12.2871 O   0  0  0  0  0  0  0  0  0  0  0  0
   30.8248  -21.5044   -7.9900 C   0  0  0  0  0  0  0  0  0  0  0  0
   23.4705  -18.6391  -16.1017 C   0  0  2  0  0  0  0  0  0  0  0  0
   23.0140  -19.5973  -15.0204 N   0  0  0  0  0  0  0  0  0  0  0  0
   24.1124  -20.3283  -14.4482 C   0  0  0  0  0  0  0  0  0  0  0  0
   21.9515  -20.4681  -15.5442 O   0  0  0  0  0  0  0  0  0  0  0  0
   22.2541  -21.5705  -16.0918 C   0  0  0  0  0  0  0  0  0  0  0  0
   18.9806  -22.5575  -14.2705 C   0  0  2  0  0  0  0  0  0  0  0  0
   18.4986  -21.4177  -15.1105 O   0  0  0  0  0  0  0  0  0  0  0  0
   18.1011  -20.3248  -14.3252 C   0  0  2  0  0  0  0  0  0  0  0  0
   19.5507  -20.9776  -16.1230 N   0  0  0  0  0  0  0  0  0  0  0  0
   20.5727  -20.1581  -15.4810 C   0  0  0  0  0  0  0  0  0  0  0  0
   18.9082  -20.0931  -17.1494 O   0  0  0  0  0  0  0  0  0  0  0  0
   17.9825  -20.5973  -18.0671 O   0  0  0  0  0  0  0  0  0  0  0  0
  1  2  1  0
  2  3  2  0
  4  5  1  0
  4  2  1  0
  6  7  1  0
  6  5  1  0
  7  8  1  0
  8  9  1  6
  8 10  1  0
 10 11  2  0
 13 12  1  1
 14 10  1  0
 14 13  1  0
 15 13  1  0
 15 16  2  0
 18 17  1  1
 18 20  1  0
 19 18  1  0
 20 21  1  6
 21 15  1  0
 22 20  1  0
 23 22  1  0
 24 22  2  0
M  END
$$$$
