RAT.pdb
     RDKit          3D

 24 23  0  0  1  0  0  0  0  0999 V2000
   12.5118  -20.7593    0.5259 N   0  0  0  0  0  0  0  0  0  0  0  0
   13.9220  -20.8078    0.5552 C   0  0  0  0  0  0  0  0  0  0  0  0
   14.5849  -20.3758    1.5748 N   0  0  0  0  0  0  0  0  0  0  0  0
   14.6417  -21.3469   -0.5647 N   0  0  0  0  0  0  0  0  0  0  0  0
   14.0406  -22.4879   -1.2468 C   0  0  0  0  0  0  0  0  0  0  0  0
   14.9230  -22.9673   -2.3763 C   0  0  0  0  0  0  0  0  0  0  0  0
   14.3232  -24.1401   -3.1107 C   0  0  0  0  0  0  0  0  0  0  0  0
   15.2279  -24.6396   -4.2174 C   0  0  2  0  0  0  0  0  0  0  0  0
   14.4615  -24.8824   -5.4283 N   0  0  0  0  0  0  0  0  0  0  0  0
   15.8601  -25.8988   -3.7698 C   0  0  0  0  0  0  0  0  0  0  0  0
   15.1518  -26.9093   -3.6137 O   0  0  0  0  0  0  0  0  0  0  0  0
   15.6275  -20.3531    1.5573 C   0  0  0  0  0  0  0  0  0  0  0  0
   19.3931  -27.1579   -3.1673 C   0  0  1  0  0  0  0  0  0  0  0  0
   17.8883  -27.2061   -2.9963 N   0  0  0  0  0  0  0  0  0  0  0  0
   17.2492  -26.0221   -3.5042 C   0  0  0  0  0  0  0  0  0  0  0  0
   17.5565  -27.4835   -1.5911 O   0  0  0  0  0  0  0  0  0  0  0  0
   17.6149  -26.5508   -0.7346 C   0  0  0  0  0  0  0  0  0  0  0  0
   14.4453  -28.1009    0.1270 C   0  0  2  0  0  0  0  0  0  0  0  0
   15.2926  -29.3070    0.3810 O   0  0  0  0  0  0  0  0  0  0  0  0
   14.9704  -30.3610   -0.4874 C   0  0  2  0  0  0  0  0  0  0  0  0
   16.7796  -28.9840    0.2807 N   0  0  0  0  0  0  0  0  0  0  0  0
   17.1644  -28.7538   -1.1076 C   0  0  0  0  0  0  0  0  0  0  0  0
   17.5744  -30.1740    0.7291 O   0  0  0  0  0  0  0  0  0  0  0  0
   17.5870  -30.5779    2.0671 O   0  0  0  0  0  0  0  0  0  0  0  0
  1  2  1  0
  2  3  2  0
  4  5  1  0
  4  2  1  0
  6  7  1  0
  6  5  1  0
  7  8  1  0
  8  9  1  6
  8 10  1  0
 10 11  2  0
 13 12  1  6
 14 10  1  0
 14 13  1  0
 15 13  1  0
 15 16  2  0
 18 17  1  1
 18 20  1  0
 19 18  1  0
 20 21  1  1
 21 15  1  0
 22 20  1  0
 23 22  1  0
 24 22  2  0
M  END
$$$$
