RAT.pdb
     RDKit          3D

 24 23  0  0  1  0  0  0  0  0999 V2000
   14.2088  -13.0091  -15.1875 N   0  0  0  0  0  0  0  0  0  0  0  0
   14.7719  -14.2904  -15.0050 C   0  0  0  0  0  0  0  0  0  0  0  0
   14.0330  -15.3484  -14.9825 N   0  0  0  0  0  0  0  0  0  0  0  0
   16.1918  -14.4300  -14.8417 N   0  0  0  0  0  0  0  0  0  0  0  0
   16.9789  -13.2016  -14.8394 C   0  0  0  0  0  0  0  0  0  0  0  0
   17.7576  -13.0575  -16.1266 C   0  0  0  0  0  0  0  0  0  0  0  0
   18.5899  -11.8000  -16.1522 C   0  0  0  0  0  0  0  0  0  0  0  0
   19.3949  -11.6781  -17.4290 C   0  0  2  0  0  0  0  0  0  0  0  0
   20.3783  -12.7452  -17.5123 N   0  0  0  0  0  0  0  0  0  0  0  0
   20.0826  -10.3695  -17.4232 C   0  0  0  0  0  0  0  0  0  0  0  0
   21.1993  -10.2751  -16.8835 O   0  0  0  0  0  0  0  0  0  0  0  0
   14.4510  -16.2814  -14.7761 C   0  0  0  0  0  0  0  0  0  0  0  0
   19.6090   -6.9727  -19.0280 C   0  0  1  0  0  0  0  0  0  0  0  0
   20.1236   -7.8883  -17.9359 N   0  0  0  0  0  0  0  0  0  0  0  0
   19.5331   -9.1977  -18.0067 C   0  0  0  0  0  0  0  0  0  0  0  0
   19.9481   -7.2460  -16.6252 O   0  0  0  0  0  0  0  0  0  0  0  0
   18.8736   -7.4227  -15.9764 C   0  0  0  0  0  0  0  0  0  0  0  0
   23.1590   -5.2465  -14.6621 C   0  0  2  0  0  0  0  0  0  0  0  0
   22.0166   -5.8353  -13.8970 O   0  0  0  0  0  0  0  0  0  0  0  0
   21.8281   -5.1899  -12.6653 C   0  0  1  0  0  0  0  0  0  0  0  0
   20.7227   -5.8084  -14.7037 N   0  0  0  0  0  0  0  0  0  0  0  0
   20.9196   -6.4190  -16.0139 C   0  0  0  0  0  0  0  0  0  0  0  0
   20.3394   -4.3841  -14.9742 O   0  0  0  0  0  0  0  0  0  0  0  0
   19.8159   -3.5681  -13.9675 O   0  0  0  0  0  0  0  0  0  0  0  0
  1  2  1  0
  2  3  2  0
  4  5  1  0
  4  2  1  0
  6  7  1  0
  6  5  1  0
  7  8  1  0
  8  9  1  1
  8 10  1  0
 10 11  2  0
 13 12  1  6
 14 10  1  0
 14 13  1  0
 15 13  1  0
 15 16  2  0
 18 17  1  1
 18 20  1  0
 19 18  1  0
 20 21  1  1
 21 15  1  0
 22 20  1  0
 23 22  1  0
 24 22  2  0
M  END
$$$$
