RAT.pdb
     RDKit          3D

 24 23  0  0  1  0  0  0  0  0999 V2000
   22.5072  -20.8755   -9.0029 N   0  0  0  0  0  0  0  0  0  0  0  0
   23.2493  -21.0305   -7.8124 C   0  0  0  0  0  0  0  0  0  0  0  0
   22.7364  -21.6004   -6.7742 N   0  0  0  0  0  0  0  0  0  0  0  0
   24.6010  -20.5498   -7.7454 N   0  0  0  0  0  0  0  0  0  0  0  0
   25.1305  -19.9031   -8.9411 C   0  0  0  0  0  0  0  0  0  0  0  0
   25.6581  -20.9272   -9.9195 C   0  0  0  0  0  0  0  0  0  0  0  0
   26.3115  -20.2871  -11.1186 C   0  0  0  0  0  0  0  0  0  0  0  0
   25.7752  -20.8426  -12.4212 C   0  0  2  0  0  0  0  0  0  0  0  0
   26.4353  -22.0955  -12.7483 N   0  0  0  0  0  0  0  0  0  0  0  0
   26.0309  -19.8537  -13.4900 C   0  0  0  0  0  0  0  0  0  0  0  0
   25.4913  -18.7351  -13.4209 O   0  0  0  0  0  0  0  0  0  0  0  0
   23.2846  -21.6829   -5.8908 C   0  0  0  0  0  0  0  0  0  0  0  0
   28.4323  -19.4324  -16.3654 C   0  0  2  0  0  0  0  0  0  0  0  0
   27.0932  -19.1998  -15.6956 N   0  0  0  0  0  0  0  0  0  0  0  0
   26.8690  -20.1117  -14.6064 C   0  0  0  0  0  0  0  0  0  0  0  0
   26.0223  -19.2288  -16.7024 O   0  0  0  0  0  0  0  0  0  0  0  0
   25.7232  -20.3209  -17.2721 C   0  0  0  0  0  0  0  0  0  0  0  0
   22.2463  -18.1850  -16.4601 C   0  0  2  0  0  0  0  0  0  0  0  0
   22.9573  -17.4129  -17.5257 O   0  0  0  0  0  0  0  0  0  0  0  0
   23.3358  -16.1376  -17.0789 C   0  0  2  0  0  0  0  0  0  0  0  0
   24.1758  -18.1649  -18.0506 N   0  0  0  0  0  0  0  0  0  0  0  0
   25.2764  -18.0928  -17.0958 C   0  0  0  0  0  0  0  0  0  0  0  0
   24.6737  -17.4909  -19.2941 O   0  0  0  0  0  0  0  0  0  0  0  0
   23.9318  -17.5100  -20.4785 O   0  0  0  0  0  0  0  0  0  0  0  0
  1  2  1  0
  2  3  2  0
  4  5  1  0
  4  2  1  0
  6  7  1  0
  6  5  1  0
  7  8  1  0
  8  9  1  6
  8 10  1  0
 10 11  2  0
 13 12  1  1
 14 10  1  0
 14 13  1  0
 15 13  1  0
 15 16  2  0
 18 17  1  6
 18 20  1  0
 19 18  1  0
 20 21  1  6
 21 15  1  0
 22 20  1  0
 23 22  1  0
 24 22  2  0
M  END
$$$$
