RAT.pdb
     RDKit          3D

 24 23  0  0  1  0  0  0  0  0999 V2000
   25.1701  -24.2498  -14.7862 N   0  0  0  0  0  0  0  0  0  0  0  0
   23.9755  -25.0000  -14.8288 C   0  0  0  0  0  0  0  0  0  0  0  0
   23.9743  -26.2347  -15.2048 N   0  0  0  0  0  0  0  0  0  0  0  0
   22.7334  -24.3879  -14.4477 N   0  0  0  0  0  0  0  0  0  0  0  0
   22.7377  -22.9389  -14.2781 C   0  0  0  0  0  0  0  0  0  0  0  0
   22.6471  -22.2390  -15.6146 C   0  0  0  0  0  0  0  0  0  0  0  0
   22.5457  -20.7413  -15.4687 C   0  0  0  0  0  0  0  0  0  0  0  0
   23.3244  -20.2335  -14.2734 C   0  0  2  0  0  0  0  0  0  0  0  0
   22.5356  -20.3677  -13.0600 N   0  0  0  0  0  0  0  0  0  0  0  0
   23.6484  -18.8089  -14.4993 C   0  0  0  0  0  0  0  0  0  0  0  0
   22.7650  -17.9518  -14.3202 O   0  0  0  0  0  0  0  0  0  0  0  0
   23.0927  -26.7919  -15.1890 C   0  0  0  0  0  0  0  0  0  0  0  0
   26.7425  -16.7133  -14.8336 C   0  0  1  0  0  0  0  0  0  0  0  0
   25.2829  -16.9815  -15.1394 N   0  0  0  0  0  0  0  0  0  0  0  0
   24.9284  -18.3571  -14.9149 C   0  0  0  0  0  0  0  0  0  0  0  0
   24.9666  -16.5182  -16.4983 O   0  0  0  0  0  0  0  0  0  0  0  0
   25.4234  -17.1466  -17.4999 C   0  0  0  0  0  0  0  0  0  0  0  0
   21.6764  -16.0428  -18.5311 C   0  0  2  0  0  0  0  0  0  0  0  0
   22.3884  -14.7404  -18.3468 O   0  0  0  0  0  0  0  0  0  0  0  0
   21.8517  -14.0007  -17.2820 C   0  0  2  0  0  0  0  0  0  0  0  0
   23.8863  -14.9395  -18.1413 N   0  0  0  0  0  0  0  0  0  0  0  0
   24.1647  -15.3875  -16.7812 C   0  0  0  0  0  0  0  0  0  0  0  0
   24.5836  -13.6196  -18.2836 O   0  0  0  0  0  0  0  0  0  0  0  0
   24.6338  -12.9521  -19.5105 O   0  0  0  0  0  0  0  0  0  0  0  0
  1  2  1  0
  2  3  2  0
  4  5  1  0
  4  2  1  0
  6  7  1  0
  6  5  1  0
  7  8  1  0
  8  9  1  1
  8 10  1  0
 10 11  2  0
 13 12  1  1
 14 10  1  0
 14 13  1  0
 15 13  1  0
 15 16  2  0
 18 17  1  6
 18 20  1  0
 19 18  1  0
 20 21  1  6
 21 15  1  0
 22 20  1  0
 23 22  1  0
 24 22  2  0
M  END
$$$$
