RAT.pdb
     RDKit          3D

 24 23  0  0  1  0  0  0  0  0999 V2000
   14.6088  -12.3933  -14.1059 N   0  0  0  0  0  0  0  0  0  0  0  0
   15.3334  -12.8037  -15.2454 C   0  0  0  0  0  0  0  0  0  0  0  0
   14.8725  -13.7100  -16.0404 N   0  0  0  0  0  0  0  0  0  0  0  0
   16.6074  -12.2071  -15.5350 N   0  0  0  0  0  0  0  0  0  0  0  0
   16.8080  -10.8326  -15.0892 C   0  0  0  0  0  0  0  0  0  0  0  0
   18.1403  -10.3003  -15.5643 C   0  0  0  0  0  0  0  0  0  0  0  0
   18.3440   -8.8540  -15.1882 C   0  0  0  0  0  0  0  0  0  0  0  0
   18.7504   -8.6965  -13.7381 C   0  0  2  0  0  0  0  0  0  0  0  0
   17.6321   -9.0030  -12.8617 N   0  0  0  0  0  0  0  0  0  0  0  0
   19.1797   -7.2982  -13.5237 C   0  0  0  0  0  0  0  0  0  0  0  0
   18.3156   -6.4109  -13.4088 O   0  0  0  0  0  0  0  0  0  0  0  0
   15.4437  -14.0486  -16.8447 C   0  0  0  0  0  0  0  0  0  0  0  0
   22.3911   -5.5520  -12.5761 C   0  0  1  0  0  0  0  0  0  0  0  0
   20.9968   -5.5682  -13.1688 N   0  0  0  0  0  0  0  0  0  0  0  0
   20.5412   -6.9050  -13.4403 C   0  0  0  0  0  0  0  0  0  0  0  0
   20.9477   -4.6910  -14.3477 O   0  0  0  0  0  0  0  0  0  0  0  0
   21.3234   -5.1308  -15.4756 C   0  0  0  0  0  0  0  0  0  0  0  0
   18.0157   -2.8264  -16.0233 C   0  0  2  0  0  0  0  0  0  0  0  0
   19.0756   -1.8452  -15.6348 O   0  0  0  0  0  0  0  0  0  0  0  0
   18.7543   -1.1774  -14.4432 C   0  0  2  0  0  0  0  0  0  0  0  0
   20.4421   -2.5102  -15.5084 N   0  0  0  0  0  0  0  0  0  0  0  0
   20.4982   -3.3500  -14.3168 C   0  0  0  0  0  0  0  0  0  0  0  0
   21.4882   -1.4543  -15.3092 O   0  0  0  0  0  0  0  0  0  0  0  0
   21.7870   -0.5282  -16.3123 O   0  0  0  0  0  0  0  0  0  0  0  0
  1  2  1  0
  2  3  2  0
  4  5  1  0
  4  2  1  0
  6  7  1  0
  6  5  1  0
  7  8  1  0
  8  9  1  1
  8 10  1  0
 10 11  2  0
 13 12  1  1
 14 10  1  0
 14 13  1  0
 15 13  1  0
 15 16  2  0
 18 17  1  6
 18 20  1  0
 19 18  1  0
 20 21  1  6
 21 15  1  0
 22 20  1  0
 23 22  1  0
 24 22  2  0
M  END
$$$$
