RAT.pdb
     RDKit          3D

 24 23  0  0  1  0  0  0  0  0999 V2000
   23.5472  -22.0289   -7.6315 N   0  0  0  0  0  0  0  0  0  0  0  0
   22.3043  -21.3659   -7.7171 C   0  0  0  0  0  0  0  0  0  0  0  0
   21.3177  -21.6934   -6.9520 N   0  0  0  0  0  0  0  0  0  0  0  0
   22.1242  -20.3055   -8.6688 N   0  0  0  0  0  0  0  0  0  0  0  0
   22.9562  -20.3466   -9.8665 C   0  0  0  0  0  0  0  0  0  0  0  0
   24.4234  -20.3134   -9.5055 C   0  0  0  0  0  0  0  0  0  0  0  0
   25.3110  -20.3098  -10.7249 C   0  0  0  0  0  0  0  0  0  0  0  0
   24.9075  -21.3739  -11.7237 C   0  0  2  0  0  0  0  0  0  0  0  0
   25.9245  -22.4095  -11.8003 N   0  0  0  0  0  0  0  0  0  0  0  0
   24.7499  -20.7348  -13.0474 C   0  0  0  0  0  0  0  0  0  0  0  0
   25.7647  -20.3740  -13.6697 O   0  0  0  0  0  0  0  0  0  0  0  0
   20.4133  -21.1764   -7.0042 C   0  0  0  0  0  0  0  0  0  0  0  0
   21.8403  -19.8809  -15.3579 C   0  0  1  0  0  0  0  0  0  0  0  0
   23.2936  -19.8645  -14.9295 N   0  0  0  0  0  0  0  0  0  0  0  0
   23.4885  -20.5061  -13.6573 C   0  0  0  0  0  0  0  0  0  0  0  0
   23.8070  -18.4873  -14.9662 O   0  0  0  0  0  0  0  0  0  0  0  0
   23.4949  -17.6745  -14.0449 C   0  0  0  0  0  0  0  0  0  0  0  0
   27.0934  -16.7314  -14.5064 C   0  0  2  0  0  0  0  0  0  0  0  0
   26.6259  -16.5301  -15.9129 O   0  0  0  0  0  0  0  0  0  0  0  0
   27.2112  -17.4536  -16.7925 C   0  0  2  0  0  0  0  0  0  0  0  0
   25.1062  -16.5997  -16.0186 N   0  0  0  0  0  0  0  0  0  0  0  0
   24.6502  -17.9850  -15.9850 C   0  0  0  0  0  0  0  0  0  0  0  0
   24.6794  -16.0651  -17.3530 O   0  0  0  0  0  0  0  0  0  0  0  0
   24.8372  -14.7155  -17.6802 O   0  0  0  0  0  0  0  0  0  0  0  0
  1  2  1  0
  2  3  2  0
  4  5  1  0
  4  2  1  0
  6  7  1  0
  6  5  1  0
  7  8  1  0
  8  9  1  6
  8 10  1  0
 10 11  2  0
 13 12  1  6
 14 10  1  0
 14 13  1  0
 15 13  1  0
 15 16  2  0
 18 17  1  6
 18 20  1  0
 19 18  1  0
 20 21  1  6
 21 15  1  0
 22 20  1  0
 23 22  1  0
 24 22  2  0
M  END
$$$$
