RAT.pdb
     RDKit          3D

 24 23  0  0  1  0  0  0  0  0999 V2000
   18.2575  -16.7221  -17.4559 N   0  0  0  0  0  0  0  0  0  0  0  0
   18.0117  -17.6634  -16.4334 C   0  0  0  0  0  0  0  0  0  0  0  0
   16.9076  -18.3304  -16.3899 N   0  0  0  0  0  0  0  0  0  0  0  0
   19.0024  -17.8913  -15.4189 N   0  0  0  0  0  0  0  0  0  0  0  0
   20.2159  -17.0846  -15.4898 C   0  0  0  0  0  0  0  0  0  0  0  0
   21.2983  -17.8050  -16.2602 C   0  0  0  0  0  0  0  0  0  0  0  0
   22.5850  -17.0196  -16.3064 C   0  0  0  0  0  0  0  0  0  0  0  0
   23.6026  -17.6512  -17.2329 C   0  0  2  0  0  0  0  0  0  0  0  0
   22.9403  -18.4934  -18.2151 N   0  0  0  0  0  0  0  0  0  0  0  0
   24.5273  -18.4701  -16.4206 C   0  0  0  0  0  0  0  0  0  0  0  0
   24.1592  -19.5929  -16.0322 O   0  0  0  0  0  0  0  0  0  0  0  0
   16.7209  -18.9943  -15.6074 C   0  0  0  0  0  0  0  0  0  0  0  0
   28.1103  -18.1618  -15.1671 C   0  0  1  0  0  0  0  0  0  0  0  0
   26.7207  -18.7654  -15.1865 N   0  0  0  0  0  0  0  0  0  0  0  0
   25.8300  -18.0417  -16.0533 C   0  0  0  0  0  0  0  0  0  0  0  0
   26.2138  -18.8902  -13.8121 O   0  0  0  0  0  0  0  0  0  0  0  0
   25.7487  -17.8717  -13.2179 C   0  0  0  0  0  0  0  0  0  0  0  0
   24.1858  -22.0090  -12.4431 C   0  0  2  0  0  0  0  0  0  0  0  0
   24.3092  -20.7411  -11.6592 O   0  0  0  0  0  0  0  0  0  0  0  0
   23.9016  -20.9116  -10.3273 C   0  0  1  0  0  0  0  0  0  0  0  0
   25.7286  -20.1853  -11.7036 N   0  0  0  0  0  0  0  0  0  0  0  0
   26.2059  -20.1004  -13.0795 C   0  0  0  0  0  0  0  0  0  0  0  0
   26.6546  -21.1409  -11.0120 O   0  0  0  0  0  0  0  0  0  0  0  0
   26.6069  -21.3265   -9.6276 O   0  0  0  0  0  0  0  0  0  0  0  0
  1  2  1  0
  2  3  2  0
  4  5  1  0
  4  2  1  0
  6  7  1  0
  6  5  1  0
  7  8  1  0
  8  9  1  6
  8 10  1  0
 10 11  2  0
 13 12  1  6
 14 10  1  0
 14 13  1  0
 15 13  1  0
 15 16  2  0
 18 17  1  6
 18 20  1  0
 19 18  1  0
 20 21  1  6
 21 15  1  0
 22 20  1  0
 23 22  1  0
 24 22  2  0
M  END
$$$$
