WFP.pdb
     RDKit          3D

 33 36  0  0  1  0  0  0  0  0999 V2000
   24.4138  -17.7027  -17.4551 N   0  0  0  0  0  0  0  0  0  0  0  0
   23.9213  -18.8067  -16.6938 C   0  0  1  0  0  0  0  0  0  0  0  0
   24.0248  -20.0926  -17.4568 C   0  0  0  0  0  0  0  0  0  0  0  0
   23.1091  -20.2343  -18.5828 C   0  0  0  0  0  0  0  0  0  0  0  0
   23.2898  -20.9733  -19.7208 C   0  0  0  0  0  0  0  0  0  0  0  0
   22.2177  -20.8922  -20.5194 N   0  0  0  0  0  0  0  0  0  0  0  0
   21.3268  -20.0946  -19.9049 C   0  0  0  0  0  0  0  0  0  0  0  0
   20.0793  -19.7278  -20.3605 C   0  0  0  0  0  0  0  0  0  0  0  0
   19.3207  -18.8945  -19.5706 C   0  0  0  0  0  0  0  0  0  0  0  0
   19.8186  -18.4428  -18.3462 C   0  0  0  0  0  0  0  0  0  0  0  0
   21.0708  -18.8304  -17.9227 C   0  0  0  0  0  0  0  0  0  0  0  0
   21.8514  -19.6636  -18.6891 C   0  0  0  0  0  0  0  0  0  0  0  0
   24.6828  -18.9009  -15.4035 C   0  0  0  0  0  0  0  0  0  0  0  0
   25.8535  -18.4994  -15.3276 O   0  0  0  0  0  0  0  0  0  0  0  0
   24.1356  -19.4370  -14.2385 N   0  0  0  0  0  0  0  0  0  0  0  0
   24.7262  -19.5252  -12.9321 C   0  0  1  0  0  0  0  0  0  0  0  0
   23.8369  -19.3977  -11.7791 C   0  0  0  0  0  0  0  0  0  0  0  0
   24.6441  -19.4947  -10.5000 C   0  0  0  0  0  0  0  0  0  0  0  0
   25.1606  -18.3417   -9.9606 C   0  0  0  0  0  0  0  0  0  0  0  0
   25.9118  -18.3945   -8.7805 C   0  0  0  0  0  0  0  0  0  0  0  0
   26.1441  -19.6024   -8.1435 C   0  0  0  0  0  0  0  0  0  0  0  0
   25.6200  -20.7523   -8.6967 C   0  0  0  0  0  0  0  0  0  0  0  0
   24.8794  -20.6697   -9.8656 C   0  0  0  0  0  0  0  0  0  0  0  0
   25.5036  -20.7817  -12.9447 C   0  0  0  0  0  0  0  0  0  0  0  0
   24.8302  -21.8666  -13.1377 O   0  0  0  0  0  0  0  0  0  0  0  0
   26.9255  -20.8937  -12.7628 N   0  0  0  0  0  0  0  0  0  0  0  0
   27.9197  -19.8737  -12.6356 C   0  0  0  0  0  0  0  0  0  0  0  0
   29.2709  -20.6054  -12.7651 C   0  0  0  0  0  0  0  0  0  0  0  0
   28.9338  -21.9469  -12.1617 C   0  0  0  0  0  0  0  0  0  0  0  0
   27.5551  -22.1900  -12.7178 C   0  0  1  0  0  0  0  0  0  0  0  0
   26.8472  -23.1463  -11.8076 C   0  0  0  0  0  0  0  0  0  0  0  0
   25.7331  -22.7961  -11.1086 O   0  0  0  0  0  0  0  0  0  0  0  0
   27.3218  -24.3016  -11.7054 O   0  0  0  0  0  0  0  0  0  0  0  0
  2  1  1  6
  2 13  1  0
  2  3  1  0
  4  3  1  0
  4  5  2  0
  6  5  1  0
  7  6  1  0
  8  7  2  0
  9  8  1  0
 10  9  2  0
 10 11  1  0
 11 12  2  0
 12  7  1  0
 12  4  1  0
 13 14  2  0
 15 16  1  0
 15 13  1  0
 16 17  1  1
 18 17  1  0
 19 18  2  0
 20 19  1  0
 21 20  2  0
 21 22  1  0
 22 23  2  0
 23 18  1  0
 24 25  2  0
 24 16  1  0
 26 24  1  0
 27 26  1  0
 28 27  1  0
 28 29  1  0
 29 30  1  0
 30 26  1  0
 30 31  1  1
 32 31  1  0
 33 31  2  0
M  END
$$$$
