WFP.pdb
     RDKit          3D

 33 36  0  0  1  0  0  0  0  0999 V2000
   24.4885  -20.6187  -11.8931 N   0  0  0  0  0  0  0  0  0  0  0  0
   25.7018  -20.4314  -11.1625 C   0  0  1  0  0  0  0  0  0  0  0  0
   26.4824  -19.2614  -11.6805 C   0  0  0  0  0  0  0  0  0  0  0  0
   27.5370  -19.5791  -12.6361 C   0  0  0  0  0  0  0  0  0  0  0  0
   27.6767  -19.1109  -13.9148 C   0  0  0  0  0  0  0  0  0  0  0  0
   28.7894  -19.5940  -14.4825 N   0  0  0  0  0  0  0  0  0  0  0  0
   29.3850  -20.3856  -13.5735 C   0  0  0  0  0  0  0  0  0  0  0  0
   30.5573  -21.0940  -13.7220 C   0  0  0  0  0  0  0  0  0  0  0  0
   30.9954  -21.8511  -12.6596 C   0  0  0  0  0  0  0  0  0  0  0  0
   30.2585  -21.8889  -11.4736 C   0  0  0  0  0  0  0  0  0  0  0  0
   29.0903  -21.1673  -11.3611 C   0  0  0  0  0  0  0  0  0  0  0  0
   28.6282  -20.4003  -12.4046 C   0  0  0  0  0  0  0  0  0  0  0  0
   25.3830  -20.2451   -9.7074 C   0  0  0  0  0  0  0  0  0  0  0  0
   24.5650  -19.3876   -9.3424 O   0  0  0  0  0  0  0  0  0  0  0  0
   25.9759  -21.0037   -8.6990 N   0  0  0  0  0  0  0  0  0  0  0  0
   25.8818  -20.8288   -7.2764 C   0  0  1  0  0  0  0  0  0  0  0  0
   25.3594  -21.9461   -6.4918 C   0  0  0  0  0  0  0  0  0  0  0  0
   25.2716  -21.5466   -5.0325 C   0  0  0  0  0  0  0  0  0  0  0  0
   26.2998  -21.8987   -4.1923 C   0  0  0  0  0  0  0  0  0  0  0  0
   26.2513  -21.5467   -2.8383 C   0  0  0  0  0  0  0  0  0  0  0  0
   25.1725  -20.8428   -2.3288 C   0  0  0  0  0  0  0  0  0  0  0  0
   24.1468  -20.4963   -3.1837 C   0  0  0  0  0  0  0  0  0  0  0  0
   24.2222  -20.8576   -4.5200 C   0  0  0  0  0  0  0  0  0  0  0  0
   27.2259  -20.3846   -6.8530 C   0  0  0  0  0  0  0  0  0  0  0  0
   28.2175  -21.1105   -7.2502 O   0  0  0  0  0  0  0  0  0  0  0  0
   27.5158  -19.2290   -6.0479 N   0  0  0  0  0  0  0  0  0  0  0  0
   26.6693  -18.1452   -5.6561 C   0  0  0  0  0  0  0  0  0  0  0  0
   27.6172  -17.0843   -5.0611 C   0  0  0  0  0  0  0  0  0  0  0  0
   28.6949  -17.9580   -4.4673 C   0  0  0  0  0  0  0  0  0  0  0  0
   28.8441  -19.0165   -5.5288 C   0  0  1  0  0  0  0  0  0  0  0  0
   29.4181  -20.2425   -4.8874 C   0  0  0  0  0  0  0  0  0  0  0  0
   28.7514  -21.4287   -4.8585 O   0  0  0  0  0  0  0  0  0  0  0  0
   30.5531  -20.1411   -4.3658 O   0  0  0  0  0  0  0  0  0  0  0  0
  2  1  1  6
  2 13  1  0
  2  3  1  0
  4  3  1  0
  4  5  2  0
  6  5  1  0
  7  6  1  0
  8  7  2  0
  9  8  1  0
 10  9  2  0
 10 11  1  0
 11 12  2  0
 12  7  1  0
 12  4  1  0
 13 14  2  0
 15 16  1  0
 15 13  1  0
 16 17  1  1
 18 17  1  0
 19 18  2  0
 20 19  1  0
 21 20  2  0
 21 22  1  0
 22 23  2  0
 23 18  1  0
 24 25  2  0
 24 16  1  0
 26 24  1  0
 27 26  1  0
 28 27  1  0
 28 29  1  0
 29 30  1  0
 30 26  1  0
 30 31  1  1
 32 31  1  0
 33 31  2  0
M  END
$$$$
