WFP.pdb
     RDKit          3D

 33 36  0  0  1  0  0  0  0  0999 V2000
   25.4521  -18.8703  -12.4247 N   0  0  0  0  0  0  0  0  0  0  0  0
   25.0956  -19.6958  -11.3145 C   0  0  1  0  0  0  0  0  0  0  0  0
   24.5808  -21.0302  -11.7625 C   0  0  0  0  0  0  0  0  0  0  0  0
   23.2653  -21.0209  -12.3915 C   0  0  0  0  0  0  0  0  0  0  0  0
   22.9456  -21.3946  -13.6689 C   0  0  0  0  0  0  0  0  0  0  0  0
   21.6282  -21.2855  -13.8842 N   0  0  0  0  0  0  0  0  0  0  0  0
   21.0774  -20.8361  -12.7430 C   0  0  0  0  0  0  0  0  0  0  0  0
   19.7461  -20.5744  -12.5035 C   0  0  0  0  0  0  0  0  0  0  0  0
   19.3905  -20.1153  -11.2559 C   0  0  0  0  0  0  0  0  0  0  0  0
   20.3656  -19.9250  -10.2740 C   0  0  0  0  0  0  0  0  0  0  0  0
   21.6876  -20.1973  -10.5493 C   0  0  0  0  0  0  0  0  0  0  0  0
   22.0733  -20.6588  -11.7858 C   0  0  0  0  0  0  0  0  0  0  0  0
   26.2883  -19.8684  -10.4193 C   0  0  0  0  0  0  0  0  0  0  0  0
   27.4388  -19.8104  -10.8779 O   0  0  0  0  0  0  0  0  0  0  0  0
   26.1792  -20.1035   -9.0493 N   0  0  0  0  0  0  0  0  0  0  0  0
   27.1763  -19.9281   -8.0304 C   0  0  1  0  0  0  0  0  0  0  0  0
   26.7122  -19.6513   -6.6721 C   0  0  0  0  0  0  0  0  0  0  0  0
   27.9008  -19.3675   -5.7757 C   0  0  0  0  0  0  0  0  0  0  0  0
   28.3827  -20.3813   -4.9837 C   0  0  0  0  0  0  0  0  0  0  0  0
   29.4787  -20.1542   -4.1430 C   0  0  0  0  0  0  0  0  0  0  0  0
   30.0895  -18.9117   -4.0974 C   0  0  0  0  0  0  0  0  0  0  0  0
   29.5947  -17.9027   -4.8975 C   0  0  0  0  0  0  0  0  0  0  0  0
   28.5086  -18.1567   -5.7207 C   0  0  0  0  0  0  0  0  0  0  0  0
   28.0421  -21.1213   -8.1290 C   0  0  0  0  0  0  0  0  0  0  0  0
   27.4579  -22.2634   -7.9800 O   0  0  0  0  0  0  0  0  0  0  0  0
   29.4591  -21.1153   -8.3735 N   0  0  0  0  0  0  0  0  0  0  0  0
   30.3336  -20.0283   -8.6875 C   0  0  0  0  0  0  0  0  0  0  0  0
   31.6582  -20.6861   -9.1240 C   0  0  0  0  0  0  0  0  0  0  0  0
   31.6549  -21.9354   -8.2776 C   0  0  0  0  0  0  0  0  0  0  0  0
   30.2078  -22.3472   -8.3531 C   0  0  1  0  0  0  0  0  0  0  0  0
   29.9003  -23.1920   -7.1549 C   0  0  0  0  0  0  0  0  0  0  0  0
   30.4664  -24.4145   -6.9618 O   0  0  0  0  0  0  0  0  0  0  0  0
   29.0882  -22.7310   -6.3191 O   0  0  0  0  0  0  0  0  0  0  0  0
  2  1  1  6
  2 13  1  0
  2  3  1  0
  4  3  1  0
  4  5  2  0
  6  5  1  0
  7  6  1  0
  8  7  2  0
  9  8  1  0
 10  9  2  0
 10 11  1  0
 11 12  2  0
 12  7  1  0
 12  4  1  0
 13 14  2  0
 15 16  1  0
 15 13  1  0
 16 17  1  1
 18 17  1  0
 19 18  2  0
 20 19  1  0
 21 20  2  0
 21 22  1  0
 22 23  2  0
 23 18  1  0
 24 25  2  0
 24 16  1  0
 26 24  1  0
 27 26  1  0
 28 27  1  0
 28 29  1  0
 29 30  1  0
 30 26  1  0
 30 31  1  1
 32 31  1  0
 33 31  2  0
M  END
$$$$
