WFP.pdb
     RDKit          3D

 33 36  0  0  1  0  0  0  0  0999 V2000
   41.0107  -26.9118    2.3094 N   0  0  0  0  0  0  0  0  0  0  0  0
   39.6849  -27.2656    2.7069 C   0  0  1  0  0  0  0  0  0  0  0  0
   39.5511  -28.7421    2.9280 C   0  0  0  0  0  0  0  0  0  0  0  0
   38.4773  -29.3964    2.1897 C   0  0  0  0  0  0  0  0  0  0  0  0
   38.5239  -29.9055    0.9199 C   0  0  0  0  0  0  0  0  0  0  0  0
   37.3542  -30.4655    0.5854 N   0  0  0  0  0  0  0  0  0  0  0  0
   36.5323  -30.3232    1.6399 C   0  0  0  0  0  0  0  0  0  0  0  0
   35.2259  -30.7481    1.7451 C   0  0  0  0  0  0  0  0  0  0  0  0
   34.5566  -30.4989    2.9214 C   0  0  0  0  0  0  0  0  0  0  0  0
   35.1992  -29.8317    3.9668 C   0  0  0  0  0  0  0  0  0  0  0  0
   36.5068  -29.4214    3.8260 C   0  0  0  0  0  0  0  0  0  0  0  0
   37.2021  -29.6576    2.6635 C   0  0  0  0  0  0  0  0  0  0  0  0
   39.3222  -26.5144    3.9550 C   0  0  0  0  0  0  0  0  0  0  0  0
   40.0571  -26.5509    4.9530 O   0  0  0  0  0  0  0  0  0  0  0  0
   38.1616  -25.7502    4.0687 N   0  0  0  0  0  0  0  0  0  0  0  0
   37.7185  -24.9582    5.1821 C   0  0  1  0  0  0  0  0  0  0  0  0
   37.0341  -23.7009    4.8864 C   0  0  0  0  0  0  0  0  0  0  0  0
   36.7543  -22.9575    6.1772 C   0  0  0  0  0  0  0  0  0  0  0  0
   37.8095  -22.3924    6.8513 C   0  0  0  0  0  0  0  0  0  0  0  0
   37.5876  -21.6991    8.0471 C   0  0  0  0  0  0  0  0  0  0  0  0
   36.3089  -21.5738    8.5650 C   0  0  0  0  0  0  0  0  0  0  0  0
   35.2589  -22.1469    7.8780 C   0  0  0  0  0  0  0  0  0  0  0  0
   35.5084  -22.8268    6.6959 C   0  0  0  0  0  0  0  0  0  0  0  0
   36.9259  -25.8813    6.0205 C   0  0  0  0  0  0  0  0  0  0  0  0
   35.8080  -26.2894    5.5188 O   0  0  0  0  0  0  0  0  0  0  0  0
   37.2914  -26.3551    7.3280 N   0  0  0  0  0  0  0  0  0  0  0  0
   38.4917  -26.1507    8.0780 C   0  0  0  0  0  0  0  0  0  0  0  0
   38.4073  -27.1414    9.2567 C   0  0  0  0  0  0  0  0  0  0  0  0
   36.9169  -27.1925    9.4872 C   0  0  0  0  0  0  0  0  0  0  0  0
   36.3933  -27.2005    8.0746 C   0  0  1  0  0  0  0  0  0  0  0  0
   34.9893  -26.6786    8.0949 C   0  0  0  0  0  0  0  0  0  0  0  0
   33.9114  -27.4956    8.2466 O   0  0  0  0  0  0  0  0  0  0  0  0
   34.8332  -25.4421    7.9636 O   0  0  0  0  0  0  0  0  0  0  0  0
  2  1  1  1
  2 13  1  0
  2  3  1  0
  4  3  1  0
  4  5  2  0
  6  5  1  0
  7  6  1  0
  8  7  2  0
  9  8  1  0
 10  9  2  0
 10 11  1  0
 11 12  2  0
 12  7  1  0
 12  4  1  0
 13 14  2  0
 15 16  1  0
 15 13  1  0
 16 17  1  6
 18 17  1  0
 19 18  2  0
 20 19  1  0
 21 20  2  0
 21 22  1  0
 22 23  2  0
 23 18  1  0
 24 25  2  0
 24 16  1  0
 26 24  1  0
 27 26  1  0
 28 27  1  0
 28 29  1  0
 29 30  1  0
 30 26  1  0
 30 31  1  1
 32 31  1  0
 33 31  2  0
M  END
$$$$
