WFP.pdb
     RDKit          3D

 33 36  0  0  1  0  0  0  0  0999 V2000
   26.5209  -20.3727  -12.6028 N   0  0  0  0  0  0  0  0  0  0  0  0
   25.8259  -20.6856  -11.3945 C   0  0  1  0  0  0  0  0  0  0  0  0
   24.6524  -21.5824  -11.6498 C   0  0  0  0  0  0  0  0  0  0  0  0
   23.5029  -20.9521  -12.2883 C   0  0  0  0  0  0  0  0  0  0  0  0
   23.1179  -21.0453  -13.5986 C   0  0  0  0  0  0  0  0  0  0  0  0
   21.9890  -20.3581  -13.8158 N   0  0  0  0  0  0  0  0  0  0  0  0
   21.6294  -19.8084  -12.6428 C   0  0  0  0  0  0  0  0  0  0  0  0
   20.5309  -19.0151  -12.3930 C   0  0  0  0  0  0  0  0  0  0  0  0
   20.3460  -18.5499  -11.1112 C   0  0  0  0  0  0  0  0  0  0  0  0
   21.2571  -18.8818  -10.1058 C   0  0  0  0  0  0  0  0  0  0  0  0
   22.3445  -19.6777  -10.3923 C   0  0  0  0  0  0  0  0  0  0  0  0
   22.5549  -20.1589  -11.6631 C   0  0  0  0  0  0  0  0  0  0  0  0
   26.7757  -21.3290  -10.4262 C   0  0  0  0  0  0  0  0  0  0  0  0
   27.7722  -21.9459  -10.8309 O   0  0  0  0  0  0  0  0  0  0  0  0
   26.5984  -21.2779   -9.0442 N   0  0  0  0  0  0  0  0  0  0  0  0
   27.5336  -20.8580   -8.0381 C   0  0  1  0  0  0  0  0  0  0  0  0
   28.1295  -19.5310   -8.1819 C   0  0  0  0  0  0  0  0  0  0  0  0
   29.0447  -19.2535   -7.0061 C   0  0  0  0  0  0  0  0  0  0  0  0
   30.1671  -20.0301   -6.8502 C   0  0  0  0  0  0  0  0  0  0  0  0
   31.0341  -19.8021   -5.7751 C   0  0  0  0  0  0  0  0  0  0  0  0
   30.7746  -18.7967   -4.8582 C   0  0  0  0  0  0  0  0  0  0  0  0
   29.6436  -18.0250   -5.0267 C   0  0  0  0  0  0  0  0  0  0  0  0
   28.8035  -18.2730   -6.1012 C   0  0  0  0  0  0  0  0  0  0  0  0
   26.8321  -21.0564   -6.7530 C   0  0  0  0  0  0  0  0  0  0  0  0
   25.6692  -20.5046   -6.6473 O   0  0  0  0  0  0  0  0  0  0  0  0
   27.3298  -21.8016   -5.6285 N   0  0  0  0  0  0  0  0  0  0  0  0
   28.5254  -22.5745   -5.4938 C   0  0  0  0  0  0  0  0  0  0  0  0
   28.3537  -23.3619   -4.1790 C   0  0  0  0  0  0  0  0  0  0  0  0
   27.5266  -22.3953   -3.3674 C   0  0  0  0  0  0  0  0  0  0  0  0
   26.5690  -21.8717   -4.4057 C   0  0  1  0  0  0  0  0  0  0  0  0
   26.0767  -20.5315   -3.9524 C   0  0  0  0  0  0  0  0  0  0  0  0
   25.0925  -20.3943   -3.0224 O   0  0  0  0  0  0  0  0  0  0  0  0
   26.6076  -19.5195   -4.4666 O   0  0  0  0  0  0  0  0  0  0  0  0
  2  1  1  6
  2 13  1  0
  2  3  1  0
  4  3  1  0
  4  5  2  0
  6  5  1  0
  7  6  1  0
  8  7  2  0
  9  8  1  0
 10  9  2  0
 10 11  1  0
 11 12  2  0
 12  7  1  0
 12  4  1  0
 13 14  2  0
 15 16  1  0
 15 13  1  0
 16 17  1  6
 18 17  1  0
 19 18  2  0
 20 19  1  0
 21 20  2  0
 21 22  1  0
 22 23  2  0
 23 18  1  0
 24 25  2  0
 24 16  1  0
 26 24  1  0
 27 26  1  0
 28 27  1  0
 28 29  1  0
 29 30  1  0
 30 26  1  0
 30 31  1  1
 32 31  1  0
 33 31  2  0
M  END
$$$$
