WFP.pdb
     RDKit          3D

 33 36  0  0  1  0  0  0  0  0999 V2000
   21.6493  -19.8083  -13.3114 N   0  0  0  0  0  0  0  0  0  0  0  0
   22.9028  -20.4791  -13.4504 C   0  0  1  0  0  0  0  0  0  0  0  0
   23.4992  -20.2577  -14.8076 C   0  0  0  0  0  0  0  0  0  0  0  0
   22.6615  -20.6453  -15.9364 C   0  0  0  0  0  0  0  0  0  0  0  0
   22.3175  -19.8869  -17.0228 C   0  0  0  0  0  0  0  0  0  0  0  0
   21.5617  -20.5891  -17.8768 N   0  0  0  0  0  0  0  0  0  0  0  0
   21.4060  -21.8160  -17.3496 C   0  0  0  0  0  0  0  0  0  0  0  0
   20.7003  -22.8721  -17.8836 C   0  0  0  0  0  0  0  0  0  0  0  0
   20.6651  -24.0515  -17.1754 C   0  0  0  0  0  0  0  0  0  0  0  0
   21.3303  -24.1555  -15.9516 C   0  0  0  0  0  0  0  0  0  0  0  0
   22.0262  -23.0783  -15.4483 C   0  0  0  0  0  0  0  0  0  0  0  0
   22.0811  -21.8875  -16.1338 C   0  0  0  0  0  0  0  0  0  0  0  0
   23.8433  -20.0035  -12.3814 C   0  0  0  0  0  0  0  0  0  0  0  0
   24.1228  -18.8005  -12.2723 O   0  0  0  0  0  0  0  0  0  0  0  0
   24.4502  -20.8651  -11.4685 N   0  0  0  0  0  0  0  0  0  0  0  0
   25.5229  -20.5873  -10.5545 C   0  0  1  0  0  0  0  0  0  0  0  0
   25.3375  -20.9762   -9.1576 C   0  0  0  0  0  0  0  0  0  0  0  0
   26.4848  -20.4419   -8.3237 C   0  0  0  0  0  0  0  0  0  0  0  0
   26.5036  -19.1037   -8.0139 C   0  0  0  0  0  0  0  0  0  0  0  0
   27.5485  -18.5760   -7.2461 C   0  0  0  0  0  0  0  0  0  0  0  0
   28.5724  -19.3903   -6.7906 C   0  0  0  0  0  0  0  0  0  0  0  0
   28.5410  -20.7319   -7.1098 C   0  0  0  0  0  0  0  0  0  0  0  0
   27.4934  -21.2268   -7.8710 C   0  0  0  0  0  0  0  0  0  0  0  0
   26.7244  -21.1780  -11.1795 C   0  0  0  0  0  0  0  0  0  0  0  0
   26.9300  -22.4316  -10.9471 O   0  0  0  0  0  0  0  0  0  0  0  0
   27.6684  -20.4826  -12.0121 N   0  0  0  0  0  0  0  0  0  0  0  0
   27.5765  -19.1967  -12.6308 C   0  0  0  0  0  0  0  0  0  0  0  0
   28.7562  -19.1380  -13.6221 C   0  0  0  0  0  0  0  0  0  0  0  0
   29.7794  -19.9855  -12.9066 C   0  0  0  0  0  0  0  0  0  0  0  0
   28.9226  -21.1000  -12.3652 C   0  0  1  0  0  0  0  0  0  0  0  0
   29.6260  -21.6979  -11.1855 C   0  0  0  0  0  0  0  0  0  0  0  0
   29.1397  -21.5935   -9.9186 O   0  0  0  0  0  0  0  0  0  0  0  0
   30.6985  -22.3083  -11.4039 O   0  0  0  0  0  0  0  0  0  0  0  0
  2  1  1  6
  2 13  1  0
  2  3  1  0
  4  3  1  0
  4  5  2  0
  6  5  1  0
  7  6  1  0
  8  7  2  0
  9  8  1  0
 10  9  2  0
 10 11  1  0
 11 12  2  0
 12  7  1  0
 12  4  1  0
 13 14  2  0
 15 16  1  0
 15 13  1  0
 16 17  1  1
 18 17  1  0
 19 18  2  0
 20 19  1  0
 21 20  2  0
 21 22  1  0
 22 23  2  0
 23 18  1  0
 24 25  2  0
 24 16  1  0
 26 24  1  0
 27 26  1  0
 28 27  1  0
 28 29  1  0
 29 30  1  0
 30 26  1  0
 30 31  1  1
 32 31  1  0
 33 31  2  0
M  END
$$$$
