WFP.pdb
     RDKit          3D

 33 36  0  0  1  0  0  0  0  0999 V2000
   21.7257  -18.6249  -14.5285 N   0  0  0  0  0  0  0  0  0  0  0  0
   22.2518  -19.5564  -15.4752 C   0  0  1  0  0  0  0  0  0  0  0  0
   22.3694  -18.9485  -16.8401 C   0  0  0  0  0  0  0  0  0  0  0  0
   21.1117  -18.5699  -17.4734 C   0  0  0  0  0  0  0  0  0  0  0  0
   20.6518  -17.3068  -17.7324 C   0  0  0  0  0  0  0  0  0  0  0  0
   19.4688  -17.3472  -18.3590 N   0  0  0  0  0  0  0  0  0  0  0  0
   19.1472  -18.6436  -18.5124 C   0  0  0  0  0  0  0  0  0  0  0  0
   18.0151  -19.1598  -19.1042 C   0  0  0  0  0  0  0  0  0  0  0  0
   17.8785  -20.5281  -19.1571 C   0  0  0  0  0  0  0  0  0  0  0  0
   18.8688  -21.3536  -18.6196 C   0  0  0  0  0  0  0  0  0  0  0  0
   19.9879  -20.8020  -18.0353 C   0  0  0  0  0  0  0  0  0  0  0  0
   20.1533  -19.4385  -17.9692 C   0  0  0  0  0  0  0  0  0  0  0  0
   23.5903  -20.0445  -15.0023 C   0  0  0  0  0  0  0  0  0  0  0  0
   24.4704  -19.2434  -14.6542 O   0  0  0  0  0  0  0  0  0  0  0  0
   23.9212  -21.3971  -14.9308 N   0  0  0  0  0  0  0  0  0  0  0  0
   25.1350  -21.9959  -14.4498 C   0  0  1  0  0  0  0  0  0  0  0  0
   25.0534  -22.8055  -13.2354 C   0  0  0  0  0  0  0  0  0  0  0  0
   24.9038  -21.9004  -12.0290 C   0  0  0  0  0  0  0  0  0  0  0  0
   26.0395  -21.4568  -11.3961 C   0  0  0  0  0  0  0  0  0  0  0  0
   25.9384  -20.6201  -10.2784 C   0  0  0  0  0  0  0  0  0  0  0  0
   24.6996  -20.2297   -9.7970 C   0  0  0  0  0  0  0  0  0  0  0  0
   23.5676  -20.6831  -10.4419 C   0  0  0  0  0  0  0  0  0  0  0  0
   23.6981  -21.5101  -11.5469 C   0  0  0  0  0  0  0  0  0  0  0  0
   25.6924  -22.7220  -15.6097 C   0  0  0  0  0  0  0  0  0  0  0  0
   24.8966  -23.5509  -16.1993 O   0  0  0  0  0  0  0  0  0  0  0  0
   27.0267  -22.5837  -16.1275 N   0  0  0  0  0  0  0  0  0  0  0  0
   28.0926  -21.7285  -15.7063 C   0  0  0  0  0  0  0  0  0  0  0  0
   29.1532  -21.8224  -16.8218 C   0  0  0  0  0  0  0  0  0  0  0  0
   28.9524  -23.2412  -17.2950 C   0  0  0  0  0  0  0  0  0  0  0  0
   27.4508  -23.3590  -17.2667 C   0  0  1  0  0  0  0  0  0  0  0  0
   27.0993  -24.8099  -17.1430 C   0  0  0  0  0  0  0  0  0  0  0  0
   27.2420  -25.6839  -18.1765 O   0  0  0  0  0  0  0  0  0  0  0  0
   26.6592  -25.2030  -16.0374 O   0  0  0  0  0  0  0  0  0  0  0  0
  2  1  1  1
  2 13  1  0
  2  3  1  0
  4  3  1  0
  4  5  2  0
  6  5  1  0
  7  6  1  0
  8  7  2  0
  9  8  1  0
 10  9  2  0
 10 11  1  0
 11 12  2  0
 12  7  1  0
 12  4  1  0
 13 14  2  0
 15 16  1  0
 15 13  1  0
 16 17  1  1
 18 17  1  0
 19 18  2  0
 20 19  1  0
 21 20  2  0
 21 22  1  0
 22 23  2  0
 23 18  1  0
 24 25  2  0
 24 16  1  0
 26 24  1  0
 27 26  1  0
 28 27  1  0
 28 29  1  0
 29 30  1  0
 30 26  1  0
 30 31  1  1
 32 31  1  0
 33 31  2  0
M  END
$$$$
