WFP.pdb
     RDKit          3D

 33 36  0  0  1  0  0  0  0  0999 V2000
   24.7927  -19.7105  -12.2195 N   0  0  0  0  0  0  0  0  0  0  0  0
   26.0396  -19.7025  -11.5224 C   0  0  1  0  0  0  0  0  0  0  0  0
   26.8439  -18.4796  -11.8451 C   0  0  0  0  0  0  0  0  0  0  0  0
   27.1323  -18.2683  -13.2588 C   0  0  0  0  0  0  0  0  0  0  0  0
   26.6672  -17.2665  -14.0674 C   0  0  0  0  0  0  0  0  0  0  0  0
   27.1741  -17.3739  -15.3024 N   0  0  0  0  0  0  0  0  0  0  0  0
   27.9761  -18.4529  -15.3077 C   0  0  0  0  0  0  0  0  0  0  0  0
   28.7066  -18.9465  -16.3666 C   0  0  0  0  0  0  0  0  0  0  0  0
   29.4685  -20.0734  -16.1583 C   0  0  0  0  0  0  0  0  0  0  0  0
   29.4869  -20.6861  -14.9031 C   0  0  0  0  0  0  0  0  0  0  0  0
   28.7436  -20.1643  -13.8672 C   0  0  0  0  0  0  0  0  0  0  0  0
   27.9741  -19.0385  -14.0443 C   0  0  0  0  0  0  0  0  0  0  0  0
   25.7847  -19.7867  -10.0454 C   0  0  0  0  0  0  0  0  0  0  0  0
   24.8916  -19.1084   -9.5166 O   0  0  0  0  0  0  0  0  0  0  0  0
   26.5218  -20.6102   -9.1954 N   0  0  0  0  0  0  0  0  0  0  0  0
   26.3736  -20.7935   -7.7785 C   0  0  1  0  0  0  0  0  0  0  0  0
   25.7458  -22.0314   -7.3198 C   0  0  0  0  0  0  0  0  0  0  0  0
   24.3510  -21.7351   -6.8063 C   0  0  0  0  0  0  0  0  0  0  0  0
   24.1929  -21.4241   -5.4775 C   0  0  0  0  0  0  0  0  0  0  0  0
   22.9188  -21.1456   -4.9690 C   0  0  0  0  0  0  0  0  0  0  0  0
   21.8056  -21.1797   -5.7928 C   0  0  0  0  0  0  0  0  0  0  0  0
   21.9790  -21.4941   -7.1247 C   0  0  0  0  0  0  0  0  0  0  0  0
   23.2526  -21.7645   -7.6006 C   0  0  0  0  0  0  0  0  0  0  0  0
   27.7222  -20.5700   -7.2178 C   0  0  0  0  0  0  0  0  0  0  0  0
   28.6752  -21.2785   -7.7255 O   0  0  0  0  0  0  0  0  0  0  0  0
   28.0553  -19.6431   -6.1701 N   0  0  0  0  0  0  0  0  0  0  0  0
   27.3184  -18.5294   -5.6588 C   0  0  0  0  0  0  0  0  0  0  0  0
   28.3129  -17.7604   -4.7657 C   0  0  0  0  0  0  0  0  0  0  0  0
   29.1730  -18.8882   -4.2506 C   0  0  0  0  0  0  0  0  0  0  0  0
   29.3185  -19.7434   -5.4822 C   0  0  1  0  0  0  0  0  0  0  0  0
   29.6302  -21.1417   -5.0448 C   0  0  0  0  0  0  0  0  0  0  0  0
   28.7879  -22.1838   -5.2838 O   0  0  0  0  0  0  0  0  0  0  0  0
   30.7111  -21.3273   -4.4383 O   0  0  0  0  0  0  0  0  0  0  0  0
  2  1  1  6
  2 13  1  0
  2  3  1  0
  4  3  1  0
  4  5  2  0
  6  5  1  0
  7  6  1  0
  8  7  2  0
  9  8  1  0
 10  9  2  0
 10 11  1  0
 11 12  2  0
 12  7  1  0
 12  4  1  0
 13 14  2  0
 15 16  1  0
 15 13  1  0
 16 17  1  6
 18 17  1  0
 19 18  2  0
 20 19  1  0
 21 20  2  0
 21 22  1  0
 22 23  2  0
 23 18  1  0
 24 25  2  0
 24 16  1  0
 26 24  1  0
 27 26  1  0
 28 27  1  0
 28 29  1  0
 29 30  1  0
 30 26  1  0
 30 31  1  1
 32 31  1  0
 33 31  2  0
M  END
$$$$
