SHF.pdb
     RDKit          3D

 28 29  0  0  1  0  0  0  0  0999 V2000
    5.2971  -16.0952   21.8931 O   0  0  0  0  0  0  0  0  0  0  0  0
    6.1905  -15.3016   21.1786 C   0  0  0  0  0  0  0  0  0  0  0  0
    7.1798  -16.1642   20.4374 C   0  0  2  0  0  0  0  0  0  0  0  0
    6.4646  -17.1351   19.6533 N   0  0  0  0  0  0  0  0  0  0  0  0
    8.1577  -16.7652   21.3533 C   0  0  0  0  0  0  0  0  0  0  0  0
    8.0441  -17.9728   21.6670 O   0  0  0  0  0  0  0  0  0  0  0  0
    9.2266  -16.0337   21.8976 N   0  0  0  0  0  0  0  0  0  0  0  0
   10.2496  -16.6327   22.7492 C   0  0  1  0  0  0  0  0  0  0  0  0
   11.6106  -16.1578   22.2773 C   0  0  0  0  0  0  0  0  0  0  0  0
   11.9845  -16.8409   21.0248 C   0  0  0  0  0  0  0  0  0  0  0  0
   12.3674  -18.1390   20.9108 C   0  0  0  0  0  0  0  0  0  0  0  0
   12.6227  -18.3737   19.5993 N   0  0  0  0  0  0  0  0  0  0  0  0
   12.4068  -17.2517   18.9006 C   0  0  0  0  0  0  0  0  0  0  0  0
   12.0160  -16.3115   19.7701 N   0  0  0  0  0  0  0  0  0  0  0  0
   10.0784  -16.1270   24.1382 C   0  0  0  0  0  0  0  0  0  0  0  0
   10.3579  -14.9254   24.4009 O   0  0  0  0  0  0  0  0  0  0  0  0
    9.6093  -16.9321   25.2098 N   0  0  0  0  0  0  0  0  0  0  0  0
    9.3873  -16.4269   26.5591 C   0  0  1  0  0  0  0  0  0  0  0  0
    7.9489  -16.1806   26.8358 C   0  0  0  0  0  0  0  0  0  0  0  0
    7.5361  -14.7893   26.5752 C   0  0  0  0  0  0  0  0  0  0  0  0
    8.2750  -13.7478   27.1467 C   0  0  0  0  0  0  0  0  0  0  0  0
    7.8723  -12.4672   26.8656 C   0  0  0  0  0  0  0  0  0  0  0  0
    6.8025  -12.1320   26.0687 C   0  0  0  0  0  0  0  0  0  0  0  0
    6.0873  -13.1743   25.5150 C   0  0  0  0  0  0  0  0  0  0  0  0
    6.4403  -14.4842   25.7582 C   0  0  0  0  0  0  0  0  0  0  0  0
   10.0249  -17.2905   27.5714 C   0  0  0  0  0  0  0  0  0  0  0  0
   10.3478  -18.4707   27.2014 O   0  0  0  0  0  0  0  0  0  0  0  0
   10.2736  -16.8823   28.8461 O   0  0  0  0  0  0  0  0  0  0  0  0
  1  2  1  0
  2  3  1  0
  3  4  1  1
  3  5  1  0
  5  6  2  0
  7  5  1  0
  7  8  1  0
  8  9  1  6
  9 10  1  0
 10 14  1  0
 11 12  1  0
 11 10  2  0
 12 13  1  0
 13 14  2  0
 15  8  1  0
 15 16  2  0
 17 15  1  0
 18 17  1  0
 18 19  1  1
 20 19  1  0
 21 20  2  0
 22 21  1  0
 23 24  1  0
 23 22  2  0
 24 25  2  0
 25 20  1  0
 26 18  1  0
 27 26  2  0
 28 26  1  0
M  END
$$$$
