SHF.pdb
     RDKit          3D

 28 29  0  0  1  0  0  0  0  0999 V2000
   10.9791  -13.1897   19.8923 O   0  0  0  0  0  0  0  0  0  0  0  0
   10.5778  -14.0050   18.8375 C   0  0  0  0  0  0  0  0  0  0  0  0
    9.0745  -14.1096   18.7992 C   0  0  2  0  0  0  0  0  0  0  0  0
    8.5218  -12.8317   18.4377 N   0  0  0  0  0  0  0  0  0  0  0  0
    8.5420  -14.6351   20.0628 C   0  0  0  0  0  0  0  0  0  0  0  0
    8.0715  -13.8400   20.9090 O   0  0  0  0  0  0  0  0  0  0  0  0
    8.5385  -16.0073   20.3644 N   0  0  0  0  0  0  0  0  0  0  0  0
    8.0433  -16.5435   21.6284 C   0  0  1  0  0  0  0  0  0  0  0  0
    7.9730  -18.0546   21.5183 C   0  0  0  0  0  0  0  0  0  0  0  0
    6.8673  -18.4514   20.6265 C   0  0  0  0  0  0  0  0  0  0  0  0
    5.6921  -17.7880   20.4733 C   0  0  0  0  0  0  0  0  0  0  0  0
    4.9526  -18.4754   19.5672 N   0  0  0  0  0  0  0  0  0  0  0  0
    5.6428  -19.5473   19.1571 C   0  0  0  0  0  0  0  0  0  0  0  0
    6.8154  -19.5357   19.8036 N   0  0  0  0  0  0  0  0  0  0  0  0
    9.0282  -16.2385   22.7013 C   0  0  0  0  0  0  0  0  0  0  0  0
   10.2614  -16.2633   22.4381 O   0  0  0  0  0  0  0  0  0  0  0  0
    8.6564  -15.9140   24.0330 N   0  0  0  0  0  0  0  0  0  0  0  0
    9.6139  -15.5503   25.0702 C   0  0  1  0  0  0  0  0  0  0  0  0
    9.6295  -14.0880   25.3308 C   0  0  0  0  0  0  0  0  0  0  0  0
    8.3222  -13.5597   25.7619 C   0  0  0  0  0  0  0  0  0  0  0  0
    8.1101  -13.3110   27.1221 C   0  0  0  0  0  0  0  0  0  0  0  0
    6.8886  -12.8015   27.4822 C   0  0  0  0  0  0  0  0  0  0  0  0
    5.8625  -12.5184   26.6111 C   0  0  0  0  0  0  0  0  0  0  0  0
    6.0926  -12.7710   25.2741 C   0  0  0  0  0  0  0  0  0  0  0  0
    7.2987  -13.2829   24.8468 C   0  0  0  0  0  0  0  0  0  0  0  0
    9.4127  -16.3475   26.2954 C   0  0  0  0  0  0  0  0  0  0  0  0
    8.3688  -17.0840   26.3389 O   0  0  0  0  0  0  0  0  0  0  0  0
   10.2772  -16.3253   27.3468 O   0  0  0  0  0  0  0  0  0  0  0  0
  1  2  1  0
  2  3  1  0
  3  4  1  1
  3  5  1  0
  5  6  2  0
  7  5  1  0
  7  8  1  0
  8  9  1  6
  9 10  1  0
 10 14  1  0
 11 12  1  0
 11 10  2  0
 12 13  1  0
 13 14  2  0
 15  8  1  0
 15 16  2  0
 17 15  1  0
 18 17  1  0
 18 19  1  1
 20 19  1  0
 21 20  2  0
 22 21  1  0
 23 24  1  0
 23 22  2  0
 24 25  2  0
 25 20  1  0
 26 18  1  0
 27 26  2  0
 28 26  1  0
M  END
$$$$
