SHF.pdb
     RDKit          3D

 28 29  0  0  1  0  0  0  0  0999 V2000
    9.7975  -13.9118   19.3340 O   0  0  0  0  0  0  0  0  0  0  0  0
    8.7916  -13.5770   20.2365 C   0  0  0  0  0  0  0  0  0  0  0  0
    7.6787  -14.5922   20.1805 C   0  0  2  0  0  0  0  0  0  0  0  0
    6.5270  -13.9960   19.5583 N   0  0  0  0  0  0  0  0  0  0  0  0
    7.3960  -15.1507   21.5089 C   0  0  0  0  0  0  0  0  0  0  0  0
    6.6932  -14.4962   22.3135 O   0  0  0  0  0  0  0  0  0  0  0  0
    7.8865  -16.4019   21.9184 N   0  0  0  0  0  0  0  0  0  0  0  0
    7.4966  -17.0384   23.1728 C   0  0  1  0  0  0  0  0  0  0  0  0
    7.7836  -18.5242   23.0710 C   0  0  0  0  0  0  0  0  0  0  0  0
    7.2739  -19.2263   24.2638 C   0  0  0  0  0  0  0  0  0  0  0  0
    6.5811  -18.6588   25.2849 C   0  0  0  0  0  0  0  0  0  0  0  0
    6.2985  -19.6396   26.1786 N   0  0  0  0  0  0  0  0  0  0  0  0
    6.8002  -20.7990   25.7340 C   0  0  0  0  0  0  0  0  0  0  0  0
    7.3980  -20.5495   24.5621 N   0  0  0  0  0  0  0  0  0  0  0  0
    8.3545  -16.5115   24.2687 C   0  0  0  0  0  0  0  0  0  0  0  0
    9.5758  -16.2865   24.0483 O   0  0  0  0  0  0  0  0  0  0  0  0
    7.8716  -16.2405   25.5764 N   0  0  0  0  0  0  0  0  0  0  0  0
    8.6995  -15.6896   26.6422 C   0  0  1  0  0  0  0  0  0  0  0  0
    7.9110  -14.8700   27.5977 C   0  0  0  0  0  0  0  0  0  0  0  0
    7.2881  -13.6878   26.9744 C   0  0  0  0  0  0  0  0  0  0  0  0
    8.0540  -12.5284   26.8117 C   0  0  0  0  0  0  0  0  0  0  0  0
    7.4461  -11.4561   26.2103 C   0  0  0  0  0  0  0  0  0  0  0  0
    6.1473  -11.4352   25.7577 C   0  0  0  0  0  0  0  0  0  0  0  0
    5.4096  -12.5890   25.9280 C   0  0  0  0  0  0  0  0  0  0  0  0
    5.9618  -13.7017   26.5251 C   0  0  0  0  0  0  0  0  0  0  0  0
    9.4927  -16.7402   27.3087 C   0  0  0  0  0  0  0  0  0  0  0  0
   10.3027  -16.3591   28.2213 O   0  0  0  0  0  0  0  0  0  0  0  0
    9.3911  -18.0606   26.9936 O   0  0  0  0  0  0  0  0  0  0  0  0
  1  2  1  0
  2  3  1  0
  3  4  1  1
  3  5  1  0
  5  6  2  0
  7  5  1  0
  7  8  1  0
  8  9  1  6
  9 10  1  0
 10 14  1  0
 11 12  1  0
 11 10  2  0
 12 13  1  0
 13 14  2  0
 15  8  1  0
 15 16  2  0
 17 15  1  0
 18 17  1  0
 18 19  1  1
 20 19  1  0
 21 20  2  0
 22 21  1  0
 23 24  1  0
 23 22  2  0
 24 25  2  0
 25 20  1  0
 26 18  1  0
 27 26  2  0
 28 26  1  0
M  END
$$$$
