SHF.pdb
     RDKit          3D

 28 29  0  0  1  0  0  0  0  0999 V2000
   11.0603  -20.7582   20.0707 O   0  0  0  0  0  0  0  0  0  0  0  0
    9.8803  -20.2359   19.5481 C   0  0  0  0  0  0  0  0  0  0  0  0
   10.1532  -18.9347   18.8376 C   0  0  2  0  0  0  0  0  0  0  0  0
   11.1820  -19.1412   17.8537 N   0  0  0  0  0  0  0  0  0  0  0  0
   10.4678  -17.8611   19.7888 C   0  0  0  0  0  0  0  0  0  0  0  0
   11.6283  -17.3901   19.8218 O   0  0  0  0  0  0  0  0  0  0  0  0
    9.5105  -17.3350   20.6723 N   0  0  0  0  0  0  0  0  0  0  0  0
    9.8240  -16.3219   21.6752 C   0  0  1  0  0  0  0  0  0  0  0  0
    8.5752  -15.5041   21.9436 C   0  0  0  0  0  0  0  0  0  0  0  0
    8.3396  -14.5537   20.8406 C   0  0  0  0  0  0  0  0  0  0  0  0
    9.1580  -14.3531   19.7754 C   0  0  0  0  0  0  0  0  0  0  0  0
    8.5844  -13.4026   18.9956 N   0  0  0  0  0  0  0  0  0  0  0  0
    7.4315  -13.0115   19.5536 C   0  0  0  0  0  0  0  0  0  0  0  0
    7.2786  -13.7141   20.6832 N   0  0  0  0  0  0  0  0  0  0  0  0
   10.1740  -16.9994   22.9530 C   0  0  0  0  0  0  0  0  0  0  0  0
    9.5846  -18.0681   23.2715 O   0  0  0  0  0  0  0  0  0  0  0  0
   11.1527  -16.5056   23.8559 N   0  0  0  0  0  0  0  0  0  0  0  0
   10.8756  -16.1958   25.2531 C   0  0  1  0  0  0  0  0  0  0  0  0
   10.1754  -14.8953   25.4107 C   0  0  0  0  0  0  0  0  0  0  0  0
    9.8978  -14.5505   26.8171 C   0  0  0  0  0  0  0  0  0  0  0  0
   10.9147  -14.7105   27.7645 C   0  0  0  0  0  0  0  0  0  0  0  0
   10.6249  -14.3609   29.0588 C   0  0  0  0  0  0  0  0  0  0  0  0
    9.4164  -13.8674   29.4925 C   0  0  0  0  0  0  0  0  0  0  0  0
    8.4274  -13.7174   28.5419 C   0  0  0  0  0  0  0  0  0  0  0  0
    8.6545  -14.0504   27.2239 C   0  0  0  0  0  0  0  0  0  0  0  0
   10.1757  -17.3074   25.9250 C   0  0  0  0  0  0  0  0  0  0  0  0
   10.8132  -17.9129   26.8530 O   0  0  0  0  0  0  0  0  0  0  0  0
    8.9120  -17.6951   25.5993 O   0  0  0  0  0  0  0  0  0  0  0  0
  1  2  1  0
  2  3  1  0
  3  4  1  6
  3  5  1  0
  5  6  2  0
  7  5  1  0
  7  8  1  0
  8  9  1  1
  9 10  1  0
 10 14  1  0
 11 12  1  0
 11 10  2  0
 12 13  1  0
 13 14  2  0
 15  8  1  0
 15 16  2  0
 17 15  1  0
 18 17  1  0
 18 19  1  6
 20 19  1  0
 21 20  2  0
 22 21  1  0
 23 24  1  0
 23 22  2  0
 24 25  2  0
 25 20  1  0
 26 18  1  0
 27 26  2  0
 28 26  1  0
M  END
$$$$
