SHF.pdb
     RDKit          3D

 28 29  0  0  1  0  0  0  0  0999 V2000
    6.4725  -19.0882   23.3621 O   0  0  0  0  0  0  0  0  0  0  0  0
    5.5666  -18.5985   22.4251 C   0  0  0  0  0  0  0  0  0  0  0  0
    6.2820  -18.2193   21.1536 C   0  0  2  0  0  0  0  0  0  0  0  0
    6.4737  -19.3973   20.3508 N   0  0  0  0  0  0  0  0  0  0  0  0
    7.5311  -17.5006   21.4361 C   0  0  0  0  0  0  0  0  0  0  0  0
    8.6216  -18.1135   21.3667 O   0  0  0  0  0  0  0  0  0  0  0  0
    7.5533  -16.1397   21.7844 N   0  0  0  0  0  0  0  0  0  0  0  0
    8.7888  -15.3907   21.9913 C   0  0  1  0  0  0  0  0  0  0  0  0
    8.5687  -13.9599   21.5386 C   0  0  0  0  0  0  0  0  0  0  0  0
    8.4500  -13.9010   20.0696 C   0  0  0  0  0  0  0  0  0  0  0  0
    8.7998  -14.8870   19.2034 C   0  0  0  0  0  0  0  0  0  0  0  0
    8.5348  -14.4399   17.9503 N   0  0  0  0  0  0  0  0  0  0  0  0
    8.0298  -13.2015   18.0218 C   0  0  0  0  0  0  0  0  0  0  0  0
    7.9765  -12.8686   19.3176 N   0  0  0  0  0  0  0  0  0  0  0  0
    9.0828  -15.3372   23.4490 C   0  0  0  0  0  0  0  0  0  0  0  0
   10.1034  -14.7170   23.8548 O   0  0  0  0  0  0  0  0  0  0  0  0
    8.2666  -15.9553   24.4332 N   0  0  0  0  0  0  0  0  0  0  0  0
    8.6091  -16.0024   25.8493 C   0  0  1  0  0  0  0  0  0  0  0  0
    7.4815  -15.5683   26.7134 C   0  0  0  0  0  0  0  0  0  0  0  0
    7.2495  -14.1126   26.6798 C   0  0  0  0  0  0  0  0  0  0  0  0
    5.9642  -13.6406   26.3927 C   0  0  0  0  0  0  0  0  0  0  0  0
    5.7830  -12.2810   26.3897 C   0  0  0  0  0  0  0  0  0  0  0  0
    6.7645  -11.3523   26.6464 C   0  0  0  0  0  0  0  0  0  0  0  0
    8.0248  -11.8391   26.9273 C   0  0  0  0  0  0  0  0  0  0  0  0
    8.2731  -13.1947   26.9460 C   0  0  0  0  0  0  0  0  0  0  0  0
    9.1479  -17.3216   26.2318 C   0  0  0  0  0  0  0  0  0  0  0  0
    9.1176  -18.2371   25.3401 O   0  0  0  0  0  0  0  0  0  0  0  0
    9.6614  -17.5857   27.4646 O   0  0  0  0  0  0  0  0  0  0  0  0
  1  2  1  0
  2  3  1  0
  3  4  1  1
  3  5  1  0
  5  6  2  0
  7  5  1  0
  7  8  1  0
  8  9  1  1
  9 10  1  0
 10 14  1  0
 11 12  1  0
 11 10  2  0
 12 13  1  0
 13 14  2  0
 15  8  1  0
 15 16  2  0
 17 15  1  0
 18 17  1  0
 18 19  1  1
 20 19  1  0
 21 20  2  0
 22 21  1  0
 23 24  1  0
 23 22  2  0
 24 25  2  0
 25 20  1  0
 26 18  1  0
 27 26  2  0
 28 26  1  0
M  END
$$$$
