SHF.pdb
     RDKit          3D

 28 29  0  0  1  0  0  0  0  0999 V2000
    6.4525  -19.0210   23.9857 O   0  0  0  0  0  0  0  0  0  0  0  0
    5.5573  -18.4771   23.0685 C   0  0  0  0  0  0  0  0  0  0  0  0
    6.2109  -18.3404   21.7170 C   0  0  2  0  0  0  0  0  0  0  0  0
    6.5292  -19.6493   21.2124 N   0  0  0  0  0  0  0  0  0  0  0  0
    7.3713  -17.4422   21.7718 C   0  0  0  0  0  0  0  0  0  0  0  0
    8.5257  -17.9259   21.7173 O   0  0  0  0  0  0  0  0  0  0  0  0
    7.2383  -16.0480   21.8839 N   0  0  0  0  0  0  0  0  0  0  0  0
    8.3804  -15.1406   21.9344 C   0  0  1  0  0  0  0  0  0  0  0  0
    7.9657  -13.8075   21.3418 C   0  0  0  0  0  0  0  0  0  0  0  0
    8.0943  -13.8388   19.8728 C   0  0  0  0  0  0  0  0  0  0  0  0
    8.5942  -14.8675   19.1402 C   0  0  0  0  0  0  0  0  0  0  0  0
    8.5385  -14.5015   17.8351 N   0  0  0  0  0  0  0  0  0  0  0  0
    8.0163  -13.2717   17.7441 C   0  0  0  0  0  0  0  0  0  0  0  0
    7.7432  -12.8631   18.9896 N   0  0  0  0  0  0  0  0  0  0  0  0
    8.7314  -14.8848   23.3578 C   0  0  0  0  0  0  0  0  0  0  0  0
    8.6793  -13.7081   23.8089 O   0  0  0  0  0  0  0  0  0  0  0  0
    9.1301  -15.9071   24.2593 N   0  0  0  0  0  0  0  0  0  0  0  0
    9.0368  -15.7837   25.7087 C   0  0  1  0  0  0  0  0  0  0  0  0
    7.6559  -15.4692   26.1567 C   0  0  0  0  0  0  0  0  0  0  0  0
    7.4310  -14.0296   26.3828 C   0  0  0  0  0  0  0  0  0  0  0  0
    8.4606  -13.2655   26.9425 C   0  0  0  0  0  0  0  0  0  0  0  0
    8.2211  -11.9266   27.1195 C   0  0  0  0  0  0  0  0  0  0  0  0
    7.0513  -11.2826   26.7897 C   0  0  0  0  0  0  0  0  0  0  0  0
    6.0488  -12.0548   26.2390 C   0  0  0  0  0  0  0  0  0  0  0  0
    6.2261  -13.4063   26.0350 C   0  0  0  0  0  0  0  0  0  0  0  0
    9.6043  -16.9633   26.3896 C   0  0  0  0  0  0  0  0  0  0  0  0
    9.7045  -16.9013   27.6625 O   0  0  0  0  0  0  0  0  0  0  0  0
   10.0101  -18.0806   25.7261 O   0  0  0  0  0  0  0  0  0  0  0  0
  1  2  1  0
  2  3  1  0
  3  4  1  1
  3  5  1  0
  5  6  2  0
  7  5  1  0
  7  8  1  0
  8  9  1  1
  9 10  1  0
 10 14  1  0
 11 12  1  0
 11 10  2  0
 12 13  1  0
 13 14  2  0
 15  8  1  0
 15 16  2  0
 17 15  1  0
 18 17  1  0
 18 19  1  6
 20 19  1  0
 21 20  2  0
 22 21  1  0
 23 24  1  0
 23 22  2  0
 24 25  2  0
 25 20  1  0
 26 18  1  0
 27 26  2  0
 28 26  1  0
M  END
$$$$
