SHF.pdb
     RDKit          3D

 28 29  0  0  1  0  0  0  0  0999 V2000
   10.3699  -13.5183   19.3076 O   0  0  0  0  0  0  0  0  0  0  0  0
    9.6409  -14.4586   18.5846 C   0  0  0  0  0  0  0  0  0  0  0  0
    8.1699  -14.3248   18.8857 C   0  0  2  0  0  0  0  0  0  0  0  0
    7.7668  -12.9607   18.6719 N   0  0  0  0  0  0  0  0  0  0  0  0
    7.8517  -14.8193   20.2313 C   0  0  0  0  0  0  0  0  0  0  0  0
    7.5179  -14.0042   21.1223 O   0  0  0  0  0  0  0  0  0  0  0  0
    7.9068  -16.1833   20.5636 N   0  0  0  0  0  0  0  0  0  0  0  0
    7.5673  -16.6946   21.8879 C   0  0  1  0  0  0  0  0  0  0  0  0
    7.5777  -18.2105   21.8383 C   0  0  0  0  0  0  0  0  0  0  0  0
    7.3860  -18.7676   23.1905 C   0  0  0  0  0  0  0  0  0  0  0  0
    8.3320  -19.4012   23.9309 C   0  0  0  0  0  0  0  0  0  0  0  0
    7.7566  -19.7573   25.1067 N   0  0  0  0  0  0  0  0  0  0  0  0
    6.4780  -19.3588   25.1102 C   0  0  0  0  0  0  0  0  0  0  0  0
    6.2478  -18.7526   23.9387 N   0  0  0  0  0  0  0  0  0  0  0  0
    8.6300  -16.2912   22.8483 C   0  0  0  0  0  0  0  0  0  0  0  0
    9.8146  -16.1474   22.4400 O   0  0  0  0  0  0  0  0  0  0  0  0
    8.3865  -16.0527   24.2269 N   0  0  0  0  0  0  0  0  0  0  0  0
    9.4258  -15.6649   25.1727 C   0  0  1  0  0  0  0  0  0  0  0  0
    9.3976  -14.2100   25.4710 C   0  0  0  0  0  0  0  0  0  0  0  0
    8.1487  -13.7735   26.1219 C   0  0  0  0  0  0  0  0  0  0  0  0
    8.1708  -13.4656   27.4865 C   0  0  0  0  0  0  0  0  0  0  0  0
    6.9944  -13.0445   28.0521 C   0  0  0  0  0  0  0  0  0  0  0  0
    5.8015  -12.9029   27.3822 C   0  0  0  0  0  0  0  0  0  0  0  0
    5.8017  -13.2117   26.0372 C   0  0  0  0  0  0  0  0  0  0  0  0
    6.9508  -13.6406   25.4087 C   0  0  0  0  0  0  0  0  0  0  0  0
    9.3885  -16.4990   26.3892 C   0  0  0  0  0  0  0  0  0  0  0  0
    8.3987  -17.2990   26.5094 O   0  0  0  0  0  0  0  0  0  0  0  0
   10.3455  -16.4464   27.3560 O   0  0  0  0  0  0  0  0  0  0  0  0
  1  2  1  0
  2  3  1  0
  3  4  1  1
  3  5  1  0
  5  6  2  0
  7  5  1  0
  7  8  1  0
  8  9  1  6
  9 10  1  0
 10 14  1  0
 11 12  1  0
 11 10  2  0
 12 13  1  0
 13 14  2  0
 15  8  1  0
 15 16  2  0
 17 15  1  0
 18 17  1  0
 18 19  1  1
 20 19  1  0
 21 20  2  0
 22 21  1  0
 23 24  1  0
 23 22  2  0
 24 25  2  0
 25 20  1  0
 26 18  1  0
 27 26  2  0
 28 26  1  0
M  END
$$$$
