HGV.pdb
     RDKit          3D

 22 22  0  0  1  0  0  0  0  0999 V2000
   10.5864  -17.4411   19.7995 N   0  0  0  0  0  0  0  0  0  0  0  0
    9.6613  -16.3966   20.1955 C   0  0  1  0  0  0  0  0  0  0  0  0
    8.5514  -16.3638   19.1937 C   0  0  0  0  0  0  0  0  0  0  0  0
    8.4847  -15.0083   18.5952 C   0  0  0  0  0  0  0  0  0  0  0  0
    9.2741  -13.8867   18.8392 C   0  0  0  0  0  0  0  0  0  0  0  0
    8.8539  -12.8705   18.0722 N   0  0  0  0  0  0  0  0  0  0  0  0
    7.8182  -13.3025   17.3415 C   0  0  0  0  0  0  0  0  0  0  0  0
    7.5911  -14.5870   17.6512 N   0  0  0  0  0  0  0  0  0  0  0  0
    9.1863  -16.7170   21.5644 C   0  0  0  0  0  0  0  0  0  0  0  0
    8.9311  -17.9057   21.8806 O   0  0  0  0  0  0  0  0  0  0  0  0
    8.9950  -15.7461   22.5698 N   0  0  0  0  0  0  0  0  0  0  0  0
    8.5132  -16.0613   23.9004 C   0  0  0  0  0  0  0  0  0  0  0  0
    9.6265  -15.9809   24.8983 C   0  0  0  0  0  0  0  0  0  0  0  0
   10.8008  -15.8038   24.5136 O   0  0  0  0  0  0  0  0  0  0  0  0
    8.6123  -14.4675   28.5758 C   0  0  0  0  0  0  0  0  0  0  0  0
    9.9672  -14.3571   27.9185 C   0  0  1  0  0  0  0  0  0  0  0  0
   10.9579  -14.0258   29.0426 C   0  0  0  0  0  0  0  0  0  0  0  0
   10.3354  -15.7007   27.2990 C   0  0  2  0  0  0  0  0  0  0  0  0
    9.3905  -16.1013   26.2941 N   0  0  0  0  0  0  0  0  0  0  0  0
   10.5657  -16.7085   28.3356 C   0  0  0  0  0  0  0  0  0  0  0  0
    9.6364  -17.4898   28.6432 O   0  0  0  0  0  0  0  0  0  0  0  0
   11.7628  -16.8548   29.0071 O   0  0  0  0  0  0  0  0  0  0  0  0
  2  1  1  6
  3  4  1  0
  3  2  1  0
  4  8  1  0
  5  6  1  0
  5  4  2  0
  6  7  1  0
  7  8  2  0
  9  2  1  0
  9 11  1  0
 10  9  2  0
 12 11  1  0
 12 13  1  0
 13 19  1  0
 14 13  2  0
 16 15  1  1
 16 17  1  0
 18 16  1  0
 18 19  1  6
 20 22  1  0
 20 18  1  0
 21 20  2  0
M  END
$$$$
