HGV.pdb
     RDKit          3D

 22 22  0  0  1  0  0  0  0  0999 V2000
    8.0977  -19.2057   24.7786 N   0  0  0  0  0  0  0  0  0  0  0  0
    6.6904  -19.2256   24.4288 C   0  0  1  0  0  0  0  0  0  0  0  0
    5.9041  -19.3151   25.6978 C   0  0  0  0  0  0  0  0  0  0  0  0
    6.4444  -20.4248   26.5202 C   0  0  0  0  0  0  0  0  0  0  0  0
    6.3743  -21.8011   26.3163 C   0  0  0  0  0  0  0  0  0  0  0  0
    7.0006  -22.4328   27.3193 N   0  0  0  0  0  0  0  0  0  0  0  0
    7.4721  -21.5063   28.1633 C   0  0  0  0  0  0  0  0  0  0  0  0
    7.1411  -20.2970   27.6887 N   0  0  0  0  0  0  0  0  0  0  0  0
    6.4032  -17.9865   23.6646 C   0  0  0  0  0  0  0  0  0  0  0  0
    5.2264  -17.7207   23.3144 O   0  0  0  0  0  0  0  0  0  0  0  0
    7.3939  -17.0541   23.2913 N   0  0  0  0  0  0  0  0  0  0  0  0
    7.0976  -15.7991   22.6285 C   0  0  0  0  0  0  0  0  0  0  0  0
    7.5488  -14.6412   23.4636 C   0  0  0  0  0  0  0  0  0  0  0  0
    7.9270  -13.5846   22.9169 O   0  0  0  0  0  0  0  0  0  0  0  0
    6.5057  -12.1107   25.3253 C   0  0  0  0  0  0  0  0  0  0  0  0
    7.3628  -12.7699   26.3793 C   0  0  1  0  0  0  0  0  0  0  0  0
    6.3936  -13.5049   27.3149 C   0  0  0  0  0  0  0  0  0  0  0  0
    8.2882  -13.7817   25.7128 C   0  0  2  0  0  0  0  0  0  0  0  0
    7.5624  -14.7023   24.8829 N   0  0  0  0  0  0  0  0  0  0  0  0
    9.1556  -14.4264   26.7003 C   0  0  0  0  0  0  0  0  0  0  0  0
    9.0212  -15.6518   26.9218 O   0  0  0  0  0  0  0  0  0  0  0  0
   10.1290  -13.7580   27.4152 O   0  0  0  0  0  0  0  0  0  0  0  0
  2  1  1  1
  3  4  1  0
  3  2  1  0
  4  8  1  0
  5  6  1  0
  5  4  2  0
  6  7  1  0
  7  8  2  0
  9  2  1  0
  9 11  1  0
 10  9  2  0
 12 11  1  0
 12 13  1  0
 13 19  1  0
 14 13  2  0
 16 15  1  6
 16 17  1  0
 18 16  1  0
 18 19  1  1
 20 22  1  0
 20 18  1  0
 21 20  2  0
M  END
$$$$
