HGV.pdb
     RDKit          3D

 22 22  0  0  1  0  0  0  0  0999 V2000
    8.4904  -14.0760   19.6752 N   0  0  0  0  0  0  0  0  0  0  0  0
    7.5692  -15.1842   19.5118 C   0  0  1  0  0  0  0  0  0  0  0  0
    8.0615  -16.0256   18.3776 C   0  0  0  0  0  0  0  0  0  0  0  0
    8.0227  -15.2220   17.1316 C   0  0  0  0  0  0  0  0  0  0  0  0
    6.9308  -14.7032   16.4394 C   0  0  0  0  0  0  0  0  0  0  0  0
    7.3630  -14.0413   15.3566 N   0  0  0  0  0  0  0  0  0  0  0  0
    8.6996  -14.1174   15.3295 C   0  0  0  0  0  0  0  0  0  0  0  0
    9.1026  -14.8260   16.3939 N   0  0  0  0  0  0  0  0  0  0  0  0
    7.5296  -15.9245   20.7973 C   0  0  0  0  0  0  0  0  0  0  0  0
    6.9884  -17.0566   20.8559 O   0  0  0  0  0  0  0  0  0  0  0  0
    8.0761  -15.4280   21.9994 N   0  0  0  0  0  0  0  0  0  0  0  0
    8.0526  -16.1632   23.2487 C   0  0  0  0  0  0  0  0  0  0  0  0
    8.6636  -15.3535   24.3500 C   0  0  0  0  0  0  0  0  0  0  0  0
    9.9046  -15.3018   24.4750 O   0  0  0  0  0  0  0  0  0  0  0  0
    6.9905  -11.9542   25.5276 C   0  0  0  0  0  0  0  0  0  0  0  0
    7.4426  -12.7154   26.7509 C   0  0  1  0  0  0  0  0  0  0  0  0
    6.1786  -13.3498   27.3465 C   0  0  0  0  0  0  0  0  0  0  0  0
    8.4102  -13.8153   26.3284 C   0  0  2  0  0  0  0  0  0  0  0  0
    7.8670  -14.6278   25.2759 N   0  0  0  0  0  0  0  0  0  0  0  0
    8.8751  -14.5766   27.4891 C   0  0  0  0  0  0  0  0  0  0  0  0
    8.4618  -15.7471   27.6555 O   0  0  0  0  0  0  0  0  0  0  0  0
    9.7553  -14.0777   28.4281 O   0  0  0  0  0  0  0  0  0  0  0  0
  2  1  1  1
  3  4  1  0
  3  2  1  0
  4  8  1  0
  5  6  1  0
  5  4  2  0
  6  7  1  0
  7  8  2  0
  9  2  1  0
  9 11  1  0
 10  9  2  0
 12 11  1  0
 12 13  1  0
 13 19  1  0
 14 13  2  0
 16 15  1  6
 16 17  1  0
 18 16  1  0
 18 19  1  6
 20 22  1  0
 20 18  1  0
 21 20  2  0
M  END
$$$$
