HGV.pdb
     RDKit          3D

 22 22  0  0  1  0  0  0  0  0999 V2000
    7.4167  -18.0231   20.9034 N   0  0  0  0  0  0  0  0  0  0  0  0
    8.6639  -18.4121   21.5332 C   0  0  1  0  0  0  0  0  0  0  0  0
    9.4387  -19.2292   20.5490 C   0  0  0  0  0  0  0  0  0  0  0  0
    8.6737  -20.4618   20.2404 C   0  0  0  0  0  0  0  0  0  0  0  0
    7.8771  -21.2473   21.0704 C   0  0  0  0  0  0  0  0  0  0  0  0
    7.3786  -22.2746   20.3677 N   0  0  0  0  0  0  0  0  0  0  0  0
    7.8294  -22.1754   19.1108 C   0  0  0  0  0  0  0  0  0  0  0  0
    8.6086  -21.0877   19.0275 N   0  0  0  0  0  0  0  0  0  0  0  0
    9.3717  -17.1685   21.9265 C   0  0  0  0  0  0  0  0  0  0  0  0
   10.5291  -17.2289   22.4113 O   0  0  0  0  0  0  0  0  0  0  0  0
    8.8161  -15.8791   21.7891 N   0  0  0  0  0  0  0  0  0  0  0  0
    9.4891  -14.6711   22.2246 C   0  0  0  0  0  0  0  0  0  0  0  0
    9.3625  -14.5007   23.7068 C   0  0  0  0  0  0  0  0  0  0  0  0
   10.2882  -14.8657   24.4605 O   0  0  0  0  0  0  0  0  0  0  0  0
    5.7396  -12.9200   25.7495 C   0  0  0  0  0  0  0  0  0  0  0  0
    7.1316  -12.3402   25.8284 C   0  0  1  0  0  0  0  0  0  0  0  0
    7.2634  -11.7443   27.2363 C   0  0  0  0  0  0  0  0  0  0  0  0
    8.1520  -13.4598   25.6550 C   0  0  2  0  0  0  0  0  0  0  0  0
    8.2047  -13.9277   24.2980 N   0  0  0  0  0  0  0  0  0  0  0  0
    7.9382  -14.5191   26.6425 C   0  0  0  0  0  0  0  0  0  0  0  0
    7.1905  -15.4810   26.3522 O   0  0  0  0  0  0  0  0  0  0  0  0
    8.5186  -14.5253   27.8949 O   0  0  0  0  0  0  0  0  0  0  0  0
  2  1  1  6
  3  4  1  0
  3  2  1  0
  4  8  1  0
  5  6  1  0
  5  4  2  0
  6  7  1  0
  7  8  2  0
  9  2  1  0
  9 11  1  0
 10  9  2  0
 12 11  1  0
 12 13  1  0
 13 19  1  0
 14 13  2  0
 16 15  1  1
 16 17  1  0
 18 16  1  0
 18 19  1  6
 20 22  1  0
 20 18  1  0
 21 20  2  0
M  END
$$$$
