HGV.pdb
     RDKit          3D

 22 22  0  0  1  0  0  0  0  0999 V2000
    7.3344  -16.9790   20.0149 N   0  0  0  0  0  0  0  0  0  0  0  0
    7.5015  -15.7555   20.7755 C   0  0  1  0  0  0  0  0  0  0  0  0
    6.5950  -14.7222   20.1861 C   0  0  0  0  0  0  0  0  0  0  0  0
    7.3019  -14.0416   19.0740 C   0  0  0  0  0  0  0  0  0  0  0  0
    8.0048  -12.8389   19.0684 C   0  0  0  0  0  0  0  0  0  0  0  0
    8.4793  -12.6056   17.8364 N   0  0  0  0  0  0  0  0  0  0  0  0
    8.1039  -13.6206   17.0479 C   0  0  0  0  0  0  0  0  0  0  0  0
    7.3957  -14.4874   17.7857 N   0  0  0  0  0  0  0  0  0  0  0  0
    7.1752  -16.0619   22.1903 C   0  0  0  0  0  0  0  0  0  0  0  0
    6.0265  -16.4663   22.4986 O   0  0  0  0  0  0  0  0  0  0  0  0
    8.0971  -15.9260   23.2495 N   0  0  0  0  0  0  0  0  0  0  0  0
    7.7800  -16.2454   24.6277 C   0  0  0  0  0  0  0  0  0  0  0  0
    8.9648  -16.0070   25.5115 C   0  0  0  0  0  0  0  0  0  0  0  0
   10.1194  -16.0663   25.0406 O   0  0  0  0  0  0  0  0  0  0  0  0
   10.9029  -14.1506   29.5955 C   0  0  0  0  0  0  0  0  0  0  0  0
    9.6280  -14.4890   28.8604 C   0  0  1  0  0  0  0  0  0  0  0  0
    9.1677  -13.1881   28.1891 C   0  0  0  0  0  0  0  0  0  0  0  0
    9.9279  -15.5324   27.7900 C   0  0  2  0  0  0  0  0  0  0  0  0
    8.8201  -15.7099   26.8932 N   0  0  0  0  0  0  0  0  0  0  0  0
   10.4113  -16.7757   28.3930 C   0  0  0  0  0  0  0  0  0  0  0  0
    9.5798  -17.6254   28.7871 O   0  0  0  0  0  0  0  0  0  0  0  0
   11.7485  -17.0762   28.5577 O   0  0  0  0  0  0  0  0  0  0  0  0
  2  1  1  6
  3  4  1  0
  3  2  1  0
  4  8  1  0
  5  6  1  0
  5  4  2  0
  6  7  1  0
  7  8  2  0
  9  2  1  0
  9 11  1  0
 10  9  2  0
 12 11  1  0
 12 13  1  0
 13 19  1  0
 14 13  2  0
 16 15  1  6
 16 17  1  0
 18 16  1  0
 18 19  1  1
 20 22  1  0
 20 18  1  0
 21 20  2  0
M  END
$$$$
