HGV.pdb
     RDKit          3D

 22 22  0  0  1  0  0  0  0  0999 V2000
    8.8583  -16.5448   21.2595 N   0  0  0  0  0  0  0  0  0  0  0  0
    9.6218  -15.3488   21.5594 C   0  0  1  0  0  0  0  0  0  0  0  0
    8.6618  -14.2070   21.6656 C   0  0  0  0  0  0  0  0  0  0  0  0
    8.0994  -13.9261   20.3222 C   0  0  0  0  0  0  0  0  0  0  0  0
    8.6273  -13.1751   19.2744 C   0  0  0  0  0  0  0  0  0  0  0  0
    7.7719  -13.1871   18.2421 N   0  0  0  0  0  0  0  0  0  0  0  0
    6.7091  -13.9226   18.5923 C   0  0  0  0  0  0  0  0  0  0  0  0
    6.8996  -14.3698   19.8417 N   0  0  0  0  0  0  0  0  0  0  0  0
   10.3587  -15.5954   22.8237 C   0  0  0  0  0  0  0  0  0  0  0  0
   11.1317  -14.7185   23.2837 O   0  0  0  0  0  0  0  0  0  0  0  0
   10.2475  -16.7871   23.5704 N   0  0  0  0  0  0  0  0  0  0  0  0
   11.3719  -17.4222   24.2295 C   0  0  0  0  0  0  0  0  0  0  0  0
   11.4674  -16.9786   25.6564 C   0  0  0  0  0  0  0  0  0  0  0  0
   12.4742  -17.2669   26.3358 O   0  0  0  0  0  0  0  0  0  0  0  0
    9.8250  -14.0410   29.2637 C   0  0  0  0  0  0  0  0  0  0  0  0
    9.5375  -14.6216   27.8996 C   0  0  1  0  0  0  0  0  0  0  0  0
    9.8389  -13.5046   26.8915 C   0  0  0  0  0  0  0  0  0  0  0  0
   10.4744  -15.7976   27.6472 C   0  0  2  0  0  0  0  0  0  0  0  0
   10.4339  -16.2272   26.2773 N   0  0  0  0  0  0  0  0  0  0  0  0
   10.2390  -16.8704   28.6152 C   0  0  0  0  0  0  0  0  0  0  0  0
    9.3528  -17.7227   28.3766 O   0  0  0  0  0  0  0  0  0  0  0  0
   10.9438  -17.0045   29.7944 O   0  0  0  0  0  0  0  0  0  0  0  0
  2  1  1  1
  3  4  1  0
  3  2  1  0
  4  8  1  0
  5  6  1  0
  5  4  2  0
  6  7  1  0
  7  8  2  0
  9  2  1  0
  9 11  1  0
 10  9  2  0
 12 11  1  0
 12 13  1  0
 13 19  1  0
 14 13  2  0
 16 15  1  1
 16 17  1  0
 18 16  1  0
 18 19  1  6
 20 22  1  0
 20 18  1  0
 21 20  2  0
M  END
$$$$
