HGV.pdb
     RDKit          3D

 22 22  0  0  1  0  0  0  0  0999 V2000
    7.2010  -17.4639   19.9622 N   0  0  0  0  0  0  0  0  0  0  0  0
    8.5077  -17.1589   20.5125 C   0  0  1  0  0  0  0  0  0  0  0  0
    9.0195  -15.9331   19.8252 C   0  0  0  0  0  0  0  0  0  0  0  0
    9.2513  -16.2465   18.3942 C   0  0  0  0  0  0  0  0  0  0  0  0
   10.3997  -16.7139   17.7590 C   0  0  0  0  0  0  0  0  0  0  0  0
   10.1580  -16.8542   16.4478 N   0  0  0  0  0  0  0  0  0  0  0  0
    8.8896  -16.4916   16.2182 C   0  0  0  0  0  0  0  0  0  0  0  0
    8.3389  -16.1251   17.3843 N   0  0  0  0  0  0  0  0  0  0  0  0
    8.3422  -16.9673   21.9747 C   0  0  0  0  0  0  0  0  0  0  0  0
    9.3483  -16.9607   22.7271 O   0  0  0  0  0  0  0  0  0  0  0  0
    7.0907  -16.7858   22.5999 N   0  0  0  0  0  0  0  0  0  0  0  0
    6.9282  -16.6570   24.0349 C   0  0  0  0  0  0  0  0  0  0  0  0
    7.6997  -15.4820   24.5507 C   0  0  0  0  0  0  0  0  0  0  0  0
    8.8730  -15.2878   24.1715 O   0  0  0  0  0  0  0  0  0  0  0  0
    6.4583  -11.8380   24.8979 C   0  0  0  0  0  0  0  0  0  0  0  0
    7.0155  -12.2369   26.2435 C   0  0  1  0  0  0  0  0  0  0  0  0
    5.8021  -12.5590   27.1261 C   0  0  0  0  0  0  0  0  0  0  0  0
    7.8702  -13.4890   26.0814 C   0  0  2  0  0  0  0  0  0  0  0  0
    7.1339  -14.5622   25.4740 N   0  0  0  0  0  0  0  0  0  0  0  0
    8.5143  -13.8493   27.3458 C   0  0  0  0  0  0  0  0  0  0  0  0
    9.3079  -13.0394   27.8779 O   0  0  0  0  0  0  0  0  0  0  0  0
    8.2988  -15.0454   28.0000 O   0  0  0  0  0  0  0  0  0  0  0  0
  2  1  1  6
  3  4  1  0
  3  2  1  0
  4  8  1  0
  5  6  1  0
  5  4  2  0
  6  7  1  0
  7  8  2  0
  9  2  1  0
  9 11  1  0
 10  9  2  0
 12 11  1  0
 12 13  1  0
 13 19  1  0
 14 13  2  0
 16 15  1  6
 16 17  1  0
 18 16  1  0
 18 19  1  1
 20 22  1  0
 20 18  1  0
 21 20  2  0
M  END
$$$$
