HGV.pdb
     RDKit          3D

 22 22  0  0  1  0  0  0  0  0999 V2000
    8.9672  -15.4418   20.6756 N   0  0  0  0  0  0  0  0  0  0  0  0
    7.8723  -14.6802   21.2453 C   0  0  1  0  0  0  0  0  0  0  0  0
    6.7066  -14.7874   20.3146 C   0  0  0  0  0  0  0  0  0  0  0  0
    7.1116  -14.2875   18.9782 C   0  0  0  0  0  0  0  0  0  0  0  0
    7.5412  -13.0193   18.5938 C   0  0  0  0  0  0  0  0  0  0  0  0
    7.7995  -13.0160   17.2783 N   0  0  0  0  0  0  0  0  0  0  0  0
    7.5496  -14.2426   16.8030 C   0  0  0  0  0  0  0  0  0  0  0  0
    7.1357  -15.0119   17.8199 N   0  0  0  0  0  0  0  0  0  0  0  0
    7.5863  -15.2458   22.5871 C   0  0  0  0  0  0  0  0  0  0  0  0
    6.4069  -15.5318   22.9119 O   0  0  0  0  0  0  0  0  0  0  0  0
    8.5809  -15.4930   23.5565 N   0  0  0  0  0  0  0  0  0  0  0  0
    8.2927  -16.0118   24.8793 C   0  0  0  0  0  0  0  0  0  0  0  0
    9.5346  -16.0484   25.7148 C   0  0  0  0  0  0  0  0  0  0  0  0
   10.6563  -16.0832   25.1681 O   0  0  0  0  0  0  0  0  0  0  0  0
   10.7272  -13.5925   27.8452 C   0  0  0  0  0  0  0  0  0  0  0  0
   10.7806  -14.7754   28.7822 C   0  0  1  0  0  0  0  0  0  0  0  0
    9.5712  -14.6315   29.7158 C   0  0  0  0  0  0  0  0  0  0  0  0
   10.6467  -16.0616   27.9747 C   0  0  2  0  0  0  0  0  0  0  0  0
    9.4819  -16.0448   27.1345 N   0  0  0  0  0  0  0  0  0  0  0  0
   10.7373  -17.2362   28.8439 C   0  0  0  0  0  0  0  0  0  0  0  0
    9.7008  -17.8958   29.0870 O   0  0  0  0  0  0  0  0  0  0  0  0
   11.9129  -17.6703   29.4226 O   0  0  0  0  0  0  0  0  0  0  0  0
  2  1  1  6
  3  4  1  0
  3  2  1  0
  4  8  1  0
  5  6  1  0
  5  4  2  0
  6  7  1  0
  7  8  2  0
  9  2  1  0
  9 11  1  0
 10  9  2  0
 12 11  1  0
 12 13  1  0
 13 19  1  0
 14 13  2  0
 16 15  1  6
 16 17  1  0
 18 16  1  0
 18 19  1  1
 20 22  1  0
 20 18  1  0
 21 20  2  0
M  END
$$$$
