HGV.pdb
     RDKit          3D

 22 22  0  0  1  0  0  0  0  0999 V2000
    8.2309  -18.3722   20.6133 N   0  0  0  0  0  0  0  0  0  0  0  0
    8.2894  -16.9767   20.2227 C   0  0  1  0  0  0  0  0  0  0  0  0
    7.6336  -16.8476   18.8849 C   0  0  0  0  0  0  0  0  0  0  0  0
    8.4518  -17.5659   17.8777 C   0  0  0  0  0  0  0  0  0  0  0  0
    9.7517  -17.3163   17.4435 C   0  0  0  0  0  0  0  0  0  0  0  0
   10.0919  -18.2192   16.5126 N   0  0  0  0  0  0  0  0  0  0  0  0
    9.0514  -19.0428   16.3335 C   0  0  0  0  0  0  0  0  0  0  0  0
    8.0621  -18.6556   17.1511 N   0  0  0  0  0  0  0  0  0  0  0  0
    7.6004  -16.1897   21.2754 C   0  0  0  0  0  0  0  0  0  0  0  0
    7.4934  -14.9433   21.1615 O   0  0  0  0  0  0  0  0  0  0  0  0
    7.0380  -16.7639   22.4347 N   0  0  0  0  0  0  0  0  0  0  0  0
    6.3828  -15.9888   23.4701 C   0  0  0  0  0  0  0  0  0  0  0  0
    7.3879  -15.2205   24.2710 C   0  0  0  0  0  0  0  0  0  0  0  0
    8.6056  -15.4671   24.1503 O   0  0  0  0  0  0  0  0  0  0  0  0
    7.0164  -11.3146   25.3801 C   0  0  0  0  0  0  0  0  0  0  0  0
    7.3389  -12.2016   26.5589 C   0  0  1  0  0  0  0  0  0  0  0  0
    6.0037  -12.4671   27.2672 C   0  0  0  0  0  0  0  0  0  0  0  0
    7.9142  -13.5195   26.0525 C   0  0  2  0  0  0  0  0  0  0  0  0
    6.9986  -14.2011   25.1808 N   0  0  0  0  0  0  0  0  0  0  0  0
    8.4004  -14.3389   27.1641 C   0  0  0  0  0  0  0  0  0  0  0  0
    9.3663  -13.9278   27.8472 O   0  0  0  0  0  0  0  0  0  0  0  0
    7.8522  -15.5567   27.5132 O   0  0  0  0  0  0  0  0  0  0  0  0
  2  1  1  1
  3  4  1  0
  3  2  1  0
  4  8  1  0
  5  6  1  0
  5  4  2  0
  6  7  1  0
  7  8  2  0
  9  2  1  0
  9 11  1  0
 10  9  2  0
 12 11  1  0
 12 13  1  0
 13 19  1  0
 14 13  2  0
 16 15  1  6
 16 17  1  0
 18 16  1  0
 18 19  1  1
 20 22  1  0
 20 18  1  0
 21 20  2  0
M  END
$$$$
