HGV.pdb
     RDKit          3D

 22 22  0  0  1  0  0  0  0  0999 V2000
    8.4892  -16.1666   19.9267 N   0  0  0  0  0  0  0  0  0  0  0  0
    7.9952  -14.8589   20.3130 C   0  0  1  0  0  0  0  0  0  0  0  0
    6.9349  -14.4627   19.3356 C   0  0  0  0  0  0  0  0  0  0  0  0
    7.5525  -14.2994   17.9971 C   0  0  0  0  0  0  0  0  0  0  0  0
    8.3834  -13.2899   17.5162 C   0  0  0  0  0  0  0  0  0  0  0  0
    8.7034  -13.5462   16.2398 N   0  0  0  0  0  0  0  0  0  0  0  0
    8.1044  -14.6895   15.8831 C   0  0  0  0  0  0  0  0  0  0  0  0
    7.4109  -15.1475   16.9350 N   0  0  0  0  0  0  0  0  0  0  0  0
    7.4812  -14.9684   21.7008 C   0  0  0  0  0  0  0  0  0  0  0  0
    7.0354  -13.9521   22.2895 O   0  0  0  0  0  0  0  0  0  0  0  0
    7.4576  -16.1758   22.4298 N   0  0  0  0  0  0  0  0  0  0  0  0
    7.0104  -16.2670   23.8060 C   0  0  0  0  0  0  0  0  0  0  0  0
    7.8720  -15.4284   24.6982 C   0  0  0  0  0  0  0  0  0  0  0  0
    9.1134  -15.4471   24.5681 O   0  0  0  0  0  0  0  0  0  0  0  0
    6.9240  -11.7610   25.7584 C   0  0  0  0  0  0  0  0  0  0  0  0
    7.3570  -12.5102   26.9959 C   0  0  1  0  0  0  0  0  0  0  0  0
    6.0662  -12.8994   27.7290 C   0  0  0  0  0  0  0  0  0  0  0  0
    8.1046  -13.7728   26.5822 C   0  0  2  0  0  0  0  0  0  0  0  0
    7.3174  -14.5961   25.7073 N   0  0  0  0  0  0  0  0  0  0  0  0
    8.6272  -14.4782   27.7537 C   0  0  0  0  0  0  0  0  0  0  0  0
    8.1141  -15.5714   28.0858 O   0  0  0  0  0  0  0  0  0  0  0  0
    9.6675  -14.0069   28.5289 O   0  0  0  0  0  0  0  0  0  0  0  0
  2  1  1  6
  3  4  1  0
  3  2  1  0
  4  8  1  0
  5  6  1  0
  5  4  2  0
  6  7  1  0
  7  8  2  0
  9  2  1  0
  9 11  1  0
 10  9  2  0
 12 11  1  0
 12 13  1  0
 13 19  1  0
 14 13  2  0
 16 15  1  6
 16 17  1  0
 18 16  1  0
 18 19  1  1
 20 22  1  0
 20 18  1  0
 21 20  2  0
M  END
$$$$
