RPK.pdb
     RDKit          3D

 28 28  0  0  1  0  0  0  0  0999 V2000
    8.0112  -15.2756   17.0477 N   0  0  0  0  0  0  0  0  0  0  0  0
    8.0824  -13.8860   16.7444 C   0  0  0  0  0  0  0  0  0  0  0  0
    8.7037  -13.5291   15.6577 N   0  0  0  0  0  0  0  0  0  0  0  0
    7.4934  -12.9284   17.6026 N   0  0  0  0  0  0  0  0  0  0  0  0
    6.8579  -13.3289   18.8233 C   0  0  0  0  0  0  0  0  0  0  0  0
    7.6048  -14.4475   19.5219 C   0  0  0  0  0  0  0  0  0  0  0  0
    7.4466  -14.4001   21.0062 C   0  0  0  0  0  0  0  0  0  0  0  0
    8.6791  -13.8530   21.7009 C   0  0  2  0  0  0  0  0  0  0  0  0
    9.7926  -14.2005   20.8198 N   0  0  0  0  0  0  0  0  0  0  0  0
    8.8387  -14.5217   23.0522 C   0  0  0  0  0  0  0  0  0  0  0  0
    9.4786  -15.6022   22.9857 O   0  0  0  0  0  0  0  0  0  0  0  0
    8.8598  -12.5485   15.3911 N   0  0  0  0  0  0  0  0  0  0  0  0
    8.3055  -13.9397   24.1974 C   0  0  0  0  0  0  0  0  0  0  0  0
    7.9972  -12.4944   24.2865 C   0  0  0  0  0  0  0  0  0  0  0  0
    6.5746  -12.5890   24.7906 C   0  0  0  0  0  0  0  0  0  0  0  0
    6.5135  -13.8745   25.5907 C   0  0  2  0  0  0  0  0  0  0  0  0
    7.9594  -14.4027   25.4826 C   0  0  0  0  0  0  0  0  0  0  0  0
    8.0268  -15.8096   25.8041 O   0  0  0  0  0  0  0  0  0  0  0  0
    7.0943  -16.6092   25.6502 N   0  0  0  0  0  0  0  0  0  0  0  0
    9.2606  -16.3144   26.3389 C   0  0  1  0  0  0  0  0  0  0  0  0
    9.4389  -17.7356   26.6044 C   0  0  0  0  0  0  0  0  0  0  0  0
   10.3844  -18.3741   25.6097 C   0  0  0  0  0  0  0  0  0  0  0  0
   10.5953  -19.8286   25.8676 C   0  0  0  0  0  0  0  0  0  0  0  0
   11.5394  -20.4295   24.8623 C   0  0  0  0  0  0  0  0  0  0  0  0
   11.5265  -21.9387   24.9621 N   0  0  0  0  0  0  0  0  0  0  0  0
   12.3376  -22.5036   23.8827 C   0  0  0  0  0  0  0  0  0  0  0  0
    9.9722  -17.8927   27.9685 O   0  0  0  0  0  0  0  0  0  0  0  0
   10.5590  -16.8324   28.6493 O   0  0  0  0  0  0  0  0  0  0  0  0
  2  4  1  0
  2  1  1  0
  3  2  2  0
  5  4  1  0
  6  5  1  0
  7  6  1  0
  8  7  1  0
  8  9  1  6
 10  8  1  0
 11 10  2  0
 12 16  1  0
 12 10  1  0
 13 14  1  0
 13 12  1  0
 15 14  1  0
 15 16  1  0
 17 19  1  0
 16 17  1  6
 18 17  2  0
 20 19  1  0
 20 21  1  1
 22 21  1  0
 23 22  1  0
 23 24  1  0
 24 25  1  0
 26 20  1  0
 27 26  1  0
 28 26  2  0
M  END
$$$$
