RPK.pdb
     RDKit          3D

 28 28  0  0  1  0  0  0  0  0999 V2000
    9.1357  -18.5925   17.9337 N   0  0  0  0  0  0  0  0  0  0  0  0
    8.6481  -18.6990   19.2675 C   0  0  0  0  0  0  0  0  0  0  0  0
    9.3623  -19.3655   20.1276 N   0  0  0  0  0  0  0  0  0  0  0  0
    7.4238  -18.0960   19.6391 N   0  0  0  0  0  0  0  0  0  0  0  0
    7.0109  -16.8532   19.0566 C   0  0  0  0  0  0  0  0  0  0  0  0
    7.7597  -15.6689   19.6345 C   0  0  0  0  0  0  0  0  0  0  0  0
    6.8446  -14.6499   20.2300 C   0  0  0  0  0  0  0  0  0  0  0  0
    7.5993  -13.5047   20.8780 C   0  0  2  0  0  0  0  0  0  0  0  0
    8.5313  -13.0405   19.8518 N   0  0  0  0  0  0  0  0  0  0  0  0
    8.3517  -14.0150   22.0912 C   0  0  0  0  0  0  0  0  0  0  0  0
    9.2796  -14.8079   21.7879 O   0  0  0  0  0  0  0  0  0  0  0  0
    9.1069  -19.4660   21.1184 N   0  0  0  0  0  0  0  0  0  0  0  0
    7.9939  -13.6037   23.3707 C   0  0  0  0  0  0  0  0  0  0  0  0
    7.6245  -12.2045   23.6832 C   0  0  0  0  0  0  0  0  0  0  0  0
    6.3189  -12.4617   24.4018 C   0  0  0  0  0  0  0  0  0  0  0  0
    6.4709  -13.8277   25.0403 C   0  0  2  0  0  0  0  0  0  0  0  0
    7.9035  -14.2290   24.6304 C   0  0  0  0  0  0  0  0  0  0  0  0
    8.1054  -15.6533   24.7645 O   0  0  0  0  0  0  0  0  0  0  0  0
    7.2745  -16.5124   24.4420 N   0  0  0  0  0  0  0  0  0  0  0  0
    9.3563  -16.1024   25.3095 C   0  0  1  0  0  0  0  0  0  0  0  0
    9.6462  -17.5226   25.4540 C   0  0  0  0  0  0  0  0  0  0  0  0
   10.4588  -18.0469   24.2895 C   0  0  0  0  0  0  0  0  0  0  0  0
   11.8270  -17.4547   24.2292 C   0  0  0  0  0  0  0  0  0  0  0  0
   12.5664  -17.9138   23.0022 C   0  0  0  0  0  0  0  0  0  0  0  0
   13.9587  -17.3233   22.9727 N   0  0  0  0  0  0  0  0  0  0  0  0
   14.6334  -17.7318   21.7399 C   0  0  0  0  0  0  0  0  0  0  0  0
   10.3907  -17.7220   26.7093 O   0  0  0  0  0  0  0  0  0  0  0  0
   10.7963  -16.6498   27.4954 O   0  0  0  0  0  0  0  0  0  0  0  0
  2  4  1  0
  2  1  1  0
  3  2  2  0
  5  4  1  0
  6  5  1  0
  7  6  1  0
  8  7  1  0
  8  9  1  6
 10  8  1  0
 11 10  2  0
 12 16  1  0
 12 10  1  0
 13 14  1  0
 13 12  1  0
 15 14  1  0
 15 16  1  0
 17 19  1  0
 16 17  1  6
 18 17  2  0
 20 19  1  0
 20 21  1  1
 22 21  1  0
 23 22  1  0
 23 24  1  0
 24 25  1  0
 26 20  1  0
 27 26  1  0
 28 26  2  0
M  END
$$$$
