RPK.pdb
     RDKit          3D

 28 28  0  0  1  0  0  0  0  0999 V2000
    7.2653  -12.6114   20.1654 N   0  0  0  0  0  0  0  0  0  0  0  0
    8.2227  -13.1405   19.2535 C   0  0  0  0  0  0  0  0  0  0  0  0
    9.1369  -12.3366   18.7929 N   0  0  0  0  0  0  0  0  0  0  0  0
    8.1754  -14.4996   18.8645 N   0  0  0  0  0  0  0  0  0  0  0  0
    9.2277  -15.0759   18.0803 C   0  0  0  0  0  0  0  0  0  0  0  0
    9.0377  -16.5643   17.8658 C   0  0  0  0  0  0  0  0  0  0  0  0
    9.6523  -17.3812   18.9546 C   0  0  0  0  0  0  0  0  0  0  0  0
    8.6623  -18.3432   19.5834 C   0  0  2  0  0  0  0  0  0  0  0  0
    7.3480  -17.7714   19.2957 N   0  0  0  0  0  0  0  0  0  0  0  0
    8.8998  -18.4099   21.0792 C   0  0  0  0  0  0  0  0  0  0  0  0
    8.6092  -17.3355   21.6645 O   0  0  0  0  0  0  0  0  0  0  0  0
    9.8478  -12.6216   18.1071 N   0  0  0  0  0  0  0  0  0  0  0  0
    9.3890  -19.5716   21.6672 C   0  0  0  0  0  0  0  0  0  0  0  0
    9.0504  -20.9222   21.1642 C   0  0  0  0  0  0  0  0  0  0  0  0
   10.4481  -21.4899   21.0581 C   0  0  0  0  0  0  0  0  0  0  0  0
   11.2547  -20.7816   22.1277 C   0  0  2  0  0  0  0  0  0  0  0  0
   10.2040  -19.8589   22.7804 C   0  0  0  0  0  0  0  0  0  0  0  0
   10.8351  -18.7959   23.5281 O   0  0  0  0  0  0  0  0  0  0  0  0
   11.7522  -18.0847   23.0972 N   0  0  0  0  0  0  0  0  0  0  0  0
   10.3656  -18.5478   24.8627 C   0  0  1  0  0  0  0  0  0  0  0  0
   10.8572  -17.4137   25.6336 C   0  0  0  0  0  0  0  0  0  0  0  0
    9.7282  -16.6749   26.3198 C   0  0  0  0  0  0  0  0  0  0  0  0
   10.2092  -15.5348   27.1536 C   0  0  0  0  0  0  0  0  0  0  0  0
    9.0637  -14.8330   27.8307 C   0  0  0  0  0  0  0  0  0  0  0  0
    9.5687  -13.6633   28.6460 N   0  0  0  0  0  0  0  0  0  0  0  0
    8.4353  -12.9875   29.2791 C   0  0  0  0  0  0  0  0  0  0  0  0
   11.8101  -17.9111   26.6406 O   0  0  0  0  0  0  0  0  0  0  0  0
   13.0022  -17.2481   26.9075 O   0  0  0  0  0  0  0  0  0  0  0  0
  2  4  1  0
  2  1  1  0
  3  2  2  0
  5  4  1  0
  6  5  1  0
  7  6  1  0
  8  7  1  0
  8  9  1  1
 10  8  1  0
 11 10  2  0
 12 16  1  0
 12 10  1  0
 13 14  1  0
 13 12  1  0
 15 14  1  0
 15 16  1  0
 17 19  1  0
 16 17  1  6
 18 17  2  0
 20 19  1  0
 20 21  1  1
 22 21  1  0
 23 22  1  0
 23 24  1  0
 24 25  1  0
 26 20  1  0
 27 26  1  0
 28 26  2  0
M  END
$$$$
