RPK.pdb
     RDKit          3D

 28 28  0  0  1  0  0  0  0  0999 V2000
    8.9796  -20.7962   16.7544 N   0  0  0  0  0  0  0  0  0  0  0  0
    7.7889  -20.6767   15.9823 C   0  0  0  0  0  0  0  0  0  0  0  0
    7.6870  -21.3951   14.9017 N   0  0  0  0  0  0  0  0  0  0  0  0
    6.7526  -19.8018   16.3838 N   0  0  0  0  0  0  0  0  0  0  0  0
    6.9159  -18.9423   17.5192 C   0  0  0  0  0  0  0  0  0  0  0  0
    8.0511  -17.9548   17.3358 C   0  0  0  0  0  0  0  0  0  0  0  0
    7.5644  -16.5657   17.0830 C   0  0  0  0  0  0  0  0  0  0  0  0
    8.7004  -15.5656   16.9811 C   0  0  2  0  0  0  0  0  0  0  0  0
    9.6299  -16.1497   16.0157 N   0  0  0  0  0  0  0  0  0  0  0  0
    9.3640  -15.4119   18.3355 C   0  0  0  0  0  0  0  0  0  0  0  0
   10.2230  -16.3030   18.5583 O   0  0  0  0  0  0  0  0  0  0  0  0
    6.8638  -21.3775   14.2859 N   0  0  0  0  0  0  0  0  0  0  0  0
    9.0064  -14.3701   19.1849 C   0  0  0  0  0  0  0  0  0  0  0  0
    8.7726  -12.9913   18.6992 C   0  0  0  0  0  0  0  0  0  0  0  0
    7.4234  -12.7441   19.3361 C   0  0  0  0  0  0  0  0  0  0  0  0
    7.4116  -13.5839   20.5975 C   0  0  2  0  0  0  0  0  0  0  0  0
    8.8085  -14.2392   20.5740 C   0  0  0  0  0  0  0  0  0  0  0  0
    8.8577  -15.3950   21.4395 O   0  0  0  0  0  0  0  0  0  0  0  0
    8.0464  -16.3294   21.4078 N   0  0  0  0  0  0  0  0  0  0  0  0
    9.9214  -15.4638   22.4025 C   0  0  1  0  0  0  0  0  0  0  0  0
   10.0728  -16.6216   23.2734 C   0  0  0  0  0  0  0  0  0  0  0  0
   11.5160  -17.0700   23.3585 C   0  0  0  0  0  0  0  0  0  0  0  0
   11.7035  -18.2373   24.2689 C   0  0  0  0  0  0  0  0  0  0  0  0
   13.1372  -18.6928   24.2835 C   0  0  0  0  0  0  0  0  0  0  0  0
   13.2937  -19.9162   25.1591 N   0  0  0  0  0  0  0  0  0  0  0  0
   14.6803  -20.3809   25.1006 C   0  0  0  0  0  0  0  0  0  0  0  0
    9.5836  -16.2635   24.6159 O   0  0  0  0  0  0  0  0  0  0  0  0
    9.1821  -17.2319   25.5286 O   0  0  0  0  0  0  0  0  0  0  0  0
  2  4  1  0
  2  1  1  0
  3  2  2  0
  5  4  1  0
  6  5  1  0
  7  6  1  0
  8  7  1  0
  8  9  1  6
 10  8  1  0
 11 10  2  0
 12 16  1  0
 12 10  1  0
 13 14  1  0
 13 12  1  0
 15 14  1  0
 15 16  1  0
 17 19  1  0
 16 17  1  1
 18 17  2  0
 20 19  1  0
 20 21  1  1
 22 21  1  0
 23 22  1  0
 23 24  1  0
 24 25  1  0
 26 20  1  0
 27 26  1  0
 28 26  2  0
M  END
$$$$
