RPK.pdb
     RDKit          3D

 28 28  0  0  1  0  0  0  0  0999 V2000
    7.6121  -14.4323   17.2650 N   0  0  0  0  0  0  0  0  0  0  0  0
    8.0342  -13.4099   18.1619 C   0  0  0  0  0  0  0  0  0  0  0  0
    9.2372  -12.9329   18.0219 N   0  0  0  0  0  0  0  0  0  0  0  0
    7.1671  -12.9320   19.1720 N   0  0  0  0  0  0  0  0  0  0  0  0
    6.4157  -13.8420   19.9855 C   0  0  0  0  0  0  0  0  0  0  0  0
    7.2111  -15.0793   20.3515 C   0  0  0  0  0  0  0  0  0  0  0  0
    7.3778  -15.2352   21.8274 C   0  0  0  0  0  0  0  0  0  0  0  0
    8.4565  -14.3265   22.3857 C   0  0  2  0  0  0  0  0  0  0  0  0
    9.6480  -14.6272   21.5939 N   0  0  0  0  0  0  0  0  0  0  0  0
    8.6898  -14.6545   23.8473 C   0  0  0  0  0  0  0  0  0  0  0  0
    9.2834  -15.7513   24.0091 O   0  0  0  0  0  0  0  0  0  0  0  0
    9.6016  -12.1454   18.5732 N   0  0  0  0  0  0  0  0  0  0  0  0
    8.2632  -13.7843   24.8449 C   0  0  0  0  0  0  0  0  0  0  0  0
    7.8311  -12.3971   24.5604 C   0  0  0  0  0  0  0  0  0  0  0  0
    6.5061  -12.4103   25.2891 C   0  0  0  0  0  0  0  0  0  0  0  0
    6.6793  -13.3976   26.4256 C   0  0  2  0  0  0  0  0  0  0  0  0
    8.1415  -13.8575   26.2470 C   0  0  0  0  0  0  0  0  0  0  0  0
    8.3881  -15.0974   26.9463 O   0  0  0  0  0  0  0  0  0  0  0  0
    7.5242  -15.9514   27.1848 N   0  0  0  0  0  0  0  0  0  0  0  0
    9.7277  -15.3562   27.3954 C   0  0  1  0  0  0  0  0  0  0  0  0
   10.0576  -16.5834   28.1075 C   0  0  0  0  0  0  0  0  0  0  0  0
   11.2191  -17.3077   27.4613 C   0  0  0  0  0  0  0  0  0  0  0  0
   11.6289  -18.5276   28.2166 C   0  0  0  0  0  0  0  0  0  0  0  0
   12.7700  -19.2329   27.5357 C   0  0  0  0  0  0  0  0  0  0  0  0
   13.1666  -20.4682   28.3133 N   0  0  0  0  0  0  0  0  0  0  0  0
   14.2040  -21.1927   27.5777 C   0  0  0  0  0  0  0  0  0  0  0  0
   10.3984  -16.2391   29.4985 O   0  0  0  0  0  0  0  0  0  0  0  0
   10.3798  -17.1908   30.5114 O   0  0  0  0  0  0  0  0  0  0  0  0
  2  4  1  0
  2  1  1  0
  3  2  2  0
  5  4  1  0
  6  5  1  0
  7  6  1  0
  8  7  1  0
  8  9  1  6
 10  8  1  0
 11 10  2  0
 12 16  1  0
 12 10  1  0
 13 14  1  0
 13 12  1  0
 15 14  1  0
 15 16  1  0
 17 19  1  0
 16 17  1  6
 18 17  2  0
 20 19  1  0
 20 21  1  1
 22 21  1  0
 23 22  1  0
 23 24  1  0
 24 25  1  0
 26 20  1  0
 27 26  1  0
 28 26  2  0
M  END
$$$$
