RPK.pdb
     RDKit          3D

 28 28  0  0  1  0  0  0  0  0999 V2000
    6.3636  -21.0093   15.8628 N   0  0  0  0  0  0  0  0  0  0  0  0
    7.3378  -20.8926   16.8950 C   0  0  0  0  0  0  0  0  0  0  0  0
    7.5023  -21.9047   17.6968 N   0  0  0  0  0  0  0  0  0  0  0  0
    8.0998  -19.7097   17.0387 N   0  0  0  0  0  0  0  0  0  0  0  0
    7.5954  -18.4507   16.5751 C   0  0  0  0  0  0  0  0  0  0  0  0
    8.5799  -17.3193   16.7948 C   0  0  0  0  0  0  0  0  0  0  0  0
    8.1016  -16.0264   16.2204 C   0  0  0  0  0  0  0  0  0  0  0  0
    9.0451  -14.8772   16.5206 C   0  0  2  0  0  0  0  0  0  0  0  0
   10.1633  -15.0578   15.5964 N   0  0  0  0  0  0  0  0  0  0  0  0
    9.5193  -14.9722   17.9575 C   0  0  0  0  0  0  0  0  0  0  0  0
   10.3647  -15.8873   18.1294 O   0  0  0  0  0  0  0  0  0  0  0  0
    8.1967  -21.9193   18.4549 N   0  0  0  0  0  0  0  0  0  0  0  0
    9.0249  -14.1039   18.9249 C   0  0  0  0  0  0  0  0  0  0  0  0
    8.6097  -12.7174   18.6132 C   0  0  0  0  0  0  0  0  0  0  0  0
    7.2389  -12.7341   19.2515 C   0  0  0  0  0  0  0  0  0  0  0  0
    7.3377  -13.7222   20.3963 C   0  0  2  0  0  0  0  0  0  0  0  0
    8.8096  -14.1787   20.3157 C   0  0  0  0  0  0  0  0  0  0  0  0
    9.0116  -15.4187   21.0290 O   0  0  0  0  0  0  0  0  0  0  0  0
    8.2944  -16.4207   20.9099 N   0  0  0  0  0  0  0  0  0  0  0  0
   10.1208  -15.4933   21.9385 C   0  0  1  0  0  0  0  0  0  0  0  0
   10.3943  -16.7097   22.6920 C   0  0  0  0  0  0  0  0  0  0  0  0
   11.8381  -17.1412   22.5488 C   0  0  0  0  0  0  0  0  0  0  0  0
   12.1314  -18.4170   23.2649 C   0  0  0  0  0  0  0  0  0  0  0  0
   13.5799  -18.7992   23.1270 C   0  0  0  0  0  0  0  0  0  0  0  0
   13.8340  -20.1457   23.7677 N   0  0  0  0  0  0  0  0  0  0  0  0
   15.2165  -20.5519   23.5117 C   0  0  0  0  0  0  0  0  0  0  0  0
   10.0889  -16.4588   24.1109 O   0  0  0  0  0  0  0  0  0  0  0  0
    9.7215  -15.1981   24.5665 O   0  0  0  0  0  0  0  0  0  0  0  0
  2  4  1  0
  2  1  1  0
  3  2  2  0
  5  4  1  0
  6  5  1  0
  7  6  1  0
  8  7  1  0
  8  9  1  6
 10  8  1  0
 11 10  2  0
 12 16  1  0
 12 10  1  0
 13 14  1  0
 13 12  1  0
 15 14  1  0
 15 16  1  0
 17 19  1  0
 16 17  1  6
 18 17  2  0
 20 19  1  0
 20 21  1  1
 22 21  1  0
 23 22  1  0
 23 24  1  0
 24 25  1  0
 26 20  1  0
 27 26  1  0
 28 26  2  0
M  END
$$$$
