RLY.pdb
     RDKit          3D

 32 32  0  0  1  0  0  0  0  0999 V2000
    8.3555  -14.8835   14.5276 N   0  0  0  0  0  0  0  0  0  0  0  0
    9.6173  -15.5308   14.3818 C   0  0  0  0  0  0  0  0  0  0  0  0
   10.4571  -15.1583   13.4519 N   0  0  0  0  0  0  0  0  0  0  0  0
   10.0339  -16.5930   15.2150 N   0  0  0  0  0  0  0  0  0  0  0  0
    9.1191  -17.2049   16.1484 C   0  0  0  0  0  0  0  0  0  0  0  0
    9.7772  -17.2779   17.4881 C   0  0  0  0  0  0  0  0  0  0  0  0
    8.9135  -17.8116   18.5778 C   0  0  0  0  0  0  0  0  0  0  0  0
    9.6343  -17.9614   19.8930 C   0  0  2  0  0  0  0  0  0  0  0  0
    8.8963  -18.7213   20.8662 N   0  0  0  0  0  0  0  0  0  0  0  0
    9.9687  -16.6450   20.4922 C   0  0  0  0  0  0  0  0  0  0  0  0
   11.1037  -16.1254   20.3475 O   0  0  0  0  0  0  0  0  0  0  0  0
   11.3775  -15.6531   13.3952 C   0  0  0  0  0  0  0  0  0  0  0  0
    7.3424  -11.9223   20.2968 C   0  0  1  0  0  0  0  0  0  0  0  0
    8.3983  -13.0355   20.3685 C   0  0  0  0  0  0  0  0  0  0  0  0
    9.6963  -12.5220   19.8488 C   0  0  0  0  0  0  0  0  0  0  0  0
    8.4837  -13.5649   21.7678 C   0  0  2  0  0  0  0  0  0  0  0  0
    9.3875  -14.7125   21.9790 N   0  0  0  0  0  0  0  0  0  0  0  0
    9.0191  -15.9025   21.2633 C   0  0  0  0  0  0  0  0  0  0  0  0
    9.5958  -15.0108   23.4415 O   0  0  0  0  0  0  0  0  0  0  0  0
   10.0034  -14.1125   24.2216 O   0  0  0  0  0  0  0  0  0  0  0  0
    5.9300  -11.3790   26.9050 C   0  0  0  0  0  0  0  0  0  0  0  0
    6.4711  -12.6383   26.6933 C   0  0  0  0  0  0  0  0  0  0  0  0
    5.6951  -13.5712   26.0125 C   0  0  0  0  0  0  0  0  0  0  0  0
    6.2378  -14.8055   25.8102 C   0  0  0  0  0  0  0  0  0  0  0  0
    7.5084  -15.1476   26.2530 C   0  0  0  0  0  0  0  0  0  0  0  0
    8.0216  -16.5102   25.9969 C   0  0  2  0  0  0  0  0  0  0  0  0
    9.3962  -16.5213   25.4175 N   0  0  0  0  0  0  0  0  0  0  0  0
    9.3442  -16.2943   23.9793 C   0  0  0  0  0  0  0  0  0  0  0  0
   10.1576  -17.7650   25.7094 O   0  0  0  0  0  0  0  0  0  0  0  0
   10.4409  -18.2247   26.9722 C   0  0  0  0  0  0  0  0  0  0  0  0
    8.2650  -14.2240   26.9219 C   0  0  0  0  0  0  0  0  0  0  0  0
    7.7260  -12.9630   27.1353 O   0  0  0  0  0  0  0  0  0  0  0  0
  2  3  2  0
  2  1  1  0
  4  2  1  0
  5  4  1  0
  6  5  1  0
  7  6  1  0
  8  9  1  1
  8  7  1  0
 10 11  2  0
 10  8  1  0
 13 12  1  6
 13 15  1  0
 14 13  1  0
 16 15  1  6
 16 17  1  0
 16 18  1  0
 17 10  1  0
 18 19  2  0
 21 22  2  0
 21 20  1  0
 23 22  1  0
 24 23  2  0
 25 24  1  0
 26 25  1  1
 27 18  1  0
 27 26  1  0
 28 29  1  0
 28 26  1  0
 30 24  1  0
 30 31  2  0
 31 21  1  0
 32 28  2  0
M  END
$$$$
