RLY.pdb
     RDKit          3D

 32 32  0  0  1  0  0  0  0  0999 V2000
    9.6691  -13.6001   17.5663 N   0  0  0  0  0  0  0  0  0  0  0  0
    8.3542  -13.6246   17.0158 C   0  0  0  0  0  0  0  0  0  0  0  0
    7.7615  -12.5188   16.6490 N   0  0  0  0  0  0  0  0  0  0  0  0
    7.6225  -14.8194   16.8335 N   0  0  0  0  0  0  0  0  0  0  0  0
    7.7977  -15.9389   17.7270 C   0  0  0  0  0  0  0  0  0  0  0  0
    6.9142  -15.7465   18.9168 C   0  0  0  0  0  0  0  0  0  0  0  0
    6.7653  -16.9492   19.7828 C   0  0  0  0  0  0  0  0  0  0  0  0
    7.8567  -17.0825   20.8137 C   0  0  2  0  0  0  0  0  0  0  0  0
    7.6297  -18.1490   21.7520 N   0  0  0  0  0  0  0  0  0  0  0  0
    8.0479  -15.8258   21.5806 C   0  0  0  0  0  0  0  0  0  0  0  0
    8.6230  -14.8286   21.0767 O   0  0  0  0  0  0  0  0  0  0  0  0
    6.8027  -12.5898   16.2357 C   0  0  0  0  0  0  0  0  0  0  0  0
    7.1490  -11.7836   24.7993 C   0  0  2  0  0  0  0  0  0  0  0  0
    7.1734  -13.0583   25.6558 C   0  0  0  0  0  0  0  0  0  0  0  0
    6.2168  -12.9132   26.7883 C   0  0  0  0  0  0  0  0  0  0  0  0
    6.9009  -14.2540   24.7945 C   0  0  1  0  0  0  0  0  0  0  0  0
    7.8635  -14.5087   23.7052 N   0  0  0  0  0  0  0  0  0  0  0  0
    7.5893  -15.6860   22.9287 C   0  0  0  0  0  0  0  0  0  0  0  0
    9.2888  -14.5108   24.1947 O   0  0  0  0  0  0  0  0  0  0  0  0
    9.9021  -13.4270   24.3707 O   0  0  0  0  0  0  0  0  0  0  0  0
   12.0529  -16.3332   31.9240 C   0  0  0  0  0  0  0  0  0  0  0  0
   11.4813  -16.1235   30.6779 C   0  0  0  0  0  0  0  0  0  0  0  0
   10.8935  -17.2130   30.0427 C   0  0  0  0  0  0  0  0  0  0  0  0
   10.3346  -16.9945   28.8184 C   0  0  0  0  0  0  0  0  0  0  0  0
   10.3364  -15.7490   28.2049 C   0  0  0  0  0  0  0  0  0  0  0  0
    9.7126  -15.5973   26.8733 C   0  0  2  0  0  0  0  0  0  0  0  0
   10.6398  -15.9189   25.7498 N   0  0  0  0  0  0  0  0  0  0  0  0
    9.9767  -15.7157   24.4685 C   0  0  0  0  0  0  0  0  0  0  0  0
   11.2068  -17.2921   25.8174 O   0  0  0  0  0  0  0  0  0  0  0  0
   10.5252  -18.4325   25.4695 C   0  0  0  0  0  0  0  0  0  0  0  0
   10.9168  -14.6827   28.8367 C   0  0  0  0  0  0  0  0  0  0  0  0
   11.4897  -14.8896   30.0837 O   0  0  0  0  0  0  0  0  0  0  0  0
  2  3  2  0
  2  1  1  0
  4  2  1  0
  5  4  1  0
  6  5  1  0
  7  6  1  0
  8  9  1  1
  8  7  1  0
 10 11  2  0
 10  8  1  0
 13 12  1  1
 13 15  1  0
 14 13  1  0
 16 15  1  6
 16 17  1  0
 16 18  1  0
 17 10  1  0
 18 19  2  0
 21 22  2  0
 21 20  1  0
 23 22  1  0
 24 23  2  0
 25 24  1  0
 26 25  1  6
 27 18  1  0
 27 26  1  0
 28 29  1  0
 28 26  1  0
 30 24  1  0
 30 31  2  0
 31 21  1  0
 32 28  2  0
M  END
$$$$
