RLY.pdb
     RDKit          3D

 32 32  0  0  1  0  0  0  0  0999 V2000
   10.2610  -18.4331   16.6052 N   0  0  0  0  0  0  0  0  0  0  0  0
    8.9101  -18.6585   16.2093 C   0  0  0  0  0  0  0  0  0  0  0  0
    8.5977  -19.6683   15.4403 N   0  0  0  0  0  0  0  0  0  0  0  0
    7.8441  -17.8244   16.6142 N   0  0  0  0  0  0  0  0  0  0  0  0
    8.0823  -16.6681   17.4440 C   0  0  0  0  0  0  0  0  0  0  0  0
    8.1886  -17.1119   18.8670 C   0  0  0  0  0  0  0  0  0  0  0  0
    8.3007  -16.0052   19.8576 C   0  0  0  0  0  0  0  0  0  0  0  0
    8.3747  -16.4852   21.2845 C   0  0  2  0  0  0  0  0  0  0  0  0
    7.1994  -17.1972   21.7099 N   0  0  0  0  0  0  0  0  0  0  0  0
    8.6045  -15.3657   22.2320 C   0  0  0  0  0  0  0  0  0  0  0  0
    9.6143  -14.6234   22.1410 O   0  0  0  0  0  0  0  0  0  0  0  0
    7.5929  -19.7896   15.1737 C   0  0  0  0  0  0  0  0  0  0  0  0
    7.2891  -11.1287   25.2618 C   0  0  2  0  0  0  0  0  0  0  0  0
    6.8768  -12.4493   25.9290 C   0  0  0  0  0  0  0  0  0  0  0  0
    5.6710  -12.2229   26.7737 C   0  0  0  0  0  0  0  0  0  0  0  0
    6.6834  -13.5069   24.8850 C   0  0  1  0  0  0  0  0  0  0  0  0
    7.9015  -13.9776   24.1972 N   0  0  0  0  0  0  0  0  0  0  0  0
    7.6914  -15.0757   23.2948 C   0  0  0  0  0  0  0  0  0  0  0  0
    9.0172  -14.2846   25.1626 O   0  0  0  0  0  0  0  0  0  0  0  0
    9.4233  -13.4055   25.9650 O   0  0  0  0  0  0  0  0  0  0  0  0
   12.6885  -17.4472   32.0929 C   0  0  0  0  0  0  0  0  0  0  0  0
   11.9513  -17.0792   30.9773 C   0  0  0  0  0  0  0  0  0  0  0  0
   11.8479  -15.7223   30.6873 C   0  0  0  0  0  0  0  0  0  0  0  0
   11.1209  -15.3730   29.5880 C   0  0  0  0  0  0  0  0  0  0  0  0
   10.4978  -16.3083   28.7728 C   0  0  0  0  0  0  0  0  0  0  0  0
    9.7237  -15.8459   27.6013 C   0  0  1  0  0  0  0  0  0  0  0  0
   10.4837  -15.9379   26.3210 N   0  0  0  0  0  0  0  0  0  0  0  0
    9.6379  -15.5548   25.1983 C   0  0  0  0  0  0  0  0  0  0  0  0
   11.0800  -17.2780   26.0751 O   0  0  0  0  0  0  0  0  0  0  0  0
   12.2926  -17.6918   26.5696 C   0  0  0  0  0  0  0  0  0  0  0  0
   10.6046  -17.6409   29.0654 C   0  0  0  0  0  0  0  0  0  0  0  0
   11.3415  -18.0121   30.1813 O   0  0  0  0  0  0  0  0  0  0  0  0
  2  3  2  0
  2  1  1  0
  4  2  1  0
  5  4  1  0
  6  5  1  0
  7  6  1  0
  8  9  1  1
  8  7  1  0
 10 11  2  0
 10  8  1  0
 13 12  1  1
 13 15  1  0
 14 13  1  0
 16 15  1  6
 16 17  1  0
 16 18  1  0
 17 10  1  0
 18 19  2  0
 21 22  2  0
 21 20  1  0
 23 22  1  0
 24 23  2  0
 25 24  1  0
 26 25  1  1
 27 18  1  0
 27 26  1  0
 28 29  1  0
 28 26  1  0
 30 24  1  0
 30 31  2  0
 31 21  1  0
 32 28  2  0
M  END
$$$$
