RLY.pdb
     RDKit          3D

 32 32  0  0  1  0  0  0  0  0999 V2000
    7.0548  -12.9054   17.7313 N   0  0  0  0  0  0  0  0  0  0  0  0
    7.7434  -13.8038   16.8646 C   0  0  0  0  0  0  0  0  0  0  0  0
    8.5200  -13.3538   15.9143 N   0  0  0  0  0  0  0  0  0  0  0  0
    7.6349  -15.2082   16.9744 N   0  0  0  0  0  0  0  0  0  0  0  0
    7.1186  -15.8196   18.1753 C   0  0  0  0  0  0  0  0  0  0  0  0
    7.3778  -14.9059   19.3290 C   0  0  0  0  0  0  0  0  0  0  0  0
    6.8578  -15.3921   20.6373 C   0  0  0  0  0  0  0  0  0  0  0  0
    7.8818  -16.1488   21.4439 C   0  0  2  0  0  0  0  0  0  0  0  0
    7.3388  -17.2899   22.1312 N   0  0  0  0  0  0  0  0  0  0  0  0
    8.5467  -15.2792   22.4466 C   0  0  0  0  0  0  0  0  0  0  0  0
    9.5892  -14.6344   22.1702 O   0  0  0  0  0  0  0  0  0  0  0  0
    9.0030  -14.0527   15.3031 C   0  0  0  0  0  0  0  0  0  0  0  0
    5.5901  -12.5416   26.1999 C   0  0  1  0  0  0  0  0  0  0  0  0
    6.6230  -12.8651   25.1100 C   0  0  0  0  0  0  0  0  0  0  0  0
    7.0516  -11.6041   24.4432 C   0  0  0  0  0  0  0  0  0  0  0  0
    7.7591  -13.6426   25.7020 C   0  0  2  0  0  0  0  0  0  0  0  0
    8.6790  -14.2878   24.7450 N   0  0  0  0  0  0  0  0  0  0  0  0
    8.0370  -15.1315   23.7754 C   0  0  0  0  0  0  0  0  0  0  0  0
    9.7965  -15.0239   25.4382 O   0  0  0  0  0  0  0  0  0  0  0  0
   10.2092  -14.6400   26.5625 O   0  0  0  0  0  0  0  0  0  0  0  0
   10.9515  -14.9920   31.6497 C   0  0  0  0  0  0  0  0  0  0  0  0
   10.8007  -15.6745   30.4518 C   0  0  0  0  0  0  0  0  0  0  0  0
   10.3096  -14.9661   29.3596 C   0  0  0  0  0  0  0  0  0  0  0  0
   10.1660  -15.6477   28.1875 C   0  0  0  0  0  0  0  0  0  0  0  0
   10.4872  -16.9921   28.0576 C   0  0  0  0  0  0  0  0  0  0  0  0
   10.2976  -17.6587   26.7518 C   0  0  2  0  0  0  0  0  0  0  0  0
   11.1635  -17.0979   25.6743 N   0  0  0  0  0  0  0  0  0  0  0  0
   10.4116  -16.1562   24.8555 C   0  0  0  0  0  0  0  0  0  0  0  0
   11.7909  -18.1344   24.8119 O   0  0  0  0  0  0  0  0  0  0  0  0
   12.8109  -18.9635   25.2099 C   0  0  0  0  0  0  0  0  0  0  0  0
   10.9697  -17.6813   29.1371 C   0  0  0  0  0  0  0  0  0  0  0  0
   11.1215  -17.0010   30.3371 O   0  0  0  0  0  0  0  0  0  0  0  0
  2  3  2  0
  2  1  1  0
  4  2  1  0
  5  4  1  0
  6  5  1  0
  7  6  1  0
  8  9  1  1
  8  7  1  0
 10 11  2  0
 10  8  1  0
 13 12  1  6
 13 15  1  0
 14 13  1  0
 16 15  1  6
 16 17  1  0
 16 18  1  0
 17 10  1  0
 18 19  2  0
 21 22  2  0
 21 20  1  0
 23 22  1  0
 24 23  2  0
 25 24  1  0
 26 25  1  1
 27 18  1  0
 27 26  1  0
 28 29  1  0
 28 26  1  0
 30 24  1  0
 30 31  2  0
 31 21  1  0
 32 28  2  0
M  END
$$$$
