RLY.pdb
     RDKit          3D

 32 32  0  0  1  0  0  0  0  0999 V2000
    8.9099  -12.2357   19.2447 N   0  0  0  0  0  0  0  0  0  0  0  0
    7.8448  -12.9430   18.6140 C   0  0  0  0  0  0  0  0  0  0  0  0
    6.6074  -12.5407   18.7397 N   0  0  0  0  0  0  0  0  0  0  0  0
    8.0525  -14.0987   17.8283 N   0  0  0  0  0  0  0  0  0  0  0  0
    9.2232  -14.9213   18.0157 C   0  0  0  0  0  0  0  0  0  0  0  0
    8.7892  -16.2790   18.4646 C   0  0  0  0  0  0  0  0  0  0  0  0
    9.7155  -16.9435   19.4231 C   0  0  0  0  0  0  0  0  0  0  0  0
    9.0497  -17.3528   20.7119 C   0  0  2  0  0  0  0  0  0  0  0  0
    7.6410  -17.6082   20.5718 N   0  0  0  0  0  0  0  0  0  0  0  0
    9.2304  -16.3322   21.7747 C   0  0  0  0  0  0  0  0  0  0  0  0
   10.3687  -15.8991   22.0844 O   0  0  0  0  0  0  0  0  0  0  0  0
    5.8658  -13.0651   18.2199 C   0  0  0  0  0  0  0  0  0  0  0  0
    7.7148  -11.9924   24.7087 C   0  0  2  0  0  0  0  0  0  0  0  0
    7.1775  -13.3273   25.2461 C   0  0  0  0  0  0  0  0  0  0  0  0
    5.9067  -13.0887   25.9855 C   0  0  0  0  0  0  0  0  0  0  0  0
    7.0379  -14.3080   24.1215 C   0  0  1  0  0  0  0  0  0  0  0  0
    8.2934  -14.7817   23.5070 N   0  0  0  0  0  0  0  0  0  0  0  0
    8.1215  -15.7913   22.4993 C   0  0  0  0  0  0  0  0  0  0  0  0
    9.3009  -15.2210   24.5380 O   0  0  0  0  0  0  0  0  0  0  0  0
   10.4310  -14.6723   24.5967 O   0  0  0  0  0  0  0  0  0  0  0  0
   12.6458  -16.6559   32.2623 C   0  0  0  0  0  0  0  0  0  0  0  0
   12.0234  -16.3207   31.0692 C   0  0  0  0  0  0  0  0  0  0  0  0
   12.5344  -16.8665   29.8957 C   0  0  0  0  0  0  0  0  0  0  0  0
   11.9140  -16.5298   28.7292 C   0  0  0  0  0  0  0  0  0  0  0  0
   10.8168  -15.6804   28.6815 C   0  0  0  0  0  0  0  0  0  0  0  0
   10.2045  -15.3618   27.3742 C   0  0  1  0  0  0  0  0  0  0  0  0
    9.9459  -16.5687   26.5365 N   0  0  0  0  0  0  0  0  0  0  0  0
    9.0141  -16.2524   25.4621 C   0  0  0  0  0  0  0  0  0  0  0  0
    9.4523  -17.7387   27.3105 O   0  0  0  0  0  0  0  0  0  0  0  0
   10.2473  -18.5548   28.0774 C   0  0  0  0  0  0  0  0  0  0  0  0
   10.3205  -15.1480   29.8405 C   0  0  0  0  0  0  0  0  0  0  0  0
   10.9415  -15.4815   31.0359 O   0  0  0  0  0  0  0  0  0  0  0  0
  2  3  2  0
  2  1  1  0
  4  2  1  0
  5  4  1  0
  6  5  1  0
  7  6  1  0
  8  9  1  6
  8  7  1  0
 10 11  2  0
 10  8  1  0
 13 12  1  1
 13 15  1  0
 14 13  1  0
 16 15  1  6
 16 17  1  0
 16 18  1  0
 17 10  1  0
 18 19  2  0
 21 22  2  0
 21 20  1  0
 23 22  1  0
 24 23  2  0
 25 24  1  0
 26 25  1  6
 27 18  1  0
 27 26  1  0
 28 29  1  0
 28 26  1  0
 30 24  1  0
 30 31  2  0
 31 21  1  0
 32 28  2  0
M  END
$$$$
