RLY.pdb
     RDKit          3D

 32 32  0  0  1  0  0  0  0  0999 V2000
    7.5738  -15.4274   15.0542 N   0  0  0  0  0  0  0  0  0  0  0  0
    7.8051  -14.0707   15.4260 C   0  0  0  0  0  0  0  0  0  0  0  0
    8.4229  -13.2509   14.6166 N   0  0  0  0  0  0  0  0  0  0  0  0
    7.3899  -13.5348   16.6656 N   0  0  0  0  0  0  0  0  0  0  0  0
    6.6038  -14.3204   17.5861 C   0  0  0  0  0  0  0  0  0  0  0  0
    7.4408  -15.4520   18.0881 C   0  0  0  0  0  0  0  0  0  0  0  0
    8.6210  -15.0415   18.8988 C   0  0  0  0  0  0  0  0  0  0  0  0
    8.7939  -15.8536   20.1568 C   0  0  2  0  0  0  0  0  0  0  0  0
    7.6832  -16.7253   20.4318 N   0  0  0  0  0  0  0  0  0  0  0  0
    9.0088  -14.9906   21.3454 C   0  0  0  0  0  0  0  0  0  0  0  0
   10.0322  -14.2702   21.4592 O   0  0  0  0  0  0  0  0  0  0  0  0
    8.5549  -12.2606   14.9279 C   0  0  0  0  0  0  0  0  0  0  0  0
    7.4753  -11.7107   25.1855 C   0  0  2  0  0  0  0  0  0  0  0  0
    7.2872  -13.1486   25.6918 C   0  0  0  0  0  0  0  0  0  0  0  0
    6.1301  -13.1971   26.6284 C   0  0  0  0  0  0  0  0  0  0  0  0
    7.1519  -14.0830   24.5280 C   0  0  2  0  0  0  0  0  0  0  0  0
    8.2789  -14.1089   23.5754 N   0  0  0  0  0  0  0  0  0  0  0  0
    8.0653  -14.9354   22.4197 C   0  0  0  0  0  0  0  0  0  0  0  0
    9.5831  -14.4545   24.2465 O   0  0  0  0  0  0  0  0  0  0  0  0
   10.4588  -13.5702   24.4277 O   0  0  0  0  0  0  0  0  0  0  0  0
   12.0004  -16.3868   32.1141 C   0  0  0  0  0  0  0  0  0  0  0  0
   11.4666  -16.0867   30.8697 C   0  0  0  0  0  0  0  0  0  0  0  0
   10.8889  -17.1245   30.1448 C   0  0  0  0  0  0  0  0  0  0  0  0
   10.3673  -16.8172   28.9232 C   0  0  0  0  0  0  0  0  0  0  0  0
   10.3964  -15.5327   28.3970 C   0  0  0  0  0  0  0  0  0  0  0  0
    9.8124  -15.2841   27.0618 C   0  0  1  0  0  0  0  0  0  0  0  0
   10.5292  -15.9968   25.9648 N   0  0  0  0  0  0  0  0  0  0  0  0
    9.8636  -15.7681   24.6891 C   0  0  0  0  0  0  0  0  0  0  0  0
   10.6856  -17.4565   26.2029 O   0  0  0  0  0  0  0  0  0  0  0  0
    9.9984  -18.4329   25.5241 C   0  0  0  0  0  0  0  0  0  0  0  0
   10.9665  -14.5178   29.1167 C   0  0  0  0  0  0  0  0  0  0  0  0
   11.5017  -14.8152   30.3622 O   0  0  0  0  0  0  0  0  0  0  0  0
  2  3  2  0
  2  1  1  0
  4  2  1  0
  5  4  1  0
  6  5  1  0
  7  6  1  0
  8  9  1  1
  8  7  1  0
 10 11  2  0
 10  8  1  0
 13 12  1  1
 13 15  1  0
 14 13  1  0
 16 15  1  6
 16 17  1  0
 16 18  1  0
 17 10  1  0
 18 19  2  0
 21 22  2  0
 21 20  1  0
 23 22  1  0
 24 23  2  0
 25 24  1  0
 26 25  1  6
 27 18  1  0
 27 26  1  0
 28 29  1  0
 28 26  1  0
 30 24  1  0
 30 31  2  0
 31 21  1  0
 32 28  2  0
M  END
$$$$
