CNQ.pdb
     RDKit          3D

 24 23  0  0  1  0  0  0  0  0999 V2000
   27.6640  -20.0971  -16.0847 N   0  0  0  0  0  0  0  0  0  0  0  0
   27.0875  -19.3793  -14.9795 C   0  0  1  0  0  0  0  0  0  0  0  0
   26.5464  -18.0614  -15.5445 C   0  0  0  0  0  0  0  0  0  0  0  0
   27.9476  -17.0254  -15.9972 S   0  0  0  0  0  0  0  0  0  0  0  0
   25.9255  -20.1162  -14.4014 C   0  0  0  0  0  0  0  0  0  0  0  0
   25.3210  -20.9490  -15.1194 O   0  0  0  0  0  0  0  0  0  0  0  0
   26.1597  -22.2618  -11.2796 N   0  0  0  0  0  0  0  0  0  0  0  0
   25.4721  -21.3476  -10.4074 C   0  0  0  0  0  0  0  0  0  0  0  0
   25.7486  -21.3691   -9.1896 O   0  0  0  0  0  0  0  0  0  0  0  0
   24.4757  -20.4275  -10.9775 C   0  0  0  0  0  0  0  0  0  0  0  0
   24.3791  -20.5616  -12.4626 C   0  0  2  0  0  0  0  0  0  0  0  0
   25.5130  -19.8775  -13.0624 N   0  0  0  0  0  0  0  0  0  0  0  0
   23.0989  -19.9451  -12.9425 C   0  0  0  0  0  0  0  0  0  0  0  0
   23.1509  -18.7089  -13.2041 O   0  0  0  0  0  0  0  0  0  0  0  0
   22.8033  -19.6554  -17.9486 N   0  0  0  0  0  0  0  0  0  0  0  0
   21.9457  -18.6772  -17.3770 C   0  0  0  0  0  0  0  0  0  0  0  0
   21.7604  -17.6159  -18.0495 O   0  0  0  0  0  0  0  0  0  0  0  0
   21.2721  -18.8370  -16.0748 C   0  0  0  0  0  0  0  0  0  0  0  0
   21.5217  -20.0942  -15.3534 C   0  0  0  0  0  0  0  0  0  0  0  0
   20.8665  -20.2592  -14.0278 C   0  0  2  0  0  0  0  0  0  0  0  0
   21.9211  -20.6832  -13.0931 N   0  0  0  0  0  0  0  0  0  0  0  0
   19.7543  -21.1832  -13.9697 C   0  0  0  0  0  0  0  0  0  0  0  0
   18.4499  -20.7240  -14.1769 O   0  0  0  0  0  0  0  0  0  0  0  0
   19.9112  -22.3974  -13.7380 O   0  0  0  0  0  0  0  0  0  0  0  0
  2  3  1  0
  2  1  1  6
  4  3  1  0
  5  6  2  0
  5  2  1  0
  8  7  1  0
  8 10  1  0
  9  8  2  0
 11 10  1  1
 11 12  1  0
 12  5  1  0
 13 11  1  0
 13 21  1  0
 14 13  2  0
 16 15  1  0
 16 17  2  0
 18 16  1  0
 20 19  1  6
 19 18  1  0
 20 21  1  0
 20 22  1  0
 22 24  2  0
 22 23  1  0
M  END
$$$$
