CNQ.pdb
     RDKit          3D

 24 23  0  0  1  0  0  0  0  0999 V2000
   19.6927  -16.2811  -17.3354 N   0  0  0  0  0  0  0  0  0  0  0  0
   19.4190  -15.3388  -16.2837 C   0  0  1  0  0  0  0  0  0  0  0  0
   20.3554  -15.6905  -15.1224 C   0  0  0  0  0  0  0  0  0  0  0  0
   19.6681  -17.1108  -14.2554 S   0  0  0  0  0  0  0  0  0  0  0  0
   19.7498  -13.9455  -16.7045 C   0  0  0  0  0  0  0  0  0  0  0  0
   20.5636  -13.7759  -17.6444 O   0  0  0  0  0  0  0  0  0  0  0  0
   19.5748   -8.8850  -17.3449 N   0  0  0  0  0  0  0  0  0  0  0  0
   18.3043   -9.3003  -16.8133 C   0  0  0  0  0  0  0  0  0  0  0  0
   17.3681   -8.4735  -16.8012 O   0  0  0  0  0  0  0  0  0  0  0  0
   18.1551  -10.6736  -16.3070 C   0  0  0  0  0  0  0  0  0  0  0  0
   19.4168  -11.4608  -16.4519 C   0  0  2  0  0  0  0  0  0  0  0  0
   19.1531  -12.8332  -16.0513 N   0  0  0  0  0  0  0  0  0  0  0  0
   20.4831  -10.8700  -15.5781 C   0  0  0  0  0  0  0  0  0  0  0  0
   20.2160  -10.8252  -14.3427 O   0  0  0  0  0  0  0  0  0  0  0  0
   26.5783  -11.4441  -16.9228 N   0  0  0  0  0  0  0  0  0  0  0  0
   26.5450  -10.6692  -15.7322 C   0  0  0  0  0  0  0  0  0  0  0  0
   27.6589  -10.4430  -15.1657 O   0  0  0  0  0  0  0  0  0  0  0  0
   25.3081  -10.1233  -15.1430 C   0  0  0  0  0  0  0  0  0  0  0  0
   24.0453  -10.4960  -15.7985 C   0  0  0  0  0  0  0  0  0  0  0  0
   22.7878   -9.9729  -15.1993 C   0  0  2  0  0  0  0  0  0  0  0  0
   21.6956  -10.3977  -16.0894 N   0  0  0  0  0  0  0  0  0  0  0  0
   22.7227   -8.5433  -14.9850 C   0  0  0  0  0  0  0  0  0  0  0  0
   22.9022   -8.0179  -13.7017 O   0  0  0  0  0  0  0  0  0  0  0  0
   22.5089   -7.7416  -15.9147 O   0  0  0  0  0  0  0  0  0  0  0  0
  2  3  1  0
  2  1  1  6
  4  3  1  0
  5  6  2  0
  5  2  1  0
  8  7  1  0
  8 10  1  0
  9  8  2  0
 11 10  1  1
 11 12  1  0
 12  5  1  0
 13 11  1  0
 13 21  1  0
 14 13  2  0
 16 15  1  0
 16 17  2  0
 18 16  1  0
 20 19  1  6
 19 18  1  0
 20 21  1  0
 20 22  1  0
 22 24  2  0
 22 23  1  0
M  END
$$$$
