CNQ.pdb
     RDKit          3D

 24 23  0  0  1  0  0  0  0  0999 V2000
   28.1058  -21.2722  -16.5500 N   0  0  0  0  0  0  0  0  0  0  0  0
   27.8723  -20.4201  -15.4149 C   0  0  1  0  0  0  0  0  0  0  0  0
   27.4764  -19.0470  -15.9688 C   0  0  0  0  0  0  0  0  0  0  0  0
   28.9487  -18.2713  -16.6558 S   0  0  0  0  0  0  0  0  0  0  0  0
   26.7231  -20.9088  -14.5974 C   0  0  0  0  0  0  0  0  0  0  0  0
   25.9152  -21.7178  -15.1144 O   0  0  0  0  0  0  0  0  0  0  0  0
   24.9743  -21.1224   -8.6923 N   0  0  0  0  0  0  0  0  0  0  0  0
   24.6837  -21.0315  -10.0983 C   0  0  0  0  0  0  0  0  0  0  0  0
   23.5501  -21.3771  -10.4927 O   0  0  0  0  0  0  0  0  0  0  0  0
   25.7247  -20.5384  -11.0135 C   0  0  0  0  0  0  0  0  0  0  0  0
   25.4301  -20.8926  -12.4349 C   0  0  2  0  0  0  0  0  0  0  0  0
   26.5491  -20.4648  -13.2585 N   0  0  0  0  0  0  0  0  0  0  0  0
   24.1760  -20.1996  -12.8779 C   0  0  0  0  0  0  0  0  0  0  0  0
   24.3264  -19.0230  -13.3167 O   0  0  0  0  0  0  0  0  0  0  0  0
   22.4534  -20.4105  -17.9422 N   0  0  0  0  0  0  0  0  0  0  0  0
   22.2911  -19.1825  -17.2458 C   0  0  0  0  0  0  0  0  0  0  0  0
   22.2783  -18.1243  -17.9479 O   0  0  0  0  0  0  0  0  0  0  0  0
   22.1336  -19.0837  -15.7828 C   0  0  0  0  0  0  0  0  0  0  0  0
   22.2101  -20.3420  -15.0250 C   0  0  0  0  0  0  0  0  0  0  0  0
   21.7828  -20.3048  -13.6003 C   0  0  2  0  0  0  0  0  0  0  0  0
   22.9192  -20.8087  -12.8126 N   0  0  0  0  0  0  0  0  0  0  0  0
   20.5846  -21.0450  -13.2679 C   0  0  0  0  0  0  0  0  0  0  0  0
   19.3279  -20.4537  -13.4297 O   0  0  0  0  0  0  0  0  0  0  0  0
   20.6242  -22.2124  -12.8339 O   0  0  0  0  0  0  0  0  0  0  0  0
  2  3  1  0
  2  1  1  6
  4  3  1  0
  5  6  2  0
  5  2  1  0
  8  7  1  0
  8 10  1  0
  9  8  2  0
 11 10  1  1
 11 12  1  0
 12  5  1  0
 13 11  1  0
 13 21  1  0
 14 13  2  0
 16 15  1  0
 16 17  2  0
 18 16  1  0
 20 19  1  6
 19 18  1  0
 20 21  1  0
 20 22  1  0
 22 24  2  0
 22 23  1  0
M  END
$$$$
