CNQ.pdb
     RDKit          3D

 24 23  0  0  1  0  0  0  0  0999 V2000
   19.1440  -15.3578  -16.6539 N   0  0  0  0  0  0  0  0  0  0  0  0
   19.1495  -14.2802  -17.6066 C   0  0  1  0  0  0  0  0  0  0  0  0
   17.7364  -13.6868  -17.6088 C   0  0  0  0  0  0  0  0  0  0  0  0
   16.6163  -14.9028  -18.3216 S   0  0  0  0  0  0  0  0  0  0  0  0
   20.0797  -13.1908  -17.1876 C   0  0  0  0  0  0  0  0  0  0  0  0
   20.0893  -12.8346  -15.9845 O   0  0  0  0  0  0  0  0  0  0  0  0
   23.9142   -9.7446  -17.3257 N   0  0  0  0  0  0  0  0  0  0  0  0
   23.9514  -10.4449  -18.5817 C   0  0  0  0  0  0  0  0  0  0  0  0
   24.9058  -10.2226  -19.3560 O   0  0  0  0  0  0  0  0  0  0  0  0
   22.8718  -11.3903  -18.9058 C   0  0  0  0  0  0  0  0  0  0  0  0
   21.9425  -11.5911  -17.7531 C   0  0  2  0  0  0  0  0  0  0  0  0
   20.9377  -12.5698  -18.1354 N   0  0  0  0  0  0  0  0  0  0  0  0
   21.2817  -10.2904  -17.4054 C   0  0  0  0  0  0  0  0  0  0  0  0
   20.4103   -9.8824  -18.2262 O   0  0  0  0  0  0  0  0  0  0  0  0
   17.1107   -9.4279  -13.9265 N   0  0  0  0  0  0  0  0  0  0  0  0
   17.5355   -8.0761  -14.0333 C   0  0  0  0  0  0  0  0  0  0  0  0
   16.7757   -7.1958  -13.5228 O   0  0  0  0  0  0  0  0  0  0  0  0
   18.7902   -7.6597  -14.6871 C   0  0  0  0  0  0  0  0  0  0  0  0
   19.6239   -8.7296  -15.2557 C   0  0  0  0  0  0  0  0  0  0  0  0
   20.9002   -8.3250  -15.9047 C   0  0  2  0  0  0  0  0  0  0  0  0
   21.6033   -9.5707  -16.2507 N   0  0  0  0  0  0  0  0  0  0  0  0
   21.7707   -7.4645  -15.1328 C   0  0  0  0  0  0  0  0  0  0  0  0
   21.3897   -6.1477  -14.8570 O   0  0  0  0  0  0  0  0  0  0  0  0
   22.8696   -7.8541  -14.6931 O   0  0  0  0  0  0  0  0  0  0  0  0
  2  3  1  0
  2  1  1  1
  4  3  1  0
  5  6  2  0
  5  2  1  0
  8  7  1  0
  8 10  1  0
  9  8  2  0
 11 10  1  6
 11 12  1  0
 12  5  1  0
 13 11  1  0
 13 21  1  0
 14 13  2  0
 16 15  1  0
 16 17  2  0
 18 16  1  0
 20 19  1  1
 19 18  1  0
 20 21  1  0
 20 22  1  0
 22 24  2  0
 22 23  1  0
M  END
$$$$
