CNQ.pdb
     RDKit          3D

 24 23  0  0  1  0  0  0  0  0999 V2000
   17.1904  -11.1717  -10.5127 N   0  0  0  0  0  0  0  0  0  0  0  0
   16.3738  -10.7324  -11.6123 C   0  0  1  0  0  0  0  0  0  0  0  0
   15.4074  -11.8791  -11.9290 C   0  0  0  0  0  0  0  0  0  0  0  0
   16.3394  -13.1965  -12.7271 S   0  0  0  0  0  0  0  0  0  0  0  0
   15.5419   -9.5528  -11.2325 C   0  0  0  0  0  0  0  0  0  0  0  0
   14.8087   -9.0255  -12.1036 O   0  0  0  0  0  0  0  0  0  0  0  0
   12.2803   -8.8431   -9.4048 N   0  0  0  0  0  0  0  0  0  0  0  0
   12.9510   -8.6680   -8.1443 C   0  0  0  0  0  0  0  0  0  0  0  0
   12.3585   -9.0223   -7.1035 O   0  0  0  0  0  0  0  0  0  0  0  0
   14.3005   -8.0822   -8.1274 C   0  0  0  0  0  0  0  0  0  0  0  0
   14.8288   -7.8605   -9.5073 C   0  0  2  0  0  0  0  0  0  0  0  0
   15.5811   -9.0381   -9.9082 N   0  0  0  0  0  0  0  0  0  0  0  0
   15.7225   -6.6560   -9.5178 C   0  0  0  0  0  0  0  0  0  0  0  0
   16.8216   -6.7844   -8.9053 O   0  0  0  0  0  0  0  0  0  0  0  0
   17.6039   -3.9061  -14.4301 N   0  0  0  0  0  0  0  0  0  0  0  0
   17.9178   -2.9309  -13.4453 C   0  0  0  0  0  0  0  0  0  0  0  0
   18.5858   -1.9223  -13.8319 O   0  0  0  0  0  0  0  0  0  0  0  0
   17.5076   -3.0303  -12.0322 C   0  0  0  0  0  0  0  0  0  0  0  0
   16.6948   -4.1990  -11.6624 C   0  0  0  0  0  0  0  0  0  0  0  0
   16.3022   -4.3296  -10.2332 C   0  0  2  0  0  0  0  0  0  0  0  0
   15.3697   -5.4657  -10.1607 N   0  0  0  0  0  0  0  0  0  0  0  0
   15.7069   -3.1620   -9.6196 C   0  0  0  0  0  0  0  0  0  0  0  0
   16.5197   -2.1261   -9.1490 O   0  0  0  0  0  0  0  0  0  0  0  0
   14.4741   -3.0362   -9.4892 O   0  0  0  0  0  0  0  0  0  0  0  0
  2  3  1  0
  2  1  1  1
  4  3  1  0
  5  6  2  0
  5  2  1  0
  8  7  1  0
  8 10  1  0
  9  8  2  0
 11 10  1  1
 11 12  1  0
 12  5  1  0
 13 11  1  0
 13 21  1  0
 14 13  2  0
 16 15  1  0
 16 17  2  0
 18 16  1  0
 20 19  1  6
 19 18  1  0
 20 21  1  0
 20 22  1  0
 22 24  2  0
 22 23  1  0
M  END
$$$$
