CNQ.pdb
     RDKit          3D

 24 23  0  0  1  0  0  0  0  0999 V2000
   31.6558  -21.0975  -12.0666 N   0  0  0  0  0  0  0  0  0  0  0  0
   30.3464  -21.6813  -11.9497 C   0  0  1  0  0  0  0  0  0  0  0  0
   30.0897  -21.8911  -10.4533 C   0  0  0  0  0  0  0  0  0  0  0  0
   31.3953  -22.9451   -9.8005 S   0  0  0  0  0  0  0  0  0  0  0  0
   29.2913  -20.7504  -12.4472 C   0  0  0  0  0  0  0  0  0  0  0  0
   29.3235  -19.5505  -12.0814 O   0  0  0  0  0  0  0  0  0  0  0  0
   29.2679  -18.3058  -16.0132 N   0  0  0  0  0  0  0  0  0  0  0  0
   28.0285  -18.5803  -15.3365 C   0  0  0  0  0  0  0  0  0  0  0  0
   27.3903  -17.6202  -14.8561 O   0  0  0  0  0  0  0  0  0  0  0  0
   27.5615  -19.9718  -15.2357 C   0  0  0  0  0  0  0  0  0  0  0  0
   27.2236  -20.3456  -13.8290 C   0  0  2  0  0  0  0  0  0  0  0  0
   28.2700  -21.2164  -13.3189 N   0  0  0  0  0  0  0  0  0  0  0  0
   25.9054  -21.0604  -13.7998 C   0  0  0  0  0  0  0  0  0  0  0  0
   25.9609  -22.3019  -13.5650 O   0  0  0  0  0  0  0  0  0  0  0  0
   24.1228  -20.4645   -8.9885 N   0  0  0  0  0  0  0  0  0  0  0  0
   22.9355  -21.0371   -9.5192 C   0  0  0  0  0  0  0  0  0  0  0  0
   22.0736  -21.4462   -8.6810 O   0  0  0  0  0  0  0  0  0  0  0  0
   22.6619  -21.1681  -10.9625 C   0  0  0  0  0  0  0  0  0  0  0  0
   23.7512  -20.7926  -11.8767 C   0  0  0  0  0  0  0  0  0  0  0  0
   23.4579  -20.8282  -13.3350 C   0  0  2  0  0  0  0  0  0  0  0  0
   24.6907  -20.4032  -14.0171 N   0  0  0  0  0  0  0  0  0  0  0  0
   22.3415  -20.0261  -13.7870 C   0  0  0  0  0  0  0  0  0  0  0  0
   21.0729  -20.5997  -13.9159 O   0  0  0  0  0  0  0  0  0  0  0  0
   22.4637  -18.8194  -14.0731 O   0  0  0  0  0  0  0  0  0  0  0  0
  2  3  1  0
  2  1  1  1
  4  3  1  0
  5  6  2  0
  5  2  1  0
  8  7  1  0
  8 10  1  0
  9  8  2  0
 11 10  1  6
 11 12  1  0
 12  5  1  0
 13 11  1  0
 13 21  1  0
 14 13  2  0
 16 15  1  0
 16 17  2  0
 18 16  1  0
 20 19  1  1
 19 18  1  0
 20 21  1  0
 20 22  1  0
 22 24  2  0
 22 23  1  0
M  END
$$$$
