CNQ.pdb
     RDKit          3D

 24 23  0  0  1  0  0  0  0  0999 V2000
   29.0599  -21.2384  -16.1212 N   0  0  0  0  0  0  0  0  0  0  0  0
   28.4536  -20.2748  -15.2421 C   0  0  1  0  0  0  0  0  0  0  0  0
   28.1230  -19.0460  -16.0965 C   0  0  0  0  0  0  0  0  0  0  0  0
   29.6620  -18.1905  -16.4715 S   0  0  0  0  0  0  0  0  0  0  0  0
   27.1634  -20.7818  -14.6890 C   0  0  0  0  0  0  0  0  0  0  0  0
   26.7263  -21.8867  -15.0922 O   0  0  0  0  0  0  0  0  0  0  0  0
   23.1264  -21.4376  -11.6125 N   0  0  0  0  0  0  0  0  0  0  0  0
   24.2070  -20.8413  -10.8735 C   0  0  0  0  0  0  0  0  0  0  0  0
   24.1140  -20.7852   -9.6293 O   0  0  0  0  0  0  0  0  0  0  0  0
   25.3736  -20.3233  -11.6050 C   0  0  0  0  0  0  0  0  0  0  0  0
   25.2417  -20.5263  -13.0795 C   0  0  2  0  0  0  0  0  0  0  0  0
   26.4449  -20.0254  -13.7237 N   0  0  0  0  0  0  0  0  0  0  0  0
   24.0432  -19.7804  -13.5861 C   0  0  0  0  0  0  0  0  0  0  0  0
   23.0746  -19.6873  -12.7783 O   0  0  0  0  0  0  0  0  0  0  0  0
   25.3844  -23.7065  -16.7519 N   0  0  0  0  0  0  0  0  0  0  0  0
   24.1697  -23.3694  -17.4076 C   0  0  0  0  0  0  0  0  0  0  0  0
   23.6997  -24.2273  -18.2175 O   0  0  0  0  0  0  0  0  0  0  0  0
   23.4443  -22.1037  -17.1908 C   0  0  0  0  0  0  0  0  0  0  0  0
   24.0314  -21.1648  -16.2229 C   0  0  0  0  0  0  0  0  0  0  0  0
   23.2926  -19.8983  -15.9700 C   0  0  2  0  0  0  0  0  0  0  0  0
   23.9935  -19.2219  -14.8668 N   0  0  0  0  0  0  0  0  0  0  0  0
   21.8855  -20.0251  -15.6572 C   0  0  0  0  0  0  0  0  0  0  0  0
   21.4488  -21.0267  -14.7846 O   0  0  0  0  0  0  0  0  0  0  0  0
   21.0263  -19.2639  -16.1421 O   0  0  0  0  0  0  0  0  0  0  0  0
  2  3  1  0
  2  1  1  6
  4  3  1  0
  5  6  2  0
  5  2  1  0
  8  7  1  0
  8 10  1  0
  9  8  2  0
 11 10  1  1
 11 12  1  0
 12  5  1  0
 13 11  1  0
 13 21  1  0
 14 13  2  0
 16 15  1  0
 16 17  2  0
 18 16  1  0
 20 19  1  1
 19 18  1  0
 20 21  1  0
 20 22  1  0
 22 24  2  0
 22 23  1  0
M  END
$$$$
