NAV.pdb
     RDKit          3D

 21 20  0  0  1  0  0  0  0  0999 V2000
   14.7283  -11.6239  -16.9625 N   0  0  0  0  0  0  0  0  0  0  0  0
   13.9234  -10.6613  -16.3121 C   0  0  0  0  0  0  0  0  0  0  0  0
   13.0154  -10.1001  -16.9525 O   0  0  0  0  0  0  0  0  0  0  0  0
   14.2059  -10.3677  -14.8872 C   0  0  0  0  0  0  0  0  0  0  0  0
   15.3616  -11.1910  -14.3605 C   0  0  2  0  0  0  0  0  0  0  0  0
   14.9045  -12.5281  -14.1384 N   0  0  0  0  0  0  0  0  0  0  0  0
   15.8480  -10.5350  -13.1195 C   0  0  0  0  0  0  0  0  0  0  0  0
   15.1831  -10.6930  -12.0635 O   0  0  0  0  0  0  0  0  0  0  0  0
   18.8491   -8.5538  -12.1141 C   0  0  0  0  0  0  0  0  0  0  0  0
   17.4777   -9.1839  -11.8357 C   0  0  2  0  0  0  0  0  0  0  0  0
   17.0261   -9.7415  -13.0769 N   0  0  0  0  0  0  0  0  0  0  0  0
   16.6150   -8.0901  -11.3432 C   0  0  0  0  0  0  0  0  0  0  0  0
   16.0834   -7.3262  -12.1870 O   0  0  0  0  0  0  0  0  0  0  0  0
   14.0215   -6.0259   -7.6356 C   0  0  0  0  0  0  0  0  0  0  0  0
   14.8087   -7.1800   -8.2169 C   0  0  1  0  0  0  0  0  0  0  0  0
   13.9042   -8.3799   -8.4493 C   0  0  0  0  0  0  0  0  0  0  0  0
   15.5226   -6.7772   -9.4890 C   0  0  2  0  0  0  0  0  0  0  0  0
   16.3576   -7.8600   -9.9682 N   0  0  0  0  0  0  0  0  0  0  0  0
   16.3474   -5.5796   -9.1704 C   0  0  0  0  0  0  0  0  0  0  0  0
   17.5222   -5.7203   -8.7452 O   0  0  0  0  0  0  0  0  0  0  0  0
   15.8635   -4.2902   -9.3267 O   0  0  0  0  0  0  0  0  0  0  0  0
  1  2  1  0
  2  3  2  0
  4  2  1  0
  5  4  1  0
  5  6  1  1
  7  5  1  0
  7 11  1  0
  8  7  2  0
 10 12  1  0
 10 11  1  0
 10  9  1  6
 12 18  1  0
 13 12  2  0
 15 16  1  6
 15 14  1  0
 17 15  1  0
 17 18  1  1
 19 21  1  0
 19 17  1  0
 20 19  2  0
M  END
$$$$
