NAV.pdb
     RDKit          3D

 21 20  0  0  1  0  0  0  0  0999 V2000
   17.4341  -12.9129  -17.4385 N   0  0  0  0  0  0  0  0  0  0  0  0
   17.3239  -12.1442  -16.2576 C   0  0  0  0  0  0  0  0  0  0  0  0
   16.2988  -12.2516  -15.5598 O   0  0  0  0  0  0  0  0  0  0  0  0
   18.4463  -11.2414  -15.9089 C   0  0  0  0  0  0  0  0  0  0  0  0
   19.5532  -11.2943  -16.9399 C   0  0  2  0  0  0  0  0  0  0  0  0
   20.3304  -12.4737  -16.7139 N   0  0  0  0  0  0  0  0  0  0  0  0
   20.3481  -10.0464  -16.8058 C   0  0  0  0  0  0  0  0  0  0  0  0
   21.1403   -9.9475  -15.8337 O   0  0  0  0  0  0  0  0  0  0  0  0
   20.9676   -6.9866  -18.8317 C   0  0  0  0  0  0  0  0  0  0  0  0
   20.9993   -7.7635  -17.5085 C   0  0  2  0  0  0  0  0  0  0  0  0
   20.2506   -8.9669  -17.7248 N   0  0  0  0  0  0  0  0  0  0  0  0
   20.3911   -6.8759  -16.4958 C   0  0  0  0  0  0  0  0  0  0  0  0
   19.1386   -6.8521  -16.4015 O   0  0  0  0  0  0  0  0  0  0  0  0
   20.9765   -6.9656  -12.8579 C   0  0  0  0  0  0  0  0  0  0  0  0
   21.1718   -5.5177  -13.2513 C   0  0  1  0  0  0  0  0  0  0  0  0
   22.6480   -5.1538  -13.2330 C   0  0  0  0  0  0  0  0  0  0  0  0
   20.5512   -5.2226  -14.5995 C   0  0  2  0  0  0  0  0  0  0  0  0
   21.1490   -6.0512  -15.6269 N   0  0  0  0  0  0  0  0  0  0  0  0
   20.7855   -3.7807  -14.8858 C   0  0  0  0  0  0  0  0  0  0  0  0
   21.6688   -3.4393  -15.7129 O   0  0  0  0  0  0  0  0  0  0  0  0
   20.0552   -2.7793  -14.2654 O   0  0  0  0  0  0  0  0  0  0  0  0
  1  2  1  0
  2  3  2  0
  4  2  1  0
  5  4  1  0
  5  6  1  1
  7  5  1  0
  7 11  1  0
  8  7  2  0
 10 12  1  0
 10 11  1  0
 10  9  1  6
 12 18  1  0
 13 12  2  0
 15 16  1  6
 15 14  1  0
 17 15  1  0
 17 18  1  6
 19 21  1  0
 19 17  1  0
 20 19  2  0
M  END
$$$$
