NAV.pdb
     RDKit          3D

 21 20  0  0  1  0  0  0  0  0999 V2000
   15.8754  -13.6365  -15.6026 N   0  0  0  0  0  0  0  0  0  0  0  0
   17.0199  -13.3274  -14.8332 C   0  0  0  0  0  0  0  0  0  0  0  0
   17.3044  -14.0456  -13.8571 O   0  0  0  0  0  0  0  0  0  0  0  0
   17.8294  -12.1522  -15.2331 C   0  0  0  0  0  0  0  0  0  0  0  0
   17.2427  -11.4471  -16.4371 C   0  0  2  0  0  0  0  0  0  0  0  0
   17.4515  -12.2660  -17.5911 N   0  0  0  0  0  0  0  0  0  0  0  0
   17.9044  -10.1214  -16.5444 C   0  0  0  0  0  0  0  0  0  0  0  0
   19.1429  -10.0907  -16.7625 O   0  0  0  0  0  0  0  0  0  0  0  0
   16.8240   -6.5454  -16.4573 C   0  0  0  0  0  0  0  0  0  0  0  0
   17.8892   -7.6457  -16.5577 C   0  0  2  0  0  0  0  0  0  0  0  0
   17.2001   -8.8943  -16.4115 N   0  0  0  0  0  0  0  0  0  0  0  0
   18.8539   -7.3845  -15.4694 C   0  0  0  0  0  0  0  0  0  0  0  0
   18.5577   -7.7634  -14.3088 O   0  0  0  0  0  0  0  0  0  0  0  0
   22.3641   -8.6620  -15.2545 C   0  0  0  0  0  0  0  0  0  0  0  0
   22.4230   -7.1579  -15.1000 C   0  0  1  0  0  0  0  0  0  0  0  0
   22.8687   -6.5048  -16.3988 C   0  0  0  0  0  0  0  0  0  0  0  0
   21.0976   -6.5979  -14.6314 C   0  0  2  0  0  0  0  0  0  0  0  0
   20.0948   -6.7289  -15.6691 N   0  0  0  0  0  0  0  0  0  0  0  0
   21.3197   -5.1652  -14.2939 C   0  0  0  0  0  0  0  0  0  0  0  0
   20.8922   -4.2650  -15.0605 O   0  0  0  0  0  0  0  0  0  0  0  0
   21.9919   -4.7754  -13.1462 O   0  0  0  0  0  0  0  0  0  0  0  0
  1  2  1  0
  2  3  2  0
  4  2  1  0
  5  4  1  0
  5  6  1  6
  7  5  1  0
  7 11  1  0
  8  7  2  0
 10 12  1  0
 10 11  1  0
 10  9  1  1
 12 18  1  0
 13 12  2  0
 15 16  1  6
 15 14  1  0
 17 15  1  0
 17 18  1  6
 19 21  1  0
 19 17  1  0
 20 19  2  0
M  END
$$$$
