NAV.pdb
     RDKit          3D

 21 20  0  0  1  0  0  0  0  0999 V2000
   31.8370   -8.0527  -18.3980 N   0  0  0  0  0  0  0  0  0  0  0  0
   31.2246   -9.2046  -17.8543 C   0  0  0  0  0  0  0  0  0  0  0  0
   31.9429  -10.1375  -17.4500 O   0  0  0  0  0  0  0  0  0  0  0  0
   29.7443   -9.2416  -17.7934 C   0  0  0  0  0  0  0  0  0  0  0  0
   29.2029  -10.6257  -18.0800 C   0  0  2  0  0  0  0  0  0  0  0  0
   29.4142  -10.9200  -19.4638 N   0  0  0  0  0  0  0  0  0  0  0  0
   27.7659  -10.6297  -17.7033 C   0  0  0  0  0  0  0  0  0  0  0  0
   26.9599   -9.9886  -18.4256 O   0  0  0  0  0  0  0  0  0  0  0  0
   25.6746  -12.1992  -15.0327 C   0  0  0  0  0  0  0  0  0  0  0  0
   25.8636  -11.3234  -16.2787 C   0  0  2  0  0  0  0  0  0  0  0  0
   27.2678  -11.3237  -16.5676 N   0  0  0  0  0  0  0  0  0  0  0  0
   25.3446   -9.9862  -15.9239 C   0  0  0  0  0  0  0  0  0  0  0  0
   26.0767   -9.2258  -15.2426 O   0  0  0  0  0  0  0  0  0  0  0  0
   24.5138   -7.0160  -17.8738 C   0  0  0  0  0  0  0  0  0  0  0  0
   23.2444   -7.3785  -17.1344 C   0  0  1  0  0  0  0  0  0  0  0  0
   22.2628   -8.0709  -18.0666 C   0  0  0  0  0  0  0  0  0  0  0  0
   23.5372   -8.2287  -15.9173 C   0  0  2  0  0  0  0  0  0  0  0  0
   24.0639   -9.5192  -16.3131 N   0  0  0  0  0  0  0  0  0  0  0  0
   22.2573   -8.3896  -15.1745 C   0  0  0  0  0  0  0  0  0  0  0  0
   21.7533   -7.4088  -14.5705 O   0  0  0  0  0  0  0  0  0  0  0  0
   21.5852   -9.6005  -15.1204 O   0  0  0  0  0  0  0  0  0  0  0  0
  1  2  1  0
  2  3  2  0
  4  2  1  0
  5  4  1  0
  5  6  1  6
  7  5  1  0
  7 11  1  0
  8  7  2  0
 10 12  1  0
 10 11  1  0
 10  9  1  1
 12 18  1  0
 13 12  2  0
 15 16  1  6
 15 14  1  0
 17 15  1  0
 17 18  1  6
 19 21  1  0
 19 17  1  0
 20 19  2  0
M  END
$$$$
