NAV.pdb
     RDKit          3D

 21 20  0  0  1  0  0  0  0  0999 V2000
   19.5580  -12.3636  -19.9200 N   0  0  0  0  0  0  0  0  0  0  0  0
   18.8515  -11.1788  -19.6125 C   0  0  0  0  0  0  0  0  0  0  0  0
   18.2423  -10.5850  -20.5212 O   0  0  0  0  0  0  0  0  0  0  0  0
   18.8734  -10.7010  -18.2098 C   0  0  0  0  0  0  0  0  0  0  0  0
   19.7028  -11.6021  -17.3204 C   0  0  2  0  0  0  0  0  0  0  0  0
   18.8685  -12.6590  -16.8378 N   0  0  0  0  0  0  0  0  0  0  0  0
   20.2582  -10.7623  -16.2280 C   0  0  0  0  0  0  0  0  0  0  0  0
   19.4600  -10.2814  -15.3830 O   0  0  0  0  0  0  0  0  0  0  0  0
   23.6262   -9.9781  -14.8813 C   0  0  0  0  0  0  0  0  0  0  0  0
   22.1241   -9.6886  -15.0053 C   0  0  2  0  0  0  0  0  0  0  0  0
   21.6454  -10.4820  -16.0993 N   0  0  0  0  0  0  0  0  0  0  0  0
   22.0040   -8.2357  -15.2461 C   0  0  0  0  0  0  0  0  0  0  0  0
   22.2286   -7.8045  -16.4045 O   0  0  0  0  0  0  0  0  0  0  0  0
   19.2920   -6.0270  -15.5859 C   0  0  0  0  0  0  0  0  0  0  0  0
   20.0785   -5.4543  -14.4270 C   0  0  1  0  0  0  0  0  0  0  0  0
   19.4369   -5.8406  -13.1036 C   0  0  0  0  0  0  0  0  0  0  0  0
   21.5291   -5.8820  -14.4784 C   0  0  2  0  0  0  0  0  0  0  0  0
   21.6485   -7.3057  -14.2370 N   0  0  0  0  0  0  0  0  0  0  0  0
   22.2530   -5.1096  -13.4317 C   0  0  0  0  0  0  0  0  0  0  0  0
   22.5628   -5.6607  -12.3450 O   0  0  0  0  0  0  0  0  0  0  0  0
   22.6064   -3.7813  -13.6100 O   0  0  0  0  0  0  0  0  0  0  0  0
  1  2  1  0
  2  3  2  0
  4  2  1  0
  5  4  1  0
  5  6  1  1
  7  5  1  0
  7 11  1  0
  8  7  2  0
 10 12  1  0
 10 11  1  0
 10  9  1  6
 12 18  1  0
 13 12  2  0
 15 16  1  1
 15 14  1  0
 17 15  1  0
 17 18  1  1
 19 21  1  0
 19 17  1  0
 20 19  2  0
M  END
$$$$
