NAV.pdb
     RDKit          3D

 21 20  0  0  1  0  0  0  0  0999 V2000
   16.7863  -14.1076  -14.6584 N   0  0  0  0  0  0  0  0  0  0  0  0
   16.2212  -12.8260  -14.4697 C   0  0  0  0  0  0  0  0  0  0  0  0
   15.1013  -12.7320  -13.9344 O   0  0  0  0  0  0  0  0  0  0  0  0
   16.9997  -11.6496  -14.9237 C   0  0  0  0  0  0  0  0  0  0  0  0
   16.1111  -10.5877  -15.5351 C   0  0  2  0  0  0  0  0  0  0  0  0
   15.6618  -11.0496  -16.8122 N   0  0  0  0  0  0  0  0  0  0  0  0
   16.9067   -9.3361  -15.6227 C   0  0  0  0  0  0  0  0  0  0  0  0
   18.0411   -9.3891  -16.1637 O   0  0  0  0  0  0  0  0  0  0  0  0
   16.4086   -5.7447  -14.7218 C   0  0  0  0  0  0  0  0  0  0  0  0
   17.2552   -6.9150  -15.2404 C   0  0  2  0  0  0  0  0  0  0  0  0
   16.4415   -8.0895  -15.1235 N   0  0  0  0  0  0  0  0  0  0  0  0
   18.4621   -6.9583  -14.3890 C   0  0  0  0  0  0  0  0  0  0  0  0
   18.3699   -7.4874  -13.2533 O   0  0  0  0  0  0  0  0  0  0  0  0
   22.3340   -6.6614  -16.0299 C   0  0  0  0  0  0  0  0  0  0  0  0
   21.9874   -7.3087  -14.7069 C   0  0  1  0  0  0  0  0  0  0  0  0
   23.2320   -7.4671  -13.8478 C   0  0  0  0  0  0  0  0  0  0  0  0
   20.9125   -6.5331  -13.9768 C   0  0  2  0  0  0  0  0  0  0  0  0
   19.7168   -6.4334  -14.7890 N   0  0  0  0  0  0  0  0  0  0  0  0
   21.4647   -5.1814  -13.6874 C   0  0  0  0  0  0  0  0  0  0  0  0
   22.3517   -5.0396  -12.8075 O   0  0  0  0  0  0  0  0  0  0  0  0
   21.0324   -4.0502  -14.3617 O   0  0  0  0  0  0  0  0  0  0  0  0
  1  2  1  0
  2  3  2  0
  4  2  1  0
  5  4  1  0
  5  6  1  6
  7  5  1  0
  7 11  1  0
  8  7  2  0
 10 12  1  0
 10 11  1  0
 10  9  1  1
 12 18  1  0
 13 12  2  0
 15 16  1  1
 15 14  1  0
 17 15  1  0
 17 18  1  6
 19 21  1  0
 19 17  1  0
 20 19  2  0
M  END
$$$$
