NAV.pdb
     RDKit          3D

 21 20  0  0  1  0  0  0  0  0999 V2000
   14.5648  -14.4633  -16.2287 N   0  0  0  0  0  0  0  0  0  0  0  0
   14.9082  -13.5222  -15.2318 C   0  0  0  0  0  0  0  0  0  0  0  0
   14.0926  -13.2790  -14.3234 O   0  0  0  0  0  0  0  0  0  0  0  0
   16.2349  -12.8678  -15.3213 C   0  0  0  0  0  0  0  0  0  0  0  0
   16.9767  -13.2677  -16.5786 C   0  0  2  0  0  0  0  0  0  0  0  0
   17.4308  -14.6160  -16.4303 N   0  0  0  0  0  0  0  0  0  0  0  0
   18.0903  -12.3023  -16.7659 C   0  0  0  0  0  0  0  0  0  0  0  0
   19.1530  -12.4875  -16.1189 O   0  0  0  0  0  0  0  0  0  0  0  0
   18.7616   -9.3433  -18.9419 C   0  0  0  0  0  0  0  0  0  0  0  0
   19.1279  -10.3107  -17.8082 C   0  0  2  0  0  0  0  0  0  0  0  0
   18.0045  -11.1856  -17.6405 N   0  0  0  0  0  0  0  0  0  0  0  0
   19.3920   -9.4717  -16.6209 C   0  0  0  0  0  0  0  0  0  0  0  0
   18.4246   -9.1715  -15.8778 O   0  0  0  0  0  0  0  0  0  0  0  0
   21.7052   -9.8848  -13.6002 C   0  0  0  0  0  0  0  0  0  0  0  0
   22.0700   -8.6034  -14.3173 C   0  0  1  0  0  0  0  0  0  0  0  0
   23.3257   -8.7978  -15.1525 C   0  0  0  0  0  0  0  0  0  0  0  0
   20.9220   -8.0971  -15.1632 C   0  0  2  0  0  0  0  0  0  0  0  0
   20.6805   -8.9892  -16.2791 N   0  0  0  0  0  0  0  0  0  0  0  0
   21.2970   -6.7404  -15.6475 C   0  0  0  0  0  0  0  0  0  0  0  0
   21.6670   -6.5777  -16.8380 O   0  0  0  0  0  0  0  0  0  0  0  0
   21.2539   -5.6270  -14.8230 O   0  0  0  0  0  0  0  0  0  0  0  0
  1  2  1  0
  2  3  2  0
  4  2  1  0
  5  4  1  0
  5  6  1  1
  7  5  1  0
  7 11  1  0
  8  7  2  0
 10 12  1  0
 10 11  1  0
 10  9  1  6
 12 18  1  0
 13 12  2  0
 15 16  1  6
 15 14  1  0
 17 15  1  0
 17 18  1  6
 19 21  1  0
 19 17  1  0
 20 19  2  0
M  END
$$$$
