NAV.pdb
     RDKit          3D

 21 20  0  0  1  0  0  0  0  0999 V2000
   30.4997  -20.2596  -10.7417 N   0  0  0  0  0  0  0  0  0  0  0  0
   29.1475  -20.5638  -10.4650 C   0  0  0  0  0  0  0  0  0  0  0  0
   28.8584  -21.1008   -9.3799 O   0  0  0  0  0  0  0  0  0  0  0  0
   28.1346  -20.2238  -11.4921 C   0  0  0  0  0  0  0  0  0  0  0  0
   27.3267  -21.4340  -11.9090 C   0  0  2  0  0  0  0  0  0  0  0  0
   28.1952  -22.3535  -12.5771 N   0  0  0  0  0  0  0  0  0  0  0  0
   26.2194  -20.9545  -12.7755 C   0  0  0  0  0  0  0  0  0  0  0  0
   26.5070  -20.5096  -13.9164 O   0  0  0  0  0  0  0  0  0  0  0  0
   22.5026  -21.1882  -12.6383 C   0  0  0  0  0  0  0  0  0  0  0  0
   23.8130  -20.8009  -13.3370 C   0  0  2  0  0  0  0  0  0  0  0  0
   24.8573  -20.9777  -12.3708 N   0  0  0  0  0  0  0  0  0  0  0  0
   23.6509  -19.3962  -13.7656 C   0  0  0  0  0  0  0  0  0  0  0  0
   23.5568  -18.5111  -12.8790 O   0  0  0  0  0  0  0  0  0  0  0  0
   25.9581  -17.2087  -15.5924 C   0  0  0  0  0  0  0  0  0  0  0  0
   24.6771  -17.2255  -16.3975 C   0  0  1  0  0  0  0  0  0  0  0  0
   24.8140  -18.1466  -17.5996 C   0  0  0  0  0  0  0  0  0  0  0  0
   23.4912  -17.6141  -15.5415 C   0  0  2  0  0  0  0  0  0  0  0  0
   23.5963  -18.9979  -15.1251 N   0  0  0  0  0  0  0  0  0  0  0  0
   22.2678  -17.4047  -16.3632 C   0  0  0  0  0  0  0  0  0  0  0  0
   21.6345  -18.3940  -16.8116 O   0  0  0  0  0  0  0  0  0  0  0  0
   21.7887  -16.1384  -16.6601 O   0  0  0  0  0  0  0  0  0  0  0  0
  1  2  1  0
  2  3  2  0
  4  2  1  0
  5  4  1  0
  5  6  1  6
  7  5  1  0
  7 11  1  0
  8  7  2  0
 10 12  1  0
 10 11  1  0
 10  9  1  1
 12 18  1  0
 13 12  2  0
 15 16  1  6
 15 14  1  0
 17 15  1  0
 17 18  1  6
 19 21  1  0
 19 17  1  0
 20 19  2  0
M  END
$$$$
