QWH.pdb
     RDKit          3D

 34 36  0  0  1  0  0  0  0  0999 V2000
   29.3523  -24.2139  -15.8479 N   0  0  0  0  0  0  0  0  0  0  0  0
   29.7006  -22.9984  -16.5161 C   0  0  0  0  0  0  0  0  0  0  0  0
   30.4072  -23.0434  -17.5434 O   0  0  0  0  0  0  0  0  0  0  0  0
   29.2265  -21.6930  -15.9929 C   0  0  0  0  0  0  0  0  0  0  0  0
   28.4889  -21.9192  -14.6949 C   0  0  0  0  0  0  0  0  0  0  0  0
   27.1799  -21.1710  -14.6511 C   0  0  2  0  0  0  0  0  0  0  0  0
   27.4175  -19.7551  -14.6305 N   0  0  0  0  0  0  0  0  0  0  0  0
   26.4774  -21.5558  -13.3937 C   0  0  0  0  0  0  0  0  0  0  0  0
   26.0843  -22.7409  -13.2311 O   0  0  0  0  0  0  0  0  0  0  0  0
   26.2233  -20.6334  -12.3461 N   0  0  0  0  0  0  0  0  0  0  0  0
   25.4201  -20.9508  -11.1922 C   0  0  1  0  0  0  0  0  0  0  0  0
   25.9267  -20.2802   -9.9561 C   0  0  0  0  0  0  0  0  0  0  0  0
   27.2812  -20.6692   -9.5246 C   0  0  0  0  0  0  0  0  0  0  0  0
   28.1869  -21.4304  -10.3074 C   0  0  0  0  0  0  0  0  0  0  0  0
   29.3339  -21.5956   -9.6410 N   0  0  0  0  0  0  0  0  0  0  0  0
   29.2498  -20.9813   -8.4386 C   0  0  0  0  0  0  0  0  0  0  0  0
   30.1537  -20.8712   -7.4035 C   0  0  0  0  0  0  0  0  0  0  0  0
   29.7766  -20.1721   -6.2703 C   0  0  0  0  0  0  0  0  0  0  0  0
   28.5359  -19.5987   -6.1687 C   0  0  0  0  0  0  0  0  0  0  0  0
   27.6740  -19.7351   -7.2219 C   0  0  0  0  0  0  0  0  0  0  0  0
   27.9744  -20.4121   -8.3788 C   0  0  0  0  0  0  0  0  0  0  0  0
   23.9715  -20.8394  -11.3722 C   0  0  0  0  0  0  0  0  0  0  0  0
   23.1441  -21.0689  -10.4524 O   0  0  0  0  0  0  0  0  0  0  0  0
   23.4273  -20.4399  -12.6537 N   0  0  0  0  0  0  0  0  0  0  0  0
   22.0423  -20.0816  -12.8465 C   0  0  1  0  0  0  0  0  0  0  0  0
   21.9416  -19.3881  -14.2130 C   0  0  0  0  0  0  0  0  0  0  0  0
   20.6254  -18.8419  -14.5126 C   0  0  0  0  0  0  0  0  0  0  0  0
   19.4610  -18.9422  -13.7453 C   0  0  0  0  0  0  0  0  0  0  0  0
   18.4743  -18.3112  -14.3651 N   0  0  0  0  0  0  0  0  0  0  0  0
   18.9538  -17.8017  -15.5115 C   0  0  0  0  0  0  0  0  0  0  0  0
   20.2502  -18.1339  -15.5783 N   0  0  0  0  0  0  0  0  0  0  0  0
   21.1914  -21.3129  -13.0480 C   0  0  0  0  0  0  0  0  0  0  0  0
   19.8944  -21.2595  -12.5797 O   0  0  0  0  0  0  0  0  0  0  0  0
   21.6420  -22.3179  -13.6044 O   0  0  0  0  0  0  0  0  0  0  0  0
  2  3  2  0
  2  1  1  0
  4  2  1  0
  5  4  1  0
  6  5  1  0
  6  7  1  1
  8  9  2  0
  8  6  1  0
 10  8  1  0
 11 12  1  1
 11 10  1  0
 12 13  1  0
 13 21  1  0
 13 14  2  0
 14 15  1  0
 16 15  1  0
 16 17  2  0
 18 17  1  0
 19 18  2  0
 20 21  2  0
 20 19  1  0
 21 16  1  0
 22 11  1  0
 23 22  2  0
 24 22  1  0
 25 24  1  0
 25 26  1  6
 26 27  1  0
 27 28  2  0
 28 29  1  0
 30 29  1  0
 31 27  1  0
 31 30  2  0
 32 25  1  0
 32 33  1  0
 34 32  2  0
M  END
$$$$
