QWH.pdb
     RDKit          3D

 34 36  0  0  1  0  0  0  0  0999 V2000
   28.0700  -17.3770  -14.4106 N   0  0  0  0  0  0  0  0  0  0  0  0
   28.5534  -17.8811  -15.6585 C   0  0  0  0  0  0  0  0  0  0  0  0
   29.3802  -17.2130  -16.3117 O   0  0  0  0  0  0  0  0  0  0  0  0
   28.0764  -19.1886  -16.1740 C   0  0  0  0  0  0  0  0  0  0  0  0
   27.2064  -19.8444  -15.1286 C   0  0  0  0  0  0  0  0  0  0  0  0
   27.9738  -20.8460  -14.3022 C   0  0  2  0  0  0  0  0  0  0  0  0
   28.5518  -21.8506  -15.1498 N   0  0  0  0  0  0  0  0  0  0  0  0
   27.0109  -21.5019  -13.3721 C   0  0  0  0  0  0  0  0  0  0  0  0
   26.0886  -22.2261  -13.8306 O   0  0  0  0  0  0  0  0  0  0  0  0
   27.0823  -21.3485  -11.9634 N   0  0  0  0  0  0  0  0  0  0  0  0
   25.9444  -21.5076  -11.0932 C   0  0  1  0  0  0  0  0  0  0  0  0
   26.3534  -21.7869   -9.6828 C   0  0  0  0  0  0  0  0  0  0  0  0
   26.7390  -20.6112   -8.8821 C   0  0  0  0  0  0  0  0  0  0  0  0
   26.2727  -19.2917   -9.1148 C   0  0  0  0  0  0  0  0  0  0  0  0
   26.7922  -18.4605   -8.2059 N   0  0  0  0  0  0  0  0  0  0  0  0
   27.5922  -19.1549   -7.3643 C   0  0  0  0  0  0  0  0  0  0  0  0
   28.3454  -18.7548   -6.2812 C   0  0  0  0  0  0  0  0  0  0  0  0
   29.0831  -19.7089   -5.6025 C   0  0  0  0  0  0  0  0  0  0  0  0
   29.0725  -21.0236   -5.9895 C   0  0  0  0  0  0  0  0  0  0  0  0
   28.3098  -21.3718   -7.0701 C   0  0  0  0  0  0  0  0  0  0  0  0
   27.5509  -20.4846   -7.7939 C   0  0  0  0  0  0  0  0  0  0  0  0
   24.9007  -20.4882  -11.2139 C   0  0  0  0  0  0  0  0  0  0  0  0
   25.1046  -19.3501  -11.7105 O   0  0  0  0  0  0  0  0  0  0  0  0
   23.5546  -20.7693  -10.7592 N   0  0  0  0  0  0  0  0  0  0  0  0
   22.3755  -20.4006  -11.5059 C   0  0  1  0  0  0  0  0  0  0  0  0
   22.3923  -21.2157  -12.8072 C   0  0  0  0  0  0  0  0  0  0  0  0
   22.7771  -20.4537  -13.9870 C   0  0  0  0  0  0  0  0  0  0  0  0
   23.0716  -19.0893  -14.0675 C   0  0  0  0  0  0  0  0  0  0  0  0
   23.3760  -18.7818  -15.3199 N   0  0  0  0  0  0  0  0  0  0  0  0
   23.2907  -19.8985  -16.0611 C   0  0  0  0  0  0  0  0  0  0  0  0
   22.9289  -20.8914  -15.2373 N   0  0  0  0  0  0  0  0  0  0  0  0
   21.1271  -20.9089  -10.8248 C   0  0  0  0  0  0  0  0  0  0  0  0
   19.9733  -20.1738  -11.0058 O   0  0  0  0  0  0  0  0  0  0  0  0
   21.1452  -21.9337  -10.1377 O   0  0  0  0  0  0  0  0  0  0  0  0
  2  3  2  0
  2  1  1  0
  4  2  1  0
  5  4  1  0
  6  5  1  0
  6  7  1  6
  8  9  2  0
  8  6  1  0
 10  8  1  0
 11 12  1  1
 11 10  1  0
 12 13  1  0
 13 21  1  0
 13 14  2  0
 14 15  1  0
 16 15  1  0
 16 17  2  0
 18 17  1  0
 19 18  2  0
 20 21  2  0
 20 19  1  0
 21 16  1  0
 22 11  1  0
 23 22  2  0
 24 22  1  0
 25 24  1  0
 25 26  1  6
 26 27  1  0
 27 28  2  0
 28 29  1  0
 30 29  1  0
 31 27  1  0
 31 30  2  0
 32 25  1  0
 32 33  1  0
 34 32  2  0
M  END
$$$$
