QWH.pdb
     RDKit          3D

 34 36  0  0  1  0  0  0  0  0999 V2000
   16.3486  -15.2498  -14.5956 N   0  0  0  0  0  0  0  0  0  0  0  0
   16.2621  -14.9292  -15.9866 C   0  0  0  0  0  0  0  0  0  0  0  0
   15.9317  -15.8144  -16.8013 O   0  0  0  0  0  0  0  0  0  0  0  0
   16.5628  -13.5548  -16.4591 C   0  0  0  0  0  0  0  0  0  0  0  0
   18.0530  -13.4159  -16.6595 C   0  0  0  0  0  0  0  0  0  0  0  0
   18.4276  -12.0537  -17.1876 C   0  0  2  0  0  0  0  0  0  0  0  0
   19.8254  -12.0143  -17.5135 N   0  0  0  0  0  0  0  0  0  0  0  0
   18.1600  -11.0584  -16.1104 C   0  0  0  0  0  0  0  0  0  0  0  0
   16.9779  -10.8420  -15.7346 O   0  0  0  0  0  0  0  0  0  0  0  0
   19.1934  -10.3253  -15.4719 N   0  0  0  0  0  0  0  0  0  0  0  0
   18.9473   -9.3470  -14.4425 C   0  0  1  0  0  0  0  0  0  0  0  0
   20.0681   -9.2790  -13.4558 C   0  0  0  0  0  0  0  0  0  0  0  0
   19.9735   -8.2051  -12.4508 C   0  0  0  0  0  0  0  0  0  0  0  0
   19.2749   -8.3142  -11.2209 C   0  0  0  0  0  0  0  0  0  0  0  0
   19.3962   -7.1772  -10.5284 N   0  0  0  0  0  0  0  0  0  0  0  0
   20.1462   -6.2980  -11.2320 C   0  0  0  0  0  0  0  0  0  0  0  0
   20.5461   -5.0088  -10.9519 C   0  0  0  0  0  0  0  0  0  0  0  0
   21.3204   -4.3412  -11.8846 C   0  0  0  0  0  0  0  0  0  0  0  0
   21.6867   -4.9382  -13.0626 C   0  0  0  0  0  0  0  0  0  0  0  0
   21.2657   -6.2185  -13.2952 C   0  0  0  0  0  0  0  0  0  0  0  0
   20.4969   -6.9463  -12.4199 C   0  0  0  0  0  0  0  0  0  0  0  0
   18.4875   -8.0361  -14.9042 C   0  0  0  0  0  0  0  0  0  0  0  0
   19.0595   -7.3894  -15.8197 O   0  0  0  0  0  0  0  0  0  0  0  0
   17.3165   -7.4258  -14.3090 N   0  0  0  0  0  0  0  0  0  0  0  0
   16.8530   -6.1031  -14.6547 C   0  0  1  0  0  0  0  0  0  0  0  0
   15.3191   -6.1602  -14.7008 C   0  0  0  0  0  0  0  0  0  0  0  0
   14.6888   -4.9464  -15.2007 C   0  0  0  0  0  0  0  0  0  0  0  0
   15.1639   -4.0783  -16.1883 C   0  0  0  0  0  0  0  0  0  0  0  0
   14.2976   -3.0893  -16.3534 N   0  0  0  0  0  0  0  0  0  0  0  0
   13.2723   -3.2811  -15.5075 C   0  0  0  0  0  0  0  0  0  0  0  0
   13.5300   -4.4047  -14.8245 N   0  0  0  0  0  0  0  0  0  0  0  0
   17.1043   -5.1330  -13.5249 C   0  0  0  0  0  0  0  0  0  0  0  0
   17.1748   -3.7948  -13.8547 O   0  0  0  0  0  0  0  0  0  0  0  0
   17.2417   -5.5255  -12.3632 O   0  0  0  0  0  0  0  0  0  0  0  0
  2  3  2  0
  2  1  1  0
  4  2  1  0
  5  4  1  0
  6  5  1  0
  6  7  1  1
  8  9  2  0
  8  6  1  0
 10  8  1  0
 11 12  1  6
 11 10  1  0
 12 13  1  0
 13 21  1  0
 13 14  2  0
 14 15  1  0
 16 15  1  0
 16 17  2  0
 18 17  1  0
 19 18  2  0
 20 21  2  0
 20 19  1  0
 21 16  1  0
 22 11  1  0
 23 22  2  0
 24 22  1  0
 25 24  1  0
 25 26  1  1
 26 27  1  0
 27 28  2  0
 28 29  1  0
 30 29  1  0
 31 27  1  0
 31 30  2  0
 32 25  1  0
 32 33  1  0
 34 32  2  0
M  END
$$$$
