QWH.pdb
     RDKit          3D

 34 36  0  0  1  0  0  0  0  0999 V2000
   11.9943  -16.8828    8.0995 N   0  0  0  0  0  0  0  0  0  0  0  0
   10.7676  -16.3446    7.5985 C   0  0  0  0  0  0  0  0  0  0  0  0
    9.8383  -16.0930    8.3920 O   0  0  0  0  0  0  0  0  0  0  0  0
   10.5997  -16.0870    6.1466 C   0  0  0  0  0  0  0  0  0  0  0  0
   11.8665  -16.4802    5.4251 C   0  0  0  0  0  0  0  0  0  0  0  0
   12.8849  -15.3676    5.4244 C   0  0  2  0  0  0  0  0  0  0  0  0
   12.7540  -14.5750    4.2343 N   0  0  0  0  0  0  0  0  0  0  0  0
   14.2395  -15.9903    5.4370 C   0  0  0  0  0  0  0  0  0  0  0  0
   14.6305  -16.6639    4.4477 O   0  0  0  0  0  0  0  0  0  0  0  0
   15.1316  -15.8594    6.5325 N   0  0  0  0  0  0  0  0  0  0  0  0
   16.4374  -16.4687    6.5643 C   0  0  1  0  0  0  0  0  0  0  0  0
   17.4894  -15.5135    7.0283 C   0  0  0  0  0  0  0  0  0  0  0  0
   17.9085  -14.4954    6.0486 C   0  0  0  0  0  0  0  0  0  0  0  0
   18.0136  -13.1080    6.3256 C   0  0  0  0  0  0  0  0  0  0  0  0
   18.4359  -12.4589    5.2360 N   0  0  0  0  0  0  0  0  0  0  0  0
   18.6230  -13.3424    4.2286 C   0  0  0  0  0  0  0  0  0  0  0  0
   19.0408  -13.1684    2.9264 C   0  0  0  0  0  0  0  0  0  0  0  0
   19.1328  -14.2813    2.1091 C   0  0  0  0  0  0  0  0  0  0  0  0
   18.8182  -15.5319    2.5729 C   0  0  0  0  0  0  0  0  0  0  0  0
   18.4087  -15.6540    3.8722 C   0  0  0  0  0  0  0  0  0  0  0  0
   18.2928  -14.5991    4.7443 C   0  0  0  0  0  0  0  0  0  0  0  0
   16.5129  -17.7844    7.2016 C   0  0  0  0  0  0  0  0  0  0  0  0
   15.9920  -18.0389    8.3185 O   0  0  0  0  0  0  0  0  0  0  0  0
   17.2040  -18.8729    6.5416 N   0  0  0  0  0  0  0  0  0  0  0  0
   17.4204  -20.1602    7.1578 C   0  0  1  0  0  0  0  0  0  0  0  0
   17.9740  -21.0933    6.0710 C   0  0  0  0  0  0  0  0  0  0  0  0
   18.3032  -22.4318    6.5408 C   0  0  0  0  0  0  0  0  0  0  0  0
   18.1051  -22.9646    7.8182 C   0  0  0  0  0  0  0  0  0  0  0  0
   18.5402  -24.2159    7.8413 N   0  0  0  0  0  0  0  0  0  0  0  0
   19.0160  -24.5197    6.6227 C   0  0  0  0  0  0  0  0  0  0  0  0
   18.8627  -23.4306    5.8572 N   0  0  0  0  0  0  0  0  0  0  0  0
   18.5643  -20.0997    8.1420 C   0  0  0  0  0  0  0  0  0  0  0  0
   18.4152  -20.8071    9.3174 O   0  0  0  0  0  0  0  0  0  0  0  0
   19.5816  -19.4440    7.9011 O   0  0  0  0  0  0  0  0  0  0  0  0
  2  3  2  0
  2  1  1  0
  4  2  1  0
  5  4  1  0
  6  5  1  0
  6  7  1  6
  8  9  2  0
  8  6  1  0
 10  8  1  0
 11 12  1  1
 11 10  1  0
 12 13  1  0
 13 21  1  0
 13 14  2  0
 14 15  1  0
 16 15  1  0
 16 17  2  0
 18 17  1  0
 19 18  2  0
 20 21  2  0
 20 19  1  0
 21 16  1  0
 22 11  1  0
 23 22  2  0
 24 22  1  0
 25 24  1  0
 25 26  1  6
 26 27  1  0
 27 28  2  0
 28 29  1  0
 30 29  1  0
 31 27  1  0
 31 30  2  0
 32 25  1  0
 32 33  1  0
 34 32  2  0
M  END
$$$$
