QWH.pdb
     RDKit          3D

 34 36  0  0  1  0  0  0  0  0999 V2000
   30.1858  -18.1644  -15.2077 N   0  0  0  0  0  0  0  0  0  0  0  0
   28.8845  -18.0873  -15.7960 C   0  0  0  0  0  0  0  0  0  0  0  0
   28.7639  -17.6763  -16.9677 O   0  0  0  0  0  0  0  0  0  0  0  0
   27.6860  -18.4926  -15.0201 C   0  0  0  0  0  0  0  0  0  0  0  0
   28.1106  -18.8908  -13.6268 C   0  0  0  0  0  0  0  0  0  0  0  0
   28.3629  -20.3737  -13.5152 C   0  0  2  0  0  0  0  0  0  0  0  0
   28.4558  -20.9615  -14.8219 N   0  0  0  0  0  0  0  0  0  0  0  0
   27.2041  -20.9801  -12.7997 C   0  0  0  0  0  0  0  0  0  0  0  0
   26.3030  -21.5710  -13.4510 O   0  0  0  0  0  0  0  0  0  0  0  0
   27.0614  -20.9244  -11.3892 N   0  0  0  0  0  0  0  0  0  0  0  0
   25.9110  -21.4409  -10.6911 C   0  0  1  0  0  0  0  0  0  0  0  0
   26.2114  -21.7316   -9.2560 C   0  0  0  0  0  0  0  0  0  0  0  0
   26.6607  -20.5829   -8.4493 C   0  0  0  0  0  0  0  0  0  0  0  0
   26.4137  -19.2248   -8.7766 C   0  0  0  0  0  0  0  0  0  0  0  0
   26.9338  -18.4300   -7.8359 N   0  0  0  0  0  0  0  0  0  0  0  0
   27.5246  -19.1863   -6.8823 C   0  0  0  0  0  0  0  0  0  0  0  0
   28.1938  -18.8418   -5.7273 C   0  0  0  0  0  0  0  0  0  0  0  0
   28.7062  -19.8542   -4.9351 C   0  0  0  0  0  0  0  0  0  0  0  0
   28.5578  -21.1719   -5.2812 C   0  0  0  0  0  0  0  0  0  0  0  0
   27.8861  -21.4638   -6.4364 C   0  0  0  0  0  0  0  0  0  0  0  0
   27.3489  -20.5167   -7.2739 C   0  0  0  0  0  0  0  0  0  0  0  0
   24.6590  -20.7104  -10.8954 C   0  0  0  0  0  0  0  0  0  0  0  0
   24.5761  -19.4562  -10.8345 O   0  0  0  0  0  0  0  0  0  0  0  0
   23.4378  -21.4304  -11.1926 N   0  0  0  0  0  0  0  0  0  0  0  0
   22.1698  -20.7773  -11.4146 C   0  0  1  0  0  0  0  0  0  0  0  0
   21.5654  -21.3864  -12.6881 C   0  0  0  0  0  0  0  0  0  0  0  0
   22.1474  -20.8871  -13.9261 C   0  0  0  0  0  0  0  0  0  0  0  0
   23.0690  -19.8473  -14.0815 C   0  0  0  0  0  0  0  0  0  0  0  0
   23.3485  -19.7007  -15.3684 N   0  0  0  0  0  0  0  0  0  0  0  0
   22.6413  -20.6092  -16.0598 C   0  0  0  0  0  0  0  0  0  0  0  0
   21.9261  -21.3116  -15.1705 N   0  0  0  0  0  0  0  0  0  0  0  0
   21.1665  -21.1784  -10.3595 C   0  0  0  0  0  0  0  0  0  0  0  0
   19.9422  -20.5423  -10.3878 O   0  0  0  0  0  0  0  0  0  0  0  0
   21.4362  -22.0345   -9.5126 O   0  0  0  0  0  0  0  0  0  0  0  0
  2  3  2  0
  2  1  1  0
  4  2  1  0
  5  4  1  0
  6  5  1  0
  6  7  1  6
  8  9  2  0
  8  6  1  0
 10  8  1  0
 11 12  1  1
 11 10  1  0
 12 13  1  0
 13 21  1  0
 13 14  2  0
 14 15  1  0
 16 15  1  0
 16 17  2  0
 18 17  1  0
 19 18  2  0
 20 21  2  0
 20 19  1  0
 21 16  1  0
 22 11  1  0
 23 22  2  0
 24 22  1  0
 25 24  1  0
 25 26  1  6
 26 27  1  0
 27 28  2  0
 28 29  1  0
 30 29  1  0
 31 27  1  0
 31 30  2  0
 32 25  1  0
 32 33  1  0
 34 32  2  0
M  END
$$$$
