CEA.pdb
     RDKit          3D

 21 20  0  0  1  0  0  0  0  0999 V2000
    7.1074  -14.9852   19.8326 N   0  0  0  0  0  0  0  0  0  0  0  0
    8.2136  -14.5069   20.6054 C   0  0  1  0  0  0  0  0  0  0  0  0
    8.1323  -13.0090   20.8678 C   0  0  0  0  0  0  0  0  0  0  0  0
    8.3069  -12.0773   19.3349 S   0  0  0  0  0  0  0  0  0  0  0  0
    8.2937  -15.1776   21.9439 C   0  0  0  0  0  0  0  0  0  0  0  0
    7.2135  -15.3693   22.5545 O   0  0  0  0  0  0  0  0  0  0  0  0
    9.5761  -15.5447   22.4204 N   0  0  0  0  0  0  0  0  0  0  0  0
    9.6227  -16.2633   23.7113 C   0  0  1  0  0  0  0  0  0  0  0  0
   10.5563  -17.3879   23.5525 C   0  0  0  0  0  0  0  0  0  0  0  0
   10.8297  -18.2540   24.7301 C   0  0  0  0  0  0  0  0  0  0  0  0
   11.8077  -19.3345   24.4984 C   0  0  0  0  0  0  0  0  0  0  0  0
   12.3276  -19.5074   23.3814 O   0  0  0  0  0  0  0  0  0  0  0  0
    9.8637  -15.2891   24.7573 C   0  0  0  0  0  0  0  0  0  0  0  0
   10.8291  -14.4632   24.6002 O   0  0  0  0  0  0  0  0  0  0  0  0
   12.1496  -20.1671   25.5435 O   0  0  0  0  0  0  0  0  0  0  0  0
    8.3151  -13.4021   27.4164 C   0  0  0  0  0  0  0  0  0  0  0  0
    9.5508  -14.1578   26.9847 C   0  0  2  0  0  0  0  0  0  0  0  0
    9.1507  -15.1207   25.9695 N   0  0  0  0  0  0  0  0  0  0  0  0
   10.0323  -14.9448   28.1587 C   0  0  0  0  0  0  0  0  0  0  0  0
   10.5892  -14.2810   29.2345 O   0  0  0  0  0  0  0  0  0  0  0  0
    9.9560  -16.1972   28.2191 O   0  0  0  0  0  0  0  0  0  0  0  0
  2  1  1  1
  3  2  1  0
  4  3  1  0
  5  7  1  0
  5  2  1  0
  6  5  2  0
  8  9  1  6
  8  7  1  0
 10  9  1  0
 11 10  1  0
 11 15  1  0
 12 11  2  0
 13  8  1  0
 13 18  1  0
 14 13  2  0
 17 18  1  0
 17 16  1  1
 19 17  1  0
 20 19  1  0
 21 19  2  0
M  END
$$$$
