CEA.pdb
     RDKit          3D

 21 20  0  0  1  0  0  0  0  0999 V2000
    6.7228  -15.1265   18.5143 N   0  0  0  0  0  0  0  0  0  0  0  0
    8.0508  -14.7584   18.9028 C   0  0  1  0  0  0  0  0  0  0  0  0
    8.1217  -13.3392   19.4504 C   0  0  0  0  0  0  0  0  0  0  0  0
    7.6601  -12.1390   18.1875 S   0  0  0  0  0  0  0  0  0  0  0  0
    8.5933  -15.6619   19.9692 C   0  0  0  0  0  0  0  0  0  0  0  0
    7.7841  -16.0779   20.8343 O   0  0  0  0  0  0  0  0  0  0  0  0
    9.9730  -15.9793   19.9236 N   0  0  0  0  0  0  0  0  0  0  0  0
   10.4435  -17.0257   20.8556 C   0  0  1  0  0  0  0  0  0  0  0  0
   11.6039  -17.6779   20.2315 C   0  0  0  0  0  0  0  0  0  0  0  0
   12.2280  -18.8333   20.9294 C   0  0  0  0  0  0  0  0  0  0  0  0
   13.3396  -19.4770   20.2029 C   0  0  0  0  0  0  0  0  0  0  0  0
   13.3831  -20.7108   20.0496 O   0  0  0  0  0  0  0  0  0  0  0  0
   10.5931  -16.4236   22.1657 C   0  0  0  0  0  0  0  0  0  0  0  0
   11.4291  -15.4627   22.2950 O   0  0  0  0  0  0  0  0  0  0  0  0
   14.3483  -18.6916   19.6852 O   0  0  0  0  0  0  0  0  0  0  0  0
    8.8129  -15.7812   25.2491 C   0  0  0  0  0  0  0  0  0  0  0  0
   10.1556  -16.0749   24.6205 C   0  0  2  0  0  0  0  0  0  0  0  0
    9.9157  -16.7648   23.3619 N   0  0  0  0  0  0  0  0  0  0  0  0
   10.8700  -17.0381   25.5101 C   0  0  0  0  0  0  0  0  0  0  0  0
   11.3184  -16.6120   26.7453 O   0  0  0  0  0  0  0  0  0  0  0  0
   11.0872  -18.2329   25.1885 O   0  0  0  0  0  0  0  0  0  0  0  0
  2  1  1  1
  3  2  1  0
  4  3  1  0
  5  7  1  0
  5  2  1  0
  6  5  2  0
  8  9  1  6
  8  7  1  0
 10  9  1  0
 11 10  1  0
 11 15  1  0
 12 11  2  0
 13  8  1  0
 13 18  1  0
 14 13  2  0
 17 18  1  0
 17 16  1  1
 19 17  1  0
 20 19  1  0
 21 19  2  0
M  END
$$$$
