CEA.pdb
     RDKit          3D

 21 20  0  0  1  0  0  0  0  0999 V2000
    7.5022  -15.7864   18.6961 N   0  0  0  0  0  0  0  0  0  0  0  0
    8.1375  -14.8876   19.6117 C   0  0  1  0  0  0  0  0  0  0  0  0
    7.7511  -13.4361   19.3606 C   0  0  0  0  0  0  0  0  0  0  0  0
    8.4741  -12.3535   20.6071 S   0  0  0  0  0  0  0  0  0  0  0  0
    7.7786  -15.1916   21.0353 C   0  0  0  0  0  0  0  0  0  0  0  0
    6.5655  -15.3900   21.2906 O   0  0  0  0  0  0  0  0  0  0  0  0
    8.8291  -15.2327   21.9845 N   0  0  0  0  0  0  0  0  0  0  0  0
    8.4657  -15.6408   23.3579 C   0  0  1  0  0  0  0  0  0  0  0  0
    9.3381  -16.7657   23.7253 C   0  0  0  0  0  0  0  0  0  0  0  0
    9.2792  -17.2829   25.1184 C   0  0  0  0  0  0  0  0  0  0  0  0
   10.1951  -18.4028   25.4093 C   0  0  0  0  0  0  0  0  0  0  0  0
   11.3989  -18.3506   25.0992 O   0  0  0  0  0  0  0  0  0  0  0  0
    8.4575  -14.4539   24.1900 C   0  0  0  0  0  0  0  0  0  0  0  0
    9.4981  -13.7083   24.1859 O   0  0  0  0  0  0  0  0  0  0  0  0
    9.7031  -19.5278   26.0374 O   0  0  0  0  0  0  0  0  0  0  0  0
    6.2060  -12.3254   26.2591 C   0  0  0  0  0  0  0  0  0  0  0  0
    7.5828  -12.8507   25.9231 C   0  0  2  0  0  0  0  0  0  0  0  0
    7.4185  -13.9910   25.0340 N   0  0  0  0  0  0  0  0  0  0  0  0
    8.1879  -13.3719   27.1847 C   0  0  0  0  0  0  0  0  0  0  0  0
    8.6431  -12.4787   28.1350 O   0  0  0  0  0  0  0  0  0  0  0  0
    8.3059  -14.5983   27.4297 O   0  0  0  0  0  0  0  0  0  0  0  0
  2  1  1  6
  3  2  1  0
  4  3  1  0
  5  7  1  0
  5  2  1  0
  6  5  2  0
  8  9  1  1
  8  7  1  0
 10  9  1  0
 11 10  1  0
 11 15  1  0
 12 11  2  0
 13  8  1  0
 13 18  1  0
 14 13  2  0
 17 18  1  0
 17 16  1  1
 19 17  1  0
 20 19  1  0
 21 19  2  0
M  END
$$$$
