CEA.pdb
     RDKit          3D

 21 20  0  0  1  0  0  0  0  0999 V2000
    7.4140  -14.7469   17.9374 N   0  0  0  0  0  0  0  0  0  0  0  0
    8.4874  -14.3687   18.8061 C   0  0  1  0  0  0  0  0  0  0  0  0
    8.1341  -13.1688   19.6749 C   0  0  0  0  0  0  0  0  0  0  0  0
    8.0160  -11.6689   18.6825 S   0  0  0  0  0  0  0  0  0  0  0  0
    8.8727  -15.4791   19.7368 C   0  0  0  0  0  0  0  0  0  0  0  0
    7.9516  -16.2239   20.1529 O   0  0  0  0  0  0  0  0  0  0  0  0
   10.2416  -15.6069   20.0777 N   0  0  0  0  0  0  0  0  0  0  0  0
   10.6193  -16.7972   20.8685 C   0  0  1  0  0  0  0  0  0  0  0  0
   11.8377  -17.3554   20.2641 C   0  0  0  0  0  0  0  0  0  0  0  0
   11.6969  -18.2664   19.0971 C   0  0  0  0  0  0  0  0  0  0  0  0
   12.9282  -18.4690   18.3094 C   0  0  0  0  0  0  0  0  0  0  0  0
   12.9024  -19.0414   17.2051 O   0  0  0  0  0  0  0  0  0  0  0  0
   10.6361  -16.4181   22.2675 C   0  0  0  0  0  0  0  0  0  0  0  0
   11.3958  -15.4499   22.6200 O   0  0  0  0  0  0  0  0  0  0  0  0
   14.1296  -18.0132   18.8109 O   0  0  0  0  0  0  0  0  0  0  0  0
    8.8464  -16.9420   25.4851 C   0  0  0  0  0  0  0  0  0  0  0  0
   10.1082  -16.6114   24.7217 C   0  0  2  0  0  0  0  0  0  0  0  0
    9.8998  -16.9922   23.3327 N   0  0  0  0  0  0  0  0  0  0  0  0
   11.1977  -17.4857   25.2491 C   0  0  0  0  0  0  0  0  0  0  0  0
   11.6754  -17.2729   26.5277 O   0  0  0  0  0  0  0  0  0  0  0  0
   11.7093  -18.4179   24.5804 O   0  0  0  0  0  0  0  0  0  0  0  0
  2  1  1  1
  3  2  1  0
  4  3  1  0
  5  7  1  0
  5  2  1  0
  6  5  2  0
  8  9  1  6
  8  7  1  0
 10  9  1  0
 11 10  1  0
 11 15  1  0
 12 11  2  0
 13  8  1  0
 13 18  1  0
 14 13  2  0
 17 18  1  0
 17 16  1  1
 19 17  1  0
 20 19  1  0
 21 19  2  0
M  END
$$$$
