CEA.pdb
     RDKit          3D

 21 20  0  0  1  0  0  0  0  0999 V2000
    7.6665  -13.7623   17.6515 N   0  0  0  0  0  0  0  0  0  0  0  0
    8.9287  -13.7773   18.3270 C   0  0  1  0  0  0  0  0  0  0  0  0
    9.2114  -12.4700   19.0552 C   0  0  0  0  0  0  0  0  0  0  0  0
    7.8886  -12.0815   20.2161 S   0  0  0  0  0  0  0  0  0  0  0  0
    9.0029  -14.8690   19.3519 C   0  0  0  0  0  0  0  0  0  0  0  0
    7.9161  -15.3024   19.8072 O   0  0  0  0  0  0  0  0  0  0  0  0
   10.2875  -15.3302   19.7304 N   0  0  0  0  0  0  0  0  0  0  0  0
   10.3320  -16.4694   20.6713 C   0  0  1  0  0  0  0  0  0  0  0  0
   11.5236  -17.2642   20.3399 C   0  0  0  0  0  0  0  0  0  0  0  0
   11.8064  -18.4852   21.1404 C   0  0  0  0  0  0  0  0  0  0  0  0
   13.0398  -19.2052   20.7688 C   0  0  0  0  0  0  0  0  0  0  0  0
   12.9965  -20.3149   20.2080 O   0  0  0  0  0  0  0  0  0  0  0  0
   10.1848  -15.9459   22.0150 C   0  0  0  0  0  0  0  0  0  0  0  0
   10.9454  -14.9800   22.3717 O   0  0  0  0  0  0  0  0  0  0  0  0
   14.2629  -18.6331   21.0504 O   0  0  0  0  0  0  0  0  0  0  0  0
    7.7195  -15.7364   24.7229 C   0  0  0  0  0  0  0  0  0  0  0  0
    9.1722  -15.7022   24.3072 C   0  0  2  0  0  0  0  0  0  0  0  0
    9.2819  -16.3717   23.0198 N   0  0  0  0  0  0  0  0  0  0  0  0
    9.9422  -16.5245   25.2872 C   0  0  0  0  0  0  0  0  0  0  0  0
   10.1443  -16.0394   26.5647 O   0  0  0  0  0  0  0  0  0  0  0  0
   10.4223  -17.6506   25.0057 O   0  0  0  0  0  0  0  0  0  0  0  0
  2  1  1  1
  3  2  1  0
  4  3  1  0
  5  7  1  0
  5  2  1  0
  6  5  2  0
  8  9  1  1
  8  7  1  0
 10  9  1  0
 11 10  1  0
 11 15  1  0
 12 11  2  0
 13  8  1  0
 13 18  1  0
 14 13  2  0
 17 18  1  0
 17 16  1  1
 19 17  1  0
 20 19  1  0
 21 19  2  0
M  END
$$$$
