CEA.pdb
     RDKit          3D

 21 20  0  0  1  0  0  0  0  0999 V2000
    7.4894  -15.0923   18.7356 N   0  0  0  0  0  0  0  0  0  0  0  0
    8.2174  -14.4204   19.7692 C   0  0  1  0  0  0  0  0  0  0  0  0
    7.8359  -12.9506   19.8848 C   0  0  0  0  0  0  0  0  0  0  0  0
    8.4759  -12.0084   18.4881 S   0  0  0  0  0  0  0  0  0  0  0  0
    7.9784  -15.0373   21.1146 C   0  0  0  0  0  0  0  0  0  0  0  0
    6.8266  -15.4803   21.3456 O   0  0  0  0  0  0  0  0  0  0  0  0
    9.0642  -15.0754   22.0234 N   0  0  0  0  0  0  0  0  0  0  0  0
    8.7918  -15.6502   23.3577 C   0  0  1  0  0  0  0  0  0  0  0  0
    9.7247  -16.7701   23.5503 C   0  0  0  0  0  0  0  0  0  0  0  0
    9.8059  -17.4020   24.8941 C   0  0  0  0  0  0  0  0  0  0  0  0
   10.7462  -18.5346   24.9971 C   0  0  0  0  0  0  0  0  0  0  0  0
   11.2314  -19.0664   23.9823 O   0  0  0  0  0  0  0  0  0  0  0  0
    8.7842  -14.5655   24.3192 C   0  0  0  0  0  0  0  0  0  0  0  0
    9.8215  -13.8190   24.3932 O   0  0  0  0  0  0  0  0  0  0  0  0
   11.0915  -19.0102   26.2449 O   0  0  0  0  0  0  0  0  0  0  0  0
    6.5116  -12.6612   26.5680 C   0  0  0  0  0  0  0  0  0  0  0  0
    7.8961  -13.1374   26.1929 C   0  0  2  0  0  0  0  0  0  0  0  0
    7.7490  -14.2067   25.2169 N   0  0  0  0  0  0  0  0  0  0  0  0
    8.5096  -13.7468   27.4102 C   0  0  0  0  0  0  0  0  0  0  0  0
    8.9292  -12.9256   28.4386 O   0  0  0  0  0  0  0  0  0  0  0  0
    8.6660  -14.9855   27.5490 O   0  0  0  0  0  0  0  0  0  0  0  0
  2  1  1  6
  3  2  1  0
  4  3  1  0
  5  7  1  0
  5  2  1  0
  6  5  2  0
  8  9  1  1
  8  7  1  0
 10  9  1  0
 11 10  1  0
 11 15  1  0
 12 11  2  0
 13  8  1  0
 13 18  1  0
 14 13  2  0
 17 18  1  0
 17 16  1  1
 19 17  1  0
 20 19  1  0
 21 19  2  0
M  END
$$$$
