CEA.pdb
     RDKit          3D

 21 20  0  0  1  0  0  0  0  0999 V2000
    7.0687  -15.0874   19.5780 N   0  0  0  0  0  0  0  0  0  0  0  0
    8.1186  -14.5339   20.3787 C   0  0  1  0  0  0  0  0  0  0  0  0
    7.9894  -13.0252   20.5409 C   0  0  0  0  0  0  0  0  0  0  0  0
    8.3342  -12.1796   18.9871 S   0  0  0  0  0  0  0  0  0  0  0  0
    8.1378  -15.1181   21.7593 C   0  0  0  0  0  0  0  0  0  0  0  0
    7.0314  -15.2695   22.3330 O   0  0  0  0  0  0  0  0  0  0  0  0
    9.3969  -15.4554   22.3138 N   0  0  0  0  0  0  0  0  0  0  0  0
    9.3856  -16.0738   23.6563 C   0  0  1  0  0  0  0  0  0  0  0  0
   10.3676  -17.1678   23.6423 C   0  0  0  0  0  0  0  0  0  0  0  0
   10.6555  -17.8784   24.9166 C   0  0  0  0  0  0  0  0  0  0  0  0
   11.6338  -18.9782   24.8125 C   0  0  0  0  0  0  0  0  0  0  0  0
   11.2668  -20.1635   24.7221 O   0  0  0  0  0  0  0  0  0  0  0  0
    9.5227  -15.0156   24.6375 C   0  0  0  0  0  0  0  0  0  0  0  0
   10.5831  -14.2991   24.6064 O   0  0  0  0  0  0  0  0  0  0  0  0
   12.9809  -18.6820   24.8157 O   0  0  0  0  0  0  0  0  0  0  0  0
    7.7084  -12.8570   26.9638 C   0  0  0  0  0  0  0  0  0  0  0  0
    8.9418  -13.6888   26.6969 C   0  0  2  0  0  0  0  0  0  0  0  0
    8.6109  -14.6540   25.6593 N   0  0  0  0  0  0  0  0  0  0  0  0
    9.2360  -14.4708   27.9344 C   0  0  0  0  0  0  0  0  0  0  0  0
    9.1387  -15.8484   27.9022 O   0  0  0  0  0  0  0  0  0  0  0  0
    9.5721  -13.9327   29.0186 O   0  0  0  0  0  0  0  0  0  0  0  0
  2  1  1  6
  3  2  1  0
  4  3  1  0
  5  7  1  0
  5  2  1  0
  6  5  2  0
  8  9  1  6
  8  7  1  0
 10  9  1  0
 11 10  1  0
 11 15  1  0
 12 11  2  0
 13  8  1  0
 13 18  1  0
 14 13  2  0
 17 18  1  0
 17 16  1  1
 19 17  1  0
 20 19  1  0
 21 19  2  0
M  END
$$$$
