CEA.pdb
     RDKit          3D

 21 20  0  0  1  0  0  0  0  0999 V2000
    6.7720  -14.8992   20.1188 N   0  0  0  0  0  0  0  0  0  0  0  0
    7.9555  -14.5236   20.8315 C   0  0  1  0  0  0  0  0  0  0  0  0
    8.0545  -13.0179   21.0372 C   0  0  0  0  0  0  0  0  0  0  0  0
    8.2906  -12.1683   19.4654 S   0  0  0  0  0  0  0  0  0  0  0  0
    8.0136  -15.1516   22.1916 C   0  0  0  0  0  0  0  0  0  0  0  0
    6.9528  -15.1636   22.8631 O   0  0  0  0  0  0  0  0  0  0  0  0
    9.2551  -15.6833   22.6186 N   0  0  0  0  0  0  0  0  0  0  0  0
    9.2726  -16.3474   23.9390 C   0  0  1  0  0  0  0  0  0  0  0  0
   10.0671  -17.5767   23.7999 C   0  0  0  0  0  0  0  0  0  0  0  0
   10.3110  -18.4040   25.0114 C   0  0  0  0  0  0  0  0  0  0  0  0
   11.1290  -19.6120   24.7898 C   0  0  0  0  0  0  0  0  0  0  0  0
   12.0614  -19.6193   23.9661 O   0  0  0  0  0  0  0  0  0  0  0  0
    9.6631  -15.3637   24.9295 C   0  0  0  0  0  0  0  0  0  0  0  0
   10.7126  -14.6661   24.7043 O   0  0  0  0  0  0  0  0  0  0  0  0
   10.8510  -20.7538   25.5119 O   0  0  0  0  0  0  0  0  0  0  0  0
    8.4148  -13.2432   27.5972 C   0  0  0  0  0  0  0  0  0  0  0  0
    9.5590  -14.0987   27.1039 C   0  0  2  0  0  0  0  0  0  0  0  0
    9.0182  -15.0585   26.1531 N   0  0  0  0  0  0  0  0  0  0  0  0
   10.0694  -14.8848   28.2662 C   0  0  0  0  0  0  0  0  0  0  0  0
   10.7252  -14.2287   29.2897 O   0  0  0  0  0  0  0  0  0  0  0  0
    9.9311  -16.1296   28.3625 O   0  0  0  0  0  0  0  0  0  0  0  0
  2  1  1  1
  3  2  1  0
  4  3  1  0
  5  7  1  0
  5  2  1  0
  6  5  2  0
  8  9  1  6
  8  7  1  0
 10  9  1  0
 11 10  1  0
 11 15  1  0
 12 11  2  0
 13  8  1  0
 13 18  1  0
 14 13  2  0
 17 18  1  0
 17 16  1  1
 19 17  1  0
 20 19  1  0
 21 19  2  0
M  END
$$$$
