IPE.pdb
     RDKit          3D

 25 25  0  0  1  0  0  0  0  0999 V2000
   19.3821  -18.5019  -14.7856 C   0  0  0  0  0  0  0  0  0  0  0  0
   20.7017  -19.0282  -14.2222 C   0  0  0  0  0  0  0  0  0  0  0  0
   20.4561  -19.9095  -13.0586 C   0  0  2  0  0  0  0  0  0  0  0  0
   19.6691  -19.2014  -11.9763 C   0  0  0  0  0  0  0  0  0  0  0  0
   21.6761  -20.5865  -12.5527 C   0  0  2  0  0  0  0  0  0  0  0  0
   22.4601  -21.1583  -13.6460 N   0  0  0  0  0  0  0  0  0  0  0  0
   21.5127  -21.5964  -11.5159 C   0  0  0  0  0  0  0  0  0  0  0  0
   21.0868  -22.7761  -11.7745 O   0  0  0  0  0  0  0  0  0  0  0  0
   21.8158  -21.3415  -10.1448 N   0  0  0  0  0  0  0  0  0  0  0  0
   22.3085  -20.0192   -9.7231 C   0  0  0  0  0  0  0  0  0  0  0  0
   22.5483  -20.0963   -8.2423 C   0  0  0  0  0  0  0  0  0  0  0  0
   22.7359  -21.5620   -8.0276 C   0  0  0  0  0  0  0  0  0  0  0  0
   21.7102  -22.1490   -8.9742 C   0  0  1  0  0  0  0  0  0  0  0  0
   20.3477  -22.1217   -8.3810 C   0  0  0  0  0  0  0  0  0  0  0  0
   19.6584  -21.0930   -8.5826 O   0  0  0  0  0  0  0  0  0  0  0  0
   19.8003  -23.1685   -7.6197 N   0  0  0  0  0  0  0  0  0  0  0  0
   18.3511  -23.2796   -7.3941 C   0  0  1  0  0  0  0  0  0  0  0  0
   17.7305  -23.8510   -8.6245 C   0  0  0  0  0  0  0  0  0  0  0  0
   18.3791  -25.0719   -9.1748 C   0  0  0  0  0  0  0  0  0  0  0  0
   17.3868  -25.8448   -9.9536 C   0  0  0  0  0  0  0  0  0  0  0  0
   16.1935  -25.4715   -9.9901 O   0  0  0  0  0  0  0  0  0  0  0  0
   18.1104  -24.0585   -6.1657 C   0  0  0  0  0  0  0  0  0  0  0  0
   16.8570  -24.1179   -5.5707 O   0  0  0  0  0  0  0  0  0  0  0  0
   17.7679  -26.9786  -10.6430 O   0  0  0  0  0  0  0  0  0  0  0  0
   19.0664  -24.6825   -5.6471 O   0  0  0  0  0  0  0  0  0  0  0  0
  2  1  1  0
  2  3  1  0
  3  5  1  0
  3  4  1  1
  5  6  1  6
  7  5  1  0
  7  8  2  0
  9 13  1  0
  9  7  1  0
 10 11  1  0
 10  9  1  0
 11 12  1  0
 13 12  1  0
 13 14  1  1
 15 14  2  0
 16 14  1  0
 17 16  1  0
 17 18  1  6
 19 18  1  0
 20 19  1  0
 21 20  2  0
 22 17  1  0
 22 23  1  0
 24 20  1  0
 25 22  2  0
M  END
$$$$
