IPE.pdb
     RDKit          3D

 25 25  0  0  1  0  0  0  0  0999 V2000
   17.4517  -11.8886  -20.0056 C   0  0  0  0  0  0  0  0  0  0  0  0
   18.5463  -12.3567  -19.0472 C   0  0  0  0  0  0  0  0  0  0  0  0
   18.8747  -11.2922  -18.0726 C   0  0  2  0  0  0  0  0  0  0  0  0
   19.6810  -10.1800  -18.7090 C   0  0  0  0  0  0  0  0  0  0  0  0
   19.4651  -11.7993  -16.8090 C   0  0  2  0  0  0  0  0  0  0  0  0
   18.6833  -12.9069  -16.2626 N   0  0  0  0  0  0  0  0  0  0  0  0
   19.7222  -10.8382  -15.7451 C   0  0  0  0  0  0  0  0  0  0  0  0
   18.7758  -10.2816  -15.0860 O   0  0  0  0  0  0  0  0  0  0  0  0
   21.0426  -10.4525  -15.3648 N   0  0  0  0  0  0  0  0  0  0  0  0
   22.2143  -11.0480  -16.0294 C   0  0  0  0  0  0  0  0  0  0  0  0
   23.4313  -10.4496  -15.3840 C   0  0  0  0  0  0  0  0  0  0  0  0
   22.9060  -10.0207  -14.0537 C   0  0  0  0  0  0  0  0  0  0  0  0
   21.5281   -9.5069  -14.4142 C   0  0  1  0  0  0  0  0  0  0  0  0
   21.5908   -8.1263  -14.9611 C   0  0  0  0  0  0  0  0  0  0  0  0
   22.0005   -7.9979  -16.1399 O   0  0  0  0  0  0  0  0  0  0  0  0
   21.2222   -6.9775  -14.2404 N   0  0  0  0  0  0  0  0  0  0  0  0
   21.2144   -5.6463  -14.8659 C   0  0  1  0  0  0  0  0  0  0  0  0
   19.8342   -5.0901  -14.7608 C   0  0  0  0  0  0  0  0  0  0  0  0
   18.8286   -5.6608  -15.6973 C   0  0  0  0  0  0  0  0  0  0  0  0
   17.4698   -5.4155  -15.1660 C   0  0  0  0  0  0  0  0  0  0  0  0
   17.3228   -4.7979  -14.0882 O   0  0  0  0  0  0  0  0  0  0  0  0
   22.2615   -4.8138  -14.2462 C   0  0  0  0  0  0  0  0  0  0  0  0
   22.7199   -3.6480  -14.8459 O   0  0  0  0  0  0  0  0  0  0  0  0
   16.3588   -5.8640  -15.8519 O   0  0  0  0  0  0  0  0  0  0  0  0
   22.7491   -5.1720  -13.1480 O   0  0  0  0  0  0  0  0  0  0  0  0
  2  1  1  0
  2  3  1  0
  3  5  1  0
  3  4  1  6
  5  6  1  1
  7  5  1  0
  7  8  2  0
  9 13  1  0
  9  7  1  0
 10 11  1  0
 10  9  1  0
 11 12  1  0
 13 12  1  0
 13 14  1  6
 15 14  2  0
 16 14  1  0
 17 16  1  0
 17 18  1  1
 19 18  1  0
 20 19  1  0
 21 20  2  0
 22 17  1  0
 22 23  1  0
 24 20  1  0
 25 22  2  0
M  END
$$$$
