IPE.pdb
     RDKit          3D

 25 25  0  0  1  0  0  0  0  0999 V2000
   15.0123  -14.5760  -15.0971 C   0  0  0  0  0  0  0  0  0  0  0  0
   16.1094  -14.5214  -16.1597 C   0  0  0  0  0  0  0  0  0  0  0  0
   16.9651  -13.3298  -15.9633 C   0  0  2  0  0  0  0  0  0  0  0  0
   16.1815  -12.0447  -16.1270 C   0  0  0  0  0  0  0  0  0  0  0  0
   18.2213  -13.3584  -16.7532 C   0  0  2  0  0  0  0  0  0  0  0  0
   18.9321  -14.6236  -16.5775 N   0  0  0  0  0  0  0  0  0  0  0  0
   19.1638  -12.2629  -16.5713 C   0  0  0  0  0  0  0  0  0  0  0  0
   19.9287  -12.1847  -15.5471 O   0  0  0  0  0  0  0  0  0  0  0  0
   19.2997  -11.2049  -17.5194 N   0  0  0  0  0  0  0  0  0  0  0  0
   18.4930  -11.1993  -18.7516 C   0  0  0  0  0  0  0  0  0  0  0  0
   18.8932   -9.9774  -19.5280 C   0  0  0  0  0  0  0  0  0  0  0  0
   20.2612   -9.6992  -18.9979 C   0  0  0  0  0  0  0  0  0  0  0  0
   20.0971  -10.0227  -17.5279 C   0  0  1  0  0  0  0  0  0  0  0  0
   19.4607   -8.8979  -16.7936 C   0  0  0  0  0  0  0  0  0  0  0  0
   18.2098   -8.8178  -16.8459 O   0  0  0  0  0  0  0  0  0  0  0  0
   20.1734   -7.9364  -16.0570 N   0  0  0  0  0  0  0  0  0  0  0  0
   19.4835   -6.9233  -15.2439 C   0  0  1  0  0  0  0  0  0  0  0  0
   20.4283   -6.4479  -14.1917 C   0  0  0  0  0  0  0  0  0  0  0  0
   21.4518   -5.4619  -14.6325 C   0  0  0  0  0  0  0  0  0  0  0  0
   22.3423   -5.1392  -13.4960 C   0  0  0  0  0  0  0  0  0  0  0  0
   22.1178   -5.6302  -12.3677 O   0  0  0  0  0  0  0  0  0  0  0  0
   18.9644   -5.8639  -16.1280 C   0  0  0  0  0  0  0  0  0  0  0  0
   17.9552   -5.0008  -15.7215 O   0  0  0  0  0  0  0  0  0  0  0  0
   23.4228   -4.2978  -13.6707 O   0  0  0  0  0  0  0  0  0  0  0  0
   19.4498   -5.7428  -17.2778 O   0  0  0  0  0  0  0  0  0  0  0  0
  2  1  1  0
  2  3  1  0
  3  5  1  0
  3  4  1  6
  5  6  1  1
  7  5  1  0
  7  8  2  0
  9 13  1  0
  9  7  1  0
 10 11  1  0
 10  9  1  0
 11 12  1  0
 13 12  1  0
 13 14  1  1
 15 14  2  0
 16 14  1  0
 17 16  1  0
 17 18  1  1
 19 18  1  0
 20 19  1  0
 21 20  2  0
 22 17  1  0
 22 23  1  0
 24 20  1  0
 25 22  2  0
M  END
$$$$
