SNK.pdb
     RDKit          3D

 24 23  0  0  1  0  0  0  0  0999 V2000
   10.5518  -12.7900   19.7527 O   0  0  0  0  0  0  0  0  0  0  0  0
   10.4020  -13.5678   18.6053 C   0  0  0  0  0  0  0  0  0  0  0  0
    8.9509  -13.8674   18.4377 C   0  0  2  0  0  0  0  0  0  0  0  0
    8.1805  -12.6801   18.2396 N   0  0  0  0  0  0  0  0  0  0  0  0
    8.4279  -14.6463   19.6173 C   0  0  0  0  0  0  0  0  0  0  0  0
    7.5574  -14.1541   20.3753 O   0  0  0  0  0  0  0  0  0  0  0  0
    9.1226  -19.3141   18.7241 N   0  0  0  0  0  0  0  0  0  0  0  0
    8.3140  -18.8525   19.7870 C   0  0  0  0  0  0  0  0  0  0  0  0
    7.0815  -19.0533   19.7369 O   0  0  0  0  0  0  0  0  0  0  0  0
    8.8975  -18.1439   20.9438 C   0  0  0  0  0  0  0  0  0  0  0  0
    8.4440  -16.7093   21.0189 C   0  0  2  0  0  0  0  0  0  0  0  0
    8.9083  -15.9451   19.8910 N   0  0  0  0  0  0  0  0  0  0  0  0
    9.0760  -16.1406   22.2679 C   0  0  0  0  0  0  0  0  0  0  0  0
   10.2809  -15.7726   22.2521 O   0  0  0  0  0  0  0  0  0  0  0  0
    8.3523  -16.0067   23.4649 N   0  0  0  0  0  0  0  0  0  0  0  0
    9.0293  -15.4356   24.6489 C   0  0  1  0  0  0  0  0  0  0  0  0
    8.0152  -14.8010   25.5401 C   0  0  0  0  0  0  0  0  0  0  0  0
    7.7181  -13.4006   25.0813 C   0  0  0  0  0  0  0  0  0  0  0  0
    6.6807  -12.8562   26.0692 C   0  0  0  0  0  0  0  0  0  0  0  0
    6.2781  -11.4420   25.6900 C   0  0  0  0  0  0  0  0  0  0  0  0
    5.2040  -10.9562   26.5005 N   0  0  0  0  0  0  0  0  0  0  0  0
    9.8525  -16.4856   25.2643 C   0  0  0  0  0  0  0  0  0  0  0  0
    9.7073  -17.8384   25.0460 O   0  0  0  0  0  0  0  0  0  0  0  0
   10.7885  -16.1637   26.0748 O   0  0  0  0  0  0  0  0  0  0  0  0
  2  1  1  0
  3  5  1  0
  3  2  1  0
  3  4  1  1
  5  6  2  0
  7  8  1  0
  8  9  2  0
  8 10  1  0
 11 10  1  6
 11 13  1  0
 12 11  1  0
 12  5  1  0
 13 14  2  0
 13 15  1  0
 15 16  1  0
 16 22  1  0
 16 17  1  1
 18 17  1  0
 19 18  1  0
 20 19  1  0
 21 20  1  0
 22 24  2  0
 22 23  1  0
M  END
$$$$
