SNK.pdb
     RDKit          3D

 24 23  0  0  1  0  0  0  0  0999 V2000
   10.7875  -18.2787   15.8449 O   0  0  0  0  0  0  0  0  0  0  0  0
    9.5394  -17.9130   15.3425 C   0  0  0  0  0  0  0  0  0  0  0  0
    9.6130  -16.4848   14.9201 C   0  0  2  0  0  0  0  0  0  0  0  0
   10.6522  -16.2642   13.9642 N   0  0  0  0  0  0  0  0  0  0  0  0
    9.7937  -15.5843   16.1149 C   0  0  0  0  0  0  0  0  0  0  0  0
   10.9133  -15.0802   16.3741 O   0  0  0  0  0  0  0  0  0  0  0  0
    7.9956  -11.9492   19.9592 N   0  0  0  0  0  0  0  0  0  0  0  0
    7.6818  -13.3267   19.9892 C   0  0  0  0  0  0  0  0  0  0  0  0
    7.5295  -13.8855   21.0966 O   0  0  0  0  0  0  0  0  0  0  0  0
    7.5329  -14.1073   18.7445 C   0  0  0  0  0  0  0  0  0  0  0  0
    8.8632  -14.5157   18.1675 C   0  0  2  0  0  0  0  0  0  0  0  0
    8.7056  -15.2912   16.9652 N   0  0  0  0  0  0  0  0  0  0  0  0
    9.5163  -15.3902   19.2121 C   0  0  0  0  0  0  0  0  0  0  0  0
    9.2734  -16.6262   19.2398 O   0  0  0  0  0  0  0  0  0  0  0  0
   10.3995  -14.8615   20.1687 N   0  0  0  0  0  0  0  0  0  0  0  0
   10.9728  -15.7657   21.1885 C   0  0  1  0  0  0  0  0  0  0  0  0
   12.4565  -15.6115   21.2079 C   0  0  0  0  0  0  0  0  0  0  0  0
   13.0601  -16.4878   22.2700 C   0  0  0  0  0  0  0  0  0  0  0  0
   14.5731  -16.2631   22.1766 C   0  0  0  0  0  0  0  0  0  0  0  0
   15.2929  -17.0405   23.2645 C   0  0  0  0  0  0  0  0  0  0  0  0
   16.7125  -16.8821   23.1849 N   0  0  0  0  0  0  0  0  0  0  0  0
   10.2884  -15.5191   22.4650 C   0  0  0  0  0  0  0  0  0  0  0  0
   10.2247  -16.4076   23.5163 O   0  0  0  0  0  0  0  0  0  0  0  0
    9.6894  -14.4053   22.6582 O   0  0  0  0  0  0  0  0  0  0  0  0
  2  1  1  0
  3  5  1  0
  3  2  1  0
  3  4  1  6
  5  6  2  0
  7  8  1  0
  8  9  2  0
  8 10  1  0
 11 10  1  1
 11 13  1  0
 12 11  1  0
 12  5  1  0
 13 14  2  0
 13 15  1  0
 15 16  1  0
 16 22  1  0
 16 17  1  1
 18 17  1  0
 19 18  1  0
 20 19  1  0
 21 20  1  0
 22 24  2  0
 22 23  1  0
M  END
$$$$
