SNK.pdb
     RDKit          3D

 24 23  0  0  1  0  0  0  0  0999 V2000
   10.1091  -16.4524   17.5945 O   0  0  0  0  0  0  0  0  0  0  0  0
   10.5078  -16.6081   16.2676 C   0  0  0  0  0  0  0  0  0  0  0  0
   11.5476  -15.5801   15.9750 C   0  0  2  0  0  0  0  0  0  0  0  0
   11.9209  -15.5765   14.5955 N   0  0  0  0  0  0  0  0  0  0  0  0
   12.7581  -15.7824   16.8498 C   0  0  0  0  0  0  0  0  0  0  0  0
   13.4875  -16.7940   16.7107 O   0  0  0  0  0  0  0  0  0  0  0  0
   17.2744  -14.1251   17.6442 N   0  0  0  0  0  0  0  0  0  0  0  0
   15.9927  -13.5310   17.6083 C   0  0  0  0  0  0  0  0  0  0  0  0
   15.6640  -12.8691   16.6005 O   0  0  0  0  0  0  0  0  0  0  0  0
   15.0461  -13.6793   18.7320 C   0  0  0  0  0  0  0  0  0  0  0  0
   14.2729  -14.9700   18.6570 C   0  0  2  0  0  0  0  0  0  0  0  0
   13.0936  -14.8367   17.8426 N   0  0  0  0  0  0  0  0  0  0  0  0
   13.8388  -15.2750   20.0716 C   0  0  0  0  0  0  0  0  0  0  0  0
   12.9937  -14.5361   20.6439 O   0  0  0  0  0  0  0  0  0  0  0  0
   14.3549  -16.3729   20.7806 N   0  0  0  0  0  0  0  0  0  0  0  0
   13.8698  -16.6285   22.1538 C   0  0  1  0  0  0  0  0  0  0  0  0
   13.6020  -18.0865   22.3202 C   0  0  0  0  0  0  0  0  0  0  0  0
   12.5389  -18.5369   21.3574 C   0  0  0  0  0  0  0  0  0  0  0  0
   12.3717  -20.0400   21.6040 C   0  0  0  0  0  0  0  0  0  0  0  0
   11.3135  -20.6149   20.6790 C   0  0  0  0  0  0  0  0  0  0  0  0
   11.1473  -22.0234   20.8665 N   0  0  0  0  0  0  0  0  0  0  0  0
   14.8281  -16.0430   23.1011 C   0  0  0  0  0  0  0  0  0  0  0  0
   16.0094  -15.4238   22.7548 O   0  0  0  0  0  0  0  0  0  0  0  0
   14.5880  -16.0909   24.3568 O   0  0  0  0  0  0  0  0  0  0  0  0
  2  1  1  0
  3  5  1  0
  3  2  1  0
  3  4  1  6
  5  6  2  0
  7  8  1  0
  8  9  2  0
  8 10  1  0
 11 10  1  1
 11 13  1  0
 12 11  1  0
 12  5  1  0
 13 14  2  0
 13 15  1  0
 15 16  1  0
 16 22  1  0
 16 17  1  1
 18 17  1  0
 19 18  1  0
 20 19  1  0
 21 20  1  0
 22 24  2  0
 22 23  1  0
M  END
$$$$
