SNK.pdb
     RDKit          3D

 24 23  0  0  1  0  0  0  0  0999 V2000
   16.2034  -18.5969   17.8559 O   0  0  0  0  0  0  0  0  0  0  0  0
   15.1780  -19.5393   17.7891 C   0  0  0  0  0  0  0  0  0  0  0  0
   14.3297  -19.3845   19.0056 C   0  0  2  0  0  0  0  0  0  0  0  0
   13.9543  -18.0230   19.2245 N   0  0  0  0  0  0  0  0  0  0  0  0
   15.0303  -19.9412   20.2183 C   0  0  0  0  0  0  0  0  0  0  0  0
   15.3729  -21.1476   20.2631 O   0  0  0  0  0  0  0  0  0  0  0  0
   19.0110  -19.8214   21.9904 N   0  0  0  0  0  0  0  0  0  0  0  0
   18.2013  -18.6740   22.1483 C   0  0  0  0  0  0  0  0  0  0  0  0
   18.5071  -17.6318   21.5302 O   0  0  0  0  0  0  0  0  0  0  0  0
   17.0120  -18.6883   23.0235 C   0  0  0  0  0  0  0  0  0  0  0  0
   15.9449  -19.6230   22.5168 C   0  0  2  0  0  0  0  0  0  0  0  0
   15.3143  -19.1148   21.3269 N   0  0  0  0  0  0  0  0  0  0  0  0
   14.9044  -19.6944   23.6099 C   0  0  0  0  0  0  0  0  0  0  0  0
   14.1792  -18.6937   23.8549 O   0  0  0  0  0  0  0  0  0  0  0  0
   14.7164  -20.8587   24.3738 N   0  0  0  0  0  0  0  0  0  0  0  0
   13.6325  -20.8863   25.3791 C   0  0  1  0  0  0  0  0  0  0  0  0
   13.1789  -22.2933   25.5787 C   0  0  0  0  0  0  0  0  0  0  0  0
   12.1914  -22.3697   26.7096 C   0  0  0  0  0  0  0  0  0  0  0  0
   11.1263  -23.3745   26.2576 C   0  0  0  0  0  0  0  0  0  0  0  0
   10.0592  -23.5332   27.3262 C   0  0  0  0  0  0  0  0  0  0  0  0
    9.0533  -24.4751   26.9419 N   0  0  0  0  0  0  0  0  0  0  0  0
   14.0998  -20.1888   26.5848 C   0  0  0  0  0  0  0  0  0  0  0  0
   13.2850  -19.6024   27.5288 O   0  0  0  0  0  0  0  0  0  0  0  0
   15.3545  -20.0929   26.8155 O   0  0  0  0  0  0  0  0  0  0  0  0
  2  1  1  0
  3  5  1  0
  3  2  1  0
  3  4  1  1
  5  6  2  0
  7  8  1  0
  8  9  2  0
  8 10  1  0
 11 10  1  1
 11 13  1  0
 12 11  1  0
 12  5  1  0
 13 14  2  0
 13 15  1  0
 15 16  1  0
 16 22  1  0
 16 17  1  1
 18 17  1  0
 19 18  1  0
 20 19  1  0
 21 20  1  0
 22 24  2  0
 22 23  1  0
M  END
$$$$
