SNK.pdb
     RDKit          3D

 24 23  0  0  1  0  0  0  0  0999 V2000
    7.8391  -11.9722   18.9247 O   0  0  0  0  0  0  0  0  0  0  0  0
    8.4252  -13.0390   19.6046 C   0  0  0  0  0  0  0  0  0  0  0  0
    9.0104  -13.9648   18.5926 C   0  0  2  0  0  0  0  0  0  0  0  0
    8.0129  -14.5029   17.7221 N   0  0  0  0  0  0  0  0  0  0  0  0
    9.7785  -15.0732   19.2657 C   0  0  0  0  0  0  0  0  0  0  0  0
    9.4800  -16.2750   19.0623 O   0  0  0  0  0  0  0  0  0  0  0  0
   12.9641  -14.4990   18.0297 N   0  0  0  0  0  0  0  0  0  0  0  0
   13.4131  -14.8631   19.3192 C   0  0  0  0  0  0  0  0  0  0  0  0
   14.2546  -14.1370   19.8909 O   0  0  0  0  0  0  0  0  0  0  0  0
   12.9082  -16.0757   19.9939 C   0  0  0  0  0  0  0  0  0  0  0  0
   11.6359  -15.8133   20.7566 C   0  0  2  0  0  0  0  0  0  0  0  0
   10.8487  -14.7792   20.1379 N   0  0  0  0  0  0  0  0  0  0  0  0
   12.0645  -15.3285   22.1218 C   0  0  0  0  0  0  0  0  0  0  0  0
   13.2307  -14.8836   22.2944 O   0  0  0  0  0  0  0  0  0  0  0  0
   11.1913  -15.3580   23.2224 N   0  0  0  0  0  0  0  0  0  0  0  0
   10.9392  -16.6478   23.8999 C   0  0  1  0  0  0  0  0  0  0  0  0
   10.3528  -17.6123   22.9245 C   0  0  0  0  0  0  0  0  0  0  0  0
   10.9803  -18.9686   23.0876 C   0  0  0  0  0  0  0  0  0  0  0  0
    9.9349  -19.9683   22.5813 C   0  0  0  0  0  0  0  0  0  0  0  0
   10.4567  -21.3891   22.7037 C   0  0  0  0  0  0  0  0  0  0  0  0
    9.4967  -22.3516   22.2580 N   0  0  0  0  0  0  0  0  0  0  0  0
   12.1815  -17.0784   24.5555 C   0  0  0  0  0  0  0  0  0  0  0  0
   12.3253  -17.3180   25.9048 O   0  0  0  0  0  0  0  0  0  0  0  0
   13.2385  -17.2553   23.8568 O   0  0  0  0  0  0  0  0  0  0  0  0
  2  1  1  0
  3  5  1  0
  3  2  1  0
  3  4  1  1
  5  6  2  0
  7  8  1  0
  8  9  2  0
  8 10  1  0
 11 10  1  6
 11 13  1  0
 12 11  1  0
 12  5  1  0
 13 14  2  0
 13 15  1  0
 15 16  1  0
 16 22  1  0
 16 17  1  6
 18 17  1  0
 19 18  1  0
 20 19  1  0
 21 20  1  0
 22 24  2  0
 22 23  1  0
M  END
$$$$
