SNK.pdb
     RDKit          3D

 24 23  0  0  1  0  0  0  0  0999 V2000
    9.0030  -12.8593   18.8225 O   0  0  0  0  0  0  0  0  0  0  0  0
    9.3485  -14.2091   18.8728 C   0  0  0  0  0  0  0  0  0  0  0  0
   10.2121  -14.5081   17.6945 C   0  0  2  0  0  0  0  0  0  0  0  0
    9.5467  -15.3416   16.7432 N   0  0  0  0  0  0  0  0  0  0  0  0
   11.5105  -15.1365   18.1312 C   0  0  0  0  0  0  0  0  0  0  0  0
   11.6156  -16.3825   18.2378 O   0  0  0  0  0  0  0  0  0  0  0  0
   15.7865  -15.8136   16.5893 N   0  0  0  0  0  0  0  0  0  0  0  0
   15.3373  -14.5213   16.9428 C   0  0  0  0  0  0  0  0  0  0  0  0
   15.1718  -13.6735   16.0396 O   0  0  0  0  0  0  0  0  0  0  0  0
   15.0635  -14.1615   18.3487 C   0  0  0  0  0  0  0  0  0  0  0  0
   13.8707  -14.8971   18.9012 C   0  0  2  0  0  0  0  0  0  0  0  0
   12.6331  -14.3341   18.4285 N   0  0  0  0  0  0  0  0  0  0  0  0
   13.9307  -14.7158   20.3999 C   0  0  0  0  0  0  0  0  0  0  0  0
   14.1995  -13.5853   20.8870 O   0  0  0  0  0  0  0  0  0  0  0  0
   13.6929  -15.7836   21.2818 N   0  0  0  0  0  0  0  0  0  0  0  0
   13.9139  -15.5776   22.7292 C   0  0  1  0  0  0  0  0  0  0  0  0
   13.1851  -16.6297   23.4954 C   0  0  0  0  0  0  0  0  0  0  0  0
   11.7520  -16.7055   23.0477 C   0  0  0  0  0  0  0  0  0  0  0  0
   11.1974  -17.9951   23.6624 C   0  0  0  0  0  0  0  0  0  0  0  0
    9.7314  -18.1653   23.3050 C   0  0  0  0  0  0  0  0  0  0  0  0
    9.2257  -19.4395   23.7141 N   0  0  0  0  0  0  0  0  0  0  0  0
   15.3609  -15.4982   22.9712 C   0  0  0  0  0  0  0  0  0  0  0  0
   16.3380  -15.8294   22.0576 O   0  0  0  0  0  0  0  0  0  0  0  0
   15.7927  -15.0969   24.1066 O   0  0  0  0  0  0  0  0  0  0  0  0
  2  1  1  0
  3  5  1  0
  3  2  1  0
  3  4  1  6
  5  6  2  0
  7  8  1  0
  8  9  2  0
  8 10  1  0
 11 10  1  6
 11 13  1  0
 12 11  1  0
 12  5  1  0
 13 14  2  0
 13 15  1  0
 15 16  1  0
 16 22  1  0
 16 17  1  1
 18 17  1  0
 19 18  1  0
 20 19  1  0
 21 20  1  0
 22 24  2  0
 22 23  1  0
M  END
$$$$
