RPY.pdb
     RDKit          3D

 31 32  0  0  1  0  0  0  0  0999 V2000
   10.7657  -21.5593   15.1739 N   0  0  0  0  0  0  0  0  0  0  0  0
   11.3592  -20.9291   16.2779 C   0  0  0  0  0  0  0  0  0  0  0  0
   12.3772  -21.4520   16.8447 N   0  0  0  0  0  0  0  0  0  0  0  0
   10.8416  -19.7076   16.7816 N   0  0  0  0  0  0  0  0  0  0  0  0
    9.6760  -19.0607   16.1735 C   0  0  0  0  0  0  0  0  0  0  0  0
    9.9516  -17.5978   16.1774 C   0  0  0  0  0  0  0  0  0  0  0  0
    8.8570  -16.7012   15.7433 C   0  0  0  0  0  0  0  0  0  0  0  0
    9.1312  -15.2242   15.8459 C   0  0  2  0  0  0  0  0  0  0  0  0
   10.0221  -14.7564   14.8252 N   0  0  0  0  0  0  0  0  0  0  0  0
    9.4464  -14.7980   17.2084 C   0  0  0  0  0  0  0  0  0  0  0  0
   10.6484  -14.8685   17.5715 O   0  0  0  0  0  0  0  0  0  0  0  0
   12.8393  -20.9808   17.6247 N   0  0  0  0  0  0  0  0  0  0  0  0
    8.4980  -14.3026   18.1751 C   0  0  0  0  0  0  0  0  0  0  0  0
    7.1063  -14.1015   17.8842 C   0  0  0  0  0  0  0  0  0  0  0  0
    6.5806  -13.2965   19.0726 C   0  0  0  0  0  0  0  0  0  0  0  0
    7.4551  -13.7582   20.2110 C   0  0  2  0  0  0  0  0  0  0  0  0
    8.7770  -13.9242   19.5290 C   0  0  0  0  0  0  0  0  0  0  0  0
    9.5035  -14.9935   20.2758 O   0  0  0  0  0  0  0  0  0  0  0  0
    9.2596  -16.1830   19.9888 O   0  0  0  0  0  0  0  0  0  0  0  0
   15.2671  -16.0189   17.1151 C   0  0  0  0  0  0  0  0  0  0  0  0
   14.6048  -15.7851   18.3130 C   0  0  0  0  0  0  0  0  0  0  0  0
   14.6645  -16.7240   19.3185 C   0  0  0  0  0  0  0  0  0  0  0  0
   14.0176  -16.5296   20.5293 C   0  0  0  0  0  0  0  0  0  0  0  0
   13.2842  -15.3888   20.7846 C   0  0  0  0  0  0  0  0  0  0  0  0
   12.5965  -15.2068   22.0755 C   0  0  2  0  0  0  0  0  0  0  0  0
   11.1488  -15.6394   22.0695 N   0  0  0  0  0  0  0  0  0  0  0  0
   10.4361  -14.6213   21.2749 C   0  0  0  0  0  0  0  0  0  0  0  0
   10.6411  -15.6156   23.4642 O   0  0  0  0  0  0  0  0  0  0  0  0
    9.8422  -14.7718   23.8973 C   0  0  0  0  0  0  0  0  0  0  0  0
   13.2223  -14.4403   19.7723 C   0  0  0  0  0  0  0  0  0  0  0  0
   13.8708  -14.6491   18.5761 O   0  0  0  0  0  0  0  0  0  0  0  0
  2  1  1  0
  3  2  2  0
  4  2  1  0
  5  4  1  0
  6  5  1  0
  7  6  1  0
  8  7  1  0
  8  9  1  6
 10  8  1  0
 11 10  2  0
 12 10  1  0
 12 16  1  0
 13 14  1  0
 13 12  1  0
 14 15  1  0
 15 16  1  0
 16 17  1  1
 17 18  2  0
 19 20  1  0
 20 30  2  0
 21 20  1  0
 21 22  2  0
 22 23  1  0
 23 29  2  0
 23 24  1  0
 25 24  1  6
 25 27  1  0
 26 17  1  0
 26 25  1  0
 27 28  2  0
 27 31  1  0
 30 29  1  0
M  END
$$$$
