RPY.pdb
     RDKit          3D

 31 32  0  0  1  0  0  0  0  0999 V2000
   10.4272  -12.7257   19.4147 N   0  0  0  0  0  0  0  0  0  0  0  0
    9.0277  -12.8150   19.3723 C   0  0  0  0  0  0  0  0  0  0  0  0
    8.3225  -11.7647   19.1975 N   0  0  0  0  0  0  0  0  0  0  0  0
    8.3751  -14.0661   19.5227 N   0  0  0  0  0  0  0  0  0  0  0  0
    8.1830  -14.6765   20.8407 C   0  0  0  0  0  0  0  0  0  0  0  0
    7.4184  -15.9344   20.6192 C   0  0  0  0  0  0  0  0  0  0  0  0
    7.8678  -17.1385   21.3534 C   0  0  0  0  0  0  0  0  0  0  0  0
    6.9183  -17.6728   22.3926 C   0  0  2  0  0  0  0  0  0  0  0  0
    5.5756  -17.2080   22.2040 N   0  0  0  0  0  0  0  0  0  0  0  0
    7.4435  -17.5627   23.7525 C   0  0  0  0  0  0  0  0  0  0  0  0
    7.0399  -16.5975   24.4505 O   0  0  0  0  0  0  0  0  0  0  0  0
    7.3020  -11.8157   19.1964 N   0  0  0  0  0  0  0  0  0  0  0  0
    8.3859  -18.4656   24.3656 C   0  0  0  0  0  0  0  0  0  0  0  0
    8.9359  -19.6089   23.6931 C   0  0  0  0  0  0  0  0  0  0  0  0
    9.6161  -20.4126   24.8013 C   0  0  0  0  0  0  0  0  0  0  0  0
   10.0421  -19.3491   25.7817 C   0  0  2  0  0  0  0  0  0  0  0  0
    8.8973  -18.3883   25.7023 C   0  0  0  0  0  0  0  0  0  0  0  0
    9.4578  -17.0404   26.0153 O   0  0  0  0  0  0  0  0  0  0  0  0
    9.8829  -16.3446   25.0709 O   0  0  0  0  0  0  0  0  0  0  0  0
    5.0946  -12.8431   24.9886 C   0  0  0  0  0  0  0  0  0  0  0  0
    6.1004  -13.2609   25.8500 C   0  0  0  0  0  0  0  0  0  0  0  0
    7.4002  -12.8688   25.6201 C   0  0  0  0  0  0  0  0  0  0  0  0
    8.4337  -13.2639   26.4557 C   0  0  0  0  0  0  0  0  0  0  0  0
    8.2103  -14.0675   27.5551 C   0  0  0  0  0  0  0  0  0  0  0  0
    9.3252  -14.4835   28.4248 C   0  0  2  0  0  0  0  0  0  0  0  0
   10.2947  -15.4397   27.7700 N   0  0  0  0  0  0  0  0  0  0  0  0
    9.4860  -16.6041   27.3626 C   0  0  0  0  0  0  0  0  0  0  0  0
   11.2945  -15.8673   28.7804 O   0  0  0  0  0  0  0  0  0  0  0  0
   11.2699  -16.9633   29.3600 C   0  0  0  0  0  0  0  0  0  0  0  0
    6.9004  -14.4644   27.7893 C   0  0  0  0  0  0  0  0  0  0  0  0
    5.8860  -14.0628   26.9498 O   0  0  0  0  0  0  0  0  0  0  0  0
  2  1  1  0
  3  2  2  0
  4  2  1  0
  5  4  1  0
  6  5  1  0
  7  6  1  0
  8  7  1  0
  8  9  1  1
 10  8  1  0
 11 10  2  0
 12 10  1  0
 12 16  1  0
 13 14  1  0
 13 12  1  0
 14 15  1  0
 15 16  1  0
 16 17  1  6
 17 18  2  0
 19 20  1  0
 20 30  2  0
 21 20  1  0
 21 22  2  0
 22 23  1  0
 23 29  2  0
 23 24  1  0
 25 24  1  6
 25 27  1  0
 26 17  1  0
 26 25  1  0
 27 28  2  0
 27 31  1  0
 30 29  1  0
M  END
$$$$
