RPY.pdb
     RDKit          3D

 31 32  0  0  1  0  0  0  0  0999 V2000
    5.8368  -20.1542   16.4306 N   0  0  0  0  0  0  0  0  0  0  0  0
    6.8966  -19.2736   16.1667 C   0  0  0  0  0  0  0  0  0  0  0  0
    6.8417  -18.4856   15.1632 N   0  0  0  0  0  0  0  0  0  0  0  0
    8.0415  -19.2437   17.0046 N   0  0  0  0  0  0  0  0  0  0  0  0
    9.1272  -18.2849   16.7844 C   0  0  0  0  0  0  0  0  0  0  0  0
   10.1591  -18.5661   17.8199 C   0  0  0  0  0  0  0  0  0  0  0  0
   10.0458  -17.8390   19.1041 C   0  0  0  0  0  0  0  0  0  0  0  0
   10.6821  -16.4752   19.1510 C   0  0  2  0  0  0  0  0  0  0  0  0
   12.1100  -16.5285   19.0375 N   0  0  0  0  0  0  0  0  0  0  0  0
   10.1617  -15.6421   20.2338 C   0  0  0  0  0  0  0  0  0  0  0  0
   10.7240  -15.7353   21.3549 O   0  0  0  0  0  0  0  0  0  0  0  0
    7.6345  -17.8860   14.9268 N   0  0  0  0  0  0  0  0  0  0  0  0
    9.0576  -14.7206   20.1294 C   0  0  0  0  0  0  0  0  0  0  0  0
    8.4197  -14.3904   18.8859 C   0  0  0  0  0  0  0  0  0  0  0  0
    7.5451  -13.1808   19.2152 C   0  0  0  0  0  0  0  0  0  0  0  0
    7.1820  -13.4059   20.6613 C   0  0  2  0  0  0  0  0  0  0  0  0
    8.4476  -13.9931   21.2032 C   0  0  0  0  0  0  0  0  0  0  0  0
    8.0475  -14.8836   22.3327 O   0  0  0  0  0  0  0  0  0  0  0  0
    7.7643  -16.0713   22.0755 O   0  0  0  0  0  0  0  0  0  0  0  0
   11.7499  -15.5994   29.6678 C   0  0  0  0  0  0  0  0  0  0  0  0
   10.7451  -15.2354   28.7812 C   0  0  0  0  0  0  0  0  0  0  0  0
   10.0936  -16.2067   28.0545 C   0  0  0  0  0  0  0  0  0  0  0  0
    9.0849  -15.8859   27.1589 C   0  0  0  0  0  0  0  0  0  0  0  0
    8.6864  -14.5809   26.9527 C   0  0  0  0  0  0  0  0  0  0  0  0
    7.6183  -14.2613   25.9887 C   0  0  2  0  0  0  0  0  0  0  0  0
    7.5757  -15.1784   24.7887 N   0  0  0  0  0  0  0  0  0  0  0  0
    8.0044  -14.3518   23.6448 C   0  0  0  0  0  0  0  0  0  0  0  0
    6.1738  -15.6178   24.5772 O   0  0  0  0  0  0  0  0  0  0  0  0
    5.6338  -16.5409   25.2050 C   0  0  0  0  0  0  0  0  0  0  0  0
    9.3417  -13.5992   27.6844 C   0  0  0  0  0  0  0  0  0  0  0  0
   10.3409  -13.9352   28.5697 O   0  0  0  0  0  0  0  0  0  0  0  0
  2  1  1  0
  3  2  2  0
  4  2  1  0
  5  4  1  0
  6  5  1  0
  7  6  1  0
  8  7  1  0
  8  9  1  1
 10  8  1  0
 11 10  2  0
 12 10  1  0
 12 16  1  0
 13 14  1  0
 13 12  1  0
 14 15  1  0
 15 16  1  0
 16 17  1  6
 17 18  2  0
 19 20  1  0
 20 30  2  0
 21 20  1  0
 21 22  2  0
 22 23  1  0
 23 29  2  0
 23 24  1  0
 25 24  1  1
 25 27  1  0
 26 17  1  0
 26 25  1  0
 27 28  2  0
 27 31  1  0
 30 29  1  0
M  END
$$$$
