RPY.pdb
     RDKit          3D

 31 32  0  0  1  0  0  0  0  0999 V2000
   11.9611  -19.5059   13.8897 N   0  0  0  0  0  0  0  0  0  0  0  0
   12.2340  -19.6698   15.2561 C   0  0  0  0  0  0  0  0  0  0  0  0
   13.2982  -20.2681   15.6309 N   0  0  0  0  0  0  0  0  0  0  0  0
   11.3375  -19.1772   16.2397 N   0  0  0  0  0  0  0  0  0  0  0  0
   10.0202  -18.6469   15.8788 C   0  0  0  0  0  0  0  0  0  0  0  0
   10.1050  -17.1672   16.0181 C   0  0  0  0  0  0  0  0  0  0  0  0
    8.8823  -16.3877   15.7212 C   0  0  0  0  0  0  0  0  0  0  0  0
    8.9681  -14.9040   15.9632 C   0  0  2  0  0  0  0  0  0  0  0  0
    9.6885  -14.2177   14.9315 N   0  0  0  0  0  0  0  0  0  0  0  0
    9.3527  -14.5731   17.3343 C   0  0  0  0  0  0  0  0  0  0  0  0
   10.5713  -14.6678   17.6306 O   0  0  0  0  0  0  0  0  0  0  0  0
   13.5115  -20.3801   16.6238 N   0  0  0  0  0  0  0  0  0  0  0  0
    8.4556  -14.1467   18.3796 C   0  0  0  0  0  0  0  0  0  0  0  0
    7.0619  -13.8773   18.1626 C   0  0  0  0  0  0  0  0  0  0  0  0
    6.6050  -13.1770   19.4421 C   0  0  0  0  0  0  0  0  0  0  0  0
    7.5030  -13.7731   20.4966 C   0  0  2  0  0  0  0  0  0  0  0  0
    8.7941  -13.9106   19.7521 C   0  0  0  0  0  0  0  0  0  0  0  0
    9.5106  -15.0685   20.3642 O   0  0  0  0  0  0  0  0  0  0  0  0
    9.2702  -16.2107   19.9231 O   0  0  0  0  0  0  0  0  0  0  0  0
   15.1650  -14.0168   17.1986 C   0  0  0  0  0  0  0  0  0  0  0  0
   14.5607  -14.3795   18.3951 C   0  0  0  0  0  0  0  0  0  0  0  0
   13.8283  -13.4487   19.0975 C   0  0  0  0  0  0  0  0  0  0  0  0
   13.2093  -13.7698   20.2959 C   0  0  0  0  0  0  0  0  0  0  0  0
   13.2972  -15.0343   20.8414 C   0  0  0  0  0  0  0  0  0  0  0  0
   12.6390  -15.3515   22.1215 C   0  0  2  0  0  0  0  0  0  0  0  0
   11.2478  -15.9224   21.9750 N   0  0  0  0  0  0  0  0  0  0  0  0
   10.4300  -14.8299   21.4149 C   0  0  0  0  0  0  0  0  0  0  0  0
   10.7359  -16.2758   23.3227 O   0  0  0  0  0  0  0  0  0  0  0  0
    9.8165  -15.6723   23.8957 C   0  0  0  0  0  0  0  0  0  0  0  0
   14.0351  -15.9750   20.1351 C   0  0  0  0  0  0  0  0  0  0  0  0
   14.6432  -15.6396   18.9465 O   0  0  0  0  0  0  0  0  0  0  0  0
  2  1  1  0
  3  2  2  0
  4  2  1  0
  5  4  1  0
  6  5  1  0
  7  6  1  0
  8  7  1  0
  8  9  1  6
 10  8  1  0
 11 10  2  0
 12 10  1  0
 12 16  1  0
 13 14  1  0
 13 12  1  0
 14 15  1  0
 15 16  1  0
 16 17  1  1
 17 18  2  0
 19 20  1  0
 20 30  2  0
 21 20  1  0
 21 22  2  0
 22 23  1  0
 23 29  2  0
 23 24  1  0
 25 24  1  6
 25 27  1  0
 26 17  1  0
 26 25  1  0
 27 28  2  0
 27 31  1  0
 30 29  1  0
M  END
$$$$
