RPY.pdb
     RDKit          3D

 31 32  0  0  1  0  0  0  0  0999 V2000
    8.9402  -14.3631   15.5108 N   0  0  0  0  0  0  0  0  0  0  0  0
    7.5885  -14.1037   15.7828 C   0  0  0  0  0  0  0  0  0  0  0  0
    6.9215  -13.3176   15.0291 N   0  0  0  0  0  0  0  0  0  0  0  0
    6.9429  -14.7061   16.8937 N   0  0  0  0  0  0  0  0  0  0  0  0
    7.6800  -15.0577   18.1101 C   0  0  0  0  0  0  0  0  0  0  0  0
    7.0742  -14.2683   19.2173 C   0  0  0  0  0  0  0  0  0  0  0  0
    7.5751  -14.5262   20.5860 C   0  0  0  0  0  0  0  0  0  0  0  0
    8.6261  -13.5763   21.0962 C   0  0  2  0  0  0  0  0  0  0  0  0
    9.7376  -13.4505   20.2000 N   0  0  0  0  0  0  0  0  0  0  0  0
    8.9646  -13.8039   22.5001 C   0  0  0  0  0  0  0  0  0  0  0  0
   10.0885  -14.3112   22.7477 O   0  0  0  0  0  0  0  0  0  0  0  0
    5.9445  -13.1012   15.2356 N   0  0  0  0  0  0  0  0  0  0  0  0
    8.1213  -13.4973   23.6288 C   0  0  0  0  0  0  0  0  0  0  0  0
    6.8730  -12.7967   23.5144 C   0  0  0  0  0  0  0  0  0  0  0  0
    6.5036  -12.4380   24.9536 C   0  0  0  0  0  0  0  0  0  0  0  0
    7.1144  -13.5614   25.7527 C   0  0  2  0  0  0  0  0  0  0  0  0
    8.3852  -13.8104   25.0023 C   0  0  0  0  0  0  0  0  0  0  0  0
    8.7136  -15.2534   25.1994 O   0  0  0  0  0  0  0  0  0  0  0  0
    8.2532  -16.0795   24.3855 O   0  0  0  0  0  0  0  0  0  0  0  0
   10.3640  -15.2241   32.5073 C   0  0  0  0  0  0  0  0  0  0  0  0
   10.6470  -15.5145   31.1793 C   0  0  0  0  0  0  0  0  0  0  0  0
   10.9704  -16.8033   30.8181 C   0  0  0  0  0  0  0  0  0  0  0  0
   11.2597  -17.1354   29.5034 C   0  0  0  0  0  0  0  0  0  0  0  0
   11.2379  -16.1926   28.4958 C   0  0  0  0  0  0  0  0  0  0  0  0
   11.5580  -16.5656   27.1062 C   0  0  1  0  0  0  0  0  0  0  0  0
   10.3469  -16.8560   26.2509 N   0  0  0  0  0  0  0  0  0  0  0  0
    9.5295  -15.6288   26.2947 C   0  0  0  0  0  0  0  0  0  0  0  0
    9.5874  -17.9723   26.8677 O   0  0  0  0  0  0  0  0  0  0  0  0
   10.0171  -19.1311   26.9689 C   0  0  0  0  0  0  0  0  0  0  0  0
   10.9119  -14.8921   28.8572 C   0  0  0  0  0  0  0  0  0  0  0  0
   10.6272  -14.5796   30.1673 O   0  0  0  0  0  0  0  0  0  0  0  0
  2  1  1  0
  3  2  2  0
  4  2  1  0
  5  4  1  0
  6  5  1  0
  7  6  1  0
  8  7  1  0
  8  9  1  6
 10  8  1  0
 11 10  2  0
 12 10  1  0
 12 16  1  0
 13 14  1  0
 13 12  1  0
 14 15  1  0
 15 16  1  0
 16 17  1  1
 17 18  2  0
 19 20  1  0
 20 30  2  0
 21 20  1  0
 21 22  2  0
 22 23  1  0
 23 29  2  0
 23 24  1  0
 25 24  1  6
 25 27  1  0
 26 17  1  0
 26 25  1  0
 27 28  2  0
 27 31  1  0
 30 29  1  0
M  END
$$$$
