RPY.pdb
     RDKit          3D

 31 32  0  0  1  0  0  0  0  0999 V2000
    9.3027  -14.3352   18.0419 N   0  0  0  0  0  0  0  0  0  0  0  0
    7.9344  -14.1066   18.2514 C   0  0  0  0  0  0  0  0  0  0  0  0
    7.4472  -12.9370   18.0910 N   0  0  0  0  0  0  0  0  0  0  0  0
    7.0734  -15.1642   18.6435 N   0  0  0  0  0  0  0  0  0  0  0  0
    7.3927  -16.0304   19.7812 C   0  0  0  0  0  0  0  0  0  0  0  0
    6.6109  -15.5166   20.9391 C   0  0  0  0  0  0  0  0  0  0  0  0
    7.2893  -15.4856   22.2543 C   0  0  0  0  0  0  0  0  0  0  0  0
    8.2113  -14.3200   22.4961 C   0  0  2  0  0  0  0  0  0  0  0  0
    9.2752  -14.2503   21.5381 N   0  0  0  0  0  0  0  0  0  0  0  0
    8.6086  -14.1908   23.8971 C   0  0  0  0  0  0  0  0  0  0  0  0
    9.7060  -14.7037   24.2353 O   0  0  0  0  0  0  0  0  0  0  0  0
    6.4437  -12.7720   18.1900 N   0  0  0  0  0  0  0  0  0  0  0  0
    7.8512  -13.5255   24.9280 C   0  0  0  0  0  0  0  0  0  0  0  0
    6.6041  -12.8567   24.6842 C   0  0  0  0  0  0  0  0  0  0  0  0
    6.3420  -12.0604   25.9624 C   0  0  0  0  0  0  0  0  0  0  0  0
    6.9989  -12.9005   27.0285 C   0  0  2  0  0  0  0  0  0  0  0  0
    8.2103  -13.4074   26.3105 C   0  0  0  0  0  0  0  0  0  0  0  0
    8.5395  -14.7285   26.9231 O   0  0  0  0  0  0  0  0  0  0  0  0
    7.7658  -15.6848   26.7138 O   0  0  0  0  0  0  0  0  0  0  0  0
   12.0830  -17.2752   22.3744 C   0  0  0  0  0  0  0  0  0  0  0  0
   11.9098  -17.1077   23.7419 C   0  0  0  0  0  0  0  0  0  0  0  0
   12.3157  -15.9363   24.3411 C   0  0  0  0  0  0  0  0  0  0  0  0
   12.1611  -15.7290   25.7033 C   0  0  0  0  0  0  0  0  0  0  0  0
   11.5947  -16.6843   26.5224 C   0  0  0  0  0  0  0  0  0  0  0  0
   11.4485  -16.4469   27.9698 C   0  0  2  0  0  0  0  0  0  0  0  0
   10.0401  -16.1097   28.4003 N   0  0  0  0  0  0  0  0  0  0  0  0
    9.7090  -14.8471   27.7133 C   0  0  0  0  0  0  0  0  0  0  0  0
   10.0337  -15.8850   29.8676 O   0  0  0  0  0  0  0  0  0  0  0  0
    9.8574  -14.7786   30.3991 C   0  0  0  0  0  0  0  0  0  0  0  0
   11.1844  -17.8666   25.9207 C   0  0  0  0  0  0  0  0  0  0  0  0
   11.3451  -18.0560   24.5667 O   0  0  0  0  0  0  0  0  0  0  0  0
  2  1  1  0
  3  2  2  0
  4  2  1  0
  5  4  1  0
  6  5  1  0
  7  6  1  0
  8  7  1  0
  8  9  1  6
 10  8  1  0
 11 10  2  0
 12 10  1  0
 12 16  1  0
 13 14  1  0
 13 12  1  0
 14 15  1  0
 15 16  1  0
 16 17  1  1
 17 18  2  0
 19 20  1  0
 20 30  2  0
 21 20  1  0
 21 22  2  0
 22 23  1  0
 23 29  2  0
 23 24  1  0
 25 24  1  6
 25 27  1  0
 26 17  1  0
 26 25  1  0
 27 28  2  0
 27 31  1  0
 30 29  1  0
M  END
$$$$
