RPY.pdb
     RDKit          3D

 31 32  0  0  1  0  0  0  0  0999 V2000
   12.0304  -17.8757   12.3740 N   0  0  0  0  0  0  0  0  0  0  0  0
   10.9456  -17.3711   13.1068 C   0  0  0  0  0  0  0  0  0  0  0  0
   10.5858  -16.1540   12.9650 N   0  0  0  0  0  0  0  0  0  0  0  0
   10.2339  -18.1990   14.0133 N   0  0  0  0  0  0  0  0  0  0  0  0
    9.4254  -17.6320   15.0958 C   0  0  0  0  0  0  0  0  0  0  0  0
   10.3782  -17.1876   16.1498 C   0  0  0  0  0  0  0  0  0  0  0  0
    9.8010  -16.6979   17.4217 C   0  0  0  0  0  0  0  0  0  0  0  0
    9.7241  -15.2027   17.5814 C   0  0  2  0  0  0  0  0  0  0  0  0
   10.7738  -14.5188   16.8851 N   0  0  0  0  0  0  0  0  0  0  0  0
    9.5066  -14.7895   18.9669 C   0  0  0  0  0  0  0  0  0  0  0  0
   10.5258  -14.5805   19.6734 O   0  0  0  0  0  0  0  0  0  0  0  0
    9.8425  -15.7589   13.5441 N   0  0  0  0  0  0  0  0  0  0  0  0
    8.2232  -14.6001   19.5962 C   0  0  0  0  0  0  0  0  0  0  0  0
    6.9798  -14.6297   18.8784 C   0  0  0  0  0  0  0  0  0  0  0  0
    5.9529  -14.0859   19.8715 C   0  0  0  0  0  0  0  0  0  0  0  0
    6.5121  -14.5090   21.2065 C   0  0  2  0  0  0  0  0  0  0  0  0
    7.9828  -14.3415   20.9853 C   0  0  0  0  0  0  0  0  0  0  0  0
    8.6567  -15.3376   21.8699 O   0  0  0  0  0  0  0  0  0  0  0  0
    8.9332  -16.4573   21.3937 O   0  0  0  0  0  0  0  0  0  0  0  0
    6.7750  -11.6825   28.0295 C   0  0  0  0  0  0  0  0  0  0  0  0
    7.6458  -12.5254   27.3518 C   0  0  0  0  0  0  0  0  0  0  0  0
    8.1846  -12.1240   26.1499 C   0  0  0  0  0  0  0  0  0  0  0  0
    9.0578  -12.9352   25.4414 C   0  0  0  0  0  0  0  0  0  0  0  0
    9.4279  -14.1811   25.9052 C   0  0  0  0  0  0  0  0  0  0  0  0
   10.3503  -15.0312   25.1311 C   0  0  1  0  0  0  0  0  0  0  0  0
    9.6686  -15.9057   24.1048 N   0  0  0  0  0  0  0  0  0  0  0  0
    8.9554  -14.9779   23.2070 C   0  0  0  0  0  0  0  0  0  0  0  0
    8.6821  -16.7707   24.7991 O   0  0  0  0  0  0  0  0  0  0  0  0
    8.9888  -17.6931   25.5690 C   0  0  0  0  0  0  0  0  0  0  0  0
    8.8861  -14.5884   27.1171 C   0  0  0  0  0  0  0  0  0  0  0  0
    8.0208  -13.7704   27.8078 O   0  0  0  0  0  0  0  0  0  0  0  0
  2  1  1  0
  3  2  2  0
  4  2  1  0
  5  4  1  0
  6  5  1  0
  7  6  1  0
  8  7  1  0
  8  9  1  1
 10  8  1  0
 11 10  2  0
 12 10  1  0
 12 16  1  0
 13 14  1  0
 13 12  1  0
 14 15  1  0
 15 16  1  0
 16 17  1  6
 17 18  2  0
 19 20  1  0
 20 30  2  0
 21 20  1  0
 21 22  2  0
 22 23  1  0
 23 29  2  0
 23 24  1  0
 25 24  1  6
 25 27  1  0
 26 17  1  0
 26 25  1  0
 27 28  2  0
 27 31  1  0
 30 29  1  0
M  END
$$$$
