RPY.pdb
     RDKit          3D

 31 32  0  0  1  0  0  0  0  0999 V2000
    7.9161  -20.9265   18.8839 N   0  0  0  0  0  0  0  0  0  0  0  0
    8.2354  -20.4839   17.5914 C   0  0  0  0  0  0  0  0  0  0  0  0
    8.6677  -21.3098   16.7186 N   0  0  0  0  0  0  0  0  0  0  0  0
    8.0851  -19.1189   17.2336 N   0  0  0  0  0  0  0  0  0  0  0  0
    8.8795  -18.0672   17.8736 C   0  0  0  0  0  0  0  0  0  0  0  0
    7.9305  -16.9795   18.2373 C   0  0  0  0  0  0  0  0  0  0  0  0
    7.8996  -16.5533   19.6544 C   0  0  0  0  0  0  0  0  0  0  0  0
    8.1269  -15.0868   19.9096 C   0  0  2  0  0  0  0  0  0  0  0  0
    8.7558  -14.4256   18.8043 N   0  0  0  0  0  0  0  0  0  0  0  0
    8.7107  -14.8225   21.2236 C   0  0  0  0  0  0  0  0  0  0  0  0
    9.9654  -14.8264   21.3089 O   0  0  0  0  0  0  0  0  0  0  0  0
    8.9356  -20.9904   15.7858 N   0  0  0  0  0  0  0  0  0  0  0  0
    7.9727  -14.5569   22.4336 C   0  0  0  0  0  0  0  0  0  0  0  0
    6.5530  -14.3431   22.4615 C   0  0  0  0  0  0  0  0  0  0  0  0
    6.2757  -13.8058   23.8654 C   0  0  0  0  0  0  0  0  0  0  0  0
    7.3496  -14.4585   24.6988 C   0  0  2  0  0  0  0  0  0  0  0  0
    8.5126  -14.4468   23.7567 C   0  0  0  0  0  0  0  0  0  0  0  0
    9.3595  -15.6212   24.1204 O   0  0  0  0  0  0  0  0  0  0  0  0
    9.0913  -16.7245   23.6031 O   0  0  0  0  0  0  0  0  0  0  0  0
   10.1804  -14.2781   31.3465 C   0  0  0  0  0  0  0  0  0  0  0  0
   10.6961  -14.6579   30.1145 C   0  0  0  0  0  0  0  0  0  0  0  0
   11.1280  -15.9519   29.9268 C   0  0  0  0  0  0  0  0  0  0  0  0
   11.6493  -16.3719   28.7127 C   0  0  0  0  0  0  0  0  0  0  0  0
   11.7608  -15.5155   27.6364 C   0  0  0  0  0  0  0  0  0  0  0  0
   12.3270  -15.9804   26.3573 C   0  0  1  0  0  0  0  0  0  0  0  0
   11.3074  -16.5648   25.4077 N   0  0  0  0  0  0  0  0  0  0  0  0
   10.4283  -15.4413   25.0323 C   0  0  0  0  0  0  0  0  0  0  0  0
   10.5129  -17.5863   26.1348 O   0  0  0  0  0  0  0  0  0  0  0  0
   10.9399  -18.7101   26.4387 C   0  0  0  0  0  0  0  0  0  0  0  0
   11.3260  -14.2099   27.8227 C   0  0  0  0  0  0  0  0  0  0  0  0
   10.8107  -13.8095   29.0348 O   0  0  0  0  0  0  0  0  0  0  0  0
  2  1  1  0
  3  2  2  0
  4  2  1  0
  5  4  1  0
  6  5  1  0
  7  6  1  0
  8  7  1  0
  8  9  1  6
 10  8  1  0
 11 10  2  0
 12 10  1  0
 12 16  1  0
 13 14  1  0
 13 12  1  0
 14 15  1  0
 15 16  1  0
 16 17  1  1
 17 18  2  0
 19 20  1  0
 20 30  2  0
 21 20  1  0
 21 22  2  0
 22 23  1  0
 23 29  2  0
 23 24  1  0
 25 24  1  6
 25 27  1  0
 26 17  1  0
 26 25  1  0
 27 28  2  0
 27 31  1  0
 30 29  1  0
M  END
$$$$
