AVQ.pdb
     RDKit          3D

 22 21  0  0  1  0  0  0  0  0999 V2000
   29.5857  -19.0532  -12.5636 C   0  0  0  0  0  0  0  0  0  0  0  0
   29.3521  -20.2561  -11.6993 C   0  0  2  0  0  0  0  0  0  0  0  0
   30.3661  -21.2706  -11.9116 N   0  0  0  0  0  0  0  0  0  0  0  0
   28.0175  -20.8197  -12.0430 C   0  0  0  0  0  0  0  0  0  0  0  0
   27.8956  -21.6177  -13.0039 O   0  0  0  0  0  0  0  0  0  0  0  0
   25.7344  -20.8759   -8.9911 C   0  0  0  0  0  0  0  0  0  0  0  0
   24.8354  -21.0522  -10.1804 C   0  0  1  0  0  0  0  0  0  0  0  0
   23.8748  -19.8608  -10.1922 C   0  0  0  0  0  0  0  0  0  0  0  0
   25.5643  -21.0374  -11.4882 C   0  0  2  0  0  0  0  0  0  0  0  0
   26.8712  -20.4624  -11.2903 N   0  0  0  0  0  0  0  0  0  0  0  0
   24.8333  -20.3498  -12.5647 C   0  0  0  0  0  0  0  0  0  0  0  0
   24.9811  -19.1107  -12.6963 O   0  0  0  0  0  0  0  0  0  0  0  0
   26.0330  -22.8188  -16.1185 N   0  0  0  0  0  0  0  0  0  0  0  0
   24.7133  -23.0243  -16.5988 C   0  0  0  0  0  0  0  0  0  0  0  0
   24.4514  -24.1510  -17.0709 O   0  0  0  0  0  0  0  0  0  0  0  0
   23.7140  -21.9129  -16.5247 C   0  0  0  0  0  0  0  0  0  0  0  0
   24.2559  -20.7055  -15.8279 C   0  0  0  0  0  0  0  0  0  0  0  0
   23.4528  -20.3501  -14.6304 C   0  0  2  0  0  0  0  0  0  0  0  0
   23.9796  -21.0609  -13.4384 N   0  0  0  0  0  0  0  0  0  0  0  0
   22.0565  -20.8131  -14.7916 C   0  0  0  0  0  0  0  0  0  0  0  0
   21.2547  -20.2940  -15.8337 O   0  0  0  0  0  0  0  0  0  0  0  0
   21.5108  -21.6580  -14.0512 O   0  0  0  0  0  0  0  0  0  0  0  0
  2  3  1  0
  2  1  1  6
  4  5  2  0
  4  2  1  0
  7  6  1  1
  7  9  1  0
  8  7  1  0
  9 11  1  0
  9 10  1  1
 10  4  1  0
 11 19  1  0
 12 11  2  0
 14 15  2  0
 14 13  1  0
 16 14  1  0
 18 17  1  6
 17 16  1  0
 18 20  1  0
 19 18  1  0
 20 22  2  0
 20 21  1  0
M  END
$$$$
