AVQ.pdb
     RDKit          3D

 22 21  0  0  1  0  0  0  0  0999 V2000
   27.4841  -19.6383  -16.3697 C   0  0  0  0  0  0  0  0  0  0  0  0
   27.9007  -20.6413  -15.3358 C   0  0  2  0  0  0  0  0  0  0  0  0
   28.5527  -21.7882  -15.9374 N   0  0  0  0  0  0  0  0  0  0  0  0
   26.6799  -21.0958  -14.6148 C   0  0  0  0  0  0  0  0  0  0  0  0
   25.7796  -21.7211  -15.2259 O   0  0  0  0  0  0  0  0  0  0  0  0
   26.0554  -19.6557  -10.6040 C   0  0  0  0  0  0  0  0  0  0  0  0
   25.6452  -21.0398  -11.0158 C   0  0  1  0  0  0  0  0  0  0  0  0
   24.3536  -21.3638  -10.2616 C   0  0  0  0  0  0  0  0  0  0  0  0
   25.3398  -21.1632  -12.4764 C   0  0  2  0  0  0  0  0  0  0  0  0
   26.5204  -20.8280  -13.2324 N   0  0  0  0  0  0  0  0  0  0  0  0
   24.1818  -20.3638  -12.9078 C   0  0  0  0  0  0  0  0  0  0  0  0
   24.3047  -19.1171  -12.9803 O   0  0  0  0  0  0  0  0  0  0  0  0
   20.8053  -20.8511  -17.7668 N   0  0  0  0  0  0  0  0  0  0  0  0
   20.1403  -19.7935  -17.0931 C   0  0  0  0  0  0  0  0  0  0  0  0
   19.3136  -19.1312  -17.7556 O   0  0  0  0  0  0  0  0  0  0  0  0
   20.4482  -19.5188  -15.6547 C   0  0  0  0  0  0  0  0  0  0  0  0
   21.5562  -20.3788  -15.1353 C   0  0  0  0  0  0  0  0  0  0  0  0
   21.8419  -20.1091  -13.7032 C   0  0  2  0  0  0  0  0  0  0  0  0
   22.9516  -20.9774  -13.2361 N   0  0  0  0  0  0  0  0  0  0  0  0
   20.6724  -20.4656  -12.8694 C   0  0  0  0  0  0  0  0  0  0  0  0
   19.6049  -19.5512  -12.7198 O   0  0  0  0  0  0  0  0  0  0  0  0
   20.5505  -21.5518  -12.2652 O   0  0  0  0  0  0  0  0  0  0  0  0
  2  3  1  0
  2  1  1  6
  4  5  2  0
  4  2  1  0
  7  6  1  6
  7  9  1  0
  8  7  1  0
  9 11  1  0
  9 10  1  6
 10  4  1  0
 11 19  1  0
 12 11  2  0
 14 15  2  0
 14 13  1  0
 16 14  1  0
 18 17  1  6
 17 16  1  0
 18 20  1  0
 19 18  1  0
 20 22  2  0
 20 21  1  0
M  END
$$$$
