AVQ.pdb
     RDKit          3D

 22 21  0  0  1  0  0  0  0  0999 V2000
   20.1240  -10.6839  -19.3392 C   0  0  0  0  0  0  0  0  0  0  0  0
   20.4794  -11.3880  -18.0639 C   0  0  2  0  0  0  0  0  0  0  0  0
   19.6742  -12.5782  -17.8694 N   0  0  0  0  0  0  0  0  0  0  0  0
   20.2411  -10.4471  -16.9348 C   0  0  0  0  0  0  0  0  0  0  0  0
   19.0859  -10.0141  -16.7044 O   0  0  0  0  0  0  0  0  0  0  0  0
   23.0936  -10.3529  -13.8476 C   0  0  0  0  0  0  0  0  0  0  0  0
   21.6555   -9.9351  -13.7423 C   0  0  1  0  0  0  0  0  0  0  0  0
   21.5572   -8.9749  -12.5548 C   0  0  0  0  0  0  0  0  0  0  0  0
   21.1586   -9.1939  -14.9446 C   0  0  2  0  0  0  0  0  0  0  0  0
   21.3141  -10.0301  -16.1085 N   0  0  0  0  0  0  0  0  0  0  0  0
   21.7988   -7.8827  -15.1370 C   0  0  0  0  0  0  0  0  0  0  0  0
   22.9597   -7.8437  -15.6117 O   0  0  0  0  0  0  0  0  0  0  0  0
   19.1062   -2.8410  -17.0690 N   0  0  0  0  0  0  0  0  0  0  0  0
   20.0057   -3.6097  -17.8530 C   0  0  0  0  0  0  0  0  0  0  0  0
   19.8957   -3.5183  -19.0942 O   0  0  0  0  0  0  0  0  0  0  0  0
   21.0224   -4.4779  -17.1808 C   0  0  0  0  0  0  0  0  0  0  0  0
   20.9121   -4.4340  -15.6898 C   0  0  0  0  0  0  0  0  0  0  0  0
   21.8320   -5.4003  -15.0378 C   0  0  2  0  0  0  0  0  0  0  0  0
   21.1288   -6.6854  -14.7973 N   0  0  0  0  0  0  0  0  0  0  0  0
   22.2357   -4.9056  -13.7027 C   0  0  0  0  0  0  0  0  0  0  0  0
   23.2127   -3.8903  -13.5901 O   0  0  0  0  0  0  0  0  0  0  0  0
   21.7629   -5.3310  -12.6278 O   0  0  0  0  0  0  0  0  0  0  0  0
  2  3  1  0
  2  1  1  6
  4  5  2  0
  4  2  1  0
  7  6  1  6
  7  9  1  0
  8  7  1  0
  9 11  1  0
  9 10  1  6
 10  4  1  0
 11 19  1  0
 12 11  2  0
 14 15  2  0
 14 13  1  0
 16 14  1  0
 18 17  1  1
 17 16  1  0
 18 20  1  0
 19 18  1  0
 20 22  2  0
 20 21  1  0
M  END
$$$$
