AVQ.pdb
     RDKit          3D

 22 21  0  0  1  0  0  0  0  0999 V2000
   16.8294  -10.8943  -17.0496 C   0  0  0  0  0  0  0  0  0  0  0  0
   18.0488  -11.7627  -16.9636 C   0  0  2  0  0  0  0  0  0  0  0  0
   17.7183  -13.1041  -16.5229 N   0  0  0  0  0  0  0  0  0  0  0  0
   18.9878  -11.1451  -15.9870 C   0  0  0  0  0  0  0  0  0  0  0  0
   18.6743  -11.0585  -14.7749 O   0  0  0  0  0  0  0  0  0  0  0  0
   23.0798  -10.7566  -17.0699 C   0  0  0  0  0  0  0  0  0  0  0  0
   22.5161  -10.8052  -15.6793 C   0  0  1  0  0  0  0  0  0  0  0  0
   23.5310  -10.1171  -14.7637 C   0  0  0  0  0  0  0  0  0  0  0  0
   21.2234  -10.0642  -15.5320 C   0  0  2  0  0  0  0  0  0  0  0  0
   20.2446  -10.6487  -16.4141 N   0  0  0  0  0  0  0  0  0  0  0  0
   21.3450   -8.6140  -15.7514 C   0  0  0  0  0  0  0  0  0  0  0  0
   21.3296   -8.1803  -16.9288 O   0  0  0  0  0  0  0  0  0  0  0  0
   17.5872   -4.7169  -15.6142 N   0  0  0  0  0  0  0  0  0  0  0  0
   18.6722   -3.8017  -15.6188 C   0  0  0  0  0  0  0  0  0  0  0  0
   18.3955   -2.5962  -15.7951 O   0  0  0  0  0  0  0  0  0  0  0  0
   20.0680   -4.3029  -15.4195 C   0  0  0  0  0  0  0  0  0  0  0  0
   20.1218   -5.7888  -15.2574 C   0  0  0  0  0  0  0  0  0  0  0  0
   21.4967   -6.2640  -14.9594 C   0  0  2  0  0  0  0  0  0  0  0  0
   21.4769   -7.7190  -14.6656 N   0  0  0  0  0  0  0  0  0  0  0  0
   22.0120   -5.6123  -13.7348 C   0  0  0  0  0  0  0  0  0  0  0  0
   22.5370   -4.3013  -13.7983 O   0  0  0  0  0  0  0  0  0  0  0  0
   22.0196   -6.1501  -12.6076 O   0  0  0  0  0  0  0  0  0  0  0  0
  2  3  1  0
  2  1  1  1
  4  5  2  0
  4  2  1  0
  7  6  1  6
  7  9  1  0
  8  7  1  0
  9 11  1  0
  9 10  1  6
 10  4  1  0
 11 19  1  0
 12 11  2  0
 14 15  2  0
 14 13  1  0
 16 14  1  0
 18 17  1  1
 17 16  1  0
 18 20  1  0
 19 18  1  0
 20 22  2  0
 20 21  1  0
M  END
$$$$
