AVQ.pdb
     RDKit          3D

 22 21  0  0  1  0  0  0  0  0999 V2000
   17.5731  -10.2896  -17.9512 C   0  0  0  0  0  0  0  0  0  0  0  0
   18.8009  -11.0504  -17.5485 C   0  0  2  0  0  0  0  0  0  0  0  0
   18.4859  -12.4188  -17.1869 N   0  0  0  0  0  0  0  0  0  0  0  0
   19.4067  -10.3622  -16.3753 C   0  0  0  0  0  0  0  0  0  0  0  0
   18.7194  -10.1346  -15.3502 O   0  0  0  0  0  0  0  0  0  0  0  0
   22.4899  -11.6770  -14.8342 C   0  0  0  0  0  0  0  0  0  0  0  0
   22.7288  -10.2123  -15.0609 C   0  0  1  0  0  0  0  0  0  0  0  0
   23.5442  -10.0890  -16.3501 C   0  0  0  0  0  0  0  0  0  0  0  0
   21.4709   -9.4258  -15.2637 C   0  0  2  0  0  0  0  0  0  0  0  0
   20.7643   -9.9566  -16.4025 N   0  0  0  0  0  0  0  0  0  0  0  0
   21.6946   -7.9774  -15.3989 C   0  0  0  0  0  0  0  0  0  0  0  0
   21.7879   -7.4879  -16.5505 O   0  0  0  0  0  0  0  0  0  0  0  0
   18.1222   -4.0643  -15.6821 N   0  0  0  0  0  0  0  0  0  0  0  0
   19.1725   -3.1564  -15.3867 C   0  0  0  0  0  0  0  0  0  0  0  0
   18.9060   -1.9381  -15.4617 O   0  0  0  0  0  0  0  0  0  0  0  0
   20.5227   -3.6796  -15.0088 C   0  0  0  0  0  0  0  0  0  0  0  0
   20.5580   -5.1736  -14.9487 C   0  0  0  0  0  0  0  0  0  0  0  0
   21.8719   -5.6780  -14.4748 C   0  0  2  0  0  0  0  0  0  0  0  0
   21.8038   -7.1455  -14.2615 N   0  0  0  0  0  0  0  0  0  0  0  0
   22.2017   -5.0936  -13.1558 C   0  0  0  0  0  0  0  0  0  0  0  0
   22.0505   -5.8663  -11.9818 O   0  0  0  0  0  0  0  0  0  0  0  0
   22.6187   -3.9277  -12.9929 O   0  0  0  0  0  0  0  0  0  0  0  0
  2  3  1  0
  2  1  1  1
  4  5  2  0
  4  2  1  0
  7  6  1  6
  7  9  1  0
  8  7  1  0
  9 11  1  0
  9 10  1  6
 10  4  1  0
 11 19  1  0
 12 11  2  0
 14 15  2  0
 14 13  1  0
 16 14  1  0
 18 17  1  1
 17 16  1  0
 18 20  1  0
 19 18  1  0
 20 22  2  0
 20 21  1  0
M  END
$$$$
