AVQ.pdb
     RDKit          3D

 22 21  0  0  1  0  0  0  0  0999 V2000
   20.6753  -15.7292  -17.6819 C   0  0  0  0  0  0  0  0  0  0  0  0
   21.8585  -16.1634  -16.8695 C   0  0  2  0  0  0  0  0  0  0  0  0
   21.5225  -17.2587  -15.9807 N   0  0  0  0  0  0  0  0  0  0  0  0
   22.3151  -15.0000  -16.0602 C   0  0  0  0  0  0  0  0  0  0  0  0
   21.6046  -14.5630  -15.1225 O   0  0  0  0  0  0  0  0  0  0  0  0
   26.1681  -11.9648  -15.1403 C   0  0  0  0  0  0  0  0  0  0  0  0
   25.5479  -13.2055  -15.7145 C   0  0  1  0  0  0  0  0  0  0  0  0
   26.0508  -14.3829  -14.8762 C   0  0  0  0  0  0  0  0  0  0  0  0
   24.0529  -13.2193  -15.6329 C   0  0  2  0  0  0  0  0  0  0  0  0
   23.5553  -14.3734  -16.3388 N   0  0  0  0  0  0  0  0  0  0  0  0
   23.4229  -11.9810  -16.1185 C   0  0  0  0  0  0  0  0  0  0  0  0
   23.5201  -11.6938  -17.3361 O   0  0  0  0  0  0  0  0  0  0  0  0
   17.8236  -10.1092  -15.3868 N   0  0  0  0  0  0  0  0  0  0  0  0
   18.3791   -8.9583  -16.0045 C   0  0  0  0  0  0  0  0  0  0  0  0
   17.5809   -8.0652  -16.3597 O   0  0  0  0  0  0  0  0  0  0  0  0
   19.8592   -8.8626  -16.2027 C   0  0  0  0  0  0  0  0  0  0  0  0
   20.5772  -10.0870  -15.7312 C   0  0  0  0  0  0  0  0  0  0  0  0
   22.0516   -9.9314  -15.8155 C   0  0  2  0  0  0  0  0  0  0  0  0
   22.7204  -11.1252  -15.2399 N   0  0  0  0  0  0  0  0  0  0  0  0
   22.4957   -8.7844  -14.9925 C   0  0  0  0  0  0  0  0  0  0  0  0
   23.0151   -9.0028  -13.6960 O   0  0  0  0  0  0  0  0  0  0  0  0
   22.4453   -7.5944  -15.3679 O   0  0  0  0  0  0  0  0  0  0  0  0
  2  3  1  0
  2  1  1  1
  4  5  2  0
  4  2  1  0
  7  6  1  1
  7  9  1  0
  8  7  1  0
  9 11  1  0
  9 10  1  6
 10  4  1  0
 11 19  1  0
 12 11  2  0
 14 15  2  0
 14 13  1  0
 16 14  1  0
 18 17  1  1
 17 16  1  0
 18 20  1  0
 19 18  1  0
 20 22  2  0
 20 21  1  0
M  END
$$$$
