KSR.pdb
     RDKit          3D

 27 26  0  0  1  0  0  0  0  0999 V2000
    9.8947  -13.0221   17.5542 N   0  0  0  0  0  0  0  0  0  0  0  0
    9.3708  -14.3324   17.8594 C   0  0  1  0  0  0  0  0  0  0  0  0
    8.8468  -15.0285   16.6601 C   0  0  0  0  0  0  0  0  0  0  0  0
    8.2032  -14.0911   15.7012 C   0  0  0  0  0  0  0  0  0  0  0  0
    7.6015  -14.6717   14.4735 C   0  0  0  0  0  0  0  0  0  0  0  0
    7.0387  -13.5167   13.6076 C   0  0  0  0  0  0  0  0  0  0  0  0
    6.5349  -14.0072   12.3665 N   0  0  0  0  0  0  0  0  0  0  0  0
   10.4828  -15.1043   18.5173 C   0  0  0  0  0  0  0  0  0  0  0  0
   10.2657  -16.2130   19.0528 O   0  0  0  0  0  0  0  0  0  0  0  0
   14.5215  -13.5357   18.5587 O   0  0  0  0  0  0  0  0  0  0  0  0
   14.1961  -14.8534   18.2177 C   0  0  0  0  0  0  0  0  0  0  0  0
   12.9511  -15.3178   18.9825 C   0  0  2  0  0  0  0  0  0  0  0  0
   11.8026  -14.5766   18.5368 N   0  0  0  0  0  0  0  0  0  0  0  0
   13.1907  -15.0123   20.4112 C   0  0  0  0  0  0  0  0  0  0  0  0
   13.2506  -13.7991   20.7552 O   0  0  0  0  0  0  0  0  0  0  0  0
   11.2702  -16.3351   29.6729 N   0  0  0  0  0  0  0  0  0  0  0  0
   11.0937  -16.8199   28.3646 C   0  0  0  0  0  0  0  0  0  0  0  0
   10.1762  -17.6736   28.1244 N   0  0  0  0  0  0  0  0  0  0  0  0
   11.9399  -16.3545   27.3186 N   0  0  0  0  0  0  0  0  0  0  0  0
   11.7357  -16.7104   25.9422 C   0  0  0  0  0  0  0  0  0  0  0  0
   12.7528  -15.9234   25.1256 C   0  0  0  0  0  0  0  0  0  0  0  0
   12.6186  -16.2645   23.6814 C   0  0  0  0  0  0  0  0  0  0  0  0
   13.6088  -15.5901   22.7778 C   0  0  2  0  0  0  0  0  0  0  0  0
   13.3561  -15.9996   21.4122 N   0  0  0  0  0  0  0  0  0  0  0  0
   15.0166  -15.8143   23.1658 C   0  0  0  0  0  0  0  0  0  0  0  0
   15.5471  -15.3497   24.2022 O   0  0  0  0  0  0  0  0  0  0  0  0
   15.8648  -16.5936   22.3556 O   0  0  0  0  0  0  0  0  0  0  0  0
  2  1  1  6
  2  3  1  0
  3  4  1  0
  4  5  1  0
  5  6  1  0
  6  7  1  0
  8  2  1  0
  8  9  2  0
 11 10  1  0
 12 11  1  6
 12 13  1  0
 13  8  1  0
 14 12  1  0
 15 14  2  0
 17 16  1  0
 18 17  2  0
 19 17  1  0
 20 19  1  0
 21 22  1  0
 21 20  1  0
 23 24  1  0
 23 22  1  1
 24 14  1  0
 25 23  1  0
 26 25  2  0
 27 25  1  0
M  END
$$$$
