KSR.pdb
     RDKit          3D

 27 26  0  0  1  0  0  0  0  0999 V2000
    8.7131  -17.3837   15.9879 N   0  0  0  0  0  0  0  0  0  0  0  0
    7.7026  -17.2560   17.0112 C   0  0  1  0  0  0  0  0  0  0  0  0
    7.2209  -18.5694   17.5015 C   0  0  0  0  0  0  0  0  0  0  0  0
    8.3399  -19.4946   17.8247 C   0  0  0  0  0  0  0  0  0  0  0  0
    7.9925  -20.8972   18.1687 C   0  0  0  0  0  0  0  0  0  0  0  0
    9.3013  -21.6672   18.4763 C   0  0  0  0  0  0  0  0  0  0  0  0
    9.0254  -23.0171   18.8456 N   0  0  0  0  0  0  0  0  0  0  0  0
    8.3027  -16.4284   18.1159 C   0  0  0  0  0  0  0  0  0  0  0  0
    9.5400  -16.2707   18.2007 O   0  0  0  0  0  0  0  0  0  0  0  0
    5.9181  -15.4626   21.3549 O   0  0  0  0  0  0  0  0  0  0  0  0
    6.7684  -14.4259   20.9544 C   0  0  0  0  0  0  0  0  0  0  0  0
    7.9491  -14.9769   20.1463 C   0  0  2  0  0  0  0  0  0  0  0  0
    7.4618  -15.8121   19.0823 N   0  0  0  0  0  0  0  0  0  0  0  0
    8.7501  -15.8064   21.0748 C   0  0  0  0  0  0  0  0  0  0  0  0
    8.5373  -17.0507   21.0907 O   0  0  0  0  0  0  0  0  0  0  0  0
   17.1523  -16.1800   23.6516 N   0  0  0  0  0  0  0  0  0  0  0  0
   16.5059  -17.4041   23.8999 C   0  0  0  0  0  0  0  0  0  0  0  0
   17.1968  -18.4381   24.1858 N   0  0  0  0  0  0  0  0  0  0  0  0
   15.0860  -17.4799   23.8306 N   0  0  0  0  0  0  0  0  0  0  0  0
   14.2901  -16.4876   23.1637 C   0  0  0  0  0  0  0  0  0  0  0  0
   12.8314  -16.8629   23.3922 C   0  0  0  0  0  0  0  0  0  0  0  0
   11.9428  -15.9233   22.6524 C   0  0  0  0  0  0  0  0  0  0  0  0
   10.4740  -16.1903   22.8041 C   0  0  2  0  0  0  0  0  0  0  0  0
    9.7391  -15.2865   21.9441 N   0  0  0  0  0  0  0  0  0  0  0  0
    9.9990  -16.1250   24.2015 C   0  0  0  0  0  0  0  0  0  0  0  0
    9.2924  -15.1995   24.6658 O   0  0  0  0  0  0  0  0  0  0  0  0
   10.3315  -17.1426   25.1165 O   0  0  0  0  0  0  0  0  0  0  0  0
  2  1  1  6
  2  3  1  0
  3  4  1  0
  4  5  1  0
  5  6  1  0
  6  7  1  0
  8  2  1  0
  8  9  2  0
 11 10  1  0
 12 11  1  1
 12 13  1  0
 13  8  1  0
 14 12  1  0
 15 14  2  0
 17 16  1  0
 18 17  2  0
 19 17  1  0
 20 19  1  0
 21 22  1  0
 21 20  1  0
 23 24  1  0
 23 22  1  1
 24 14  1  0
 25 23  1  0
 26 25  2  0
 27 25  1  0
M  END
$$$$
