KSR.pdb
     RDKit          3D

 27 26  0  0  1  0  0  0  0  0999 V2000
   11.9673  -20.4185   21.3636 N   0  0  0  0  0  0  0  0  0  0  0  0
   12.0771  -21.3103   22.4938 C   0  0  1  0  0  0  0  0  0  0  0  0
   13.2708  -22.1855   22.4134 C   0  0  0  0  0  0  0  0  0  0  0  0
   13.5950  -22.5683   21.0131 C   0  0  0  0  0  0  0  0  0  0  0  0
   14.7888  -23.4250   20.7951 C   0  0  0  0  0  0  0  0  0  0  0  0
   14.9623  -23.6490   19.2719 C   0  0  0  0  0  0  0  0  0  0  0  0
   16.1041  -24.4602   19.0016 N   0  0  0  0  0  0  0  0  0  0  0  0
   12.0921  -20.4499   23.7285 C   0  0  0  0  0  0  0  0  0  0  0  0
   12.9239  -19.5254   23.8572 O   0  0  0  0  0  0  0  0  0  0  0  0
    8.7080  -20.4600   25.9496 O   0  0  0  0  0  0  0  0  0  0  0  0
    9.5944  -19.3900   26.1163 C   0  0  0  0  0  0  0  0  0  0  0  0
   11.0444  -19.8573   25.9434 C   0  0  2  0  0  0  0  0  0  0  0  0
   11.1526  -20.6811   24.7701 N   0  0  0  0  0  0  0  0  0  0  0  0
   11.3723  -20.6760   27.1326 C   0  0  0  0  0  0  0  0  0  0  0  0
   11.1535  -21.9180   27.0750 O   0  0  0  0  0  0  0  0  0  0  0  0
   17.5007  -22.9818   32.0333 N   0  0  0  0  0  0  0  0  0  0  0  0
   16.3840  -23.2737   32.8368 C   0  0  0  0  0  0  0  0  0  0  0  0
   16.4858  -24.1341   33.7736 N   0  0  0  0  0  0  0  0  0  0  0  0
   15.1488  -22.6070   32.5988 N   0  0  0  0  0  0  0  0  0  0  0  0
   14.9588  -21.6989   31.5024 C   0  0  0  0  0  0  0  0  0  0  0  0
   13.5099  -21.2319   31.5600 C   0  0  0  0  0  0  0  0  0  0  0  0
   13.1852  -20.4310   30.3463 C   0  0  0  0  0  0  0  0  0  0  0  0
   12.1333  -21.0275   29.4578 C   0  0  2  0  0  0  0  0  0  0  0  0
   11.9160  -20.1480   28.3283 N   0  0  0  0  0  0  0  0  0  0  0  0
   10.8714  -21.3419   30.1587 C   0  0  0  0  0  0  0  0  0  0  0  0
   10.7385  -22.2655   30.9959 O   0  0  0  0  0  0  0  0  0  0  0  0
    9.7092  -20.5868   29.9092 O   0  0  0  0  0  0  0  0  0  0  0  0
  2  1  1  6
  2  3  1  0
  3  4  1  0
  4  5  1  0
  5  6  1  0
  6  7  1  0
  8  2  1  0
  8  9  2  0
 11 10  1  0
 12 11  1  1
 12 13  1  0
 13  8  1  0
 14 12  1  0
 15 14  2  0
 17 16  1  0
 18 17  2  0
 19 17  1  0
 20 19  1  0
 21 22  1  0
 21 20  1  0
 23 24  1  0
 23 22  1  1
 24 14  1  0
 25 23  1  0
 26 25  2  0
 27 25  1  0
M  END
$$$$
