KSR.pdb
     RDKit          3D

 27 26  0  0  1  0  0  0  0  0999 V2000
    5.0960  -20.7786   18.3790 N   0  0  0  0  0  0  0  0  0  0  0  0
    4.6128  -19.5899   19.0409 C   0  0  1  0  0  0  0  0  0  0  0  0
    3.4336  -19.8564   19.8987 C   0  0  0  0  0  0  0  0  0  0  0  0
    3.2640  -21.3055   20.1884 C   0  0  0  0  0  0  0  0  0  0  0  0
    2.1509  -21.6992   21.0898 C   0  0  0  0  0  0  0  0  0  0  0  0
    2.2184  -23.2305   21.3155 C   0  0  0  0  0  0  0  0  0  0  0  0
    2.4766  -23.5343   22.6851 N   0  0  0  0  0  0  0  0  0  0  0  0
    5.7666  -19.0296   19.8284 C   0  0  0  0  0  0  0  0  0  0  0  0
    6.8330  -19.6708   19.9498 O   0  0  0  0  0  0  0  0  0  0  0  0
    5.4320  -15.0716   21.1772 O   0  0  0  0  0  0  0  0  0  0  0  0
    6.6875  -15.5898   20.8401 C   0  0  0  0  0  0  0  0  0  0  0  0
    6.7429  -17.0965   21.1185 C   0  0  2  0  0  0  0  0  0  0  0  0
    5.6551  -17.7547   20.4473 N   0  0  0  0  0  0  0  0  0  0  0  0
    6.5740  -17.2658   22.5796 C   0  0  0  0  0  0  0  0  0  0  0  0
    5.4010  -17.3897   23.0295 O   0  0  0  0  0  0  0  0  0  0  0  0
   10.5464  -21.3440   28.8581 N   0  0  0  0  0  0  0  0  0  0  0  0
    9.7824  -20.4160   29.5883 C   0  0  0  0  0  0  0  0  0  0  0  0
    9.3969  -20.7041   30.7701 N   0  0  0  0  0  0  0  0  0  0  0  0
    9.4452  -19.1626   29.0033 N   0  0  0  0  0  0  0  0  0  0  0  0
    9.7005  -18.8597   27.6228 C   0  0  0  0  0  0  0  0  0  0  0  0
    8.4062  -18.3014   27.0451 C   0  0  0  0  0  0  0  0  0  0  0  0
    8.5789  -18.0167   25.5929 C   0  0  0  0  0  0  0  0  0  0  0  0
    7.3701  -17.4438   24.9128 C   0  0  2  0  0  0  0  0  0  0  0  0
    7.6494  -17.2969   23.4997 N   0  0  0  0  0  0  0  0  0  0  0  0
    6.8938  -16.1801   25.5118 C   0  0  0  0  0  0  0  0  0  0  0  0
    6.1741  -16.1100   26.5359 O   0  0  0  0  0  0  0  0  0  0  0  0
    7.2406  -14.9424   24.9366 O   0  0  0  0  0  0  0  0  0  0  0  0
  2  1  1  1
  2  3  1  0
  3  4  1  0
  4  5  1  0
  5  6  1  0
  6  7  1  0
  8  2  1  0
  8  9  2  0
 11 10  1  0
 12 11  1  1
 12 13  1  0
 13  8  1  0
 14 12  1  0
 15 14  2  0
 17 16  1  0
 18 17  2  0
 19 17  1  0
 20 19  1  0
 21 22  1  0
 21 20  1  0
 23 24  1  0
 23 22  1  1
 24 14  1  0
 25 23  1  0
 26 25  2  0
 27 25  1  0
M  END
$$$$
