KSR.pdb
     RDKit          3D

 27 26  0  0  1  0  0  0  0  0999 V2000
    9.6427  -20.0879   15.8082 N   0  0  0  0  0  0  0  0  0  0  0  0
   10.0404  -18.8584   16.4522 C   0  0  1  0  0  0  0  0  0  0  0  0
    9.6360  -17.6573   15.6832 C   0  0  0  0  0  0  0  0  0  0  0  0
   10.0838  -17.7188   14.2661 C   0  0  0  0  0  0  0  0  0  0  0  0
    9.0680  -17.4593   13.2139 C   0  0  0  0  0  0  0  0  0  0  0  0
    9.7704  -17.4904   11.8333 C   0  0  0  0  0  0  0  0  0  0  0  0
    8.8623  -17.1417   10.7900 N   0  0  0  0  0  0  0  0  0  0  0  0
    9.4374  -18.8734   17.8311 C   0  0  0  0  0  0  0  0  0  0  0  0
    8.2141  -19.0729   17.9950 O   0  0  0  0  0  0  0  0  0  0  0  0
   10.4271  -21.0466   20.6272 O   0  0  0  0  0  0  0  0  0  0  0  0
    9.3322  -20.1752   20.6293 C   0  0  0  0  0  0  0  0  0  0  0  0
    9.7820  -18.7414   20.3247 C   0  0  2  0  0  0  0  0  0  0  0  0
   10.2593  -18.6593   18.9710 N   0  0  0  0  0  0  0  0  0  0  0  0
   10.9030  -18.4426   21.2445 C   0  0  0  0  0  0  0  0  0  0  0  0
   11.4638  -19.4112   21.8285 O   0  0  0  0  0  0  0  0  0  0  0  0
    7.7102  -12.2030   19.5275 N   0  0  0  0  0  0  0  0  0  0  0  0
    7.6817  -13.5045   18.9954 C   0  0  0  0  0  0  0  0  0  0  0  0
    7.7214  -13.6724   17.7311 N   0  0  0  0  0  0  0  0  0  0  0  0
    7.6088  -14.6243   19.8715 N   0  0  0  0  0  0  0  0  0  0  0  0
    7.5002  -14.4855   21.2969 C   0  0  0  0  0  0  0  0  0  0  0  0
    8.9088  -14.6126   21.8629 C   0  0  0  0  0  0  0  0  0  0  0  0
    9.2897  -16.0497   21.9605 C   0  0  0  0  0  0  0  0  0  0  0  0
   10.6817  -16.3023   22.4609 C   0  0  2  0  0  0  0  0  0  0  0  0
   11.3817  -17.1364   21.5066 N   0  0  0  0  0  0  0  0  0  0  0  0
   10.7296  -16.8700   23.8240 C   0  0  0  0  0  0  0  0  0  0  0  0
   10.1255  -17.9095   24.1789 O   0  0  0  0  0  0  0  0  0  0  0  0
   11.4885  -16.2438   24.8316 O   0  0  0  0  0  0  0  0  0  0  0  0
  2  1  1  6
  2  3  1  0
  3  4  1  0
  4  5  1  0
  5  6  1  0
  6  7  1  0
  8  2  1  0
  8  9  2  0
 11 10  1  0
 12 11  1  1
 12 13  1  0
 13  8  1  0
 14 12  1  0
 15 14  2  0
 17 16  1  0
 18 17  2  0
 19 17  1  0
 20 19  1  0
 21 22  1  0
 21 20  1  0
 23 24  1  0
 23 22  1  6
 24 14  1  0
 25 23  1  0
 26 25  2  0
 27 25  1  0
M  END
$$$$
