KSR.pdb
     RDKit          3D

 27 26  0  0  1  0  0  0  0  0999 V2000
    6.8633  -21.2084   26.6742 N   0  0  0  0  0  0  0  0  0  0  0  0
    7.9654  -20.3466   26.3176 C   0  0  1  0  0  0  0  0  0  0  0  0
    8.9038  -20.9880   25.3661 C   0  0  0  0  0  0  0  0  0  0  0  0
   10.2624  -21.1620   25.9460 C   0  0  0  0  0  0  0  0  0  0  0  0
   11.2963  -21.8002   25.0916 C   0  0  0  0  0  0  0  0  0  0  0  0
   12.6513  -21.7548   25.8416 C   0  0  0  0  0  0  0  0  0  0  0  0
   13.7075  -22.2472   25.0189 N   0  0  0  0  0  0  0  0  0  0  0  0
    7.3681  -19.0849   25.7550 C   0  0  0  0  0  0  0  0  0  0  0  0
    6.1940  -19.0659   25.3258 O   0  0  0  0  0  0  0  0  0  0  0  0
    9.4386  -15.6929   26.4808 O   0  0  0  0  0  0  0  0  0  0  0  0
    8.1221  -15.4862   26.0536 C   0  0  0  0  0  0  0  0  0  0  0  0
    7.6511  -16.6488   25.1720 C   0  0  2  0  0  0  0  0  0  0  0  0
    8.1390  -17.8915   25.7055 N   0  0  0  0  0  0  0  0  0  0  0  0
    8.2483  -16.4372   23.8338 C   0  0  0  0  0  0  0  0  0  0  0  0
    9.2962  -17.0791   23.5450 O   0  0  0  0  0  0  0  0  0  0  0  0
    8.8535  -15.0914   16.9007 N   0  0  0  0  0  0  0  0  0  0  0  0
    8.2738  -13.8521   16.5750 C   0  0  0  0  0  0  0  0  0  0  0  0
    7.7545  -13.6797   15.4222 N   0  0  0  0  0  0  0  0  0  0  0  0
    8.2707  -12.7999   17.5339 N   0  0  0  0  0  0  0  0  0  0  0  0
    7.6622  -12.9344   18.8279 C   0  0  0  0  0  0  0  0  0  0  0  0
    8.6165  -13.7586   19.6827 C   0  0  0  0  0  0  0  0  0  0  0  0
    7.9811  -14.0754   20.9926 C   0  0  0  0  0  0  0  0  0  0  0  0
    8.4179  -15.3714   21.6102 C   0  0  2  0  0  0  0  0  0  0  0  0
    7.7133  -15.5586   22.8612 N   0  0  0  0  0  0  0  0  0  0  0  0
    9.8808  -15.4847   21.7825 C   0  0  0  0  0  0  0  0  0  0  0  0
   10.5141  -15.0332   22.7657 O   0  0  0  0  0  0  0  0  0  0  0  0
   10.6659  -16.1328   20.8096 O   0  0  0  0  0  0  0  0  0  0  0  0
  2  1  1  6
  2  3  1  0
  3  4  1  0
  4  5  1  0
  5  6  1  0
  6  7  1  0
  8  2  1  0
  8  9  2  0
 11 10  1  0
 12 11  1  1
 12 13  1  0
 13  8  1  0
 14 12  1  0
 15 14  2  0
 17 16  1  0
 18 17  2  0
 19 17  1  0
 20 19  1  0
 21 22  1  0
 21 20  1  0
 23 24  1  0
 23 22  1  1
 24 14  1  0
 25 23  1  0
 26 25  2  0
 27 25  1  0
M  END
$$$$
