KSR.pdb
     RDKit          3D

 27 26  0  0  1  0  0  0  0  0999 V2000
    8.5617  -16.2358   18.9015 N   0  0  0  0  0  0  0  0  0  0  0  0
    7.6144  -16.0008   19.9654 C   0  0  1  0  0  0  0  0  0  0  0  0
    6.7043  -17.1510   20.1805 C   0  0  0  0  0  0  0  0  0  0  0  0
    5.9975  -17.5505   18.9342 C   0  0  0  0  0  0  0  0  0  0  0  0
    5.0243  -18.6689   19.0260 C   0  0  0  0  0  0  0  0  0  0  0  0
    4.3057  -18.8094   17.6606 C   0  0  0  0  0  0  0  0  0  0  0  0
    3.3251  -19.8445   17.7034 N   0  0  0  0  0  0  0  0  0  0  0  0
    8.4147  -15.6780   21.1985 C   0  0  0  0  0  0  0  0  0  0  0  0
    9.5621  -16.1473   21.3607 O   0  0  0  0  0  0  0  0  0  0  0  0
    6.4609  -13.7052   24.3234 O   0  0  0  0  0  0  0  0  0  0  0  0
    7.8056  -13.3646   24.1389 C   0  0  0  0  0  0  0  0  0  0  0  0
    8.5547  -14.4918   23.4184 C   0  0  2  0  0  0  0  0  0  0  0  0
    7.8699  -14.8288   22.2000 N   0  0  0  0  0  0  0  0  0  0  0  0
    8.5278  -15.6652   24.3207 C   0  0  0  0  0  0  0  0  0  0  0  0
    7.5826  -16.4916   24.1891 O   0  0  0  0  0  0  0  0  0  0  0  0
    8.8462  -22.6246   24.2923 N   0  0  0  0  0  0  0  0  0  0  0  0
   10.0231  -22.6355   25.0621 C   0  0  0  0  0  0  0  0  0  0  0  0
   10.1247  -23.4349   26.0515 N   0  0  0  0  0  0  0  0  0  0  0  0
   11.0917  -21.7549   24.7315 N   0  0  0  0  0  0  0  0  0  0  0  0
   10.8732  -20.4404   24.1955 C   0  0  0  0  0  0  0  0  0  0  0  0
   10.3397  -19.5808   25.3344 C   0  0  0  0  0  0  0  0  0  0  0  0
   10.1059  -18.1896   24.8548 C   0  0  0  0  0  0  0  0  0  0  0  0
    9.5988  -17.2379   25.8984 C   0  0  2  0  0  0  0  0  0  0  0  0
    9.4987  -15.9141   25.3204 N   0  0  0  0  0  0  0  0  0  0  0  0
   10.3995  -17.2351   27.1399 C   0  0  0  0  0  0  0  0  0  0  0  0
   11.1126  -16.2764   27.5193 O   0  0  0  0  0  0  0  0  0  0  0  0
   10.3993  -18.3564   27.9918 O   0  0  0  0  0  0  0  0  0  0  0  0
  2  1  1  6
  2  3  1  0
  3  4  1  0
  4  5  1  0
  5  6  1  0
  6  7  1  0
  8  2  1  0
  8  9  2  0
 11 10  1  0
 12 11  1  1
 12 13  1  0
 13  8  1  0
 14 12  1  0
 15 14  2  0
 17 16  1  0
 18 17  2  0
 19 17  1  0
 20 19  1  0
 21 22  1  0
 21 20  1  0
 23 24  1  0
 23 22  1  6
 24 14  1  0
 25 23  1  0
 26 25  2  0
 27 25  1  0
M  END
$$$$
