LPY.pdb
     RDKit          3D

 28 29  0  0  1  0  0  0  0  0999 V2000
    7.7060  -11.9330   25.5209 C   0  0  0  0  0  0  0  0  0  0  0  0
    6.7341  -13.0201   25.9311 C   0  0  1  0  0  0  0  0  0  0  0  0
    5.6916  -12.4261   26.8517 C   0  0  0  0  0  0  0  0  0  0  0  0
    6.0774  -13.6493   24.7228 C   0  0  0  0  0  0  0  0  0  0  0  0
    5.9433  -15.1302   24.8526 C   0  0  2  0  0  0  0  0  0  0  0  0
    5.8768  -15.5319   26.2614 N   0  0  0  0  0  0  0  0  0  0  0  0
    6.9890  -15.9182   24.1537 C   0  0  0  0  0  0  0  0  0  0  0  0
    7.2369  -17.1250   24.5580 O   0  0  0  0  0  0  0  0  0  0  0  0
    7.7703  -15.5018   23.0637 N   0  0  0  0  0  0  0  0  0  0  0  0
    7.8088  -14.1736   22.4914 C   0  0  0  0  0  0  0  0  0  0  0  0
    8.3406  -14.3549   21.0711 C   0  0  0  0  0  0  0  0  0  0  0  0
    8.2491  -15.8396   20.8840 C   0  0  0  0  0  0  0  0  0  0  0  0
    8.6831  -16.3468   22.2578 C   0  0  1  0  0  0  0  0  0  0  0  0
   10.0540  -15.9473   22.6170 C   0  0  0  0  0  0  0  0  0  0  0  0
   10.6469  -14.9543   22.0898 O   0  0  0  0  0  0  0  0  0  0  0  0
   10.4385  -16.4447   30.5393 O   0  0  0  0  0  0  0  0  0  0  0  0
   10.6283  -16.0547   29.2090 C   0  0  0  0  0  0  0  0  0  0  0  0
   10.3032  -16.8981   28.1663 C   0  0  0  0  0  0  0  0  0  0  0  0
   10.4813  -16.5372   26.8501 C   0  0  0  0  0  0  0  0  0  0  0  0
   11.0026  -15.2873   26.5096 C   0  0  0  0  0  0  0  0  0  0  0  0
   11.1916  -14.8986   25.0944 C   0  0  0  0  0  0  0  0  0  0  0  0
   11.8680  -16.0131   24.3314 C   0  0  2  0  0  0  0  0  0  0  0  0
   10.7852  -16.6716   23.5902 N   0  0  0  0  0  0  0  0  0  0  0  0
   12.5071  -17.0212   25.1877 C   0  0  0  0  0  0  0  0  0  0  0  0
   11.9673  -18.2796   25.3264 O   0  0  0  0  0  0  0  0  0  0  0  0
   11.3230  -14.4527   27.5627 C   0  0  0  0  0  0  0  0  0  0  0  0
   11.1438  -14.8190   28.8795 C   0  0  0  0  0  0  0  0  0  0  0  0
   13.5585  -16.7342   25.8013 O   0  0  0  0  0  0  0  0  0  0  0  0
  2  1  1  6
  2  3  1  0
  4  5  1  0
  4  2  1  0
  5  6  1  1
  7  5  1  0
  7  8  2  0
  9  7  1  0
 10  9  1  0
 11 12  1  0
 11 10  1  0
 12 13  1  0
 13  9  1  0
 14 23  1  0
 13 14  1  1
 15 14  2  0
 16 17  1  0
 17 18  2  0
 18 19  1  0
 20 19  2  0
 20 21  1  0
 22 21  1  1
 22 23  1  0
 22 24  1  0
 24 25  1  0
 26 20  1  0
 27 17  1  0
 27 26  2  0
 28 24  2  0
M  END
$$$$
