LPY.pdb
     RDKit          3D

 28 29  0  0  1  0  0  0  0  0999 V2000
    3.2505  -18.7924   22.8420 C   0  0  0  0  0  0  0  0  0  0  0  0
    3.9648  -18.4069   21.5630 C   0  0  1  0  0  0  0  0  0  0  0  0
    3.0718  -17.4894   20.7582 C   0  0  0  0  0  0  0  0  0  0  0  0
    5.2871  -17.7347   21.8578 C   0  0  0  0  0  0  0  0  0  0  0  0
    6.0712  -17.4502   20.6200 C   0  0  2  0  0  0  0  0  0  0  0  0
    6.1337  -18.6311   19.7528 N   0  0  0  0  0  0  0  0  0  0  0  0
    7.4392  -16.9232   20.8515 C   0  0  0  0  0  0  0  0  0  0  0  0
    8.4555  -17.6772   20.5690 O   0  0  0  0  0  0  0  0  0  0  0  0
    7.7807  -15.6576   21.3552 N   0  0  0  0  0  0  0  0  0  0  0  0
    6.8738  -14.6881   21.9303 C   0  0  0  0  0  0  0  0  0  0  0  0
    7.5855  -13.3418   21.8134 C   0  0  0  0  0  0  0  0  0  0  0  0
    8.7147  -13.6587   20.8795 C   0  0  0  0  0  0  0  0  0  0  0  0
    9.1307  -15.0460   21.3645 C   0  0  1  0  0  0  0  0  0  0  0  0
    9.5888  -15.0579   22.7637 C   0  0  0  0  0  0  0  0  0  0  0  0
   10.5534  -14.3441   23.1830 O   0  0  0  0  0  0  0  0  0  0  0  0
    5.2313  -12.2629   27.0292 O   0  0  0  0  0  0  0  0  0  0  0  0
    6.3975  -12.9598   26.6943 C   0  0  0  0  0  0  0  0  0  0  0  0
    7.5940  -12.2981   26.5078 C   0  0  0  0  0  0  0  0  0  0  0  0
    8.7538  -12.9616   26.1774 C   0  0  0  0  0  0  0  0  0  0  0  0
    8.7698  -14.3487   26.0169 C   0  0  0  0  0  0  0  0  0  0  0  0
   10.0174  -15.0621   25.6642 C   0  0  0  0  0  0  0  0  0  0  0  0
    9.6990  -16.3308   24.9088 C   0  0  2  0  0  0  0  0  0  0  0  0
    8.9562  -15.8857   23.7233 N   0  0  0  0  0  0  0  0  0  0  0  0
    8.8459  -17.2694   25.6501 C   0  0  0  0  0  0  0  0  0  0  0  0
    9.3096  -17.9134   26.7746 O   0  0  0  0  0  0  0  0  0  0  0  0
    7.5659  -14.9987   26.2072 C   0  0  0  0  0  0  0  0  0  0  0  0
    6.4066  -14.3297   26.5370 C   0  0  0  0  0  0  0  0  0  0  0  0
    7.6794  -17.4883   25.2555 O   0  0  0  0  0  0  0  0  0  0  0  0
  2  1  1  1
  2  3  1  0
  4  5  1  0
  4  2  1  0
  5  6  1  1
  7  5  1  0
  7  8  2  0
  9  7  1  0
 10  9  1  0
 11 12  1  0
 11 10  1  0
 12 13  1  0
 13  9  1  0
 14 23  1  0
 13 14  1  1
 15 14  2  0
 16 17  1  0
 17 18  2  0
 18 19  1  0
 20 19  2  0
 20 21  1  0
 22 21  1  1
 22 23  1  0
 22 24  1  0
 24 25  1  0
 26 20  1  0
 27 17  1  0
 27 26  2  0
 28 24  2  0
M  END
$$$$
