LPY.pdb
     RDKit          3D

 28 29  0  0  1  0  0  0  0  0999 V2000
    8.1567  -12.6041   26.1271 C   0  0  0  0  0  0  0  0  0  0  0  0
    7.7838  -14.0714   26.1812 C   0  0  1  0  0  0  0  0  0  0  0  0
    7.8460  -14.5421   27.6171 C   0  0  0  0  0  0  0  0  0  0  0  0
    6.4049  -14.3057   25.6060 C   0  0  0  0  0  0  0  0  0  0  0  0
    6.1663  -15.7381   25.2609 C   0  0  2  0  0  0  0  0  0  0  0  0
    6.3746  -16.6027   26.4269 N   0  0  0  0  0  0  0  0  0  0  0  0
    6.9551  -16.2458   24.1108 C   0  0  0  0  0  0  0  0  0  0  0  0
    7.0191  -17.5257   23.9133 O   0  0  0  0  0  0  0  0  0  0  0  0
    7.6650  -15.4799   23.1721 N   0  0  0  0  0  0  0  0  0  0  0  0
    7.6271  -14.0404   23.0322 C   0  0  0  0  0  0  0  0  0  0  0  0
    8.0925  -13.7551   21.6057 C   0  0  0  0  0  0  0  0  0  0  0  0
    8.0447  -15.1154   20.9772 C   0  0  0  0  0  0  0  0  0  0  0  0
    8.5655  -15.9939   22.1130 C   0  0  1  0  0  0  0  0  0  0  0  0
    9.9376  -15.6553   22.5258 C   0  0  0  0  0  0  0  0  0  0  0  0
   10.5657  -14.6442   22.0797 O   0  0  0  0  0  0  0  0  0  0  0  0
    9.1257  -15.7562   30.0024 O   0  0  0  0  0  0  0  0  0  0  0  0
    9.6473  -15.4962   28.7303 C   0  0  0  0  0  0  0  0  0  0  0  0
   10.3787  -14.3530   28.4804 C   0  0  0  0  0  0  0  0  0  0  0  0
   10.9012  -14.0753   27.2377 C   0  0  0  0  0  0  0  0  0  0  0  0
   10.7132  -14.9494   26.1651 C   0  0  0  0  0  0  0  0  0  0  0  0
   11.2772  -14.6518   24.8297 C   0  0  0  0  0  0  0  0  0  0  0  0
   11.7867  -15.9181   24.1828 C   0  0  2  0  0  0  0  0  0  0  0  0
   10.6300  -16.4627   23.4612 N   0  0  0  0  0  0  0  0  0  0  0  0
   12.2424  -16.9360   25.1391 C   0  0  0  0  0  0  0  0  0  0  0  0
   13.4269  -16.7865   25.8238 O   0  0  0  0  0  0  0  0  0  0  0  0
    9.9802  -16.0900   26.4290 C   0  0  0  0  0  0  0  0  0  0  0  0
    9.4579  -16.3634   27.6751 C   0  0  0  0  0  0  0  0  0  0  0  0
   11.5449  -17.9552   25.3361 O   0  0  0  0  0  0  0  0  0  0  0  0
  2  1  1  1
  2  3  1  0
  4  5  1  0
  4  2  1  0
  5  6  1  1
  7  5  1  0
  7  8  2  0
  9  7  1  0
 10  9  1  0
 11 12  1  0
 11 10  1  0
 12 13  1  0
 13  9  1  0
 14 23  1  0
 13 14  1  1
 15 14  2  0
 16 17  1  0
 17 18  2  0
 18 19  1  0
 20 19  2  0
 20 21  1  0
 22 21  1  1
 22 23  1  0
 22 24  1  0
 24 25  1  0
 26 20  1  0
 27 17  1  0
 27 26  2  0
 28 24  2  0
M  END
$$$$
