LPY.pdb
     RDKit          3D

 28 29  0  0  1  0  0  0  0  0999 V2000
    7.6500  -11.9434   25.7469 C   0  0  0  0  0  0  0  0  0  0  0  0
    6.7614  -13.1374   26.0295 C   0  0  1  0  0  0  0  0  0  0  0  0
    5.7459  -12.7562   27.0834 C   0  0  0  0  0  0  0  0  0  0  0  0
    6.0677  -13.6111   24.7719 C   0  0  0  0  0  0  0  0  0  0  0  0
    5.9781  -15.0991   24.6955 C   0  0  2  0  0  0  0  0  0  0  0  0
    5.9330  -15.6936   26.0353 N   0  0  0  0  0  0  0  0  0  0  0  0
    7.0418  -15.7509   23.8915 C   0  0  0  0  0  0  0  0  0  0  0  0
    7.3870  -16.9669   24.1803 O   0  0  0  0  0  0  0  0  0  0  0  0
    7.7447  -15.1913   22.8122 N   0  0  0  0  0  0  0  0  0  0  0  0
    7.6763  -13.8184   22.3612 C   0  0  0  0  0  0  0  0  0  0  0  0
    8.1507  -13.8401   20.9095 C   0  0  0  0  0  0  0  0  0  0  0  0
    8.1400  -15.3054   20.5930 C   0  0  0  0  0  0  0  0  0  0  0  0
    8.6678  -15.9022   21.8962 C   0  0  1  0  0  0  0  0  0  0  0  0
   10.0275  -15.4488   22.2329 C   0  0  0  0  0  0  0  0  0  0  0  0
   10.4688  -14.2963   21.9284 O   0  0  0  0  0  0  0  0  0  0  0  0
   11.0656  -14.8797   30.5976 O   0  0  0  0  0  0  0  0  0  0  0  0
   10.8116  -15.1351   29.2456 C   0  0  0  0  0  0  0  0  0  0  0  0
   10.7647  -16.4263   28.7612 C   0  0  0  0  0  0  0  0  0  0  0  0
   10.5173  -16.7025   27.4357 C   0  0  0  0  0  0  0  0  0  0  0  0
   10.2986  -15.6762   26.5143 C   0  0  0  0  0  0  0  0  0  0  0  0
   10.0301  -15.9734   25.0898 C   0  0  0  0  0  0  0  0  0  0  0  0
   11.3197  -15.9752   24.3034 C   0  0  2  0  0  0  0  0  0  0  0  0
   10.9207  -16.3002   22.9284 N   0  0  0  0  0  0  0  0  0  0  0  0
   12.2870  -16.9892   24.7444 C   0  0  0  0  0  0  0  0  0  0  0  0
   13.4086  -16.6362   25.4596 O   0  0  0  0  0  0  0  0  0  0  0  0
   10.3474  -14.3887   27.0124 C   0  0  0  0  0  0  0  0  0  0  0  0
   10.5966  -14.1170   28.3407 C   0  0  0  0  0  0  0  0  0  0  0  0
   12.0904  -18.1928   24.4672 O   0  0  0  0  0  0  0  0  0  0  0  0
  2  1  1  6
  2  3  1  0
  4  5  1  0
  4  2  1  0
  5  6  1  1
  7  5  1  0
  7  8  2  0
  9  7  1  0
 10  9  1  0
 11 12  1  0
 11 10  1  0
 12 13  1  0
 13  9  1  0
 14 23  1  0
 13 14  1  1
 15 14  2  0
 16 17  1  0
 17 18  2  0
 18 19  1  0
 20 19  2  0
 20 21  1  0
 22 21  1  1
 22 23  1  0
 22 24  1  0
 24 25  1  0
 26 20  1  0
 27 17  1  0
 27 26  2  0
 28 24  2  0
M  END
$$$$
