LPY.pdb
     RDKit          3D

 28 29  0  0  1  0  0  0  0  0999 V2000
    6.3354  -12.8787   26.0442 C   0  0  0  0  0  0  0  0  0  0  0  0
    7.3563  -13.9979   26.0457 C   0  0  1  0  0  0  0  0  0  0  0  0
    8.4654  -13.6505   27.0133 C   0  0  0  0  0  0  0  0  0  0  0  0
    6.7194  -15.3171   26.4211 C   0  0  0  0  0  0  0  0  0  0  0  0
    6.0895  -15.9997   25.2527 C   0  0  2  0  0  0  0  0  0  0  0  0
    5.3686  -17.2057   25.6728 N   0  0  0  0  0  0  0  0  0  0  0  0
    7.0188  -16.3299   24.1436 C   0  0  0  0  0  0  0  0  0  0  0  0
    7.1723  -17.5723   23.8057 O   0  0  0  0  0  0  0  0  0  0  0  0
    7.7787  -15.4261   23.3836 N   0  0  0  0  0  0  0  0  0  0  0  0
    7.8658  -13.9958   23.5835 C   0  0  0  0  0  0  0  0  0  0  0  0
    8.3321  -13.4231   22.2465 C   0  0  0  0  0  0  0  0  0  0  0  0
    8.1545  -14.5893   21.3213 C   0  0  0  0  0  0  0  0  0  0  0  0
    8.6135  -15.7495   22.2024 C   0  0  1  0  0  0  0  0  0  0  0  0
   10.0165  -15.6310   22.6329 C   0  0  0  0  0  0  0  0  0  0  0  0
   10.7933  -14.7143   22.2185 O   0  0  0  0  0  0  0  0  0  0  0  0
    9.9754  -15.1998   29.9758 O   0  0  0  0  0  0  0  0  0  0  0  0
   10.4763  -15.1683   28.6697 C   0  0  0  0  0  0  0  0  0  0  0  0
   10.1921  -14.1163   27.8230 C   0  0  0  0  0  0  0  0  0  0  0  0
   10.6727  -14.0633   26.5344 C   0  0  0  0  0  0  0  0  0  0  0  0
   11.4791  -15.0824   26.0234 C   0  0  0  0  0  0  0  0  0  0  0  0
   11.9977  -15.0240   24.6387 C   0  0  0  0  0  0  0  0  0  0  0  0
   11.9566  -16.3950   24.0062 C   0  0  2  0  0  0  0  0  0  0  0  0
   10.5705  -16.5570   23.5505 N   0  0  0  0  0  0  0  0  0  0  0  0
   12.2571  -17.4915   24.9367 C   0  0  0  0  0  0  0  0  0  0  0  0
   13.5335  -17.6891   25.4120 O   0  0  0  0  0  0  0  0  0  0  0  0
   11.7565  -16.1288   26.8814 C   0  0  0  0  0  0  0  0  0  0  0  0
   11.2720  -16.1780   28.1711 C   0  0  0  0  0  0  0  0  0  0  0  0
   11.3404  -18.2587   25.3045 O   0  0  0  0  0  0  0  0  0  0  0  0
  2  1  1  1
  2  3  1  0
  4  5  1  0
  4  2  1  0
  5  6  1  1
  7  5  1  0
  7  8  2  0
  9  7  1  0
 10  9  1  0
 11 12  1  0
 11 10  1  0
 12 13  1  0
 13  9  1  0
 14 23  1  0
 13 14  1  1
 15 14  2  0
 16 17  1  0
 17 18  2  0
 18 19  1  0
 20 19  2  0
 20 21  1  0
 22 21  1  1
 22 23  1  0
 22 24  1  0
 24 25  1  0
 26 20  1  0
 27 17  1  0
 27 26  2  0
 28 24  2  0
M  END
$$$$
