LPY.pdb
     RDKit          3D

 28 29  0  0  1  0  0  0  0  0999 V2000
    7.0899  -11.9605   27.3747 C   0  0  0  0  0  0  0  0  0  0  0  0
    6.2762  -13.0768   26.7529 C   0  0  1  0  0  0  0  0  0  0  0  0
    4.8766  -12.5725   26.4808 C   0  0  0  0  0  0  0  0  0  0  0  0
    6.9177  -13.5741   25.4768 C   0  0  0  0  0  0  0  0  0  0  0  0
    6.3574  -14.8831   25.0290 C   0  0  2  0  0  0  0  0  0  0  0  0
    6.0386  -15.7398   26.1757 N   0  0  0  0  0  0  0  0  0  0  0  0
    7.2020  -15.6292   24.0631 C   0  0  0  0  0  0  0  0  0  0  0  0
    7.3709  -16.9033   24.2346 O   0  0  0  0  0  0  0  0  0  0  0  0
    7.8631  -15.1044   22.9408 N   0  0  0  0  0  0  0  0  0  0  0  0
    7.8986  -13.7160   22.5356 C   0  0  0  0  0  0  0  0  0  0  0  0
    8.2409  -13.7325   21.0471 C   0  0  0  0  0  0  0  0  0  0  0  0
    8.0509  -15.1767   20.6928 C   0  0  0  0  0  0  0  0  0  0  0  0
    8.6248  -15.8708   21.9264 C   0  0  1  0  0  0  0  0  0  0  0  0
   10.0482  -15.5694   22.1520 C   0  0  0  0  0  0  0  0  0  0  0  0
   10.5911  -14.4785   21.7902 O   0  0  0  0  0  0  0  0  0  0  0  0
   11.3205  -14.7683   30.3912 O   0  0  0  0  0  0  0  0  0  0  0  0
   11.0184  -15.0732   29.0594 C   0  0  0  0  0  0  0  0  0  0  0  0
   10.7195  -16.3642   28.6744 C   0  0  0  0  0  0  0  0  0  0  0  0
   10.4199  -16.6887   27.3708 C   0  0  0  0  0  0  0  0  0  0  0  0
   10.4034  -15.7139   26.3711 C   0  0  0  0  0  0  0  0  0  0  0  0
   10.0787  -16.0624   24.9701 C   0  0  0  0  0  0  0  0  0  0  0  0
   11.3463  -16.2552   24.1715 C   0  0  2  0  0  0  0  0  0  0  0  0
   10.8907  -16.5065   22.7987 N   0  0  0  0  0  0  0  0  0  0  0  0
   12.1518  -17.4073   24.5980 C   0  0  0  0  0  0  0  0  0  0  0  0
   11.7905  -18.6908   24.2569 O   0  0  0  0  0  0  0  0  0  0  0  0
   10.7035  -14.4259   26.7700 C   0  0  0  0  0  0  0  0  0  0  0  0
   11.0040  -14.1059   28.0768 C   0  0  0  0  0  0  0  0  0  0  0  0
   13.1825  -17.2218   25.2817 O   0  0  0  0  0  0  0  0  0  0  0  0
  2  1  1  6
  2  3  1  0
  4  5  1  0
  4  2  1  0
  5  6  1  1
  7  5  1  0
  7  8  2  0
  9  7  1  0
 10  9  1  0
 11 12  1  0
 11 10  1  0
 12 13  1  0
 13  9  1  0
 14 23  1  0
 13 14  1  1
 15 14  2  0
 16 17  1  0
 17 18  2  0
 18 19  1  0
 20 19  2  0
 20 21  1  0
 22 21  1  1
 22 23  1  0
 22 24  1  0
 24 25  1  0
 26 20  1  0
 27 17  1  0
 27 26  2  0
 28 24  2  0
M  END
$$$$
