LPY.pdb
     RDKit          3D

 28 29  0  0  1  0  0  0  0  0999 V2000
    6.2390  -12.6348   25.8348 C   0  0  0  0  0  0  0  0  0  0  0  0
    7.3719  -13.6296   25.9824 C   0  0  1  0  0  0  0  0  0  0  0  0
    8.3809  -13.0834   26.9675 C   0  0  0  0  0  0  0  0  0  0  0  0
    6.8591  -14.9765   26.4409 C   0  0  0  0  0  0  0  0  0  0  0  0
    6.2998  -15.7864   25.3187 C   0  0  2  0  0  0  0  0  0  0  0  0
    5.5486  -16.9397   25.8247 N   0  0  0  0  0  0  0  0  0  0  0  0
    7.2947  -16.2359   24.3132 C   0  0  0  0  0  0  0  0  0  0  0  0
    7.6206  -17.4903   24.2741 O   0  0  0  0  0  0  0  0  0  0  0  0
    7.9486  -15.4387   23.3599 N   0  0  0  0  0  0  0  0  0  0  0  0
    7.8911  -13.9965   23.2605 C   0  0  0  0  0  0  0  0  0  0  0  0
    8.2798  -13.6695   21.8200 C   0  0  0  0  0  0  0  0  0  0  0  0
    8.2114  -15.0134   21.1589 C   0  0  0  0  0  0  0  0  0  0  0  0
    8.7976  -15.9159   22.2428 C   0  0  1  0  0  0  0  0  0  0  0  0
   10.1862  -15.5745   22.5934 C   0  0  0  0  0  0  0  0  0  0  0  0
   10.6657  -14.4043   22.4645 O   0  0  0  0  0  0  0  0  0  0  0  0
   10.6518  -15.7969   30.3673 O   0  0  0  0  0  0  0  0  0  0  0  0
   10.8448  -15.5816   28.9983 C   0  0  0  0  0  0  0  0  0  0  0  0
   11.8586  -16.2193   28.3130 C   0  0  0  0  0  0  0  0  0  0  0  0
   12.0685  -16.0232   26.9669 C   0  0  0  0  0  0  0  0  0  0  0  0
   11.2539  -15.1623   26.2284 C   0  0  0  0  0  0  0  0  0  0  0  0
   11.4782  -14.9535   24.7807 C   0  0  0  0  0  0  0  0  0  0  0  0
   12.0319  -16.2096   24.1504 C   0  0  2  0  0  0  0  0  0  0  0  0
   11.0656  -16.5613   23.1025 N   0  0  0  0  0  0  0  0  0  0  0  0
   12.1308  -17.3478   25.0738 C   0  0  0  0  0  0  0  0  0  0  0  0
   13.2860  -17.5886   25.7822 O   0  0  0  0  0  0  0  0  0  0  0  0
   10.2426  -14.5311   26.9263 C   0  0  0  0  0  0  0  0  0  0  0  0
   10.0370  -14.7299   28.2748 C   0  0  0  0  0  0  0  0  0  0  0  0
   11.1512  -18.1115   25.2207 O   0  0  0  0  0  0  0  0  0  0  0  0
  2  1  1  1
  2  3  1  0
  4  5  1  0
  4  2  1  0
  5  6  1  1
  7  5  1  0
  7  8  2  0
  9  7  1  0
 10  9  1  0
 11 12  1  0
 11 10  1  0
 12 13  1  0
 13  9  1  0
 14 23  1  0
 13 14  1  1
 15 14  2  0
 16 17  1  0
 17 18  2  0
 18 19  1  0
 20 19  2  0
 20 21  1  0
 22 21  1  1
 22 23  1  0
 22 24  1  0
 24 25  1  0
 26 20  1  0
 27 17  1  0
 27 26  2  0
 28 24  2  0
M  END
$$$$
