LPY.pdb
     RDKit          3D

 28 29  0  0  1  0  0  0  0  0999 V2000
    7.9141  -12.7578   24.7213 C   0  0  0  0  0  0  0  0  0  0  0  0
    7.5753  -13.8376   25.7285 C   0  0  1  0  0  0  0  0  0  0  0  0
    7.4432  -13.2091   27.0976 C   0  0  0  0  0  0  0  0  0  0  0  0
    6.2996  -14.5561   25.3498 C   0  0  0  0  0  0  0  0  0  0  0  0
    6.4221  -15.2942   24.0582 C   0  0  2  0  0  0  0  0  0  0  0  0
    5.1602  -15.9530   23.7061 N   0  0  0  0  0  0  0  0  0  0  0  0
    7.5349  -16.2745   23.9993 C   0  0  0  0  0  0  0  0  0  0  0  0
    7.3608  -17.4495   24.5191 O   0  0  0  0  0  0  0  0  0  0  0  0
    8.8008  -16.0787   23.4240 N   0  0  0  0  0  0  0  0  0  0  0  0
    9.3187  -14.8390   22.8875 C   0  0  0  0  0  0  0  0  0  0  0  0
   10.4369  -15.2431   21.9287 C   0  0  0  0  0  0  0  0  0  0  0  0
   10.2173  -16.7194   21.7877 C   0  0  0  0  0  0  0  0  0  0  0  0
    9.8454  -17.1096   23.2168 C   0  0  1  0  0  0  0  0  0  0  0  0
   10.9130  -16.8293   24.1911 C   0  0  0  0  0  0  0  0  0  0  0  0
   11.5943  -15.7562   24.1828 O   0  0  0  0  0  0  0  0  0  0  0  0
    8.3931  -12.9877   28.3413 O   0  0  0  0  0  0  0  0  0  0  0  0
    9.1982  -14.1127   28.1317 C   0  0  0  0  0  0  0  0  0  0  0  0
   10.5627  -14.0591   28.3306 C   0  0  0  0  0  0  0  0  0  0  0  0
   11.3752  -15.1519   28.1304 C   0  0  0  0  0  0  0  0  0  0  0  0
   10.8473  -16.3760   27.7149 C   0  0  0  0  0  0  0  0  0  0  0  0
   11.7206  -17.5515   27.5022 C   0  0  0  0  0  0  0  0  0  0  0  0
   12.3412  -17.5003   26.1261 C   0  0  2  0  0  0  0  0  0  0  0  0
   11.2311  -17.7677   25.2033 N   0  0  0  0  0  0  0  0  0  0  0  0
   13.3737  -18.5201   25.8979 C   0  0  0  0  0  0  0  0  0  0  0  0
   13.1703  -19.5487   25.0064 O   0  0  0  0  0  0  0  0  0  0  0  0
    9.4803  -16.4162   27.5203 C   0  0  0  0  0  0  0  0  0  0  0  0
    8.6706  -15.3187   27.7211 C   0  0  0  0  0  0  0  0  0  0  0  0
   14.4555  -18.4550   26.5221 O   0  0  0  0  0  0  0  0  0  0  0  0
  2  1  1  6
  2  3  1  0
  4  5  1  0
  4  2  1  0
  5  6  1  1
  7  5  1  0
  7  8  2  0
  9  7  1  0
 10  9  1  0
 11 12  1  0
 11 10  1  0
 12 13  1  0
 13  9  1  0
 14 23  1  0
 13 14  1  1
 15 14  2  0
 16 17  1  0
 17 18  2  0
 18 19  1  0
 20 19  2  0
 20 21  1  0
 22 21  1  1
 22 23  1  0
 22 24  1  0
 24 25  1  0
 26 20  1  0
 27 17  1  0
 27 26  2  0
 28 24  2  0
M  END
$$$$
