LPY.pdb
     RDKit          3D

 28 29  0  0  1  0  0  0  0  0999 V2000
    7.0565  -11.5528   25.3118 C   0  0  0  0  0  0  0  0  0  0  0  0
    6.9192  -12.9862   25.7824 C   0  0  1  0  0  0  0  0  0  0  0  0
    6.4167  -12.9897   27.2088 C   0  0  0  0  0  0  0  0  0  0  0  0
    5.9818  -13.7667   24.8884 C   0  0  0  0  0  0  0  0  0  0  0  0
    6.0463  -15.2367   25.1386 C   0  0  2  0  0  0  0  0  0  0  0  0
    6.3019  -15.5194   26.5547 N   0  0  0  0  0  0  0  0  0  0  0  0
    7.0193  -15.9744   24.2948 C   0  0  0  0  0  0  0  0  0  0  0  0
    7.2066  -17.2381   24.5163 O   0  0  0  0  0  0  0  0  0  0  0  0
    7.7889  -15.4516   23.2430 N   0  0  0  0  0  0  0  0  0  0  0  0
    8.0450  -14.0525   22.9783 C   0  0  0  0  0  0  0  0  0  0  0  0
    8.4311  -13.9789   21.5024 C   0  0  0  0  0  0  0  0  0  0  0  0
    8.0398  -15.3372   21.0028 C   0  0  0  0  0  0  0  0  0  0  0  0
    8.4615  -16.2247   22.1722 C   0  0  1  0  0  0  0  0  0  0  0  0
    9.9055  -16.1658   22.4537 C   0  0  0  0  0  0  0  0  0  0  0  0
   10.7926  -16.4250   21.5810 O   0  0  0  0  0  0  0  0  0  0  0  0
    9.4486  -16.7565   29.8460 O   0  0  0  0  0  0  0  0  0  0  0  0
   10.0693  -16.2711   28.6898 C   0  0  0  0  0  0  0  0  0  0  0  0
    9.6792  -15.0764   28.1200 C   0  0  0  0  0  0  0  0  0  0  0  0
   10.2740  -14.5788   26.9829 C   0  0  0  0  0  0  0  0  0  0  0  0
   11.3110  -15.2685   26.3512 C   0  0  0  0  0  0  0  0  0  0  0  0
   11.9521  -14.7321   25.1301 C   0  0  0  0  0  0  0  0  0  0  0  0
   11.8194  -15.7177   23.9933 C   0  0  2  0  0  0  0  0  0  0  0  0
   10.3759  -15.8078   23.7409 N   0  0  0  0  0  0  0  0  0  0  0  0
   12.3071  -17.0664   24.3118 C   0  0  0  0  0  0  0  0  0  0  0  0
   13.6438  -17.3022   24.5391 O   0  0  0  0  0  0  0  0  0  0  0  0
   11.6922  -16.4623   26.9322 C   0  0  0  0  0  0  0  0  0  0  0  0
   11.0927  -16.9572   28.0706 C   0  0  0  0  0  0  0  0  0  0  0  0
   11.4970  -18.0169   24.3783 O   0  0  0  0  0  0  0  0  0  0  0  0
  2  1  1  6
  2  3  1  0
  4  5  1  0
  4  2  1  0
  5  6  1  1
  7  5  1  0
  7  8  2  0
  9  7  1  0
 10  9  1  0
 11 12  1  0
 11 10  1  0
 12 13  1  0
 13  9  1  0
 14 23  1  0
 13 14  1  1
 15 14  2  0
 16 17  1  0
 17 18  2  0
 18 19  1  0
 20 19  2  0
 20 21  1  0
 22 21  1  1
 22 23  1  0
 22 24  1  0
 24 25  1  0
 26 20  1  0
 27 17  1  0
 27 26  2  0
 28 24  2  0
M  END
$$$$
