RFH.pdb
     RDKit          3D

 33 34  0  0  1  0  0  0  0  0999 V2000
    9.4605  -15.6179   15.5789 N   0  0  0  0  0  0  0  0  0  0  0  0
    8.6703  -14.4846   15.3039 C   0  0  0  0  0  0  0  0  0  0  0  0
    8.8802  -13.8364   14.2043 N   0  0  0  0  0  0  0  0  0  0  0  0
    7.6829  -14.1030   16.2413 N   0  0  0  0  0  0  0  0  0  0  0  0
    7.4994  -14.8634   17.4339 C   0  0  0  0  0  0  0  0  0  0  0  0
    8.0281  -14.1444   18.6796 C   0  0  0  0  0  0  0  0  0  0  0  0
    9.3611  -14.7924   18.9974 C   0  0  0  0  0  0  0  0  0  0  0  0
    9.2077  -15.9219   19.9933 C   0  0  2  0  0  0  0  0  0  0  0  0
    7.9408  -16.5691   19.8498 N   0  0  0  0  0  0  0  0  0  0  0  0
    9.2817  -15.2995   21.3503 C   0  0  0  0  0  0  0  0  0  0  0  0
   10.3046  -14.6497   21.6802 O   0  0  0  0  0  0  0  0  0  0  0  0
    8.3369  -13.0021   13.9699 N   0  0  0  0  0  0  0  0  0  0  0  0
    8.2167  -15.4212   22.2920 C   0  0  1  0  0  0  0  0  0  0  0  0
    8.2258  -14.9026   23.6220 C   0  0  0  0  0  0  0  0  0  0  0  0
    6.9831  -14.1271   24.0218 C   0  0  0  0  0  0  0  0  0  0  0  0
    7.1540  -13.3722   25.2858 C   0  0  0  0  0  0  0  0  0  0  0  0
    6.6024  -13.9099   26.4630 C   0  0  0  0  0  0  0  0  0  0  0  0
    6.6963  -13.2903   27.6815 C   0  0  0  0  0  0  0  0  0  0  0  0
    7.3554  -12.0894   27.7746 C   0  0  0  0  0  0  0  0  0  0  0  0
    7.9038  -11.5323   26.6624 C   0  0  0  0  0  0  0  0  0  0  0  0
    7.7991  -12.1733   25.4377 C   0  0  0  0  0  0  0  0  0  0  0  0
    8.7234  -15.8236   24.6477 O   0  0  0  0  0  0  0  0  0  0  0  0
    8.1256  -16.9395   24.8584 N   0  0  0  0  0  0  0  0  0  0  0  0
    9.8482  -15.5958   25.4660 C   0  0  1  0  0  0  0  0  0  0  0  0
   10.3620  -16.6442   26.3801 C   0  0  0  0  0  0  0  0  0  0  0  0
   11.8440  -16.6676   26.1300 C   0  0  0  0  0  0  0  0  0  0  0  0
   12.2590  -17.2420   24.8537 C   0  0  0  0  0  0  0  0  0  0  0  0
   11.3150  -17.7181   23.9392 N   0  0  0  0  0  0  0  0  0  0  0  0
   11.9673  -18.1851   22.8714 C   0  0  0  0  0  0  0  0  0  0  0  0
   13.2772  -18.0006   23.1234 N   0  0  0  0  0  0  0  0  0  0  0  0
   13.4541  -17.4346   24.3127 C   0  0  0  0  0  0  0  0  0  0  0  0
    9.9862  -16.3217   27.7685 O   0  0  0  0  0  0  0  0  0  0  0  0
   10.2376  -17.2290   28.8164 O   0  0  0  0  0  0  0  0  0  0  0  0
  2  4  1  0
  2  1  1  0
  3  2  2  0
  5  4  1  0
  6  5  1  0
  7  6  1  0
  8  7  1  0
  8  9  1  6
 10  8  1  0
 10 12  1  0
 11 10  2  0
 13 12  1  0
 13 14  1  1
 15 14  1  0
 15 16  2  0
 17 16  1  0
 18 17  2  0
 19 20  2  0
 19 18  1  0
 20 15  1  0
 21 13  1  0
 21 22  2  0
 23 24  1  0
 23 21  1  0
 24 25  1  1
 25 26  1  0
 26 30  1  0
 27 28  1  0
 27 26  2  0
 28 29  1  0
 29 30  2  0
 31 24  1  0
 32 31  1  0
 33 31  2  0
M  END
$$$$
