RFH.pdb
     RDKit          3D

 33 34  0  0  1  0  0  0  0  0999 V2000
    9.3517  -15.2710   13.9032 N   0  0  0  0  0  0  0  0  0  0  0  0
    8.1729  -14.8857   14.5713 C   0  0  0  0  0  0  0  0  0  0  0  0
    7.7813  -13.6564   14.4755 N   0  0  0  0  0  0  0  0  0  0  0  0
    7.4688  -15.8576   15.3190 N   0  0  0  0  0  0  0  0  0  0  0  0
    8.0529  -16.4140   16.4951 C   0  0  0  0  0  0  0  0  0  0  0  0
    7.8262  -15.5431   17.7354 C   0  0  0  0  0  0  0  0  0  0  0  0
    9.1706  -15.4536   18.4300 C   0  0  0  0  0  0  0  0  0  0  0  0
    9.2966  -16.4817   19.5338 C   0  0  2  0  0  0  0  0  0  0  0  0
    8.1557  -17.3429   19.5707 N   0  0  0  0  0  0  0  0  0  0  0  0
    9.3661  -15.7163   20.8159 C   0  0  0  0  0  0  0  0  0  0  0  0
   10.2569  -14.8447   20.9708 O   0  0  0  0  0  0  0  0  0  0  0  0
    6.9052  -13.3454   14.9018 N   0  0  0  0  0  0  0  0  0  0  0  0
    8.4436  -15.9468   21.8798 C   0  0  1  0  0  0  0  0  0  0  0  0
    8.4427  -15.2670   23.1350 C   0  0  0  0  0  0  0  0  0  0  0  0
    7.1541  -14.5393   23.4749 C   0  0  0  0  0  0  0  0  0  0  0  0
    7.2113  -13.8409   24.7809 C   0  0  0  0  0  0  0  0  0  0  0  0
    7.8686  -12.5987   24.8441 C   0  0  0  0  0  0  0  0  0  0  0  0
    7.9851  -11.8744   26.0014 C   0  0  0  0  0  0  0  0  0  0  0  0
    7.4412  -12.3699   27.1608 C   0  0  0  0  0  0  0  0  0  0  0  0
    6.7970  -13.5670   27.1465 C   0  0  0  0  0  0  0  0  0  0  0  0
    6.6888  -14.2861   25.9664 C   0  0  0  0  0  0  0  0  0  0  0  0
    9.0305  -16.0146   24.2501 O   0  0  0  0  0  0  0  0  0  0  0  0
    8.2738  -16.6008   25.1048 N   0  0  0  0  0  0  0  0  0  0  0  0
   10.4117  -16.1618   24.4897 C   0  0  2  0  0  0  0  0  0  0  0  0
   10.9483  -16.2700   25.8678 C   0  0  0  0  0  0  0  0  0  0  0  0
   10.3995  -15.0658   26.5805 C   0  0  0  0  0  0  0  0  0  0  0  0
   10.6960  -14.9884   28.0078 C   0  0  0  0  0  0  0  0  0  0  0  0
   11.4230  -15.9973   28.6463 N   0  0  0  0  0  0  0  0  0  0  0  0
   11.5432  -15.6722   29.9361 C   0  0  0  0  0  0  0  0  0  0  0  0
   10.9071  -14.4949   30.0858 N   0  0  0  0  0  0  0  0  0  0  0  0
   10.3980  -14.0829   28.9294 C   0  0  0  0  0  0  0  0  0  0  0  0
   10.5468  -17.5595   26.4583 O   0  0  0  0  0  0  0  0  0  0  0  0
    9.1931  -17.9467   26.5010 O   0  0  0  0  0  0  0  0  0  0  0  0
  2  4  1  0
  2  1  1  0
  3  2  2  0
  5  4  1  0
  6  5  1  0
  7  6  1  0
  8  7  1  0
  8  9  1  1
 10  8  1  0
 10 12  1  0
 11 10  2  0
 13 12  1  0
 13 14  1  1
 15 14  1  0
 15 16  2  0
 17 16  1  0
 18 17  2  0
 19 20  2  0
 19 18  1  0
 20 15  1  0
 21 13  1  0
 21 22  2  0
 23 24  1  0
 23 21  1  0
 24 25  1  6
 25 26  1  0
 26 30  1  0
 27 28  1  0
 27 26  2  0
 28 29  1  0
 29 30  2  0
 31 24  1  0
 32 31  1  0
 33 31  2  0
M  END
$$$$
