RFH.pdb
     RDKit          3D

 33 34  0  0  1  0  0  0  0  0999 V2000
    9.6881  -20.6637   16.4997 N   0  0  0  0  0  0  0  0  0  0  0  0
   10.5148  -21.0689   17.5658 C   0  0  0  0  0  0  0  0  0  0  0  0
   11.1681  -22.1799   17.4542 N   0  0  0  0  0  0  0  0  0  0  0  0
   10.5946  -20.2455   18.7126 N   0  0  0  0  0  0  0  0  0  0  0  0
    9.8758  -19.0145   18.7586 C   0  0  0  0  0  0  0  0  0  0  0  0
    8.4750  -19.1712   19.3597 C   0  0  0  0  0  0  0  0  0  0  0  0
    8.4586  -18.3043   20.6031 C   0  0  0  0  0  0  0  0  0  0  0  0
    8.2288  -16.8474   20.2633 C   0  0  2  0  0  0  0  0  0  0  0  0
    9.0608  -16.4326   19.1769 N   0  0  0  0  0  0  0  0  0  0  0  0
    8.6011  -16.0670   21.4826 C   0  0  0  0  0  0  0  0  0  0  0  0
    9.8122  -15.8508   21.7354 O   0  0  0  0  0  0  0  0  0  0  0  0
   11.7976  -22.5003   18.1940 N   0  0  0  0  0  0  0  0  0  0  0  0
    7.6146  -15.5547   22.3772 C   0  0  2  0  0  0  0  0  0  0  0  0
    7.8838  -14.8355   23.5807 C   0  0  0  0  0  0  0  0  0  0  0  0
    6.7347  -13.9886   24.0982 C   0  0  0  0  0  0  0  0  0  0  0  0
    7.0035  -13.4018   25.4323 C   0  0  0  0  0  0  0  0  0  0  0  0
    7.6794  -12.1694   25.4944 C   0  0  0  0  0  0  0  0  0  0  0  0
    7.9841  -11.5444   26.6750 C   0  0  0  0  0  0  0  0  0  0  0  0
    7.6204  -12.1347   27.8602 C   0  0  0  0  0  0  0  0  0  0  0  0
    6.9658  -13.3262   27.8480 C   0  0  0  0  0  0  0  0  0  0  0  0
    6.6657  -13.9442   26.6440 C   0  0  0  0  0  0  0  0  0  0  0  0
    8.5939  -15.5931   24.6149 O   0  0  0  0  0  0  0  0  0  0  0  0
    8.0426  -16.6162   25.1592 N   0  0  0  0  0  0  0  0  0  0  0  0
    9.8854  -15.2964   25.0953 C   0  0  1  0  0  0  0  0  0  0  0  0
   10.7065  -16.3211   25.7839 C   0  0  0  0  0  0  0  0  0  0  0  0
   12.0991  -16.0990   25.2635 C   0  0  0  0  0  0  0  0  0  0  0  0
   13.1231  -16.9890   25.8025 C   0  0  0  0  0  0  0  0  0  0  0  0
   12.7760  -18.0856   26.5970 N   0  0  0  0  0  0  0  0  0  0  0  0
   13.8988  -18.7169   26.9498 C   0  0  0  0  0  0  0  0  0  0  0  0
   14.9086  -18.0265   26.3869 N   0  0  0  0  0  0  0  0  0  0  0  0
   14.4448  -16.9890   25.6978 C   0  0  0  0  0  0  0  0  0  0  0  0
   10.5729  -16.1673   27.2438 O   0  0  0  0  0  0  0  0  0  0  0  0
   10.6012  -17.2886   28.0961 O   0  0  0  0  0  0  0  0  0  0  0  0
  2  4  1  0
  2  1  1  0
  3  2  2  0
  5  4  1  0
  6  5  1  0
  7  6  1  0
  8  7  1  0
  8  9  1  6
 10  8  1  0
 10 12  1  0
 11 10  2  0
 13 12  1  0
 13 14  1  1
 15 14  1  0
 15 16  2  0
 17 16  1  0
 18 17  2  0
 19 20  2  0
 19 18  1  0
 20 15  1  0
 21 13  1  0
 21 22  2  0
 23 24  1  0
 23 21  1  0
 24 25  1  1
 25 26  1  0
 26 30  1  0
 27 28  1  0
 27 26  2  0
 28 29  1  0
 29 30  2  0
 31 24  1  0
 32 31  1  0
 33 31  2  0
M  END
$$$$
