RFH.pdb
     RDKit          3D

 33 34  0  0  1  0  0  0  0  0999 V2000
    9.5537  -14.1007   15.2851 N   0  0  0  0  0  0  0  0  0  0  0  0
    8.2152  -13.9285   15.6888 C   0  0  0  0  0  0  0  0  0  0  0  0
    7.5007  -13.0287   15.0942 N   0  0  0  0  0  0  0  0  0  0  0  0
    7.7098  -14.7448   16.7269 N   0  0  0  0  0  0  0  0  0  0  0  0
    8.2226  -14.6140   18.0513 C   0  0  0  0  0  0  0  0  0  0  0  0
    7.1345  -14.2709   19.0743 C   0  0  0  0  0  0  0  0  0  0  0  0
    7.8243  -14.2576   20.4240 C   0  0  0  0  0  0  0  0  0  0  0  0
    7.8042  -15.6248   21.0731 C   0  0  2  0  0  0  0  0  0  0  0  0
    6.4661  -16.1061   21.2232 N   0  0  0  0  0  0  0  0  0  0  0  0
    8.4121  -15.4563   22.4282 C   0  0  0  0  0  0  0  0  0  0  0  0
    9.5648  -14.9694   22.5351 O   0  0  0  0  0  0  0  0  0  0  0  0
    6.5254  -12.8686   15.3572 N   0  0  0  0  0  0  0  0  0  0  0  0
    7.7177  -15.8348   23.6159 C   0  0  1  0  0  0  0  0  0  0  0  0
    8.2581  -15.7986   24.9366 C   0  0  0  0  0  0  0  0  0  0  0  0
    7.2728  -15.4196   26.0280 C   0  0  0  0  0  0  0  0  0  0  0  0
    7.0805  -13.9551   26.1507 C   0  0  0  0  0  0  0  0  0  0  0  0
    8.1499  -13.1109   25.8005 C   0  0  0  0  0  0  0  0  0  0  0  0
    8.0802  -11.7450   25.8838 C   0  0  0  0  0  0  0  0  0  0  0  0
    6.9209  -11.1580   26.3276 C   0  0  0  0  0  0  0  0  0  0  0  0
    5.8618  -11.9352   26.6773 C   0  0  0  0  0  0  0  0  0  0  0  0
    5.9502  -13.3156   26.5867 C   0  0  0  0  0  0  0  0  0  0  0  0
    9.1444  -16.9145   25.2792 O   0  0  0  0  0  0  0  0  0  0  0  0
    8.6712  -18.1011   25.4008 N   0  0  0  0  0  0  0  0  0  0  0  0
   10.5327  -16.8101   25.4990 C   0  0  1  0  0  0  0  0  0  0  0  0
   11.3686  -18.0115   25.7363 C   0  0  0  0  0  0  0  0  0  0  0  0
   12.7430  -17.6095   25.2794 C   0  0  0  0  0  0  0  0  0  0  0  0
   12.8586  -17.2496   23.8694 C   0  0  0  0  0  0  0  0  0  0  0  0
   12.0159  -17.8200   22.9109 N   0  0  0  0  0  0  0  0  0  0  0  0
   12.3412  -17.3168   21.7173 C   0  0  0  0  0  0  0  0  0  0  0  0
   13.3567  -16.4602   21.9368 N   0  0  0  0  0  0  0  0  0  0  0  0
   13.6685  -16.4186   23.2280 C   0  0  0  0  0  0  0  0  0  0  0  0
   11.2908  -18.3994   27.1563 O   0  0  0  0  0  0  0  0  0  0  0  0
   10.4784  -17.6853   28.0589 O   0  0  0  0  0  0  0  0  0  0  0  0
  2  4  1  0
  2  1  1  0
  3  2  2  0
  5  4  1  0
  6  5  1  0
  7  6  1  0
  8  7  1  0
  8  9  1  1
 10  8  1  0
 10 12  1  0
 11 10  2  0
 13 12  1  0
 13 14  1  1
 15 14  1  0
 15 16  2  0
 17 16  1  0
 18 17  2  0
 19 20  2  0
 19 18  1  0
 20 15  1  0
 21 13  1  0
 21 22  2  0
 23 24  1  0
 23 21  1  0
 24 25  1  1
 25 26  1  0
 26 30  1  0
 27 28  1  0
 27 26  2  0
 28 29  1  0
 29 30  2  0
 31 24  1  0
 32 31  1  0
 33 31  2  0
M  END
$$$$
