RFH.pdb
     RDKit          3D

 33 34  0  0  1  0  0  0  0  0999 V2000
   12.3787  -17.8633   16.1019 N   0  0  0  0  0  0  0  0  0  0  0  0
   11.1979  -18.5501   15.7580 C   0  0  0  0  0  0  0  0  0  0  0  0
   11.2857  -19.5800   14.9800 N   0  0  0  0  0  0  0  0  0  0  0  0
    9.9675  -18.0845   16.2762 N   0  0  0  0  0  0  0  0  0  0  0  0
    9.6149  -18.3572   17.6310 C   0  0  0  0  0  0  0  0  0  0  0  0
   10.6328  -17.7967   18.6300 C   0  0  0  0  0  0  0  0  0  0  0  0
    9.8613  -16.8351   19.5119 C   0  0  0  0  0  0  0  0  0  0  0  0
    9.2150  -17.5475   20.6806 C   0  0  2  0  0  0  0  0  0  0  0  0
    7.8391  -17.8326   20.4154 N   0  0  0  0  0  0  0  0  0  0  0  0
    9.2994  -16.6114   21.8429 C   0  0  0  0  0  0  0  0  0  0  0  0
   10.3554  -15.9611   22.0407 O   0  0  0  0  0  0  0  0  0  0  0  0
   10.4813  -20.1903   14.8174 N   0  0  0  0  0  0  0  0  0  0  0  0
    8.2075  -16.4314   22.7437 C   0  0  1  0  0  0  0  0  0  0  0  0
    8.2167  -15.5886   23.8959 C   0  0  0  0  0  0  0  0  0  0  0  0
    6.9659  -14.7510   24.0940 C   0  0  0  0  0  0  0  0  0  0  0  0
    7.0767  -13.8053   25.2297 C   0  0  0  0  0  0  0  0  0  0  0  0
    5.9527  -13.0267   25.5608 C   0  0  0  0  0  0  0  0  0  0  0  0
    5.9506  -12.1179   26.5862 C   0  0  0  0  0  0  0  0  0  0  0  0
    7.0895  -11.9473   27.3340 C   0  0  0  0  0  0  0  0  0  0  0  0
    8.1998  -12.6783   27.0494 C   0  0  0  0  0  0  0  0  0  0  0  0
    8.1838  -13.5933   26.0082 C   0  0  0  0  0  0  0  0  0  0  0  0
    8.7319  -16.2097   25.1194 O   0  0  0  0  0  0  0  0  0  0  0  0
    8.0391  -17.0983   25.7336 N   0  0  0  0  0  0  0  0  0  0  0  0
    9.9733  -15.9148   25.7184 C   0  0  1  0  0  0  0  0  0  0  0  0
   10.4921  -16.7163   26.8528 C   0  0  0  0  0  0  0  0  0  0  0  0
   11.9866  -16.5974   26.7447 C   0  0  0  0  0  0  0  0  0  0  0  0
   12.6054  -17.3760   25.6760 C   0  0  0  0  0  0  0  0  0  0  0  0
   11.8533  -18.2746   24.9137 N   0  0  0  0  0  0  0  0  0  0  0  0
   12.6653  -18.8443   24.0195 C   0  0  0  0  0  0  0  0  0  0  0  0
   13.8837  -18.3098   24.2269 N   0  0  0  0  0  0  0  0  0  0  0  0
   13.8496  -17.4282   25.2208 C   0  0  0  0  0  0  0  0  0  0  0  0
    9.9331  -16.2076   28.1184 O   0  0  0  0  0  0  0  0  0  0  0  0
    9.9773  -16.9833   29.2935 O   0  0  0  0  0  0  0  0  0  0  0  0
  2  4  1  0
  2  1  1  0
  3  2  2  0
  5  4  1  0
  6  5  1  0
  7  6  1  0
  8  7  1  0
  8  9  1  6
 10  8  1  0
 10 12  1  0
 11 10  2  0
 13 12  1  0
 13 14  1  1
 15 14  1  0
 15 16  2  0
 17 16  1  0
 18 17  2  0
 19 20  2  0
 19 18  1  0
 20 15  1  0
 21 13  1  0
 21 22  2  0
 23 24  1  0
 23 21  1  0
 24 25  1  1
 25 26  1  0
 26 30  1  0
 27 28  1  0
 27 26  2  0
 28 29  1  0
 29 30  2  0
 31 24  1  0
 32 31  1  0
 33 31  2  0
M  END
$$$$
