RFH.pdb
     RDKit          3D

 33 34  0  0  1  0  0  0  0  0999 V2000
    6.9974  -19.9969   16.0994 N   0  0  0  0  0  0  0  0  0  0  0  0
    7.3762  -21.0170   15.2048 C   0  0  0  0  0  0  0  0  0  0  0  0
    6.7331  -22.1390   15.2379 N   0  0  0  0  0  0  0  0  0  0  0  0
    8.4433  -20.7721   14.3100 N   0  0  0  0  0  0  0  0  0  0  0  0
    9.1847  -19.5570   14.3992 C   0  0  0  0  0  0  0  0  0  0  0  0
    9.4410  -19.1269   15.8475 C   0  0  0  0  0  0  0  0  0  0  0  0
   10.1512  -17.7904   15.7631 C   0  0  0  0  0  0  0  0  0  0  0  0
    9.2439  -16.6508   16.1745 C   0  0  2  0  0  0  0  0  0  0  0  0
    9.5518  -15.4575   15.4494 N   0  0  0  0  0  0  0  0  0  0  0  0
    9.4995  -16.4129   17.6279 C   0  0  0  0  0  0  0  0  0  0  0  0
   10.5653  -15.8541   17.9873 O   0  0  0  0  0  0  0  0  0  0  0  0
    7.0116  -22.9262   14.6473 N   0  0  0  0  0  0  0  0  0  0  0  0
    8.5619  -16.8042   18.6298 C   0  0  2  0  0  0  0  0  0  0  0  0
    8.7122  -16.5871   20.0326 C   0  0  0  0  0  0  0  0  0  0  0  0
    7.5054  -15.9797   20.7256 C   0  0  0  0  0  0  0  0  0  0  0  0
    7.3754  -14.5223   20.4894 C   0  0  0  0  0  0  0  0  0  0  0  0
    7.6423  -13.6475   21.5583 C   0  0  0  0  0  0  0  0  0  0  0  0
    7.5448  -12.2851   21.4494 C   0  0  0  0  0  0  0  0  0  0  0  0
    7.1705  -11.7329   20.2492 C   0  0  0  0  0  0  0  0  0  0  0  0
    6.9024  -12.5404   19.1889 C   0  0  0  0  0  0  0  0  0  0  0  0
    7.0062  -13.9167   19.3173 C   0  0  0  0  0  0  0  0  0  0  0  0
    9.3478  -17.6831   20.7693 O   0  0  0  0  0  0  0  0  0  0  0  0
    9.2798  -18.8850   20.3246 N   0  0  0  0  0  0  0  0  0  0  0  0
   10.0619  -17.5427   21.9765 C   0  0  1  0  0  0  0  0  0  0  0  0
   11.2620  -18.3651   22.2629 C   0  0  0  0  0  0  0  0  0  0  0  0
   12.1893  -18.0903   21.1122 C   0  0  0  0  0  0  0  0  0  0  0  0
   13.4633  -18.8025   21.1453 C   0  0  0  0  0  0  0  0  0  0  0  0
   13.7628  -19.6913   22.1818 N   0  0  0  0  0  0  0  0  0  0  0  0
   14.9809  -20.1931   21.9619 C   0  0  0  0  0  0  0  0  0  0  0  0
   15.4177  -19.6276   20.8206 N   0  0  0  0  0  0  0  0  0  0  0  0
   14.5080  -18.7926   20.3290 C   0  0  0  0  0  0  0  0  0  0  0  0
   11.8095  -18.0036   23.5828 O   0  0  0  0  0  0  0  0  0  0  0  0
   12.4022  -18.9759   24.4123 O   0  0  0  0  0  0  0  0  0  0  0  0
  2  4  1  0
  2  1  1  0
  3  2  2  0
  5  4  1  0
  6  5  1  0
  7  6  1  0
  8  7  1  0
  8  9  1  6
 10  8  1  0
 10 12  1  0
 11 10  2  0
 13 12  1  0
 13 14  1  6
 15 14  1  0
 15 16  2  0
 17 16  1  0
 18 17  2  0
 19 20  2  0
 19 18  1  0
 20 15  1  0
 21 13  1  0
 21 22  2  0
 23 24  1  0
 23 21  1  0
 24 25  1  1
 25 26  1  0
 26 30  1  0
 27 28  1  0
 27 26  2  0
 28 29  1  0
 29 30  2  0
 31 24  1  0
 32 31  1  0
 33 31  2  0
M  END
$$$$
