GHA.pdb
     RDKit          3D

 20 20  0  0  1  0  0  0  0  0999 V2000
   44.1156  -19.9005   -9.8192 N   0  0  0  0  0  0  0  0  0  0  0  0
   44.5688  -19.1402   -8.6708 C   0  0  0  0  0  0  0  0  0  0  0  0
   44.9527  -17.7672   -9.1288 C   0  0  0  0  0  0  0  0  0  0  0  0
   44.9465  -17.4786  -10.3588 O   0  0  0  0  0  0  0  0  0  0  0  0
   45.3323  -16.7494   -8.2307 N   0  0  0  0  0  0  0  0  0  0  0  0
   45.7402  -15.4113   -8.6259 C   0  0  1  0  0  0  0  0  0  0  0  0
   44.9031  -14.4640   -7.8193 C   0  0  0  0  0  0  0  0  0  0  0  0
   43.8227  -13.8135   -8.5697 C   0  0  0  0  0  0  0  0  0  0  0  0
   43.5924  -14.1275   -9.9119 C   0  0  0  0  0  0  0  0  0  0  0  0
   42.5617  -13.3964  -10.3386 N   0  0  0  0  0  0  0  0  0  0  0  0
   42.1277  -12.6309   -9.3229 C   0  0  0  0  0  0  0  0  0  0  0  0
   42.9103  -12.9049   -8.2644 N   0  0  0  0  0  0  0  0  0  0  0  0
   47.1930  -15.2996   -8.3367 C   0  0  0  0  0  0  0  0  0  0  0  0
   47.7231  -15.7284   -7.2769 O   0  0  0  0  0  0  0  0  0  0  0  0
   50.2951  -14.2380  -10.2370 C   0  0  0  0  0  0  0  0  0  0  0  0
   49.4880  -14.5610   -8.9947 C   0  0  2  0  0  0  0  0  0  0  0  0
   48.0821  -14.6850   -9.2701 N   0  0  0  0  0  0  0  0  0  0  0  0
   49.7608  -13.5688   -7.9198 C   0  0  0  0  0  0  0  0  0  0  0  0
   48.9347  -12.6178   -7.8147 O   0  0  0  0  0  0  0  0  0  0  0  0
   50.8350  -13.6401   -7.0665 O   0  0  0  0  0  0  0  0  0  0  0  0
  2  1  1  0
  2  3  1  0
  3  4  2  0
  5  3  1  0
  5  6  1  0
  6 13  1  0
  6  7  1  1
  8  9  2  0
  8  7  1  0
 10  9  1  0
 11 12  2  0
 11 10  1  0
 12  8  1  0
 13 14  2  0
 16 15  1  6
 16 18  1  0
 17 16  1  0
 17 13  1  0
 18 20  1  0
 19 18  2  0
M  END
$$$$
