GHA.pdb
     RDKit          3D

 20 20  0  0  1  0  0  0  0  0999 V2000
   21.9060  -13.7268  -17.4288 N   0  0  0  0  0  0  0  0  0  0  0  0
   21.8457  -12.4126  -18.0385 C   0  0  0  0  0  0  0  0  0  0  0  0
   21.9935  -11.3807  -16.9635 C   0  0  0  0  0  0  0  0  0  0  0  0
   21.9089  -11.7088  -15.7464 O   0  0  0  0  0  0  0  0  0  0  0  0
   22.2294  -10.0206  -17.2487 N   0  0  0  0  0  0  0  0  0  0  0  0
   22.3221   -8.9722  -16.2460 C   0  0  1  0  0  0  0  0  0  0  0  0
   23.6754   -8.3492  -16.4170 C   0  0  0  0  0  0  0  0  0  0  0  0
   24.7949   -9.1923  -15.9817 C   0  0  0  0  0  0  0  0  0  0  0  0
   25.6838   -9.7393  -16.9112 C   0  0  0  0  0  0  0  0  0  0  0  0
   26.5928  -10.4538  -16.2459 N   0  0  0  0  0  0  0  0  0  0  0  0
   26.3180  -10.3832  -14.9324 C   0  0  0  0  0  0  0  0  0  0  0  0
   25.2238   -9.6125  -14.8024 N   0  0  0  0  0  0  0  0  0  0  0  0
   21.2060   -8.0269  -16.5052 C   0  0  0  0  0  0  0  0  0  0  0  0
   20.9206   -7.5901  -17.6522 O   0  0  0  0  0  0  0  0  0  0  0  0
   18.1698   -6.8441  -14.6412 C   0  0  0  0  0  0  0  0  0  0  0  0
   19.2572   -6.6933  -15.6872 C   0  0  2  0  0  0  0  0  0  0  0  0
   20.3811   -7.5552  -15.4390 N   0  0  0  0  0  0  0  0  0  0  0  0
   19.6647   -5.2681  -15.8179 C   0  0  0  0  0  0  0  0  0  0  0  0
   20.8190   -4.9761  -15.3933 O   0  0  0  0  0  0  0  0  0  0  0  0
   18.8674   -4.2904  -16.3616 O   0  0  0  0  0  0  0  0  0  0  0  0
  2  1  1  0
  2  3  1  0
  3  4  2  0
  5  3  1  0
  5  6  1  0
  6 13  1  0
  6  7  1  6
  8  9  2  0
  8  7  1  0
 10  9  1  0
 11 12  2  0
 11 10  1  0
 12  8  1  0
 13 14  2  0
 16 15  1  1
 16 18  1  0
 17 16  1  0
 17 13  1  0
 18 20  1  0
 19 18  2  0
M  END
$$$$
