GHA.pdb
     RDKit          3D

 20 20  0  0  1  0  0  0  0  0999 V2000
   20.2053  -11.4563  -18.6116 N   0  0  0  0  0  0  0  0  0  0  0  0
   19.2494  -10.3660  -18.6211 C   0  0  0  0  0  0  0  0  0  0  0  0
   19.4729   -9.5249  -17.4026 C   0  0  0  0  0  0  0  0  0  0  0  0
   18.9008   -9.8126  -16.3135 O   0  0  0  0  0  0  0  0  0  0  0  0
   20.3145   -8.3942  -17.4086 N   0  0  0  0  0  0  0  0  0  0  0  0
   20.4841   -7.4869  -16.2856 C   0  0  1  0  0  0  0  0  0  0  0  0
   21.9624   -7.3687  -16.0635 C   0  0  0  0  0  0  0  0  0  0  0  0
   22.6061   -8.5935  -15.5746 C   0  0  0  0  0  0  0  0  0  0  0  0
   21.8533   -9.7388  -15.3014 C   0  0  0  0  0  0  0  0  0  0  0  0
   22.6850  -10.6910  -14.8764 N   0  0  0  0  0  0  0  0  0  0  0  0
   23.9351  -10.1978  -14.8683 C   0  0  0  0  0  0  0  0  0  0  0  0
   23.8565   -8.9255  -15.2960 N   0  0  0  0  0  0  0  0  0  0  0  0
   19.8455   -6.2016  -16.6687 C   0  0  0  0  0  0  0  0  0  0  0  0
   19.9189   -5.7099  -17.8266 O   0  0  0  0  0  0  0  0  0  0  0  0
   17.1919   -3.9759  -15.2176 C   0  0  0  0  0  0  0  0  0  0  0  0
   18.3928   -4.2486  -16.1023 C   0  0  2  0  0  0  0  0  0  0  0  0
   19.0980   -5.4414  -15.7183 N   0  0  0  0  0  0  0  0  0  0  0  0
   19.2888   -3.0615  -16.1503 C   0  0  0  0  0  0  0  0  0  0  0  0
   20.4508   -3.2193  -15.6785 O   0  0  0  0  0  0  0  0  0  0  0  0
   18.9194   -1.8437  -16.6678 O   0  0  0  0  0  0  0  0  0  0  0  0
  2  1  1  0
  2  3  1  0
  3  4  2  0
  5  3  1  0
  5  6  1  0
  6 13  1  0
  6  7  1  6
  8  9  2  0
  8  7  1  0
 10  9  1  0
 11 12  2  0
 11 10  1  0
 12  8  1  0
 13 14  2  0
 16 15  1  1
 16 18  1  0
 17 16  1  0
 17 13  1  0
 18 20  1  0
 19 18  2  0
M  END
$$$$
