GHA.pdb
     RDKit          3D

 20 20  0  0  1  0  0  0  0  0999 V2000
   11.3605  -12.3781  -11.0320 N   0  0  0  0  0  0  0  0  0  0  0  0
   12.1168  -11.4165  -11.8104 C   0  0  0  0  0  0  0  0  0  0  0  0
   13.2389  -10.8964  -10.9664 C   0  0  0  0  0  0  0  0  0  0  0  0
   13.2508  -11.1037   -9.7202 O   0  0  0  0  0  0  0  0  0  0  0  0
   14.3155  -10.1649  -11.5075 N   0  0  0  0  0  0  0  0  0  0  0  0
   15.4822   -9.7361  -10.7539 C   0  0  1  0  0  0  0  0  0  0  0  0
   16.6651   -9.9722  -11.6449 C   0  0  0  0  0  0  0  0  0  0  0  0
   16.9094  -11.3812  -11.9744 C   0  0  0  0  0  0  0  0  0  0  0  0
   16.5855  -12.3955  -11.0692 C   0  0  0  0  0  0  0  0  0  0  0  0
   16.9105  -13.5651  -11.6221 N   0  0  0  0  0  0  0  0  0  0  0  0
   17.4273  -13.3356  -12.8412 C   0  0  0  0  0  0  0  0  0  0  0  0
   17.4141  -12.0040  -13.0274 N   0  0  0  0  0  0  0  0  0  0  0  0
   15.2780   -8.3030  -10.4203 C   0  0  0  0  0  0  0  0  0  0  0  0
   14.8309   -7.4579  -11.2411 O   0  0  0  0  0  0  0  0  0  0  0  0
   15.3787   -6.2101   -7.2599 C   0  0  0  0  0  0  0  0  0  0  0  0
   15.3070   -6.4378   -8.7573 C   0  0  2  0  0  0  0  0  0  0  0  0
   15.5867   -7.8010   -9.1194 N   0  0  0  0  0  0  0  0  0  0  0  0
   16.1874   -5.4775   -9.4763 C   0  0  0  0  0  0  0  0  0  0  0  0
   17.2830   -5.9384   -9.9064 O   0  0  0  0  0  0  0  0  0  0  0  0
   15.8709   -4.1571   -9.6850 O   0  0  0  0  0  0  0  0  0  0  0  0
  2  1  1  0
  2  3  1  0
  3  4  2  0
  5  3  1  0
  5  6  1  0
  6 13  1  0
  6  7  1  6
  8  9  2  0
  8  7  1  0
 10  9  1  0
 11 12  2  0
 11 10  1  0
 12  8  1  0
 13 14  2  0
 16 15  1  1
 16 18  1  0
 17 16  1  0
 17 13  1  0
 18 20  1  0
 19 18  2  0
M  END
$$$$
