GHA.pdb
     RDKit          3D

 20 20  0  0  1  0  0  0  0  0999 V2000
   28.2104   -9.0616  -18.3968 N   0  0  0  0  0  0  0  0  0  0  0  0
   27.3635   -8.0834  -17.7423 C   0  0  0  0  0  0  0  0  0  0  0  0
   25.9423   -8.5461  -17.8328 C   0  0  0  0  0  0  0  0  0  0  0  0
   25.5697   -9.2839  -18.7883 O   0  0  0  0  0  0  0  0  0  0  0  0
   24.9691   -8.1898  -16.8774 N   0  0  0  0  0  0  0  0  0  0  0  0
   23.5525   -8.4956  -16.9902 C   0  0  1  0  0  0  0  0  0  0  0  0
   23.2649   -9.5340  -15.9472 C   0  0  0  0  0  0  0  0  0  0  0  0
   23.5330  -10.9137  -16.3693 C   0  0  0  0  0  0  0  0  0  0  0  0
   23.9351  -11.1977  -17.6773 C   0  0  0  0  0  0  0  0  0  0  0  0
   24.1066  -12.5163  -17.7820 N   0  0  0  0  0  0  0  0  0  0  0  0
   23.8299  -13.0816  -16.5946 C   0  0  0  0  0  0  0  0  0  0  0  0
   23.4854  -12.0866  -15.7584 N   0  0  0  0  0  0  0  0  0  0  0  0
   22.8172   -7.2241  -16.7680 C   0  0  0  0  0  0  0  0  0  0  0  0
   23.1292   -6.3905  -15.8761 O   0  0  0  0  0  0  0  0  0  0  0  0
   19.9435   -5.3859  -18.4443 C   0  0  0  0  0  0  0  0  0  0  0  0
   20.9527   -5.6641  -17.3472 C   0  0  2  0  0  0  0  0  0  0  0  0
   21.6920   -6.8761  -17.5757 N   0  0  0  0  0  0  0  0  0  0  0  0
   20.2928   -5.6558  -16.0136 C   0  0  0  0  0  0  0  0  0  0  0  0
   19.9249   -6.7791  -15.5654 O   0  0  0  0  0  0  0  0  0  0  0  0
   20.0740   -4.5186  -15.2745 O   0  0  0  0  0  0  0  0  0  0  0  0
  2  1  1  0
  2  3  1  0
  3  4  2  0
  5  3  1  0
  5  6  1  0
  6 13  1  0
  6  7  1  1
  8  9  2  0
  8  7  1  0
 10  9  1  0
 11 12  2  0
 11 10  1  0
 12  8  1  0
 13 14  2  0
 16 15  1  6
 16 18  1  0
 17 16  1  0
 17 13  1  0
 18 20  1  0
 19 18  2  0
M  END
$$$$
