GHA.pdb
     RDKit          3D

 20 20  0  0  1  0  0  0  0  0999 V2000
   26.3199  -24.4246  -15.4389 N   0  0  0  0  0  0  0  0  0  0  0  0
   26.0686  -22.9971  -15.3977 C   0  0  0  0  0  0  0  0  0  0  0  0
   25.4724  -22.6559  -14.0672 C   0  0  0  0  0  0  0  0  0  0  0  0
   25.0595  -23.5695  -13.2984 O   0  0  0  0  0  0  0  0  0  0  0  0
   25.3443  -21.3271  -13.6148 N   0  0  0  0  0  0  0  0  0  0  0  0
   24.7262  -20.9404  -12.3572 C   0  0  1  0  0  0  0  0  0  0  0  0
   25.6402  -19.9262  -11.7369 C   0  0  0  0  0  0  0  0  0  0  0  0
   26.9413  -20.4558  -11.3124 C   0  0  0  0  0  0  0  0  0  0  0  0
   27.1245  -20.9559  -10.0203 C   0  0  0  0  0  0  0  0  0  0  0  0
   28.3887  -21.3665   -9.9092 N   0  0  0  0  0  0  0  0  0  0  0  0
   29.0160  -21.1479  -11.0774 C   0  0  0  0  0  0  0  0  0  0  0  0
   28.1146  -20.5956  -11.9082 N   0  0  0  0  0  0  0  0  0  0  0  0
   23.3840  -20.3950  -12.6854 C   0  0  0  0  0  0  0  0  0  0  0  0
   23.1106  -19.8434  -13.7849 O   0  0  0  0  0  0  0  0  0  0  0  0
   21.0408  -18.5879  -12.6793 C   0  0  0  0  0  0  0  0  0  0  0  0
   21.0001  -19.9737  -12.0651 C   0  0  2  0  0  0  0  0  0  0  0  0
   22.3109  -20.4716  -11.7462 N   0  0  0  0  0  0  0  0  0  0  0  0
   20.2437  -20.9119  -12.9380 C   0  0  0  0  0  0  0  0  0  0  0  0
   20.8776  -21.9247  -13.3508 O   0  0  0  0  0  0  0  0  0  0  0  0
   18.9315  -20.7303  -13.3015 O   0  0  0  0  0  0  0  0  0  0  0  0
  2  1  1  0
  2  3  1  0
  3  4  2  0
  5  3  1  0
  5  6  1  0
  6 13  1  0
  6  7  1  6
  8  9  2  0
  8  7  1  0
 10  9  1  0
 11 12  2  0
 11 10  1  0
 12  8  1  0
 13 14  2  0
 16 15  1  6
 16 18  1  0
 17 16  1  0
 17 13  1  0
 18 20  1  0
 19 18  2  0
M  END
$$$$
