GHA.pdb
     RDKit          3D

 20 20  0  0  1  0  0  0  0  0999 V2000
   17.5181  -15.0208  -16.6532 N   0  0  0  0  0  0  0  0  0  0  0  0
   17.5146  -13.6773  -17.1987 C   0  0  0  0  0  0  0  0  0  0  0  0
   18.8219  -13.0254  -16.8699 C   0  0  0  0  0  0  0  0  0  0  0  0
   19.6636  -13.6154  -16.1353 O   0  0  0  0  0  0  0  0  0  0  0  0
   19.1723  -11.7484  -17.3529 N   0  0  0  0  0  0  0  0  0  0  0  0
   20.4494  -11.0976  -17.1112 C   0  0  1  0  0  0  0  0  0  0  0  0
   21.0249  -10.7921  -18.4618 C   0  0  0  0  0  0  0  0  0  0  0  0
   21.4574  -11.9707  -19.2217 C   0  0  0  0  0  0  0  0  0  0  0  0
   22.4506  -12.8191  -18.7247 C   0  0  0  0  0  0  0  0  0  0  0  0
   22.6428  -13.7974  -19.6108 N   0  0  0  0  0  0  0  0  0  0  0  0
   21.8128  -13.6055  -20.6501 C   0  0  0  0  0  0  0  0  0  0  0  0
   21.1071  -12.4917  -20.3867 N   0  0  0  0  0  0  0  0  0  0  0  0
   20.1686   -9.8810  -16.3063 C   0  0  0  0  0  0  0  0  0  0  0  0
   19.1896   -9.1179  -16.5232 O   0  0  0  0  0  0  0  0  0  0  0  0
   21.4189   -8.3778  -13.0764 C   0  0  0  0  0  0  0  0  0  0  0  0
   20.7606   -8.3263  -14.4415 C   0  0  2  0  0  0  0  0  0  0  0  0
   21.0169   -9.5080  -15.2196 N   0  0  0  0  0  0  0  0  0  0  0  0
   21.1507   -7.0859  -15.1651 C   0  0  0  0  0  0  0  0  0  0  0  0
   21.9584   -7.2309  -16.1266 O   0  0  0  0  0  0  0  0  0  0  0  0
   20.6865   -5.8336  -14.8436 O   0  0  0  0  0  0  0  0  0  0  0  0
  2  1  1  0
  2  3  1  0
  3  4  2  0
  5  3  1  0
  5  6  1  0
  6 13  1  0
  6  7  1  6
  8  9  2  0
  8  7  1  0
 10  9  1  0
 11 12  2  0
 11 10  1  0
 12  8  1  0
 13 14  2  0
 16 15  1  1
 16 18  1  0
 17 16  1  0
 17 13  1  0
 18 20  1  0
 19 18  2  0
M  END
$$$$
