ARL.pdb
     RDKit          3D

 25 24  0  0  1  0  0  0  0  0999 V2000
    8.3972  -12.1493   19.1724 C   0  0  0  0  0  0  0  0  0  0  0  0
    8.3784  -13.6155   18.7969 C   0  0  2  0  0  0  0  0  0  0  0  0
    7.3347  -13.9289   17.8620 N   0  0  0  0  0  0  0  0  0  0  0  0
    8.2218  -14.4854   20.0010 C   0  0  0  0  0  0  0  0  0  0  0  0
    7.0585  -14.7800   20.4381 O   0  0  0  0  0  0  0  0  0  0  0  0
   13.4593  -20.0713   19.0387 N   0  0  0  0  0  0  0  0  0  0  0  0
   12.4409  -19.4458   18.2744 C   0  0  0  0  0  0  0  0  0  0  0  0
   12.5055  -19.4446   16.9756 N   0  0  0  0  0  0  0  0  0  0  0  0
   11.3210  -18.8012   18.8632 N   0  0  0  0  0  0  0  0  0  0  0  0
   11.1097  -18.8197   20.3183 C   0  0  0  0  0  0  0  0  0  0  0  0
    9.8256  -18.0855   20.6623 C   0  0  0  0  0  0  0  0  0  0  0  0
   10.1673  -17.0109   21.6233 C   0  0  0  0  0  0  0  0  0  0  0  0
    9.1436  -15.9449   21.8441 C   0  0  2  0  0  0  0  0  0  0  0  0
    9.3110  -15.0207   20.7109 N   0  0  0  0  0  0  0  0  0  0  0  0
    9.2260  -15.2329   23.1199 C   0  0  0  0  0  0  0  0  0  0  0  0
   10.2960  -14.6062   23.3908 O   0  0  0  0  0  0  0  0  0  0  0  0
   11.7370  -19.0672   16.3839 C   0  0  0  0  0  0  0  0  0  0  0  0
    8.1974  -11.5600   26.8309 C   0  0  2  0  0  0  0  0  0  0  0  0
    7.2472  -12.7237   26.8275 C   0  0  0  0  0  0  0  0  0  0  0  0
    5.8447  -12.1312   27.0273 C   0  0  0  0  0  0  0  0  0  0  0  0
    7.1975  -13.5004   25.5595 C   0  0  1  0  0  0  0  0  0  0  0  0
    8.3428  -14.4558   25.3461 N   0  0  0  0  0  0  0  0  0  0  0  0
    8.2069  -15.1756   24.0925 C   0  0  0  0  0  0  0  0  0  0  0  0
    8.5841  -15.3708   26.4809 O   0  0  0  0  0  0  0  0  0  0  0  0
    9.4795  -15.0963   27.5019 O   0  0  0  0  0  0  0  0  0  0  0  0
  2  1  1  1
  3  2  1  0
  4  5  2  0
  4  2  1  0
  6  7  1  0
  7  8  2  0
  9  7  1  0
  9 10  1  0
 10 11  1  0
 11 12  1  0
 13 12  1  1
 13 14  1  0
 14  4  1  0
 15 22  1  0
 15 13  1  0
 16 15  2  0
 18 17  1  1
 19 18  1  0
 20 18  1  0
 21 20  1  6
 21 22  1  0
 21 23  1  0
 23 24  1  0
 25 23  2  0
M  END
$$$$
