ARL.pdb
     RDKit          3D

 25 24  0  0  1  0  0  0  0  0999 V2000
    7.2243  -12.7497   18.8661 C   0  0  0  0  0  0  0  0  0  0  0  0
    8.4545  -13.0330   19.7011 C   0  0  2  0  0  0  0  0  0  0  0  0
    9.4916  -13.6801   18.9479 N   0  0  0  0  0  0  0  0  0  0  0  0
    8.1256  -13.8770   20.8888 C   0  0  0  0  0  0  0  0  0  0  0  0
    7.1712  -13.5475   21.6710 O   0  0  0  0  0  0  0  0  0  0  0  0
    9.8634  -19.0533   17.7259 N   0  0  0  0  0  0  0  0  0  0  0  0
   10.8084  -19.2141   18.7716 C   0  0  0  0  0  0  0  0  0  0  0  0
   12.0417  -19.5216   18.4968 N   0  0  0  0  0  0  0  0  0  0  0  0
   10.4757  -19.0539   20.1428 N   0  0  0  0  0  0  0  0  0  0  0  0
    9.1081  -19.2921   20.6275 C   0  0  0  0  0  0  0  0  0  0  0  0
    8.3828  -17.9686   20.7961 C   0  0  0  0  0  0  0  0  0  0  0  0
    8.9782  -17.2765   21.9630 C   0  0  0  0  0  0  0  0  0  0  0  0
    8.4178  -15.9378   22.3187 C   0  0  2  0  0  0  0  0  0  0  0  0
    8.8232  -15.0536   21.2141 N   0  0  0  0  0  0  0  0  0  0  0  0
    8.8362  -15.3914   23.6102 C   0  0  0  0  0  0  0  0  0  0  0  0
   10.0317  -14.9826   23.7313 O   0  0  0  0  0  0  0  0  0  0  0  0
   12.7708  -19.5967   19.2356 C   0  0  0  0  0  0  0  0  0  0  0  0
    5.5916  -12.2810   26.6100 C   0  0  1  0  0  0  0  0  0  0  0  0
    6.8050  -12.9024   25.9787 C   0  0  0  0  0  0  0  0  0  0  0  0
    7.8547  -11.7862   25.8798 C   0  0  0  0  0  0  0  0  0  0  0  0
    7.4346  -14.0023   26.7580 C   0  0  2  0  0  0  0  0  0  0  0  0
    8.5011  -14.7774   26.0290 N   0  0  0  0  0  0  0  0  0  0  0  0
    8.0183  -15.2728   24.7524 C   0  0  0  0  0  0  0  0  0  0  0  0
    9.1237  -15.8492   26.8334 O   0  0  0  0  0  0  0  0  0  0  0  0
    9.8885  -15.6056   27.9628 O   0  0  0  0  0  0  0  0  0  0  0  0
  2  1  1  6
  3  2  1  0
  4  5  2  0
  4  2  1  0
  6  7  1  0
  7  8  2  0
  9  7  1  0
  9 10  1  0
 10 11  1  0
 11 12  1  0
 13 12  1  6
 13 14  1  0
 14  4  1  0
 15 22  1  0
 15 13  1  0
 16 15  2  0
 18 17  1  6
 19 18  1  0
 20 18  1  0
 21 20  1  6
 21 22  1  0
 21 23  1  0
 23 24  1  0
 25 23  2  0
M  END
$$$$
