ARL.pdb
     RDKit          3D

 25 24  0  0  1  0  0  0  0  0999 V2000
    7.3774  -12.7271   18.8155 C   0  0  0  0  0  0  0  0  0  0  0  0
    8.5762  -13.0804   19.6693 C   0  0  2  0  0  0  0  0  0  0  0  0
    9.5722  -13.8135   18.9398 N   0  0  0  0  0  0  0  0  0  0  0  0
    8.1767  -13.8761   20.8687 C   0  0  0  0  0  0  0  0  0  0  0  0
    7.2503  -13.4578   21.6421 O   0  0  0  0  0  0  0  0  0  0  0  0
   10.1217  -18.9311   18.3636 N   0  0  0  0  0  0  0  0  0  0  0  0
    8.8082  -19.3831   18.0755 C   0  0  0  0  0  0  0  0  0  0  0  0
    8.4527  -19.6193   16.8471 N   0  0  0  0  0  0  0  0  0  0  0  0
    7.8292  -19.5990   19.0812 N   0  0  0  0  0  0  0  0  0  0  0  0
    8.0590  -19.1767   20.4709 C   0  0  0  0  0  0  0  0  0  0  0  0
    8.5233  -17.7312   20.5005 C   0  0  0  0  0  0  0  0  0  0  0  0
    8.6834  -17.3407   21.9206 C   0  0  0  0  0  0  0  0  0  0  0  0
    8.2642  -15.9567   22.2971 C   0  0  2  0  0  0  0  0  0  0  0  0
    8.7755  -15.1002   21.2149 N   0  0  0  0  0  0  0  0  0  0  0  0
    8.7217  -15.4825   23.6037 C   0  0  0  0  0  0  0  0  0  0  0  0
    9.9633  -15.2759   23.7675 O   0  0  0  0  0  0  0  0  0  0  0  0
    7.4638  -19.8088   16.5842 C   0  0  0  0  0  0  0  0  0  0  0  0
    5.5055  -12.3297   26.7909 C   0  0  1  0  0  0  0  0  0  0  0  0
    6.6564  -12.9609   26.0600 C   0  0  0  0  0  0  0  0  0  0  0  0
    7.6943  -11.8481   25.8543 C   0  0  0  0  0  0  0  0  0  0  0  0
    7.3524  -14.0533   26.7920 C   0  0  2  0  0  0  0  0  0  0  0  0
    8.4059  -14.7860   26.0027 N   0  0  0  0  0  0  0  0  0  0  0  0
    7.8953  -15.2268   24.7170 C   0  0  0  0  0  0  0  0  0  0  0  0
    9.0557  -15.8881   26.7421 O   0  0  0  0  0  0  0  0  0  0  0  0
    9.8710  -15.6874   27.8442 O   0  0  0  0  0  0  0  0  0  0  0  0
  2  1  1  6
  3  2  1  0
  4  5  2  0
  4  2  1  0
  6  7  1  0
  7  8  2  0
  9  7  1  0
  9 10  1  0
 10 11  1  0
 11 12  1  0
 13 12  1  6
 13 14  1  0
 14  4  1  0
 15 22  1  0
 15 13  1  0
 16 15  2  0
 18 17  1  6
 19 18  1  0
 20 18  1  0
 21 20  1  6
 21 22  1  0
 21 23  1  0
 23 24  1  0
 25 23  2  0
M  END
$$$$
