ARL.pdb
     RDKit          3D

 25 24  0  0  1  0  0  0  0  0999 V2000
    8.0966  -12.0834   19.7478 C   0  0  0  0  0  0  0  0  0  0  0  0
    8.2903  -13.5287   19.3418 C   0  0  2  0  0  0  0  0  0  0  0  0
    7.4012  -13.9257   18.2865 N   0  0  0  0  0  0  0  0  0  0  0  0
    8.1019  -14.4513   20.5013 C   0  0  0  0  0  0  0  0  0  0  0  0
    6.9294  -14.8166   20.8521 O   0  0  0  0  0  0  0  0  0  0  0  0
   13.0823  -19.5925   24.4545 N   0  0  0  0  0  0  0  0  0  0  0  0
   12.0069  -20.5122   24.3534 C   0  0  0  0  0  0  0  0  0  0  0  0
   11.9626  -21.5542   25.1301 N   0  0  0  0  0  0  0  0  0  0  0  0
   10.9439  -20.3564   23.4250 N   0  0  0  0  0  0  0  0  0  0  0  0
   10.8963  -19.2084   22.5073 C   0  0  0  0  0  0  0  0  0  0  0  0
    9.9643  -18.1445   23.0602 C   0  0  0  0  0  0  0  0  0  0  0  0
    9.9110  -17.0392   22.0751 C   0  0  0  0  0  0  0  0  0  0  0  0
    8.9743  -15.9122   22.3671 C   0  0  2  0  0  0  0  0  0  0  0  0
    9.1697  -14.9628   21.2596 N   0  0  0  0  0  0  0  0  0  0  0  0
    9.1498  -15.2532   23.6618 C   0  0  0  0  0  0  0  0  0  0  0  0
   10.2631  -14.6947   23.9063 O   0  0  0  0  0  0  0  0  0  0  0  0
   11.2505  -22.3037   25.0102 C   0  0  0  0  0  0  0  0  0  0  0  0
    5.6272  -11.9268   26.0497 C   0  0  2  0  0  0  0  0  0  0  0  0
    6.8692  -12.6555   25.6212 C   0  0  0  0  0  0  0  0  0  0  0  0
    8.0144  -11.6364   25.7080 C   0  0  0  0  0  0  0  0  0  0  0  0
    7.2626  -13.8028   26.4829 C   0  0  2  0  0  0  0  0  0  0  0  0
    8.4387  -14.6041   25.9884 N   0  0  0  0  0  0  0  0  0  0  0  0
    8.1779  -15.1778   24.6803 C   0  0  0  0  0  0  0  0  0  0  0  0
    8.9219  -15.6199   26.9465 O   0  0  0  0  0  0  0  0  0  0  0  0
    9.7363  -15.3199   28.0265 O   0  0  0  0  0  0  0  0  0  0  0  0
  2  1  1  1
  3  2  1  0
  4  5  2  0
  4  2  1  0
  6  7  1  0
  7  8  2  0
  9  7  1  0
  9 10  1  0
 10 11  1  0
 11 12  1  0
 13 12  1  6
 13 14  1  0
 14  4  1  0
 15 22  1  0
 15 13  1  0
 16 15  2  0
 18 17  1  6
 19 18  1  0
 20 18  1  0
 21 20  1  6
 21 22  1  0
 21 23  1  0
 23 24  1  0
 25 23  2  0
M  END
$$$$
