ARL.pdb
     RDKit          3D

 25 24  0  0  1  0  0  0  0  0999 V2000
    8.0416  -11.5163   20.1245 C   0  0  0  0  0  0  0  0  0  0  0  0
    8.2368  -12.8663   19.4683 C   0  0  2  0  0  0  0  0  0  0  0  0
    7.2205  -13.1557   18.4962 N   0  0  0  0  0  0  0  0  0  0  0  0
    8.2617  -13.9659   20.4790 C   0  0  0  0  0  0  0  0  0  0  0  0
    7.1940  -14.6068   20.7627 O   0  0  0  0  0  0  0  0  0  0  0  0
   14.7633  -16.7392   20.4730 N   0  0  0  0  0  0  0  0  0  0  0  0
   13.7056  -16.2772   19.6482 C   0  0  0  0  0  0  0  0  0  0  0  0
   13.6956  -15.0475   19.2252 N   0  0  0  0  0  0  0  0  0  0  0  0
   12.6242  -17.1047   19.2455 N   0  0  0  0  0  0  0  0  0  0  0  0
   11.8172  -17.8374   20.2325 C   0  0  0  0  0  0  0  0  0  0  0  0
   10.4991  -17.1176   20.4575 C   0  0  0  0  0  0  0  0  0  0  0  0
   10.6380  -16.3015   21.6863 C   0  0  0  0  0  0  0  0  0  0  0  0
    9.4539  -15.4900   22.1015 C   0  0  2  0  0  0  0  0  0  0  0  0
    9.4262  -14.3561   21.1636 N   0  0  0  0  0  0  0  0  0  0  0  0
    9.4514  -15.0251   23.4890 C   0  0  0  0  0  0  0  0  0  0  0  0
   10.4763  -14.4126   23.9198 O   0  0  0  0  0  0  0  0  0  0  0  0
   12.9138  -14.6652   18.6545 C   0  0  0  0  0  0  0  0  0  0  0  0
    5.3123  -12.7144   25.9422 C   0  0  1  0  0  0  0  0  0  0  0  0
    6.7052  -13.1425   25.5764 C   0  0  0  0  0  0  0  0  0  0  0  0
    7.6137  -11.9408   25.8732 C   0  0  0  0  0  0  0  0  0  0  0  0
    7.2474  -14.2826   26.3635 C   0  0  2  0  0  0  0  0  0  0  0  0
    8.5146  -14.8920   25.8223 N   0  0  0  0  0  0  0  0  0  0  0  0
    8.3955  -15.1955   24.4074 C   0  0  0  0  0  0  0  0  0  0  0  0
    9.0019  -16.0543   26.5936 O   0  0  0  0  0  0  0  0  0  0  0  0
    9.2352  -17.2979   26.0290 O   0  0  0  0  0  0  0  0  0  0  0  0
  2  1  1  1
  3  2  1  0
  4  5  2  0
  4  2  1  0
  6  7  1  0
  7  8  2  0
  9  7  1  0
  9 10  1  0
 10 11  1  0
 11 12  1  0
 13 12  1  6
 13 14  1  0
 14  4  1  0
 15 22  1  0
 15 13  1  0
 16 15  2  0
 18 17  1  6
 19 18  1  0
 20 18  1  0
 21 20  1  6
 21 22  1  0
 21 23  1  0
 23 24  1  0
 25 23  2  0
M  END
$$$$
