ARL.pdb
     RDKit          3D

 25 24  0  0  1  0  0  0  0  0999 V2000
    7.1444  -12.1684   19.1415 C   0  0  0  0  0  0  0  0  0  0  0  0
    8.2121  -13.2002   19.4360 C   0  0  2  0  0  0  0  0  0  0  0  0
    8.3424  -14.1698   18.3850 N   0  0  0  0  0  0  0  0  0  0  0  0
    7.9407  -13.9158   20.7187 C   0  0  0  0  0  0  0  0  0  0  0  0
    7.8124  -13.2620   21.8084 O   0  0  0  0  0  0  0  0  0  0  0  0
   10.5665  -19.6211   19.7807 N   0  0  0  0  0  0  0  0  0  0  0  0
    9.6075  -19.9363   18.7840 C   0  0  0  0  0  0  0  0  0  0  0  0
    9.9939  -20.3079   17.5992 N   0  0  0  0  0  0  0  0  0  0  0  0
    8.2076  -19.8675   19.0118 N   0  0  0  0  0  0  0  0  0  0  0  0
    7.6668  -19.3770   20.2882 C   0  0  0  0  0  0  0  0  0  0  0  0
    7.9835  -17.9005   20.4491 C   0  0  0  0  0  0  0  0  0  0  0  0
    7.3347  -17.4362   21.6974 C   0  0  0  0  0  0  0  0  0  0  0  0
    7.5369  -16.0054   22.0778 C   0  0  2  0  0  0  0  0  0  0  0  0
    7.8125  -15.3130   20.8086 N   0  0  0  0  0  0  0  0  0  0  0  0
    8.5925  -15.7467   23.0579 C   0  0  0  0  0  0  0  0  0  0  0  0
    9.6008  -15.0687   22.6908 O   0  0  0  0  0  0  0  0  0  0  0  0
    9.3165  -20.5483   16.8466 C   0  0  0  0  0  0  0  0  0  0  0  0
    8.6429  -12.2263   26.5396 C   0  0  2  0  0  0  0  0  0  0  0  0
    7.5466  -13.2532   26.5684 C   0  0  0  0  0  0  0  0  0  0  0  0
    6.2288  -12.4755   26.4413 C   0  0  0  0  0  0  0  0  0  0  0  0
    7.5644  -14.2340   25.4498 C   0  0  1  0  0  0  0  0  0  0  0  0
    8.6427  -15.2829   25.5322 N   0  0  0  0  0  0  0  0  0  0  0  0
    8.5915  -16.1870   24.3972 C   0  0  0  0  0  0  0  0  0  0  0  0
    8.6752  -16.0147   26.8154 O   0  0  0  0  0  0  0  0  0  0  0  0
    7.8173  -17.0602   27.1166 O   0  0  0  0  0  0  0  0  0  0  0  0
  2  1  1  6
  3  2  1  0
  4  5  2  0
  4  2  1  0
  6  7  1  0
  7  8  2  0
  9  7  1  0
  9 10  1  0
 10 11  1  0
 11 12  1  0
 13 12  1  6
 13 14  1  0
 14  4  1  0
 15 22  1  0
 15 13  1  0
 16 15  2  0
 18 17  1  1
 19 18  1  0
 20 18  1  0
 21 20  1  6
 21 22  1  0
 21 23  1  0
 23 24  1  0
 25 23  2  0
M  END
$$$$
