ARL.pdb
     RDKit          3D

 25 24  0  0  1  0  0  0  0  0999 V2000
    5.3950  -12.3305   26.4239 C   0  0  0  0  0  0  0  0  0  0  0  0
    6.7745  -12.4810   25.8194 C   0  0  2  0  0  0  0  0  0  0  0  0
    6.9443  -11.6865   24.6356 N   0  0  0  0  0  0  0  0  0  0  0  0
    7.0726  -13.9067   25.4879 C   0  0  0  0  0  0  0  0  0  0  0  0
    6.9429  -14.8168   26.3746 O   0  0  0  0  0  0  0  0  0  0  0  0
    9.8763  -13.9008   19.1737 N   0  0  0  0  0  0  0  0  0  0  0  0
    8.6089  -13.3267   18.8969 C   0  0  0  0  0  0  0  0  0  0  0  0
    8.5272  -12.2128   18.2306 N   0  0  0  0  0  0  0  0  0  0  0  0
    7.3872  -13.9154   19.3178 N   0  0  0  0  0  0  0  0  0  0  0  0
    7.3729  -15.0942   20.1967 C   0  0  0  0  0  0  0  0  0  0  0  0
    7.6819  -14.6772   21.6238 C   0  0  0  0  0  0  0  0  0  0  0  0
    7.6280  -15.8935   22.4680 C   0  0  0  0  0  0  0  0  0  0  0  0
    7.8863  -15.7193   23.9294 C   0  0  2  0  0  0  0  0  0  0  0  0
    7.5023  -14.3280   24.2172 N   0  0  0  0  0  0  0  0  0  0  0  0
    9.2539  -15.9901   24.3744 C   0  0  0  0  0  0  0  0  0  0  0  0
   10.1966  -15.3044   23.8720 O   0  0  0  0  0  0  0  0  0  0  0  0
    7.6174  -11.7395   18.0538 C   0  0  0  0  0  0  0  0  0  0  0  0
   11.9534  -14.4427   28.2346 C   0  0  2  0  0  0  0  0  0  0  0  0
   10.6028  -15.0582   28.4677 C   0  0  0  0  0  0  0  0  0  0  0  0
    9.7554  -13.9806   29.1594 C   0  0  0  0  0  0  0  0  0  0  0  0
    9.8615  -15.4496   27.2386 C   0  0  1  0  0  0  0  0  0  0  0  0
   10.4115  -16.6488   26.5111 N   0  0  0  0  0  0  0  0  0  0  0  0
    9.6276  -16.9581   25.3288 C   0  0  0  0  0  0  0  0  0  0  0  0
   10.6046  -17.8373   27.3677 O   0  0  0  0  0  0  0  0  0  0  0  0
    9.5598  -18.5138   27.9762 O   0  0  0  0  0  0  0  0  0  0  0  0
  2  1  1  6
  3  2  1  0
  4  5  2  0
  4  2  1  0
  6  7  1  0
  7  8  2  0
  9  7  1  0
  9 10  1  0
 10 11  1  0
 11 12  1  0
 13 12  1  6
 13 14  1  0
 14  4  1  0
 15 22  1  0
 15 13  1  0
 16 15  2  0
 18 17  1  1
 19 18  1  0
 20 18  1  0
 21 20  1  6
 21 22  1  0
 21 23  1  0
 23 24  1  0
 25 23  2  0
M  END
$$$$
