TIL.pdb
     RDKit          3D

 24 23  0  0  1  0  0  0  0  0999 V2000
    8.8431  -21.3484   21.4080 C   0  0  0  0  0  0  0  0  0  0  0  0
    9.1169  -19.9379   21.8114 C   0  0  1  0  0  0  0  0  0  0  0  0
   10.2502  -19.8583   22.6089 O   0  0  0  0  0  0  0  0  0  0  0  0
    9.3080  -19.0154   20.6274 C   0  0  2  0  0  0  0  0  0  0  0  0
   10.4787  -19.4439   19.8415 N   0  0  0  0  0  0  0  0  0  0  0  0
    9.4832  -17.5975   21.0164 C   0  0  0  0  0  0  0  0  0  0  0  0
   10.6603  -17.1096   21.0478 O   0  0  0  0  0  0  0  0  0  0  0  0
    7.6405  -11.9783   20.0554 C   0  0  0  0  0  0  0  0  0  0  0  0
    8.2457  -12.9330   21.0251 C   0  0  0  0  0  0  0  0  0  0  0  0
    7.9741  -14.3753   20.7796 C   0  0  2  0  0  0  0  0  0  0  0  0
    6.4585  -14.5695   20.9328 C   0  0  0  0  0  0  0  0  0  0  0  0
    8.6620  -15.3212   21.7067 C   0  0  2  0  0  0  0  0  0  0  0  0
    8.4357  -16.7109   21.3650 N   0  0  0  0  0  0  0  0  0  0  0  0
    8.4002  -15.0580   23.1437 C   0  0  0  0  0  0  0  0  0  0  0  0
    7.3233  -15.3783   23.7060 O   0  0  0  0  0  0  0  0  0  0  0  0
    5.8543  -12.4163   26.4773 C   0  0  0  0  0  0  0  0  0  0  0  0
    7.3046  -12.8703   26.6908 C   0  0  2  0  0  0  0  0  0  0  0  0
    8.0865  -11.7869   27.3568 C   0  0  0  0  0  0  0  0  0  0  0  0
    7.8292  -13.2455   25.3412 C   0  0  0  0  0  0  0  0  0  0  0  0
    9.0447  -14.1214   25.3736 C   0  0  2  0  0  0  0  0  0  0  0  0
    9.3785  -14.4155   23.9722 N   0  0  0  0  0  0  0  0  0  0  0  0
    8.8915  -15.3937   26.0719 C   0  0  0  0  0  0  0  0  0  0  0  0
    8.8214  -15.4259   27.3176 O   0  0  0  0  0  0  0  0  0  0  0  0
    8.8221  -16.5736   25.3675 O   0  0  0  0  0  0  0  0  0  0  0  0
  2  1  1  6
  3  2  1  0
  4  6  1  0
  4  2  1  0
  4  5  1  1
  6  7  2  0
  8  9  1  0
  9 10  1  0
 10 11  1  1
 12 10  1  0
 12 13  1  6
 13  6  1  0
 14 15  2  0
 14 12  1  0
 17 16  1  6
 17 18  1  0
 17 19  1  0
 20 19  1  6
 20 22  1  0
 20 21  1  0
 21 14  1  0
 22 24  1  0
 23 22  2  0
M  END
$$$$
