TIL.pdb
     RDKit          3D

 24 23  0  0  1  0  0  0  0  0999 V2000
    8.5187  -18.1753   19.7153 C   0  0  0  0  0  0  0  0  0  0  0  0
    8.7996  -17.5098   21.0212 C   0  0  1  0  0  0  0  0  0  0  0  0
   10.0460  -17.8765   21.5100 O   0  0  0  0  0  0  0  0  0  0  0  0
    8.7539  -15.9999   20.9323 C   0  0  2  0  0  0  0  0  0  0  0  0
    9.7947  -15.5203   20.0059 N   0  0  0  0  0  0  0  0  0  0  0  0
    8.9330  -15.3339   22.2426 C   0  0  0  0  0  0  0  0  0  0  0  0
   10.0681  -14.8276   22.5248 O   0  0  0  0  0  0  0  0  0  0  0  0
    5.1969  -12.1132   24.9297 C   0  0  0  0  0  0  0  0  0  0  0  0
    6.4707  -12.6930   24.4205 C   0  0  0  0  0  0  0  0  0  0  0  0
    6.9332  -13.9416   25.0850 C   0  0  2  0  0  0  0  0  0  0  0  0
    7.2153  -13.5810   26.5508 C   0  0  0  0  0  0  0  0  0  0  0  0
    8.1671  -14.5521   24.5086 C   0  0  2  0  0  0  0  0  0  0  0  0
    7.9325  -15.2040   23.2362 N   0  0  0  0  0  0  0  0  0  0  0  0
    8.9037  -15.4316   25.4502 C   0  0  0  0  0  0  0  0  0  0  0  0
    8.8588  -16.6853   25.3824 O   0  0  0  0  0  0  0  0  0  0  0  0
   10.3818  -16.8366   30.1291 C   0  0  0  0  0  0  0  0  0  0  0  0
   11.4004  -15.7589   29.7340 C   0  0  2  0  0  0  0  0  0  0  0  0
   11.7543  -14.9295   30.9238 C   0  0  0  0  0  0  0  0  0  0  0  0
   10.7739  -14.9773   28.6232 C   0  0  0  0  0  0  0  0  0  0  0  0
   10.3886  -15.7999   27.4313 C   0  0  2  0  0  0  0  0  0  0  0  0
    9.7144  -14.8844   26.4989 N   0  0  0  0  0  0  0  0  0  0  0  0
    9.4835  -16.9140   27.6950 C   0  0  0  0  0  0  0  0  0  0  0  0
    9.8750  -18.0913   27.5597 O   0  0  0  0  0  0  0  0  0  0  0  0
    8.1879  -16.6820   28.0959 O   0  0  0  0  0  0  0  0  0  0  0  0
  2  1  1  6
  3  2  1  0
  4  6  1  0
  4  2  1  0
  4  5  1  6
  6  7  2  0
  8  9  1  0
  9 10  1  0
 10 11  1  1
 12 10  1  0
 12 13  1  6
 13  6  1  0
 14 15  2  0
 14 12  1  0
 17 16  1  1
 17 18  1  0
 17 19  1  0
 20 19  1  1
 20 22  1  0
 20 21  1  0
 21 14  1  0
 22 24  1  0
 23 22  2  0
M  END
$$$$
