TIL.pdb
     RDKit          3D

 24 23  0  0  1  0  0  0  0  0999 V2000
    9.9886  -19.8931   22.4506 C   0  0  0  0  0  0  0  0  0  0  0  0
   10.7324  -19.6402   21.1818 C   0  0  1  0  0  0  0  0  0  0  0  0
   10.8033  -20.7901   20.4074 O   0  0  0  0  0  0  0  0  0  0  0  0
   10.1086  -18.5455   20.3439 C   0  0  2  0  0  0  0  0  0  0  0  0
   10.8445  -18.4039   19.0751 N   0  0  0  0  0  0  0  0  0  0  0  0
   10.0770  -17.2337   21.0300 C   0  0  0  0  0  0  0  0  0  0  0  0
   11.1046  -16.4823   20.9675 O   0  0  0  0  0  0  0  0  0  0  0  0
    6.8200  -13.2221   20.1530 C   0  0  0  0  0  0  0  0  0  0  0  0
    7.9582  -14.0674   20.6091 C   0  0  0  0  0  0  0  0  0  0  0  0
    7.8996  -14.5383   22.0195 C   0  0  2  0  0  0  0  0  0  0  0  0
    7.9394  -13.2836   22.9039 C   0  0  0  0  0  0  0  0  0  0  0  0
    9.0127  -15.4401   22.4381 C   0  0  2  0  0  0  0  0  0  0  0  0
    8.9810  -16.7241   21.7676 N   0  0  0  0  0  0  0  0  0  0  0  0
    9.1496  -15.5900   23.9083 C   0  0  0  0  0  0  0  0  0  0  0  0
    8.2317  -16.0527   24.6307 O   0  0  0  0  0  0  0  0  0  0  0  0
    8.2625  -13.0789   28.3236 C   0  0  0  0  0  0  0  0  0  0  0  0
    9.2878  -14.1828   28.0316 C   0  0  2  0  0  0  0  0  0  0  0  0
   10.5455  -13.9269   28.7943 C   0  0  0  0  0  0  0  0  0  0  0  0
    9.4784  -14.1958   26.5481 C   0  0  0  0  0  0  0  0  0  0  0  0
   10.3984  -15.2706   26.0539 C   0  0  2  0  0  0  0  0  0  0  0  0
   10.3545  -15.2080   24.5856 N   0  0  0  0  0  0  0  0  0  0  0  0
   10.0556  -16.6320   26.4526 C   0  0  0  0  0  0  0  0  0  0  0  0
   10.8238  -17.2877   27.1858 O   0  0  0  0  0  0  0  0  0  0  0  0
    8.8823  -17.2106   26.0262 O   0  0  0  0  0  0  0  0  0  0  0  0
  2  1  1  1
  3  2  1  0
  4  6  1  0
  4  2  1  0
  4  5  1  6
  6  7  2  0
  8  9  1  0
  9 10  1  0
 10 11  1  1
 12 10  1  0
 12 13  1  6
 13  6  1  0
 14 15  2  0
 14 12  1  0
 17 16  1  6
 17 18  1  0
 17 19  1  0
 20 19  1  1
 20 22  1  0
 20 21  1  0
 21 14  1  0
 22 24  1  0
 23 22  2  0
M  END
$$$$
