TIL.pdb
     RDKit          3D

 24 23  0  0  1  0  0  0  0  0999 V2000
   11.2660  -19.3026   22.3598 C   0  0  0  0  0  0  0  0  0  0  0  0
   12.4353  -18.5826   21.7752 C   0  0  1  0  0  0  0  0  0  0  0  0
   13.1797  -19.4216   20.9575 O   0  0  0  0  0  0  0  0  0  0  0  0
   12.0325  -17.3701   20.9646 C   0  0  2  0  0  0  0  0  0  0  0  0
   13.2321  -16.7096   20.4203 N   0  0  0  0  0  0  0  0  0  0  0  0
   11.2517  -16.3821   21.7436 C   0  0  0  0  0  0  0  0  0  0  0  0
   11.8708  -15.5860   22.5229 O   0  0  0  0  0  0  0  0  0  0  0  0
    7.1963  -13.0975   20.0652 C   0  0  0  0  0  0  0  0  0  0  0  0
    8.3329  -13.7287   20.7915 C   0  0  0  0  0  0  0  0  0  0  0  0
    7.9688  -14.6683   21.8866 C   0  0  2  0  0  0  0  0  0  0  0  0
    7.1987  -13.8481   22.9317 C   0  0  0  0  0  0  0  0  0  0  0  0
    9.1195  -15.3306   22.5683 C   0  0  2  0  0  0  0  0  0  0  0  0
    9.8440  -16.2366   21.7003 N   0  0  0  0  0  0  0  0  0  0  0  0
    8.7705  -15.9688   23.8620 C   0  0  0  0  0  0  0  0  0  0  0  0
    8.5017  -17.1919   23.9636 O   0  0  0  0  0  0  0  0  0  0  0  0
   10.7546  -15.3472   28.1735 C   0  0  0  0  0  0  0  0  0  0  0  0
    9.8491  -14.2377   27.6219 C   0  0  2  0  0  0  0  0  0  0  0  0
    9.8353  -13.0760   28.5594 C   0  0  0  0  0  0  0  0  0  0  0  0
    8.5037  -14.8584   27.4165 C   0  0  0  0  0  0  0  0  0  0  0  0
    8.4649  -15.9060   26.3455 C   0  0  2  0  0  0  0  0  0  0  0  0
    8.7223  -15.2086   25.0770 N   0  0  0  0  0  0  0  0  0  0  0  0
    7.2038  -16.6278   26.2096 C   0  0  0  0  0  0  0  0  0  0  0  0
    6.9978  -17.6685   26.8670 O   0  0  0  0  0  0  0  0  0  0  0  0
    6.2259  -16.1715   25.3560 O   0  0  0  0  0  0  0  0  0  0  0  0
  2  1  1  6
  3  2  1  0
  4  6  1  0
  4  2  1  0
  4  5  1  1
  6  7  2  0
  8  9  1  0
  9 10  1  0
 10 11  1  1
 12 10  1  0
 12 13  1  6
 13  6  1  0
 14 15  2  0
 14 12  1  0
 17 16  1  1
 17 18  1  0
 17 19  1  0
 20 19  1  1
 20 22  1  0
 20 21  1  0
 21 14  1  0
 22 24  1  0
 23 22  2  0
M  END
$$$$
