TIL.pdb
     RDKit          3D

 24 23  0  0  1  0  0  0  0  0999 V2000
    9.3491  -19.4226   22.4102 C   0  0  0  0  0  0  0  0  0  0  0  0
   10.3212  -19.4062   21.2780 C   0  0  1  0  0  0  0  0  0  0  0  0
   10.4448  -20.6660   20.7083 O   0  0  0  0  0  0  0  0  0  0  0  0
    9.9352  -18.4315   20.1869 C   0  0  2  0  0  0  0  0  0  0  0  0
   10.9118  -18.4990   19.0854 N   0  0  0  0  0  0  0  0  0  0  0  0
    9.8430  -17.0321   20.6623 C   0  0  0  0  0  0  0  0  0  0  0  0
   10.9183  -16.3991   20.9221 O   0  0  0  0  0  0  0  0  0  0  0  0
    7.2936  -12.7189   18.7041 C   0  0  0  0  0  0  0  0  0  0  0  0
    8.2087  -13.6018   19.4795 C   0  0  0  0  0  0  0  0  0  0  0  0
    7.7182  -14.0424   20.8136 C   0  0  2  0  0  0  0  0  0  0  0  0
    7.6148  -12.7806   21.6826 C   0  0  0  0  0  0  0  0  0  0  0  0
    8.5894  -15.0263   21.5209 C   0  0  2  0  0  0  0  0  0  0  0  0
    8.6386  -16.3142   20.8590 N   0  0  0  0  0  0  0  0  0  0  0  0
    8.2960  -15.1626   22.9694 C   0  0  0  0  0  0  0  0  0  0  0  0
    7.2716  -15.7480   23.4011 O   0  0  0  0  0  0  0  0  0  0  0  0
    5.7222  -12.5714   26.4489 C   0  0  0  0  0  0  0  0  0  0  0  0
    7.1589  -13.0479   26.7011 C   0  0  2  0  0  0  0  0  0  0  0  0
    7.9154  -12.0101   27.4624 C   0  0  0  0  0  0  0  0  0  0  0  0
    7.7422  -13.3497   25.3572 C   0  0  0  0  0  0  0  0  0  0  0  0
    8.7067  -14.4967   25.3470 C   0  0  2  0  0  0  0  0  0  0  0  0
    9.1809  -14.6243   23.9611 N   0  0  0  0  0  0  0  0  0  0  0  0
    8.1610  -15.7881   25.7522 C   0  0  0  0  0  0  0  0  0  0  0  0
    7.0660  -16.1809   25.3002 O   0  0  0  0  0  0  0  0  0  0  0  0
    8.8453  -16.5894   26.6370 O   0  0  0  0  0  0  0  0  0  0  0  0
  2  1  1  1
  3  2  1  0
  4  6  1  0
  4  2  1  0
  4  5  1  6
  6  7  2  0
  8  9  1  0
  9 10  1  0
 10 11  1  1
 12 10  1  0
 12 13  1  6
 13  6  1  0
 14 15  2  0
 14 12  1  0
 17 16  1  6
 17 18  1  0
 17 19  1  0
 20 19  1  6
 20 22  1  0
 20 21  1  0
 21 14  1  0
 22 24  1  0
 23 22  2  0
M  END
$$$$
