TIL.pdb
     RDKit          3D

 24 23  0  0  1  0  0  0  0  0999 V2000
   12.2033  -19.8098   20.2286 C   0  0  0  0  0  0  0  0  0  0  0  0
   11.5707  -18.8010   21.1282 C   0  0  1  0  0  0  0  0  0  0  0  0
   12.0794  -18.8928   22.4165 O   0  0  0  0  0  0  0  0  0  0  0  0
   11.7646  -17.3802   20.6451 C   0  0  2  0  0  0  0  0  0  0  0  0
   13.2023  -17.0614   20.5889 N   0  0  0  0  0  0  0  0  0  0  0  0
   11.0831  -16.3779   21.4956 C   0  0  0  0  0  0  0  0  0  0  0  0
   11.7836  -15.6631   22.2848 O   0  0  0  0  0  0  0  0  0  0  0  0
    6.8172  -12.9797   20.3681 C   0  0  0  0  0  0  0  0  0  0  0  0
    8.0401  -13.5943   20.9551 C   0  0  0  0  0  0  0  0  0  0  0  0
    7.8152  -14.6295   22.0003 C   0  0  2  0  0  0  0  0  0  0  0  0
    7.1316  -13.9223   23.1795 C   0  0  0  0  0  0  0  0  0  0  0  0
    9.0471  -15.3009   22.5092 C   0  0  2  0  0  0  0  0  0  0  0  0
    9.6884  -16.1340   21.5123 N   0  0  0  0  0  0  0  0  0  0  0  0
    8.8564  -16.0243   23.7910 C   0  0  0  0  0  0  0  0  0  0  0  0
    8.5448  -17.2404   23.8429 O   0  0  0  0  0  0  0  0  0  0  0  0
   10.9785  -14.9228   28.0527 C   0  0  0  0  0  0  0  0  0  0  0  0
    9.7967  -14.1353   27.4712 C   0  0  2  0  0  0  0  0  0  0  0  0
    9.5101  -12.9419   28.3212 C   0  0  0  0  0  0  0  0  0  0  0  0
    8.6547  -15.0973   27.3837 C   0  0  0  0  0  0  0  0  0  0  0  0
    8.7876  -16.1147   26.2914 C   0  0  2  0  0  0  0  0  0  0  0  0
    9.0208  -15.3601   25.0512 N   0  0  0  0  0  0  0  0  0  0  0  0
    7.6267  -16.9732   26.0794 C   0  0  0  0  0  0  0  0  0  0  0  0
    7.6002  -18.1277   26.5529 O   0  0  0  0  0  0  0  0  0  0  0  0
    6.5469  -16.5224   25.3557 O   0  0  0  0  0  0  0  0  0  0  0  0
  2  1  1  6
  3  2  1  0
  4  6  1  0
  4  2  1  0
  4  5  1  1
  6  7  2  0
  8  9  1  0
  9 10  1  0
 10 11  1  1
 12 10  1  0
 12 13  1  6
 13  6  1  0
 14 15  2  0
 14 12  1  0
 17 16  1  1
 17 18  1  0
 17 19  1  0
 20 19  1  1
 20 22  1  0
 20 21  1  0
 21 14  1  0
 22 24  1  0
 23 22  2  0
M  END
$$$$
