TIL.pdb
     RDKit          3D

 24 23  0  0  1  0  0  0  0  0999 V2000
    7.8447  -19.5654   22.3519 C   0  0  0  0  0  0  0  0  0  0  0  0
    9.0149  -19.7421   21.4426 C   0  0  1  0  0  0  0  0  0  0  0  0
    8.9810  -20.9830   20.8215 O   0  0  0  0  0  0  0  0  0  0  0  0
    9.0891  -18.6791   20.3683 C   0  0  2  0  0  0  0  0  0  0  0  0
   10.2288  -18.9487   19.4738 N   0  0  0  0  0  0  0  0  0  0  0  0
    9.2198  -17.3086   20.9134 C   0  0  0  0  0  0  0  0  0  0  0  0
   10.3479  -16.9354   21.3745 O   0  0  0  0  0  0  0  0  0  0  0  0
    7.2930  -12.7188   18.7696 C   0  0  0  0  0  0  0  0  0  0  0  0
    8.0906  -13.7013   19.5547 C   0  0  0  0  0  0  0  0  0  0  0  0
    7.6242  -13.9619   20.9437 C   0  0  2  0  0  0  0  0  0  0  0  0
    7.8624  -12.6690   21.7372 C   0  0  0  0  0  0  0  0  0  0  0  0
    8.3176  -15.0783   21.6510 C   0  0  2  0  0  0  0  0  0  0  0  0
    8.1796  -16.3496   20.9701 N   0  0  0  0  0  0  0  0  0  0  0  0
    7.9777  -15.1856   23.0917 C   0  0  0  0  0  0  0  0  0  0  0  0
    6.8885  -15.6628   23.4971 O   0  0  0  0  0  0  0  0  0  0  0  0
    5.8122  -12.1608   26.4984 C   0  0  0  0  0  0  0  0  0  0  0  0
    7.1633  -12.8775   26.6252 C   0  0  2  0  0  0  0  0  0  0  0  0
    8.2772  -11.8875   26.5359 C   0  0  0  0  0  0  0  0  0  0  0  0
    7.1920  -13.9115   25.5447 C   0  0  0  0  0  0  0  0  0  0  0  0
    8.4467  -14.7301   25.5078 C   0  0  2  0  0  0  0  0  0  0  0  0
    8.8897  -14.7429   24.1058 N   0  0  0  0  0  0  0  0  0  0  0  0
    8.3133  -16.1158   25.9458 C   0  0  0  0  0  0  0  0  0  0  0  0
    9.1070  -16.5929   26.7825 O   0  0  0  0  0  0  0  0  0  0  0  0
    7.3119  -16.9143   25.4431 O   0  0  0  0  0  0  0  0  0  0  0  0
  2  1  1  6
  3  2  1  0
  4  6  1  0
  4  2  1  0
  4  5  1  6
  6  7  2  0
  8  9  1  0
  9 10  1  0
 10 11  1  1
 12 10  1  0
 12 13  1  6
 13  6  1  0
 14 15  2  0
 14 12  1  0
 17 16  1  6
 17 18  1  0
 17 19  1  0
 20 19  1  6
 20 22  1  0
 20 21  1  0
 21 14  1  0
 22 24  1  0
 23 22  2  0
M  END
$$$$
