RAW.pdb
     RDKit          3D

 31 32  0  0  1  0  0  0  0  0999 V2000
    7.8523  -12.7248   15.4711 N   0  0  0  0  0  0  0  0  0  0  0  0
    8.1852  -13.9314   16.1860 C   0  0  0  0  0  0  0  0  0  0  0  0
    8.1427  -15.0698   15.5967 N   0  0  0  0  0  0  0  0  0  0  0  0
    8.5648  -13.8815   17.5534 N   0  0  0  0  0  0  0  0  0  0  0  0
    7.7363  -13.3033   18.5860 C   0  0  0  0  0  0  0  0  0  0  0  0
    6.7976  -14.3985   19.0876 C   0  0  0  0  0  0  0  0  0  0  0  0
    7.0851  -14.6994   20.5561 C   0  0  0  0  0  0  0  0  0  0  0  0
    8.2054  -15.7130   20.5893 C   0  0  2  0  0  0  0  0  0  0  0  0
    8.0221  -16.6533   19.5440 N   0  0  0  0  0  0  0  0  0  0  0  0
    8.3910  -16.3042   21.9238 C   0  0  0  0  0  0  0  0  0  0  0  0
    7.4658  -16.2518   22.7562 O   0  0  0  0  0  0  0  0  0  0  0  0
    8.4347  -15.9216   16.0961 C   0  0  0  0  0  0  0  0  0  0  0  0
   11.1107  -18.3247   23.7051 C   0  0  2  0  0  0  0  0  0  0  0  0
    9.7569  -17.6082   23.5876 N   0  0  0  0  0  0  0  0  0  0  0  0
    9.6159  -16.9557   22.3226 C   0  0  0  0  0  0  0  0  0  0  0  0
    9.7012  -16.6760   24.7439 O   0  0  0  0  0  0  0  0  0  0  0  0
    9.0708  -15.5763   24.7039 N   0  0  0  0  0  0  0  0  0  0  0  0
   10.3526  -16.9589   25.9738 C   0  0  1  0  0  0  0  0  0  0  0  0
   10.1829  -16.1129   27.1749 C   0  0  0  0  0  0  0  0  0  0  0  0
    8.7000  -16.1511   27.4437 C   0  0  0  0  0  0  0  0  0  0  0  0
    7.8556  -15.3018   26.6215 C   0  0  0  0  0  0  0  0  0  0  0  0
    6.9660  -15.7348   25.6581 N   0  0  0  0  0  0  0  0  0  0  0  0
    6.4093  -14.6529   25.0906 C   0  0  0  0  0  0  0  0  0  0  0  0
    6.9038  -13.5265   25.6502 C   0  0  0  0  0  0  0  0  0  0  0  0
    6.6256  -12.1965   25.4110 C   0  0  0  0  0  0  0  0  0  0  0  0
    7.2693  -11.2340   26.1524 C   0  0  0  0  0  0  0  0  0  0  0  0
    8.1791  -11.5710   27.1210 C   0  0  0  0  0  0  0  0  0  0  0  0
    8.4313  -12.9010   27.3307 C   0  0  0  0  0  0  0  0  0  0  0  0
    7.8052  -13.9158   26.6050 C   0  0  0  0  0  0  0  0  0  0  0  0
   10.9367  -16.6016   28.3229 O   0  0  0  0  0  0  0  0  0  0  0  0
   10.9337  -15.9934   29.4162 O   0  0  0  0  0  0  0  0  0  0  0  0
  1  2  1  0
  2  4  1  0
  2  3  2  0
  4  5  1  0
  5  6  1  0
  7  6  1  0
  7  8  1  0
  8 10  1  0
  8  9  1  6
 10 11  2  0
 13 12  1  6
 14 13  1  0
 14 10  1  0
 15 17  1  0
 15 13  1  0
 16 15  2  0
 18 19  1  6
 18 17  1  0
 19 20  1  0
 20 28  1  0
 20 21  2  0
 21 22  1  0
 23 22  1  0
 23 24  2  0
 25 24  1  0
 26 25  2  0
 27 26  1  0
 27 28  2  0
 28 23  1  0
 29 18  1  0
 29 31  1  0
 30 29  2  0
M  END
$$$$
