RAW.pdb
     RDKit          3D

 31 32  0  0  1  0  0  0  0  0999 V2000
    7.9495  -13.9954   13.7699 N   0  0  0  0  0  0  0  0  0  0  0  0
    7.8101  -13.3192   15.0352 C   0  0  0  0  0  0  0  0  0  0  0  0
    6.9766  -12.3536   15.1688 N   0  0  0  0  0  0  0  0  0  0  0  0
    8.5925  -13.7088   16.1544 N   0  0  0  0  0  0  0  0  0  0  0  0
    8.7482  -15.0824   16.5738 C   0  0  0  0  0  0  0  0  0  0  0  0
    7.9541  -15.2602   17.8659 C   0  0  0  0  0  0  0  0  0  0  0  0
    8.5343  -14.3695   18.9613 C   0  0  0  0  0  0  0  0  0  0  0  0
    9.5292  -15.2063   19.7318 C   0  0  2  0  0  0  0  0  0  0  0  0
   10.0394  -16.2268   18.8900 N   0  0  0  0  0  0  0  0  0  0  0  0
    8.9915  -15.6797   21.0170 C   0  0  0  0  0  0  0  0  0  0  0  0
    8.4157  -14.8788   21.7776 O   0  0  0  0  0  0  0  0  0  0  0  0
    6.8712  -11.8839   16.0791 C   0  0  0  0  0  0  0  0  0  0  0  0
    8.5441  -19.0197   22.8054 C   0  0  2  0  0  0  0  0  0  0  0  0
    8.6492  -17.4888   22.7328 N   0  0  0  0  0  0  0  0  0  0  0  0
    9.0994  -17.0535   21.4469 C   0  0  0  0  0  0  0  0  0  0  0  0
    9.5609  -17.1021   23.8412 O   0  0  0  0  0  0  0  0  0  0  0  0
   10.7963  -16.8787   23.6619 N   0  0  0  0  0  0  0  0  0  0  0  0
    9.1045  -16.9563   25.1781 C   0  0  1  0  0  0  0  0  0  0  0  0
   10.0212  -16.6717   26.3033 C   0  0  0  0  0  0  0  0  0  0  0  0
    9.2836  -15.6469   27.1268 C   0  0  0  0  0  0  0  0  0  0  0  0
    8.0759  -15.0798   26.5521 C   0  0  0  0  0  0  0  0  0  0  0  0
    6.9362  -15.7805   26.2103 N   0  0  0  0  0  0  0  0  0  0  0  0
    6.0620  -14.9149   25.6728 C   0  0  0  0  0  0  0  0  0  0  0  0
    6.5906  -13.6713   25.6516 C   0  0  0  0  0  0  0  0  0  0  0  0
    6.0695  -12.4708   25.2147 C   0  0  0  0  0  0  0  0  0  0  0  0
    6.8281  -11.3300   25.3303 C   0  0  0  0  0  0  0  0  0  0  0  0
    8.0881  -11.3640   25.8697 C   0  0  0  0  0  0  0  0  0  0  0  0
    8.5736  -12.5732   26.2922 C   0  0  0  0  0  0  0  0  0  0  0  0
    7.8441  -13.7594   26.1963 C   0  0  0  0  0  0  0  0  0  0  0  0
   10.3311  -17.8560   27.0947 O   0  0  0  0  0  0  0  0  0  0  0  0
    9.7350  -18.9407   26.9123 O   0  0  0  0  0  0  0  0  0  0  0  0
  1  2  1  0
  2  4  1  0
  2  3  2  0
  4  5  1  0
  5  6  1  0
  7  6  1  0
  7  8  1  0
  8 10  1  0
  8  9  1  6
 10 11  2  0
 13 12  1  6
 14 13  1  0
 14 10  1  0
 15 17  1  0
 15 13  1  0
 16 15  2  0
 18 19  1  1
 18 17  1  0
 19 20  1  0
 20 28  1  0
 20 21  2  0
 21 22  1  0
 23 22  1  0
 23 24  2  0
 25 24  1  0
 26 25  2  0
 27 26  1  0
 27 28  2  0
 28 23  1  0
 29 18  1  0
 29 31  1  0
 30 29  2  0
M  END
$$$$
