RAW.pdb
     RDKit          3D

 31 32  0  0  1  0  0  0  0  0999 V2000
    9.0807  -13.6096   15.2874 N   0  0  0  0  0  0  0  0  0  0  0  0
    7.7409  -13.4691   15.8003 C   0  0  0  0  0  0  0  0  0  0  0  0
    6.7285  -13.7099   15.0506 N   0  0  0  0  0  0  0  0  0  0  0  0
    7.5184  -13.0613   17.1422 N   0  0  0  0  0  0  0  0  0  0  0  0
    8.5519  -13.0569   18.1515 C   0  0  0  0  0  0  0  0  0  0  0  0
    9.0979  -14.4792   18.2552 C   0  0  0  0  0  0  0  0  0  0  0  0
   10.1621  -14.5510   19.3471 C   0  0  0  0  0  0  0  0  0  0  0  0
   10.5435  -16.0054   19.4986 C   0  0  2  0  0  0  0  0  0  0  0  0
   10.3592  -16.6729   18.2614 N   0  0  0  0  0  0  0  0  0  0  0  0
    9.8827  -16.6444   20.6476 C   0  0  0  0  0  0  0  0  0  0  0  0
    8.6398  -16.6335   20.7292 O   0  0  0  0  0  0  0  0  0  0  0  0
    5.7745  -13.5474   15.4025 C   0  0  0  0  0  0  0  0  0  0  0  0
   10.4027  -19.2059   23.2304 C   0  0  2  0  0  0  0  0  0  0  0  0
    9.9862  -17.7650   22.8987 N   0  0  0  0  0  0  0  0  0  0  0  0
   10.6185  -17.2971   21.7041 C   0  0  0  0  0  0  0  0  0  0  0  0
   10.3322  -16.9662   24.1034 O   0  0  0  0  0  0  0  0  0  0  0  0
   11.0963  -15.9552   24.0553 N   0  0  0  0  0  0  0  0  0  0  0  0
    9.8262  -17.2848   25.3916 C   0  0  1  0  0  0  0  0  0  0  0  0
   10.2687  -16.5810   26.6147 C   0  0  0  0  0  0  0  0  0  0  0  0
    9.8931  -15.1424   26.3660 C   0  0  0  0  0  0  0  0  0  0  0  0
    8.4963  -14.8621   26.0820 C   0  0  0  0  0  0  0  0  0  0  0  0
    7.5252  -15.8003   25.7929 N   0  0  0  0  0  0  0  0  0  0  0  0
    6.3773  -15.1482   25.5485 C   0  0  0  0  0  0  0  0  0  0  0  0
    6.5640  -13.8151   25.6684 C   0  0  0  0  0  0  0  0  0  0  0  0
    5.6865  -12.7595   25.5291 C   0  0  0  0  0  0  0  0  0  0  0  0
    6.1429  -11.4784   25.7306 C   0  0  0  0  0  0  0  0  0  0  0  0
    7.4493  -11.2321   26.0660 C   0  0  0  0  0  0  0  0  0  0  0  0
    8.2925  -12.3039   26.1949 C   0  0  0  0  0  0  0  0  0  0  0  0
    7.8787  -13.6228   26.0004 C   0  0  0  0  0  0  0  0  0  0  0  0
    9.6297  -17.0886   27.8226 O   0  0  0  0  0  0  0  0  0  0  0  0
    9.8813  -16.6065   28.9494 O   0  0  0  0  0  0  0  0  0  0  0  0
  1  2  1  0
  2  4  1  0
  2  3  2  0
  4  5  1  0
  5  6  1  0
  7  6  1  0
  7  8  1  0
  8 10  1  0
  8  9  1  6
 10 11  2  0
 13 12  1  6
 14 13  1  0
 14 10  1  0
 15 17  1  0
 15 13  1  0
 16 15  2  0
 18 19  1  1
 18 17  1  0
 19 20  1  0
 20 28  1  0
 20 21  2  0
 21 22  1  0
 23 22  1  0
 23 24  2  0
 25 24  1  0
 26 25  2  0
 27 26  1  0
 27 28  2  0
 28 23  1  0
 29 18  1  0
 29 31  1  0
 30 29  2  0
M  END
$$$$
