RAW.pdb
     RDKit          3D

 31 32  0  0  1  0  0  0  0  0999 V2000
    8.6173  -14.9968   18.0106 N   0  0  0  0  0  0  0  0  0  0  0  0
    8.6080  -13.5807   18.2799 C   0  0  0  0  0  0  0  0  0  0  0  0
    9.2253  -12.7668   17.5045 N   0  0  0  0  0  0  0  0  0  0  0  0
    7.9170  -13.0626   19.4070 N   0  0  0  0  0  0  0  0  0  0  0  0
    7.5533  -13.8649   20.5521 C   0  0  0  0  0  0  0  0  0  0  0  0
    6.6492  -14.9906   20.0548 C   0  0  0  0  0  0  0  0  0  0  0  0
    6.2585  -15.8981   21.2183 C   0  0  0  0  0  0  0  0  0  0  0  0
    7.5411  -16.3479   21.8789 C   0  0  2  0  0  0  0  0  0  0  0  0
    8.2208  -17.2514   21.0234 N   0  0  0  0  0  0  0  0  0  0  0  0
    7.3267  -16.8399   23.2489 C   0  0  0  0  0  0  0  0  0  0  0  0
    6.1800  -16.8315   23.7354 O   0  0  0  0  0  0  0  0  0  0  0  0
    9.2115  -11.7558   17.6997 C   0  0  0  0  0  0  0  0  0  0  0  0
    7.4738  -19.5028   24.7760 C   0  0  2  0  0  0  0  0  0  0  0  0
    8.1664  -18.1971   25.1949 N   0  0  0  0  0  0  0  0  0  0  0  0
    8.4007  -17.3429   24.0719 C   0  0  0  0  0  0  0  0  0  0  0  0
    9.4116  -18.6155   25.8903 O   0  0  0  0  0  0  0  0  0  0  0  0
    9.4920  -19.6912   26.5572 N   0  0  0  0  0  0  0  0  0  0  0  0
   10.5969  -17.8343   25.8514 C   0  0  2  0  0  0  0  0  0  0  0  0
   10.7420  -16.5735   26.6108 C   0  0  0  0  0  0  0  0  0  0  0  0
    9.6507  -15.6887   26.0641 C   0  0  0  0  0  0  0  0  0  0  0  0
    9.2095  -14.5868   26.9016 C   0  0  0  0  0  0  0  0  0  0  0  0
    9.7186  -14.2595   28.1428 N   0  0  0  0  0  0  0  0  0  0  0  0
    9.0238  -13.2116   28.6135 C   0  0  0  0  0  0  0  0  0  0  0  0
    8.0776  -12.8415   27.7223 C   0  0  0  0  0  0  0  0  0  0  0  0
    7.1469  -11.8235   27.7567 C   0  0  0  0  0  0  0  0  0  0  0  0
    6.3013  -11.6531   26.6861 C   0  0  0  0  0  0  0  0  0  0  0  0
    6.3660  -12.4735   25.5896 C   0  0  0  0  0  0  0  0  0  0  0  0
    7.3015  -13.4741   25.5902 C   0  0  0  0  0  0  0  0  0  0  0  0
    8.1821  -13.6891   26.6517 C   0  0  0  0  0  0  0  0  0  0  0  0
   10.5956  -16.7588   28.0493 O   0  0  0  0  0  0  0  0  0  0  0  0
    9.7372  -17.5339   28.5264 O   0  0  0  0  0  0  0  0  0  0  0  0
  1  2  1  0
  2  4  1  0
  2  3  2  0
  4  5  1  0
  5  6  1  0
  7  6  1  0
  7  8  1  0
  8 10  1  0
  8  9  1  6
 10 11  2  0
 13 12  1  1
 14 13  1  0
 14 10  1  0
 15 17  1  0
 15 13  1  0
 16 15  2  0
 18 19  1  6
 18 17  1  0
 19 20  1  0
 20 28  1  0
 20 21  2  0
 21 22  1  0
 23 22  1  0
 23 24  2  0
 25 24  1  0
 26 25  2  0
 27 26  1  0
 27 28  2  0
 28 23  1  0
 29 18  1  0
 29 31  1  0
 30 29  2  0
M  END
$$$$
