RAW.pdb
     RDKit          3D

 31 32  0  0  1  0  0  0  0  0999 V2000
    9.8834  -17.0582   13.8524 N   0  0  0  0  0  0  0  0  0  0  0  0
    9.9366  -18.4983   13.8843 C   0  0  0  0  0  0  0  0  0  0  0  0
   10.7941  -19.1338   13.1731 N   0  0  0  0  0  0  0  0  0  0  0  0
    9.0414  -19.2380   14.7016 N   0  0  0  0  0  0  0  0  0  0  0  0
    8.1215  -18.6219   15.6296 C   0  0  0  0  0  0  0  0  0  0  0  0
    8.7592  -18.6823   17.0158 C   0  0  0  0  0  0  0  0  0  0  0  0
    7.7750  -18.1724   18.0652 C   0  0  0  0  0  0  0  0  0  0  0  0
    8.5218  -18.1064   19.3773 C   0  0  2  0  0  0  0  0  0  0  0  0
    7.8786  -18.9379   20.3286 N   0  0  0  0  0  0  0  0  0  0  0  0
    8.7536  -16.7239   19.8246 C   0  0  0  0  0  0  0  0  0  0  0  0
    9.6752  -16.0573   19.3168 O   0  0  0  0  0  0  0  0  0  0  0  0
   10.7555  -20.1610   13.1121 C   0  0  0  0  0  0  0  0  0  0  0  0
    6.9892  -14.0299   21.7664 C   0  0  2  0  0  0  0  0  0  0  0  0
    8.2590  -14.7948   21.3635 N   0  0  0  0  0  0  0  0  0  0  0  0
    7.9489  -16.0899   20.8415 C   0  0  0  0  0  0  0  0  0  0  0  0
    9.1009  -14.8362   22.5877 O   0  0  0  0  0  0  0  0  0  0  0  0
    9.8230  -13.8595   22.9524 N   0  0  0  0  0  0  0  0  0  0  0  0
    9.1502  -15.9771   23.4319 C   0  0  1  0  0  0  0  0  0  0  0  0
   10.1941  -16.1565   24.4640 C   0  0  0  0  0  0  0  0  0  0  0  0
    9.8244  -15.1630   25.5359 C   0  0  0  0  0  0  0  0  0  0  0  0
    8.4086  -14.9396   25.7721 C   0  0  0  0  0  0  0  0  0  0  0  0
    7.4092  -15.8851   25.6530 N   0  0  0  0  0  0  0  0  0  0  0  0
    6.2365  -15.2846   25.9107 C   0  0  0  0  0  0  0  0  0  0  0  0
    6.4343  -13.9782   26.1951 C   0  0  0  0  0  0  0  0  0  0  0  0
    5.5459  -12.9784   26.5337 C   0  0  0  0  0  0  0  0  0  0  0  0
    6.0260  -11.7174   26.7976 C   0  0  0  0  0  0  0  0  0  0  0  0
    7.3663  -11.4369   26.7304 C   0  0  0  0  0  0  0  0  0  0  0  0
    8.2191  -12.4536   26.3904 C   0  0  0  0  0  0  0  0  0  0  0  0
    7.7821  -13.7498   26.1126 C   0  0  0  0  0  0  0  0  0  0  0  0
   10.2358  -17.5124   24.9977 O   0  0  0  0  0  0  0  0  0  0  0  0
   11.0712  -17.8498   25.8657 O   0  0  0  0  0  0  0  0  0  0  0  0
  1  2  1  0
  2  4  1  0
  2  3  2  0
  4  5  1  0
  5  6  1  0
  7  6  1  0
  7  8  1  0
  8 10  1  0
  8  9  1  1
 10 11  2  0
 13 12  1  6
 14 13  1  0
 14 10  1  0
 15 17  1  0
 15 13  1  0
 16 15  2  0
 18 19  1  1
 18 17  1  0
 19 20  1  0
 20 28  1  0
 20 21  2  0
 21 22  1  0
 23 22  1  0
 23 24  2  0
 25 24  1  0
 26 25  2  0
 27 26  1  0
 27 28  2  0
 28 23  1  0
 29 18  1  0
 29 31  1  0
 30 29  2  0
M  END
$$$$
