QRE.pdb
     RDKit          3D

 30 29  0  0  1  0  0  0  0  0999 V2000
   13.3315  -15.9790   12.0484 N   0  0  0  0  0  0  0  0  0  0  0  0
   11.9399  -15.7969   12.2748 C   0  0  0  0  0  0  0  0  0  0  0  0
   11.3169  -15.1390   11.4145 O   0  0  0  0  0  0  0  0  0  0  0  0
   11.2876  -16.3664   13.4692 C   0  0  0  0  0  0  0  0  0  0  0  0
   12.2329  -17.1070   14.3721 C   0  0  0  0  0  0  0  0  0  0  0  0
   11.4990  -17.5925   15.5713 C   0  0  2  0  0  0  0  0  0  0  0  0
   10.1186  -17.9350   15.2824 N   0  0  0  0  0  0  0  0  0  0  0  0
   11.5430  -16.5843   16.6946 C   0  0  0  0  0  0  0  0  0  0  0  0
   12.6491  -16.1809   17.0840 O   0  0  0  0  0  0  0  0  0  0  0  0
    7.6320  -13.6676   22.6266 N   0  0  0  0  0  0  0  0  0  0  0  0
    7.5462  -12.2912   22.2908 C   0  0  0  0  0  0  0  0  0  0  0  0
    7.4757  -11.3504   23.1973 N   0  0  0  0  0  0  0  0  0  0  0  0
    7.5361  -11.9125   20.9340 N   0  0  0  0  0  0  0  0  0  0  0  0
    7.5413  -12.9134   19.8637 C   0  0  0  0  0  0  0  0  0  0  0  0
    8.8577  -13.6301   19.8164 C   0  0  0  0  0  0  0  0  0  0  0  0
    9.0751  -14.5027   18.6525 C   0  0  0  0  0  0  0  0  0  0  0  0
   10.3714  -15.1690   18.4380 C   0  0  2  0  0  0  0  0  0  0  0  0
   10.3774  -16.0881   17.3114 N   0  0  0  0  0  0  0  0  0  0  0  0
   10.9001  -15.8200   19.6173 C   0  0  0  0  0  0  0  0  0  0  0  0
   10.4036  -16.9667   19.9086 O   0  0  0  0  0  0  0  0  0  0  0  0
    7.4874  -10.3585   22.8340 N   0  0  0  0  0  0  0  0  0  0  0  0
   11.9153  -15.2853   20.4679 C   0  0  2  0  0  0  0  0  0  0  0  0
   12.4226  -16.1367   21.5563 C   0  0  0  0  0  0  0  0  0  0  0  0
   13.7474  -15.6307   21.9982 C   0  0  0  0  0  0  0  0  0  0  0  0
   14.6892  -15.4583   20.8455 C   0  0  0  0  0  0  0  0  0  0  0  0
   16.0347  -14.9820   21.3082 O   0  0  0  0  0  0  0  0  0  0  0  0
   16.2016  -14.0649   22.1393 C   0  0  0  0  0  0  0  0  0  0  0  0
   11.4547  -16.0820   22.6787 O   0  0  0  0  0  0  0  0  0  0  0  0
   11.5369  -16.7210   23.7369 O   0  0  0  0  0  0  0  0  0  0  0  0
   17.1697  -15.5881   20.7903 O   0  0  0  0  0  0  0  0  0  0  0  0
  2  3  2  0
  2  1  1  0
  4  2  1  0
  5  4  1  0
  5  6  1  0
  6  7  1  6
  6  8  1  0
  8 18  1  0
  9  8  2  0
 10 11  1  0
 11 12  2  0
 11 13  1  0
 13 14  1  0
 15 14  1  0
 16 15  1  0
 17 19  1  0
 17 16  1  1
 18 17  1  0
 19 20  2  0
 21 19  1  0
 21 22  1  0
 22 23  1  6
 23 24  1  0
 25 26  2  0
 25 24  1  0
 27 30  1  0
 27 22  1  0
 28 27  2  0
 29 25  1  0
M  END
$$$$
