QRE.pdb
     RDKit          3D

 30 29  0  0  1  0  0  0  0  0999 V2000
    2.2128  -20.4677   20.3395 N   0  0  0  0  0  0  0  0  0  0  0  0
    2.1785  -21.0901   21.6171 C   0  0  0  0  0  0  0  0  0  0  0  0
    1.2635  -21.9189   21.8088 O   0  0  0  0  0  0  0  0  0  0  0  0
    3.1831  -20.7600   22.6459 C   0  0  0  0  0  0  0  0  0  0  0  0
    4.2293  -19.7911   22.1723 C   0  0  0  0  0  0  0  0  0  0  0  0
    5.2009  -19.5318   23.2683 C   0  0  2  0  0  0  0  0  0  0  0  0
    4.5558  -19.1317   24.5053 N   0  0  0  0  0  0  0  0  0  0  0  0
    6.2195  -18.4900   22.8719 C   0  0  0  0  0  0  0  0  0  0  0  0
    7.1519  -18.8281   22.1273 O   0  0  0  0  0  0  0  0  0  0  0  0
    9.7488  -14.0642   19.0555 N   0  0  0  0  0  0  0  0  0  0  0  0
    9.2501  -12.7597   19.3086 C   0  0  0  0  0  0  0  0  0  0  0  0
    9.7665  -11.6913   18.7575 N   0  0  0  0  0  0  0  0  0  0  0  0
    8.1585  -12.5974   20.1842 N   0  0  0  0  0  0  0  0  0  0  0  0
    7.3915  -13.7490   20.6671 C   0  0  0  0  0  0  0  0  0  0  0  0
    7.2068  -13.6755   22.1535 C   0  0  0  0  0  0  0  0  0  0  0  0
    6.4632  -14.7868   22.7662 C   0  0  0  0  0  0  0  0  0  0  0  0
    7.0861  -16.1110   22.9366 C   0  0  2  0  0  0  0  0  0  0  0  0
    6.1473  -17.1546   23.3154 N   0  0  0  0  0  0  0  0  0  0  0  0
    8.2250  -16.1145   23.8294 C   0  0  0  0  0  0  0  0  0  0  0  0
    7.9748  -15.9431   25.0761 O   0  0  0  0  0  0  0  0  0  0  0  0
    9.4045  -10.7664   19.1171 N   0  0  0  0  0  0  0  0  0  0  0  0
    9.5849  -16.2888   23.4288 C   0  0  2  0  0  0  0  0  0  0  0  0
   10.6105  -16.3612   24.4821 C   0  0  0  0  0  0  0  0  0  0  0  0
   10.3781  -17.5719   25.3108 C   0  0  0  0  0  0  0  0  0  0  0  0
   11.4145  -17.7188   26.3831 C   0  0  0  0  0  0  0  0  0  0  0  0
   11.2004  -18.9725   27.1793 O   0  0  0  0  0  0  0  0  0  0  0  0
   11.9785  -19.9490   27.1647 C   0  0  0  0  0  0  0  0  0  0  0  0
   11.9409  -16.4357   23.8310 O   0  0  0  0  0  0  0  0  0  0  0  0
   12.1458  -16.5981   22.6200 O   0  0  0  0  0  0  0  0  0  0  0  0
   10.0748  -19.0655   27.9845 O   0  0  0  0  0  0  0  0  0  0  0  0
  2  3  2  0
  2  1  1  0
  4  2  1  0
  5  4  1  0
  5  6  1  0
  6  7  1  1
  6  8  1  0
  8 18  1  0
  9  8  2  0
 10 11  1  0
 11 12  2  0
 11 13  1  0
 13 14  1  0
 15 14  1  0
 16 15  1  0
 17 19  1  0
 17 16  1  1
 18 17  1  0
 19 20  2  0
 21 19  1  0
 21 22  1  0
 22 23  1  6
 23 24  1  0
 25 26  2  0
 25 24  1  0
 27 30  1  0
 27 22  1  0
 28 27  2  0
 29 25  1  0
M  END
$$$$
