QRE.pdb
     RDKit          3D

 30 29  0  0  1  0  0  0  0  0999 V2000
    9.3948  -12.9430   17.7714 N   0  0  0  0  0  0  0  0  0  0  0  0
    8.2184  -13.6274   17.3612 C   0  0  0  0  0  0  0  0  0  0  0  0
    8.1354  -13.9152   16.1482 O   0  0  0  0  0  0  0  0  0  0  0  0
    7.1653  -13.9713   18.3356 C   0  0  0  0  0  0  0  0  0  0  0  0
    7.4564  -13.4870   19.7278 C   0  0  0  0  0  0  0  0  0  0  0  0
    8.3572  -14.4523   20.4129 C   0  0  2  0  0  0  0  0  0  0  0  0
    8.4540  -15.7207   19.7141 N   0  0  0  0  0  0  0  0  0  0  0  0
    7.9277  -14.6953   21.8400 C   0  0  0  0  0  0  0  0  0  0  0  0
    7.7120  -13.7145   22.5677 O   0  0  0  0  0  0  0  0  0  0  0  0
    6.3870  -21.3638   23.1240 N   0  0  0  0  0  0  0  0  0  0  0  0
    7.3475  -21.3838   24.1688 C   0  0  0  0  0  0  0  0  0  0  0  0
    8.3518  -22.2222   24.1834 N   0  0  0  0  0  0  0  0  0  0  0  0
    7.2247  -20.4713   25.2349 N   0  0  0  0  0  0  0  0  0  0  0  0
    6.0668  -19.5798   25.3451 C   0  0  0  0  0  0  0  0  0  0  0  0
    6.4948  -18.1448   25.2645 C   0  0  0  0  0  0  0  0  0  0  0  0
    6.8675  -17.6575   23.9278 C   0  0  0  0  0  0  0  0  0  0  0  0
    7.3313  -16.2733   23.7293 C   0  0  2  0  0  0  0  0  0  0  0  0
    7.7635  -15.9904   22.3702 N   0  0  0  0  0  0  0  0  0  0  0  0
    8.3431  -15.8510   24.6739 C   0  0  0  0  0  0  0  0  0  0  0  0
    9.5481  -16.2115   24.4204 O   0  0  0  0  0  0  0  0  0  0  0  0
    8.9628  -22.1948   25.0447 N   0  0  0  0  0  0  0  0  0  0  0  0
    8.1002  -15.0779   25.8501 C   0  0  2  0  0  0  0  0  0  0  0  0
    9.2561  -14.7060   26.6821 C   0  0  0  0  0  0  0  0  0  0  0  0
    8.9034  -13.5260   27.5126 C   0  0  0  0  0  0  0  0  0  0  0  0
    8.5668  -12.3337   26.6697 C   0  0  0  0  0  0  0  0  0  0  0  0
    7.0900  -12.0685   26.6666 O   0  0  0  0  0  0  0  0  0  0  0  0
    6.2501  -12.7947   27.2381 C   0  0  0  0  0  0  0  0  0  0  0  0
    9.5936  -15.8596   27.5510 O   0  0  0  0  0  0  0  0  0  0  0  0
    8.9600  -16.9218   27.6220 O   0  0  0  0  0  0  0  0  0  0  0  0
    6.6155  -10.9528   25.9929 O   0  0  0  0  0  0  0  0  0  0  0  0
  2  3  2  0
  2  1  1  0
  4  2  1  0
  5  4  1  0
  5  6  1  0
  6  7  1  6
  6  8  1  0
  8 18  1  0
  9  8  2  0
 10 11  1  0
 11 12  2  0
 11 13  1  0
 13 14  1  0
 15 14  1  0
 16 15  1  0
 17 19  1  0
 17 16  1  6
 18 17  1  0
 19 20  2  0
 21 19  1  0
 21 22  1  0
 22 23  1  6
 23 24  1  0
 25 26  2  0
 25 24  1  0
 27 30  1  0
 27 22  1  0
 28 27  2  0
 29 25  1  0
M  END
$$$$
