QRE.pdb
     RDKit          3D

 30 29  0  0  1  0  0  0  0  0999 V2000
   14.1086  -21.5017   21.1800 N   0  0  0  0  0  0  0  0  0  0  0  0
   13.5751  -21.1904   19.8997 C   0  0  0  0  0  0  0  0  0  0  0  0
   13.8923  -21.9543   18.9632 O   0  0  0  0  0  0  0  0  0  0  0  0
   12.6935  -20.0225   19.7117 C   0  0  0  0  0  0  0  0  0  0  0  0
   13.0381  -19.2005   18.5022 C   0  0  0  0  0  0  0  0  0  0  0  0
   12.0822  -18.0673   18.3811 C   0  0  2  0  0  0  0  0  0  0  0  0
   12.3551  -17.2249   17.2312 N   0  0  0  0  0  0  0  0  0  0  0  0
   12.0632  -17.2214   19.6317 C   0  0  0  0  0  0  0  0  0  0  0  0
   13.0925  -16.6039   19.9436 O   0  0  0  0  0  0  0  0  0  0  0  0
    7.6935  -14.3368   17.5805 N   0  0  0  0  0  0  0  0  0  0  0  0
    7.3007  -13.5987   18.7274 C   0  0  0  0  0  0  0  0  0  0  0  0
    7.5421  -12.3192   18.8556 N   0  0  0  0  0  0  0  0  0  0  0  0
    6.6249  -14.2581   19.7728 N   0  0  0  0  0  0  0  0  0  0  0  0
    7.3247  -14.6666   20.9940 C   0  0  0  0  0  0  0  0  0  0  0  0
    8.6788  -15.2219   20.6669 C   0  0  0  0  0  0  0  0  0  0  0  0
    9.4898  -15.6597   21.8131 C   0  0  0  0  0  0  0  0  0  0  0  0
   10.8287  -16.2415   21.6144 C   0  0  2  0  0  0  0  0  0  0  0  0
   10.9227  -17.1091   20.4515 N   0  0  0  0  0  0  0  0  0  0  0  0
   11.3577  -16.9119   22.7827 C   0  0  0  0  0  0  0  0  0  0  0  0
   10.9570  -18.1143   22.9824 O   0  0  0  0  0  0  0  0  0  0  0  0
    7.3764  -11.9129   19.8166 N   0  0  0  0  0  0  0  0  0  0  0  0
   12.2756  -16.3397   23.7155 C   0  0  2  0  0  0  0  0  0  0  0  0
   12.8130  -17.2080   24.7756 C   0  0  0  0  0  0  0  0  0  0  0  0
   14.1988  -16.7839   25.1016 C   0  0  0  0  0  0  0  0  0  0  0  0
   15.0697  -16.7460   23.8828 C   0  0  0  0  0  0  0  0  0  0  0  0
   16.4711  -16.3352   24.2274 O   0  0  0  0  0  0  0  0  0  0  0  0
   16.8120  -15.1596   24.4750 C   0  0  0  0  0  0  0  0  0  0  0  0
   11.9440  -17.0753   25.9701 O   0  0  0  0  0  0  0  0  0  0  0  0
   12.1454  -17.6016   27.0734 O   0  0  0  0  0  0  0  0  0  0  0  0
   17.4569  -17.3095   24.2782 O   0  0  0  0  0  0  0  0  0  0  0  0
  2  3  2  0
  2  1  1  0
  4  2  1  0
  5  4  1  0
  5  6  1  0
  6  7  1  6
  6  8  1  0
  8 18  1  0
  9  8  2  0
 10 11  1  0
 11 12  2  0
 11 13  1  0
 13 14  1  0
 15 14  1  0
 16 15  1  0
 17 19  1  0
 17 16  1  1
 18 17  1  0
 19 20  2  0
 21 19  1  0
 21 22  1  0
 22 23  1  6
 23 24  1  0
 25 26  2  0
 25 24  1  0
 27 30  1  0
 27 22  1  0
 28 27  2  0
 29 25  1  0
M  END
$$$$
