QRE.pdb
     RDKit          3D

 30 29  0  0  1  0  0  0  0  0999 V2000
   11.0854  -16.8148   30.2709 N   0  0  0  0  0  0  0  0  0  0  0  0
   10.5918  -15.4856   30.3727 C   0  0  0  0  0  0  0  0  0  0  0  0
   10.5354  -14.9986   31.5219 O   0  0  0  0  0  0  0  0  0  0  0  0
   10.1760  -14.7396   29.1697 C   0  0  0  0  0  0  0  0  0  0  0  0
   10.2473  -15.5512   27.9073 C   0  0  0  0  0  0  0  0  0  0  0  0
   10.2159  -14.6437   26.7292 C   0  0  2  0  0  0  0  0  0  0  0  0
    9.2377  -13.5805   26.8672 N   0  0  0  0  0  0  0  0  0  0  0  0
    9.9566  -15.4034   25.4503 C   0  0  0  0  0  0  0  0  0  0  0  0
   10.3868  -16.5625   25.3535 O   0  0  0  0  0  0  0  0  0  0  0  0
    8.3333  -12.4291   18.3560 N   0  0  0  0  0  0  0  0  0  0  0  0
    7.8536  -13.6332   17.7776 C   0  0  0  0  0  0  0  0  0  0  0  0
    8.0621  -13.9415   16.5233 N   0  0  0  0  0  0  0  0  0  0  0  0
    7.1245  -14.5376   18.5746 N   0  0  0  0  0  0  0  0  0  0  0  0
    6.9741  -14.3313   20.0176 C   0  0  0  0  0  0  0  0  0  0  0  0
    8.1375  -14.9184   20.7598 C   0  0  0  0  0  0  0  0  0  0  0  0
    8.0547  -14.8732   22.2276 C   0  0  0  0  0  0  0  0  0  0  0  0
    9.1111  -15.4694   23.0637 C   0  0  2  0  0  0  0  0  0  0  0  0
    9.2460  -14.8445   24.3695 N   0  0  0  0  0  0  0  0  0  0  0  0
   10.4008  -15.5505   22.4123 C   0  0  0  0  0  0  0  0  0  0  0  0
   10.9898  -14.4367   22.1697 O   0  0  0  0  0  0  0  0  0  0  0  0
    7.6378  -14.8518   16.1957 N   0  0  0  0  0  0  0  0  0  0  0  0
   11.0525  -16.7605   22.0236 C   0  0  1  0  0  0  0  0  0  0  0  0
   12.3212  -16.6543   21.2847 C   0  0  0  0  0  0  0  0  0  0  0  0
   13.4409  -17.0629   22.1711 C   0  0  0  0  0  0  0  0  0  0  0  0
   13.7992  -15.9840   23.1473 C   0  0  0  0  0  0  0  0  0  0  0  0
   15.0031  -16.3621   23.9592 O   0  0  0  0  0  0  0  0  0  0  0  0
   15.0269  -17.3114   24.7702 C   0  0  0  0  0  0  0  0  0  0  0  0
   12.2491  -17.5517   20.1062 O   0  0  0  0  0  0  0  0  0  0  0  0
   11.3082  -18.3086   19.8295 O   0  0  0  0  0  0  0  0  0  0  0  0
   16.1663  -15.6216   23.8092 O   0  0  0  0  0  0  0  0  0  0  0  0
  2  3  2  0
  2  1  1  0
  4  2  1  0
  5  4  1  0
  5  6  1  0
  6  7  1  1
  6  8  1  0
  8 18  1  0
  9  8  2  0
 10 11  1  0
 11 12  2  0
 11 13  1  0
 13 14  1  0
 15 14  1  0
 16 15  1  0
 17 19  1  0
 17 16  1  6
 18 17  1  0
 19 20  2  0
 21 19  1  0
 21 22  1  0
 22 23  1  6
 23 24  1  0
 25 26  2  0
 25 24  1  0
 27 30  1  0
 27 22  1  0
 28 27  2  0
 29 25  1  0
M  END
$$$$
