NRM.pdb
     RDKit          3D

 28 27  0  0  1  0  0  0  0  0999 V2000
   15.3010  -15.7172   18.7546 N   0  0  0  0  0  0  0  0  0  0  0  0
   14.4241  -14.6592   18.4155 C   0  0  0  0  0  0  0  0  0  0  0  0
   14.8114  -13.8479   17.5421 O   0  0  0  0  0  0  0  0  0  0  0  0
   13.1070  -14.4839   19.0373 C   0  0  0  0  0  0  0  0  0  0  0  0
   12.9073  -15.5401   20.0881 C   0  0  2  0  0  0  0  0  0  0  0  0
   12.4027  -16.7458   19.4505 N   0  0  0  0  0  0  0  0  0  0  0  0
   11.9174  -15.1361   21.1170 C   0  0  0  0  0  0  0  0  0  0  0  0
   12.1364  -14.1588   21.8761 O   0  0  0  0  0  0  0  0  0  0  0  0
    8.0999  -14.5185   17.8753 N   0  0  0  0  0  0  0  0  0  0  0  0
    7.9079  -13.2498   18.5326 C   0  0  0  0  0  0  0  0  0  0  0  0
    7.6780  -12.1830   17.8392 N   0  0  0  0  0  0  0  0  0  0  0  0
    7.9670  -13.1504   19.9379 N   0  0  0  0  0  0  0  0  0  0  0  0
    7.0728  -14.0709   20.7017 C   0  0  0  0  0  0  0  0  0  0  0  0
    7.7022  -15.3998   20.5912 C   0  0  0  0  0  0  0  0  0  0  0  0
    8.4432  -16.0130   21.6852 C   0  0  0  0  0  0  0  0  0  0  0  0
    9.6728  -15.4436   22.2716 C   0  0  2  0  0  0  0  0  0  0  0  0
   10.7253  -15.8431   21.2519 N   0  0  0  0  0  0  0  0  0  0  0  0
   10.1795  -15.9772   23.5319 C   0  0  0  0  0  0  0  0  0  0  0  0
   10.9535  -16.9455   23.5975 O   0  0  0  0  0  0  0  0  0  0  0  0
    7.6151  -11.2570   18.3078 C   0  0  0  0  0  0  0  0  0  0  0  0
   10.8357  -14.7689   31.3461 S   0  0  0  0  0  0  0  0  0  0  0  0
   10.1564  -14.2420   29.7716 C   0  0  0  0  0  0  0  0  0  0  0  0
   10.6139  -15.4379   28.4801 C   0  0  0  0  0  0  0  0  0  0  0  0
   10.1098  -14.9770   27.1422 C   0  0  1  0  0  0  0  0  0  0  0  0
   10.4244  -15.9453   26.0528 N   0  0  0  0  0  0  0  0  0  0  0  0
    9.8202  -15.4209   24.8088 C   0  0  0  0  0  0  0  0  0  0  0  0
    9.7878  -17.2451   26.3121 O   0  0  0  0  0  0  0  0  0  0  0  0
   10.3807  -18.2583   27.0390 O   0  0  0  0  0  0  0  0  0  0  0  0
  1  2  1  0
  2  3  2  0
  4  2  1  0
  5  4  1  0
  5  6  1  6
  7  8  2  0
  7  5  1  0
  9 10  1  0
 10 12  1  0
 11 10  2  0
 12 13  1  0
 14 13  1  0
 15 14  1  0
 16 15  1  6
 16 17  1  0
 17  7  1  0
 18 19  2  0
 18 16  1  0
 20 21  1  0
 22 21  1  0
 24 23  1  6
 23 22  1  0
 24 25  1  0
 25 18  1  0
 26 24  1  0
 27 26  1  0
 28 26  2  0
M  END
$$$$
