NRM.pdb
     RDKit          3D

 28 27  0  0  1  0  0  0  0  0999 V2000
   14.9172  -15.7113   17.2661 N   0  0  0  0  0  0  0  0  0  0  0  0
   14.8144  -16.5909   18.3702 C   0  0  0  0  0  0  0  0  0  0  0  0
   15.4012  -17.6951   18.2833 O   0  0  0  0  0  0  0  0  0  0  0  0
   14.0616  -16.2616   19.5855 C   0  0  0  0  0  0  0  0  0  0  0  0
   13.2918  -14.9893   19.3657 C   0  0  2  0  0  0  0  0  0  0  0  0
   14.2335  -13.9080   19.1229 N   0  0  0  0  0  0  0  0  0  0  0  0
   12.4760  -14.6093   20.5454 C   0  0  0  0  0  0  0  0  0  0  0  0
   12.9872  -13.9910   21.5127 O   0  0  0  0  0  0  0  0  0  0  0  0
    8.2461  -12.5444   17.1886 N   0  0  0  0  0  0  0  0  0  0  0  0
    8.1017  -13.9766   17.2703 C   0  0  0  0  0  0  0  0  0  0  0  0
    8.4873  -14.7288   16.2919 N   0  0  0  0  0  0  0  0  0  0  0  0
    7.5397  -14.5798   18.4141 N   0  0  0  0  0  0  0  0  0  0  0  0
    7.1860  -13.6611   19.5371 C   0  0  0  0  0  0  0  0  0  0  0  0
    8.4222  -13.5270   20.3297 C   0  0  0  0  0  0  0  0  0  0  0  0
    8.9081  -14.5780   21.2137 C   0  0  0  0  0  0  0  0  0  0  0  0
   10.2635  -14.6046   21.7985 C   0  0  2  0  0  0  0  0  0  0  0  0
   11.1236  -14.9376   20.5917 N   0  0  0  0  0  0  0  0  0  0  0  0
   10.6037  -15.6369   22.7724 C   0  0  0  0  0  0  0  0  0  0  0  0
   11.7714  -15.9082   23.0949 O   0  0  0  0  0  0  0  0  0  0  0  0
    8.4084  -15.7630   16.3637 C   0  0  0  0  0  0  0  0  0  0  0  0
   10.4031  -13.9964   29.3784 S   0  0  0  0  0  0  0  0  0  0  0  0
   10.4805  -14.0051   27.5862 C   0  0  0  0  0  0  0  0  0  0  0  0
    9.1794  -15.0905   26.9256 C   0  0  0  0  0  0  0  0  0  0  0  0
    9.2546  -15.1397   25.4261 C   0  0  1  0  0  0  0  0  0  0  0  0
    9.5752  -16.5046   24.9184 N   0  0  0  0  0  0  0  0  0  0  0  0
    9.6071  -16.4293   23.4416 C   0  0  0  0  0  0  0  0  0  0  0  0
    8.5073  -17.4534   25.2666 O   0  0  0  0  0  0  0  0  0  0  0  0
    8.6020  -18.3721   26.2929 O   0  0  0  0  0  0  0  0  0  0  0  0
  1  2  1  0
  2  3  2  0
  4  2  1  0
  5  4  1  0
  5  6  1  1
  7  8  2  0
  7  5  1  0
  9 10  1  0
 10 12  1  0
 11 10  2  0
 12 13  1  0
 14 13  1  0
 15 14  1  0
 16 15  1  6
 16 17  1  0
 17  7  1  0
 18 19  2  0
 18 16  1  0
 20 21  1  0
 22 21  1  0
 24 23  1  1
 23 22  1  0
 24 25  1  0
 25 18  1  0
 26 24  1  0
 27 26  1  0
 28 26  2  0
M  END
$$$$
