NRM.pdb
     RDKit          3D

 28 27  0  0  1  0  0  0  0  0999 V2000
    8.1089  -12.4977   16.5665 N   0  0  0  0  0  0  0  0  0  0  0  0
    8.0838  -13.9094   16.6643 C   0  0  0  0  0  0  0  0  0  0  0  0
    8.4605  -14.5628   15.6631 O   0  0  0  0  0  0  0  0  0  0  0  0
    7.6419  -14.6180   17.8704 C   0  0  0  0  0  0  0  0  0  0  0  0
    8.7029  -14.5088   18.9297 C   0  0  2  0  0  0  0  0  0  0  0  0
    9.8979  -15.1975   18.4685 N   0  0  0  0  0  0  0  0  0  0  0  0
    8.2941  -15.1400   20.2088 C   0  0  0  0  0  0  0  0  0  0  0  0
    7.2057  -14.8379   20.7597 O   0  0  0  0  0  0  0  0  0  0  0  0
   10.1053  -21.5421   18.6930 N   0  0  0  0  0  0  0  0  0  0  0  0
   10.4745  -20.3013   18.0585 C   0  0  0  0  0  0  0  0  0  0  0  0
   10.4895  -20.2062   16.7692 N   0  0  0  0  0  0  0  0  0  0  0  0
   10.8241  -19.1740   18.8298 N   0  0  0  0  0  0  0  0  0  0  0  0
   10.9107  -19.3863   20.3055 C   0  0  0  0  0  0  0  0  0  0  0  0
    9.6234  -18.9057   20.8406 C   0  0  0  0  0  0  0  0  0  0  0  0
    9.5307  -18.0399   22.0085 C   0  0  0  0  0  0  0  0  0  0  0  0
    8.6957  -16.8239   22.0712 C   0  0  2  0  0  0  0  0  0  0  0  0
    9.1208  -16.0817   20.8160 N   0  0  0  0  0  0  0  0  0  0  0  0
    8.9136  -15.8595   23.1446 C   0  0  0  0  0  0  0  0  0  0  0  0
    9.9565  -15.1961   23.2605 O   0  0  0  0  0  0  0  0  0  0  0  0
   10.8099  -19.3289   16.3123 C   0  0  0  0  0  0  0  0  0  0  0  0
    6.8446  -10.3862   27.9104 S   0  0  0  0  0  0  0  0  0  0  0  0
    6.6202  -11.4321   26.4703 C   0  0  0  0  0  0  0  0  0  0  0  0
    7.1021  -13.1382   26.8756 C   0  0  0  0  0  0  0  0  0  0  0  0
    6.9479  -14.0225   25.6710 C   0  0  1  0  0  0  0  0  0  0  0  0
    8.2312  -14.6696   25.2740 N   0  0  0  0  0  0  0  0  0  0  0  0
    7.9313  -15.5979   24.1622 C   0  0  0  0  0  0  0  0  0  0  0  0
    8.7621  -15.4897   26.3729 O   0  0  0  0  0  0  0  0  0  0  0  0
    9.5130  -14.9830   27.4149 O   0  0  0  0  0  0  0  0  0  0  0  0
  1  2  1  0
  2  3  2  0
  4  2  1  0
  5  4  1  0
  5  6  1  6
  7  8  2  0
  7  5  1  0
  9 10  1  0
 10 12  1  0
 11 10  2  0
 12 13  1  0
 14 13  1  0
 15 14  1  0
 16 15  1  1
 16 17  1  0
 17  7  1  0
 18 19  2  0
 18 16  1  0
 20 21  1  0
 22 21  1  0
 24 23  1  6
 23 22  1  0
 24 25  1  0
 25 18  1  0
 26 24  1  0
 27 26  1  0
 28 26  2  0
M  END
$$$$
