NRM.pdb
     RDKit          3D

 28 27  0  0  1  0  0  0  0  0999 V2000
    8.6558  -23.0963   23.3794 N   0  0  0  0  0  0  0  0  0  0  0  0
    8.4996  -22.4695   22.1200 C   0  0  0  0  0  0  0  0  0  0  0  0
    7.9828  -23.1462   21.2002 O   0  0  0  0  0  0  0  0  0  0  0  0
    8.9126  -21.0859   21.8605 C   0  0  0  0  0  0  0  0  0  0  0  0
    9.5297  -20.5084   23.1035 C   0  0  2  0  0  0  0  0  0  0  0  0
    8.5008  -20.3855   24.1238 N   0  0  0  0  0  0  0  0  0  0  0  0
   10.0948  -19.1548   22.8795 C   0  0  0  0  0  0  0  0  0  0  0  0
   11.3361  -18.9603   22.9053 O   0  0  0  0  0  0  0  0  0  0  0  0
    8.6875  -13.5580   17.4809 N   0  0  0  0  0  0  0  0  0  0  0  0
    8.2766  -12.6822   18.5498 C   0  0  0  0  0  0  0  0  0  0  0  0
    8.6120  -11.4336   18.5367 N   0  0  0  0  0  0  0  0  0  0  0  0
    7.5043  -13.1698   19.6240 N   0  0  0  0  0  0  0  0  0  0  0  0
    7.4369  -14.6549   19.7663 C   0  0  0  0  0  0  0  0  0  0  0  0
    8.5332  -15.0042   20.6885 C   0  0  0  0  0  0  0  0  0  0  0  0
    8.7964  -16.3717   21.1160 C   0  0  0  0  0  0  0  0  0  0  0  0
    9.7773  -16.7376   22.1569 C   0  0  2  0  0  0  0  0  0  0  0  0
    9.2466  -18.0775   22.6365 N   0  0  0  0  0  0  0  0  0  0  0  0
    9.8651  -15.9352   23.3727 C   0  0  0  0  0  0  0  0  0  0  0  0
   10.4337  -14.8326   23.4195 O   0  0  0  0  0  0  0  0  0  0  0  0
    8.3354  -10.8086   19.3202 C   0  0  0  0  0  0  0  0  0  0  0  0
    6.5789  -12.0644   25.7439 S   0  0  0  0  0  0  0  0  0  0  0  0
    7.9494  -12.3144   26.8742 C   0  0  0  0  0  0  0  0  0  0  0  0
    8.0500  -14.0720   27.3302 C   0  0  0  0  0  0  0  0  0  0  0  0
    8.0679  -14.9293   26.0967 C   0  0  1  0  0  0  0  0  0  0  0  0
    9.4148  -15.5103   25.8289 N   0  0  0  0  0  0  0  0  0  0  0  0
    9.2966  -16.3599   24.6239 C   0  0  0  0  0  0  0  0  0  0  0  0
    9.8270  -16.3964   26.9274 O   0  0  0  0  0  0  0  0  0  0  0  0
   10.0406  -17.7525   26.7803 O   0  0  0  0  0  0  0  0  0  0  0  0
  1  2  1  0
  2  3  2  0
  4  2  1  0
  5  4  1  0
  5  6  1  1
  7  8  2  0
  7  5  1  0
  9 10  1  0
 10 12  1  0
 11 10  2  0
 12 13  1  0
 14 13  1  0
 15 14  1  0
 16 15  1  6
 16 17  1  0
 17  7  1  0
 18 19  2  0
 18 16  1  0
 20 21  1  0
 22 21  1  0
 24 23  1  6
 23 22  1  0
 24 25  1  0
 25 18  1  0
 26 24  1  0
 27 26  1  0
 28 26  2  0
M  END
$$$$
