NRM.pdb
     RDKit          3D

 28 27  0  0  1  0  0  0  0  0999 V2000
   14.0043  -14.3554   17.6005 N   0  0  0  0  0  0  0  0  0  0  0  0
   13.7806  -15.0298   18.8245 C   0  0  0  0  0  0  0  0  0  0  0  0
   14.6000  -15.9212   19.1489 O   0  0  0  0  0  0  0  0  0  0  0  0
   12.6480  -14.7279   19.7067 C   0  0  0  0  0  0  0  0  0  0  0  0
   12.3011  -15.9508   20.5090 C   0  0  2  0  0  0  0  0  0  0  0  0
   11.5162  -16.8494   19.6775 N   0  0  0  0  0  0  0  0  0  0  0  0
   11.4859  -15.6306   21.7067 C   0  0  0  0  0  0  0  0  0  0  0  0
   11.9246  -14.8647   22.6012 O   0  0  0  0  0  0  0  0  0  0  0  0
    8.6427  -13.5964   17.9165 N   0  0  0  0  0  0  0  0  0  0  0  0
    8.6983  -12.7694   19.0960 C   0  0  0  0  0  0  0  0  0  0  0  0
    9.2021  -11.5801   19.0367 N   0  0  0  0  0  0  0  0  0  0  0  0
    8.2060  -13.2408   20.3303 N   0  0  0  0  0  0  0  0  0  0  0  0
    7.6239  -14.6161   20.3254 C   0  0  0  0  0  0  0  0  0  0  0  0
    7.3190  -14.9109   21.7378 C   0  0  0  0  0  0  0  0  0  0  0  0
    7.9824  -15.9738   22.4808 C   0  0  0  0  0  0  0  0  0  0  0  0
    9.3396  -15.8606   23.0507 C   0  0  2  0  0  0  0  0  0  0  0  0
   10.2152  -16.1814   21.8517 N   0  0  0  0  0  0  0  0  0  0  0  0
    9.7709  -16.8123   24.0696 C   0  0  0  0  0  0  0  0  0  0  0  0
    9.1852  -17.8846   24.2890 O   0  0  0  0  0  0  0  0  0  0  0  0
    9.1997  -10.9676   19.8769 C   0  0  0  0  0  0  0  0  0  0  0  0
    9.9368  -13.3540   30.3128 S   0  0  0  0  0  0  0  0  0  0  0  0
   10.0824  -13.5548   28.5361 C   0  0  0  0  0  0  0  0  0  0  0  0
    9.4129  -15.1740   28.0492 C   0  0  0  0  0  0  0  0  0  0  0  0
    9.6698  -15.4260   26.5907 C   0  0  2  0  0  0  0  0  0  0  0  0
   10.7573  -16.4218   26.3697 N   0  0  0  0  0  0  0  0  0  0  0  0
   10.9169  -16.5832   24.9081 C   0  0  0  0  0  0  0  0  0  0  0  0
   10.3716  -17.7391   26.8969 O   0  0  0  0  0  0  0  0  0  0  0  0
   10.0005  -18.8051   26.1017 O   0  0  0  0  0  0  0  0  0  0  0  0
  1  2  1  0
  2  3  2  0
  4  2  1  0
  5  4  1  0
  5  6  1  6
  7  8  2  0
  7  5  1  0
  9 10  1  0
 10 12  1  0
 11 10  2  0
 12 13  1  0
 14 13  1  0
 15 14  1  0
 16 15  1  6
 16 17  1  0
 17  7  1  0
 18 19  2  0
 18 16  1  0
 20 21  1  0
 22 21  1  0
 24 23  1  6
 23 22  1  0
 24 25  1  0
 25 18  1  0
 26 24  1  0
 27 26  1  0
 28 26  2  0
M  END
$$$$
