NRM.pdb
     RDKit          3D

 28 27  0  0  1  0  0  0  0  0999 V2000
   15.2757  -17.3385   19.5211 N   0  0  0  0  0  0  0  0  0  0  0  0
   14.5971  -16.3002   18.8394 C   0  0  0  0  0  0  0  0  0  0  0  0
   15.1114  -15.8760   17.7780 O   0  0  0  0  0  0  0  0  0  0  0  0
   13.3405  -15.7167   19.3219 C   0  0  0  0  0  0  0  0  0  0  0  0
   12.7310  -16.6271   20.3511 C   0  0  2  0  0  0  0  0  0  0  0  0
   11.8973  -17.6078   19.6741 N   0  0  0  0  0  0  0  0  0  0  0  0
   11.8660  -15.8984   21.3115 C   0  0  0  0  0  0  0  0  0  0  0  0
   12.3394  -15.0066   22.0598 O   0  0  0  0  0  0  0  0  0  0  0  0
    8.1218  -17.2642   18.2521 N   0  0  0  0  0  0  0  0  0  0  0  0
    6.7745  -17.5014   18.7073 C   0  0  0  0  0  0  0  0  0  0  0  0
    5.9316  -18.1288   17.9540 N   0  0  0  0  0  0  0  0  0  0  0  0
    6.3542  -17.0554   19.9770 N   0  0  0  0  0  0  0  0  0  0  0  0
    6.3044  -15.5756   20.1724 C   0  0  0  0  0  0  0  0  0  0  0  0
    7.6450  -15.2060   20.6630 C   0  0  0  0  0  0  0  0  0  0  0  0
    8.2527  -15.8243   21.8336 C   0  0  0  0  0  0  0  0  0  0  0  0
    9.5874  -15.4701   22.3558 C   0  0  2  0  0  0  0  0  0  0  0  0
   10.5087  -16.1990   21.3930 N   0  0  0  0  0  0  0  0  0  0  0  0
    9.9941  -15.9543   23.6711 C   0  0  0  0  0  0  0  0  0  0  0  0
   10.7258  -16.9439   23.8344 O   0  0  0  0  0  0  0  0  0  0  0  0
    4.9576  -18.2909   18.2798 C   0  0  0  0  0  0  0  0  0  0  0  0
   11.7028  -13.8007   30.7994 S   0  0  0  0  0  0  0  0  0  0  0  0
   10.2880  -13.7262   29.6988 C   0  0  0  0  0  0  0  0  0  0  0  0
   10.3182  -15.1524   28.5708 C   0  0  0  0  0  0  0  0  0  0  0  0
    9.9814  -14.7173   27.1730 C   0  0  1  0  0  0  0  0  0  0  0  0
   10.0204  -15.8479   26.2017 N   0  0  0  0  0  0  0  0  0  0  0  0
    9.5771  -15.3203   24.8930 C   0  0  0  0  0  0  0  0  0  0  0  0
    9.0574  -16.8925   26.5802 O   0  0  0  0  0  0  0  0  0  0  0  0
    9.3335  -17.8996   27.4836 O   0  0  0  0  0  0  0  0  0  0  0  0
  1  2  1  0
  2  3  2  0
  4  2  1  0
  5  4  1  0
  5  6  1  6
  7  8  2  0
  7  5  1  0
  9 10  1  0
 10 12  1  0
 11 10  2  0
 12 13  1  0
 14 13  1  0
 15 14  1  0
 16 15  1  6
 16 17  1  0
 17  7  1  0
 18 19  2  0
 18 16  1  0
 20 21  1  0
 22 21  1  0
 24 23  1  6
 23 22  1  0
 24 25  1  0
 25 18  1  0
 26 24  1  0
 27 26  1  0
 28 26  2  0
M  END
$$$$
