IEW.pdb
     RDKit          3D

 32 33  0  0  1  0  0  0  0  0999 V2000
    7.2914  -11.5866   20.0062 C   0  0  0  0  0  0  0  0  0  0  0  0
    7.4107  -12.9630   19.3881 C   0  0  0  0  0  0  0  0  0  0  0  0
    7.9999  -13.8969   20.4158 C   0  0  2  0  0  0  0  0  0  0  0  0
    9.4147  -13.4293   20.6857 C   0  0  0  0  0  0  0  0  0  0  0  0
    8.0596  -15.2968   19.9150 C   0  0  2  0  0  0  0  0  0  0  0  0
    6.8362  -15.7171   19.3179 N   0  0  0  0  0  0  0  0  0  0  0  0
    8.4570  -16.2792   20.9536 C   0  0  0  0  0  0  0  0  0  0  0  0
    7.6557  -16.6602   21.8525 O   0  0  0  0  0  0  0  0  0  0  0  0
    9.7648  -16.8239   20.9650 N   0  0  0  0  0  0  0  0  0  0  0  0
   10.2874  -17.7019   21.9850 C   0  0  1  0  0  0  0  0  0  0  0  0
   11.3606  -18.6227   21.5387 C   0  0  0  0  0  0  0  0  0  0  0  0
   12.7150  -18.0385   21.3600 C   0  0  0  0  0  0  0  0  0  0  0  0
   13.6257  -19.1696   20.9564 C   0  0  0  0  0  0  0  0  0  0  0  0
   13.8109  -19.4368   19.7415 O   0  0  0  0  0  0  0  0  0  0  0  0
   10.5601  -16.9934   23.2611 C   0  0  0  0  0  0  0  0  0  0  0  0
   11.3303  -16.0136   23.2537 O   0  0  0  0  0  0  0  0  0  0  0  0
   14.2897  -19.9542   21.8892 O   0  0  0  0  0  0  0  0  0  0  0  0
    9.9764  -17.3963   24.4709 N   0  0  0  0  0  0  0  0  0  0  0  0
   10.3895  -16.8532   25.7739 C   0  0  1  0  0  0  0  0  0  0  0  0
   10.0862  -15.3891   25.7357 C   0  0  0  0  0  0  0  0  0  0  0  0
    8.6422  -15.0734   25.7872 C   0  0  0  0  0  0  0  0  0  0  0  0
    7.5911  -15.9327   25.5638 C   0  0  0  0  0  0  0  0  0  0  0  0
    6.4523  -15.2352   25.7132 N   0  0  0  0  0  0  0  0  0  0  0  0
    6.7212  -13.9650   26.0229 C   0  0  0  0  0  0  0  0  0  0  0  0
    5.9116  -12.8501   26.2773 C   0  0  0  0  0  0  0  0  0  0  0  0
    6.4577  -11.6227   26.5804 C   0  0  0  0  0  0  0  0  0  0  0  0
    7.8284  -11.5314   26.6243 C   0  0  0  0  0  0  0  0  0  0  0  0
    8.6395  -12.6051   26.3800 C   0  0  0  0  0  0  0  0  0  0  0  0
    8.0896  -13.8488   26.0728 C   0  0  0  0  0  0  0  0  0  0  0  0
    9.6919  -17.5527   26.8772 C   0  0  0  0  0  0  0  0  0  0  0  0
    9.8060  -17.2560   28.0888 O   0  0  0  0  0  0  0  0  0  0  0  0
    8.8553  -18.6078   26.5491 O   0  0  0  0  0  0  0  0  0  0  0  0
  1  2  1  0
  3  2  1  0
  3  5  1  0
  3  4  1  6
  5  6  1  1
  7  5  1  0
  7  8  2  0
  9  7  1  0
 10  9  1  0
 10 15  1  0
 10 11  1  6
 12 11  1  0
 13 12  1  0
 13 14  2  0
 15 16  2  0
 15 18  1  0
 17 13  1  0
 18 19  1  0
 19 30  1  0
 19 20  1  6
 21 29  1  0
 21 20  1  0
 22 21  2  0
 23 22  1  0
 23 24  1  0
 24 25  1  0
 24 29  2  0
 25 26  2  0
 26 27  1  0
 28 27  2  0
 29 28  1  0
 30 31  2  0
 30 32  1  0
M  END
$$$$
