IEW.pdb
     RDKit          3D

 32 33  0  0  1  0  0  0  0  0999 V2000
    7.1398  -11.8463   20.2534 C   0  0  0  0  0  0  0  0  0  0  0  0
    7.3623  -13.2945   19.8740 C   0  0  0  0  0  0  0  0  0  0  0  0
    7.9567  -14.0115   21.0606 C   0  0  2  0  0  0  0  0  0  0  0  0
    9.2746  -13.3360   21.3770 C   0  0  0  0  0  0  0  0  0  0  0  0
    8.2280  -15.4428   20.7576 C   0  0  2  0  0  0  0  0  0  0  0  0
    7.1006  -16.1060   20.1929 N   0  0  0  0  0  0  0  0  0  0  0  0
    8.7091  -16.2140   21.9305 C   0  0  0  0  0  0  0  0  0  0  0  0
    7.9170  -16.6495   22.8126 O   0  0  0  0  0  0  0  0  0  0  0  0
   10.0897  -16.4862   22.0947 N   0  0  0  0  0  0  0  0  0  0  0  0
   10.6675  -17.1908   23.2147 C   0  0  1  0  0  0  0  0  0  0  0  0
   11.9202  -17.9277   22.9210 C   0  0  0  0  0  0  0  0  0  0  0  0
   12.5470  -18.6629   24.0499 C   0  0  0  0  0  0  0  0  0  0  0  0
   13.7984  -19.3049   23.5082 C   0  0  0  0  0  0  0  0  0  0  0  0
   14.9245  -18.7867   23.7209 O   0  0  0  0  0  0  0  0  0  0  0  0
   10.6997  -16.3675   24.4500 C   0  0  0  0  0  0  0  0  0  0  0  0
   11.2321  -15.2413   24.4100 O   0  0  0  0  0  0  0  0  0  0  0  0
   13.7669  -20.4758   22.7634 O   0  0  0  0  0  0  0  0  0  0  0  0
   10.1491  -16.8220   25.6570 N   0  0  0  0  0  0  0  0  0  0  0  0
   10.2571  -16.0678   26.9152 C   0  0  1  0  0  0  0  0  0  0  0  0
    8.9053  -16.1165   27.5533 C   0  0  0  0  0  0  0  0  0  0  0  0
    7.8366  -15.4911   26.7444 C   0  0  0  0  0  0  0  0  0  0  0  0
    6.8715  -16.1290   25.9995 C   0  0  0  0  0  0  0  0  0  0  0  0
    6.1050  -15.1854   25.4270 N   0  0  0  0  0  0  0  0  0  0  0  0
    6.5320  -13.9679   25.7687 C   0  0  0  0  0  0  0  0  0  0  0  0
    6.0935  -12.6758   25.4503 C   0  0  0  0  0  0  0  0  0  0  0  0
    6.7292  -11.5605   25.9491 C   0  0  0  0  0  0  0  0  0  0  0  0
    7.8113  -11.7619   26.7722 C   0  0  0  0  0  0  0  0  0  0  0  0
    8.2579  -13.0129   27.0976 C   0  0  0  0  0  0  0  0  0  0  0  0
    7.6165  -14.1437   26.5941 C   0  0  0  0  0  0  0  0  0  0  0  0
   11.3171  -16.6384   27.7779 C   0  0  0  0  0  0  0  0  0  0  0  0
   11.6659  -16.1607   28.8820 O   0  0  0  0  0  0  0  0  0  0  0  0
   11.9688  -17.7786   27.3352 O   0  0  0  0  0  0  0  0  0  0  0  0
  1  2  1  0
  3  2  1  0
  3  5  1  0
  3  4  1  6
  5  6  1  1
  7  5  1  0
  7  8  2  0
  9  7  1  0
 10  9  1  0
 10 15  1  0
 10 11  1  6
 12 11  1  0
 13 12  1  0
 13 14  2  0
 15 16  2  0
 15 18  1  0
 17 13  1  0
 18 19  1  0
 19 30  1  0
 19 20  1  1
 21 29  1  0
 21 20  1  0
 22 21  2  0
 23 22  1  0
 23 24  1  0
 24 25  1  0
 24 29  2  0
 25 26  2  0
 26 27  1  0
 28 27  2  0
 29 28  1  0
 30 31  2  0
 30 32  1  0
M  END
$$$$
