IEW.pdb
     RDKit          3D

 32 33  0  0  1  0  0  0  0  0999 V2000
    6.8115  -12.0568   20.0204 C   0  0  0  0  0  0  0  0  0  0  0  0
    7.4813  -13.2992   19.4740 C   0  0  0  0  0  0  0  0  0  0  0  0
    7.8652  -14.1827   20.6348 C   0  0  2  0  0  0  0  0  0  0  0  0
    8.8369  -13.3982   21.4914 C   0  0  0  0  0  0  0  0  0  0  0  0
    8.5451  -15.4248   20.1778 C   0  0  2  0  0  0  0  0  0  0  0  0
    7.7993  -16.1234   19.1851 N   0  0  0  0  0  0  0  0  0  0  0  0
    8.8769  -16.3574   21.2832 C   0  0  0  0  0  0  0  0  0  0  0  0
    8.1092  -17.3062   21.6083 O   0  0  0  0  0  0  0  0  0  0  0  0
   10.0810  -16.2064   22.0142 N   0  0  0  0  0  0  0  0  0  0  0  0
   10.5796  -17.1444   22.9920 C   0  0  1  0  0  0  0  0  0  0  0  0
   11.8106  -17.8725   22.6007 C   0  0  0  0  0  0  0  0  0  0  0  0
   11.6986  -18.8147   21.4573 C   0  0  0  0  0  0  0  0  0  0  0  0
   13.0681  -19.4084   21.2485 C   0  0  0  0  0  0  0  0  0  0  0  0
   13.3737  -20.5082   21.7765 O   0  0  0  0  0  0  0  0  0  0  0  0
   10.5947  -16.5809   24.3657 C   0  0  0  0  0  0  0  0  0  0  0  0
   11.3366  -15.6099   24.6107 O   0  0  0  0  0  0  0  0  0  0  0  0
   14.0374  -18.7809   20.4783 O   0  0  0  0  0  0  0  0  0  0  0  0
    9.7992  -17.1107   25.3919 N   0  0  0  0  0  0  0  0  0  0  0  0
    9.9779  -16.7473   26.8059 C   0  0  1  0  0  0  0  0  0  0  0  0
    8.6050  -16.5695   27.3722 C   0  0  0  0  0  0  0  0  0  0  0  0
    7.7380  -15.6745   26.5755 C   0  0  0  0  0  0  0  0  0  0  0  0
    6.7862  -16.0393   25.6514 C   0  0  0  0  0  0  0  0  0  0  0  0
    6.2337  -14.9147   25.1658 N   0  0  0  0  0  0  0  0  0  0  0  0
    6.7861  -13.8411   25.7348 C   0  0  0  0  0  0  0  0  0  0  0  0
    6.5758  -12.4639   25.5851 C   0  0  0  0  0  0  0  0  0  0  0  0
    7.3004  -11.5456   26.3120 C   0  0  0  0  0  0  0  0  0  0  0  0
    8.2390  -12.0305   27.1911 C   0  0  0  0  0  0  0  0  0  0  0  0
    8.4624  -13.3698   27.3549 C   0  0  0  0  0  0  0  0  0  0  0  0
    7.7305  -14.3017   26.6205 C   0  0  0  0  0  0  0  0  0  0  0  0
   10.7597  -17.7842   27.5178 C   0  0  0  0  0  0  0  0  0  0  0  0
   11.1381  -18.8628   27.0056 O   0  0  0  0  0  0  0  0  0  0  0  0
   11.0967  -17.5470   28.8410 O   0  0  0  0  0  0  0  0  0  0  0  0
  1  2  1  0
  3  2  1  0
  3  5  1  0
  3  4  1  1
  5  6  1  6
  7  5  1  0
  7  8  2  0
  9  7  1  0
 10  9  1  0
 10 15  1  0
 10 11  1  6
 12 11  1  0
 13 12  1  0
 13 14  2  0
 15 16  2  0
 15 18  1  0
 17 13  1  0
 18 19  1  0
 19 30  1  0
 19 20  1  1
 21 29  1  0
 21 20  1  0
 22 21  2  0
 23 22  1  0
 23 24  1  0
 24 25  1  0
 24 29  2  0
 25 26  2  0
 26 27  1  0
 28 27  2  0
 29 28  1  0
 30 31  2  0
 30 32  1  0
M  END
$$$$
