IEW.pdb
     RDKit          3D

 32 33  0  0  1  0  0  0  0  0999 V2000
    6.8014  -12.7076   18.4613 C   0  0  0  0  0  0  0  0  0  0  0  0
    8.1657  -13.2449   18.8365 C   0  0  0  0  0  0  0  0  0  0  0  0
    8.0216  -14.0803   20.0842 C   0  0  2  0  0  0  0  0  0  0  0  0
    7.5100  -13.1661   21.1777 C   0  0  0  0  0  0  0  0  0  0  0  0
    9.3276  -14.6437   20.5213 C   0  0  2  0  0  0  0  0  0  0  0  0
   10.0208  -15.3020   19.4650 N   0  0  0  0  0  0  0  0  0  0  0  0
    9.2155  -15.5657   21.6786 C   0  0  0  0  0  0  0  0  0  0  0  0
    8.3751  -15.3770   22.6024 O   0  0  0  0  0  0  0  0  0  0  0  0
   10.0603  -16.6984   21.7798 N   0  0  0  0  0  0  0  0  0  0  0  0
   10.0993  -17.6048   22.9029 C   0  0  1  0  0  0  0  0  0  0  0  0
   10.9144  -18.8271   22.7020 C   0  0  0  0  0  0  0  0  0  0  0  0
   11.3594  -19.1167   21.3143 C   0  0  0  0  0  0  0  0  0  0  0  0
   12.1987  -20.3669   21.3797 C   0  0  0  0  0  0  0  0  0  0  0  0
   11.7051  -21.4452   21.7986 O   0  0  0  0  0  0  0  0  0  0  0  0
   10.3273  -16.9045   24.1922 C   0  0  0  0  0  0  0  0  0  0  0  0
   11.1962  -16.0128   24.2483 O   0  0  0  0  0  0  0  0  0  0  0  0
   13.5302  -20.3859   20.9881 O   0  0  0  0  0  0  0  0  0  0  0  0
    9.5936  -17.2188   25.3453 N   0  0  0  0  0  0  0  0  0  0  0  0
    9.9025  -16.6488   26.6655 C   0  0  1  0  0  0  0  0  0  0  0  0
    8.5922  -16.4675   27.3635 C   0  0  0  0  0  0  0  0  0  0  0  0
    7.6336  -15.6135   26.6290 C   0  0  0  0  0  0  0  0  0  0  0  0
    6.6104  -16.0239   25.8057 C   0  0  0  0  0  0  0  0  0  0  0  0
    5.9878  -14.9251   25.3464 N   0  0  0  0  0  0  0  0  0  0  0  0
    6.5631  -13.8248   25.8361 C   0  0  0  0  0  0  0  0  0  0  0  0
    6.3056  -12.4572   25.6735 C   0  0  0  0  0  0  0  0  0  0  0  0
    7.0707  -11.5039   26.3081 C   0  0  0  0  0  0  0  0  0  0  0  0
    8.0978  -11.9442   27.1082 C   0  0  0  0  0  0  0  0  0  0  0  0
    8.3687  -13.2734   27.2827 C   0  0  0  0  0  0  0  0  0  0  0  0
    7.5960  -14.2406   26.6415 C   0  0  0  0  0  0  0  0  0  0  0  0
   10.8302  -17.5297   27.4116 C   0  0  0  0  0  0  0  0  0  0  0  0
   11.2999  -17.2683   28.5430 O   0  0  0  0  0  0  0  0  0  0  0  0
   11.2058  -18.7250   26.8194 O   0  0  0  0  0  0  0  0  0  0  0  0
  1  2  1  0
  3  2  1  0
  3  5  1  0
  3  4  1  1
  5  6  1  6
  7  5  1  0
  7  8  2  0
  9  7  1  0
 10  9  1  0
 10 15  1  0
 10 11  1  6
 12 11  1  0
 13 12  1  0
 13 14  2  0
 15 16  2  0
 15 18  1  0
 17 13  1  0
 18 19  1  0
 19 30  1  0
 19 20  1  1
 21 29  1  0
 21 20  1  0
 22 21  2  0
 23 22  1  0
 23 24  1  0
 24 25  1  0
 24 29  2  0
 25 26  2  0
 26 27  1  0
 28 27  2  0
 29 28  1  0
 30 31  2  0
 30 32  1  0
M  END
$$$$
