IEW.pdb
     RDKit          3D

 32 33  0  0  1  0  0  0  0  0999 V2000
    7.0055  -12.1460   21.0126 C   0  0  0  0  0  0  0  0  0  0  0  0
    6.7451  -13.6190   20.7820 C   0  0  0  0  0  0  0  0  0  0  0  0
    7.7884  -14.4098   21.5315 C   0  0  2  0  0  0  0  0  0  0  0  0
    9.1325  -14.0627   20.9265 C   0  0  0  0  0  0  0  0  0  0  0  0
    7.5762  -15.8753   21.3852 C   0  0  2  0  0  0  0  0  0  0  0  0
    6.2605  -16.2775   21.7552 N   0  0  0  0  0  0  0  0  0  0  0  0
    8.5634  -16.6926   22.1330 C   0  0  0  0  0  0  0  0  0  0  0  0
    8.2073  -17.6258   22.9060 O   0  0  0  0  0  0  0  0  0  0  0  0
    9.9516  -16.4444   21.9982 N   0  0  0  0  0  0  0  0  0  0  0  0
   10.9987  -17.3470   22.4150 C   0  0  1  0  0  0  0  0  0  0  0  0
   12.2454  -17.2830   21.6148 C   0  0  0  0  0  0  0  0  0  0  0  0
   13.3395  -18.2111   22.0012 C   0  0  0  0  0  0  0  0  0  0  0  0
   14.4918  -17.9353   21.0697 C   0  0  0  0  0  0  0  0  0  0  0  0
   15.6635  -17.8381   21.5161 O   0  0  0  0  0  0  0  0  0  0  0  0
   11.1978  -17.3473   23.8864 C   0  0  0  0  0  0  0  0  0  0  0  0
   11.9563  -18.1974   24.3918 O   0  0  0  0  0  0  0  0  0  0  0  0
   14.3167  -17.7786   19.7017 O   0  0  0  0  0  0  0  0  0  0  0  0
   10.5569  -16.4196   24.7203 N   0  0  0  0  0  0  0  0  0  0  0  0
   10.7360  -16.4048   26.1802 C   0  0  1  0  0  0  0  0  0  0  0  0
   10.1249  -15.1294   26.6669 C   0  0  0  0  0  0  0  0  0  0  0  0
    8.7027  -14.9650   26.2958 C   0  0  0  0  0  0  0  0  0  0  0  0
    7.8098  -15.9537   25.9516 C   0  0  0  0  0  0  0  0  0  0  0  0
    6.6292  -15.3674   25.6906 N   0  0  0  0  0  0  0  0  0  0  0  0
    6.7200  -14.0454   25.8509 C   0  0  0  0  0  0  0  0  0  0  0  0
    5.7998  -12.9987   25.7073 C   0  0  0  0  0  0  0  0  0  0  0  0
    6.1616  -11.6902   25.9391 C   0  0  0  0  0  0  0  0  0  0  0  0
    7.4606  -11.4485   26.3171 C   0  0  0  0  0  0  0  0  0  0  0  0
    8.3769  -12.4531   26.4641 C   0  0  0  0  0  0  0  0  0  0  0  0
    8.0136  -13.7786   26.2301 C   0  0  0  0  0  0  0  0  0  0  0  0
   10.1217  -17.6039   26.7949 C   0  0  0  0  0  0  0  0  0  0  0  0
   10.0883  -17.8307   28.0264 O   0  0  0  0  0  0  0  0  0  0  0  0
    9.5440  -18.5402   25.9522 O   0  0  0  0  0  0  0  0  0  0  0  0
  1  2  1  0
  3  2  1  0
  3  5  1  0
  3  4  1  6
  5  6  1  1
  7  5  1  0
  7  8  2  0
  9  7  1  0
 10  9  1  0
 10 15  1  0
 10 11  1  6
 12 11  1  0
 13 12  1  0
 13 14  2  0
 15 16  2  0
 15 18  1  0
 17 13  1  0
 18 19  1  0
 19 30  1  0
 19 20  1  1
 21 29  1  0
 21 20  1  0
 22 21  2  0
 23 22  1  0
 23 24  1  0
 24 25  1  0
 24 29  2  0
 25 26  2  0
 26 27  1  0
 28 27  2  0
 29 28  1  0
 30 31  2  0
 30 32  1  0
M  END
$$$$
