IEW.pdb
     RDKit          3D

 32 33  0  0  1  0  0  0  0  0999 V2000
    7.6306  -11.8983   21.7404 C   0  0  0  0  0  0  0  0  0  0  0  0
    7.2293  -13.3228   21.4238 C   0  0  0  0  0  0  0  0  0  0  0  0
    8.1642  -13.8571   20.3674 C   0  0  2  0  0  0  0  0  0  0  0  0
    7.8989  -13.0744   19.0984 C   0  0  0  0  0  0  0  0  0  0  0  0
    7.9115  -15.2966   20.0881 C   0  0  2  0  0  0  0  0  0  0  0  0
    6.5809  -15.5423   19.6421 N   0  0  0  0  0  0  0  0  0  0  0  0
    8.2103  -16.1831   21.2399 C   0  0  0  0  0  0  0  0  0  0  0  0
    7.2939  -16.7036   21.9359 O   0  0  0  0  0  0  0  0  0  0  0  0
    9.5507  -16.4735   21.5948 N   0  0  0  0  0  0  0  0  0  0  0  0
    9.9522  -17.4033   22.6238 C   0  0  1  0  0  0  0  0  0  0  0  0
   10.9699  -18.4007   22.2139 C   0  0  0  0  0  0  0  0  0  0  0  0
   11.3556  -19.4202   23.2236 C   0  0  0  0  0  0  0  0  0  0  0  0
   12.3733  -20.3176   22.5673 C   0  0  0  0  0  0  0  0  0  0  0  0
   13.3533  -20.7562   23.2223 O   0  0  0  0  0  0  0  0  0  0  0  0
   10.2174  -16.7351   23.9231 C   0  0  0  0  0  0  0  0  0  0  0  0
   10.9410  -15.7205   23.9424 O   0  0  0  0  0  0  0  0  0  0  0  0
   12.2781  -20.6944   21.2349 O   0  0  0  0  0  0  0  0  0  0  0  0
    9.6774  -17.2139   25.1255 N   0  0  0  0  0  0  0  0  0  0  0  0
   10.0877  -16.7020   26.4420 C   0  0  1  0  0  0  0  0  0  0  0  0
    8.8317  -16.5189   27.2332 C   0  0  0  0  0  0  0  0  0  0  0  0
    7.8340  -15.6427   26.5818 C   0  0  0  0  0  0  0  0  0  0  0  0
    6.7613  -16.0276   25.8109 C   0  0  0  0  0  0  0  0  0  0  0  0
    6.1165  -14.9152   25.4206 N   0  0  0  0  0  0  0  0  0  0  0  0
    6.7246  -13.8302   25.9047 C   0  0  0  0  0  0  0  0  0  0  0  0
    6.4632  -12.4580   25.7957 C   0  0  0  0  0  0  0  0  0  0  0  0
    7.2690  -11.5244   26.4089 C   0  0  0  0  0  0  0  0  0  0  0  0
    8.3408  -11.9891   27.1330 C   0  0  0  0  0  0  0  0  0  0  0  0
    8.6164  -13.3232   27.2541 C   0  0  0  0  0  0  0  0  0  0  0  0
    7.8026  -14.2705   26.6344 C   0  0  0  0  0  0  0  0  0  0  0  0
   11.0413  -17.6311   27.0906 C   0  0  0  0  0  0  0  0  0  0  0  0
   11.3932  -18.7338   26.6119 O   0  0  0  0  0  0  0  0  0  0  0  0
   11.5823  -17.2569   28.3104 O   0  0  0  0  0  0  0  0  0  0  0  0
  1  2  1  0
  3  2  1  0
  3  5  1  0
  3  4  1  6
  5  6  1  1
  7  5  1  0
  7  8  2  0
  9  7  1  0
 10  9  1  0
 10 15  1  0
 10 11  1  6
 12 11  1  0
 13 12  1  0
 13 14  2  0
 15 16  2  0
 15 18  1  0
 17 13  1  0
 18 19  1  0
 19 30  1  0
 19 20  1  1
 21 29  1  0
 21 20  1  0
 22 21  2  0
 23 22  1  0
 23 24  1  0
 24 25  1  0
 24 29  2  0
 25 26  2  0
 26 27  1  0
 28 27  2  0
 29 28  1  0
 30 31  2  0
 30 32  1  0
M  END
$$$$
