KTR.pdb
     RDKit          3D

 28 27  0  0  1  0  0  0  0  0999 V2000
    9.8727  -17.0413   15.9547 N   0  0  0  0  0  0  0  0  0  0  0  0
    9.9291  -16.1287   17.0799 C   0  0  1  0  0  0  0  0  0  0  0  0
    8.9553  -14.9913   16.8801 C   0  0  0  0  0  0  0  0  0  0  0  0
    8.6328  -14.7312   15.4538 C   0  0  0  0  0  0  0  0  0  0  0  0
    7.7078  -13.6055   15.1928 C   0  0  0  0  0  0  0  0  0  0  0  0
    7.4614  -13.3141   13.7425 C   0  0  0  0  0  0  0  0  0  0  0  0
    6.6143  -12.1391   13.6074 N   0  0  0  0  0  0  0  0  0  0  0  0
    9.6817  -16.8860   18.3065 C   0  0  0  0  0  0  0  0  0  0  0  0
    8.5645  -16.8073   18.9263 O   0  0  0  0  0  0  0  0  0  0  0  0
   10.4398  -20.4960   18.6791 C   0  0  0  0  0  0  0  0  0  0  0  0
   10.9988  -19.8678   19.9402 C   0  0  1  0  0  0  0  0  0  0  0  0
   12.3675  -19.8026   19.9435 O   0  0  0  0  0  0  0  0  0  0  0  0
   10.3165  -18.5262   20.1250 C   0  0  2  0  0  0  0  0  0  0  0  0
   10.6303  -17.7620   18.9172 N   0  0  0  0  0  0  0  0  0  0  0  0
   10.7813  -17.8157   21.3404 C   0  0  0  0  0  0  0  0  0  0  0  0
   11.6545  -16.9061   21.2930 O   0  0  0  0  0  0  0  0  0  0  0  0
   10.1518  -15.0769   28.2849 N   0  0  0  0  0  0  0  0  0  0  0  0
    9.3072  -14.0128   27.8552 C   0  0  0  0  0  0  0  0  0  0  0  0
    9.1237  -13.0130   28.6591 N   0  0  0  0  0  0  0  0  0  0  0  0
    8.6690  -14.0110   26.5923 N   0  0  0  0  0  0  0  0  0  0  0  0
    8.4241  -15.2191   25.8357 C   0  0  0  0  0  0  0  0  0  0  0  0
    9.7618  -15.7288   25.3068 C   0  0  0  0  0  0  0  0  0  0  0  0
    9.4779  -16.9735   24.5186 C   0  0  0  0  0  0  0  0  0  0  0  0
   10.6753  -17.5905   23.8617 C   0  0  2  0  0  0  0  0  0  0  0  0
   10.2343  -18.1639   22.5832 N   0  0  0  0  0  0  0  0  0  0  0  0
   11.1757  -18.7019   24.6956 C   0  0  0  0  0  0  0  0  0  0  0  0
   12.2427  -18.4869   25.5864 O   0  0  0  0  0  0  0  0  0  0  0  0
   10.7082  -19.8742   24.6750 O   0  0  0  0  0  0  0  0  0  0  0  0
  2  1  1  6
  3  2  1  0
  4  3  1  0
  5  4  1  0
  6  5  1  0
  7  6  1  0
  8  9  2  0
  8  2  1  0
 11 10  1  6
 11 13  1  0
 12 11  1  0
 13 14  1  6
 14  8  1  0
 15 13  1  0
 16 15  2  0
 18 17  1  0
 19 18  2  0
 20 18  1  0
 21 20  1  0
 21 22  1  0
 22 23  1  0
 24 23  1  1
 24 26  1  0
 24 25  1  0
 25 15  1  0
 26 27  1  0
 28 26  2  0
M  END
$$$$
