KTR.pdb
     RDKit          3D

 28 27  0  0  1  0  0  0  0  0999 V2000
    8.1923  -15.9863   15.1762 N   0  0  0  0  0  0  0  0  0  0  0  0
    7.3668  -16.0632   16.3657 C   0  0  1  0  0  0  0  0  0  0  0  0
    6.7866  -17.4504   16.5108 C   0  0  0  0  0  0  0  0  0  0  0  0
    7.5562  -18.4932   15.7855 C   0  0  0  0  0  0  0  0  0  0  0  0
    6.9869  -19.8592   15.8172 C   0  0  0  0  0  0  0  0  0  0  0  0
    7.8154  -20.9045   15.1316 C   0  0  0  0  0  0  0  0  0  0  0  0
    7.1735  -22.2048   15.2492 N   0  0  0  0  0  0  0  0  0  0  0  0
    8.1707  -15.6550   17.5174 C   0  0  0  0  0  0  0  0  0  0  0  0
    9.4493  -15.7132   17.4940 O   0  0  0  0  0  0  0  0  0  0  0  0
    7.3582  -12.6223   19.7814 C   0  0  0  0  0  0  0  0  0  0  0  0
    7.6650  -13.8017   20.6828 C   0  0  1  0  0  0  0  0  0  0  0  0
    6.5446  -14.3381   21.2611 O   0  0  0  0  0  0  0  0  0  0  0  0
    8.4792  -14.7950   19.8765 C   0  0  2  0  0  0  0  0  0  0  0  0
    7.6287  -15.1656   18.7450 N   0  0  0  0  0  0  0  0  0  0  0  0
    8.8633  -15.9887   20.6675 C   0  0  0  0  0  0  0  0  0  0  0  0
    8.4924  -17.1520   20.3492 O   0  0  0  0  0  0  0  0  0  0  0  0
   14.9735  -19.1499   23.5321 N   0  0  0  0  0  0  0  0  0  0  0  0
   14.9552  -20.0486   22.4265 C   0  0  0  0  0  0  0  0  0  0  0  0
   15.6387  -21.1459   22.5172 N   0  0  0  0  0  0  0  0  0  0  0  0
   14.2225  -19.7858   21.2449 N   0  0  0  0  0  0  0  0  0  0  0  0
   13.5729  -18.5189   20.9904 C   0  0  0  0  0  0  0  0  0  0  0  0
   12.4799  -18.3257   22.0378 C   0  0  0  0  0  0  0  0  0  0  0  0
   11.5791  -17.2350   21.5377 C   0  0  0  0  0  0  0  0  0  0  0  0
   10.4260  -16.9077   22.4372 C   0  0  2  0  0  0  0  0  0  0  0  0
    9.6643  -15.8220   21.8057 N   0  0  0  0  0  0  0  0  0  0  0  0
   10.9367  -16.3981   23.7259 C   0  0  0  0  0  0  0  0  0  0  0  0
   11.5083  -15.1149   23.7973 O   0  0  0  0  0  0  0  0  0  0  0  0
   10.9022  -17.0425   24.8106 O   0  0  0  0  0  0  0  0  0  0  0  0
  2  1  1  6
  3  2  1  0
  4  3  1  0
  5  4  1  0
  6  5  1  0
  7  6  1  0
  8  9  2  0
  8  2  1  0
 11 10  1  6
 11 13  1  0
 12 11  1  0
 13 14  1  6
 14  8  1  0
 15 13  1  0
 16 15  2  0
 18 17  1  0
 19 18  2  0
 20 18  1  0
 21 20  1  0
 21 22  1  0
 22 23  1  0
 24 23  1  6
 24 26  1  0
 24 25  1  0
 25 15  1  0
 26 27  1  0
 28 26  2  0
M  END
$$$$
