KTR.pdb
     RDKit          3D

 28 27  0  0  1  0  0  0  0  0999 V2000
   10.2909  -22.1396   21.8310 N   0  0  0  0  0  0  0  0  0  0  0  0
   10.9099  -21.8773   20.5463 C   0  0  1  0  0  0  0  0  0  0  0  0
   10.7436  -23.0688   19.6328 C   0  0  0  0  0  0  0  0  0  0  0  0
   11.2483  -24.3378   20.2166 C   0  0  0  0  0  0  0  0  0  0  0  0
   12.7201  -24.4796   20.2860 C   0  0  0  0  0  0  0  0  0  0  0  0
   13.2029  -25.7896   20.8337 C   0  0  0  0  0  0  0  0  0  0  0  0
   14.6571  -25.8077   20.8723 N   0  0  0  0  0  0  0  0  0  0  0  0
   10.3375  -20.6490   19.9959 C   0  0  0  0  0  0  0  0  0  0  0  0
   10.6483  -20.2330   18.8258 O   0  0  0  0  0  0  0  0  0  0  0  0
    6.7335  -19.4469   19.4263 C   0  0  0  0  0  0  0  0  0  0  0  0
    7.4256  -18.5379   20.4225 C   0  0  1  0  0  0  0  0  0  0  0  0
    7.1225  -18.8419   21.7238 O   0  0  0  0  0  0  0  0  0  0  0  0
    8.9097  -18.5638   20.1121 C   0  0  2  0  0  0  0  0  0  0  0  0
    9.4039  -19.8163   20.6851 N   0  0  0  0  0  0  0  0  0  0  0  0
    9.6287  -17.3982   20.6800 C   0  0  0  0  0  0  0  0  0  0  0  0
   10.5598  -16.8164   20.0581 O   0  0  0  0  0  0  0  0  0  0  0  0
    9.8881  -13.9641   17.7347 N   0  0  0  0  0  0  0  0  0  0  0  0
    8.4719  -13.8389   17.6391 C   0  0  0  0  0  0  0  0  0  0  0  0
    7.9153  -14.0386   16.4859 N   0  0  0  0  0  0  0  0  0  0  0  0
    7.6611  -13.5076   18.7504 N   0  0  0  0  0  0  0  0  0  0  0  0
    8.1884  -12.9016   19.9531 C   0  0  0  0  0  0  0  0  0  0  0  0
    9.2388  -13.8413   20.5383 C   0  0  0  0  0  0  0  0  0  0  0  0
    8.5549  -14.6666   21.5882 C   0  0  0  0  0  0  0  0  0  0  0  0
    9.4658  -15.5408   22.3954 C   0  0  2  0  0  0  0  0  0  0  0  0
    9.2639  -16.9254   21.9482 N   0  0  0  0  0  0  0  0  0  0  0  0
    9.0773  -15.4747   23.8187 C   0  0  0  0  0  0  0  0  0  0  0  0
    8.1548  -16.4002   24.3391 O   0  0  0  0  0  0  0  0  0  0  0  0
    9.5208  -14.6243   24.6392 O   0  0  0  0  0  0  0  0  0  0  0  0
  2  1  1  1
  3  2  1  0
  4  3  1  0
  5  4  1  0
  6  5  1  0
  7  6  1  0
  8  9  2  0
  8  2  1  0
 11 10  1  6
 11 13  1  0
 12 11  1  0
 13 14  1  1
 14  8  1  0
 15 13  1  0
 16 15  2  0
 18 17  1  0
 19 18  2  0
 20 18  1  0
 21 20  1  0
 21 22  1  0
 22 23  1  0
 24 23  1  6
 24 26  1  0
 24 25  1  0
 25 15  1  0
 26 27  1  0
 28 26  2  0
M  END
$$$$
