KTR.pdb
     RDKit          3D

 28 27  0  0  1  0  0  0  0  0999 V2000
    8.6083  -17.6402   17.4043 N   0  0  0  0  0  0  0  0  0  0  0  0
    9.9279  -17.4412   17.9711 C   0  0  1  0  0  0  0  0  0  0  0  0
   10.8855  -16.9553   16.9087 C   0  0  0  0  0  0  0  0  0  0  0  0
   11.0318  -17.8954   15.7682 C   0  0  0  0  0  0  0  0  0  0  0  0
   10.0521  -17.7396   14.6696 C   0  0  0  0  0  0  0  0  0  0  0  0
   10.3004  -18.6106   13.4742 C   0  0  0  0  0  0  0  0  0  0  0  0
    9.2595  -18.4002   12.4798 N   0  0  0  0  0  0  0  0  0  0  0  0
    9.8145  -16.5227   19.1037 C   0  0  0  0  0  0  0  0  0  0  0  0
   10.8511  -16.0695   19.7026 O   0  0  0  0  0  0  0  0  0  0  0  0
    7.5144  -13.4988   19.2837 C   0  0  0  0  0  0  0  0  0  0  0  0
    7.2919  -14.2869   20.5593 C   0  0  1  0  0  0  0  0  0  0  0  0
    6.1136  -14.9864   20.5566 O   0  0  0  0  0  0  0  0  0  0  0  0
    8.5198  -15.1471   20.7864 C   0  0  2  0  0  0  0  0  0  0  0  0
    8.5763  -16.0532   19.6388 N   0  0  0  0  0  0  0  0  0  0  0  0
    8.4551  -15.9038   22.0597 C   0  0  0  0  0  0  0  0  0  0  0  0
    8.1620  -17.1306   22.0968 O   0  0  0  0  0  0  0  0  0  0  0  0
    9.7010  -15.2208   30.3004 N   0  0  0  0  0  0  0  0  0  0  0  0
   10.7115  -16.1472   29.9117 C   0  0  0  0  0  0  0  0  0  0  0  0
   11.1168  -17.0144   30.7854 N   0  0  0  0  0  0  0  0  0  0  0  0
   11.2809  -16.1523   28.6164 N   0  0  0  0  0  0  0  0  0  0  0  0
   10.8713  -15.2349   27.5761 C   0  0  0  0  0  0  0  0  0  0  0  0
    9.6524  -15.8259   26.8733 C   0  0  0  0  0  0  0  0  0  0  0  0
    9.7068  -15.3743   25.4435 C   0  0  0  0  0  0  0  0  0  0  0  0
    8.5683  -15.8446   24.5900 C   0  0  2  0  0  0  0  0  0  0  0  0
    8.7281  -15.2371   23.2622 N   0  0  0  0  0  0  0  0  0  0  0  0
    7.2952  -15.3503   25.1522 C   0  0  0  0  0  0  0  0  0  0  0  0
    6.5861  -16.1332   26.0810 O   0  0  0  0  0  0  0  0  0  0  0  0
    6.7695  -14.2413   24.8575 O   0  0  0  0  0  0  0  0  0  0  0  0
  2  1  1  6
  3  2  1  0
  4  3  1  0
  5  4  1  0
  6  5  1  0
  7  6  1  0
  8  9  2  0
  8  2  1  0
 11 10  1  6
 11 13  1  0
 12 11  1  0
 13 14  1  6
 14  8  1  0
 15 13  1  0
 16 15  2  0
 18 17  1  0
 19 18  2  0
 20 18  1  0
 21 20  1  0
 21 22  1  0
 22 23  1  0
 24 23  1  1
 24 26  1  0
 24 25  1  0
 25 15  1  0
 26 27  1  0
 28 26  2  0
M  END
$$$$
