KTR.pdb
     RDKit          3D

 28 27  0  0  1  0  0  0  0  0999 V2000
    5.9888  -22.7398   20.7580 N   0  0  0  0  0  0  0  0  0  0  0  0
    5.0258  -21.6573   20.8121 C   0  0  1  0  0  0  0  0  0  0  0  0
    3.6211  -22.2096   20.8720 C   0  0  0  0  0  0  0  0  0  0  0  0
    3.4428  -23.4611   20.0924 C   0  0  0  0  0  0  0  0  0  0  0  0
    3.6189  -24.7241   20.8440 C   0  0  0  0  0  0  0  0  0  0  0  0
    3.3554  -25.9711   20.0535 C   0  0  0  0  0  0  0  0  0  0  0  0
    4.4805  -26.2505   19.1744 N   0  0  0  0  0  0  0  0  0  0  0  0
    5.3532  -20.7994   21.9506 C   0  0  0  0  0  0  0  0  0  0  0  0
    4.6037  -19.8167   22.2839 O   0  0  0  0  0  0  0  0  0  0  0  0
    6.2485  -21.8567   25.4321 C   0  0  0  0  0  0  0  0  0  0  0  0
    7.3590  -20.9247   24.9895 C   0  0  1  0  0  0  0  0  0  0  0  0
    8.5120  -21.5868   24.6578 O   0  0  0  0  0  0  0  0  0  0  0  0
    6.8083  -20.0503   23.8798 C   0  0  2  0  0  0  0  0  0  0  0  0
    6.5046  -20.9658   22.7794 N   0  0  0  0  0  0  0  0  0  0  0  0
    7.7678  -19.0039   23.4526 C   0  0  0  0  0  0  0  0  0  0  0  0
    8.6201  -19.2059   22.5443 O   0  0  0  0  0  0  0  0  0  0  0  0
    7.5469  -13.5964   18.1701 N   0  0  0  0  0  0  0  0  0  0  0  0
    8.0900  -12.9147   19.2974 C   0  0  0  0  0  0  0  0  0  0  0  0
    8.1584  -11.6212   19.2570 N   0  0  0  0  0  0  0  0  0  0  0  0
    8.5519  -13.5962   20.4481 N   0  0  0  0  0  0  0  0  0  0  0  0
    7.8590  -13.5517   21.7169 C   0  0  0  0  0  0  0  0  0  0  0  0
    8.6710  -14.3524   22.7310 C   0  0  0  0  0  0  0  0  0  0  0  0
    7.8997  -15.6064   23.0206 C   0  0  0  0  0  0  0  0  0  0  0  0
    8.6607  -16.6548   23.7739 C   0  0  2  0  0  0  0  0  0  0  0  0
    7.7286  -17.7491   24.0762 N   0  0  0  0  0  0  0  0  0  0  0  0
    9.1215  -16.0980   25.0618 C   0  0  0  0  0  0  0  0  0  0  0  0
   10.2802  -15.3022   25.1091 O   0  0  0  0  0  0  0  0  0  0  0  0
    8.5402  -16.2837   26.1667 O   0  0  0  0  0  0  0  0  0  0  0  0
  2  1  1  1
  3  2  1  0
  4  3  1  0
  5  4  1  0
  6  5  1  0
  7  6  1  0
  8  9  2  0
  8  2  1  0
 11 10  1  6
 11 13  1  0
 12 11  1  0
 13 14  1  6
 14  8  1  0
 15 13  1  0
 16 15  2  0
 18 17  1  0
 19 18  2  0
 20 18  1  0
 21 20  1  0
 21 22  1  0
 22 23  1  0
 24 23  1  6
 24 26  1  0
 24 25  1  0
 25 15  1  0
 26 27  1  0
 28 26  2  0
M  END
$$$$
