HIF.pdb
     RDKit          3D

 30 31  0  0  1  0  0  0  0  0999 V2000
   28.6168  -22.1778  -16.6659 N   0  0  0  0  0  0  0  0  0  0  0  0
   27.8234  -21.0805  -16.1574 C   0  0  1  0  0  0  0  0  0  0  0  0
   27.0953  -20.4201  -17.3087 C   0  0  0  0  0  0  0  0  0  0  0  0
   28.0637  -19.6501  -18.1161 C   0  0  0  0  0  0  0  0  0  0  0  0
   28.4763  -18.3294  -17.9893 C   0  0  0  0  0  0  0  0  0  0  0  0
   29.3746  -18.1098  -18.9720 N   0  0  0  0  0  0  0  0  0  0  0  0
   29.5324  -19.2260  -19.6920 C   0  0  0  0  0  0  0  0  0  0  0  0
   28.7363  -20.1696  -19.1761 N   0  0  0  0  0  0  0  0  0  0  0  0
   26.8656  -21.6419  -15.1694 C   0  0  0  0  0  0  0  0  0  0  0  0
   26.3590  -22.7915  -15.3973 O   0  0  0  0  0  0  0  0  0  0  0  0
   25.5967  -20.9878   -9.1584 C   0  0  0  0  0  0  0  0  0  0  0  0
   25.1098  -21.5195  -10.4953 C   0  0  0  0  0  0  0  0  0  0  0  0
   26.0051  -21.0844  -11.6228 C   0  0  2  0  0  0  0  0  0  0  0  0
   26.3627  -19.6190  -11.5278 C   0  0  0  0  0  0  0  0  0  0  0  0
   25.5816  -21.5361  -12.9781 C   0  0  2  0  0  0  0  0  0  0  0  0
   26.5002  -20.9480  -13.9941 N   0  0  0  0  0  0  0  0  0  0  0  0
   24.2041  -21.1625  -13.3785 C   0  0  0  0  0  0  0  0  0  0  0  0
   23.9341  -19.9346  -13.6464 O   0  0  0  0  0  0  0  0  0  0  0  0
   23.1131  -22.0375  -13.5070 N   0  0  0  0  0  0  0  0  0  0  0  0
   21.7634  -21.5601  -13.8736 C   0  0  1  0  0  0  0  0  0  0  0  0
   21.0904  -22.5635  -14.7733 C   0  0  0  0  0  0  0  0  0  0  0  0
   19.7339  -22.2210  -15.1728 C   0  0  0  0  0  0  0  0  0  0  0  0
   19.4796  -21.4171  -16.2676 C   0  0  0  0  0  0  0  0  0  0  0  0
   18.1902  -21.0986  -16.6509 C   0  0  0  0  0  0  0  0  0  0  0  0
   17.1293  -21.5915  -15.9279 C   0  0  0  0  0  0  0  0  0  0  0  0
   17.3459  -22.3967  -14.8297 C   0  0  0  0  0  0  0  0  0  0  0  0
   18.6539  -22.6990  -14.4697 C   0  0  0  0  0  0  0  0  0  0  0  0
   20.9861  -21.2387  -12.6619 C   0  0  0  0  0  0  0  0  0  0  0  0
   20.1452  -20.1514  -12.6636 O   0  0  0  0  0  0  0  0  0  0  0  0
   21.0901  -21.9456  -11.6463 O   0  0  0  0  0  0  0  0  0  0  0  0
  2  3  1  0
  2  1  1  6
  3  4  1  0
  4  8  1  0
  4  5  2  0
  5  6  1  0
  7  6  1  0
  8  7  2  0
  9  2  1  0
 10  9  2  0
 12 13  1  0
 12 11  1  0
 13 14  1  6
 13 15  1  0
 15 16  1  6
 16  9  1  0
 17 15  1  0
 17 18  2  0
 19 17  1  0
 20 19  1  0
 20 21  1  1
 22 21  1  0
 22 27  1  0
 23 22  2  0
 24 23  1  0
 24 25  2  0
 25 26  1  0
 26 27  2  0
 28 20  1  0
 29 28  1  0
 30 28  2  0
M  END
$$$$
