HIF.pdb
     RDKit          3D

 30 31  0  0  1  0  0  0  0  0999 V2000
   22.3112  -11.9785  -18.7461 N   0  0  0  0  0  0  0  0  0  0  0  0
   22.3487  -11.3207  -17.4584 C   0  0  1  0  0  0  0  0  0  0  0  0
   23.7907  -11.1530  -17.0293 C   0  0  0  0  0  0  0  0  0  0  0  0
   24.3436  -12.4732  -16.6631 C   0  0  0  0  0  0  0  0  0  0  0  0
   24.2871  -13.1572  -15.4550 C   0  0  0  0  0  0  0  0  0  0  0  0
   24.9446  -14.3211  -15.6395 N   0  0  0  0  0  0  0  0  0  0  0  0
   25.3996  -14.3840  -16.8958 C   0  0  0  0  0  0  0  0  0  0  0  0
   25.0369  -13.2609  -17.5262 N   0  0  0  0  0  0  0  0  0  0  0  0
   21.6783  -10.0030  -17.6100 C   0  0  0  0  0  0  0  0  0  0  0  0
   21.9396   -9.3021  -18.6447 O   0  0  0  0  0  0  0  0  0  0  0  0
   16.8228   -9.7828  -17.6207 C   0  0  0  0  0  0  0  0  0  0  0  0
   18.0581   -8.9712  -17.9706 C   0  0  0  0  0  0  0  0  0  0  0  0
   18.6537   -8.3180  -16.7538 C   0  0  2  0  0  0  0  0  0  0  0  0
   17.8938   -7.0756  -16.3497 C   0  0  0  0  0  0  0  0  0  0  0  0
   20.1352   -8.1612  -16.7805 C   0  0  2  0  0  0  0  0  0  0  0  0
   20.7673   -9.5050  -16.6518 N   0  0  0  0  0  0  0  0  0  0  0  0
   20.7109   -7.3125  -15.7100 C   0  0  0  0  0  0  0  0  0  0  0  0
   20.6177   -7.6897  -14.4847 O   0  0  0  0  0  0  0  0  0  0  0  0
   21.3788   -6.0904  -15.8915 N   0  0  0  0  0  0  0  0  0  0  0  0
   21.9439   -5.3294  -14.7577 C   0  0  1  0  0  0  0  0  0  0  0  0
   23.3858   -5.7130  -14.5494 C   0  0  0  0  0  0  0  0  0  0  0  0
   24.2080   -5.6950  -15.7497 C   0  0  0  0  0  0  0  0  0  0  0  0
   24.8278   -4.5406  -16.1888 C   0  0  0  0  0  0  0  0  0  0  0  0
   25.6151   -4.5263  -17.3250 C   0  0  0  0  0  0  0  0  0  0  0  0
   25.7897   -5.6876  -18.0406 C   0  0  0  0  0  0  0  0  0  0  0  0
   25.1862   -6.8580  -17.6315 C   0  0  0  0  0  0  0  0  0  0  0  0
   24.4007   -6.8400  -16.4850 C   0  0  0  0  0  0  0  0  0  0  0  0
   21.7411   -3.8823  -14.9591 C   0  0  0  0  0  0  0  0  0  0  0  0
   22.0332   -3.0078  -13.9396 O   0  0  0  0  0  0  0  0  0  0  0  0
   21.3090   -3.4560  -16.0424 O   0  0  0  0  0  0  0  0  0  0  0  0
  2  3  1  0
  2  1  1  6
  3  4  1  0
  4  8  1  0
  4  5  2  0
  5  6  1  0
  7  6  1  0
  8  7  2  0
  9  2  1  0
 10  9  2  0
 12 13  1  0
 12 11  1  0
 13 14  1  6
 13 15  1  0
 15 16  1  1
 16  9  1  0
 17 15  1  0
 17 18  2  0
 19 17  1  0
 20 19  1  0
 20 21  1  6
 22 21  1  0
 22 27  1  0
 23 22  2  0
 24 23  1  0
 24 25  2  0
 25 26  1  0
 26 27  2  0
 28 20  1  0
 29 28  1  0
 30 28  2  0
M  END
$$$$
