HIF.pdb
     RDKit          3D

 30 31  0  0  1  0  0  0  0  0999 V2000
   27.7734  -21.0795  -16.2793 N   0  0  0  0  0  0  0  0  0  0  0  0
   26.9608  -20.0644  -15.6456 C   0  0  1  0  0  0  0  0  0  0  0  0
   26.2552  -19.2563  -16.7137 C   0  0  0  0  0  0  0  0  0  0  0  0
   27.2486  -18.4327  -17.4331 C   0  0  0  0  0  0  0  0  0  0  0  0
   28.3594  -17.7534  -16.9482 C   0  0  0  0  0  0  0  0  0  0  0  0
   28.9385  -17.1537  -18.0094 N   0  0  0  0  0  0  0  0  0  0  0  0
   28.2403  -17.4307  -19.1162 C   0  0  0  0  0  0  0  0  0  0  0  0
   27.2084  -18.2102  -18.7729 N   0  0  0  0  0  0  0  0  0  0  0  0
   25.9841  -20.7583  -14.7663 C   0  0  0  0  0  0  0  0  0  0  0  0
   25.5541  -21.9070  -15.1210 O   0  0  0  0  0  0  0  0  0  0  0  0
   26.9606  -20.8669   -9.5861 C   0  0  0  0  0  0  0  0  0  0  0  0
   26.5142  -21.1766  -11.0046 C   0  0  0  0  0  0  0  0  0  0  0  0
   25.0887  -20.7583  -11.2395 C   0  0  2  0  0  0  0  0  0  0  0  0
   24.1580  -21.3011  -10.1796 C   0  0  0  0  0  0  0  0  0  0  0  0
   24.6031  -20.9223  -12.6386 C   0  0  2  0  0  0  0  0  0  0  0  0
   25.5195  -20.1907  -13.5588 N   0  0  0  0  0  0  0  0  0  0  0  0
   23.2348  -20.4189  -12.9069 C   0  0  0  0  0  0  0  0  0  0  0  0
   22.9777  -19.1695  -12.7475 O   0  0  0  0  0  0  0  0  0  0  0  0
   22.1399  -21.1860  -13.3376 N   0  0  0  0  0  0  0  0  0  0  0  0
   20.8115  -20.5875  -13.5847 C   0  0  1  0  0  0  0  0  0  0  0  0
   20.4488  -20.7252  -15.0403 C   0  0  0  0  0  0  0  0  0  0  0  0
   21.2274  -19.8990  -15.9504 C   0  0  0  0  0  0  0  0  0  0  0  0
   20.7949  -18.6477  -16.3464 C   0  0  0  0  0  0  0  0  0  0  0  0
   21.5390  -17.8602  -17.2049 C   0  0  0  0  0  0  0  0  0  0  0  0
   22.7413  -18.3288  -17.6804 C   0  0  0  0  0  0  0  0  0  0  0  0
   23.2038  -19.5728  -17.3062 C   0  0  0  0  0  0  0  0  0  0  0  0
   22.4326  -20.3406  -16.4416 C   0  0  0  0  0  0  0  0  0  0  0  0
   19.8098  -21.1659  -12.6693 C   0  0  0  0  0  0  0  0  0  0  0  0
   18.6225  -20.5063  -12.4583 O   0  0  0  0  0  0  0  0  0  0  0  0
   20.0371  -22.2418  -12.0926 O   0  0  0  0  0  0  0  0  0  0  0  0
  2  3  1  0
  2  1  1  6
  3  4  1  0
  4  8  1  0
  4  5  2  0
  5  6  1  0
  7  6  1  0
  8  7  2  0
  9  2  1  0
 10  9  2  0
 12 13  1  0
 12 11  1  0
 13 14  1  1
 13 15  1  0
 15 16  1  6
 16  9  1  0
 17 15  1  0
 17 18  2  0
 19 17  1  0
 20 19  1  0
 20 21  1  6
 22 21  1  0
 22 27  1  0
 23 22  2  0
 24 23  1  0
 24 25  2  0
 25 26  1  0
 26 27  2  0
 28 20  1  0
 29 28  1  0
 30 28  2  0
M  END
$$$$
