HIF.pdb
     RDKit          3D

 30 31  0  0  1  0  0  0  0  0999 V2000
   19.8134  -11.6817  -20.6796 N   0  0  0  0  0  0  0  0  0  0  0  0
   20.8770  -11.3695  -19.7503 C   0  0  1  0  0  0  0  0  0  0  0  0
   22.0782  -10.8672  -20.5224 C   0  0  0  0  0  0  0  0  0  0  0  0
   22.6662  -11.9872  -21.2857 C   0  0  0  0  0  0  0  0  0  0  0  0
   22.4403  -12.3850  -22.5976 C   0  0  0  0  0  0  0  0  0  0  0  0
   23.2232  -13.4627  -22.8142 N   0  0  0  0  0  0  0  0  0  0  0  0
   23.9149  -13.7438  -21.7043 C   0  0  0  0  0  0  0  0  0  0  0  0
   23.5807  -12.8485  -20.7679 N   0  0  0  0  0  0  0  0  0  0  0  0
   20.3659  -10.3302  -18.8190 C   0  0  0  0  0  0  0  0  0  0  0  0
   19.6243   -9.4030  -19.2886 O   0  0  0  0  0  0  0  0  0  0  0  0
   18.3007  -12.3051  -15.0719 C   0  0  0  0  0  0  0  0  0  0  0  0
   18.2438  -10.9209  -15.6948 C   0  0  0  0  0  0  0  0  0  0  0  0
   19.4618  -10.1088  -15.3500 C   0  0  2  0  0  0  0  0  0  0  0  0
   19.2607   -9.2931  -14.0936 C   0  0  0  0  0  0  0  0  0  0  0  0
   20.0676   -9.3616  -16.4879 C   0  0  2  0  0  0  0  0  0  0  0  0
   20.6731  -10.3356  -17.4400 N   0  0  0  0  0  0  0  0  0  0  0  0
   21.1328   -8.3955  -16.1277 C   0  0  0  0  0  0  0  0  0  0  0  0
   22.2821   -8.8320  -15.7523 O   0  0  0  0  0  0  0  0  0  0  0  0
   21.0245   -6.9955  -16.1545 N   0  0  0  0  0  0  0  0  0  0  0  0
   22.1533   -6.1142  -15.7896 C   0  0  1  0  0  0  0  0  0  0  0  0
   22.6460   -5.3791  -17.0088 C   0  0  0  0  0  0  0  0  0  0  0  0
   23.5594   -4.2794  -16.7382 C   0  0  0  0  0  0  0  0  0  0  0  0
   23.1166   -2.9741  -16.6402 C   0  0  0  0  0  0  0  0  0  0  0  0
   23.9841   -1.9309  -16.3754 C   0  0  0  0  0  0  0  0  0  0  0  0
   25.3233   -2.1928  -16.2042 C   0  0  0  0  0  0  0  0  0  0  0  0
   25.8002   -3.4834  -16.2952 C   0  0  0  0  0  0  0  0  0  0  0  0
   24.9028   -4.5106  -16.5624 C   0  0  0  0  0  0  0  0  0  0  0  0
   21.7705   -5.2237  -14.6778 C   0  0  0  0  0  0  0  0  0  0  0  0
   22.7179   -4.8395  -13.7591 O   0  0  0  0  0  0  0  0  0  0  0  0
   20.5998   -4.8234  -14.5717 O   0  0  0  0  0  0  0  0  0  0  0  0
  2  3  1  0
  2  1  1  6
  3  4  1  0
  4  8  1  0
  4  5  2  0
  5  6  1  0
  7  6  1  0
  8  7  2  0
  9  2  1  0
 10  9  2  0
 12 13  1  0
 12 11  1  0
 13 14  1  1
 13 15  1  0
 15 16  1  6
 16  9  1  0
 17 15  1  0
 17 18  2  0
 19 17  1  0
 20 19  1  0
 20 21  1  6
 22 21  1  0
 22 27  1  0
 23 22  2  0
 24 23  1  0
 24 25  2  0
 25 26  1  0
 26 27  2  0
 28 20  1  0
 29 28  1  0
 30 28  2  0
M  END
$$$$
