HIF.pdb
     RDKit          3D

 30 31  0  0  1  0  0  0  0  0999 V2000
   19.7443   -8.1310  -18.5087 N   0  0  0  0  0  0  0  0  0  0  0  0
   20.0158   -7.1427  -17.4880 C   0  0  1  0  0  0  0  0  0  0  0  0
   18.9737   -6.0476  -17.5687 C   0  0  0  0  0  0  0  0  0  0  0  0
   19.2784   -5.1731  -18.7198 C   0  0  0  0  0  0  0  0  0  0  0  0
   19.6497   -3.8345  -18.7460 C   0  0  0  0  0  0  0  0  0  0  0  0
   19.8126   -3.5047  -20.0444 N   0  0  0  0  0  0  0  0  0  0  0  0
   19.5603   -4.5706  -20.8121 C   0  0  0  0  0  0  0  0  0  0  0  0
   19.2339   -5.5918  -20.0116 N   0  0  0  0  0  0  0  0  0  0  0  0
   19.9664   -7.8333  -16.1730 C   0  0  0  0  0  0  0  0  0  0  0  0
   19.0743   -8.7278  -15.9878 O   0  0  0  0  0  0  0  0  0  0  0  0
   21.9045  -11.1022  -14.3876 C   0  0  0  0  0  0  0  0  0  0  0  0
   22.6797   -9.7992  -14.4799 C   0  0  0  0  0  0  0  0  0  0  0  0
   22.1662   -8.7797  -13.5006 C   0  0  2  0  0  0  0  0  0  0  0  0
   22.3528   -9.2265  -12.0690 C   0  0  0  0  0  0  0  0  0  0  0  0
   20.8175   -8.2273  -13.8104 C   0  0  2  0  0  0  0  0  0  0  0  0
   20.8690   -7.5328  -15.1283 N   0  0  0  0  0  0  0  0  0  0  0  0
   20.2831   -7.2503  -12.8318 C   0  0  0  0  0  0  0  0  0  0  0  0
   20.8533   -6.1052  -12.7052 O   0  0  0  0  0  0  0  0  0  0  0  0
   19.1734   -7.4416  -11.9925 N   0  0  0  0  0  0  0  0  0  0  0  0
   18.7807   -6.4472  -10.9722 C   0  0  1  0  0  0  0  0  0  0  0  0
   18.4299   -5.1412  -11.6362 C   0  0  0  0  0  0  0  0  0  0  0  0
   17.1269   -5.1091  -12.2830 C   0  0  0  0  0  0  0  0  0  0  0  0
   16.9556   -5.5146  -13.5928 C   0  0  0  0  0  0  0  0  0  0  0  0
   15.7159   -5.4911  -14.2041 C   0  0  0  0  0  0  0  0  0  0  0  0
   14.6215   -5.0537  -13.4954 C   0  0  0  0  0  0  0  0  0  0  0  0
   14.7557   -4.6416  -12.1863 C   0  0  0  0  0  0  0  0  0  0  0  0
   16.0153   -4.6772  -11.5999 C   0  0  0  0  0  0  0  0  0  0  0  0
   17.7034   -6.9844  -10.1199 C   0  0  0  0  0  0  0  0  0  0  0  0
   17.3797   -6.3410   -8.9492 O   0  0  0  0  0  0  0  0  0  0  0  0
   17.0924   -8.0115  -10.4571 O   0  0  0  0  0  0  0  0  0  0  0  0
  2  3  1  0
  2  1  1  6
  3  4  1  0
  4  8  1  0
  4  5  2  0
  5  6  1  0
  7  6  1  0
  8  7  2  0
  9  2  1  0
 10  9  2  0
 12 13  1  0
 12 11  1  0
 13 14  1  1
 13 15  1  0
 15 16  1  6
 16  9  1  0
 17 15  1  0
 17 18  2  0
 19 17  1  0
 20 19  1  0
 20 21  1  6
 22 21  1  0
 22 27  1  0
 23 22  2  0
 24 23  1  0
 24 25  2  0
 25 26  1  0
 26 27  2  0
 28 20  1  0
 29 28  1  0
 30 28  2  0
M  END
$$$$
