HIF.pdb
     RDKit          3D

 30 31  0  0  1  0  0  0  0  0999 V2000
   20.6661  -14.2681  -18.7536 N   0  0  0  0  0  0  0  0  0  0  0  0
   19.9924  -13.4755  -17.7485 C   0  0  1  0  0  0  0  0  0  0  0  0
   20.2888  -14.0532  -16.3810 C   0  0  0  0  0  0  0  0  0  0  0  0
   19.5647  -15.3319  -16.2282 C   0  0  0  0  0  0  0  0  0  0  0  0
   18.7175  -15.9857  -17.1144 C   0  0  0  0  0  0  0  0  0  0  0  0
   18.3148  -17.1173  -16.4993 N   0  0  0  0  0  0  0  0  0  0  0  0
   18.8710  -17.1891  -15.2849 C   0  0  0  0  0  0  0  0  0  0  0  0
   19.6345  -16.1040  -15.1124 N   0  0  0  0  0  0  0  0  0  0  0  0
   20.4998  -12.0833  -17.8632 C   0  0  0  0  0  0  0  0  0  0  0  0
   21.7136  -11.9045  -18.2166 O   0  0  0  0  0  0  0  0  0  0  0  0
   18.6475   -7.0334  -20.3712 C   0  0  0  0  0  0  0  0  0  0  0  0
   19.5506   -7.5380  -19.2590 C   0  0  0  0  0  0  0  0  0  0  0  0
   19.2994   -8.9902  -18.9587 C   0  0  2  0  0  0  0  0  0  0  0  0
   17.8239   -9.2974  -18.8460 C   0  0  0  0  0  0  0  0  0  0  0  0
   20.1408   -9.5669  -17.8726 C   0  0  2  0  0  0  0  0  0  0  0  0
   19.6869  -10.9593  -17.5951 N   0  0  0  0  0  0  0  0  0  0  0  0
   20.1092   -8.8403  -16.5808 C   0  0  0  0  0  0  0  0  0  0  0  0
   19.1925   -9.1153  -15.7226 O   0  0  0  0  0  0  0  0  0  0  0  0
   21.0090   -7.8437  -16.1690 N   0  0  0  0  0  0  0  0  0  0  0  0
   20.9456   -7.2371  -14.8229 C   0  0  1  0  0  0  0  0  0  0  0  0
   22.3142   -7.2398  -14.1933 C   0  0  0  0  0  0  0  0  0  0  0  0
   23.3412   -6.5375  -14.9478 C   0  0  0  0  0  0  0  0  0  0  0  0
   23.5238   -5.1728  -14.8305 C   0  0  0  0  0  0  0  0  0  0  0  0
   24.5049   -4.5077  -15.5418 C   0  0  0  0  0  0  0  0  0  0  0  0
   25.3231   -5.2170  -16.3895 C   0  0  0  0  0  0  0  0  0  0  0  0
   25.1691   -6.5800  -16.5313 C   0  0  0  0  0  0  0  0  0  0  0  0
   24.1737   -7.2199  -15.8023 C   0  0  0  0  0  0  0  0  0  0  0  0
   20.3300   -5.8984  -14.8918 C   0  0  0  0  0  0  0  0  0  0  0  0
   19.9091   -5.2847  -13.7362 O   0  0  0  0  0  0  0  0  0  0  0  0
   20.1924   -5.3289  -15.9867 O   0  0  0  0  0  0  0  0  0  0  0  0
  2  3  1  0
  2  1  1  6
  3  4  1  0
  4  8  1  0
  4  5  2  0
  5  6  1  0
  7  6  1  0
  8  7  2  0
  9  2  1  0
 10  9  2  0
 12 13  1  0
 12 11  1  0
 13 14  1  1
 13 15  1  0
 15 16  1  1
 16  9  1  0
 17 15  1  0
 17 18  2  0
 19 17  1  0
 20 19  1  0
 20 21  1  6
 22 21  1  0
 22 27  1  0
 23 22  2  0
 24 23  1  0
 24 25  2  0
 25 26  1  0
 26 27  2  0
 28 20  1  0
 29 28  1  0
 30 28  2  0
M  END
$$$$
