HIF.pdb
     RDKit          3D

 30 31  0  0  1  0  0  0  0  0999 V2000
   21.7300  -19.8319  -15.3923 N   0  0  0  0  0  0  0  0  0  0  0  0
   22.3751  -19.0016  -14.3989 C   0  0  1  0  0  0  0  0  0  0  0  0
   21.3166  -18.3478  -13.5364 C   0  0  0  0  0  0  0  0  0  0  0  0
   20.5781  -17.3559  -14.3447 C   0  0  0  0  0  0  0  0  0  0  0  0
   20.9306  -16.0606  -14.7030 C   0  0  0  0  0  0  0  0  0  0  0  0
   19.9139  -15.5757  -15.4461 N   0  0  0  0  0  0  0  0  0  0  0  0
   18.9595  -16.5059  -15.5604 C   0  0  0  0  0  0  0  0  0  0  0  0
   19.3573  -17.5943  -14.8915 N   0  0  0  0  0  0  0  0  0  0  0  0
   23.2592  -19.8794  -13.5886 C   0  0  0  0  0  0  0  0  0  0  0  0
   22.7472  -20.9017  -13.0202 O   0  0  0  0  0  0  0  0  0  0  0  0
   27.3628  -21.7001  -16.0110 C   0  0  0  0  0  0  0  0  0  0  0  0
   26.2093  -21.5542  -15.0335 C   0  0  0  0  0  0  0  0  0  0  0  0
   26.6563  -20.9310  -13.7397 C   0  0  2  0  0  0  0  0  0  0  0  0
   27.8238  -21.6715  -13.1290 C   0  0  0  0  0  0  0  0  0  0  0  0
   25.5613  -20.5984  -12.7855 C   0  0  2  0  0  0  0  0  0  0  0  0
   24.6387  -19.6198  -13.4283 N   0  0  0  0  0  0  0  0  0  0  0  0
   25.9901  -20.0014  -11.4982 C   0  0  0  0  0  0  0  0  0  0  0  0
   26.4101  -18.7867  -11.4729 O   0  0  0  0  0  0  0  0  0  0  0  0
   25.9863  -20.6399  -10.2473 N   0  0  0  0  0  0  0  0  0  0  0  0
   26.8910  -20.2283   -9.1536 C   0  0  1  0  0  0  0  0  0  0  0  0
   26.1219  -20.1242   -7.8625 C   0  0  0  0  0  0  0  0  0  0  0  0
   26.9252  -19.8141   -6.6897 C   0  0  0  0  0  0  0  0  0  0  0  0
   27.3288  -20.7958   -5.8049 C   0  0  0  0  0  0  0  0  0  0  0  0
   28.0986  -20.5013   -4.6951 C   0  0  0  0  0  0  0  0  0  0  0  0
   28.4755  -19.1997   -4.4605 C   0  0  0  0  0  0  0  0  0  0  0  0
   28.0908  -18.1945   -5.3225 C   0  0  0  0  0  0  0  0  0  0  0  0
   27.3171  -18.5227   -6.4295 C   0  0  0  0  0  0  0  0  0  0  0  0
   28.0512  -21.1361   -9.0783 C   0  0  0  0  0  0  0  0  0  0  0  0
   29.2788  -20.6392   -8.7105 O   0  0  0  0  0  0  0  0  0  0  0  0
   27.9204  -22.3417   -9.3453 O   0  0  0  0  0  0  0  0  0  0  0  0
  2  3  1  0
  2  1  1  6
  3  4  1  0
  4  8  1  0
  4  5  2  0
  5  6  1  0
  7  6  1  0
  8  7  2  0
  9  2  1  0
 10  9  2  0
 12 13  1  0
 12 11  1  0
 13 14  1  1
 13 15  1  0
 15 16  1  6
 16  9  1  0
 17 15  1  0
 17 18  2  0
 19 17  1  0
 20 19  1  0
 20 21  1  1
 22 21  1  0
 22 27  1  0
 23 22  2  0
 24 23  1  0
 24 25  2  0
 25 26  1  0
 26 27  2  0
 28 20  1  0
 29 28  1  0
 30 28  2  0
M  END
$$$$
