HIF.pdb
     RDKit          3D

 30 31  0  0  1  0  0  0  0  0999 V2000
   22.5104  -20.6476  -14.1673 N   0  0  0  0  0  0  0  0  0  0  0  0
   21.7965  -20.0465  -13.0621 C   0  0  1  0  0  0  0  0  0  0  0  0
   20.3452  -19.8623  -13.4512 C   0  0  0  0  0  0  0  0  0  0  0  0
   20.2517  -18.8177  -14.4918 C   0  0  0  0  0  0  0  0  0  0  0  0
   20.3534  -17.4368  -14.3776 C   0  0  0  0  0  0  0  0  0  0  0  0
   20.1968  -16.9342  -15.6202 N   0  0  0  0  0  0  0  0  0  0  0  0
   20.0050  -17.9349  -16.4868 C   0  0  0  0  0  0  0  0  0  0  0  0
   20.0372  -19.0864  -15.8063 N   0  0  0  0  0  0  0  0  0  0  0  0
   21.9268  -20.9594  -11.8966 C   0  0  0  0  0  0  0  0  0  0  0  0
   21.7645  -22.2121  -12.0828 O   0  0  0  0  0  0  0  0  0  0  0  0
   25.6202  -19.8507   -7.9750 C   0  0  0  0  0  0  0  0  0  0  0  0
   24.7557  -20.5834   -8.9863 C   0  0  0  0  0  0  0  0  0  0  0  0
   23.3563  -20.7861   -8.4738 C   0  0  2  0  0  0  0  0  0  0  0  0
   23.3431  -21.3999   -7.0928 C   0  0  0  0  0  0  0  0  0  0  0  0
   22.4114  -21.4101   -9.4423 C   0  0  2  0  0  0  0  0  0  0  0  0
   22.2222  -20.4878  -10.5979 N   0  0  0  0  0  0  0  0  0  0  0  0
   21.0609  -21.7185   -8.9145 C   0  0  0  0  0  0  0  0  0  0  0  0
   20.2296  -20.7607   -8.7050 O   0  0  0  0  0  0  0  0  0  0  0  0
   20.5638  -22.9956   -8.6069 N   0  0  0  0  0  0  0  0  0  0  0  0
   19.2009  -23.1993   -8.0731 C   0  0  1  0  0  0  0  0  0  0  0  0
   18.5056  -24.2915   -8.8432 C   0  0  0  0  0  0  0  0  0  0  0  0
   17.1894  -24.6569   -8.3423 C   0  0  0  0  0  0  0  0  0  0  0  0
   16.0685  -23.8994   -8.6237 C   0  0  0  0  0  0  0  0  0  0  0  0
   14.8171  -24.2517   -8.1538 C   0  0  0  0  0  0  0  0  0  0  0  0
   14.6779  -25.3841   -7.3861 C   0  0  0  0  0  0  0  0  0  0  0  0
   15.7748  -26.1638   -7.0855 C   0  0  0  0  0  0  0  0  0  0  0  0
   17.0196  -25.7831   -7.5728 C   0  0  0  0  0  0  0  0  0  0  0  0
   19.2502  -23.4415   -6.6190 C   0  0  0  0  0  0  0  0  0  0  0  0
   18.1309  -23.2129   -5.8546 O   0  0  0  0  0  0  0  0  0  0  0  0
   20.2960  -23.8493   -6.0879 O   0  0  0  0  0  0  0  0  0  0  0  0
  2  3  1  0
  2  1  1  6
  3  4  1  0
  4  8  1  0
  4  5  2  0
  5  6  1  0
  7  6  1  0
  8  7  2  0
  9  2  1  0
 10  9  2  0
 12 13  1  0
 12 11  1  0
 13 14  1  1
 13 15  1  0
 15 16  1  6
 16  9  1  0
 17 15  1  0
 17 18  2  0
 19 17  1  0
 20 19  1  0
 20 21  1  6
 22 21  1  0
 22 27  1  0
 23 22  2  0
 24 23  1  0
 24 25  2  0
 25 26  1  0
 26 27  2  0
 28 20  1  0
 29 28  1  0
 30 28  2  0
M  END
$$$$
