HIF.pdb
     RDKit          3D

 30 31  0  0  1  0  0  0  0  0999 V2000
   20.4607  -11.0070  -19.1135 N   0  0  0  0  0  0  0  0  0  0  0  0
   21.3798  -10.2437  -18.2979 C   0  0  1  0  0  0  0  0  0  0  0  0
   22.3981   -9.5725  -19.1947 C   0  0  0  0  0  0  0  0  0  0  0  0
   23.2815  -10.6021  -19.7796 C   0  0  0  0  0  0  0  0  0  0  0  0
   23.2378  -11.2052  -21.0306 C   0  0  0  0  0  0  0  0  0  0  0  0
   24.2664  -12.0775  -21.0744 N   0  0  0  0  0  0  0  0  0  0  0  0
   24.9356  -12.0392  -19.9169 C   0  0  0  0  0  0  0  0  0  0  0  0
   24.3411  -11.1418  -19.1223 N   0  0  0  0  0  0  0  0  0  0  0  0
   20.5825   -9.2390  -17.5472 C   0  0  0  0  0  0  0  0  0  0  0  0
   19.6480   -8.6215  -18.1601 O   0  0  0  0  0  0  0  0  0  0  0  0
   17.3653  -10.3225  -13.8923 C   0  0  0  0  0  0  0  0  0  0  0  0
   18.1609   -9.6341  -14.9879 C   0  0  0  0  0  0  0  0  0  0  0  0
   19.1826   -8.6885  -14.4186 C   0  0  2  0  0  0  0  0  0  0  0  0
   18.6014   -7.8167  -13.3294 C   0  0  0  0  0  0  0  0  0  0  0  0
   20.0039   -7.9615  -15.4271 C   0  0  2  0  0  0  0  0  0  0  0  0
   20.8245   -8.9477  -16.1860 N   0  0  0  0  0  0  0  0  0  0  0  0
   20.9425   -6.9509  -14.8835 C   0  0  0  0  0  0  0  0  0  0  0  0
   21.8878   -7.3242  -14.0965 O   0  0  0  0  0  0  0  0  0  0  0  0
   20.9165   -5.5713  -15.1453 N   0  0  0  0  0  0  0  0  0  0  0  0
   21.8819   -4.6376  -14.5289 C   0  0  1  0  0  0  0  0  0  0  0  0
   22.7703   -4.0427  -15.5902 C   0  0  0  0  0  0  0  0  0  0  0  0
   23.5144   -5.0088  -16.3839 C   0  0  0  0  0  0  0  0  0  0  0  0
   22.9866   -5.5656  -17.5333 C   0  0  0  0  0  0  0  0  0  0  0  0
   23.6974   -6.4776  -18.2909 C   0  0  0  0  0  0  0  0  0  0  0  0
   24.9626   -6.8439  -17.8956 C   0  0  0  0  0  0  0  0  0  0  0  0
   25.5206   -6.3083  -16.7540 C   0  0  0  0  0  0  0  0  0  0  0  0
   24.7808   -5.3938  -16.0138 C   0  0  0  0  0  0  0  0  0  0  0  0
   21.1742   -3.6291  -13.7179 C   0  0  0  0  0  0  0  0  0  0  0  0
   21.8942   -2.7787  -12.9129 O   0  0  0  0  0  0  0  0  0  0  0  0
   19.9359   -3.5482  -13.7615 O   0  0  0  0  0  0  0  0  0  0  0  0
  2  3  1  0
  2  1  1  6
  3  4  1  0
  4  8  1  0
  4  5  2  0
  5  6  1  0
  7  6  1  0
  8  7  2  0
  9  2  1  0
 10  9  2  0
 12 13  1  0
 12 11  1  0
 13 14  1  6
 13 15  1  0
 15 16  1  1
 16  9  1  0
 17 15  1  0
 17 18  2  0
 19 17  1  0
 20 19  1  0
 20 21  1  6
 22 21  1  0
 22 27  1  0
 23 22  2  0
 24 23  1  0
 24 25  2  0
 25 26  1  0
 26 27  2  0
 28 20  1  0
 29 28  1  0
 30 28  2  0
M  END
$$$$
