HIF.pdb
     RDKit          3D

 30 31  0  0  1  0  0  0  0  0999 V2000
   27.3400  -18.4814  -16.9103 N   0  0  0  0  0  0  0  0  0  0  0  0
   26.6755  -18.1519  -15.6684 C   0  0  1  0  0  0  0  0  0  0  0  0
   25.2664  -17.6870  -15.9685 C   0  0  0  0  0  0  0  0  0  0  0  0
   25.3259  -16.4536  -16.7797 C   0  0  0  0  0  0  0  0  0  0  0  0
   26.0260  -15.2746  -16.5556 C   0  0  0  0  0  0  0  0  0  0  0  0
   25.7457  -14.4566  -17.5916 N   0  0  0  0  0  0  0  0  0  0  0  0
   24.9117  -15.0734  -18.4361 C   0  0  0  0  0  0  0  0  0  0  0  0
   24.6512  -16.2916  -17.9478 N   0  0  0  0  0  0  0  0  0  0  0  0
   26.6675  -19.3770  -14.8271 C   0  0  0  0  0  0  0  0  0  0  0  0
   26.2145  -20.4591  -15.3311 O   0  0  0  0  0  0  0  0  0  0  0  0
   30.8990  -20.5595  -11.9205 C   0  0  0  0  0  0  0  0  0  0  0  0
   29.6367  -20.5867  -12.7651 C   0  0  0  0  0  0  0  0  0  0  0  0
   28.4042  -20.7186  -11.9133 C   0  0  2  0  0  0  0  0  0  0  0  0
   28.4937  -21.8937  -10.9671 C   0  0  0  0  0  0  0  0  0  0  0  0
   27.1123  -20.6065  -12.6472 C   0  0  2  0  0  0  0  0  0  0  0  0
   27.1418  -19.3817  -13.4963 N   0  0  0  0  0  0  0  0  0  0  0  0
   25.8987  -20.5123  -11.8011 C   0  0  0  0  0  0  0  0  0  0  0  0
   26.0179  -20.2254  -10.5537 O   0  0  0  0  0  0  0  0  0  0  0  0
   24.5748  -20.7066  -12.2276 N   0  0  0  0  0  0  0  0  0  0  0  0
   23.4805  -21.0024  -11.2795 C   0  0  1  0  0  0  0  0  0  0  0  0
   23.4035  -19.9232  -10.2312 C   0  0  0  0  0  0  0  0  0  0  0  0
   24.3298  -20.0762   -9.1197 C   0  0  0  0  0  0  0  0  0  0  0  0
   24.2032  -21.1035   -8.2042 C   0  0  0  0  0  0  0  0  0  0  0  0
   25.0884  -21.2527   -7.1530 C   0  0  0  0  0  0  0  0  0  0  0  0
   26.1235  -20.3587   -7.0094 C   0  0  0  0  0  0  0  0  0  0  0  0
   26.2802  -19.3214   -7.9044 C   0  0  0  0  0  0  0  0  0  0  0  0
   25.3739  -19.1984   -8.9508 C   0  0  0  0  0  0  0  0  0  0  0  0
   22.2141  -21.2110  -12.0063 C   0  0  0  0  0  0  0  0  0  0  0  0
   21.0956  -21.6169  -11.3181 O   0  0  0  0  0  0  0  0  0  0  0  0
   22.1580  -21.0215  -13.2322 O   0  0  0  0  0  0  0  0  0  0  0  0
  2  3  1  0
  2  1  1  6
  3  4  1  0
  4  8  1  0
  4  5  2  0
  5  6  1  0
  7  6  1  0
  8  7  2  0
  9  2  1  0
 10  9  2  0
 12 13  1  0
 12 11  1  0
 13 14  1  6
 13 15  1  0
 15 16  1  1
 16  9  1  0
 17 15  1  0
 17 18  2  0
 19 17  1  0
 20 19  1  0
 20 21  1  1
 22 21  1  0
 22 27  1  0
 23 22  2  0
 24 23  1  0
 24 25  2  0
 25 26  1  0
 26 27  2  0
 28 20  1  0
 29 28  1  0
 30 28  2  0
M  END
$$$$
