HIF.pdb
     RDKit          3D

 30 31  0  0  1  0  0  0  0  0999 V2000
   25.6244  -23.7948  -16.5772 N   0  0  0  0  0  0  0  0  0  0  0  0
   25.1341  -23.7178  -15.2185 C   0  0  1  0  0  0  0  0  0  0  0  0
   25.2348  -25.0853  -14.5770 C   0  0  0  0  0  0  0  0  0  0  0  0
   24.1705  -25.9544  -15.1197 C   0  0  0  0  0  0  0  0  0  0  0  0
   24.2368  -26.9333  -16.1035 C   0  0  0  0  0  0  0  0  0  0  0  0
   22.9913  -27.4365  -16.2316 N   0  0  0  0  0  0  0  0  0  0  0  0
   22.1681  -26.8168  -15.3785 C   0  0  0  0  0  0  0  0  0  0  0  0
   22.8799  -25.9118  -14.6970 N   0  0  0  0  0  0  0  0  0  0  0  0
   25.9716  -22.7246  -14.4969 C   0  0  0  0  0  0  0  0  0  0  0  0
   27.1641  -22.5217  -14.9056 O   0  0  0  0  0  0  0  0  0  0  0  0
   27.2225  -17.6828  -13.8329 C   0  0  0  0  0  0  0  0  0  0  0  0
   26.4315  -18.3686  -12.7324 C   0  0  0  0  0  0  0  0  0  0  0  0
   25.7197  -19.5914  -13.2428 C   0  0  2  0  0  0  0  0  0  0  0  0
   24.2183  -19.4596  -13.1313 C   0  0  0  0  0  0  0  0  0  0  0  0
   26.2688  -20.8904  -12.7622 C   0  0  2  0  0  0  0  0  0  0  0  0
   25.4931  -22.0031  -13.3803 N   0  0  0  0  0  0  0  0  0  0  0  0
   26.2276  -21.1022  -11.2956 C   0  0  0  0  0  0  0  0  0  0  0  0
   25.1208  -21.4409  -10.7362 O   0  0  0  0  0  0  0  0  0  0  0  0
   27.3093  -20.9721  -10.4094 N   0  0  0  0  0  0  0  0  0  0  0  0
   27.1259  -20.9669   -8.9430 C   0  0  1  0  0  0  0  0  0  0  0  0
   28.2636  -20.2301   -8.2856 C   0  0  0  0  0  0  0  0  0  0  0  0
   28.2028  -20.1717   -6.8331 C   0  0  0  0  0  0  0  0  0  0  0  0
   28.6237  -21.2259   -6.0451 C   0  0  0  0  0  0  0  0  0  0  0  0
   28.5728  -21.1665   -4.6649 C   0  0  0  0  0  0  0  0  0  0  0  0
   28.0918  -20.0318   -4.0549 C   0  0  0  0  0  0  0  0  0  0  0  0
   27.6632  -18.9606   -4.8100 C   0  0  0  0  0  0  0  0  0  0  0  0
   27.7271  -19.0509   -6.1955 C   0  0  0  0  0  0  0  0  0  0  0  0
   25.7962  -20.4322   -8.5940 C   0  0  0  0  0  0  0  0  0  0  0  0
   24.9780  -21.1454   -7.7506 O   0  0  0  0  0  0  0  0  0  0  0  0
   25.4176  -19.3449   -9.0590 O   0  0  0  0  0  0  0  0  0  0  0  0
  2  3  1  0
  2  1  1  6
  3  4  1  0
  4  8  1  0
  4  5  2  0
  5  6  1  0
  7  6  1  0
  8  7  2  0
  9  2  1  0
 10  9  2  0
 12 13  1  0
 12 11  1  0
 13 14  1  1
 13 15  1  0
 15 16  1  6
 16  9  1  0
 17 15  1  0
 17 18  2  0
 19 17  1  0
 20 19  1  0
 20 21  1  1
 22 21  1  0
 22 27  1  0
 23 22  2  0
 24 23  1  0
 24 25  2  0
 25 26  1  0
 26 27  2  0
 28 20  1  0
 29 28  1  0
 30 28  2  0
M  END
$$$$
