HIF.pdb
     RDKit          3D

 30 31  0  0  1  0  0  0  0  0999 V2000
   22.6337  -18.2575  -17.6071 N   0  0  0  0  0  0  0  0  0  0  0  0
   23.2802  -17.7809  -16.4041 C   0  0  1  0  0  0  0  0  0  0  0  0
   22.2240  -17.4541  -15.3701 C   0  0  0  0  0  0  0  0  0  0  0  0
   21.5544  -16.1914  -15.7441 C   0  0  0  0  0  0  0  0  0  0  0  0
   21.7796  -15.3526  -16.8286 C   0  0  0  0  0  0  0  0  0  0  0  0
   20.9042  -14.3319  -16.7152 N   0  0  0  0  0  0  0  0  0  0  0  0
   20.1567  -14.5029  -15.6191 C   0  0  0  0  0  0  0  0  0  0  0  0
   20.5473  -15.6346  -15.0218 N   0  0  0  0  0  0  0  0  0  0  0  0
   24.1834  -18.8594  -15.9249 C   0  0  0  0  0  0  0  0  0  0  0  0
   23.7300  -20.0514  -15.8639 O   0  0  0  0  0  0  0  0  0  0  0  0
   28.9438  -19.5480  -17.9696 C   0  0  0  0  0  0  0  0  0  0  0  0
   27.5932  -19.7048  -17.2926 C   0  0  0  0  0  0  0  0  0  0  0  0
   27.7111  -19.6153  -15.7959 C   0  0  2  0  0  0  0  0  0  0  0  0
   28.8032  -20.5121  -15.2600 C   0  0  0  0  0  0  0  0  0  0  0  0
   26.4215  -19.6918  -15.0534 C   0  0  2  0  0  0  0  0  0  0  0  0
   25.5187  -18.6088  -15.5371 N   0  0  0  0  0  0  0  0  0  0  0  0
   26.5178  -19.5441  -13.5815 C   0  0  0  0  0  0  0  0  0  0  0  0
   26.7158  -18.3797  -13.0741 O   0  0  0  0  0  0  0  0  0  0  0  0
   26.4093  -20.5776  -12.6367 N   0  0  0  0  0  0  0  0  0  0  0  0
   26.4904  -20.3235  -11.1832 C   0  0  1  0  0  0  0  0  0  0  0  0
   25.4480  -19.3136  -10.7794 C   0  0  0  0  0  0  0  0  0  0  0  0
   24.0720  -19.7773  -10.8723 C   0  0  0  0  0  0  0  0  0  0  0  0
   23.3335  -20.0916   -9.7474 C   0  0  0  0  0  0  0  0  0  0  0  0
   22.0237  -20.5246   -9.8362 C   0  0  0  0  0  0  0  0  0  0  0  0
   21.4352  -20.6478  -11.0731 C   0  0  0  0  0  0  0  0  0  0  0  0
   22.1425  -20.3428  -12.2169 C   0  0  0  0  0  0  0  0  0  0  0  0
   23.4575  -19.9099  -12.0945 C   0  0  0  0  0  0  0  0  0  0  0  0
   26.4049  -21.5917  -10.4350 C   0  0  0  0  0  0  0  0  0  0  0  0
   26.4972  -21.5781   -9.0636 O   0  0  0  0  0  0  0  0  0  0  0  0
   26.2506  -22.6654  -11.0394 O   0  0  0  0  0  0  0  0  0  0  0  0
  2  3  1  0
  2  1  1  6
  3  4  1  0
  4  8  1  0
  4  5  2  0
  5  6  1  0
  7  6  1  0
  8  7  2  0
  9  2  1  0
 10  9  2  0
 12 13  1  0
 12 11  1  0
 13 14  1  1
 13 15  1  0
 15 16  1  6
 16  9  1  0
 17 15  1  0
 17 18  2  0
 19 17  1  0
 20 19  1  0
 20 21  1  1
 22 21  1  0
 22 27  1  0
 23 22  2  0
 24 23  1  0
 24 25  2  0
 25 26  1  0
 26 27  2  0
 28 20  1  0
 29 28  1  0
 30 28  2  0
M  END
$$$$
