HIF.pdb
     RDKit          3D

 30 31  0  0  1  0  0  0  0  0999 V2000
   13.2791  -17.3484    6.7718 N   0  0  0  0  0  0  0  0  0  0  0  0
   14.2968  -16.4666    6.2434 C   0  0  1  0  0  0  0  0  0  0  0  0
   13.8675  -15.0306    6.4564 C   0  0  0  0  0  0  0  0  0  0  0  0
   12.7403  -14.7230    5.5523 C   0  0  0  0  0  0  0  0  0  0  0  0
   11.4229  -14.3987    5.8518 C   0  0  0  0  0  0  0  0  0  0  0  0
   10.7947  -14.2090    4.6726 N   0  0  0  0  0  0  0  0  0  0  0  0
   11.6584  -14.4003    3.6693 C   0  0  0  0  0  0  0  0  0  0  0  0
   12.8469  -14.7140    4.1979 N   0  0  0  0  0  0  0  0  0  0  0  0
   15.5617  -16.7603    6.9662 C   0  0  0  0  0  0  0  0  0  0  0  0
   15.5239  -16.8785    8.2369 O   0  0  0  0  0  0  0  0  0  0  0  0
   20.4991  -20.1515    6.2697 C   0  0  0  0  0  0  0  0  0  0  0  0
   19.9481  -18.9341    6.9918 C   0  0  0  0  0  0  0  0  0  0  0  0
   18.6417  -18.4834    6.3982 C   0  0  2  0  0  0  0  0  0  0  0  0
   18.6813  -18.4707    4.8874 C   0  0  0  0  0  0  0  0  0  0  0  0
   18.0531  -17.2622    7.0165 C   0  0  2  0  0  0  0  0  0  0  0  0
   16.7962  -16.9116    6.2959 N   0  0  0  0  0  0  0  0  0  0  0  0
   18.9112  -16.0535    6.9945 C   0  0  0  0  0  0  0  0  0  0  0  0
   19.2227  -15.5193    5.8675 O   0  0  0  0  0  0  0  0  0  0  0  0
   19.4432  -15.3951    8.1152 N   0  0  0  0  0  0  0  0  0  0  0  0
   20.4806  -14.3499    7.9918 C   0  0  1  0  0  0  0  0  0  0  0  0
   19.8663  -12.9898    8.1971 C   0  0  0  0  0  0  0  0  0  0  0  0
   20.8051  -11.8786    8.1670 C   0  0  0  0  0  0  0  0  0  0  0  0
   21.3728  -11.3753    9.3220 C   0  0  0  0  0  0  0  0  0  0  0  0
   22.2705  -10.3246    9.2917 C   0  0  0  0  0  0  0  0  0  0  0  0
   22.6112   -9.7617    8.0841 C   0  0  0  0  0  0  0  0  0  0  0  0
   22.0641  -10.2386    6.9116 C   0  0  0  0  0  0  0  0  0  0  0  0
   21.1645  -11.2961    6.9751 C   0  0  0  0  0  0  0  0  0  0  0  0
   21.6055  -14.6334    8.9028 C   0  0  0  0  0  0  0  0  0  0  0  0
   22.8569  -14.1475    8.6075 O   0  0  0  0  0  0  0  0  0  0  0  0
   21.4239  -15.3067    9.9303 O   0  0  0  0  0  0  0  0  0  0  0  0
  2  3  1  0
  2  1  1  1
  3  4  1  0
  4  8  1  0
  4  5  2  0
  5  6  1  0
  7  6  1  0
  8  7  2  0
  9  2  1  0
 10  9  2  0
 12 13  1  0
 12 11  1  0
 13 14  1  6
 13 15  1  0
 15 16  1  6
 16  9  1  0
 17 15  1  0
 17 18  2  0
 19 17  1  0
 20 19  1  0
 20 21  1  1
 22 21  1  0
 22 27  1  0
 23 22  2  0
 24 23  1  0
 24 25  2  0
 25 26  1  0
 26 27  2  0
 28 20  1  0
 29 28  1  0
 30 28  2  0
M  END
$$$$
