HIF.pdb
     RDKit          3D

 30 31  0  0  1  0  0  0  0  0999 V2000
   19.4908  -12.0387  -19.4393 N   0  0  0  0  0  0  0  0  0  0  0  0
   20.7225  -11.2831  -19.3739 C   0  0  1  0  0  0  0  0  0  0  0  0
   20.6066  -10.0679  -20.2692 C   0  0  0  0  0  0  0  0  0  0  0  0
   20.5484  -10.5083  -21.6782 C   0  0  0  0  0  0  0  0  0  0  0  0
   19.4554  -10.6314  -22.5272 C   0  0  0  0  0  0  0  0  0  0  0  0
   19.9333  -11.0713  -23.7101 N   0  0  0  0  0  0  0  0  0  0  0  0
   21.2597  -11.2233  -23.6284 C   0  0  0  0  0  0  0  0  0  0  0  0
   21.6421  -10.8819  -22.3925 N   0  0  0  0  0  0  0  0  0  0  0  0
   20.9288  -10.8865  -17.9566 C   0  0  0  0  0  0  0  0  0  0  0  0
   19.9043  -10.6140  -17.2450 O   0  0  0  0  0  0  0  0  0  0  0  0
   24.5420  -13.3964  -16.3118 C   0  0  0  0  0  0  0  0  0  0  0  0
   23.4221  -12.7642  -15.5036 C   0  0  0  0  0  0  0  0  0  0  0  0
   23.5742  -11.2701  -15.4222 C   0  0  2  0  0  0  0  0  0  0  0  0
   24.0914  -10.8270  -14.0729 C   0  0  0  0  0  0  0  0  0  0  0  0
   22.4142  -10.4868  -15.9329 C   0  0  2  0  0  0  0  0  0  0  0  0
   22.2141  -10.8018  -17.3761 N   0  0  0  0  0  0  0  0  0  0  0  0
   22.5383   -9.0132  -15.8290 C   0  0  0  0  0  0  0  0  0  0  0  0
   23.5476   -8.4240  -16.3645 O   0  0  0  0  0  0  0  0  0  0  0  0
   21.6364   -8.1495  -15.1862 N   0  0  0  0  0  0  0  0  0  0  0  0
   21.8889   -6.6983  -15.0679 C   0  0  1  0  0  0  0  0  0  0  0  0
   21.0447   -5.9471  -16.0641 C   0  0  0  0  0  0  0  0  0  0  0  0
   21.0905   -4.4979  -15.9424 C   0  0  0  0  0  0  0  0  0  0  0  0
   20.0954   -3.7912  -15.2945 C   0  0  0  0  0  0  0  0  0  0  0  0
   20.1438   -2.4150  -15.1726 C   0  0  0  0  0  0  0  0  0  0  0  0
   21.2070   -1.7263  -15.7079 C   0  0  0  0  0  0  0  0  0  0  0  0
   22.2178   -2.3993  -16.3612 C   0  0  0  0  0  0  0  0  0  0  0  0
   22.1405   -3.7829  -16.4671 C   0  0  0  0  0  0  0  0  0  0  0  0
   21.6928   -6.2552  -13.6747 C   0  0  0  0  0  0  0  0  0  0  0  0
   22.3619   -5.1461  -13.2147 O   0  0  0  0  0  0  0  0  0  0  0  0
   20.9282   -6.8797  -12.9215 O   0  0  0  0  0  0  0  0  0  0  0  0
  2  3  1  0
  2  1  1  1
  3  4  1  0
  4  8  1  0
  4  5  2  0
  5  6  1  0
  7  6  1  0
  8  7  2  0
  9  2  1  0
 10  9  2  0
 12 13  1  0
 12 11  1  0
 13 14  1  1
 13 15  1  0
 15 16  1  6
 16  9  1  0
 17 15  1  0
 17 18  2  0
 19 17  1  0
 20 19  1  0
 20 21  1  6
 22 21  1  0
 22 27  1  0
 23 22  2  0
 24 23  1  0
 24 25  2  0
 25 26  1  0
 26 27  2  0
 28 20  1  0
 29 28  1  0
 30 28  2  0
M  END
$$$$
