DSF.pdb
     RDKit          3D

 26 26  0  0  1  0  0  0  0  0999 V2000
   19.4074  -21.0845  -15.2761 N   0  0  0  0  0  0  0  0  0  0  0  0
   19.7864  -20.7114  -13.9119 C   0  0  1  0  0  0  0  0  0  0  0  0
   18.7120  -21.1488  -12.9394 C   0  0  0  0  0  0  0  0  0  0  0  0
   17.6124  -20.1829  -12.9122 C   0  0  0  0  0  0  0  0  0  0  0  0
   17.6900  -19.1445  -13.6164 O   0  0  0  0  0  0  0  0  0  0  0  0
   21.0229  -21.4521  -13.5523 C   0  0  0  0  0  0  0  0  0  0  0  0
   20.9514  -22.5208  -12.8958 O   0  0  0  0  0  0  0  0  0  0  0  0
   16.5035  -20.4073  -12.1243 O   0  0  0  0  0  0  0  0  0  0  0  0
   24.5327  -20.5188  -15.4867 O   0  0  0  0  0  0  0  0  0  0  0  0
   24.3024  -21.8372  -15.0639 C   0  0  0  0  0  0  0  0  0  0  0  0
   23.5157  -21.7628  -13.7475 C   0  0  2  0  0  0  0  0  0  0  0  0
   22.3157  -20.9735  -13.9397 N   0  0  0  0  0  0  0  0  0  0  0  0
   24.3894  -21.0529  -12.7898 C   0  0  0  0  0  0  0  0  0  0  0  0
   24.2306  -19.8267  -12.6157 O   0  0  0  0  0  0  0  0  0  0  0  0
   25.4019  -21.7241  -12.0637 N   0  0  0  0  0  0  0  0  0  0  0  0
   26.3627  -20.8937  -11.3083 C   0  0  1  0  0  0  0  0  0  0  0  0
   26.8076  -21.7374  -10.1353 C   0  0  0  0  0  0  0  0  0  0  0  0
   27.4357  -20.8861   -9.1199 C   0  0  0  0  0  0  0  0  0  0  0  0
   26.6627  -19.9855   -8.4231 C   0  0  0  0  0  0  0  0  0  0  0  0
   27.2067  -19.1775   -7.4372 C   0  0  0  0  0  0  0  0  0  0  0  0
   28.5520  -19.2977   -7.1678 C   0  0  0  0  0  0  0  0  0  0  0  0
   29.3580  -20.1830   -7.8392 C   0  0  0  0  0  0  0  0  0  0  0  0
   28.7716  -20.9824   -8.8285 C   0  0  0  0  0  0  0  0  0  0  0  0
   27.5194  -20.5986  -12.1605 C   0  0  0  0  0  0  0  0  0  0  0  0
   28.1321  -19.3694  -12.0736 O   0  0  0  0  0  0  0  0  0  0  0  0
   27.9529  -21.4440  -12.9595 O   0  0  0  0  0  0  0  0  0  0  0  0
  2  1  1  6
  2  3  1  0
  3  4  1  0
  4  8  1  0
  5  4  2  0
  6  2  1  0
  7  6  2  0
  9 10  1  0
 11 10  1  6
 11 13  1  0
 11 12  1  0
 12  6  1  0
 13 14  2  0
 15 16  1  0
 15 13  1  0
 16 17  1  1
 16 24  1  0
 17 18  1  0
 18 23  2  0
 19 20  2  0
 19 18  1  0
 20 21  1  0
 21 22  2  0
 23 22  1  0
 24 26  2  0
 24 25  1  0
M  END
$$$$
