DSF.pdb
     RDKit          3D

 26 26  0  0  1  0  0  0  0  0999 V2000
   35.1681  -29.3145  -18.6990 N   0  0  0  0  0  0  0  0  0  0  0  0
   34.0320  -29.8811  -19.4285 C   0  0  1  0  0  0  0  0  0  0  0  0
   34.1474  -31.3897  -19.4734 C   0  0  0  0  0  0  0  0  0  0  0  0
   35.1041  -31.8065  -20.4999 C   0  0  0  0  0  0  0  0  0  0  0  0
   35.1407  -31.1865  -21.5928 O   0  0  0  0  0  0  0  0  0  0  0  0
   32.7904  -29.5645  -18.6767 C   0  0  0  0  0  0  0  0  0  0  0  0
   32.8557  -29.1677  -17.4866 O   0  0  0  0  0  0  0  0  0  0  0  0
   35.9562  -32.8664  -20.2730 O   0  0  0  0  0  0  0  0  0  0  0  0
   29.5632  -27.3876  -19.7064 O   0  0  0  0  0  0  0  0  0  0  0  0
   29.2695  -28.7537  -19.5737 C   0  0  0  0  0  0  0  0  0  0  0  0
   30.2822  -29.3433  -18.5816 C   0  0  2  0  0  0  0  0  0  0  0  0
   31.4996  -29.7015  -19.2814 N   0  0  0  0  0  0  0  0  0  0  0  0
   29.6669  -30.5810  -18.0580 C   0  0  0  0  0  0  0  0  0  0  0  0
   29.7319  -31.6266  -18.7373 O   0  0  0  0  0  0  0  0  0  0  0  0
   29.0055  -30.6146  -16.8072 N   0  0  0  0  0  0  0  0  0  0  0  0
   28.4028  -31.8975  -16.3899 C   0  0  1  0  0  0  0  0  0  0  0  0
   28.2200  -31.8020  -14.8921 C   0  0  0  0  0  0  0  0  0  0  0  0
   27.5849  -33.0245  -14.3895 C   0  0  0  0  0  0  0  0  0  0  0  0
   26.2538  -32.9984  -14.0408 C   0  0  0  0  0  0  0  0  0  0  0  0
   25.6042  -34.1346  -13.5846 C   0  0  0  0  0  0  0  0  0  0  0  0
   26.3285  -35.3020  -13.4871 C   0  0  0  0  0  0  0  0  0  0  0  0
   27.6573  -35.3708  -13.8245 C   0  0  0  0  0  0  0  0  0  0  0  0
   28.2787  -34.2018  -14.2816 C   0  0  0  0  0  0  0  0  0  0  0  0
   27.0917  -32.0454  -17.0305 C   0  0  0  0  0  0  0  0  0  0  0  0
   26.5981  -33.3041  -17.2866 O   0  0  0  0  0  0  0  0  0  0  0  0
   26.4214  -31.0489  -17.3448 O   0  0  0  0  0  0  0  0  0  0  0  0
  2  1  1  1
  2  3  1  0
  3  4  1  0
  4  8  1  0
  5  4  2  0
  6  2  1  0
  7  6  2  0
  9 10  1  0
 11 10  1  6
 11 13  1  0
 11 12  1  0
 12  6  1  0
 13 14  2  0
 15 16  1  0
 15 13  1  0
 16 17  1  1
 16 24  1  0
 17 18  1  0
 18 23  2  0
 19 20  2  0
 19 18  1  0
 20 21  1  0
 21 22  2  0
 23 22  1  0
 24 26  2  0
 24 25  1  0
M  END
$$$$
