DSF.pdb
     RDKit          3D

 26 26  0  0  1  0  0  0  0  0999 V2000
   18.9672   -9.8390  -18.1263 N   0  0  0  0  0  0  0  0  0  0  0  0
   18.6012  -10.0481  -16.7240 C   0  0  1  0  0  0  0  0  0  0  0  0
   19.5440  -11.0468  -16.0876 C   0  0  0  0  0  0  0  0  0  0  0  0
   19.1795  -12.4147  -16.4601 C   0  0  0  0  0  0  0  0  0  0  0  0
   17.9642  -12.7240  -16.5468 O   0  0  0  0  0  0  0  0  0  0  0  0
   18.7783   -8.7634  -15.9993 C   0  0  0  0  0  0  0  0  0  0  0  0
   19.8030   -8.0634  -16.1946 O   0  0  0  0  0  0  0  0  0  0  0  0
   20.1559  -13.3545  -16.7133 O   0  0  0  0  0  0  0  0  0  0  0  0
   16.7931   -4.9605  -14.0075 O   0  0  0  0  0  0  0  0  0  0  0  0
   16.5772   -6.2569  -14.5001 C   0  0  0  0  0  0  0  0  0  0  0  0
   17.9147   -7.0060  -14.4136 C   0  0  2  0  0  0  0  0  0  0  0  0
   17.7967   -8.2932  -15.0688 N   0  0  0  0  0  0  0  0  0  0  0  0
   18.1596   -7.2386  -12.9747 C   0  0  0  0  0  0  0  0  0  0  0  0
   17.6335   -8.2260  -12.4204 O   0  0  0  0  0  0  0  0  0  0  0  0
   18.9742   -6.3729  -12.2066 N   0  0  0  0  0  0  0  0  0  0  0  0
   19.2959   -6.7879  -10.8254 C   0  0  1  0  0  0  0  0  0  0  0  0
   20.7912   -6.6195  -10.6793 C   0  0  0  0  0  0  0  0  0  0  0  0
   21.4867   -7.5851  -11.5362 C   0  0  0  0  0  0  0  0  0  0  0  0
   21.7360   -8.8521  -11.0601 C   0  0  0  0  0  0  0  0  0  0  0  0
   22.3678   -9.8062  -11.8419 C   0  0  0  0  0  0  0  0  0  0  0  0
   22.7444   -9.4540  -13.1190 C   0  0  0  0  0  0  0  0  0  0  0  0
   22.5145   -8.2018  -13.6322 C   0  0  0  0  0  0  0  0  0  0  0  0
   21.8734   -7.2650  -12.8118 C   0  0  0  0  0  0  0  0  0  0  0  0
   18.6125   -5.8962   -9.8824 C   0  0  0  0  0  0  0  0  0  0  0  0
   18.5973   -6.2069   -8.5419 O   0  0  0  0  0  0  0  0  0  0  0  0
   18.0474   -4.8643  -10.2785 O   0  0  0  0  0  0  0  0  0  0  0  0
  2  1  1  6
  2  3  1  0
  3  4  1  0
  4  8  1  0
  5  4  2  0
  6  2  1  0
  7  6  2  0
  9 10  1  0
 11 10  1  1
 11 13  1  0
 11 12  1  0
 12  6  1  0
 13 14  2  0
 15 16  1  0
 15 13  1  0
 16 17  1  6
 16 24  1  0
 17 18  1  0
 18 23  2  0
 19 20  2  0
 19 18  1  0
 20 21  1  0
 21 22  2  0
 23 22  1  0
 24 26  2  0
 24 25  1  0
M  END
$$$$
