DSF.pdb
     RDKit          3D

 26 26  0  0  1  0  0  0  0  0999 V2000
   25.8127  -19.1429  -15.8550 N   0  0  0  0  0  0  0  0  0  0  0  0
   26.8570  -19.1059  -14.8293 C   0  0  1  0  0  0  0  0  0  0  0  0
   27.6922  -17.8534  -14.9873 C   0  0  0  0  0  0  0  0  0  0  0  0
   28.5034  -17.9208  -16.2039 C   0  0  0  0  0  0  0  0  0  0  0  0
   28.9249  -19.0371  -16.5995 O   0  0  0  0  0  0  0  0  0  0  0  0
   26.2011  -19.0234  -13.4988 C   0  0  0  0  0  0  0  0  0  0  0  0
   25.8882  -17.9065  -13.0163 O   0  0  0  0  0  0  0  0  0  0  0  0
   28.8029  -16.7748  -16.9094 O   0  0  0  0  0  0  0  0  0  0  0  0
   23.2406  -21.0568  -10.4159 O   0  0  0  0  0  0  0  0  0  0  0  0
   24.0340  -21.2258  -11.5615 C   0  0  0  0  0  0  0  0  0  0  0  0
   25.1330  -20.1545  -11.5168 C   0  0  2  0  0  0  0  0  0  0  0  0
   25.9108  -20.2017  -12.7386 N   0  0  0  0  0  0  0  0  0  0  0  0
   26.0160  -20.5229  -10.3903 C   0  0  0  0  0  0  0  0  0  0  0  0
   26.7848  -21.4989  -10.5144 O   0  0  0  0  0  0  0  0  0  0  0  0
   26.0149  -19.8000   -9.1736 N   0  0  0  0  0  0  0  0  0  0  0  0
   26.8331  -20.3325   -8.0643 C   0  0  1  0  0  0  0  0  0  0  0  0
   27.3457  -19.1262   -7.3108 C   0  0  0  0  0  0  0  0  0  0  0  0
   28.1308  -19.5607   -6.1510 C   0  0  0  0  0  0  0  0  0  0  0  0
   27.6722  -19.2818   -4.8836 C   0  0  0  0  0  0  0  0  0  0  0  0
   28.3668  -19.6938   -3.7573 C   0  0  0  0  0  0  0  0  0  0  0  0
   29.5381  -20.3957   -3.9369 C   0  0  0  0  0  0  0  0  0  0  0  0
   30.0301  -20.6946   -5.1830 C   0  0  0  0  0  0  0  0  0  0  0  0
   29.2998  -20.2614   -6.2969 C   0  0  0  0  0  0  0  0  0  0  0  0
   25.9815  -21.1328   -7.1779 C   0  0  0  0  0  0  0  0  0  0  0  0
   26.5606  -21.9823   -6.2633 O   0  0  0  0  0  0  0  0  0  0  0  0
   24.7444  -21.0533   -7.2424 O   0  0  0  0  0  0  0  0  0  0  0  0
  2  1  1  6
  2  3  1  0
  3  4  1  0
  4  8  1  0
  5  4  2  0
  6  2  1  0
  7  6  2  0
  9 10  1  0
 11 10  1  6
 11 13  1  0
 11 12  1  0
 12  6  1  0
 13 14  2  0
 15 16  1  0
 15 13  1  0
 16 17  1  1
 16 24  1  0
 17 18  1  0
 18 23  2  0
 19 20  2  0
 19 18  1  0
 20 21  1  0
 21 22  2  0
 23 22  1  0
 24 26  2  0
 24 25  1  0
M  END
$$$$
