DSF.pdb
     RDKit          3D

 26 26  0  0  1  0  0  0  0  0999 V2000
   18.1748  -14.9935  -16.8842 N   0  0  0  0  0  0  0  0  0  0  0  0
   17.7294  -14.0177  -15.8876 C   0  0  1  0  0  0  0  0  0  0  0  0
   18.3827  -14.3073  -14.5532 C   0  0  0  0  0  0  0  0  0  0  0  0
   17.8084  -15.5080  -13.9439 C   0  0  0  0  0  0  0  0  0  0  0  0
   16.6296  -15.8376  -14.2303 O   0  0  0  0  0  0  0  0  0  0  0  0
   18.1927  -12.6719  -16.3131 C   0  0  0  0  0  0  0  0  0  0  0  0
   19.2931  -12.5399  -16.9045 O   0  0  0  0  0  0  0  0  0  0  0  0
   18.5497  -16.2699  -13.0660 O   0  0  0  0  0  0  0  0  0  0  0  0
   15.5203   -9.6777  -16.0915 O   0  0  0  0  0  0  0  0  0  0  0  0
   16.5159   -9.4572  -17.0560 C   0  0  0  0  0  0  0  0  0  0  0  0
   17.7748  -10.2026  -16.5902 C   0  0  2  0  0  0  0  0  0  0  0  0
   17.4064  -11.5015  -16.0636 N   0  0  0  0  0  0  0  0  0  0  0  0
   18.3404   -9.3981  -15.4869 C   0  0  0  0  0  0  0  0  0  0  0  0
   17.9695   -9.6256  -14.3165 O   0  0  0  0  0  0  0  0  0  0  0  0
   19.2913   -8.3761  -15.7195 N   0  0  0  0  0  0  0  0  0  0  0  0
   19.8388   -7.6740  -14.5402 C   0  0  1  0  0  0  0  0  0  0  0  0
   21.3229   -7.5347  -14.7925 C   0  0  0  0  0  0  0  0  0  0  0  0
   21.9525   -8.8591  -14.8019 C   0  0  0  0  0  0  0  0  0  0  0  0
   22.2896   -9.4368  -16.0047 C   0  0  0  0  0  0  0  0  0  0  0  0
   22.9087  -10.6755  -16.0627 C   0  0  0  0  0  0  0  0  0  0  0  0
   23.1816  -11.3215  -14.8774 C   0  0  0  0  0  0  0  0  0  0  0  0
   22.8621  -10.7804  -13.6570 C   0  0  0  0  0  0  0  0  0  0  0  0
   22.2375   -9.5269  -13.6393 C   0  0  0  0  0  0  0  0  0  0  0  0
   19.2346   -6.3406  -14.4492 C   0  0  0  0  0  0  0  0  0  0  0  0
   19.4505   -5.5713  -13.3288 O   0  0  0  0  0  0  0  0  0  0  0  0
   18.5306   -5.8971  -15.3704 O   0  0  0  0  0  0  0  0  0  0  0  0
  2  1  1  6
  2  3  1  0
  3  4  1  0
  4  8  1  0
  5  4  2  0
  6  2  1  0
  7  6  2  0
  9 10  1  0
 11 10  1  1
 11 13  1  0
 11 12  1  0
 12  6  1  0
 13 14  2  0
 15 16  1  0
 15 13  1  0
 16 17  1  6
 16 24  1  0
 17 18  1  0
 18 23  2  0
 19 20  2  0
 19 18  1  0
 20 21  1  0
 21 22  2  0
 23 22  1  0
 24 26  2  0
 24 25  1  0
M  END
$$$$
