YNC.pdb
     RDKit          3D

 27 27  0  0  1  0  0  0  0  0999 V2000
    5.7799  -13.5398   15.3301 O   0  0  0  0  0  0  0  0  0  0  0  0
    7.0463  -13.9022   15.7934 C   0  0  0  0  0  0  0  0  0  0  0  0
    7.8218  -13.0095   16.4919 C   0  0  0  0  0  0  0  0  0  0  0  0
    9.0690  -13.3940   16.9380 C   0  0  0  0  0  0  0  0  0  0  0  0
    9.5775  -14.6520   16.7103 C   0  0  0  0  0  0  0  0  0  0  0  0
   10.9084  -15.0844   17.1791 C   0  0  0  0  0  0  0  0  0  0  0  0
   10.7891  -15.4758   18.6369 C   0  0  2  0  0  0  0  0  0  0  0  0
   10.3157  -14.3226   19.3773 N   0  0  0  0  0  0  0  0  0  0  0  0
   12.1016  -15.8685   19.2066 C   0  0  0  0  0  0  0  0  0  0  0  0
   12.6627  -16.9653   18.8689 O   0  0  0  0  0  0  0  0  0  0  0  0
    8.8017  -15.5408   16.0131 C   0  0  0  0  0  0  0  0  0  0  0  0
    7.5387  -15.1564   15.5595 C   0  0  0  0  0  0  0  0  0  0  0  0
   15.0779  -13.3887   18.2111 N   0  0  0  0  0  0  0  0  0  0  0  0
   15.5302  -14.4306   19.0638 C   0  0  0  0  0  0  0  0  0  0  0  0
   16.3189  -15.2707   18.5877 O   0  0  0  0  0  0  0  0  0  0  0  0
   15.0810  -14.5018   20.4397 C   0  0  0  0  0  0  0  0  0  0  0  0
   14.0579  -15.5186   20.7873 C   0  0  2  0  0  0  0  0  0  0  0  0
   12.8121  -15.0878   20.1367 N   0  0  0  0  0  0  0  0  0  0  0  0
   13.7602  -15.7221   22.1939 C   0  0  0  0  0  0  0  0  0  0  0  0
   14.6671  -15.8815   23.0370 O   0  0  0  0  0  0  0  0  0  0  0  0
   12.4231  -15.7537   22.7048 N   0  0  0  0  0  0  0  0  0  0  0  0
   12.1338  -16.0290   24.0883 C   0  0  1  0  0  0  0  0  0  0  0  0
   10.9891  -15.1315   24.5126 C   0  0  0  0  0  0  0  0  0  0  0  0
    9.4954  -15.4688   23.5362 S   0  0  0  0  0  0  0  0  0  0  0  0
   11.8286  -17.4478   24.3388 C   0  0  0  0  0  0  0  0  0  0  0  0
   11.5560  -18.2427   23.4129 O   0  0  0  0  0  0  0  0  0  0  0  0
   11.8421  -17.9225   25.6347 O   0  0  0  0  0  0  0  0  0  0  0  0
  1  2  1  0
  2 12  2  0
  3  4  2  0
  3  2  1  0
  4  5  1  0
  5  6  1  0
  5 11  2  0
  6  7  1  0
  7  8  1  1
  7  9  1  0
  9 10  2  0
 12 11  1  0
 13 14  1  0
 14 15  2  0
 16 14  1  0
 17 16  1  1
 17 19  1  0
 18  9  1  0
 18 17  1  0
 19 21  1  0
 20 19  2  0
 21 22  1  0
 22 25  1  0
 23 24  1  0
 22 23  1  6
 25 26  2  0
 25 27  1  0
M  END
$$$$
