YNC.pdb
     RDKit          3D

 27 27  0  0  1  0  0  0  0  0999 V2000
    7.3618  -12.5731   16.8336 O   0  0  0  0  0  0  0  0  0  0  0  0
    7.6848  -13.1436   18.0664 C   0  0  0  0  0  0  0  0  0  0  0  0
    8.9808  -13.4868   18.3646 C   0  0  0  0  0  0  0  0  0  0  0  0
    9.2719  -14.0488   19.5901 C   0  0  0  0  0  0  0  0  0  0  0  0
    8.3057  -14.2839   20.5410 C   0  0  0  0  0  0  0  0  0  0  0  0
    8.5952  -14.8831   21.8584 C   0  0  0  0  0  0  0  0  0  0  0  0
    9.1741  -16.2634   21.6302 C   0  0  2  0  0  0  0  0  0  0  0  0
    8.1384  -17.0982   21.0536 N   0  0  0  0  0  0  0  0  0  0  0  0
    9.6033  -16.8934   22.9030 C   0  0  0  0  0  0  0  0  0  0  0  0
    8.7659  -17.5067   23.6476 O   0  0  0  0  0  0  0  0  0  0  0  0
    7.0136  -13.9405   20.2409 C   0  0  0  0  0  0  0  0  0  0  0  0
    6.7138  -13.3715   19.0020 C   0  0  0  0  0  0  0  0  0  0  0  0
   12.5765  -18.9941   26.7404 N   0  0  0  0  0  0  0  0  0  0  0  0
   13.2146  -18.9226   25.4736 C   0  0  0  0  0  0  0  0  0  0  0  0
   14.2778  -19.5558   25.3213 O   0  0  0  0  0  0  0  0  0  0  0  0
   12.6369  -18.1356   24.4028 C   0  0  0  0  0  0  0  0  0  0  0  0
   11.3500  -17.4439   24.6619 C   0  0  2  0  0  0  0  0  0  0  0  0
   10.9274  -16.8667   23.3778 N   0  0  0  0  0  0  0  0  0  0  0  0
   11.3469  -16.3691   25.6383 C   0  0  0  0  0  0  0  0  0  0  0  0
   11.5248  -15.1802   25.3013 O   0  0  0  0  0  0  0  0  0  0  0  0
   11.1423  -16.5954   27.0372 N   0  0  0  0  0  0  0  0  0  0  0  0
   10.9234  -15.5183   27.9674 C   0  0  1  0  0  0  0  0  0  0  0  0
    9.7422  -14.7083   27.4728 C   0  0  0  0  0  0  0  0  0  0  0  0
    9.3069  -13.3974   28.6520 S   0  0  0  0  0  0  0  0  0  0  0  0
   10.7163  -15.9868   29.3483 C   0  0  0  0  0  0  0  0  0  0  0  0
   10.3323  -17.1486   29.6056 O   0  0  0  0  0  0  0  0  0  0  0  0
   10.9517  -15.1211   30.3971 O   0  0  0  0  0  0  0  0  0  0  0  0
  1  2  1  0
  2 12  2  0
  3  4  2  0
  3  2  1  0
  4  5  1  0
  5  6  1  0
  5 11  2  0
  6  7  1  0
  7  8  1  1
  7  9  1  0
  9 10  2  0
 12 11  1  0
 13 14  1  0
 14 15  2  0
 16 14  1  0
 17 16  1  6
 17 19  1  0
 18  9  1  0
 18 17  1  0
 19 21  1  0
 20 19  2  0
 21 22  1  0
 22 25  1  0
 23 24  1  0
 22 23  1  6
 25 26  2  0
 25 27  1  0
M  END
$$$$
