YNC.pdb
     RDKit          3D

 27 27  0  0  1  0  0  0  0  0999 V2000
    7.9610  -12.4942   17.8902 O   0  0  0  0  0  0  0  0  0  0  0  0
    8.0255  -13.2013   19.0925 C   0  0  0  0  0  0  0  0  0  0  0  0
    6.8801  -13.5576   19.7613 C   0  0  0  0  0  0  0  0  0  0  0  0
    6.9730  -14.2560   20.9471 C   0  0  0  0  0  0  0  0  0  0  0  0
    8.1814  -14.6165   21.4972 C   0  0  0  0  0  0  0  0  0  0  0  0
    8.3035  -15.3641   22.7638 C   0  0  0  0  0  0  0  0  0  0  0  0
    8.6889  -16.7904   22.4327 C   0  0  2  0  0  0  0  0  0  0  0  0
    7.5799  -17.4070   21.7313 N   0  0  0  0  0  0  0  0  0  0  0  0
    8.9444  -17.5863   23.6585 C   0  0  0  0  0  0  0  0  0  0  0  0
    7.9921  -18.1863   24.2626 O   0  0  0  0  0  0  0  0  0  0  0  0
    9.3227  -14.2597   20.8279 C   0  0  0  0  0  0  0  0  0  0  0  0
    9.2340  -13.5528   19.6274 C   0  0  0  0  0  0  0  0  0  0  0  0
   11.4503  -20.2649   27.4985 N   0  0  0  0  0  0  0  0  0  0  0  0
   12.3397  -19.8081   26.4897 C   0  0  0  0  0  0  0  0  0  0  0  0
   13.5324  -20.1644   26.5611 O   0  0  0  0  0  0  0  0  0  0  0  0
   11.8620  -18.9564   25.4191 C   0  0  0  0  0  0  0  0  0  0  0  0
   10.4665  -18.4579   25.4946 C   0  0  2  0  0  0  0  0  0  0  0  0
   10.2179  -17.7392   24.2367 N   0  0  0  0  0  0  0  0  0  0  0  0
   10.1314  -17.5535   26.5800 C   0  0  0  0  0  0  0  0  0  0  0  0
   10.0222  -17.9571   27.7564 O   0  0  0  0  0  0  0  0  0  0  0  0
    9.9058  -16.1539   26.3789 N   0  0  0  0  0  0  0  0  0  0  0  0
    9.6019  -15.2591   27.4654 C   0  0  1  0  0  0  0  0  0  0  0  0
   10.9104  -14.8412   28.1048 C   0  0  0  0  0  0  0  0  0  0  0  0
   10.6517  -13.5191   29.3228 S   0  0  0  0  0  0  0  0  0  0  0  0
    8.8108  -14.0912   27.0419 C   0  0  0  0  0  0  0  0  0  0  0  0
    8.5231  -13.8825   25.8431 O   0  0  0  0  0  0  0  0  0  0  0  0
    8.3694  -13.1941   27.9933 O   0  0  0  0  0  0  0  0  0  0  0  0
  1  2  1  0
  2 12  2  0
  3  4  2  0
  3  2  1  0
  4  5  1  0
  5  6  1  0
  5 11  2  0
  6  7  1  0
  7  8  1  1
  7  9  1  0
  9 10  2  0
 12 11  1  0
 13 14  1  0
 14 15  2  0
 16 14  1  0
 17 16  1  1
 17 19  1  0
 18  9  1  0
 18 17  1  0
 19 21  1  0
 20 19  2  0
 21 22  1  0
 22 25  1  0
 23 24  1  0
 22 23  1  6
 25 26  2  0
 25 27  1  0
M  END
$$$$
