NDV.pdb
     RDKit          3D

 24 23  0  0  1  0  0  0  0  0999 V2000
   16.4839   -9.0338  -19.5687 N   0  0  0  0  0  0  0  0  0  0  0  0
   16.6222   -9.4571  -18.2317 C   0  0  0  0  0  0  0  0  0  0  0  0
   16.3561  -10.6295  -17.9235 O   0  0  0  0  0  0  0  0  0  0  0  0
   17.0846   -8.4972  -17.2054 C   0  0  0  0  0  0  0  0  0  0  0  0
   18.5026   -8.7964  -16.7626 C   0  0  2  0  0  0  0  0  0  0  0  0
   18.4651  -10.0602  -16.0552 N   0  0  0  0  0  0  0  0  0  0  0  0
   19.0500   -7.7710  -15.8800 C   0  0  0  0  0  0  0  0  0  0  0  0
   19.5080   -8.0797  -14.7544 O   0  0  0  0  0  0  0  0  0  0  0  0
   19.1010   -6.3726  -16.2298 N   0  0  0  0  0  0  0  0  0  0  0  0
   19.7383   -5.3984  -15.3926 C   0  0  1  0  0  0  0  0  0  0  0  0
   21.1190   -5.8712  -15.0250 C   0  0  0  0  0  0  0  0  0  0  0  0
   21.8935   -4.9088  -14.2222 C   0  0  0  0  0  0  0  0  0  0  0  0
   22.8841   -4.3441  -14.7294 O   0  0  0  0  0  0  0  0  0  0  0  0
   19.7296   -4.0383  -15.9487 C   0  0  0  0  0  0  0  0  0  0  0  0
   20.3058   -3.8625  -17.0544 O   0  0  0  0  0  0  0  0  0  0  0  0
   21.5443   -4.6213  -12.9222 O   0  0  0  0  0  0  0  0  0  0  0  0
   16.7586   -1.3645  -14.7535 C   0  0  0  0  0  0  0  0  0  0  0  0
   17.3735   -1.3743  -16.1392 C   0  0  1  0  0  0  0  0  0  0  0  0
   17.2584    0.0405  -16.6676 C   0  0  0  0  0  0  0  0  0  0  0  0
   18.8200   -1.7210  -16.0641 C   0  0  2  0  0  0  0  0  0  0  0  0
   19.1366   -2.9164  -15.3583 N   0  0  0  0  0  0  0  0  0  0  0  0
   19.5512   -0.5934  -15.4329 C   0  0  0  0  0  0  0  0  0  0  0  0
   19.7189    0.5072  -16.0621 O   0  0  0  0  0  0  0  0  0  0  0  0
   20.0949   -0.6279  -14.1595 O   0  0  0  0  0  0  0  0  0  0  0  0
  2  1  1  0
  2  4  1  0
  3  2  2  0
  5  4  1  0
  5  7  1  0
  5  6  1  1
  7  9  1  0
  7  8  2  0
  9 10  1  0
 10 14  1  0
 10 11  1  6
 12 13  2  0
 12 11  1  0
 14 21  1  0
 14 15  2  0
 16 12  1  0
 18 20  1  0
 18 17  1  1
 19 18  1  0
 20 22  1  0
 20 21  1  1
 22 24  1  0
 23 22  2  0
M  END
$$$$
