NDV.pdb
     RDKit          3D

 24 23  0  0  1  0  0  0  0  0999 V2000
   20.2481  -12.1954  -18.9118 N   0  0  0  0  0  0  0  0  0  0  0  0
   19.6988  -12.2205  -17.6143 C   0  0  0  0  0  0  0  0  0  0  0  0
   19.1587  -13.2548  -17.1913 O   0  0  0  0  0  0  0  0  0  0  0  0
   19.7715  -11.0105  -16.7663 C   0  0  0  0  0  0  0  0  0  0  0  0
   20.3908   -9.8454  -17.5115 C   0  0  2  0  0  0  0  0  0  0  0  0
   21.8077  -10.1247  -17.6271 N   0  0  0  0  0  0  0  0  0  0  0  0
   20.2097   -8.5709  -16.8236 C   0  0  0  0  0  0  0  0  0  0  0  0
   19.0688   -8.0614  -16.7195 O   0  0  0  0  0  0  0  0  0  0  0  0
   21.2974   -7.8302  -16.2331 N   0  0  0  0  0  0  0  0  0  0  0  0
   21.0982   -6.5672  -15.5842 C   0  0  1  0  0  0  0  0  0  0  0  0
   22.0646   -6.4276  -14.4389 C   0  0  0  0  0  0  0  0  0  0  0  0
   21.8943   -5.1940  -13.6515 C   0  0  0  0  0  0  0  0  0  0  0  0
   20.9807   -4.3978  -13.9491 O   0  0  0  0  0  0  0  0  0  0  0  0
   21.1260   -5.4171  -16.4983 C   0  0  0  0  0  0  0  0  0  0  0  0
   22.1226   -5.3085  -17.2601 O   0  0  0  0  0  0  0  0  0  0  0  0
   22.7253   -4.9037  -12.5933 O   0  0  0  0  0  0  0  0  0  0  0  0
   17.6927   -3.2562  -17.7719 C   0  0  0  0  0  0  0  0  0  0  0  0
   19.0010   -3.3881  -18.5266 C   0  0  1  0  0  0  0  0  0  0  0  0
   19.1187   -2.1536  -19.3961 C   0  0  0  0  0  0  0  0  0  0  0  0
   20.1499   -3.3947  -17.5790 C   0  0  2  0  0  0  0  0  0  0  0  0
   20.1412   -4.4277  -16.5990 N   0  0  0  0  0  0  0  0  0  0  0  0
   20.2044   -2.0847  -16.8823 C   0  0  0  0  0  0  0  0  0  0  0  0
   19.7278   -1.9543  -15.7029 O   0  0  0  0  0  0  0  0  0  0  0  0
   20.7530   -0.9332  -17.4221 O   0  0  0  0  0  0  0  0  0  0  0  0
  2  1  1  0
  2  4  1  0
  3  2  2  0
  5  4  1  0
  5  7  1  0
  5  6  1  1
  7  9  1  0
  7  8  2  0
  9 10  1  0
 10 14  1  0
 10 11  1  1
 12 13  2  0
 12 11  1  0
 14 21  1  0
 14 15  2  0
 16 12  1  0
 18 20  1  0
 18 17  1  1
 19 18  1  0
 20 22  1  0
 20 21  1  1
 22 24  1  0
 23 22  2  0
M  END
$$$$
