NDV.pdb
     RDKit          3D

 24 23  0  0  1  0  0  0  0  0999 V2000
   17.9227  -13.5825  -15.9477 N   0  0  0  0  0  0  0  0  0  0  0  0
   18.9852  -12.7923  -16.4299 C   0  0  0  0  0  0  0  0  0  0  0  0
   19.9307  -13.3270  -17.0304 O   0  0  0  0  0  0  0  0  0  0  0  0
   18.9634  -11.3287  -16.2152 C   0  0  0  0  0  0  0  0  0  0  0  0
   17.7696  -10.9063  -15.3829 C   0  0  2  0  0  0  0  0  0  0  0  0
   16.6217  -10.8982  -16.2667 N   0  0  0  0  0  0  0  0  0  0  0  0
   17.9287   -9.5802  -14.7943 C   0  0  0  0  0  0  0  0  0  0  0  0
   17.7145   -8.5514  -15.4782 O   0  0  0  0  0  0  0  0  0  0  0  0
   18.3314   -9.3663  -13.4259 N   0  0  0  0  0  0  0  0  0  0  0  0
   18.5058   -8.0531  -12.8772 C   0  0  1  0  0  0  0  0  0  0  0  0
   17.9631   -8.0137  -11.4739 C   0  0  0  0  0  0  0  0  0  0  0  0
   16.5171   -8.2791  -11.3776 C   0  0  0  0  0  0  0  0  0  0  0  0
   15.7412   -7.7551  -12.2026 O   0  0  0  0  0  0  0  0  0  0  0  0
   19.8817   -7.5461  -12.9718 C   0  0  0  0  0  0  0  0  0  0  0  0
   20.7917   -8.2442  -12.4522 O   0  0  0  0  0  0  0  0  0  0  0  0
   16.0063   -9.0946  -10.3935 O   0  0  0  0  0  0  0  0  0  0  0  0
   21.8776   -7.2514  -15.9425 C   0  0  0  0  0  0  0  0  0  0  0  0
   22.0308   -5.9038  -15.2650 C   0  0  1  0  0  0  0  0  0  0  0  0
   21.0703   -4.9633  -15.9628 C   0  0  0  0  0  0  0  0  0  0  0  0
   21.6294   -5.9924  -13.8335 C   0  0  2  0  0  0  0  0  0  0  0  0
   20.2737   -6.3529  -13.5895 N   0  0  0  0  0  0  0  0  0  0  0  0
   21.8948   -4.6863  -13.1793 C   0  0  0  0  0  0  0  0  0  0  0  0
   20.9303   -3.9081  -12.8644 O   0  0  0  0  0  0  0  0  0  0  0  0
   23.1568   -4.2112  -12.8632 O   0  0  0  0  0  0  0  0  0  0  0  0
  2  1  1  0
  2  4  1  0
  3  2  2  0
  5  4  1  0
  5  7  1  0
  5  6  1  6
  7  9  1  0
  7  8  2  0
  9 10  1  0
 10 14  1  0
 10 11  1  1
 12 13  2  0
 12 11  1  0
 14 21  1  0
 14 15  2  0
 16 12  1  0
 18 20  1  0
 18 17  1  6
 19 18  1  0
 20 22  1  0
 20 21  1  6
 22 24  1  0
 23 22  2  0
M  END
$$$$
