NDV.pdb
     RDKit          3D

 24 23  0  0  1  0  0  0  0  0999 V2000
   17.2540  -14.0308  -16.4301 N   0  0  0  0  0  0  0  0  0  0  0  0
   16.0384  -13.3266  -16.3192 C   0  0  0  0  0  0  0  0  0  0  0  0
   14.9607  -13.9381  -16.3899 O   0  0  0  0  0  0  0  0  0  0  0  0
   16.0585  -11.8610  -16.1189 C   0  0  0  0  0  0  0  0  0  0  0  0
   17.4750  -11.3339  -16.0096 C   0  0  2  0  0  0  0  0  0  0  0  0
   18.0012  -11.7996  -14.7426 N   0  0  0  0  0  0  0  0  0  0  0  0
   17.5429   -9.8764  -16.0482 C   0  0  0  0  0  0  0  0  0  0  0  0
   17.2090   -9.2519  -17.0829 O   0  0  0  0  0  0  0  0  0  0  0  0
   17.9855   -9.0762  -14.9327 N   0  0  0  0  0  0  0  0  0  0  0  0
   18.0985   -7.6491  -15.0134 C   0  0  1  0  0  0  0  0  0  0  0  0
   16.8280   -7.0111  -14.5194 C   0  0  0  0  0  0  0  0  0  0  0  0
   16.8778   -5.5403  -14.4499 C   0  0  0  0  0  0  0  0  0  0  0  0
   17.4494   -4.9025  -15.3575 O   0  0  0  0  0  0  0  0  0  0  0  0
   19.2996   -7.1090  -14.3617 C   0  0  0  0  0  0  0  0  0  0  0  0
   19.4811   -7.4021  -13.1507 O   0  0  0  0  0  0  0  0  0  0  0  0
   16.3052   -4.8567  -13.4013 O   0  0  0  0  0  0  0  0  0  0  0  0
   22.7964   -7.6766  -15.7425 C   0  0  0  0  0  0  0  0  0  0  0  0
   22.7082   -6.2265  -15.3088 C   0  0  1  0  0  0  0  0  0  0  0  0
   22.4691   -5.4182  -16.5672 C   0  0  0  0  0  0  0  0  0  0  0  0
   21.5428   -6.0241  -14.4037 C   0  0  2  0  0  0  0  0  0  0  0  0
   20.2637   -6.2952  -14.9676 N   0  0  0  0  0  0  0  0  0  0  0  0
   21.5543   -4.6228  -13.9133 C   0  0  0  0  0  0  0  0  0  0  0  0
   22.4745   -4.2170  -13.1235 O   0  0  0  0  0  0  0  0  0  0  0  0
   20.6106   -3.6672  -14.2518 O   0  0  0  0  0  0  0  0  0  0  0  0
  2  1  1  0
  2  4  1  0
  3  2  2  0
  5  4  1  0
  5  7  1  0
  5  6  1  1
  7  9  1  0
  7  8  2  0
  9 10  1  0
 10 14  1  0
 10 11  1  1
 12 13  2  0
 12 11  1  0
 14 21  1  0
 14 15  2  0
 16 12  1  0
 18 20  1  0
 18 17  1  6
 19 18  1  0
 20 22  1  0
 20 21  1  6
 22 24  1  0
 23 22  2  0
M  END
$$$$
