NDV.pdb
     RDKit          3D

 24 23  0  0  1  0  0  0  0  0999 V2000
   16.3618  -17.4396  -17.3777 N   0  0  0  0  0  0  0  0  0  0  0  0
   17.0812  -16.6579  -16.4518 C   0  0  0  0  0  0  0  0  0  0  0  0
   17.1670  -17.0231  -15.2688 O   0  0  0  0  0  0  0  0  0  0  0  0
   17.7292  -15.4058  -16.9001 C   0  0  0  0  0  0  0  0  0  0  0  0
   17.7090  -14.3492  -15.8140 C   0  0  2  0  0  0  0  0  0  0  0  0
   16.3212  -14.1431  -15.4526 N   0  0  0  0  0  0  0  0  0  0  0  0
   18.2836  -13.0792  -16.2468 C   0  0  0  0  0  0  0  0  0  0  0  0
   19.3915  -13.0499  -16.8331 O   0  0  0  0  0  0  0  0  0  0  0  0
   17.6371  -11.8071  -16.0367 N   0  0  0  0  0  0  0  0  0  0  0  0
   18.2678  -10.5645  -16.3745 C   0  0  1  0  0  0  0  0  0  0  0  0
   17.2208   -9.5482  -16.7431 C   0  0  0  0  0  0  0  0  0  0  0  0
   17.7559   -8.2053  -17.0279 C   0  0  0  0  0  0  0  0  0  0  0  0
   18.6551   -8.0722  -17.8829 O   0  0  0  0  0  0  0  0  0  0  0  0
   19.2044  -10.0751  -15.3535 C   0  0  0  0  0  0  0  0  0  0  0  0
   18.7867  -10.0162  -14.1671 O   0  0  0  0  0  0  0  0  0  0  0  0
   17.2820   -7.0946  -16.3674 O   0  0  0  0  0  0  0  0  0  0  0  0
   22.8069  -11.1885  -14.4409 C   0  0  0  0  0  0  0  0  0  0  0  0
   22.7882   -9.6806  -14.5974 C   0  0  1  0  0  0  0  0  0  0  0  0
   23.3612   -9.3863  -15.9682 C   0  0  0  0  0  0  0  0  0  0  0  0
   21.3889   -9.1715  -14.5648 C   0  0  2  0  0  0  0  0  0  0  0  0
   20.5236   -9.6669  -15.5813 N   0  0  0  0  0  0  0  0  0  0  0  0
   21.4158   -7.6895  -14.6498 C   0  0  0  0  0  0  0  0  0  0  0  0
   20.9390   -7.0873  -15.6722 O   0  0  0  0  0  0  0  0  0  0  0  0
   21.9366   -6.8585  -13.6717 O   0  0  0  0  0  0  0  0  0  0  0  0
  2  1  1  0
  2  4  1  0
  3  2  2  0
  5  4  1  0
  5  7  1  0
  5  6  1  6
  7  9  1  0
  7  8  2  0
  9 10  1  0
 10 14  1  0
 10 11  1  1
 12 13  2  0
 12 11  1  0
 14 21  1  0
 14 15  2  0
 16 12  1  0
 18 20  1  0
 18 17  1  6
 19 18  1  0
 20 22  1  0
 20 21  1  6
 22 24  1  0
 23 22  2  0
M  END
$$$$
