VID.pdb
     RDKit          3D

 24 23  0  0  1  0  0  0  0  0999 V2000
    9.2608  -16.9106   15.9937 C   0  0  0  0  0  0  0  0  0  0  0  0
    9.3375  -18.3081   16.5250 C   0  0  2  0  0  0  0  0  0  0  0  0
    8.6172  -19.2147   15.5499 C   0  0  0  0  0  0  0  0  0  0  0  0
    8.6496  -18.4451   17.8870 C   0  0  2  0  0  0  0  0  0  0  0  0
    7.2639  -18.2779   17.8449 N   0  0  0  0  0  0  0  0  0  0  0  0
    9.2432  -17.4554   18.8494 C   0  0  0  0  0  0  0  0  0  0  0  0
   10.4886  -17.3563   18.9395 O   0  0  0  0  0  0  0  0  0  0  0  0
    6.7238  -12.7564   20.0003 C   0  0  0  0  0  0  0  0  0  0  0  0
    7.8363  -13.7454   19.7280 C   0  0  0  0  0  0  0  0  0  0  0  0
    8.1003  -14.6614   20.8812 C   0  0  2  0  0  0  0  0  0  0  0  0
    8.3423  -13.9058   22.1696 C   0  0  0  0  0  0  0  0  0  0  0  0
    9.0829  -15.7598   20.6527 C   0  0  2  0  0  0  0  0  0  0  0  0
    8.4550  -16.6293   19.6595 N   0  0  0  0  0  0  0  0  0  0  0  0
    9.4960  -16.5253   21.8377 C   0  0  0  0  0  0  0  0  0  0  0  0
    8.6645  -17.2693   22.4746 O   0  0  0  0  0  0  0  0  0  0  0  0
   10.8068  -16.5064   22.3544 N   0  0  0  0  0  0  0  0  0  0  0  0
   11.1590  -17.3722   23.4969 C   0  0  1  0  0  0  0  0  0  0  0  0
   12.4831  -18.0490   23.2506 C   0  0  0  0  0  0  0  0  0  0  0  0
   12.9788  -18.8398   24.3892 C   0  0  0  0  0  0  0  0  0  0  0  0
   12.2300  -19.7170   24.8825 O   0  0  0  0  0  0  0  0  0  0  0  0
   11.3230  -16.5582   24.7235 C   0  0  0  0  0  0  0  0  0  0  0  0
   11.3261  -17.1421   25.9670 O   0  0  0  0  0  0  0  0  0  0  0  0
   14.2287  -18.6561   24.9337 O   0  0  0  0  0  0  0  0  0  0  0  0
   11.4601  -15.3249   24.6224 O   0  0  0  0  0  0  0  0  0  0  0  0
  2  1  1  6
  2  4  1  0
  3  2  1  0
  4  6  1  0
  4  5  1  6
  6 13  1  0
  6  7  2  0
  8  9  1  0
  9 10  1  0
 10 12  1  0
 10 11  1  1
 12 14  1  0
 12 13  1  6
 14 15  2  0
 16 14  1  0
 16 17  1  0
 17 21  1  0
 17 18  1  6
 19 18  1  0
 19 20  2  0
 21 22  1  0
 23 19  1  0
 24 21  2  0
M  END
$$$$
