VID.pdb
     RDKit          3D

 24 23  0  0  1  0  0  0  0  0999 V2000
    5.8918  -17.0270   20.0178 C   0  0  0  0  0  0  0  0  0  0  0  0
    6.7463  -16.6196   21.1775 C   0  0  2  0  0  0  0  0  0  0  0  0
    6.2143  -17.3153   22.4121 C   0  0  0  0  0  0  0  0  0  0  0  0
    6.6917  -15.1097   21.4310 C   0  0  2  0  0  0  0  0  0  0  0  0
    6.9977  -14.3326   20.3119 N   0  0  0  0  0  0  0  0  0  0  0  0
    7.6250  -14.7566   22.5546 C   0  0  0  0  0  0  0  0  0  0  0  0
    8.8477  -14.6207   22.3187 O   0  0  0  0  0  0  0  0  0  0  0  0
    6.1473  -11.3811   26.3906 C   0  0  0  0  0  0  0  0  0  0  0  0
    6.9978  -12.1437   25.3982 C   0  0  0  0  0  0  0  0  0  0  0  0
    7.4586  -13.4686   25.9188 C   0  0  2  0  0  0  0  0  0  0  0  0
    8.1923  -13.3430   27.2362 C   0  0  0  0  0  0  0  0  0  0  0  0
    8.1474  -14.3670   24.9479 C   0  0  2  0  0  0  0  0  0  0  0  0
    7.1818  -14.5707   23.8695 N   0  0  0  0  0  0  0  0  0  0  0  0
    8.6295  -15.6521   25.4738 C   0  0  0  0  0  0  0  0  0  0  0  0
    7.8394  -16.4633   26.0809 O   0  0  0  0  0  0  0  0  0  0  0  0
    9.9644  -16.0872   25.3535 N   0  0  0  0  0  0  0  0  0  0  0  0
   10.3383  -17.4437   25.7995 C   0  0  1  0  0  0  0  0  0  0  0  0
   11.5867  -17.9013   25.0895 C   0  0  0  0  0  0  0  0  0  0  0  0
   12.1215  -19.1847   25.5736 C   0  0  0  0  0  0  0  0  0  0  0  0
   11.4827  -19.8071   26.4557 O   0  0  0  0  0  0  0  0  0  0  0  0
   10.6545  -17.4369   27.2466 C   0  0  0  0  0  0  0  0  0  0  0  0
   10.5262  -18.5746   28.0058 O   0  0  0  0  0  0  0  0  0  0  0  0
   13.2923  -19.7287   25.0984 O   0  0  0  0  0  0  0  0  0  0  0  0
   11.0426  -16.3813   27.7804 O   0  0  0  0  0  0  0  0  0  0  0  0
  2  1  1  6
  2  4  1  0
  3  2  1  0
  4  6  1  0
  4  5  1  6
  6 13  1  0
  6  7  2  0
  8  9  1  0
  9 10  1  0
 10 12  1  0
 10 11  1  1
 12 14  1  0
 12 13  1  6
 14 15  2  0
 16 14  1  0
 16 17  1  0
 17 21  1  0
 17 18  1  6
 19 18  1  0
 19 20  2  0
 21 22  1  0
 23 19  1  0
 24 21  2  0
M  END
$$$$
