VID.pdb
     RDKit          3D

 24 23  0  0  1  0  0  0  0  0999 V2000
    6.0690  -16.4098   19.4565 C   0  0  0  0  0  0  0  0  0  0  0  0
    6.8707  -16.1792   20.6996 C   0  0  2  0  0  0  0  0  0  0  0  0
    6.2228  -16.9630   21.8209 C   0  0  0  0  0  0  0  0  0  0  0  0
    6.8871  -14.7031   21.1091 C   0  0  2  0  0  0  0  0  0  0  0  0
    7.3084  -13.8361   20.0987 N   0  0  0  0  0  0  0  0  0  0  0  0
    7.7654  -14.5280   22.3158 C   0  0  0  0  0  0  0  0  0  0  0  0
    9.0080  -14.4694   22.1686 O   0  0  0  0  0  0  0  0  0  0  0  0
    5.7848  -11.4946   26.2439 C   0  0  0  0  0  0  0  0  0  0  0  0
    6.7516  -12.1086   25.2548 C   0  0  0  0  0  0  0  0  0  0  0  0
    7.3202  -13.4106   25.7236 C   0  0  2  0  0  0  0  0  0  0  0  0
    7.9736  -13.2944   27.0834 C   0  0  0  0  0  0  0  0  0  0  0  0
    8.1430  -14.1745   24.7417 C   0  0  2  0  0  0  0  0  0  0  0  0
    7.2489  -14.4263   23.6130 N   0  0  0  0  0  0  0  0  0  0  0  0
    8.7463  -15.4245   25.2256 C   0  0  0  0  0  0  0  0  0  0  0  0
    8.0200  -16.3938   25.6540 O   0  0  0  0  0  0  0  0  0  0  0  0
   10.1363  -15.6541   25.2540 N   0  0  0  0  0  0  0  0  0  0  0  0
   10.6515  -17.0142   25.5057 C   0  0  1  0  0  0  0  0  0  0  0  0
   12.0066  -17.1857   24.8681 C   0  0  0  0  0  0  0  0  0  0  0  0
   12.6468  -18.4816   25.1481 C   0  0  0  0  0  0  0  0  0  0  0  0
   13.6443  -18.5069   25.9081 O   0  0  0  0  0  0  0  0  0  0  0  0
   10.8391  -17.2289   26.9593 C   0  0  0  0  0  0  0  0  0  0  0  0
   10.6652  -16.2027   27.8559 O   0  0  0  0  0  0  0  0  0  0  0  0
   12.1958  -19.6648   24.6105 O   0  0  0  0  0  0  0  0  0  0  0  0
   11.1595  -18.3589   27.3718 O   0  0  0  0  0  0  0  0  0  0  0  0
  2  1  1  6
  2  4  1  0
  3  2  1  0
  4  6  1  0
  4  5  1  6
  6 13  1  0
  6  7  2  0
  8  9  1  0
  9 10  1  0
 10 12  1  0
 10 11  1  1
 12 14  1  0
 12 13  1  6
 14 15  2  0
 16 14  1  0
 16 17  1  0
 17 21  1  0
 17 18  1  6
 19 18  1  0
 19 20  2  0
 21 22  1  0
 23 19  1  0
 24 21  2  0
M  END
$$$$
