VID.pdb
     RDKit          3D

 24 23  0  0  1  0  0  0  0  0999 V2000
    5.7918  -17.0374   21.9922 C   0  0  0  0  0  0  0  0  0  0  0  0
    6.3477  -16.3073   20.8093 C   0  0  2  0  0  0  0  0  0  0  0  0
    7.7189  -16.8773   20.5155 C   0  0  0  0  0  0  0  0  0  0  0  0
    6.5124  -14.8089   21.0824 C   0  0  2  0  0  0  0  0  0  0  0  0
    6.9583  -14.0747   19.9815 N   0  0  0  0  0  0  0  0  0  0  0  0
    7.4600  -14.6107   22.2318 C   0  0  0  0  0  0  0  0  0  0  0  0
    8.6892  -14.5241   22.0074 O   0  0  0  0  0  0  0  0  0  0  0  0
    5.6940  -11.6708   26.4116 C   0  0  0  0  0  0  0  0  0  0  0  0
    6.5529  -12.2522   25.3097 C   0  0  0  0  0  0  0  0  0  0  0  0
    7.1885  -13.5529   25.6876 C   0  0  2  0  0  0  0  0  0  0  0  0
    7.9120  -13.4732   27.0141 C   0  0  0  0  0  0  0  0  0  0  0  0
    7.9799  -14.2442   24.6293 C   0  0  2  0  0  0  0  0  0  0  0  0
    7.0230  -14.5176   23.5586 N   0  0  0  0  0  0  0  0  0  0  0  0
    8.6833  -15.4699   25.0336 C   0  0  0  0  0  0  0  0  0  0  0  0
    8.0411  -16.4988   25.4572 O   0  0  0  0  0  0  0  0  0  0  0  0
   10.0846  -15.6109   24.9864 N   0  0  0  0  0  0  0  0  0  0  0  0
   10.7013  -16.9217   25.2696 C   0  0  1  0  0  0  0  0  0  0  0  0
   12.1098  -16.9627   24.7344 C   0  0  0  0  0  0  0  0  0  0  0  0
   12.8448  -18.1960   25.0607 C   0  0  0  0  0  0  0  0  0  0  0  0
   14.0987  -18.1719   25.0371 O   0  0  0  0  0  0  0  0  0  0  0  0
   10.7994  -17.1352   26.7321 C   0  0  0  0  0  0  0  0  0  0  0  0
   10.9496  -18.3961   27.2562 O   0  0  0  0  0  0  0  0  0  0  0  0
   12.2128  -19.3727   25.3900 O   0  0  0  0  0  0  0  0  0  0  0  0
   10.7444  -16.1537   27.4960 O   0  0  0  0  0  0  0  0  0  0  0  0
  2  1  1  1
  2  4  1  0
  3  2  1  0
  4  6  1  0
  4  5  1  6
  6 13  1  0
  6  7  2  0
  8  9  1  0
  9 10  1  0
 10 12  1  0
 10 11  1  1
 12 14  1  0
 12 13  1  6
 14 15  2  0
 16 14  1  0
 16 17  1  0
 17 21  1  0
 17 18  1  1
 19 18  1  0
 19 20  2  0
 21 22  1  0
 23 19  1  0
 24 21  2  0
M  END
$$$$
