VID.pdb
     RDKit          3D

 24 23  0  0  1  0  0  0  0  0999 V2000
    6.7860  -16.9078   19.6493 C   0  0  0  0  0  0  0  0  0  0  0  0
    7.4397  -16.6294   20.9670 C   0  0  2  0  0  0  0  0  0  0  0  0
    6.6686  -17.3769   22.0339 C   0  0  0  0  0  0  0  0  0  0  0  0
    7.4071  -15.1398   21.3230 C   0  0  2  0  0  0  0  0  0  0  0  0
    7.9294  -14.3056   20.3324 N   0  0  0  0  0  0  0  0  0  0  0  0
    8.1524  -14.9158   22.6086 C   0  0  0  0  0  0  0  0  0  0  0  0
    9.4023  -14.8350   22.5887 O   0  0  0  0  0  0  0  0  0  0  0  0
    6.0035  -11.6560   26.2375 C   0  0  0  0  0  0  0  0  0  0  0  0
    7.0155  -12.3778   25.3745 C   0  0  0  0  0  0  0  0  0  0  0  0
    7.4027  -13.7156   25.9214 C   0  0  2  0  0  0  0  0  0  0  0  0
    7.8803  -13.6325   27.3547 C   0  0  0  0  0  0  0  0  0  0  0  0
    8.2773  -14.5634   25.0607 C   0  0  2  0  0  0  0  0  0  0  0  0
    7.5025  -14.7922   23.8424 N   0  0  0  0  0  0  0  0  0  0  0  0
    8.7334  -15.8342   25.6419 C   0  0  0  0  0  0  0  0  0  0  0  0
    7.8970  -16.7298   26.0277 O   0  0  0  0  0  0  0  0  0  0  0  0
   10.0925  -16.1639   25.8146 N   0  0  0  0  0  0  0  0  0  0  0  0
   10.4650  -17.4852   26.3570 C   0  0  1  0  0  0  0  0  0  0  0  0
   11.7814  -17.9356   25.7771 C   0  0  0  0  0  0  0  0  0  0  0  0
   11.6556  -18.8138   24.6022 C   0  0  0  0  0  0  0  0  0  0  0  0
   10.5070  -19.1210   24.2023 O   0  0  0  0  0  0  0  0  0  0  0  0
   10.6570  -17.4001   27.8233 C   0  0  0  0  0  0  0  0  0  0  0  0
   10.6008  -18.5234   28.6123 O   0  0  0  0  0  0  0  0  0  0  0  0
   12.7454  -19.3106   23.9256 O   0  0  0  0  0  0  0  0  0  0  0  0
   10.8727  -16.2910   28.3461 O   0  0  0  0  0  0  0  0  0  0  0  0
  2  1  1  6
  2  4  1  0
  3  2  1  0
  4  6  1  0
  4  5  1  6
  6 13  1  0
  6  7  2  0
  8  9  1  0
  9 10  1  0
 10 12  1  0
 10 11  1  1
 12 14  1  0
 12 13  1  6
 14 15  2  0
 16 14  1  0
 16 17  1  0
 17 21  1  0
 17 18  1  6
 19 18  1  0
 19 20  2  0
 21 22  1  0
 23 19  1  0
 24 21  2  0
M  END
$$$$
