VID.pdb
     RDKit          3D

 24 23  0  0  1  0  0  0  0  0999 V2000
    8.1759  -17.3568   20.9375 C   0  0  0  0  0  0  0  0  0  0  0  0
    6.9012  -16.6106   21.1818 C   0  0  2  0  0  0  0  0  0  0  0  0
    5.9934  -16.8427   19.9929 C   0  0  0  0  0  0  0  0  0  0  0  0
    7.1321  -15.1013   21.3068 C   0  0  2  0  0  0  0  0  0  0  0  0
    7.7121  -14.5182   20.1782 N   0  0  0  0  0  0  0  0  0  0  0  0
    7.9901  -14.8240   22.5090 C   0  0  0  0  0  0  0  0  0  0  0  0
    9.2089  -14.5817   22.3518 O   0  0  0  0  0  0  0  0  0  0  0  0
    5.8660  -11.7453   26.1635 C   0  0  0  0  0  0  0  0  0  0  0  0
    6.8702  -12.4090   25.2464 C   0  0  0  0  0  0  0  0  0  0  0  0
    7.4751  -13.6436   25.8366 C   0  0  2  0  0  0  0  0  0  0  0  0
    8.1013  -13.3847   27.1895 C   0  0  0  0  0  0  0  0  0  0  0  0
    8.3396  -14.4615   24.9377 C   0  0  2  0  0  0  0  0  0  0  0  0
    7.4799  -14.8246   23.8127 N   0  0  0  0  0  0  0  0  0  0  0  0
    8.9603  -15.6534   25.5333 C   0  0  0  0  0  0  0  0  0  0  0  0
    8.2486  -16.6378   25.9517 O   0  0  0  0  0  0  0  0  0  0  0  0
   10.3526  -15.8082   25.6857 N   0  0  0  0  0  0  0  0  0  0  0  0
   10.8991  -17.0809   26.1957 C   0  0  1  0  0  0  0  0  0  0  0  0
   12.3770  -17.1660   25.9114 C   0  0  0  0  0  0  0  0  0  0  0  0
   12.8190  -18.4719   25.3948 C   0  0  0  0  0  0  0  0  0  0  0  0
   13.9896  -18.5795   24.9572 O   0  0  0  0  0  0  0  0  0  0  0  0
   10.7481  -17.1487   27.6677 C   0  0  0  0  0  0  0  0  0  0  0  0
   10.9611  -18.3223   28.3491 O   0  0  0  0  0  0  0  0  0  0  0  0
   12.0012  -19.5778   25.3726 O   0  0  0  0  0  0  0  0  0  0  0  0
   10.4228  -16.1234   28.2945 O   0  0  0  0  0  0  0  0  0  0  0  0
  2  1  1  6
  2  4  1  0
  3  2  1  0
  4  6  1  0
  4  5  1  6
  6 13  1  0
  6  7  2  0
  8  9  1  0
  9 10  1  0
 10 12  1  0
 10 11  1  1
 12 14  1  0
 12 13  1  6
 14 15  2  0
 16 14  1  0
 16 17  1  0
 17 21  1  0
 17 18  1  1
 19 18  1  0
 19 20  2  0
 21 22  1  0
 23 19  1  0
 24 21  2  0
M  END
$$$$
