VID.pdb
     RDKit          3D

 24 23  0  0  1  0  0  0  0  0999 V2000
    7.8002  -17.2217   20.9925 C   0  0  0  0  0  0  0  0  0  0  0  0
    6.6053  -16.3282   21.1148 C   0  0  2  0  0  0  0  0  0  0  0  0
    5.7414  -16.5395   19.8899 C   0  0  0  0  0  0  0  0  0  0  0  0
    6.9956  -14.8476   21.1624 C   0  0  2  0  0  0  0  0  0  0  0  0
    7.6873  -14.4040   20.0334 N   0  0  0  0  0  0  0  0  0  0  0  0
    7.8231  -14.5872   22.3895 C   0  0  0  0  0  0  0  0  0  0  0  0
    9.0673  -14.4891   22.2826 O   0  0  0  0  0  0  0  0  0  0  0  0
    5.7794  -11.5166   26.2862 C   0  0  0  0  0  0  0  0  0  0  0  0
    6.7517  -12.1509   25.3155 C   0  0  0  0  0  0  0  0  0  0  0  0
    7.2778  -13.4684   25.7909 C   0  0  2  0  0  0  0  0  0  0  0  0
    7.8913  -13.3763   27.1710 C   0  0  0  0  0  0  0  0  0  0  0  0
    8.1138  -14.2425   24.8286 C   0  0  2  0  0  0  0  0  0  0  0  0
    7.2569  -14.4478   23.6622 N   0  0  0  0  0  0  0  0  0  0  0  0
    8.6584  -15.5186   25.3140 C   0  0  0  0  0  0  0  0  0  0  0  0
    7.8867  -16.4943   25.6352 O   0  0  0  0  0  0  0  0  0  0  0  0
   10.0378  -15.7677   25.4588 N   0  0  0  0  0  0  0  0  0  0  0  0
   10.5068  -17.1216   25.8135 C   0  0  1  0  0  0  0  0  0  0  0  0
   11.8650  -17.3780   25.2121 C   0  0  0  0  0  0  0  0  0  0  0  0
   12.4886  -18.6401   25.6434 C   0  0  0  0  0  0  0  0  0  0  0  0
   13.7344  -18.6767   25.7850 O   0  0  0  0  0  0  0  0  0  0  0  0
   10.6666  -17.2389   27.2815 C   0  0  0  0  0  0  0  0  0  0  0  0
   10.8208  -18.4646   27.8823 O   0  0  0  0  0  0  0  0  0  0  0  0
   11.7612  -19.7797   25.8971 O   0  0  0  0  0  0  0  0  0  0  0  0
   10.6605  -16.2078   27.9792 O   0  0  0  0  0  0  0  0  0  0  0  0
  2  1  1  6
  2  4  1  0
  3  2  1  0
  4  6  1  0
  4  5  1  6
  6 13  1  0
  6  7  2  0
  8  9  1  0
  9 10  1  0
 10 12  1  0
 10 11  1  1
 12 14  1  0
 12 13  1  6
 14 15  2  0
 16 14  1  0
 16 17  1  0
 17 21  1  0
 17 18  1  6
 19 18  1  0
 19 20  2  0
 21 22  1  0
 23 19  1  0
 24 21  2  0
M  END
$$$$
