VID.pdb
     RDKit          3D

 24 23  0  0  1  0  0  0  0  0999 V2000
    5.0880  -20.7798   24.3251 C   0  0  0  0  0  0  0  0  0  0  0  0
    6.0446  -19.6363   24.1897 C   0  0  2  0  0  0  0  0  0  0  0  0
    6.9231  -19.6188   25.4224 C   0  0  0  0  0  0  0  0  0  0  0  0
    5.3226  -18.2875   24.1104 C   0  0  2  0  0  0  0  0  0  0  0  0
    4.3948  -18.1981   23.0706 N   0  0  0  0  0  0  0  0  0  0  0  0
    6.3347  -17.1852   23.9728 C   0  0  0  0  0  0  0  0  0  0  0  0
    6.8446  -16.9550   22.8521 O   0  0  0  0  0  0  0  0  0  0  0  0
    5.8479  -12.6370   26.7958 C   0  0  0  0  0  0  0  0  0  0  0  0
    6.1859  -13.5711   25.6543 C   0  0  0  0  0  0  0  0  0  0  0  0
    7.4626  -14.3208   25.8701 C   0  0  2  0  0  0  0  0  0  0  0  0
    8.6289  -13.3981   26.1493 C   0  0  0  0  0  0  0  0  0  0  0  0
    7.7858  -15.3913   24.8832 C   0  0  2  0  0  0  0  0  0  0  0  0
    6.7372  -16.3949   25.0561 N   0  0  0  0  0  0  0  0  0  0  0  0
    9.1200  -15.9988   24.9901 C   0  0  0  0  0  0  0  0  0  0  0  0
    9.4208  -16.7813   25.9637 O   0  0  0  0  0  0  0  0  0  0  0  0
   10.1492  -15.7788   24.0531 N   0  0  0  0  0  0  0  0  0  0  0  0
   11.3215  -16.6752   24.0250 C   0  0  1  0  0  0  0  0  0  0  0  0
   12.1196  -16.4522   22.7658 C   0  0  0  0  0  0  0  0  0  0  0  0
   13.3716  -17.2239   22.6990 C   0  0  0  0  0  0  0  0  0  0  0  0
   13.4643  -18.2776   23.3731 O   0  0  0  0  0  0  0  0  0  0  0  0
   12.2261  -16.3694   25.1574 C   0  0  0  0  0  0  0  0  0  0  0  0
   13.0784  -17.3217   25.6614 O   0  0  0  0  0  0  0  0  0  0  0  0
   14.4430  -16.8366   21.9280 O   0  0  0  0  0  0  0  0  0  0  0  0
   12.2112  -15.2298   25.6583 O   0  0  0  0  0  0  0  0  0  0  0  0
  2  1  1  1
  2  4  1  0
  3  2  1  0
  4  6  1  0
  4  5  1  6
  6 13  1  0
  6  7  2  0
  8  9  1  0
  9 10  1  0
 10 12  1  0
 10 11  1  6
 12 14  1  0
 12 13  1  1
 14 15  2  0
 16 14  1  0
 16 17  1  0
 17 21  1  0
 17 18  1  6
 19 18  1  0
 19 20  2  0
 21 22  1  0
 23 19  1  0
 24 21  2  0
M  END
$$$$
