VID.pdb
     RDKit          3D

 24 23  0  0  1  0  0  0  0  0999 V2000
    8.0678  -17.4528   21.0732 C   0  0  0  0  0  0  0  0  0  0  0  0
    7.0079  -16.3989   20.9879 C   0  0  2  0  0  0  0  0  0  0  0  0
    6.3407  -16.5212   19.6346 C   0  0  0  0  0  0  0  0  0  0  0  0
    7.5903  -14.9861   21.0965 C   0  0  2  0  0  0  0  0  0  0  0  0
    8.5346  -14.6819   20.1138 N   0  0  0  0  0  0  0  0  0  0  0  0
    8.2060  -14.8015   22.4549 C   0  0  0  0  0  0  0  0  0  0  0  0
    9.4500  -14.8755   22.5814 O   0  0  0  0  0  0  0  0  0  0  0  0
    5.8568  -11.4672   25.9065 C   0  0  0  0  0  0  0  0  0  0  0  0
    6.9176  -12.2248   25.1380 C   0  0  0  0  0  0  0  0  0  0  0  0
    7.2094  -13.5730   25.7175 C   0  0  2  0  0  0  0  0  0  0  0  0
    7.6194  -13.4951   27.1720 C   0  0  0  0  0  0  0  0  0  0  0  0
    8.0813  -14.4746   24.9105 C   0  0  2  0  0  0  0  0  0  0  0  0
    7.4401  -14.5473   23.5989 N   0  0  0  0  0  0  0  0  0  0  0  0
    8.3174  -15.8184   25.4574 C   0  0  0  0  0  0  0  0  0  0  0  0
    7.5446  -16.8025   25.1660 O   0  0  0  0  0  0  0  0  0  0  0  0
    9.3869  -16.1267   26.3215 N   0  0  0  0  0  0  0  0  0  0  0  0
    9.9975  -17.4700   26.2849 C   0  0  1  0  0  0  0  0  0  0  0  0
   10.6907  -17.6929   24.9651 C   0  0  0  0  0  0  0  0  0  0  0  0
   11.3790  -18.9897   24.8551 C   0  0  0  0  0  0  0  0  0  0  0  0
   10.7165  -20.0387   25.0397 O   0  0  0  0  0  0  0  0  0  0  0  0
   11.0379  -17.5873   27.3328 C   0  0  0  0  0  0  0  0  0  0  0  0
   11.6365  -16.4716   27.8658 O   0  0  0  0  0  0  0  0  0  0  0  0
   12.7179  -19.0976   24.5585 O   0  0  0  0  0  0  0  0  0  0  0  0
   11.3729  -18.7169   27.7348 O   0  0  0  0  0  0  0  0  0  0  0  0
  2  1  1  6
  2  4  1  0
  3  2  1  0
  4  6  1  0
  4  5  1  6
  6 13  1  0
  6  7  2  0
  8  9  1  0
  9 10  1  0
 10 12  1  0
 10 11  1  1
 12 14  1  0
 12 13  1  6
 14 15  2  0
 16 14  1  0
 16 17  1  0
 17 21  1  0
 17 18  1  6
 19 18  1  0
 19 20  2  0
 21 22  1  0
 23 19  1  0
 24 21  2  0
M  END
$$$$
