VID.pdb
     RDKit          3D

 24 23  0  0  1  0  0  0  0  0999 V2000
    4.8142  -18.2465   21.4323 C   0  0  0  0  0  0  0  0  0  0  0  0
    5.8984  -17.5845   22.2244 C   0  0  2  0  0  0  0  0  0  0  0  0
    5.7423  -18.0094   23.6689 C   0  0  0  0  0  0  0  0  0  0  0  0
    5.7989  -16.0567   22.1726 C   0  0  2  0  0  0  0  0  0  0  0  0
    5.7843  -15.5301   20.8793 N   0  0  0  0  0  0  0  0  0  0  0  0
    6.9390  -15.4542   22.9442 C   0  0  0  0  0  0  0  0  0  0  0  0
    8.0637  -15.3541   22.4018 O   0  0  0  0  0  0  0  0  0  0  0  0
    5.9224  -11.5429   26.5472 C   0  0  0  0  0  0  0  0  0  0  0  0
    6.5884  -12.3529   25.4563 C   0  0  0  0  0  0  0  0  0  0  0  0
    7.3689  -13.5152   25.9839 C   0  0  2  0  0  0  0  0  0  0  0  0
    8.3602  -13.1033   27.0503 C   0  0  0  0  0  0  0  0  0  0  0  0
    7.9484  -14.4469   24.9738 C   0  0  2  0  0  0  0  0  0  0  0  0
    6.7969  -14.9945   24.2589 N   0  0  0  0  0  0  0  0  0  0  0  0
    8.8074  -15.5215   25.4915 C   0  0  0  0  0  0  0  0  0  0  0  0
    8.3748  -16.3599   26.3635 O   0  0  0  0  0  0  0  0  0  0  0  0
   10.1410  -15.7143   25.0792 N   0  0  0  0  0  0  0  0  0  0  0  0
   10.7490  -17.0568   25.1617 C   0  0  1  0  0  0  0  0  0  0  0  0
   10.5583  -17.7973   23.8627 C   0  0  0  0  0  0  0  0  0  0  0  0
   11.1277  -19.1550   23.8516 C   0  0  0  0  0  0  0  0  0  0  0  0
   11.6523  -19.5948   24.9027 O   0  0  0  0  0  0  0  0  0  0  0  0
   12.2109  -16.9438   25.3721 C   0  0  0  0  0  0  0  0  0  0  0  0
   12.8288  -15.7175   25.4126 O   0  0  0  0  0  0  0  0  0  0  0  0
   11.1078  -19.9601   22.7363 O   0  0  0  0  0  0  0  0  0  0  0  0
   12.8877  -17.9790   25.5143 O   0  0  0  0  0  0  0  0  0  0  0  0
  2  1  1  6
  2  4  1  0
  3  2  1  0
  4  6  1  0
  4  5  1  6
  6 13  1  0
  6  7  2  0
  8  9  1  0
  9 10  1  0
 10 12  1  0
 10 11  1  6
 12 14  1  0
 12 13  1  1
 14 15  2  0
 16 14  1  0
 16 17  1  0
 17 21  1  0
 17 18  1  6
 19 18  1  0
 19 20  2  0
 21 22  1  0
 23 19  1  0
 24 21  2  0
M  END
$$$$
