VID.pdb
     RDKit          3D

 24 23  0  0  1  0  0  0  0  0999 V2000
    6.6592  -16.5807   19.1589 C   0  0  0  0  0  0  0  0  0  0  0  0
    7.2588  -16.3501   20.5111 C   0  0  2  0  0  0  0  0  0  0  0  0
    6.4292  -17.1125   21.5220 C   0  0  0  0  0  0  0  0  0  0  0  0
    7.2351  -14.8703   20.9070 C   0  0  2  0  0  0  0  0  0  0  0  0
    7.7610  -14.0129   19.9384 N   0  0  0  0  0  0  0  0  0  0  0  0
    7.9832  -14.6852   22.1971 C   0  0  0  0  0  0  0  0  0  0  0  0
    9.2357  -14.6775   22.1859 O   0  0  0  0  0  0  0  0  0  0  0  0
    5.7834  -11.6128   26.0299 C   0  0  0  0  0  0  0  0  0  0  0  0
    6.7893  -12.2621   25.1044 C   0  0  0  0  0  0  0  0  0  0  0  0
    7.2415  -13.6060   25.5820 C   0  0  2  0  0  0  0  0  0  0  0  0
    7.7697  -13.5628   26.9992 C   0  0  0  0  0  0  0  0  0  0  0  0
    8.1110  -14.3881   24.6563 C   0  0  2  0  0  0  0  0  0  0  0  0
    7.3330  -14.5188   23.4257 N   0  0  0  0  0  0  0  0  0  0  0  0
    8.5631  -15.7018   25.1365 C   0  0  0  0  0  0  0  0  0  0  0  0
    7.7592  -16.7020   25.1994 O   0  0  0  0  0  0  0  0  0  0  0  0
    9.8839  -15.9624   25.5527 N   0  0  0  0  0  0  0  0  0  0  0  0
   10.3354  -17.3557   25.7356 C   0  0  1  0  0  0  0  0  0  0  0  0
   11.3771  -17.7069   24.7042 C   0  0  0  0  0  0  0  0  0  0  0  0
   11.9535  -19.0525   24.8610 C   0  0  0  0  0  0  0  0  0  0  0  0
   13.1486  -19.1548   25.2281 O   0  0  0  0  0  0  0  0  0  0  0  0
   10.9819  -17.5140   27.0589 C   0  0  0  0  0  0  0  0  0  0  0  0
   11.2087  -16.4299   27.8716 O   0  0  0  0  0  0  0  0  0  0  0  0
   11.2354  -20.2011   24.6216 O   0  0  0  0  0  0  0  0  0  0  0  0
   11.3241  -18.6494   27.4378 O   0  0  0  0  0  0  0  0  0  0  0  0
  2  1  1  6
  2  4  1  0
  3  2  1  0
  4  6  1  0
  4  5  1  6
  6 13  1  0
  6  7  2  0
  8  9  1  0
  9 10  1  0
 10 12  1  0
 10 11  1  1
 12 14  1  0
 12 13  1  6
 14 15  2  0
 16 14  1  0
 16 17  1  0
 17 21  1  0
 17 18  1  6
 19 18  1  0
 19 20  2  0
 21 22  1  0
 23 19  1  0
 24 21  2  0
M  END
$$$$
