VID.pdb
     RDKit          3D

 24 23  0  0  1  0  0  0  0  0999 V2000
    7.7907  -17.1850   20.9576 C   0  0  0  0  0  0  0  0  0  0  0  0
    6.5588  -16.3611   21.1692 C   0  0  2  0  0  0  0  0  0  0  0  0
    5.6401  -16.5895   19.9880 C   0  0  0  0  0  0  0  0  0  0  0  0
    6.8721  -14.8630   21.2357 C   0  0  2  0  0  0  0  0  0  0  0  0
    7.4869  -14.3580   20.0881 N   0  0  0  0  0  0  0  0  0  0  0  0
    7.7402  -14.5856   22.4306 C   0  0  0  0  0  0  0  0  0  0  0  0
    8.9737  -14.4358   22.2729 O   0  0  0  0  0  0  0  0  0  0  0  0
    5.6787  -11.6120   26.3297 C   0  0  0  0  0  0  0  0  0  0  0  0
    6.6915  -12.1867   25.3633 C   0  0  0  0  0  0  0  0  0  0  0  0
    7.2909  -13.4722   25.8395 C   0  0  2  0  0  0  0  0  0  0  0  0
    7.9574  -13.3281   27.1902 C   0  0  0  0  0  0  0  0  0  0  0  0
    8.1170  -14.2307   24.8564 C   0  0  2  0  0  0  0  0  0  0  0  0
    7.2236  -14.4861   23.7280 N   0  0  0  0  0  0  0  0  0  0  0  0
    8.7272  -15.4780   25.3387 C   0  0  0  0  0  0  0  0  0  0  0  0
    8.0075  -16.4940   25.6554 O   0  0  0  0  0  0  0  0  0  0  0  0
   10.1176  -15.6546   25.4852 N   0  0  0  0  0  0  0  0  0  0  0  0
   10.6546  -16.9763   25.8640 C   0  0  1  0  0  0  0  0  0  0  0  0
   12.0843  -17.1101   25.4055 C   0  0  0  0  0  0  0  0  0  0  0  0
   12.5229  -18.4990   25.1911 C   0  0  0  0  0  0  0  0  0  0  0  0
   11.7180  -19.4282   25.4401 O   0  0  0  0  0  0  0  0  0  0  0  0
   10.6693  -17.1187   27.3383 C   0  0  0  0  0  0  0  0  0  0  0  0
   10.3976  -16.0493   28.1567 O   0  0  0  0  0  0  0  0  0  0  0  0
   13.7786  -18.8189   24.7291 O   0  0  0  0  0  0  0  0  0  0  0  0
   10.9325  -18.2269   27.8407 O   0  0  0  0  0  0  0  0  0  0  0  0
  2  1  1  6
  2  4  1  0
  3  2  1  0
  4  6  1  0
  4  5  1  6
  6 13  1  0
  6  7  2  0
  8  9  1  0
  9 10  1  0
 10 12  1  0
 10 11  1  1
 12 14  1  0
 12 13  1  6
 14 15  2  0
 16 14  1  0
 16 17  1  0
 17 21  1  0
 17 18  1  1
 19 18  1  0
 19 20  2  0
 21 22  1  0
 23 19  1  0
 24 21  2  0
M  END
$$$$
