VID.pdb
     RDKit          3D

 24 23  0  0  1  0  0  0  0  0999 V2000
    8.0839  -16.9664   20.8532 C   0  0  0  0  0  0  0  0  0  0  0  0
    6.8299  -16.1634   21.0070 C   0  0  2  0  0  0  0  0  0  0  0  0
    6.0212  -16.3191   19.7368 C   0  0  0  0  0  0  0  0  0  0  0  0
    7.1208  -14.6713   21.1966 C   0  0  2  0  0  0  0  0  0  0  0  0
    7.8150  -14.0868   20.1353 N   0  0  0  0  0  0  0  0  0  0  0  0
    7.8930  -14.4696   22.4699 C   0  0  0  0  0  0  0  0  0  0  0  0
    9.1238  -14.2436   22.4133 O   0  0  0  0  0  0  0  0  0  0  0  0
    5.5987  -11.7517   26.4318 C   0  0  0  0  0  0  0  0  0  0  0  0
    6.5924  -12.3262   25.4457 C   0  0  0  0  0  0  0  0  0  0  0  0
    7.1758  -13.6288   25.8943 C   0  0  2  0  0  0  0  0  0  0  0  0
    7.7331  -13.5537   27.2991 C   0  0  0  0  0  0  0  0  0  0  0  0
    8.0890  -14.3186   24.9379 C   0  0  2  0  0  0  0  0  0  0  0  0
    7.2892  -14.5240   23.7318 N   0  0  0  0  0  0  0  0  0  0  0  0
    8.6847  -15.5815   25.3971 C   0  0  0  0  0  0  0  0  0  0  0  0
    7.9524  -16.5885   25.7135 O   0  0  0  0  0  0  0  0  0  0  0  0
   10.0738  -15.7836   25.5202 N   0  0  0  0  0  0  0  0  0  0  0  0
   10.5886  -17.0870   25.9838 C   0  0  1  0  0  0  0  0  0  0  0  0
   12.0277  -17.2576   25.5691 C   0  0  0  0  0  0  0  0  0  0  0  0
   12.2783  -17.0105   24.1395 C   0  0  0  0  0  0  0  0  0  0  0  0
   11.5675  -17.6047   23.2938 O   0  0  0  0  0  0  0  0  0  0  0  0
   10.5659  -17.1485   27.4636 C   0  0  0  0  0  0  0  0  0  0  0  0
   10.2439  -16.0441   28.2144 O   0  0  0  0  0  0  0  0  0  0  0  0
   13.2593  -16.1554   23.6939 O   0  0  0  0  0  0  0  0  0  0  0  0
   10.8437  -18.2202   28.0330 O   0  0  0  0  0  0  0  0  0  0  0  0
  2  1  1  6
  2  4  1  0
  3  2  1  0
  4  6  1  0
  4  5  1  6
  6 13  1  0
  6  7  2  0
  8  9  1  0
  9 10  1  0
 10 12  1  0
 10 11  1  1
 12 14  1  0
 12 13  1  6
 14 15  2  0
 16 14  1  0
 16 17  1  0
 17 21  1  0
 17 18  1  1
 19 18  1  0
 19 20  2  0
 21 22  1  0
 23 19  1  0
 24 21  2  0
M  END
$$$$
