SLY.pdb
     RDKit          3D

 27 27  0  0  1  0  0  0  0  0999 V2000
   17.4332  -24.9433   -3.6287 O   0  0  0  0  0  0  0  0  0  0  0  0
   17.0802  -26.2922   -3.5980 C   0  0  0  0  0  0  0  0  0  0  0  0
   16.3559  -26.6552   -2.3281 C   0  0  2  0  0  0  0  0  0  0  0  0
   15.7394  -25.4977   -1.7062 N   0  0  0  0  0  0  0  0  0  0  0  0
   17.3146  -27.2879   -1.3997 C   0  0  0  0  0  0  0  0  0  0  0  0
   17.9850  -28.3071   -1.7083 O   0  0  0  0  0  0  0  0  0  0  0  0
   20.7971  -24.2779    1.6564 C   0  0  0  0  0  0  0  0  0  0  0  0
   20.2683  -25.4574    0.9168 C   0  0  1  0  0  0  0  0  0  0  0  0
   21.4051  -26.4197    0.5417 C   0  0  0  0  0  0  0  0  0  0  0  0
   19.1075  -26.1604    1.4772 C   0  0  0  0  0  0  0  0  0  0  0  0
   18.5119  -27.3389    0.8241 C   0  0  2  0  0  0  0  0  0  0  0  0
   17.5003  -26.7478   -0.1201 N   0  0  0  0  0  0  0  0  0  0  0  0
   17.7423  -28.2919    1.6120 C   0  0  0  0  0  0  0  0  0  0  0  0
   16.5664  -28.0402    1.9523 O   0  0  0  0  0  0  0  0  0  0  0  0
   13.2441  -31.4283   -1.7710 O   0  0  0  0  0  0  0  0  0  0  0  0
   14.2606  -31.5011   -0.8093 C   0  0  0  0  0  0  0  0  0  0  0  0
   13.9974  -31.8609    0.4990 C   0  0  0  0  0  0  0  0  0  0  0  0
   14.9796  -31.9399    1.4635 C   0  0  0  0  0  0  0  0  0  0  0  0
   16.2798  -31.6498    1.1176 C   0  0  0  0  0  0  0  0  0  0  0  0
   17.3225  -31.7340    2.1488 C   0  0  0  0  0  0  0  0  0  0  0  0
   17.5313  -30.4519    2.9177 C   0  0  2  0  0  0  0  0  0  0  0  0
   18.2768  -29.5634    2.0423 N   0  0  0  0  0  0  0  0  0  0  0  0
   18.2281  -30.6209    4.1932 C   0  0  0  0  0  0  0  0  0  0  0  0
   17.7255  -31.4530    5.1834 O   0  0  0  0  0  0  0  0  0  0  0  0
   16.5894  -31.2880   -0.1686 C   0  0  0  0  0  0  0  0  0  0  0  0
   15.5782  -31.2207   -1.1039 C   0  0  0  0  0  0  0  0  0  0  0  0
   19.3043  -30.0189    4.4349 O   0  0  0  0  0  0  0  0  0  0  0  0
  2  1  1  0
  3  2  1  0
  3  4  1  1
  5  3  1  0
  6  5  2  0
  8  7  1  1
  8  9  1  0
 10  8  1  0
 11 10  1  1
 11 12  1  0
 12  5  1  0
 13 11  1  0
 14 13  2  0
 16 17  2  0
 16 15  1  0
 18 17  1  0
 19 18  2  0
 21 20  1  6
 20 19  1  0
 21 22  1  0
 22 13  1  0
 23 21  1  0
 23 24  1  0
 25 19  1  0
 25 26  2  0
 26 16  1  0
 27 23  2  0
M  END
$$$$
