SLY.pdb
     RDKit          3D

 27 27  0  0  1  0  0  0  0  0999 V2000
   20.8799  -24.8060  -17.3818 O   0  0  0  0  0  0  0  0  0  0  0  0
   20.2653  -23.5557  -17.4436 C   0  0  0  0  0  0  0  0  0  0  0  0
   21.1754  -22.5103  -18.0333 C   0  0  2  0  0  0  0  0  0  0  0  0
   22.3919  -23.0917  -18.5705 N   0  0  0  0  0  0  0  0  0  0  0  0
   21.4980  -21.5181  -16.9879 C   0  0  0  0  0  0  0  0  0  0  0  0
   22.6152  -21.4815  -16.4098 O   0  0  0  0  0  0  0  0  0  0  0  0
   21.0776  -15.7404  -16.3434 C   0  0  0  0  0  0  0  0  0  0  0  0
   21.6128  -17.1239  -16.4746 C   0  0  1  0  0  0  0  0  0  0  0  0
   22.7860  -17.3481  -15.5090 C   0  0  0  0  0  0  0  0  0  0  0  0
   20.6575  -18.2387  -16.4564 C   0  0  0  0  0  0  0  0  0  0  0  0
   20.8868  -19.4573  -15.6611 C   0  0  2  0  0  0  0  0  0  0  0  0
   20.5366  -20.5713  -16.6100 N   0  0  0  0  0  0  0  0  0  0  0  0
   20.0641  -19.7226  -14.4888 C   0  0  0  0  0  0  0  0  0  0  0  0
   20.2560  -19.1064  -13.4186 O   0  0  0  0  0  0  0  0  0  0  0  0
   12.7847  -21.5818   -9.8394 O   0  0  0  0  0  0  0  0  0  0  0  0
   13.7612  -21.3408  -10.8151 C   0  0  0  0  0  0  0  0  0  0  0  0
   14.4078  -20.1228  -10.9092 C   0  0  0  0  0  0  0  0  0  0  0  0
   15.3717  -19.8609  -11.8597 C   0  0  0  0  0  0  0  0  0  0  0  0
   15.7105  -20.8483  -12.7567 C   0  0  0  0  0  0  0  0  0  0  0  0
   16.7369  -20.5642  -13.7684 C   0  0  0  0  0  0  0  0  0  0  0  0
   18.1423  -20.8943  -13.3275 C   0  0  2  0  0  0  0  0  0  0  0  0
   18.9953  -20.6947  -14.4869 N   0  0  0  0  0  0  0  0  0  0  0  0
   18.3048  -22.2480  -12.7964 C   0  0  0  0  0  0  0  0  0  0  0  0
   19.0810  -23.1913  -13.4546 O   0  0  0  0  0  0  0  0  0  0  0  0
   15.0958  -22.0731  -12.7024 C   0  0  0  0  0  0  0  0  0  0  0  0
   14.1367  -22.2953  -11.7365 C   0  0  0  0  0  0  0  0  0  0  0  0
   17.7477  -22.6019  -11.7271 O   0  0  0  0  0  0  0  0  0  0  0  0
  2  1  1  0
  3  2  1  0
  3  4  1  1
  5  3  1  0
  6  5  2  0
  8  7  1  1
  8  9  1  0
 10  8  1  0
 11 10  1  6
 11 12  1  0
 12  5  1  0
 13 11  1  0
 14 13  2  0
 16 17  2  0
 16 15  1  0
 18 17  1  0
 19 18  2  0
 21 20  1  6
 20 19  1  0
 21 22  1  0
 22 13  1  0
 23 21  1  0
 23 24  1  0
 25 19  1  0
 25 26  2  0
 26 16  1  0
 27 23  2  0
M  END
$$$$
