SLY.pdb
     RDKit          3D

 27 27  0  0  1  0  0  0  0  0999 V2000
   28.6318  -31.5662  -23.3651 O   0  0  0  0  0  0  0  0  0  0  0  0
   29.6942  -32.0732  -24.1129 C   0  0  0  0  0  0  0  0  0  0  0  0
   30.4708  -30.9802  -24.7994 C   0  0  2  0  0  0  0  0  0  0  0  0
   31.5594  -31.5098  -25.6001 N   0  0  0  0  0  0  0  0  0  0  0  0
   30.9907  -30.0524  -23.7746 C   0  0  0  0  0  0  0  0  0  0  0  0
   31.9865  -30.3258  -23.0555 O   0  0  0  0  0  0  0  0  0  0  0  0
   31.0331  -24.5684  -24.6157 C   0  0  0  0  0  0  0  0  0  0  0  0
   31.4048  -25.9234  -24.1217 C   0  0  1  0  0  0  0  0  0  0  0  0
   32.8988  -25.9843  -23.7705 C   0  0  0  0  0  0  0  0  0  0  0  0
   30.5649  -26.5346  -23.0842 C   0  0  0  0  0  0  0  0  0  0  0  0
   30.8555  -27.8640  -22.5200 C   0  0  2  0  0  0  0  0  0  0  0  0
   30.3653  -28.8138  -23.5791 N   0  0  0  0  0  0  0  0  0  0  0  0
   30.1721  -28.3029  -21.3109 C   0  0  0  0  0  0  0  0  0  0  0  0
   29.0969  -28.9364  -21.3768 O   0  0  0  0  0  0  0  0  0  0  0  0
   27.8482  -32.8202  -14.5075 O   0  0  0  0  0  0  0  0  0  0  0  0
   28.3628  -32.1406  -15.6196 C   0  0  0  0  0  0  0  0  0  0  0  0
   27.5884  -31.2649  -16.3571 C   0  0  0  0  0  0  0  0  0  0  0  0
   28.0711  -30.5844  -17.4549 C   0  0  0  0  0  0  0  0  0  0  0  0
   29.3782  -30.7793  -17.8395 C   0  0  0  0  0  0  0  0  0  0  0  0
   29.8876  -30.0532  -19.0104 C   0  0  0  0  0  0  0  0  0  0  0  0
   30.0336  -28.5662  -18.7957 C   0  0  2  0  0  0  0  0  0  0  0  0
   30.6821  -28.0400  -19.9849 N   0  0  0  0  0  0  0  0  0  0  0  0
   30.7869  -28.2019  -17.5954 C   0  0  0  0  0  0  0  0  0  0  0  0
   32.1245  -27.8396  -17.6671 O   0  0  0  0  0  0  0  0  0  0  0  0
   30.1850  -31.6387  -17.1385 C   0  0  0  0  0  0  0  0  0  0  0  0
   29.6643  -32.3004  -16.0462 C   0  0  0  0  0  0  0  0  0  0  0  0
   30.2487  -28.2047  -16.4599 O   0  0  0  0  0  0  0  0  0  0  0  0
  2  1  1  0
  3  2  1  0
  3  4  1  1
  5  3  1  0
  6  5  2  0
  8  7  1  1
  8  9  1  0
 10  8  1  0
 11 10  1  6
 11 12  1  0
 12  5  1  0
 13 11  1  0
 14 13  2  0
 16 17  2  0
 16 15  1  0
 18 17  1  0
 19 18  2  0
 21 20  1  6
 20 19  1  0
 21 22  1  0
 22 13  1  0
 23 21  1  0
 23 24  1  0
 25 19  1  0
 25 26  2  0
 26 16  1  0
 27 23  2  0
M  END
$$$$
