SLY.pdb
     RDKit          3D

 27 27  0  0  1  0  0  0  0  0999 V2000
   26.8735  -20.5992  -19.0815 O   0  0  0  0  0  0  0  0  0  0  0  0
   26.6472  -20.5923  -17.7054 C   0  0  0  0  0  0  0  0  0  0  0  0
   27.8493  -21.0728  -16.9354 C   0  0  2  0  0  0  0  0  0  0  0  0
   28.6075  -22.0634  -17.6773 N   0  0  0  0  0  0  0  0  0  0  0  0
   27.3941  -21.6332  -15.6469 C   0  0  0  0  0  0  0  0  0  0  0  0
   27.2267  -22.8671  -15.4657 O   0  0  0  0  0  0  0  0  0  0  0  0
   29.9903  -19.7969  -11.5464 C   0  0  0  0  0  0  0  0  0  0  0  0
   29.1665  -20.6802  -12.4178 C   0  0  1  0  0  0  0  0  0  0  0  0
   29.6657  -22.1312  -12.3500 C   0  0  0  0  0  0  0  0  0  0  0  0
   27.7052  -20.5897  -12.3085 C   0  0  0  0  0  0  0  0  0  0  0  0
   26.8026  -21.3260  -13.2103 C   0  0  2  0  0  0  0  0  0  0  0  0
   27.1329  -20.7745  -14.5708 N   0  0  0  0  0  0  0  0  0  0  0  0
   25.3616  -21.1457  -13.0984 C   0  0  0  0  0  0  0  0  0  0  0  0
   24.7507  -21.4934  -12.0651 O   0  0  0  0  0  0  0  0  0  0  0  0
   17.2635  -17.8506  -14.6139 O   0  0  0  0  0  0  0  0  0  0  0  0
   18.6285  -18.1349  -14.4738 C   0  0  0  0  0  0  0  0  0  0  0  0
   19.5147  -17.9731  -15.5221 C   0  0  0  0  0  0  0  0  0  0  0  0
   20.8616  -18.2457  -15.4097 C   0  0  0  0  0  0  0  0  0  0  0  0
   21.3530  -18.6985  -14.2064 C   0  0  0  0  0  0  0  0  0  0  0  0
   22.7883  -18.9889  -14.0918 C   0  0  0  0  0  0  0  0  0  0  0  0
   23.1158  -20.4618  -14.0491 C   0  0  2  0  0  0  0  0  0  0  0  0
   24.5616  -20.5654  -14.1523 N   0  0  0  0  0  0  0  0  0  0  0  0
   22.4675  -21.2538  -15.0947 C   0  0  0  0  0  0  0  0  0  0  0  0
   23.0319  -21.3806  -16.3560 O   0  0  0  0  0  0  0  0  0  0  0  0
   20.5117  -18.8745  -13.1376 C   0  0  0  0  0  0  0  0  0  0  0  0
   19.1709  -18.5905  -13.2908 C   0  0  0  0  0  0  0  0  0  0  0  0
   21.3787  -21.8454  -14.8862 O   0  0  0  0  0  0  0  0  0  0  0  0
  2  1  1  0
  3  2  1  0
  3  4  1  6
  5  3  1  0
  6  5  2  0
  8  7  1  1
  8  9  1  0
 10  8  1  0
 11 10  1  1
 11 12  1  0
 12  5  1  0
 13 11  1  0
 14 13  2  0
 16 17  2  0
 16 15  1  0
 18 17  1  0
 19 18  2  0
 21 20  1  6
 20 19  1  0
 21 22  1  0
 22 13  1  0
 23 21  1  0
 23 24  1  0
 25 19  1  0
 25 26  2  0
 26 16  1  0
 27 23  2  0
M  END
$$$$
