SLY.pdb
     RDKit          3D

 27 27  0  0  1  0  0  0  0  0999 V2000
   17.1387  -10.8188  -19.3572 O   0  0  0  0  0  0  0  0  0  0  0  0
   18.3665  -11.4786  -19.4044 C   0  0  0  0  0  0  0  0  0  0  0  0
   18.6249  -12.2759  -18.1528 C   0  0  2  0  0  0  0  0  0  0  0  0
   17.5162  -13.1563  -17.8326 N   0  0  0  0  0  0  0  0  0  0  0  0
   18.8766  -11.3403  -17.0381 C   0  0  0  0  0  0  0  0  0  0  0  0
   18.1272  -11.2701  -16.0296 O   0  0  0  0  0  0  0  0  0  0  0  0
   21.6567   -9.1492  -13.1109 C   0  0  0  0  0  0  0  0  0  0  0  0
   22.3546   -9.2984  -14.4181 C   0  0  1  0  0  0  0  0  0  0  0  0
   23.7718   -9.8558  -14.2186 C   0  0  0  0  0  0  0  0  0  0  0  0
   21.6406   -9.9733  -15.5091 C   0  0  0  0  0  0  0  0  0  0  0  0
   20.2942   -9.5602  -15.9411 C   0  0  2  0  0  0  0  0  0  0  0  0
   19.9883  -10.4885  -17.0852 N   0  0  0  0  0  0  0  0  0  0  0  0
   20.0892   -8.2318  -16.5020 C   0  0  0  0  0  0  0  0  0  0  0  0
   20.6543   -7.8901  -17.5630 O   0  0  0  0  0  0  0  0  0  0  0  0
   15.4097   -7.9375  -21.2574 O   0  0  0  0  0  0  0  0  0  0  0  0
   15.9658   -7.3602  -20.1080 C   0  0  0  0  0  0  0  0  0  0  0  0
   15.7896   -7.9204  -18.8568 C   0  0  0  0  0  0  0  0  0  0  0  0
   16.3262   -7.3719  -17.7111 C   0  0  0  0  0  0  0  0  0  0  0  0
   17.0700   -6.2180  -17.8084 C   0  0  0  0  0  0  0  0  0  0  0  0
   17.6384   -5.6367  -16.5850 C   0  0  0  0  0  0  0  0  0  0  0  0
   19.1152   -5.8955  -16.4104 C   0  0  2  0  0  0  0  0  0  0  0  0
   19.2374   -7.2435  -15.8814 N   0  0  0  0  0  0  0  0  0  0  0  0
   19.7960   -4.9375  -15.5388 C   0  0  0  0  0  0  0  0  0  0  0  0
   20.3811   -5.3386  -14.3462 O   0  0  0  0  0  0  0  0  0  0  0  0
   17.2720   -5.6257  -19.0288 C   0  0  0  0  0  0  0  0  0  0  0  0
   16.7184   -6.2056  -20.1510 C   0  0  0  0  0  0  0  0  0  0  0  0
   19.8739   -3.7201  -15.8404 O   0  0  0  0  0  0  0  0  0  0  0  0
  2  1  1  0
  3  2  1  0
  3  4  1  1
  5  3  1  0
  6  5  2  0
  8  7  1  1
  8  9  1  0
 10  8  1  0
 11 10  1  6
 11 12  1  0
 12  5  1  0
 13 11  1  0
 14 13  2  0
 16 17  2  0
 16 15  1  0
 18 17  1  0
 19 18  2  0
 21 20  1  1
 20 19  1  0
 21 22  1  0
 22 13  1  0
 23 21  1  0
 23 24  1  0
 25 19  1  0
 25 26  2  0
 26 16  1  0
 27 23  2  0
M  END
$$$$
