SLY.pdb
     RDKit          3D

 27 27  0  0  1  0  0  0  0  0999 V2000
   31.5008  -12.5921  -20.0556 O   0  0  0  0  0  0  0  0  0  0  0  0
   31.8930  -11.3883  -19.4707 C   0  0  0  0  0  0  0  0  0  0  0  0
   31.8197  -11.4435  -17.9671 C   0  0  2  0  0  0  0  0  0  0  0  0
   30.5776  -12.0365  -17.5067 N   0  0  0  0  0  0  0  0  0  0  0  0
   31.9636  -10.0735  -17.4347 C   0  0  0  0  0  0  0  0  0  0  0  0
   31.0084   -9.4480  -16.9058 O   0  0  0  0  0  0  0  0  0  0  0  0
   36.6350   -8.1055  -14.6880 C   0  0  0  0  0  0  0  0  0  0  0  0
   35.1852   -8.0977  -15.0286 C   0  0  1  0  0  0  0  0  0  0  0  0
   34.4434   -7.0164  -14.2290 C   0  0  0  0  0  0  0  0  0  0  0  0
   34.8092   -8.0952  -16.4479 C   0  0  0  0  0  0  0  0  0  0  0  0
   33.4038   -8.0713  -16.8885 C   0  0  2  0  0  0  0  0  0  0  0  0
   33.2041   -9.4263  -17.5115 N   0  0  0  0  0  0  0  0  0  0  0  0
   32.9867   -7.1413  -17.9290 C   0  0  0  0  0  0  0  0  0  0  0  0
   33.5944   -7.0855  -19.0196 O   0  0  0  0  0  0  0  0  0  0  0  0
   25.8605   -8.5024  -19.6589 O   0  0  0  0  0  0  0  0  0  0  0  0
   27.1519   -7.9645  -19.7409 C   0  0  0  0  0  0  0  0  0  0  0  0
   27.3682   -6.6492  -20.1062 C   0  0  0  0  0  0  0  0  0  0  0  0
   28.6283   -6.0964  -20.1941 C   0  0  0  0  0  0  0  0  0  0  0  0
   29.7227   -6.8805  -19.9078 C   0  0  0  0  0  0  0  0  0  0  0  0
   31.0632   -6.2876  -20.0041 C   0  0  0  0  0  0  0  0  0  0  0  0
   31.4179   -5.3798  -18.8516 C   0  0  2  0  0  0  0  0  0  0  0  0
   31.8671   -6.2418  -17.7714 N   0  0  0  0  0  0  0  0  0  0  0  0
   30.3223   -4.5205  -18.4020 C   0  0  0  0  0  0  0  0  0  0  0  0
   29.8757   -3.4589  -19.1761 O   0  0  0  0  0  0  0  0  0  0  0  0
   29.5576   -8.1916  -19.5409 C   0  0  0  0  0  0  0  0  0  0  0  0
   28.2806   -8.7068  -19.4646 C   0  0  0  0  0  0  0  0  0  0  0  0
   29.7490   -4.7145  -17.3008 O   0  0  0  0  0  0  0  0  0  0  0  0
  2  1  1  0
  3  2  1  0
  3  4  1  6
  5  3  1  0
  6  5  2  0
  8  7  1  6
  8  9  1  0
 10  8  1  0
 11 10  1  6
 11 12  1  0
 12  5  1  0
 13 11  1  0
 14 13  2  0
 16 17  2  0
 16 15  1  0
 18 17  1  0
 19 18  2  0
 21 20  1  6
 20 19  1  0
 21 22  1  0
 22 13  1  0
 23 21  1  0
 23 24  1  0
 25 19  1  0
 25 26  2  0
 26 16  1  0
 27 23  2  0
M  END
$$$$
