SLY.pdb
     RDKit          3D

 27 27  0  0  1  0  0  0  0  0999 V2000
   26.2045  -32.6363    1.7706 O   0  0  0  0  0  0  0  0  0  0  0  0
   27.5802  -32.4404    1.8900 C   0  0  0  0  0  0  0  0  0  0  0  0
   28.2145  -33.4512    2.8093 C   0  0  2  0  0  0  0  0  0  0  0  0
   27.9477  -34.8129    2.3838 N   0  0  0  0  0  0  0  0  0  0  0  0
   27.7062  -33.2316    4.1785 C   0  0  0  0  0  0  0  0  0  0  0  0
   26.7909  -33.9329    4.6823 O   0  0  0  0  0  0  0  0  0  0  0  0
   30.9859  -31.4024    8.3701 C   0  0  0  0  0  0  0  0  0  0  0  0
   29.8685  -32.1108    7.6863 C   0  0  1  0  0  0  0  0  0  0  0  0
   29.2791  -33.2016    8.5929 C   0  0  0  0  0  0  0  0  0  0  0  0
   28.8269  -31.2996    7.0438 C   0  0  0  0  0  0  0  0  0  0  0  0
   27.6904  -31.9039    6.3275 C   0  0  2  0  0  0  0  0  0  0  0  0
   28.2509  -32.2073    4.9645 N   0  0  0  0  0  0  0  0  0  0  0  0
   26.5031  -31.1073    6.0499 C   0  0  0  0  0  0  0  0  0  0  0  0
   26.3765  -30.5033    4.9632 O   0  0  0  0  0  0  0  0  0  0  0  0
   18.4932  -28.9439    4.0083 O   0  0  0  0  0  0  0  0  0  0  0  0
   19.7531  -29.4378    4.3718 C   0  0  0  0  0  0  0  0  0  0  0  0
   19.8929  -30.4767    5.2727 C   0  0  0  0  0  0  0  0  0  0  0  0
   21.1209  -30.9804    5.6465 C   0  0  0  0  0  0  0  0  0  0  0  0
   22.2607  -30.4315    5.1044 C   0  0  0  0  0  0  0  0  0  0  0  0
   23.5666  -30.9705    5.5067 C   0  0  0  0  0  0  0  0  0  0  0  0
   24.2043  -30.2379    6.6622 C   0  0  2  0  0  0  0  0  0  0  0  0
   25.4174  -30.9666    6.9927 N   0  0  0  0  0  0  0  0  0  0  0  0
   23.3460  -30.1070    7.8400 C   0  0  0  0  0  0  0  0  0  0  0  0
   23.6969  -30.6805    9.0539 O   0  0  0  0  0  0  0  0  0  0  0  0
   22.1718  -29.3988    4.2063 C   0  0  0  0  0  0  0  0  0  0  0  0
   20.9249  -28.9235    3.8583 C   0  0  0  0  0  0  0  0  0  0  0  0
   22.2630  -29.4715    7.7923 O   0  0  0  0  0  0  0  0  0  0  0  0
  2  1  1  0
  3  2  1  0
  3  4  1  6
  5  3  1  0
  6  5  2  0
  8  7  1  1
  8  9  1  0
 10  8  1  0
 11 10  1  1
 11 12  1  0
 12  5  1  0
 13 11  1  0
 14 13  2  0
 16 17  2  0
 16 15  1  0
 18 17  1  0
 19 18  2  0
 21 20  1  6
 20 19  1  0
 21 22  1  0
 22 13  1  0
 23 21  1  0
 23 24  1  0
 25 19  1  0
 25 26  2  0
 26 16  1  0
 27 23  2  0
M  END
$$$$
