VWN.pdb
     RDKit          3D

 30 31  0  0  1  0  0  0  0  0999 V2000
   10.8758  -19.4295   20.6474 C   0  0  0  0  0  0  0  0  0  0  0  0
   10.7135  -18.1299   19.9411 C   0  0  1  0  0  0  0  0  0  0  0  0
   10.7822  -18.3485   18.4609 C   0  0  0  0  0  0  0  0  0  0  0  0
    9.5117  -17.3185   20.3559 C   0  0  2  0  0  0  0  0  0  0  0  0
    9.5662  -16.0649   19.5836 N   0  0  0  0  0  0  0  0  0  0  0  0
    9.5570  -16.9553   21.7868 C   0  0  0  0  0  0  0  0  0  0  0  0
   10.4838  -16.1509   22.1776 O   0  0  0  0  0  0  0  0  0  0  0  0
    8.6444  -17.4352   22.7519 N   0  0  0  0  0  0  0  0  0  0  0  0
    8.7482  -16.9803   24.1253 C   0  0  1  0  0  0  0  0  0  0  0  0
    7.3901  -16.7817   24.7250 C   0  0  0  0  0  0  0  0  0  0  0  0
    6.9836  -15.4046   24.9682 C   0  0  0  0  0  0  0  0  0  0  0  0
    5.7931  -14.8436   24.4815 C   0  0  0  0  0  0  0  0  0  0  0  0
    5.7653  -13.5941   24.9413 N   0  0  0  0  0  0  0  0  0  0  0  0
    6.8572  -13.3022   25.6942 C   0  0  0  0  0  0  0  0  0  0  0  0
    7.2690  -12.1641   26.3606 C   0  0  0  0  0  0  0  0  0  0  0  0
    8.4488  -12.1236   27.0582 C   0  0  0  0  0  0  0  0  0  0  0  0
    9.2300  -13.2555   27.0843 C   0  0  0  0  0  0  0  0  0  0  0  0
    8.8050  -14.3852   26.4137 C   0  0  0  0  0  0  0  0  0  0  0  0
    7.6119  -14.4492   25.7002 C   0  0  0  0  0  0  0  0  0  0  0  0
    9.7062  -17.7911   24.8605 C   0  0  0  0  0  0  0  0  0  0  0  0
   10.2491  -18.7599   24.2163 O   0  0  0  0  0  0  0  0  0  0  0  0
   13.3171  -19.4022   25.1883 N   0  0  0  0  0  0  0  0  0  0  0  0
   13.3057  -17.9660   24.9869 C   0  0  0  0  0  0  0  0  0  0  0  0
   14.1023  -17.4558   24.1803 O   0  0  0  0  0  0  0  0  0  0  0  0
   12.3558  -17.1711   25.7410 C   0  0  0  0  0  0  0  0  0  0  0  0
   11.4510  -18.0448   26.5915 C   0  0  2  0  0  0  0  0  0  0  0  0
   10.0912  -17.6010   26.2059 N   0  0  0  0  0  0  0  0  0  0  0  0
   11.6451  -17.8110   28.0282 C   0  0  0  0  0  0  0  0  0  0  0  0
   12.3875  -18.7142   28.7996 O   0  0  0  0  0  0  0  0  0  0  0  0
   11.1664  -16.8231   28.6065 O   0  0  0  0  0  0  0  0  0  0  0  0
  2  1  1  1
  2  3  1  0
  4  2  1  0
  4  5  1  6
  6  7  2  0
  6  4  1  0
  8  6  1  0
  9  8  1  0
  9 10  1  1
 10 11  1  0
 11 19  1  0
 11 12  2  0
 12 13  1  0
 13 14  1  0
 14 15  2  0
 16 15  1  0
 17 16  2  0
 18 19  2  0
 18 17  1  0
 19 14  1  0
 20 21  2  0
 20  9  1  0
 23 22  1  0
 23 25  1  0
 24 23  2  0
 26 25  1  6
 26 27  1  0
 27 20  1  0
 28 26  1  0
 29 28  1  0
 30 28  2  0
M  END
$$$$
