VWN.pdb
     RDKit          3D

 30 31  0  0  1  0  0  0  0  0999 V2000
    7.3233  -13.3147   19.2659 C   0  0  0  0  0  0  0  0  0  0  0  0
    8.0733  -13.5374   20.5317 C   0  0  1  0  0  0  0  0  0  0  0  0
    7.2246  -13.1341   21.6982 C   0  0  0  0  0  0  0  0  0  0  0  0
    8.6696  -14.9135   20.6920 C   0  0  2  0  0  0  0  0  0  0  0  0
    7.5444  -15.8641   20.6560 N   0  0  0  0  0  0  0  0  0  0  0  0
    9.3409  -15.0764   21.9975 C   0  0  0  0  0  0  0  0  0  0  0  0
   10.3761  -14.3496   22.2401 O   0  0  0  0  0  0  0  0  0  0  0  0
    8.9151  -15.9794   22.9964 N   0  0  0  0  0  0  0  0  0  0  0  0
    9.6360  -16.0504   24.2531 C   0  0  1  0  0  0  0  0  0  0  0  0
    8.6943  -16.2769   25.3955 C   0  0  0  0  0  0  0  0  0  0  0  0
    7.5851  -15.3412   25.5171 C   0  0  0  0  0  0  0  0  0  0  0  0
    6.2453  -15.6818   25.2768 C   0  0  0  0  0  0  0  0  0  0  0  0
    5.5397  -14.5801   25.5256 N   0  0  0  0  0  0  0  0  0  0  0  0
    6.3286  -13.5441   25.9113 C   0  0  0  0  0  0  0  0  0  0  0  0
    6.0644  -12.2335   26.2595 C   0  0  0  0  0  0  0  0  0  0  0  0
    7.0654  -11.3640   26.6090 C   0  0  0  0  0  0  0  0  0  0  0  0
    8.3608  -11.8266   26.6074 C   0  0  0  0  0  0  0  0  0  0  0  0
    8.6091  -13.1390   26.2574 C   0  0  0  0  0  0  0  0  0  0  0  0
    7.6094  -14.0387   25.8999 C   0  0  0  0  0  0  0  0  0  0  0  0
   10.7863  -16.9323   24.1325 C   0  0  0  0  0  0  0  0  0  0  0  0
   11.2747  -17.3885   25.2287 O   0  0  0  0  0  0  0  0  0  0  0  0
   11.0058  -19.1115   19.9031 N   0  0  0  0  0  0  0  0  0  0  0  0
   11.6464  -19.4814   21.1505 C   0  0  0  0  0  0  0  0  0  0  0  0
   11.2121  -20.4508   21.7964 O   0  0  0  0  0  0  0  0  0  0  0  0
   12.7811  -18.6994   21.6017 C   0  0  0  0  0  0  0  0  0  0  0  0
   12.5884  -18.2105   23.0263 C   0  0  2  0  0  0  0  0  0  0  0  0
   11.4007  -17.3310   22.9249 N   0  0  0  0  0  0  0  0  0  0  0  0
   13.7327  -17.4225   23.5018 C   0  0  0  0  0  0  0  0  0  0  0  0
   14.0433  -16.1931   22.9066 O   0  0  0  0  0  0  0  0  0  0  0  0
   14.4583  -17.8077   24.4315 O   0  0  0  0  0  0  0  0  0  0  0  0
  2  1  1  6
  2  3  1  0
  4  2  1  0
  4  5  1  1
  6  7  2  0
  6  4  1  0
  8  6  1  0
  9  8  1  0
  9 10  1  1
 10 11  1  0
 11 19  1  0
 11 12  2  0
 12 13  1  0
 13 14  1  0
 14 15  2  0
 16 15  1  0
 17 16  2  0
 18 19  2  0
 18 17  1  0
 19 14  1  0
 20 21  2  0
 20  9  1  0
 23 22  1  0
 23 25  1  0
 24 23  2  0
 26 25  1  6
 26 27  1  0
 27 20  1  0
 28 26  1  0
 29 28  1  0
 30 28  2  0
M  END
$$$$
