VWN.pdb
     RDKit          3D

 30 31  0  0  1  0  0  0  0  0999 V2000
    7.2668  -14.6357   19.3665 C   0  0  0  0  0  0  0  0  0  0  0  0
    7.9862  -14.4443   20.6549 C   0  0  1  0  0  0  0  0  0  0  0  0
    7.0322  -13.9434   21.6954 C   0  0  0  0  0  0  0  0  0  0  0  0
    8.7915  -15.6301   21.1241 C   0  0  2  0  0  0  0  0  0  0  0  0
    7.8323  -16.7268   21.3441 N   0  0  0  0  0  0  0  0  0  0  0  0
    9.4622  -15.3677   22.4135 C   0  0  0  0  0  0  0  0  0  0  0  0
   10.4445  -14.5347   22.4257 O   0  0  0  0  0  0  0  0  0  0  0  0
    9.0905  -15.9734   23.6339 N   0  0  0  0  0  0  0  0  0  0  0  0
    9.7902  -15.6170   24.8534 C   0  0  1  0  0  0  0  0  0  0  0  0
    8.8804  -15.7186   26.0389 C   0  0  0  0  0  0  0  0  0  0  0  0
    7.6802  -14.8944   26.0078 C   0  0  0  0  0  0  0  0  0  0  0  0
    6.3956  -15.3942   25.7452 C   0  0  0  0  0  0  0  0  0  0  0  0
    5.5731  -14.3513   25.8408 N   0  0  0  0  0  0  0  0  0  0  0  0
    6.2342  -13.2053   26.1472 C   0  0  0  0  0  0  0  0  0  0  0  0
    5.8243  -11.8998   26.3388 C   0  0  0  0  0  0  0  0  0  0  0  0
    6.7145  -10.9005   26.6370 C   0  0  0  0  0  0  0  0  0  0  0  0
    8.0469  -11.2249   26.7444 C   0  0  0  0  0  0  0  0  0  0  0  0
    8.4413  -12.5338   26.5505 C   0  0  0  0  0  0  0  0  0  0  0  0
    7.5558  -13.5638   26.2477 C   0  0  0  0  0  0  0  0  0  0  0  0
   11.0759  -16.2940   24.9207 C   0  0  0  0  0  0  0  0  0  0  0  0
   11.7483  -16.1384   26.0032 O   0  0  0  0  0  0  0  0  0  0  0  0
   13.6014  -20.5791   25.0778 N   0  0  0  0  0  0  0  0  0  0  0  0
   12.1895  -20.4253   25.3709 C   0  0  0  0  0  0  0  0  0  0  0  0
   11.5705  -21.3624   25.9040 O   0  0  0  0  0  0  0  0  0  0  0  0
   11.5463  -19.1715   25.0284 C   0  0  0  0  0  0  0  0  0  0  0  0
   12.5115  -18.2203   24.3435 C   0  0  2  0  0  0  0  0  0  0  0  0
   11.6381  -17.1049   23.9103 N   0  0  0  0  0  0  0  0  0  0  0  0
   13.1423  -18.8250   23.1632 C   0  0  0  0  0  0  0  0  0  0  0  0
   14.4733  -19.2585   23.2145 O   0  0  0  0  0  0  0  0  0  0  0  0
   12.5335  -18.9718   22.0922 O   0  0  0  0  0  0  0  0  0  0  0  0
  2  1  1  6
  2  3  1  0
  4  2  1  0
  4  5  1  1
  6  7  2  0
  6  4  1  0
  8  6  1  0
  9  8  1  0
  9 10  1  1
 10 11  1  0
 11 19  1  0
 11 12  2  0
 12 13  1  0
 13 14  1  0
 14 15  2  0
 16 15  1  0
 17 16  2  0
 18 19  2  0
 18 17  1  0
 19 14  1  0
 20 21  2  0
 20  9  1  0
 23 22  1  0
 23 25  1  0
 24 23  2  0
 26 25  1  6
 26 27  1  0
 27 20  1  0
 28 26  1  0
 29 28  1  0
 30 28  2  0
M  END
$$$$
