VWN.pdb
     RDKit          3D

 30 31  0  0  1  0  0  0  0  0999 V2000
    9.4281  -14.0470   19.4414 C   0  0  0  0  0  0  0  0  0  0  0  0
    8.0141  -13.9214   19.8877 C   0  0  1  0  0  0  0  0  0  0  0  0
    7.1192  -13.7831   18.6945 C   0  0  0  0  0  0  0  0  0  0  0  0
    7.5461  -14.9862   20.8479 C   0  0  2  0  0  0  0  0  0  0  0  0
    6.1240  -14.7108   21.1175 N   0  0  0  0  0  0  0  0  0  0  0  0
    8.2594  -14.9182   22.1394 C   0  0  0  0  0  0  0  0  0  0  0  0
    8.4635  -13.7567   22.6571 O   0  0  0  0  0  0  0  0  0  0  0  0
    8.7293  -16.0497   22.8417 N   0  0  0  0  0  0  0  0  0  0  0  0
    9.5940  -15.8711   23.9925 C   0  0  1  0  0  0  0  0  0  0  0  0
    8.8554  -16.1575   25.2636 C   0  0  0  0  0  0  0  0  0  0  0  0
    7.7260  -15.2897   25.5671 C   0  0  0  0  0  0  0  0  0  0  0  0
    6.3853  -15.6964   25.4906 C   0  0  0  0  0  0  0  0  0  0  0  0
    5.6638  -14.6447   25.8741 N   0  0  0  0  0  0  0  0  0  0  0  0
    6.4432  -13.5798   26.1949 C   0  0  0  0  0  0  0  0  0  0  0  0
    6.1612  -12.2983   26.6274 C   0  0  0  0  0  0  0  0  0  0  0  0
    7.1542  -11.3865   26.8778 C   0  0  0  0  0  0  0  0  0  0  0  0
    8.4598  -11.7757   26.6880 C   0  0  0  0  0  0  0  0  0  0  0  0
    8.7258  -13.0598   26.2556 C   0  0  0  0  0  0  0  0  0  0  0  0
    7.7346  -14.0014   25.9958 C   0  0  0  0  0  0  0  0  0  0  0  0
   10.8699  -16.5367   23.7805 C   0  0  0  0  0  0  0  0  0  0  0  0
   10.8196  -17.7620   23.4005 O   0  0  0  0  0  0  0  0  0  0  0  0
   14.0208  -14.3476   21.4080 N   0  0  0  0  0  0  0  0  0  0  0  0
   14.1800  -15.7169   21.8584 C   0  0  0  0  0  0  0  0  0  0  0  0
   14.1276  -16.6426   21.0302 O   0  0  0  0  0  0  0  0  0  0  0  0
   14.3973  -15.9574   23.2718 C   0  0  0  0  0  0  0  0  0  0  0  0
   13.3192  -16.8529   23.8557 C   0  0  2  0  0  0  0  0  0  0  0  0
   12.1453  -15.9540   23.9484 N   0  0  0  0  0  0  0  0  0  0  0  0
   13.6653  -17.3338   25.1994 C   0  0  0  0  0  0  0  0  0  0  0  0
   12.8972  -16.9548   26.3078 O   0  0  0  0  0  0  0  0  0  0  0  0
   14.6354  -18.0799   25.4036 O   0  0  0  0  0  0  0  0  0  0  0  0
  2  1  1  6
  2  3  1  0
  4  2  1  0
  4  5  1  1
  6  7  2  0
  6  4  1  0
  8  6  1  0
  9  8  1  0
  9 10  1  1
 10 11  1  0
 11 19  1  0
 11 12  2  0
 12 13  1  0
 13 14  1  0
 14 15  2  0
 16 15  1  0
 17 16  2  0
 18 19  2  0
 18 17  1  0
 19 14  1  0
 20 21  2  0
 20  9  1  0
 23 22  1  0
 23 25  1  0
 24 23  2  0
 26 25  1  1
 26 27  1  0
 27 20  1  0
 28 26  1  0
 29 28  1  0
 30 28  2  0
M  END
$$$$
