VWN.pdb
     RDKit          3D

 30 31  0  0  1  0  0  0  0  0999 V2000
    9.0403  -16.1535   17.9064 C   0  0  0  0  0  0  0  0  0  0  0  0
    8.8015  -14.7371   17.5177 C   0  0  1  0  0  0  0  0  0  0  0  0
    8.4681  -14.6639   16.0592 C   0  0  0  0  0  0  0  0  0  0  0  0
    7.8141  -13.9914   18.3801 C   0  0  2  0  0  0  0  0  0  0  0  0
    7.9027  -12.5739   17.9879 N   0  0  0  0  0  0  0  0  0  0  0  0
    8.1600  -14.0732   19.8136 C   0  0  0  0  0  0  0  0  0  0  0  0
    9.1569  -13.3756   20.2360 O   0  0  0  0  0  0  0  0  0  0  0  0
    7.4625  -14.8683   20.7495 N   0  0  0  0  0  0  0  0  0  0  0  0
    7.8182  -14.8004   22.1540 C   0  0  1  0  0  0  0  0  0  0  0  0
    6.5975  -14.8868   23.0176 C   0  0  0  0  0  0  0  0  0  0  0  0
    6.8103  -14.7782   24.4542 C   0  0  0  0  0  0  0  0  0  0  0  0
    7.0324  -15.8780   25.2967 C   0  0  0  0  0  0  0  0  0  0  0  0
    7.2157  -15.3718   26.5148 N   0  0  0  0  0  0  0  0  0  0  0  0
    7.1275  -14.0167   26.5237 C   0  0  0  0  0  0  0  0  0  0  0  0
    7.2349  -13.0690   27.5234 C   0  0  0  0  0  0  0  0  0  0  0  0
    7.0912  -11.7299   27.2664 C   0  0  0  0  0  0  0  0  0  0  0  0
    6.8337  -11.3380   25.9732 C   0  0  0  0  0  0  0  0  0  0  0  0
    6.7294  -12.2967   24.9850 C   0  0  0  0  0  0  0  0  0  0  0  0
    6.8720  -13.6604   25.2225 C   0  0  0  0  0  0  0  0  0  0  0  0
    8.9239  -15.6997   22.4446 C   0  0  0  0  0  0  0  0  0  0  0  0
    8.8683  -16.8659   21.9106 O   0  0  0  0  0  0  0  0  0  0  0  0
   12.5275  -14.2812   21.0947 N   0  0  0  0  0  0  0  0  0  0  0  0
   12.5149  -15.6214   21.6485 C   0  0  0  0  0  0  0  0  0  0  0  0
   12.6364  -16.5978   20.8885 O   0  0  0  0  0  0  0  0  0  0  0  0
   12.3603  -15.7741   23.0823 C   0  0  0  0  0  0  0  0  0  0  0  0
   11.0554  -16.4681   23.4301 C   0  0  2  0  0  0  0  0  0  0  0  0
   10.0449  -15.4000   23.2496 N   0  0  0  0  0  0  0  0  0  0  0  0
   11.0266  -16.9284   24.8243 C   0  0  0  0  0  0  0  0  0  0  0  0
   11.8865  -17.9481   25.2522 O   0  0  0  0  0  0  0  0  0  0  0  0
   10.2524  -16.4430   25.6635 O   0  0  0  0  0  0  0  0  0  0  0  0
  2  1  1  1
  2  3  1  0
  4  2  1  0
  4  5  1  6
  6  7  2  0
  6  4  1  0
  8  6  1  0
  9  8  1  0
  9 10  1  1
 10 11  1  0
 11 19  1  0
 11 12  2  0
 12 13  1  0
 13 14  1  0
 14 15  2  0
 16 15  1  0
 17 16  2  0
 18 19  2  0
 18 17  1  0
 19 14  1  0
 20 21  2  0
 20  9  1  0
 23 22  1  0
 23 25  1  0
 24 23  2  0
 26 25  1  1
 26 27  1  0
 27 20  1  0
 28 26  1  0
 29 28  1  0
 30 28  2  0
M  END
$$$$
