VWN.pdb
     RDKit          3D

 30 31  0  0  1  0  0  0  0  0999 V2000
    8.3706  -12.4867   20.4547 C   0  0  0  0  0  0  0  0  0  0  0  0
    7.5158  -13.6975   20.5870 C   0  0  1  0  0  0  0  0  0  0  0  0
    6.4808  -13.7048   19.5042 C   0  0  0  0  0  0  0  0  0  0  0  0
    8.2628  -15.0038   20.6890 C   0  0  2  0  0  0  0  0  0  0  0  0
    7.2428  -16.0647   20.7602 N   0  0  0  0  0  0  0  0  0  0  0  0
    9.0684  -15.0851   21.9242 C   0  0  0  0  0  0  0  0  0  0  0  0
   10.0869  -14.3045   22.0345 O   0  0  0  0  0  0  0  0  0  0  0  0
    8.7882  -15.9654   22.9924 N   0  0  0  0  0  0  0  0  0  0  0  0
    9.6893  -16.0250   24.1274 C   0  0  1  0  0  0  0  0  0  0  0  0
    8.9236  -16.1104   25.4118 C   0  0  0  0  0  0  0  0  0  0  0  0
    7.7887  -15.2086   25.5515 C   0  0  0  0  0  0  0  0  0  0  0  0
    6.4602  -15.5781   25.2918 C   0  0  0  0  0  0  0  0  0  0  0  0
    5.7234  -14.5033   25.5663 N   0  0  0  0  0  0  0  0  0  0  0  0
    6.4814  -13.4578   25.9868 C   0  0  0  0  0  0  0  0  0  0  0  0
    6.1795  -12.1651   26.3697 C   0  0  0  0  0  0  0  0  0  0  0  0
    7.1543  -11.2793   26.7508 C   0  0  0  0  0  0  0  0  0  0  0  0
    8.4617  -11.7067   26.7458 C   0  0  0  0  0  0  0  0  0  0  0  0
    8.7478  -13.0015   26.3609 C   0  0  0  0  0  0  0  0  0  0  0  0
    7.7752  -13.9173   25.9709 C   0  0  0  0  0  0  0  0  0  0  0  0
   10.7404  -17.0030   23.8939 C   0  0  0  0  0  0  0  0  0  0  0  0
   10.3594  -18.1873   23.5766 O   0  0  0  0  0  0  0  0  0  0  0  0
   13.8194  -15.3638   23.9786 N   0  0  0  0  0  0  0  0  0  0  0  0
   14.5749  -16.3445   23.2233 C   0  0  0  0  0  0  0  0  0  0  0  0
   15.5563  -15.9770   22.5545 O   0  0  0  0  0  0  0  0  0  0  0  0
   14.1535  -17.7310   23.2774 C   0  0  0  0  0  0  0  0  0  0  0  0
   13.0046  -17.9255   24.2508 C   0  0  2  0  0  0  0  0  0  0  0  0
   12.1293  -16.7617   23.9788 N   0  0  0  0  0  0  0  0  0  0  0  0
   13.4489  -17.8780   25.6497 C   0  0  0  0  0  0  0  0  0  0  0  0
   14.2300  -18.9123   26.1810 O   0  0  0  0  0  0  0  0  0  0  0  0
   13.1542  -16.9381   26.4040 O   0  0  0  0  0  0  0  0  0  0  0  0
  2  1  1  6
  2  3  1  0
  4  2  1  0
  4  5  1  1
  6  7  2  0
  6  4  1  0
  8  6  1  0
  9  8  1  0
  9 10  1  1
 10 11  1  0
 11 19  1  0
 11 12  2  0
 12 13  1  0
 13 14  1  0
 14 15  2  0
 16 15  1  0
 17 16  2  0
 18 19  2  0
 18 17  1  0
 19 14  1  0
 20 21  2  0
 20  9  1  0
 23 22  1  0
 23 25  1  0
 24 23  2  0
 26 25  1  6
 26 27  1  0
 27 20  1  0
 28 26  1  0
 29 28  1  0
 30 28  2  0
M  END
$$$$
