VWN.pdb
     RDKit          3D

 30 31  0  0  1  0  0  0  0  0999 V2000
   11.1643  -19.1693   20.5907 C   0  0  0  0  0  0  0  0  0  0  0  0
   11.3700  -18.0979   19.5787 C   0  0  1  0  0  0  0  0  0  0  0  0
   11.7136  -18.7123   18.2566 C   0  0  0  0  0  0  0  0  0  0  0  0
   10.2570  -17.0848   19.4798 C   0  0  2  0  0  0  0  0  0  0  0  0
   10.7108  -16.0563   18.5273 N   0  0  0  0  0  0  0  0  0  0  0  0
   10.0075  -16.4099   20.7696 C   0  0  0  0  0  0  0  0  0  0  0  0
   10.9237  -15.6318   21.2322 O   0  0  0  0  0  0  0  0  0  0  0  0
    8.8244  -16.5645   21.5251 N   0  0  0  0  0  0  0  0  0  0  0  0
    8.7048  -15.9071   22.8125 C   0  0  1  0  0  0  0  0  0  0  0  0
    7.2748  -15.5769   23.1115 C   0  0  0  0  0  0  0  0  0  0  0  0
    6.9865  -15.1030   24.4580 C   0  0  0  0  0  0  0  0  0  0  0  0
    6.5744  -15.9369   25.5085 C   0  0  0  0  0  0  0  0  0  0  0  0
    6.4497  -15.1464   26.5729 N   0  0  0  0  0  0  0  0  0  0  0  0
    6.7520  -13.8535   26.2875 C   0  0  0  0  0  0  0  0  0  0  0  0
    6.7621  -12.6964   27.0424 C   0  0  0  0  0  0  0  0  0  0  0  0
    7.1045  -11.4844   26.5003 C   0  0  0  0  0  0  0  0  0  0  0  0
    7.4441  -11.4385   25.1682 C   0  0  0  0  0  0  0  0  0  0  0  0
    7.4295  -12.6032   24.4268 C   0  0  0  0  0  0  0  0  0  0  0  0
    7.0860  -13.8437   24.9558 C   0  0  0  0  0  0  0  0  0  0  0  0
    9.4650  -16.6241   23.8243 C   0  0  0  0  0  0  0  0  0  0  0  0
    9.3067  -17.8976   23.8630 O   0  0  0  0  0  0  0  0  0  0  0  0
   14.0236  -16.2478   23.6307 N   0  0  0  0  0  0  0  0  0  0  0  0
   13.1057  -17.0891   24.3743 C   0  0  0  0  0  0  0  0  0  0  0  0
   12.8626  -18.2380   23.9662 O   0  0  0  0  0  0  0  0  0  0  0  0
   12.5004  -16.5537   25.5784 C   0  0  0  0  0  0  0  0  0  0  0  0
   11.0423  -16.9607   25.6961 C   0  0  2  0  0  0  0  0  0  0  0  0
   10.3580  -16.0458   24.7531 N   0  0  0  0  0  0  0  0  0  0  0  0
   10.5133  -16.7430   27.0485 C   0  0  0  0  0  0  0  0  0  0  0  0
    9.4510  -15.8546   27.2599 O   0  0  0  0  0  0  0  0  0  0  0  0
   10.9785  -17.3250   28.0406 O   0  0  0  0  0  0  0  0  0  0  0  0
  2  1  1  1
  2  3  1  0
  4  2  1  0
  4  5  1  6
  6  7  2  0
  6  4  1  0
  8  6  1  0
  9  8  1  0
  9 10  1  1
 10 11  1  0
 11 19  1  0
 11 12  2  0
 12 13  1  0
 13 14  1  0
 14 15  2  0
 16 15  1  0
 17 16  2  0
 18 19  2  0
 18 17  1  0
 19 14  1  0
 20 21  2  0
 20  9  1  0
 23 22  1  0
 23 25  1  0
 24 23  2  0
 26 25  1  1
 26 27  1  0
 27 20  1  0
 28 26  1  0
 29 28  1  0
 30 28  2  0
M  END
$$$$
