VWN.pdb
     RDKit          3D

 30 31  0  0  1  0  0  0  0  0999 V2000
    8.8797  -19.2907   19.5885 C   0  0  0  0  0  0  0  0  0  0  0  0
    9.5236  -18.2821   18.7039 C   0  0  1  0  0  0  0  0  0  0  0  0
    9.5450  -18.7883   17.2943 C   0  0  0  0  0  0  0  0  0  0  0  0
    8.9694  -16.8837   18.8133 C   0  0  2  0  0  0  0  0  0  0  0  0
    9.8358  -16.0243   17.9876 N   0  0  0  0  0  0  0  0  0  0  0  0
    9.0321  -16.3709   20.1970 C   0  0  0  0  0  0  0  0  0  0  0  0
   10.1928  -16.1314   20.7012 O   0  0  0  0  0  0  0  0  0  0  0  0
    7.8964  -16.1254   20.9997 N   0  0  0  0  0  0  0  0  0  0  0  0
    8.0693  -15.7027   22.3764 C   0  0  1  0  0  0  0  0  0  0  0  0
    6.7823  -15.1841   22.9403 C   0  0  0  0  0  0  0  0  0  0  0  0
    6.7788  -14.8648   24.3611 C   0  0  0  0  0  0  0  0  0  0  0  0
    6.5640  -15.8115   25.3743 C   0  0  0  0  0  0  0  0  0  0  0  0
    6.6722  -15.1459   26.5227 N   0  0  0  0  0  0  0  0  0  0  0  0
    6.9423  -13.8295   26.3270 C   0  0  0  0  0  0  0  0  0  0  0  0
    7.1298  -12.7650   27.1876 C   0  0  0  0  0  0  0  0  0  0  0  0
    7.3863  -11.4999   26.7250 C   0  0  0  0  0  0  0  0  0  0  0  0
    7.4553  -11.3044   25.3652 C   0  0  0  0  0  0  0  0  0  0  0  0
    7.2659  -12.3780   24.5179 C   0  0  0  0  0  0  0  0  0  0  0  0
    7.0051  -13.6699   24.9648 C   0  0  0  0  0  0  0  0  0  0  0  0
    8.7871  -16.7152   23.1348 C   0  0  0  0  0  0  0  0  0  0  0  0
    8.8990  -17.8698   22.5846 O   0  0  0  0  0  0  0  0  0  0  0  0
   11.8749  -19.1206   22.8839 N   0  0  0  0  0  0  0  0  0  0  0  0
   12.4554  -17.8218   23.1654 C   0  0  0  0  0  0  0  0  0  0  0  0
   13.6721  -17.6436   22.9822 O   0  0  0  0  0  0  0  0  0  0  0  0
   11.5864  -16.7690   23.6545 C   0  0  0  0  0  0  0  0  0  0  0  0
   10.6132  -17.2905   24.6967 C   0  0  2  0  0  0  0  0  0  0  0  0
    9.3712  -16.5363   24.4082 N   0  0  0  0  0  0  0  0  0  0  0  0
   11.0526  -16.9900   26.0654 C   0  0  0  0  0  0  0  0  0  0  0  0
   10.4097  -15.9962   26.8144 O   0  0  0  0  0  0  0  0  0  0  0  0
   11.9950  -17.5920   26.6028 O   0  0  0  0  0  0  0  0  0  0  0  0
  2  1  1  1
  2  3  1  0
  4  2  1  0
  4  5  1  6
  6  7  2  0
  6  4  1  0
  8  6  1  0
  9  8  1  0
  9 10  1  1
 10 11  1  0
 11 19  1  0
 11 12  2  0
 12 13  1  0
 13 14  1  0
 14 15  2  0
 16 15  1  0
 17 16  2  0
 18 19  2  0
 18 17  1  0
 19 14  1  0
 20 21  2  0
 20  9  1  0
 23 22  1  0
 23 25  1  0
 24 23  2  0
 26 25  1  6
 26 27  1  0
 27 20  1  0
 28 26  1  0
 29 28  1  0
 30 28  2  0
M  END
$$$$
