VWN.pdb
     RDKit          3D

 30 31  0  0  1  0  0  0  0  0999 V2000
    9.0054  -17.5885   19.5082 C   0  0  0  0  0  0  0  0  0  0  0  0
    8.2084  -16.3594   19.2469 C   0  0  1  0  0  0  0  0  0  0  0  0
    7.3914  -16.5428   18.0049 C   0  0  0  0  0  0  0  0  0  0  0  0
    7.3926  -15.8619   20.4138 C   0  0  2  0  0  0  0  0  0  0  0  0
    6.7953  -14.5827   19.9919 N   0  0  0  0  0  0  0  0  0  0  0  0
    8.2319  -15.5858   21.5974 C   0  0  0  0  0  0  0  0  0  0  0  0
    8.9785  -14.5366   21.5779 O   0  0  0  0  0  0  0  0  0  0  0  0
    8.2636  -16.4017   22.7497 N   0  0  0  0  0  0  0  0  0  0  0  0
    9.1415  -16.0534   23.8506 C   0  0  1  0  0  0  0  0  0  0  0  0
    8.4571  -16.2666   25.1658 C   0  0  0  0  0  0  0  0  0  0  0  0
    7.3796  -15.3434   25.4934 C   0  0  0  0  0  0  0  0  0  0  0  0
    6.0239  -15.7041   25.5248 C   0  0  0  0  0  0  0  0  0  0  0  0
    5.3646  -14.6082   25.8961 N   0  0  0  0  0  0  0  0  0  0  0  0
    6.1983  -13.5574   26.1083 C   0  0  0  0  0  0  0  0  0  0  0  0
    5.9881  -12.2457   26.4879 C   0  0  0  0  0  0  0  0  0  0  0  0
    7.0251  -11.3591   26.6246 C   0  0  0  0  0  0  0  0  0  0  0  0
    8.3018  -11.8053   26.3731 C   0  0  0  0  0  0  0  0  0  0  0  0
    8.4960  -13.1189   25.9948 C   0  0  0  0  0  0  0  0  0  0  0  0
    7.4592  -14.0358   25.8503 C   0  0  0  0  0  0  0  0  0  0  0  0
   10.4563  -16.6461   23.6622 C   0  0  0  0  0  0  0  0  0  0  0  0
   10.5085  -17.7028   22.9350 O   0  0  0  0  0  0  0  0  0  0  0  0
   15.3261  -17.8438   23.1443 N   0  0  0  0  0  0  0  0  0  0  0  0
   15.0444  -16.4676   22.7838 C   0  0  0  0  0  0  0  0  0  0  0  0
   15.8968  -15.8127   22.1594 O   0  0  0  0  0  0  0  0  0  0  0  0
   13.7659  -15.9015   23.1686 C   0  0  0  0  0  0  0  0  0  0  0  0
   12.9013  -16.9200   23.8901 C   0  0  2  0  0  0  0  0  0  0  0  0
   11.6683  -16.1594   24.1995 N   0  0  0  0  0  0  0  0  0  0  0  0
   13.5130  -17.3775   25.1443 C   0  0  0  0  0  0  0  0  0  0  0  0
   13.9486  -16.4508   26.1001 O   0  0  0  0  0  0  0  0  0  0  0  0
   13.6676  -18.5812   25.4023 O   0  0  0  0  0  0  0  0  0  0  0  0
  2  1  1  1
  2  3  1  0
  4  2  1  0
  4  5  1  6
  6  7  2  0
  6  4  1  0
  8  6  1  0
  9  8  1  0
  9 10  1  1
 10 11  1  0
 11 19  1  0
 11 12  2  0
 12 13  1  0
 13 14  1  0
 14 15  2  0
 16 15  1  0
 17 16  2  0
 18 19  2  0
 18 17  1  0
 19 14  1  0
 20 21  2  0
 20  9  1  0
 23 22  1  0
 23 25  1  0
 24 23  2  0
 26 25  1  1
 26 27  1  0
 27 20  1  0
 28 26  1  0
 29 28  1  0
 30 28  2  0
M  END
$$$$
