VWN.pdb
     RDKit          3D

 30 31  0  0  1  0  0  0  0  0999 V2000
    8.7415  -12.2540   19.0350 C   0  0  0  0  0  0  0  0  0  0  0  0
    7.8997  -13.3947   18.5831 C   0  0  1  0  0  0  0  0  0  0  0  0
    7.8121  -13.3954   17.0878 C   0  0  0  0  0  0  0  0  0  0  0  0
    8.2844  -14.7402   19.1457 C   0  0  2  0  0  0  0  0  0  0  0  0
    7.3251  -15.7138   18.5954 N   0  0  0  0  0  0  0  0  0  0  0  0
    8.1572  -14.7812   20.6166 C   0  0  0  0  0  0  0  0  0  0  0  0
    7.2251  -14.0800   21.1629 O   0  0  0  0  0  0  0  0  0  0  0  0
    8.9944  -15.5443   21.4600 N   0  0  0  0  0  0  0  0  0  0  0  0
    8.8866  -15.3988   22.8991 C   0  0  1  0  0  0  0  0  0  0  0  0
    7.4601  -15.5142   23.3410 C   0  0  0  0  0  0  0  0  0  0  0  0
    7.1839  -15.1876   24.7330 C   0  0  0  0  0  0  0  0  0  0  0  0
    6.8713  -16.1424   25.7126 C   0  0  0  0  0  0  0  0  0  0  0  0
    6.7249  -15.4633   26.8487 N   0  0  0  0  0  0  0  0  0  0  0  0
    6.9203  -14.1304   26.6763 C   0  0  0  0  0  0  0  0  0  0  0  0
    6.8705  -13.0490   27.5347 C   0  0  0  0  0  0  0  0  0  0  0  0
    7.1030  -11.7701   27.0982 C   0  0  0  0  0  0  0  0  0  0  0  0
    7.3922  -11.5779   25.7672 C   0  0  0  0  0  0  0  0  0  0  0  0
    7.4386  -12.6685   24.9216 C   0  0  0  0  0  0  0  0  0  0  0  0
    7.2067  -13.9746   25.3425 C   0  0  0  0  0  0  0  0  0  0  0  0
    9.8775  -16.2247   23.5713 C   0  0  0  0  0  0  0  0  0  0  0  0
    9.8857  -17.4714   23.2652 O   0  0  0  0  0  0  0  0  0  0  0  0
   13.5841  -15.0307   22.5878 N   0  0  0  0  0  0  0  0  0  0  0  0
   13.4601  -16.2585   23.3495 C   0  0  0  0  0  0  0  0  0  0  0  0
   13.6371  -17.3503   22.7819 O   0  0  0  0  0  0  0  0  0  0  0  0
   13.1318  -16.1658   24.7590 C   0  0  0  0  0  0  0  0  0  0  0  0
   11.7741  -16.7778   25.0551 C   0  0  2  0  0  0  0  0  0  0  0  0
   10.8257  -15.7753   24.5165 N   0  0  0  0  0  0  0  0  0  0  0  0
   11.5402  -16.9374   26.4960 C   0  0  0  0  0  0  0  0  0  0  0  0
   12.2524  -17.8960   27.2281 O   0  0  0  0  0  0  0  0  0  0  0  0
   10.7160  -16.2437   27.1114 O   0  0  0  0  0  0  0  0  0  0  0  0
  2  1  1  6
  2  3  1  0
  4  2  1  0
  4  5  1  6
  6  7  2  0
  6  4  1  0
  8  6  1  0
  9  8  1  0
  9 10  1  1
 10 11  1  0
 11 19  1  0
 11 12  2  0
 12 13  1  0
 13 14  1  0
 14 15  2  0
 16 15  1  0
 17 16  2  0
 18 19  2  0
 18 17  1  0
 19 14  1  0
 20 21  2  0
 20  9  1  0
 23 22  1  0
 23 25  1  0
 24 23  2  0
 26 25  1  1
 26 27  1  0
 27 20  1  0
 28 26  1  0
 29 28  1  0
 30 28  2  0
M  END
$$$$
