VWN.pdb
     RDKit          3D

 30 31  0  0  1  0  0  0  0  0999 V2000
    8.6131  -12.2974   20.1218 C   0  0  0  0  0  0  0  0  0  0  0  0
    7.7575  -13.4983   19.9207 C   0  0  1  0  0  0  0  0  0  0  0  0
    6.9703  -13.3502   18.6551 C   0  0  0  0  0  0  0  0  0  0  0  0
    8.4757  -14.8215   20.0098 C   0  0  2  0  0  0  0  0  0  0  0  0
    7.4678  -15.8634   19.7455 N   0  0  0  0  0  0  0  0  0  0  0  0
    9.0171  -15.0668   21.3618 C   0  0  0  0  0  0  0  0  0  0  0  0
   10.0965  -14.4518   21.7018 O   0  0  0  0  0  0  0  0  0  0  0  0
    8.4219  -15.9333   22.3049 N   0  0  0  0  0  0  0  0  0  0  0  0
    9.0362  -16.1060   23.6075 C   0  0  1  0  0  0  0  0  0  0  0  0
    7.9948  -16.3030   24.6658 C   0  0  0  0  0  0  0  0  0  0  0  0
    7.2172  -15.1291   25.0370 C   0  0  0  0  0  0  0  0  0  0  0  0
    5.8570  -14.9648   24.7341 C   0  0  0  0  0  0  0  0  0  0  0  0
    5.5046  -13.7958   25.2658 N   0  0  0  0  0  0  0  0  0  0  0  0
    6.5428  -13.1864   25.8944 C   0  0  0  0  0  0  0  0  0  0  0  0
    6.6665  -11.9877   26.5701 C   0  0  0  0  0  0  0  0  0  0  0  0
    7.8582  -11.5883   27.1184 C   0  0  0  0  0  0  0  0  0  0  0  0
    8.9485  -12.4158   26.9822 C   0  0  0  0  0  0  0  0  0  0  0  0
    8.8092  -13.6106   26.3043 C   0  0  0  0  0  0  0  0  0  0  0  0
    7.6102  -14.0363   25.7406 C   0  0  0  0  0  0  0  0  0  0  0  0
   10.1250  -17.0677   23.5349 C   0  0  0  0  0  0  0  0  0  0  0  0
   10.0203  -17.9841   22.6418 O   0  0  0  0  0  0  0  0  0  0  0  0
   14.6744  -19.0387   22.0014 N   0  0  0  0  0  0  0  0  0  0  0  0
   14.5496  -18.3442   23.2684 C   0  0  0  0  0  0  0  0  0  0  0  0
   15.4046  -18.5270   24.1522 O   0  0  0  0  0  0  0  0  0  0  0  0
   13.4213  -17.4533   23.4585 C   0  0  0  0  0  0  0  0  0  0  0  0
   12.2585  -18.1637   24.1283 C   0  0  2  0  0  0  0  0  0  0  0  0
   11.2785  -17.0751   24.3498 N   0  0  0  0  0  0  0  0  0  0  0  0
   12.6350  -18.7443   25.4235 C   0  0  0  0  0  0  0  0  0  0  0  0
   12.3911  -18.0443   26.6120 O   0  0  0  0  0  0  0  0  0  0  0  0
   13.1762  -19.8569   25.5154 O   0  0  0  0  0  0  0  0  0  0  0  0
  2  1  1  6
  2  3  1  0
  4  2  1  0
  4  5  1  1
  6  7  2  0
  6  4  1  0
  8  6  1  0
  9  8  1  0
  9 10  1  1
 10 11  1  0
 11 19  1  0
 11 12  2  0
 12 13  1  0
 13 14  1  0
 14 15  2  0
 16 15  1  0
 17 16  2  0
 18 19  2  0
 18 17  1  0
 19 14  1  0
 20 21  2  0
 20  9  1  0
 23 22  1  0
 23 25  1  0
 24 23  2  0
 26 25  1  1
 26 27  1  0
 27 20  1  0
 28 26  1  0
 29 28  1  0
 30 28  2  0
M  END
$$$$
