DWE.pdb
     RDKit          3D

 32 33  0  0  1  0  0  0  0  0999 V2000
   28.1691  -22.0945  -14.7649 N   0  0  0  0  0  0  0  0  0  0  0  0
   27.6024  -20.8967  -14.1864 C   0  0  1  0  0  0  0  0  0  0  0  0
   26.8375  -20.1517  -15.2398 C   0  0  0  0  0  0  0  0  0  0  0  0
   27.6680  -19.5954  -16.3134 C   0  0  0  0  0  0  0  0  0  0  0  0
   28.9146  -19.7051  -16.2006 O   0  0  0  0  0  0  0  0  0  0  0  0
   26.8265  -21.1792  -12.9666 C   0  0  0  0  0  0  0  0  0  0  0  0
   26.1294  -22.2285  -12.8827 O   0  0  0  0  0  0  0  0  0  0  0  0
   27.0981  -18.9717  -17.4113 O   0  0  0  0  0  0  0  0  0  0  0  0
   26.8648  -20.2635  -11.8802 N   0  0  0  0  0  0  0  0  0  0  0  0
   26.0020  -20.3390  -10.7341 C   0  0  1  0  0  0  0  0  0  0  0  0
   26.5043  -19.4515   -9.6537 C   0  0  0  0  0  0  0  0  0  0  0  0
   27.4861  -20.0938   -8.7524 C   0  0  0  0  0  0  0  0  0  0  0  0
   28.3958  -21.1024   -9.1157 C   0  0  0  0  0  0  0  0  0  0  0  0
   29.1470  -21.4163   -8.0507 N   0  0  0  0  0  0  0  0  0  0  0  0
   28.7962  -20.6761   -6.9832 C   0  0  0  0  0  0  0  0  0  0  0  0
   29.2759  -20.6555   -5.6898 C   0  0  0  0  0  0  0  0  0  0  0  0
   28.7034  -19.7829   -4.7954 C   0  0  0  0  0  0  0  0  0  0  0  0
   27.6794  -18.9531   -5.1807 C   0  0  0  0  0  0  0  0  0  0  0  0
   27.2246  -19.0048   -6.4957 C   0  0  0  0  0  0  0  0  0  0  0  0
   27.7617  -19.8551   -7.4254 C   0  0  0  0  0  0  0  0  0  0  0  0
   24.5741  -20.0957  -11.0562 C   0  0  0  0  0  0  0  0  0  0  0  0
   24.1963  -18.9998  -11.4956 O   0  0  0  0  0  0  0  0  0  0  0  0
   23.6803  -21.1791  -10.8335 N   0  0  0  0  0  0  0  0  0  0  0  0
   22.2795  -21.0203  -11.1337 C   0  0  1  0  0  0  0  0  0  0  0  0
   21.8009  -22.0053  -12.1983 C   0  0  0  0  0  0  0  0  0  0  0  0
   22.1875  -21.5308  -13.5733 C   0  0  0  0  0  0  0  0  0  0  0  0
   21.6741  -22.4560  -14.5886 C   0  0  0  0  0  0  0  0  0  0  0  0
   20.8143  -21.9950  -15.4122 O   0  0  0  0  0  0  0  0  0  0  0  0
   21.4597  -21.2387   -9.8866 C   0  0  0  0  0  0  0  0  0  0  0  0
   20.1212  -20.8739   -9.8465 O   0  0  0  0  0  0  0  0  0  0  0  0
   22.0360  -23.7754  -14.7328 O   0  0  0  0  0  0  0  0  0  0  0  0
   21.9502  -21.7519   -8.8518 O   0  0  0  0  0  0  0  0  0  0  0  0
  2  1  1  6
  2  3  1  0
  4  3  1  0
  4  8  1  0
  5  4  2  0
  6  7  2  0
  6  2  1  0
  9  6  1  0
 10  9  1  0
 10 11  1  1
 11 12  1  0
 12 13  2  0
 12 20  1  0
 13 14  1  0
 14 15  1  0
 15 16  2  0
 16 17  1  0
 18 17  2  0
 19 18  1  0
 20 19  2  0
 20 15  1  0
 21 10  1  0
 22 21  2  0
 23 21  1  0
 24 25  1  6
 24 23  1  0
 26 27  1  0
 26 25  1  0
 27 28  2  0
 29 24  1  0
 30 29  1  0
 31 27  1  0
 32 29  2  0
M  END
$$$$
