DWE.pdb
     RDKit          3D

 32 33  0  0  1  0  0  0  0  0999 V2000
   27.2077  -18.5712  -16.3503 N   0  0  0  0  0  0  0  0  0  0  0  0
   26.4723  -19.7940  -16.1173 C   0  0  1  0  0  0  0  0  0  0  0  0
   27.3631  -20.7843  -15.4275 C   0  0  0  0  0  0  0  0  0  0  0  0
   28.1091  -21.6638  -16.3341 C   0  0  0  0  0  0  0  0  0  0  0  0
   27.8805  -21.5588  -17.5651 O   0  0  0  0  0  0  0  0  0  0  0  0
   25.1933  -19.5533  -15.4274 C   0  0  0  0  0  0  0  0  0  0  0  0
   25.1583  -18.8621  -14.3714 O   0  0  0  0  0  0  0  0  0  0  0  0
   29.0317  -22.5768  -15.8499 O   0  0  0  0  0  0  0  0  0  0  0  0
   23.9941  -20.1036  -15.9558 N   0  0  0  0  0  0  0  0  0  0  0  0
   22.6846  -19.8297  -15.4323 C   0  0  1  0  0  0  0  0  0  0  0  0
   21.9304  -18.9549  -16.3667 C   0  0  0  0  0  0  0  0  0  0  0  0
   22.1602  -17.5085  -16.1577 C   0  0  0  0  0  0  0  0  0  0  0  0
   23.1037  -16.7207  -16.8402 C   0  0  0  0  0  0  0  0  0  0  0  0
   23.0050  -15.4539  -16.4129 N   0  0  0  0  0  0  0  0  0  0  0  0
   22.0459  -15.3386  -15.4763 C   0  0  0  0  0  0  0  0  0  0  0  0
   21.5998  -14.2495  -14.7564 C   0  0  0  0  0  0  0  0  0  0  0  0
   20.5923  -14.4405  -13.8412 C   0  0  0  0  0  0  0  0  0  0  0  0
   20.0444  -15.6849  -13.6489 C   0  0  0  0  0  0  0  0  0  0  0  0
   20.5229  -16.7580  -14.3961 C   0  0  0  0  0  0  0  0  0  0  0  0
   21.5238  -16.6204  -15.3209 C   0  0  0  0  0  0  0  0  0  0  0  0
   21.9319  -21.0537  -15.0616 C   0  0  0  0  0  0  0  0  0  0  0  0
   22.0006  -22.0797  -15.7539 O   0  0  0  0  0  0  0  0  0  0  0  0
   21.1399  -20.9785  -13.8830 N   0  0  0  0  0  0  0  0  0  0  0  0
   20.3618  -22.1206  -13.4735 C   0  0  1  0  0  0  0  0  0  0  0  0
   19.7180  -21.9204  -12.1030 C   0  0  0  0  0  0  0  0  0  0  0  0
   18.9489  -23.1475  -11.6930 C   0  0  0  0  0  0  0  0  0  0  0  0
   17.5096  -22.8671  -11.7040 C   0  0  0  0  0  0  0  0  0  0  0  0
   17.1575  -21.6412  -11.7613 O   0  0  0  0  0  0  0  0  0  0  0  0
   19.2653  -22.3805  -14.4761 C   0  0  0  0  0  0  0  0  0  0  0  0
   18.9772  -23.6732  -14.8909 O   0  0  0  0  0  0  0  0  0  0  0  0
   16.5055  -23.8063  -11.6583 O   0  0  0  0  0  0  0  0  0  0  0  0
   18.5808  -21.4500  -14.9666 O   0  0  0  0  0  0  0  0  0  0  0  0
  2  1  1  1
  2  3  1  0
  4  3  1  0
  4  8  1  0
  5  4  2  0
  6  7  2  0
  6  2  1  0
  9  6  1  0
 10  9  1  0
 10 11  1  6
 11 12  1  0
 12 13  2  0
 12 20  1  0
 13 14  1  0
 14 15  1  0
 15 16  2  0
 16 17  1  0
 18 17  2  0
 19 18  1  0
 20 19  2  0
 20 15  1  0
 21 10  1  0
 22 21  2  0
 23 21  1  0
 24 25  1  1
 24 23  1  0
 26 27  1  0
 26 25  1  0
 27 28  2  0
 29 24  1  0
 30 29  1  0
 31 27  1  0
 32 29  2  0
M  END
$$$$
