DWE.pdb
     RDKit          3D

 32 33  0  0  1  0  0  0  0  0999 V2000
   20.5812  -13.5274  -19.4738 N   0  0  0  0  0  0  0  0  0  0  0  0
   21.0735  -12.1723  -19.5832 C   0  0  1  0  0  0  0  0  0  0  0  0
   20.7255  -11.6263  -20.9363 C   0  0  0  0  0  0  0  0  0  0  0  0
   21.2576  -12.4050  -22.0599 C   0  0  0  0  0  0  0  0  0  0  0  0
   22.5064  -12.4884  -22.1700 O   0  0  0  0  0  0  0  0  0  0  0  0
   20.6320  -11.3258  -18.4615 C   0  0  0  0  0  0  0  0  0  0  0  0
   19.4026  -11.1995  -18.2030 O   0  0  0  0  0  0  0  0  0  0  0  0
   20.4132  -13.0252  -22.9663 O   0  0  0  0  0  0  0  0  0  0  0  0
   21.5976  -10.6489  -17.6679 N   0  0  0  0  0  0  0  0  0  0  0  0
   21.2719   -9.6874  -16.6515 C   0  0  1  0  0  0  0  0  0  0  0  0
   22.4217   -9.5064  -15.7283 C   0  0  0  0  0  0  0  0  0  0  0  0
   22.1745   -8.5358  -14.6394 C   0  0  0  0  0  0  0  0  0  0  0  0
   21.7405   -8.8534  -13.3403 C   0  0  0  0  0  0  0  0  0  0  0  0
   21.6579   -7.7257  -12.6203 N   0  0  0  0  0  0  0  0  0  0  0  0
   22.0116   -6.6590  -13.3601 C   0  0  0  0  0  0  0  0  0  0  0  0
   22.0723   -5.3152  -13.0532 C   0  0  0  0  0  0  0  0  0  0  0  0
   22.4666   -4.4387  -14.0356 C   0  0  0  0  0  0  0  0  0  0  0  0
   22.7915   -4.8902  -15.2911 C   0  0  0  0  0  0  0  0  0  0  0  0
   22.7174   -6.2544  -15.5600 C   0  0  0  0  0  0  0  0  0  0  0  0
   22.3317   -7.1688  -14.6160 C   0  0  0  0  0  0  0  0  0  0  0  0
   20.7692   -8.4023  -17.1974 C   0  0  0  0  0  0  0  0  0  0  0  0
   21.1478   -7.9861  -18.3020 O   0  0  0  0  0  0  0  0  0  0  0  0
   19.8418   -7.6894  -16.3889 N   0  0  0  0  0  0  0  0  0  0  0  0
   19.2197   -6.4950  -16.9027 C   0  0  1  0  0  0  0  0  0  0  0  0
   18.3903   -6.7681  -18.1558 C   0  0  0  0  0  0  0  0  0  0  0  0
   17.6939   -5.5154  -18.6154 C   0  0  0  0  0  0  0  0  0  0  0  0
   18.6233   -4.6711  -19.3727 C   0  0  0  0  0  0  0  0  0  0  0  0
   19.1089   -5.1613  -20.4470 O   0  0  0  0  0  0  0  0  0  0  0  0
   18.3112   -5.8991  -15.8565 C   0  0  0  0  0  0  0  0  0  0  0  0
   17.4825   -6.7101  -15.0937 O   0  0  0  0  0  0  0  0  0  0  0  0
   19.0183   -3.3989  -19.0295 O   0  0  0  0  0  0  0  0  0  0  0  0
   18.2707   -4.6638  -15.6388 O   0  0  0  0  0  0  0  0  0  0  0  0
  2  1  1  1
  2  3  1  0
  4  3  1  0
  4  8  1  0
  5  4  2  0
  6  7  2  0
  6  2  1  0
  9  6  1  0
 10  9  1  0
 10 11  1  6
 11 12  1  0
 12 13  2  0
 12 20  1  0
 13 14  1  0
 14 15  1  0
 15 16  2  0
 16 17  1  0
 18 17  2  0
 19 18  1  0
 20 19  2  0
 20 15  1  0
 21 10  1  0
 22 21  2  0
 23 21  1  0
 24 25  1  6
 24 23  1  0
 26 27  1  0
 26 25  1  0
 27 28  2  0
 29 24  1  0
 30 29  1  0
 31 27  1  0
 32 29  2  0
M  END
$$$$
