DWE.pdb
     RDKit          3D

 32 33  0  0  1  0  0  0  0  0999 V2000
   27.9060  -23.7272  -17.0549 N   0  0  0  0  0  0  0  0  0  0  0  0
   27.4981  -22.3803  -16.7233 C   0  0  1  0  0  0  0  0  0  0  0  0
   26.7264  -21.7994  -17.8709 C   0  0  0  0  0  0  0  0  0  0  0  0
   27.5059  -21.6295  -19.1020 C   0  0  0  0  0  0  0  0  0  0  0  0
   28.4650  -20.8183  -19.0758 O   0  0  0  0  0  0  0  0  0  0  0  0
   26.7954  -22.3122  -15.4305 C   0  0  0  0  0  0  0  0  0  0  0  0
   26.0859  -23.2801  -15.0383 O   0  0  0  0  0  0  0  0  0  0  0  0
   27.1949  -22.3378  -20.2513 O   0  0  0  0  0  0  0  0  0  0  0  0
   26.9189  -21.1492  -14.6227 N   0  0  0  0  0  0  0  0  0  0  0  0
   26.1087  -20.8835  -13.4665 C   0  0  1  0  0  0  0  0  0  0  0  0
   26.7435  -19.8375  -12.6238 C   0  0  0  0  0  0  0  0  0  0  0  0
   27.5494  -20.3715  -11.5040 C   0  0  0  0  0  0  0  0  0  0  0  0
   28.8266  -20.9488  -11.6147 C   0  0  0  0  0  0  0  0  0  0  0  0
   29.2597  -21.2872  -10.3921 N   0  0  0  0  0  0  0  0  0  0  0  0
   28.3455  -20.9718   -9.4567 C   0  0  0  0  0  0  0  0  0  0  0  0
   28.3472  -21.1368   -8.0869 C   0  0  0  0  0  0  0  0  0  0  0  0
   27.2458  -20.7201   -7.3782 C   0  0  0  0  0  0  0  0  0  0  0  0
   26.1711  -20.1540   -8.0185 C   0  0  0  0  0  0  0  0  0  0  0  0
   26.2092  -20.0051   -9.4024 C   0  0  0  0  0  0  0  0  0  0  0  0
   27.2829  -20.4027  -10.1542 C   0  0  0  0  0  0  0  0  0  0  0  0
   24.6962  -20.5716  -13.7976 C   0  0  0  0  0  0  0  0  0  0  0  0
   24.4113  -19.8497  -14.7643 O   0  0  0  0  0  0  0  0  0  0  0  0
   23.7057  -21.1422  -12.9518 N   0  0  0  0  0  0  0  0  0  0  0  0
   22.3110  -20.9029  -13.2258 C   0  0  1  0  0  0  0  0  0  0  0  0
   21.5868  -22.1669  -13.6848 C   0  0  0  0  0  0  0  0  0  0  0  0
   20.1408  -21.8726  -13.9813 C   0  0  0  0  0  0  0  0  0  0  0  0
   19.2970  -22.9815  -13.5247 C   0  0  0  0  0  0  0  0  0  0  0  0
   19.8218  -24.1454  -13.5176 O   0  0  0  0  0  0  0  0  0  0  0  0
   21.6247  -20.3908  -11.9841 C   0  0  0  0  0  0  0  0  0  0  0  0
   20.3653  -19.8126  -12.0589 O   0  0  0  0  0  0  0  0  0  0  0  0
   17.9913  -22.8799  -13.1035 O   0  0  0  0  0  0  0  0  0  0  0  0
   22.1594  -20.4672  -10.8513 O   0  0  0  0  0  0  0  0  0  0  0  0
  2  1  1  6
  2  3  1  0
  4  3  1  0
  4  8  1  0
  5  4  2  0
  6  7  2  0
  6  2  1  0
  9  6  1  0
 10  9  1  0
 10 11  1  6
 11 12  1  0
 12 13  2  0
 12 20  1  0
 13 14  1  0
 14 15  1  0
 15 16  2  0
 16 17  1  0
 18 17  2  0
 19 18  1  0
 20 19  2  0
 20 15  1  0
 21 10  1  0
 22 21  2  0
 23 21  1  0
 24 25  1  1
 24 23  1  0
 26 27  1  0
 26 25  1  0
 27 28  2  0
 29 24  1  0
 30 29  1  0
 31 27  1  0
 32 29  2  0
M  END
$$$$
