DWE.pdb
     RDKit          3D

 32 33  0  0  1  0  0  0  0  0999 V2000
   28.2863  -22.8237  -16.0664 N   0  0  0  0  0  0  0  0  0  0  0  0
   27.3289  -21.7494  -15.9254 C   0  0  1  0  0  0  0  0  0  0  0  0
   26.5500  -21.6093  -17.1997 C   0  0  0  0  0  0  0  0  0  0  0  0
   27.2053  -20.7891  -18.2242 C   0  0  0  0  0  0  0  0  0  0  0  0
   27.9347  -19.8435  -17.8335 O   0  0  0  0  0  0  0  0  0  0  0  0
   26.4920  -21.9019  -14.7229 C   0  0  0  0  0  0  0  0  0  0  0  0
   26.0749  -23.0420  -14.3763 O   0  0  0  0  0  0  0  0  0  0  0  0
   27.0258  -21.0481  -19.5733 O   0  0  0  0  0  0  0  0  0  0  0  0
   26.1541  -20.7573  -13.9508 N   0  0  0  0  0  0  0  0  0  0  0  0
   25.2959  -20.7889  -12.7992 C   0  0  1  0  0  0  0  0  0  0  0  0
   25.8058  -19.8654  -11.7531 C   0  0  0  0  0  0  0  0  0  0  0  0
   26.9727  -20.3845  -11.0065 C   0  0  0  0  0  0  0  0  0  0  0  0
   28.1210  -20.9614  -11.5768 C   0  0  0  0  0  0  0  0  0  0  0  0
   28.9788  -21.2841  -10.5985 N   0  0  0  0  0  0  0  0  0  0  0  0
   28.4750  -20.9584   -9.3942 C   0  0  0  0  0  0  0  0  0  0  0  0
   28.9857  -21.1066   -8.1211 C   0  0  0  0  0  0  0  0  0  0  0  0
   28.2234  -20.6826   -7.0589 C   0  0  0  0  0  0  0  0  0  0  0  0
   26.9845  -20.1259   -7.2609 C   0  0  0  0  0  0  0  0  0  0  0  0
   26.5057  -19.9940   -8.5618 C   0  0  0  0  0  0  0  0  0  0  0  0
   27.2261  -20.3994   -9.6538 C   0  0  0  0  0  0  0  0  0  0  0  0
   23.8674  -20.5521  -13.1239 C   0  0  0  0  0  0  0  0  0  0  0  0
   23.5174  -19.5586  -13.7775 O   0  0  0  0  0  0  0  0  0  0  0  0
   22.9400  -21.5188  -12.6470 N   0  0  0  0  0  0  0  0  0  0  0  0
   21.5388  -21.3730  -12.9521 C   0  0  1  0  0  0  0  0  0  0  0  0
   20.7244  -22.5930  -12.5265 C   0  0  0  0  0  0  0  0  0  0  0  0
   19.3733  -22.1762  -12.0106 C   0  0  0  0  0  0  0  0  0  0  0  0
   18.5922  -23.3579  -11.6315 C   0  0  0  0  0  0  0  0  0  0  0  0
   18.2355  -23.4502  -10.4091 O   0  0  0  0  0  0  0  0  0  0  0  0
   20.9824  -20.1639  -12.2426 C   0  0  0  0  0  0  0  0  0  0  0  0
   19.9145  -19.4579  -12.7785 O   0  0  0  0  0  0  0  0  0  0  0  0
   18.2096  -24.3753  -12.4748 O   0  0  0  0  0  0  0  0  0  0  0  0
   21.4576  -19.7558  -11.1552 O   0  0  0  0  0  0  0  0  0  0  0  0
  2  1  1  6
  2  3  1  0
  4  3  1  0
  4  8  1  0
  5  4  2  0
  6  7  2  0
  6  2  1  0
  9  6  1  0
 10  9  1  0
 10 11  1  1
 11 12  1  0
 12 13  2  0
 12 20  1  0
 13 14  1  0
 14 15  1  0
 15 16  2  0
 16 17  1  0
 18 17  2  0
 19 18  1  0
 20 19  2  0
 20 15  1  0
 21 10  1  0
 22 21  2  0
 23 21  1  0
 24 25  1  1
 24 23  1  0
 26 27  1  0
 26 25  1  0
 27 28  2  0
 29 24  1  0
 30 29  1  0
 31 27  1  0
 32 29  2  0
M  END
$$$$
