DWE.pdb
     RDKit          3D

 32 33  0  0  1  0  0  0  0  0999 V2000
   27.5339  -21.4770  -15.3522 N   0  0  0  0  0  0  0  0  0  0  0  0
   26.6741  -20.5171  -14.6965 C   0  0  1  0  0  0  0  0  0  0  0  0
   25.8131  -19.8413  -15.7222 C   0  0  0  0  0  0  0  0  0  0  0  0
   26.4148  -18.6488  -16.3288 C   0  0  0  0  0  0  0  0  0  0  0  0
   27.6622  -18.6393  -16.4793 O   0  0  0  0  0  0  0  0  0  0  0  0
   25.9221  -21.1133  -13.5790 C   0  0  0  0  0  0  0  0  0  0  0  0
   25.6316  -22.3419  -13.5891 O   0  0  0  0  0  0  0  0  0  0  0  0
   25.6354  -17.5727  -16.7209 O   0  0  0  0  0  0  0  0  0  0  0  0
   25.5231  -20.2983  -12.4850 N   0  0  0  0  0  0  0  0  0  0  0  0
   24.7067  -20.7576  -11.3958 C   0  0  1  0  0  0  0  0  0  0  0  0
   25.1733  -20.1618  -10.1173 C   0  0  0  0  0  0  0  0  0  0  0  0
   26.5105  -20.6263   -9.6875 C   0  0  0  0  0  0  0  0  0  0  0  0
   27.3447  -21.5017  -10.4050 C   0  0  0  0  0  0  0  0  0  0  0  0
   28.4877  -21.6702   -9.7252 N   0  0  0  0  0  0  0  0  0  0  0  0
   28.4749  -20.9573   -8.5842 C   0  0  0  0  0  0  0  0  0  0  0  0
   29.4107  -20.8277   -7.5787 C   0  0  0  0  0  0  0  0  0  0  0  0
   29.1096  -20.0215   -6.5071 C   0  0  0  0  0  0  0  0  0  0  0  0
   27.9069  -19.3622   -6.4398 C   0  0  0  0  0  0  0  0  0  0  0  0
   26.9899  -19.5196   -7.4757 C   0  0  0  0  0  0  0  0  0  0  0  0
   27.2419  -20.3100   -8.5655 C   0  0  0  0  0  0  0  0  0  0  0  0
   23.2544  -20.5560  -11.6241 C   0  0  0  0  0  0  0  0  0  0  0  0
   22.7945  -19.4277  -11.8526 O   0  0  0  0  0  0  0  0  0  0  0  0
   22.4361  -21.7174  -11.5656 N   0  0  0  0  0  0  0  0  0  0  0  0
   21.0319  -21.6160  -11.8751 C   0  0  1  0  0  0  0  0  0  0  0  0
   20.4763  -22.9080  -12.4707 C   0  0  0  0  0  0  0  0  0  0  0  0
   18.9814  -22.8227  -12.6235 C   0  0  0  0  0  0  0  0  0  0  0  0
   18.5076  -23.8685  -13.5357 C   0  0  0  0  0  0  0  0  0  0  0  0
   17.4080  -23.6509  -14.1470 O   0  0  0  0  0  0  0  0  0  0  0  0
   20.2522  -21.3003  -10.6232 C   0  0  0  0  0  0  0  0  0  0  0  0
   19.0527  -20.6055  -10.6927 O   0  0  0  0  0  0  0  0  0  0  0  0
   19.1417  -25.0622  -13.7916 O   0  0  0  0  0  0  0  0  0  0  0  0
   20.6529  -21.6494   -9.4864 O   0  0  0  0  0  0  0  0  0  0  0  0
  2  1  1  6
  2  3  1  0
  4  3  1  0
  4  8  1  0
  5  4  2  0
  6  7  2  0
  6  2  1  0
  9  6  1  0
 10  9  1  0
 10 11  1  1
 11 12  1  0
 12 13  2  0
 12 20  1  0
 13 14  1  0
 14 15  1  0
 15 16  2  0
 16 17  1  0
 18 17  2  0
 19 18  1  0
 20 19  2  0
 20 15  1  0
 21 10  1  0
 22 21  2  0
 23 21  1  0
 24 25  1  1
 24 23  1  0
 26 27  1  0
 26 25  1  0
 27 28  2  0
 29 24  1  0
 30 29  1  0
 31 27  1  0
 32 29  2  0
M  END
$$$$
