GDH.pdb
     RDKit          3D

 23 23  0  0  1  0  0  0  0  0999 V2000
    4.4228  -19.1924   22.1259 N   0  0  0  0  0  0  0  0  0  0  0  0
    5.1039  -18.0220   21.6187 C   0  0  0  0  0  0  0  0  0  0  0  0
    6.4536  -17.8430   22.2946 C   0  0  0  0  0  0  0  0  0  0  0  0
    6.7135  -18.4706   23.3365 O   0  0  0  0  0  0  0  0  0  0  0  0
    7.3360  -16.9495   21.6682 N   0  0  0  0  0  0  0  0  0  0  0  0
    8.6081  -16.5539   22.1702 C   0  0  1  0  0  0  0  0  0  0  0  0
    9.6827  -16.2802   21.1407 C   0  0  0  0  0  0  0  0  0  0  0  0
   11.0002  -16.2290   21.8072 C   0  0  0  0  0  0  0  0  0  0  0  0
   11.3297  -16.9895   22.7773 O   0  0  0  0  0  0  0  0  0  0  0  0
    8.5896  -15.6519   23.3144 C   0  0  0  0  0  0  0  0  0  0  0  0
    7.7989  -14.6405   23.3134 O   0  0  0  0  0  0  0  0  0  0  0  0
   11.9877  -15.3278   21.4102 O   0  0  0  0  0  0  0  0  0  0  0  0
    9.3879  -15.7825   24.4786 N   0  0  0  0  0  0  0  0  0  0  0  0
    8.8772  -15.5754   25.8307 C   0  0  1  0  0  0  0  0  0  0  0  0
    7.3885  -15.5727   25.8667 C   0  0  0  0  0  0  0  0  0  0  0  0
    6.8993  -14.2063   26.1504 C   0  0  0  0  0  0  0  0  0  0  0  0
    7.7240  -13.1098   26.2860 C   0  0  0  0  0  0  0  0  0  0  0  0
    6.9443  -12.0484   26.5393 N   0  0  0  0  0  0  0  0  0  0  0  0
    5.6680  -12.4366   26.5679 C   0  0  0  0  0  0  0  0  0  0  0  0
    5.6472  -13.7485   26.3310 N   0  0  0  0  0  0  0  0  0  0  0  0
    9.4693  -16.4969   26.7923 C   0  0  0  0  0  0  0  0  0  0  0  0
    9.9799  -16.1924   28.0367 O   0  0  0  0  0  0  0  0  0  0  0  0
    9.5339  -17.7331   26.4642 O   0  0  0  0  0  0  0  0  0  0  0  0
  2  1  1  0
  3  2  1  0
  4  3  2  0
  5  3  1  0
  6 10  1  0
  6  5  1  0
  7  8  1  0
  6  7  1  6
  8  9  2  0
  8 12  1  0
 10 13  1  0
 11 10  2  0
 13 14  1  0
 14 15  1  6
 15 16  1  0
 16 17  2  0
 18 17  1  0
 19 18  1  0
 20 19  2  0
 20 16  1  0
 21 14  1  0
 21 22  1  0
 23 21  2  0
M  END
$$$$
