GDH.pdb
     RDKit          3D

 23 23  0  0  1  0  0  0  0  0999 V2000
    8.4783  -21.2673   22.2501 N   0  0  0  0  0  0  0  0  0  0  0  0
    7.9479  -19.9221   22.2476 C   0  0  0  0  0  0  0  0  0  0  0  0
    9.0673  -18.8968   22.1667 C   0  0  0  0  0  0  0  0  0  0  0  0
   10.2016  -19.1824   22.5893 O   0  0  0  0  0  0  0  0  0  0  0  0
    8.7220  -17.6599   21.6007 N   0  0  0  0  0  0  0  0  0  0  0  0
    9.5306  -16.4884   21.6153 C   0  0  1  0  0  0  0  0  0  0  0  0
    9.1027  -15.3633   20.6984 C   0  0  0  0  0  0  0  0  0  0  0  0
    8.8837  -15.8949   19.3374 C   0  0  0  0  0  0  0  0  0  0  0  0
    7.7379  -15.9534   18.7791 O   0  0  0  0  0  0  0  0  0  0  0  0
   10.0360  -16.0787   22.9192 C   0  0  0  0  0  0  0  0  0  0  0  0
   11.2607  -15.7129   23.0396 O   0  0  0  0  0  0  0  0  0  0  0  0
    9.9371  -16.3764   18.5606 O   0  0  0  0  0  0  0  0  0  0  0  0
    9.2821  -16.0397   24.1191 N   0  0  0  0  0  0  0  0  0  0  0  0
    9.8662  -15.7529   25.4262 C   0  0  1  0  0  0  0  0  0  0  0  0
    9.7245  -14.3169   25.7939 C   0  0  0  0  0  0  0  0  0  0  0  0
    8.2914  -13.9576   25.8574 C   0  0  0  0  0  0  0  0  0  0  0  0
    7.2749  -14.7817   25.4233 C   0  0  0  0  0  0  0  0  0  0  0  0
    6.1175  -14.1362   25.6296 N   0  0  0  0  0  0  0  0  0  0  0  0
    6.3692  -12.9441   26.1737 C   0  0  0  0  0  0  0  0  0  0  0  0
    7.6916  -12.8415   26.3096 N   0  0  0  0  0  0  0  0  0  0  0  0
    9.3782  -16.6571   26.4599 C   0  0  0  0  0  0  0  0  0  0  0  0
    9.8103  -16.7437   27.7667 O   0  0  0  0  0  0  0  0  0  0  0  0
    8.4440  -17.4725   26.1396 O   0  0  0  0  0  0  0  0  0  0  0  0
  2  1  1  0
  3  2  1  0
  4  3  2  0
  5  3  1  0
  6 10  1  0
  6  5  1  0
  7  8  1  0
  6  7  1  1
  8  9  2  0
  8 12  1  0
 10 13  1  0
 11 10  2  0
 13 14  1  0
 14 15  1  1
 15 16  1  0
 16 17  2  0
 18 17  1  0
 19 18  1  0
 20 19  2  0
 20 16  1  0
 21 14  1  0
 21 22  1  0
 23 21  2  0
M  END
$$$$
