HVP.pdb
     RDKit          3D

 25 26  0  0  1  0  0  0  0  0999 V2000
   18.7786  -20.9939  -13.6085 N   0  0  0  0  0  0  0  0  0  0  0  0
   19.9215  -20.3638  -14.2060 C   0  0  1  0  0  0  0  0  0  0  0  0
   19.8788  -18.8745  -13.9941 C   0  0  0  0  0  0  0  0  0  0  0  0
   18.7838  -18.3366  -14.8450 C   0  0  0  0  0  0  0  0  0  0  0  0
   18.4322  -18.8720  -16.0798 C   0  0  0  0  0  0  0  0  0  0  0  0
   17.4224  -18.1464  -16.5525 N   0  0  0  0  0  0  0  0  0  0  0  0
   17.1271  -17.1817  -15.6688 C   0  0  0  0  0  0  0  0  0  0  0  0
   17.9631  -17.2976  -14.6189 N   0  0  0  0  0  0  0  0  0  0  0  0
   21.1738  -20.9745  -13.6899 C   0  0  0  0  0  0  0  0  0  0  0  0
   21.4206  -20.9633  -12.4621 O   0  0  0  0  0  0  0  0  0  0  0  0
   23.3011  -23.5812  -16.0096 C   0  0  0  0  0  0  0  0  0  0  0  0
   23.3050  -23.6650  -14.4758 C   0  0  1  0  0  0  0  0  0  0  0  0
   24.5428  -24.4038  -14.0346 C   0  0  0  0  0  0  0  0  0  0  0  0
   23.3174  -22.2202  -14.0059 C   0  0  2  0  0  0  0  0  0  0  0  0
   22.1042  -21.5754  -14.5663 N   0  0  0  0  0  0  0  0  0  0  0  0
   24.5176  -21.4697  -14.4361 C   0  0  0  0  0  0  0  0  0  0  0  0
   24.5004  -21.0429  -15.6518 O   0  0  0  0  0  0  0  0  0  0  0  0
   25.6549  -21.1688  -13.6918 N   0  0  0  0  0  0  0  0  0  0  0  0
   25.8070  -21.5825  -12.2815 C   0  0  0  0  0  0  0  0  0  0  0  0
   27.3052  -21.7602  -12.2034 C   0  0  0  0  0  0  0  0  0  0  0  0
   27.7240  -20.4116  -12.8104 C   0  0  0  0  0  0  0  0  0  0  0  0
   26.8497  -20.4711  -14.0869 C   0  0  1  0  0  0  0  0  0  0  0  0
   27.6563  -21.2329  -15.0862 C   0  0  0  0  0  0  0  0  0  0  0  0
   27.4791  -22.4441  -15.3158 O   0  0  0  0  0  0  0  0  0  0  0  0
   28.6569  -20.5977  -15.8112 O   0  0  0  0  0  0  0  0  0  0  0  0
  2  9  1  0
  2  1  1  1
  3  2  1  0
  4  3  1  0
  5  4  2  0
  6  7  1  0
  6  5  1  0
  7  8  2  0
  8  4  1  0
  9 10  2  0
 12 11  1  6
 12 14  1  0
 12 13  1  0
 14 15  1  6
 15  9  1  0
 16 14  1  0
 16 17  2  0
 18 16  1  0
 19 18  1  0
 20 19  1  0
 21 20  1  0
 22 21  1  0
 22 18  1  0
 22 23  1  6
 24 23  2  0
 25 23  1  0
M  END
$$$$
