HVP.pdb
     RDKit          3D

 25 26  0  0  1  0  0  0  0  0999 V2000
   24.4102  -21.5899  -12.8151 N   0  0  0  0  0  0  0  0  0  0  0  0
   24.3596  -20.6743  -11.7108 C   0  0  1  0  0  0  0  0  0  0  0  0
   22.9392  -20.4615  -11.2614 C   0  0  0  0  0  0  0  0  0  0  0  0
   22.2234  -19.7688  -12.3660 C   0  0  0  0  0  0  0  0  0  0  0  0
   22.6610  -18.5815  -12.9439 C   0  0  0  0  0  0  0  0  0  0  0  0
   21.7846  -18.2556  -13.8901 N   0  0  0  0  0  0  0  0  0  0  0  0
   20.8191  -19.1856  -13.9296 C   0  0  0  0  0  0  0  0  0  0  0  0
   21.0878  -20.1162  -12.9933 N   0  0  0  0  0  0  0  0  0  0  0  0
   25.2380  -21.1474  -10.6099 C   0  0  0  0  0  0  0  0  0  0  0  0
   24.9691  -22.2084  -10.0011 O   0  0  0  0  0  0  0  0  0  0  0  0
   28.4478  -22.1699  -10.7958 C   0  0  0  0  0  0  0  0  0  0  0  0
   28.6248  -21.1252   -9.6837 C   0  0  1  0  0  0  0  0  0  0  0  0
   29.1727  -19.8591  -10.2916 C   0  0  0  0  0  0  0  0  0  0  0  0
   27.2301  -20.9172   -9.1181 C   0  0  2  0  0  0  0  0  0  0  0  0
   26.3853  -20.4163  -10.2303 N   0  0  0  0  0  0  0  0  0  0  0  0
   27.1861  -19.9559   -7.9944 C   0  0  0  0  0  0  0  0  0  0  0  0
   26.8336  -18.7555   -8.3030 O   0  0  0  0  0  0  0  0  0  0  0  0
   27.4752  -20.1892   -6.6528 N   0  0  0  0  0  0  0  0  0  0  0  0
   27.8173  -21.5326   -6.1414 C   0  0  0  0  0  0  0  0  0  0  0  0
   28.7441  -21.1703   -5.0048 C   0  0  0  0  0  0  0  0  0  0  0  0
   27.8527  -20.1281   -4.3107 C   0  0  0  0  0  0  0  0  0  0  0  0
   27.5287  -19.2627   -5.5531 C   0  0  1  0  0  0  0  0  0  0  0  0
   28.6606  -18.2960   -5.6705 C   0  0  0  0  0  0  0  0  0  0  0  0
   29.5632  -18.4121   -6.5207 O   0  0  0  0  0  0  0  0  0  0  0  0
   28.7452  -17.2069   -4.8119 O   0  0  0  0  0  0  0  0  0  0  0  0
  2  9  1  0
  2  1  1  6
  3  2  1  0
  4  3  1  0
  5  4  2  0
  6  7  1  0
  6  5  1  0
  7  8  2  0
  8  4  1  0
  9 10  2  0
 12 11  1  6
 12 14  1  0
 12 13  1  0
 14 15  1  6
 15  9  1  0
 16 14  1  0
 16 17  2  0
 18 16  1  0
 19 18  1  0
 20 19  1  0
 21 20  1  0
 22 21  1  0
 22 18  1  0
 22 23  1  6
 24 23  2  0
 25 23  1  0
M  END
$$$$
