HVP.pdb
     RDKit          3D

 25 26  0  0  1  0  0  0  0  0999 V2000
   24.9987  -20.5897  -12.4642 N   0  0  0  0  0  0  0  0  0  0  0  0
   26.2874  -20.4499  -11.8477 C   0  0  1  0  0  0  0  0  0  0  0  0
   27.1489  -19.4937  -12.6276 C   0  0  0  0  0  0  0  0  0  0  0  0
   27.4389  -20.1284  -13.9412 C   0  0  0  0  0  0  0  0  0  0  0  0
   28.3031  -21.2064  -14.1033 C   0  0  0  0  0  0  0  0  0  0  0  0
   28.3205  -21.5081  -15.3988 N   0  0  0  0  0  0  0  0  0  0  0  0
   27.5062  -20.6674  -16.0536 C   0  0  0  0  0  0  0  0  0  0  0  0
   26.9638  -19.8189  -15.1588 N   0  0  0  0  0  0  0  0  0  0  0  0
   26.1360  -20.0464  -10.4258 C   0  0  0  0  0  0  0  0  0  0  0  0
   25.6607  -18.9245  -10.1365 O   0  0  0  0  0  0  0  0  0  0  0  0
   24.9782  -20.9422   -5.9832 C   0  0  0  0  0  0  0  0  0  0  0  0
   25.1097  -21.3177   -7.4668 C   0  0  1  0  0  0  0  0  0  0  0  0
   23.8316  -20.9471   -8.1752 C   0  0  0  0  0  0  0  0  0  0  0  0
   26.2876  -20.5024   -7.9730 C   0  0  2  0  0  0  0  0  0  0  0  0
   26.5221  -20.9130   -9.3794 N   0  0  0  0  0  0  0  0  0  0  0  0
   27.5254  -20.7033   -7.1881 C   0  0  0  0  0  0  0  0  0  0  0  0
   27.9923  -21.9042   -7.1837 O   0  0  0  0  0  0  0  0  0  0  0  0
   28.2436  -19.7586   -6.4602 N   0  0  0  0  0  0  0  0  0  0  0  0
   27.9011  -18.3214   -6.4786 C   0  0  0  0  0  0  0  0  0  0  0  0
   28.3367  -17.9135   -5.0908 C   0  0  0  0  0  0  0  0  0  0  0  0
   29.7504  -18.5163   -5.1121 C   0  0  0  0  0  0  0  0  0  0  0  0
   29.3680  -19.9414   -5.5811 C   0  0  1  0  0  0  0  0  0  0  0  0
   29.0103  -20.6867   -4.3376 C   0  0  0  0  0  0  0  0  0  0  0  0
   27.8393  -20.9972   -4.0490 O   0  0  0  0  0  0  0  0  0  0  0  0
   29.9990  -21.0678   -3.4390 O   0  0  0  0  0  0  0  0  0  0  0  0
  2  9  1  0
  2  1  1  6
  3  2  1  0
  4  3  1  0
  5  4  2  0
  6  7  1  0
  6  5  1  0
  7  8  2  0
  8  4  1  0
  9 10  2  0
 12 11  1  1
 12 14  1  0
 12 13  1  0
 14 15  1  6
 15  9  1  0
 16 14  1  0
 16 17  2  0
 18 16  1  0
 19 18  1  0
 20 19  1  0
 21 20  1  0
 22 21  1  0
 22 18  1  0
 22 23  1  1
 24 23  2  0
 25 23  1  0
M  END
$$$$
