HVP.pdb
     RDKit          3D

 25 26  0  0  1  0  0  0  0  0999 V2000
   19.9119  -13.5318  -17.9791 N   0  0  0  0  0  0  0  0  0  0  0  0
   20.7928  -12.4162  -18.1783 C   0  0  1  0  0  0  0  0  0  0  0  0
   20.7392  -11.9448  -19.6065 C   0  0  0  0  0  0  0  0  0  0  0  0
   21.2948  -13.0336  -20.4540 C   0  0  0  0  0  0  0  0  0  0  0  0
   22.6443  -13.3689  -20.4928 C   0  0  0  0  0  0  0  0  0  0  0  0
   22.7768  -14.3775  -21.3500 N   0  0  0  0  0  0  0  0  0  0  0  0
   21.5710  -14.6876  -21.8486 C   0  0  0  0  0  0  0  0  0  0  0  0
   20.6593  -13.8623  -21.2986 N   0  0  0  0  0  0  0  0  0  0  0  0
   20.4775  -11.3331  -17.2113 C   0  0  0  0  0  0  0  0  0  0  0  0
   19.3046  -10.9079  -17.1021 O   0  0  0  0  0  0  0  0  0  0  0  0
   23.2463  -10.2128  -14.3608 C   0  0  0  0  0  0  0  0  0  0  0  0
   21.7367  -10.1340  -14.0876 C   0  0  1  0  0  0  0  0  0  0  0  0
   21.4920   -9.1030  -13.0153 C   0  0  0  0  0  0  0  0  0  0  0  0
   21.1211   -9.7203  -15.4136 C   0  0  2  0  0  0  0  0  0  0  0  0
   21.4861  -10.7652  -16.4018 N   0  0  0  0  0  0  0  0  0  0  0  0
   21.5881   -8.4018  -15.8956 C   0  0  0  0  0  0  0  0  0  0  0  0
   22.8407   -8.3288  -16.1889 O   0  0  0  0  0  0  0  0  0  0  0  0
   20.8436   -7.2387  -16.0714 N   0  0  0  0  0  0  0  0  0  0  0  0
   19.3688   -7.2250  -15.9824 C   0  0  0  0  0  0  0  0  0  0  0  0
   19.1343   -5.8272  -15.4596 C   0  0  0  0  0  0  0  0  0  0  0  0
   19.9956   -5.0594  -16.4751 C   0  0  0  0  0  0  0  0  0  0  0  0
   21.2905   -5.8962  -16.3328 C   0  0  1  0  0  0  0  0  0  0  0  0
   22.0246   -5.2995  -15.1775 C   0  0  0  0  0  0  0  0  0  0  0  0
   21.9207   -5.7325  -14.0144 O   0  0  0  0  0  0  0  0  0  0  0  0
   22.8696   -4.2133  -15.3684 O   0  0  0  0  0  0  0  0  0  0  0  0
  2  9  1  0
  2  1  1  6
  3  2  1  0
  4  3  1  0
  5  4  2  0
  6  7  1  0
  6  5  1  0
  7  8  2  0
  8  4  1  0
  9 10  2  0
 12 11  1  6
 12 14  1  0
 12 13  1  0
 14 15  1  6
 15  9  1  0
 16 14  1  0
 16 17  2  0
 18 16  1  0
 19 18  1  0
 20 19  1  0
 21 20  1  0
 22 21  1  0
 22 18  1  0
 22 23  1  1
 24 23  2  0
 25 23  1  0
M  END
$$$$
