HVP.pdb
     RDKit          3D

 25 26  0  0  1  0  0  0  0  0999 V2000
   22.0216  -13.3487  -17.9387 N   0  0  0  0  0  0  0  0  0  0  0  0
   22.1442  -11.9900  -18.3849 C   0  0  1  0  0  0  0  0  0  0  0  0
   20.8764  -11.5342  -19.0555 C   0  0  0  0  0  0  0  0  0  0  0  0
   20.7624  -12.2760  -20.3397 C   0  0  0  0  0  0  0  0  0  0  0  0
   19.8170  -13.2686  -20.5762 C   0  0  0  0  0  0  0  0  0  0  0  0
   20.0067  -13.7079  -21.8174 N   0  0  0  0  0  0  0  0  0  0  0  0
   21.0279  -13.0345  -22.3673 C   0  0  0  0  0  0  0  0  0  0  0  0
   21.4932  -12.1542  -21.4600 N   0  0  0  0  0  0  0  0  0  0  0  0
   22.5351  -11.1103  -17.2531 C   0  0  0  0  0  0  0  0  0  0  0  0
   21.9251  -11.1798  -16.1615 O   0  0  0  0  0  0  0  0  0  0  0  0
   25.6653  -10.8237  -15.6730 C   0  0  0  0  0  0  0  0  0  0  0  0
   25.4002   -9.3510  -16.0203 C   0  0  1  0  0  0  0  0  0  0  0  0
   26.1795   -8.9984  -17.2616 C   0  0  0  0  0  0  0  0  0  0  0  0
   23.9016   -9.2696  -16.2575 C   0  0  2  0  0  0  0  0  0  0  0  0
   23.5942  -10.1851  -17.3840 N   0  0  0  0  0  0  0  0  0  0  0  0
   23.4292   -7.9069  -16.5871 C   0  0  0  0  0  0  0  0  0  0  0  0
   23.7162   -7.4904  -17.7721 O   0  0  0  0  0  0  0  0  0  0  0  0
   22.7154   -7.0265  -15.7788 N   0  0  0  0  0  0  0  0  0  0  0  0
   22.2419   -7.4010  -14.4301 C   0  0  0  0  0  0  0  0  0  0  0  0
   22.2884   -6.0599  -13.7363 C   0  0  0  0  0  0  0  0  0  0  0  0
   21.5153   -5.2390  -14.7808 C   0  0  0  0  0  0  0  0  0  0  0  0
   22.3262   -5.6641  -16.0294 C   0  0  1  0  0  0  0  0  0  0  0  0
   23.4927   -4.7334  -16.0819 C   0  0  0  0  0  0  0  0  0  0  0  0
   24.6196   -5.0371  -15.6474 O   0  0  0  0  0  0  0  0  0  0  0  0
   23.3543   -3.4651  -16.6319 O   0  0  0  0  0  0  0  0  0  0  0  0
  2  9  1  0
  2  1  1  1
  3  2  1  0
  4  3  1  0
  5  4  2  0
  6  7  1  0
  6  5  1  0
  7  8  2  0
  8  4  1  0
  9 10  2  0
 12 11  1  6
 12 14  1  0
 12 13  1  0
 14 15  1  6
 15  9  1  0
 16 14  1  0
 16 17  2  0
 18 16  1  0
 19 18  1  0
 20 19  1  0
 21 20  1  0
 22 21  1  0
 22 18  1  0
 22 23  1  1
 24 23  2  0
 25 23  1  0
M  END
$$$$
