HVP.pdb
     RDKit          3D

 25 26  0  0  1  0  0  0  0  0999 V2000
   18.8534  -12.1468  -18.5391 N   0  0  0  0  0  0  0  0  0  0  0  0
   18.9374  -11.4076  -17.3116 C   0  0  1  0  0  0  0  0  0  0  0  0
   19.5357  -12.2545  -16.2209 C   0  0  0  0  0  0  0  0  0  0  0  0
   18.5127  -13.2605  -15.8288 C   0  0  0  0  0  0  0  0  0  0  0  0
   18.2867  -14.4432  -16.5256 C   0  0  0  0  0  0  0  0  0  0  0  0
   17.3101  -15.0921  -15.8972 N   0  0  0  0  0  0  0  0  0  0  0  0
   16.9156  -14.3683  -14.8392 C   0  0  0  0  0  0  0  0  0  0  0  0
   17.6540  -13.2424  -14.7962 N   0  0  0  0  0  0  0  0  0  0  0  0
   19.6873  -10.1426  -17.5234 C   0  0  0  0  0  0  0  0  0  0  0  0
   20.6625  -10.1124  -18.3085 O   0  0  0  0  0  0  0  0  0  0  0  0
   18.5291   -7.6330  -19.1142 C   0  0  0  0  0  0  0  0  0  0  0  0
   18.9770   -6.8118  -17.8957 C   0  0  1  0  0  0  0  0  0  0  0  0
   17.7770   -6.5476  -17.0224 C   0  0  0  0  0  0  0  0  0  0  0  0
   20.0012   -7.6853  -17.1913 C   0  0  2  0  0  0  0  0  0  0  0  0
   19.3186   -8.9576  -16.8490 N   0  0  0  0  0  0  0  0  0  0  0  0
   20.5514   -7.0750  -15.9611 C   0  0  0  0  0  0  0  0  0  0  0  0
   19.7668   -7.0800  -14.9390 O   0  0  0  0  0  0  0  0  0  0  0  0
   21.8061   -6.5016  -15.7739 N   0  0  0  0  0  0  0  0  0  0  0  0
   22.8363   -6.4945  -16.8331 C   0  0  0  0  0  0  0  0  0  0  0  0
   23.5624   -5.2107  -16.5069 C   0  0  0  0  0  0  0  0  0  0  0  0
   23.7949   -5.4580  -15.0078 C   0  0  0  0  0  0  0  0  0  0  0  0
   22.3400   -5.8223  -14.6232 C   0  0  1  0  0  0  0  0  0  0  0  0
   21.6605   -4.5194  -14.3583 C   0  0  0  0  0  0  0  0  0  0  0  0
   20.9324   -3.9542  -15.1959 O   0  0  0  0  0  0  0  0  0  0  0  0
   21.8232   -3.8789  -13.1361 O   0  0  0  0  0  0  0  0  0  0  0  0
  2  9  1  0
  2  1  1  6
  3  2  1  0
  4  3  1  0
  5  4  2  0
  6  7  1  0
  6  5  1  0
  7  8  2  0
  8  4  1  0
  9 10  2  0
 12 11  1  6
 12 14  1  0
 12 13  1  0
 14 15  1  1
 15  9  1  0
 16 14  1  0
 16 17  2  0
 18 16  1  0
 19 18  1  0
 20 19  1  0
 21 20  1  0
 22 21  1  0
 22 18  1  0
 22 23  1  6
 24 23  2  0
 25 23  1  0
M  END
$$$$
