VQG.pdb
     RDKit          3D

 21 20  0  0  1  0  0  0  0  0999 V2000
    6.9937  -13.8517   18.7392 C   0  0  0  0  0  0  0  0  0  0  0  0
    7.2616  -13.4057   20.1589 C   0  0  2  0  0  0  0  0  0  0  0  0
    8.0177  -12.0816   20.1027 C   0  0  0  0  0  0  0  0  0  0  0  0
    8.1751  -14.4194   20.8076 C   0  0  2  0  0  0  0  0  0  0  0  0
    7.5876  -15.7400   20.8041 N   0  0  0  0  0  0  0  0  0  0  0  0
    8.6052  -14.0369   22.1557 C   0  0  0  0  0  0  0  0  0  0  0  0
    8.6707  -12.8697   22.5861 O   0  0  0  0  0  0  0  0  0  0  0  0
    6.5516  -12.2593   25.4094 N   0  0  0  0  0  0  0  0  0  0  0  0
    6.5671  -13.2563   26.4136 C   0  0  0  0  0  0  0  0  0  0  0  0
    6.3590  -12.9194   27.5987 O   0  0  0  0  0  0  0  0  0  0  0  0
    6.8212  -14.6621   26.0854 C   0  0  0  0  0  0  0  0  0  0  0  0
    7.1923  -14.8882   24.6593 C   0  0  0  0  0  0  0  0  0  0  0  0
    8.6914  -14.9758   24.4847 C   0  0  2  0  0  0  0  0  0  0  0  0
    8.9851  -15.0745   23.0678 N   0  0  0  0  0  0  0  0  0  0  0  0
    9.1801  -16.2042   25.1782 C   0  0  0  0  0  0  0  0  0  0  0  0
    9.1947  -16.2434   26.4444 O   0  0  0  0  0  0  0  0  0  0  0  0
    9.6352  -17.3458   24.4952 N   0  0  0  0  0  0  0  0  0  0  0  0
   10.9442  -17.3654   23.8762 C   0  0  0  0  0  0  0  0  0  0  0  0
   12.0011  -17.5027   24.8900 C   0  0  0  0  0  0  0  0  0  0  0  0
   12.8944  -18.3783   24.7752 O   0  0  0  0  0  0  0  0  0  0  0  0
   12.0137  -16.6541   25.9898 O   0  0  0  0  0  0  0  0  0  0  0  0
  2  1  1  6
  2  3  1  0
  4  2  1  0
  4  5  1  1
  6  4  1  0
  7  6  2  0
  8  9  1  0
  9 11  1  0
 10  9  2  0
 11 12  1  0
 13 12  1  6
 13 14  1  0
 13 15  1  0
 14  6  1  0
 15 16  2  0
 15 17  1  0
 17 18  1  0
 18 19  1  0
 19 21  1  0
 20 19  2  0
M  END
$$$$
