VQG.pdb
     RDKit          3D

 21 20  0  0  1  0  0  0  0  0999 V2000
   13.2918  -22.6326   23.9837 C   0  0  0  0  0  0  0  0  0  0  0  0
   11.9007  -22.1962   23.5830 C   0  0  2  0  0  0  0  0  0  0  0  0
   11.9678  -20.7297   23.1672 C   0  0  0  0  0  0  0  0  0  0  0  0
   11.0107  -22.2792   24.8012 C   0  0  2  0  0  0  0  0  0  0  0  0
    9.6286  -22.0219   24.4656 N   0  0  0  0  0  0  0  0  0  0  0  0
   11.4537  -21.4228   25.9053 C   0  0  0  0  0  0  0  0  0  0  0  0
   11.4867  -20.1777   25.8817 O   0  0  0  0  0  0  0  0  0  0  0  0
   11.6765  -23.1841   32.0241 N   0  0  0  0  0  0  0  0  0  0  0  0
   12.3079  -21.9185   31.9790 C   0  0  0  0  0  0  0  0  0  0  0  0
   12.6911  -21.3992   33.0489 O   0  0  0  0  0  0  0  0  0  0  0  0
   12.5158  -21.2173   30.7086 C   0  0  0  0  0  0  0  0  0  0  0  0
   12.0545  -21.9847   29.5167 C   0  0  0  0  0  0  0  0  0  0  0  0
   12.3926  -21.2658   28.2306 C   0  0  2  0  0  0  0  0  0  0  0  0
   11.8878  -22.0487   27.1188 N   0  0  0  0  0  0  0  0  0  0  0  0
   13.8776  -21.1549   28.1239 C   0  0  0  0  0  0  0  0  0  0  0  0
   14.5492  -22.1416   27.6990 O   0  0  0  0  0  0  0  0  0  0  0  0
   14.5915  -19.9955   28.4745 N   0  0  0  0  0  0  0  0  0  0  0  0
   16.0099  -19.8890   28.2032 C   0  0  0  0  0  0  0  0  0  0  0  0
   16.7971  -20.5125   29.2782 C   0  0  0  0  0  0  0  0  0  0  0  0
   16.2311  -21.0821   30.2440 O   0  0  0  0  0  0  0  0  0  0  0  0
   18.1847  -20.4719   29.2267 O   0  0  0  0  0  0  0  0  0  0  0  0
  2  1  1  1
  2  3  1  0
  4  2  1  0
  4  5  1  6
  6  4  1  0
  7  6  2  0
  8  9  1  0
  9 11  1  0
 10  9  2  0
 11 12  1  0
 13 12  1  1
 13 14  1  0
 13 15  1  0
 14  6  1  0
 15 16  2  0
 15 17  1  0
 17 18  1  0
 18 19  1  0
 19 21  1  0
 20 19  2  0
M  END
$$$$
