VQG.pdb
     RDKit          3D

 21 20  0  0  1  0  0  0  0  0999 V2000
    7.3431  -12.5464   18.7547 C   0  0  0  0  0  0  0  0  0  0  0  0
    8.3668  -13.4485   19.4062 C   0  0  2  0  0  0  0  0  0  0  0  0
    9.3854  -12.5664   20.1219 C   0  0  0  0  0  0  0  0  0  0  0  0
    9.1019  -14.1928   18.3160 C   0  0  2  0  0  0  0  0  0  0  0  0
    8.1898  -14.9281   17.4694 N   0  0  0  0  0  0  0  0  0  0  0  0
   10.1688  -15.0616   18.8217 C   0  0  0  0  0  0  0  0  0  0  0  0
   10.0293  -16.2545   19.1525 O   0  0  0  0  0  0  0  0  0  0  0  0
   15.9652  -14.2373   16.9403 N   0  0  0  0  0  0  0  0  0  0  0  0
   14.8903  -14.9703   16.3839 C   0  0  0  0  0  0  0  0  0  0  0  0
   14.9401  -15.2876   15.1764 O   0  0  0  0  0  0  0  0  0  0  0  0
   13.7330  -15.3575   17.1960 C   0  0  0  0  0  0  0  0  0  0  0  0
   13.8305  -14.9321   18.6215 C   0  0  0  0  0  0  0  0  0  0  0  0
   12.5986  -15.3286   19.4030 C   0  0  2  0  0  0  0  0  0  0  0  0
   11.4860  -14.5137   18.9537 N   0  0  0  0  0  0  0  0  0  0  0  0
   12.8498  -15.0680   20.8513 C   0  0  0  0  0  0  0  0  0  0  0  0
   12.7849  -13.8826   21.2937 O   0  0  0  0  0  0  0  0  0  0  0  0
   13.1610  -16.0816   21.7746 N   0  0  0  0  0  0  0  0  0  0  0  0
   13.3446  -15.7742   23.1777 C   0  0  0  0  0  0  0  0  0  0  0  0
   13.5605  -17.0018   23.9590 C   0  0  0  0  0  0  0  0  0  0  0  0
   13.4758  -18.1326   23.4189 O   0  0  0  0  0  0  0  0  0  0  0  0
   13.8620  -16.9117   25.3121 O   0  0  0  0  0  0  0  0  0  0  0  0
  2  1  1  6
  2  3  1  0
  4  2  1  0
  4  5  1  1
  6  4  1  0
  7  6  2  0
  8  9  1  0
  9 11  1  0
 10  9  2  0
 11 12  1  0
 13 12  1  6
 13 14  1  0
 13 15  1  0
 14  6  1  0
 15 16  2  0
 15 17  1  0
 17 18  1  0
 18 19  1  0
 19 21  1  0
 20 19  2  0
M  END
$$$$
