VQG.pdb
     RDKit          3D

 21 20  0  0  1  0  0  0  0  0999 V2000
    1.4153  -20.9251   19.7880 C   0  0  0  0  0  0  0  0  0  0  0  0
    1.7086  -20.8861   21.2707 C   0  0  2  0  0  0  0  0  0  0  0  0
    1.1044  -19.6048   21.8376 C   0  0  0  0  0  0  0  0  0  0  0  0
    3.2059  -20.7978   21.4536 C   0  0  2  0  0  0  0  0  0  0  0  0
    3.8948  -21.7968   20.6683 N   0  0  0  0  0  0  0  0  0  0  0  0
    3.6250  -20.8489   22.8573 C   0  0  0  0  0  0  0  0  0  0  0  0
    3.2894  -20.0350   23.7386 O   0  0  0  0  0  0  0  0  0  0  0  0
    4.2979  -25.9846   26.1853 N   0  0  0  0  0  0  0  0  0  0  0  0
    3.2992  -24.9929   26.3328 C   0  0  0  0  0  0  0  0  0  0  0  0
    2.2331  -25.2944   26.9105 O   0  0  0  0  0  0  0  0  0  0  0  0
    3.4969  -23.6329   25.8227 C   0  0  0  0  0  0  0  0  0  0  0  0
    4.7870  -23.4443   25.0999 C   0  0  0  0  0  0  0  0  0  0  0  0
    4.9593  -22.0151   24.6385 C   0  0  2  0  0  0  0  0  0  0  0  0
    4.4909  -21.9133   23.2696 N   0  0  0  0  0  0  0  0  0  0  0  0
    6.4107  -21.6697   24.6920 C   0  0  0  0  0  0  0  0  0  0  0  0
    7.1133  -22.0705   25.6671 O   0  0  0  0  0  0  0  0  0  0  0  0
    7.0593  -20.9093   23.7031 N   0  0  0  0  0  0  0  0  0  0  0  0
    8.4856  -20.6682   23.7712 C   0  0  0  0  0  0  0  0  0  0  0  0
    8.7680  -19.3727   24.4083 C   0  0  0  0  0  0  0  0  0  0  0  0
    7.8339  -18.6325   24.8050 O   0  0  0  0  0  0  0  0  0  0  0  0
   10.0841  -18.9603   24.5744 O   0  0  0  0  0  0  0  0  0  0  0  0
  2  1  1  6
  2  3  1  0
  4  2  1  0
  4  5  1  6
  6  4  1  0
  7  6  2  0
  8  9  1  0
  9 11  1  0
 10  9  2  0
 11 12  1  0
 13 12  1  6
 13 14  1  0
 13 15  1  0
 14  6  1  0
 15 16  2  0
 15 17  1  0
 17 18  1  0
 18 19  1  0
 19 21  1  0
 20 19  2  0
M  END
$$$$
