VQG.pdb
     RDKit          3D

 21 20  0  0  1  0  0  0  0  0999 V2000
    6.3314  -14.0970   20.6174 C   0  0  0  0  0  0  0  0  0  0  0  0
    7.3823  -14.7662   19.7609 C   0  0  2  0  0  0  0  0  0  0  0  0
    6.6701  -15.5078   18.6336 C   0  0  0  0  0  0  0  0  0  0  0  0
    8.0903  -15.8006   20.6044 C   0  0  2  0  0  0  0  0  0  0  0  0
    7.1894  -16.8520   21.0193 N   0  0  0  0  0  0  0  0  0  0  0  0
    8.7988  -15.2292   21.7534 C   0  0  0  0  0  0  0  0  0  0  0  0
    9.7024  -14.3741   21.6889 O   0  0  0  0  0  0  0  0  0  0  0  0
    5.7814  -13.6432   26.7111 N   0  0  0  0  0  0  0  0  0  0  0  0
    6.7785  -12.7453   26.2616 C   0  0  0  0  0  0  0  0  0  0  0  0
    6.6721  -11.5345   26.5511 O   0  0  0  0  0  0  0  0  0  0  0  0
    7.9208  -13.2117   25.4702 C   0  0  0  0  0  0  0  0  0  0  0  0
    7.8949  -14.6742   25.1827 C   0  0  0  0  0  0  0  0  0  0  0  0
    9.0165  -15.0753   24.2518 C   0  0  2  0  0  0  0  0  0  0  0  0
    8.4378  -15.6769   23.0656 N   0  0  0  0  0  0  0  0  0  0  0  0
    9.8756  -16.0791   24.9470 C   0  0  0  0  0  0  0  0  0  0  0  0
    9.3368  -17.0678   25.5277 O   0  0  0  0  0  0  0  0  0  0  0  0
   11.2779  -15.9913   24.9970 N   0  0  0  0  0  0  0  0  0  0  0  0
   12.0644  -17.0431   25.6070 C   0  0  0  0  0  0  0  0  0  0  0  0
   13.5030  -16.7755   25.4569 C   0  0  0  0  0  0  0  0  0  0  0  0
   13.9094  -15.7923   24.7892 O   0  0  0  0  0  0  0  0  0  0  0  0
   14.4263  -17.6198   26.0608 O   0  0  0  0  0  0  0  0  0  0  0  0
  2  1  1  1
  2  3  1  0
  4  2  1  0
  4  5  1  1
  6  4  1  0
  7  6  2  0
  8  9  1  0
  9 11  1  0
 10  9  2  0
 11 12  1  0
 13 12  1  1
 13 14  1  0
 13 15  1  0
 14  6  1  0
 15 16  2  0
 15 17  1  0
 17 18  1  0
 18 19  1  0
 19 21  1  0
 20 19  2  0
M  END
$$$$
