VQG.pdb
     RDKit          3D

 21 20  0  0  1  0  0  0  0  0999 V2000
    7.2096  -12.4129   20.3013 C   0  0  0  0  0  0  0  0  0  0  0  0
    8.0808  -13.2893   19.4301 C   0  0  2  0  0  0  0  0  0  0  0  0
    7.3445  -13.5282   18.1153 C   0  0  0  0  0  0  0  0  0  0  0  0
    8.2334  -14.6293   20.1114 C   0  0  2  0  0  0  0  0  0  0  0  0
    6.9813  -15.3506   20.1470 N   0  0  0  0  0  0  0  0  0  0  0  0
    8.8279  -14.5385   21.4482 C   0  0  0  0  0  0  0  0  0  0  0  0
    9.9839  -14.1460   21.6964 O   0  0  0  0  0  0  0  0  0  0  0  0
    5.7768  -12.5987   26.2808 N   0  0  0  0  0  0  0  0  0  0  0  0
    6.9820  -13.0707   26.8530 C   0  0  0  0  0  0  0  0  0  0  0  0
    7.3801  -12.5609   27.9220 O   0  0  0  0  0  0  0  0  0  0  0  0
    7.7600  -14.1369   26.2154 C   0  0  0  0  0  0  0  0  0  0  0  0
    7.3286  -14.4438   24.8218 C   0  0  0  0  0  0  0  0  0  0  0  0
    8.5110  -14.7518   23.9315 C   0  0  2  0  0  0  0  0  0  0  0  0
    8.0318  -14.9279   22.5739 N   0  0  0  0  0  0  0  0  0  0  0  0
    9.1427  -16.0201   24.4017 C   0  0  0  0  0  0  0  0  0  0  0  0
    8.4333  -17.0620   24.5296 O   0  0  0  0  0  0  0  0  0  0  0  0
   10.5082  -16.1303   24.7182 N   0  0  0  0  0  0  0  0  0  0  0  0
   11.0574  -17.3795   25.2028 C   0  0  0  0  0  0  0  0  0  0  0  0
   12.5018  -17.2550   25.4519 C   0  0  0  0  0  0  0  0  0  0  0  0
   13.1121  -16.1898   25.1862 O   0  0  0  0  0  0  0  0  0  0  0  0
   13.2024  -18.3282   25.9878 O   0  0  0  0  0  0  0  0  0  0  0  0
  2  1  1  1
  2  3  1  0
  4  2  1  0
  4  5  1  1
  6  4  1  0
  7  6  2  0
  8  9  1  0
  9 11  1  0
 10  9  2  0
 11 12  1  0
 13 12  1  1
 13 14  1  0
 13 15  1  0
 14  6  1  0
 15 16  2  0
 15 17  1  0
 17 18  1  0
 18 19  1  0
 19 21  1  0
 20 19  2  0
M  END
$$$$
