VQG.pdb
     RDKit          3D

 21 20  0  0  1  0  0  0  0  0999 V2000
    7.1927  -12.5430   20.7548 C   0  0  0  0  0  0  0  0  0  0  0  0
    8.1464  -13.3594   19.9122 C   0  0  2  0  0  0  0  0  0  0  0  0
    7.4777  -13.6257   18.5669 C   0  0  0  0  0  0  0  0  0  0  0  0
    8.3481  -14.6957   20.5879 C   0  0  2  0  0  0  0  0  0  0  0  0
    7.1244  -15.4643   20.6165 N   0  0  0  0  0  0  0  0  0  0  0  0
    8.9350  -14.5883   21.9268 C   0  0  0  0  0  0  0  0  0  0  0  0
   10.0242  -14.0457   22.1937 O   0  0  0  0  0  0  0  0  0  0  0  0
    5.9811  -11.5804   26.2970 N   0  0  0  0  0  0  0  0  0  0  0  0
    6.6183  -12.8433   26.3358 C   0  0  0  0  0  0  0  0  0  0  0  0
    6.9393  -13.3211   27.4448 O   0  0  0  0  0  0  0  0  0  0  0  0
    6.9033  -13.5893   25.1066 C   0  0  0  0  0  0  0  0  0  0  0  0
    7.5903  -14.8916   25.3402 C   0  0  0  0  0  0  0  0  0  0  0  0
    8.7421  -15.0898   24.3813 C   0  0  2  0  0  0  0  0  0  0  0  0
    8.2135  -15.1462   23.0318 N   0  0  0  0  0  0  0  0  0  0  0  0
    9.4129  -16.3837   24.7046 C   0  0  0  0  0  0  0  0  0  0  0  0
    8.8285  -17.4752   24.4356 O   0  0  0  0  0  0  0  0  0  0  0  0
   10.6825  -16.4657   25.3029 N   0  0  0  0  0  0  0  0  0  0  0  0
   11.3524  -17.7415   25.4463 C   0  0  0  0  0  0  0  0  0  0  0  0
   11.1135  -18.3115   26.7812 C   0  0  0  0  0  0  0  0  0  0  0  0
   10.1819  -17.8839   27.5072 O   0  0  0  0  0  0  0  0  0  0  0  0
   11.9276  -19.3361   27.2473 O   0  0  0  0  0  0  0  0  0  0  0  0
  2  1  1  1
  2  3  1  0
  4  2  1  0
  4  5  1  1
  6  4  1  0
  7  6  2  0
  8  9  1  0
  9 11  1  0
 10  9  2  0
 11 12  1  0
 13 12  1  1
 13 14  1  0
 13 15  1  0
 14  6  1  0
 15 16  2  0
 15 17  1  0
 17 18  1  0
 18 19  1  0
 19 21  1  0
 20 19  2  0
M  END
$$$$
