MWN.pdb
     RDKit          3D

 31 32  0  0  1  0  0  0  0  0999 V2000
   28.2697  -19.9063   -5.2647 C   0  0  0  0  0  0  0  0  0  0  0  0
   27.1455  -20.0124   -6.6827 S   0  0  0  0  0  0  0  0  0  0  0  0
   28.1546  -19.9274   -8.1906 C   0  0  0  0  0  0  0  0  0  0  0  0
   27.3568  -19.3983   -9.3589 C   0  0  0  0  0  0  0  0  0  0  0  0
   26.5140  -20.5416   -9.8934 C   0  0  2  0  0  0  0  0  0  0  0  0
   27.4089  -21.6062  -10.2981 N   0  0  0  0  0  0  0  0  0  0  0  0
   25.6358  -20.0795  -11.0055 C   0  0  0  0  0  0  0  0  0  0  0  0
   24.7309  -19.2682  -10.6865 O   0  0  0  0  0  0  0  0  0  0  0  0
   25.7502  -20.4791  -12.3477 N   0  0  0  0  0  0  0  0  0  0  0  0
   24.7955  -19.9490  -13.3514 C   0  0  1  0  0  0  0  0  0  0  0  0
   25.5673  -19.8847  -14.6252 C   0  0  0  0  0  0  0  0  0  0  0  0
   24.8415  -19.3379  -15.7757 C   0  0  0  0  0  0  0  0  0  0  0  0
   24.7512  -17.9957  -16.1096 C   0  0  0  0  0  0  0  0  0  0  0  0
   23.9870  -17.8625  -17.2117 N   0  0  0  0  0  0  0  0  0  0  0  0
   23.5661  -19.0713  -17.6219 C   0  0  0  0  0  0  0  0  0  0  0  0
   22.7694  -19.4443  -18.6931 C   0  0  0  0  0  0  0  0  0  0  0  0
   22.4878  -20.7730  -18.8883 C   0  0  0  0  0  0  0  0  0  0  0  0
   23.0140  -21.7121  -17.9992 C   0  0  0  0  0  0  0  0  0  0  0  0
   23.8065  -21.3238  -16.9363 C   0  0  0  0  0  0  0  0  0  0  0  0
   24.0905  -19.9821  -16.7398 C   0  0  0  0  0  0  0  0  0  0  0  0
   23.5814  -20.7441  -13.3414 C   0  0  0  0  0  0  0  0  0  0  0  0
   23.5822  -21.8788  -12.7901 O   0  0  0  0  0  0  0  0  0  0  0  0
   20.2666  -23.2948  -12.3357 N   0  0  0  0  0  0  0  0  0  0  0  0
   20.4106  -22.1168  -11.5263 C   0  0  0  0  0  0  0  0  0  0  0  0
   20.1475  -22.2369  -10.3091 O   0  0  0  0  0  0  0  0  0  0  0  0
   20.8473  -20.8917  -12.1865 C   0  0  0  0  0  0  0  0  0  0  0  0
   21.1263  -21.1164  -13.6699 C   0  0  2  0  0  0  0  0  0  0  0  0
   22.3607  -20.3241  -13.9171 N   0  0  0  0  0  0  0  0  0  0  0  0
   20.0371  -20.4823  -14.4278 C   0  0  0  0  0  0  0  0  0  0  0  0
   19.0655  -21.1178  -14.8988 O   0  0  0  0  0  0  0  0  0  0  0  0
   20.0440  -19.1242  -14.6535 O   0  0  0  0  0  0  0  0  0  0  0  0
  1  2  1  0
  3  2  1  0
  4  3  1  0
  5  4  1  0
  5  6  1  6
  7  5  1  0
  8  7  2  0
  9  7  1  0
 10  9  1  0
 10 11  1  6
 11 12  1  0
 12 20  1  0
 12 13  2  0
 13 14  1  0
 15 14  1  0
 15 16  2  0
 17 16  1  0
 18 17  2  0
 19 20  2  0
 19 18  1  0
 20 15  1  0
 21 28  1  0
 21 10  1  0
 22 21  2  0
 23 24  1  0
 24 25  2  0
 26 24  1  0
 27 26  1  1
 27 28  1  0
 29 31  1  0
 29 27  1  0
 30 29  2  0
M  END
$$$$
