MWN.pdb
     RDKit          3D

 31 32  0  0  1  0  0  0  0  0999 V2000
   30.2112  -24.7043  -16.4430 C   0  0  0  0  0  0  0  0  0  0  0  0
   29.5976  -23.3317  -17.4557 S   0  0  0  0  0  0  0  0  0  0  0  0
   29.7363  -21.8149  -16.4661 C   0  0  0  0  0  0  0  0  0  0  0  0
   29.0197  -21.9518  -15.1436 C   0  0  0  0  0  0  0  0  0  0  0  0
   27.6541  -21.3070  -15.2936 C   0  0  2  0  0  0  0  0  0  0  0  0
   27.8518  -19.8983  -15.5662 N   0  0  0  0  0  0  0  0  0  0  0  0
   26.8192  -21.5430  -14.0817 C   0  0  0  0  0  0  0  0  0  0  0  0
   26.5012  -22.7383  -13.8610 O   0  0  0  0  0  0  0  0  0  0  0  0
   26.3777  -20.5461  -13.1952 N   0  0  0  0  0  0  0  0  0  0  0  0
   25.4269  -20.8997  -12.1132 C   0  0  1  0  0  0  0  0  0  0  0  0
   25.8576  -20.0901  -10.9380 C   0  0  0  0  0  0  0  0  0  0  0  0
   27.0391  -20.5885  -10.2274 C   0  0  0  0  0  0  0  0  0  0  0  0
   28.0243  -21.3995  -10.7686 C   0  0  0  0  0  0  0  0  0  0  0  0
   28.9410  -21.6778   -9.8207 N   0  0  0  0  0  0  0  0  0  0  0  0
   28.5984  -21.0789   -8.6671 C   0  0  0  0  0  0  0  0  0  0  0  0
   29.2165  -21.0685   -7.4265 C   0  0  0  0  0  0  0  0  0  0  0  0
   28.6441  -20.3626   -6.3984 C   0  0  0  0  0  0  0  0  0  0  0  0
   27.4526  -19.6740   -6.6338 C   0  0  0  0  0  0  0  0  0  0  0  0
   26.8492  -19.6944   -7.8764 C   0  0  0  0  0  0  0  0  0  0  0  0
   27.4277  -20.4073   -8.9141 C   0  0  0  0  0  0  0  0  0  0  0  0
   24.0643  -20.7296  -12.5827 C   0  0  0  0  0  0  0  0  0  0  0  0
   23.7000  -19.6175  -13.0543 O   0  0  0  0  0  0  0  0  0  0  0  0
   19.0339  -23.7627  -14.1725 N   0  0  0  0  0  0  0  0  0  0  0  0
   19.6164  -22.7240  -13.3692 C   0  0  0  0  0  0  0  0  0  0  0  0
   18.8503  -21.8092  -12.9934 O   0  0  0  0  0  0  0  0  0  0  0  0
   21.0389  -22.8234  -13.0626 C   0  0  0  0  0  0  0  0  0  0  0  0
   21.7023  -21.4505  -13.0017 C   0  0  2  0  0  0  0  0  0  0  0  0
   23.0884  -21.7518  -12.5539 N   0  0  0  0  0  0  0  0  0  0  0  0
   21.0485  -20.6885  -11.9271 C   0  0  0  0  0  0  0  0  0  0  0  0
   21.3188  -20.8400  -10.7131 O   0  0  0  0  0  0  0  0  0  0  0  0
   20.0863  -19.7499  -12.2245 O   0  0  0  0  0  0  0  0  0  0  0  0
  1  2  1  0
  3  2  1  0
  4  3  1  0
  5  4  1  0
  5  6  1  1
  7  5  1  0
  8  7  2  0
  9  7  1  0
 10  9  1  0
 10 11  1  1
 11 12  1  0
 12 20  1  0
 12 13  2  0
 13 14  1  0
 15 14  1  0
 15 16  2  0
 17 16  1  0
 18 17  2  0
 19 20  2  0
 19 18  1  0
 20 15  1  0
 21 28  1  0
 21 10  1  0
 22 21  2  0
 23 24  1  0
 24 25  2  0
 26 24  1  0
 27 26  1  1
 27 28  1  0
 29 31  1  0
 29 27  1  0
 30 29  2  0
M  END
$$$$
