MWN.pdb
     RDKit          3D

 31 32  0  0  1  0  0  0  0  0999 V2000
   26.4932  -16.5893  -15.5983 C   0  0  0  0  0  0  0  0  0  0  0  0
   27.9260  -17.1235  -16.5718 S   0  0  0  0  0  0  0  0  0  0  0  0
   28.5394  -18.6697  -15.8422 C   0  0  0  0  0  0  0  0  0  0  0  0
   27.5884  -19.2011  -14.7960 C   0  0  0  0  0  0  0  0  0  0  0  0
   28.1664  -20.5020  -14.2700 C   0  0  2  0  0  0  0  0  0  0  0  0
   28.0914  -21.4861  -15.3302 N   0  0  0  0  0  0  0  0  0  0  0  0
   27.4560  -20.9377  -13.0343 C   0  0  0  0  0  0  0  0  0  0  0  0
   26.4248  -21.6330  -13.2128 O   0  0  0  0  0  0  0  0  0  0  0  0
   27.8522  -20.6317  -11.7213 N   0  0  0  0  0  0  0  0  0  0  0  0
   26.9668  -20.9945  -10.5880 C   0  0  1  0  0  0  0  0  0  0  0  0
   27.7832  -20.7519   -9.3645 C   0  0  0  0  0  0  0  0  0  0  0  0
   27.0324  -20.6914   -8.1068 C   0  0  0  0  0  0  0  0  0  0  0  0
   25.6915  -21.0057   -7.9511 C   0  0  0  0  0  0  0  0  0  0  0  0
   25.3361  -20.8122   -6.6655 N   0  0  0  0  0  0  0  0  0  0  0  0
   26.3960  -20.3796   -5.9610 C   0  0  0  0  0  0  0  0  0  0  0  0
   26.5267  -20.0481   -4.6216 C   0  0  0  0  0  0  0  0  0  0  0  0
   27.7450  -19.6267   -4.1512 C   0  0  0  0  0  0  0  0  0  0  0  0
   28.8194  -19.5445   -5.0388 C   0  0  0  0  0  0  0  0  0  0  0  0
   28.6725  -19.8787   -6.3712 C   0  0  0  0  0  0  0  0  0  0  0  0
   27.4423  -20.3041   -6.8456 C   0  0  0  0  0  0  0  0  0  0  0  0
   25.7055  -20.2863  -10.7048 C   0  0  0  0  0  0  0  0  0  0  0  0
   25.6961  -19.0248  -10.7202 O   0  0  0  0  0  0  0  0  0  0  0  0
   22.5023  -17.8154  -13.5001 N   0  0  0  0  0  0  0  0  0  0  0  0
   22.5042  -19.2516  -13.4711 C   0  0  0  0  0  0  0  0  0  0  0  0
   21.5548  -19.8256  -14.0494 O   0  0  0  0  0  0  0  0  0  0  0  0
   23.6029  -19.9126  -12.7761 C   0  0  0  0  0  0  0  0  0  0  0  0
   23.2771  -20.1571  -11.3054 C   0  0  2  0  0  0  0  0  0  0  0  0
   24.4500  -20.9270  -10.8111 N   0  0  0  0  0  0  0  0  0  0  0  0
   22.1099  -21.0503  -11.2515 C   0  0  0  0  0  0  0  0  0  0  0  0
   22.1867  -22.2926  -11.3944 O   0  0  0  0  0  0  0  0  0  0  0  0
   20.8506  -20.5387  -11.0336 O   0  0  0  0  0  0  0  0  0  0  0  0
  1  2  1  0
  3  2  1  0
  4  3  1  0
  5  4  1  0
  5  6  1  6
  7  5  1  0
  8  7  2  0
  9  7  1  0
 10  9  1  0
 10 11  1  1
 11 12  1  0
 12 20  1  0
 12 13  2  0
 13 14  1  0
 15 14  1  0
 15 16  2  0
 17 16  1  0
 18 17  2  0
 19 20  2  0
 19 18  1  0
 20 15  1  0
 21 28  1  0
 21 10  1  0
 22 21  2  0
 23 24  1  0
 24 25  2  0
 26 24  1  0
 27 26  1  6
 27 28  1  0
 29 31  1  0
 29 27  1  0
 30 29  2  0
M  END
$$$$
