YLL.pdb
     RDKit          3D

 29 29  0  0  1  0  0  0  0  0999 V2000
   21.2707  -18.3522  -16.8630 O   0  0  0  0  0  0  0  0  0  0  0  0
   21.7675  -18.9416  -15.7027 C   0  0  0  0  0  0  0  0  0  0  0  0
   21.6995  -20.3071  -15.5030 C   0  0  0  0  0  0  0  0  0  0  0  0
   22.1924  -20.8869  -14.3531 C   0  0  0  0  0  0  0  0  0  0  0  0
   22.7680  -20.1543  -13.3598 C   0  0  0  0  0  0  0  0  0  0  0  0
   23.3128  -20.7210  -12.1086 C   0  0  0  0  0  0  0  0  0  0  0  0
   24.8161  -20.5881  -12.1397 C   0  0  2  0  0  0  0  0  0  0  0  0
   25.3438  -21.4365  -13.1898 N   0  0  0  0  0  0  0  0  0  0  0  0
   25.4433  -21.0302  -10.8728 C   0  0  0  0  0  0  0  0  0  0  0  0
   25.4550  -22.2398  -10.5432 O   0  0  0  0  0  0  0  0  0  0  0  0
   22.8486  -18.7807  -13.5357 C   0  0  0  0  0  0  0  0  0  0  0  0
   22.3558  -18.1939  -14.6872 C   0  0  0  0  0  0  0  0  0  0  0  0
   28.4091  -20.8188   -6.0928 C   0  0  0  0  0  0  0  0  0  0  0  0
   27.4402  -19.7372   -6.4336 C   0  0  1  0  0  0  0  0  0  0  0  0
   28.0356  -18.4357   -5.8721 C   0  0  0  0  0  0  0  0  0  0  0  0
   27.1851  -19.4984   -7.8680 C   0  0  0  0  0  0  0  0  0  0  0  0
   26.1753  -20.3428   -8.5509 C   0  0  2  0  0  0  0  0  0  0  0  0
   26.0650  -20.1063   -9.9642 N   0  0  0  0  0  0  0  0  0  0  0  0
   24.8582  -20.4236   -7.8696 C   0  0  0  0  0  0  0  0  0  0  0  0
   23.9638  -19.5302   -8.0546 O   0  0  0  0  0  0  0  0  0  0  0  0
   20.4461  -23.9825   -7.2881 C   0  0  0  0  0  0  0  0  0  0  0  0
   21.0196  -22.7894   -6.4916 C   0  0  2  0  0  0  0  0  0  0  0  0
   20.0530  -21.6582   -6.7723 C   0  0  0  0  0  0  0  0  0  0  0  0
   22.3945  -22.5757   -7.0273 C   0  0  0  0  0  0  0  0  0  0  0  0
   23.2012  -21.5054   -6.3780 C   0  0  2  0  0  0  0  0  0  0  0  0
   24.5148  -21.4758   -6.9895 N   0  0  0  0  0  0  0  0  0  0  0  0
   23.3821  -21.6466   -4.9180 C   0  0  0  0  0  0  0  0  0  0  0  0
   22.4012  -21.2769   -3.9854 O   0  0  0  0  0  0  0  0  0  0  0  0
   24.4454  -22.1152   -4.3865 O   0  0  0  0  0  0  0  0  0  0  0  0
  2  3  2  0
  2  1  1  0
  4  3  1  0
  5  4  2  0
  6  5  1  0
  7  6  1  0
  7  8  1  6
  9  7  1  0
  9 10  2  0
 11  5  1  0
 11 12  2  0
 12  2  1  0
 14 13  1  6
 14 15  1  0
 16 14  1  0
 17 16  1  1
 17 18  1  0
 18  9  1  0
 19 17  1  0
 19 26  1  0
 20 19  2  0
 22 21  1  6
 23 22  1  0
 24 22  1  0
 25 24  1  6
 25 26  1  0
 25 27  1  0
 27 28  1  0
 29 27  2  0
M  END
$$$$
