YLL.pdb
     RDKit          3D

 29 29  0  0  1  0  0  0  0  0999 V2000
   19.9111  -15.6355  -17.2055 O   0  0  0  0  0  0  0  0  0  0  0  0
   20.6105  -16.6046  -16.4899 C   0  0  0  0  0  0  0  0  0  0  0  0
   21.7992  -16.3092  -15.8504 C   0  0  0  0  0  0  0  0  0  0  0  0
   22.4886  -17.2713  -15.1429 C   0  0  0  0  0  0  0  0  0  0  0  0
   22.0417  -18.5533  -15.0356 C   0  0  0  0  0  0  0  0  0  0  0  0
   22.7373  -19.6236  -14.2913 C   0  0  0  0  0  0  0  0  0  0  0  0
   24.0750  -19.8683  -14.9464 C   0  0  2  0  0  0  0  0  0  0  0  0
   23.8590  -20.3565  -16.2940 N   0  0  0  0  0  0  0  0  0  0  0  0
   24.8657  -20.8999  -14.2360 C   0  0  0  0  0  0  0  0  0  0  0  0
   24.5234  -22.1059  -14.2554 O   0  0  0  0  0  0  0  0  0  0  0  0
   20.8503  -18.8758  -15.6687 C   0  0  0  0  0  0  0  0  0  0  0  0
   20.1547  -17.9147  -16.3797 C   0  0  0  0  0  0  0  0  0  0  0  0
   30.3526  -20.2221  -12.0919 C   0  0  0  0  0  0  0  0  0  0  0  0
   28.8886  -20.1699  -12.3727 C   0  0  1  0  0  0  0  0  0  0  0  0
   28.7092  -19.1743  -13.5303 C   0  0  0  0  0  0  0  0  0  0  0  0
   28.2461  -21.4294  -12.7978 C   0  0  0  0  0  0  0  0  0  0  0  0
   26.7702  -21.5329  -12.6962 C   0  0  2  0  0  0  0  0  0  0  0  0
   26.0540  -20.5768  -13.4951 N   0  0  0  0  0  0  0  0  0  0  0  0
   26.2414  -21.6485  -11.3133 C   0  0  0  0  0  0  0  0  0  0  0  0
   26.5099  -22.6647  -10.5869 O   0  0  0  0  0  0  0  0  0  0  0  0
   26.6497  -21.3565   -7.0550 C   0  0  0  0  0  0  0  0  0  0  0  0
   26.7365  -20.1008   -7.9507 C   0  0  2  0  0  0  0  0  0  0  0  0
   27.2417  -19.0174   -7.0213 C   0  0  0  0  0  0  0  0  0  0  0  0
   25.3541  -19.8804   -8.4641 C   0  0  0  0  0  0  0  0  0  0  0  0
   24.8310  -20.8956   -9.4200 C   0  0  2  0  0  0  0  0  0  0  0  0
   25.4227  -20.6590  -10.7216 N   0  0  0  0  0  0  0  0  0  0  0  0
   23.3623  -20.9129   -9.5842 C   0  0  0  0  0  0  0  0  0  0  0  0
   22.4776  -21.2064   -8.5354 O   0  0  0  0  0  0  0  0  0  0  0  0
   22.7790  -20.6635  -10.6933 O   0  0  0  0  0  0  0  0  0  0  0  0
  2  3  2  0
  2  1  1  0
  4  3  1  0
  5  4  2  0
  6  5  1  0
  7  6  1  0
  7  8  1  6
  9  7  1  0
  9 10  2  0
 11  5  1  0
 11 12  2  0
 12  2  1  0
 14 13  1  6
 14 15  1  0
 16 14  1  0
 17 16  1  1
 17 18  1  0
 18  9  1  0
 19 17  1  0
 19 26  1  0
 20 19  2  0
 22 21  1  1
 23 22  1  0
 24 22  1  0
 25 24  1  1
 25 26  1  0
 25 27  1  0
 27 28  1  0
 29 27  2  0
M  END
$$$$
