YLL.pdb
     RDKit          3D

 29 29  0  0  1  0  0  0  0  0999 V2000
   22.2484  -18.5503  -15.9206 O   0  0  0  0  0  0  0  0  0  0  0  0
   23.0474  -19.1050  -14.9235 C   0  0  0  0  0  0  0  0  0  0  0  0
   24.4138  -19.2333  -15.0840 C   0  0  0  0  0  0  0  0  0  0  0  0
   25.2014  -19.7829  -14.0946 C   0  0  0  0  0  0  0  0  0  0  0  0
   24.6827  -20.2257  -12.9158 C   0  0  0  0  0  0  0  0  0  0  0  0
   25.4774  -20.8216  -11.8218 C   0  0  0  0  0  0  0  0  0  0  0  0
   24.9041  -20.3536  -10.5062 C   0  0  2  0  0  0  0  0  0  0  0  0
   25.1011  -18.9225  -10.3873 N   0  0  0  0  0  0  0  0  0  0  0  0
   25.5807  -20.9794   -9.3467 C   0  0  0  0  0  0  0  0  0  0  0  0
   25.7107  -22.2238   -9.2664 O   0  0  0  0  0  0  0  0  0  0  0  0
   23.3131  -20.1084  -12.7296 C   0  0  0  0  0  0  0  0  0  0  0  0
   22.5184  -19.5578  -13.7187 C   0  0  0  0  0  0  0  0  0  0  0  0
   28.8742  -18.0690   -5.9233 C   0  0  0  0  0  0  0  0  0  0  0  0
   28.2475  -19.1681   -6.7131 C   0  0  1  0  0  0  0  0  0  0  0  0
   29.3676  -20.1807   -7.0026 C   0  0  0  0  0  0  0  0  0  0  0  0
   27.1584  -19.9211   -6.0600 C   0  0  0  0  0  0  0  0  0  0  0  0
   26.2269  -20.6930   -6.9177 C   0  0  2  0  0  0  0  0  0  0  0  0
   26.1183  -20.2019   -8.2640 N   0  0  0  0  0  0  0  0  0  0  0  0
   24.9106  -20.9979   -6.3014 C   0  0  0  0  0  0  0  0  0  0  0  0
   24.8282  -21.4347   -5.1035 O   0  0  0  0  0  0  0  0  0  0  0  0
   20.5448  -20.3344   -4.3758 C   0  0  0  0  0  0  0  0  0  0  0  0
   20.3506  -19.6104   -5.7266 C   0  0  2  0  0  0  0  0  0  0  0  0
   19.2533  -20.3960   -6.4132 C   0  0  0  0  0  0  0  0  0  0  0  0
   21.6757  -19.6736   -6.4075 C   0  0  0  0  0  0  0  0  0  0  0  0
   22.4332  -20.9483   -6.2690 C   0  0  2  0  0  0  0  0  0  0  0  0
   23.6860  -20.8266   -6.9874 N   0  0  0  0  0  0  0  0  0  0  0  0
   21.7389  -22.1546   -6.7662 C   0  0  0  0  0  0  0  0  0  0  0  0
   20.9520  -22.9779   -5.9468 O   0  0  0  0  0  0  0  0  0  0  0  0
   21.7994  -22.5462   -7.9810 O   0  0  0  0  0  0  0  0  0  0  0  0
  2  3  2  0
  2  1  1  0
  4  3  1  0
  5  4  2  0
  6  5  1  0
  7  6  1  0
  7  8  1  1
  9  7  1  0
  9 10  2  0
 11  5  1  0
 11 12  2  0
 12  2  1  0
 14 13  1  1
 14 15  1  0
 16 14  1  0
 17 16  1  1
 17 18  1  0
 18  9  1  0
 19 17  1  0
 19 26  1  0
 20 19  2  0
 22 21  1  1
 23 22  1  0
 24 22  1  0
 25 24  1  6
 25 26  1  0
 25 27  1  0
 27 28  1  0
 29 27  2  0
M  END
$$$$
