YLL.pdb
     RDKit          3D

 29 29  0  0  1  0  0  0  0  0999 V2000
   28.0926  -18.5404  -18.0367 O   0  0  0  0  0  0  0  0  0  0  0  0
   28.0300  -19.2293  -16.8276 C   0  0  0  0  0  0  0  0  0  0  0  0
   28.9109  -20.2530  -16.5358 C   0  0  0  0  0  0  0  0  0  0  0  0
   28.8457  -20.9325  -15.3377 C   0  0  0  0  0  0  0  0  0  0  0  0
   27.9192  -20.6364  -14.3845 C   0  0  0  0  0  0  0  0  0  0  0  0
   27.8032  -21.3294  -13.0846 C   0  0  0  0  0  0  0  0  0  0  0  0
   27.6253  -20.2904  -12.0043 C   0  0  2  0  0  0  0  0  0  0  0  0
   28.7914  -19.4298  -11.9797 N   0  0  0  0  0  0  0  0  0  0  0  0
   27.5092  -20.8970  -10.6580 C   0  0  0  0  0  0  0  0  0  0  0  0
   26.8811  -21.9677  -10.4818 O   0  0  0  0  0  0  0  0  0  0  0  0
   27.0227  -19.6124  -14.6529 C   0  0  0  0  0  0  0  0  0  0  0  0
   27.0837  -18.9274  -15.8530 C   0  0  0  0  0  0  0  0  0  0  0  0
   28.3208  -21.1593   -4.8727 C   0  0  0  0  0  0  0  0  0  0  0  0
   27.9537  -19.9768   -5.7044 C   0  0  1  0  0  0  0  0  0  0  0  0
   28.5592  -18.7521   -4.9993 C   0  0  0  0  0  0  0  0  0  0  0  0
   28.4578  -19.9552   -7.0919 C   0  0  0  0  0  0  0  0  0  0  0  0
   27.5616  -20.4353   -8.1714 C   0  0  2  0  0  0  0  0  0  0  0  0
   28.1038  -20.2973   -9.4952 N   0  0  0  0  0  0  0  0  0  0  0  0
   26.1524  -19.9780   -8.0690 C   0  0  0  0  0  0  0  0  0  0  0  0
   25.8291  -18.7713   -8.3371 O   0  0  0  0  0  0  0  0  0  0  0  0
   21.6406  -21.7035  -10.0269 C   0  0  0  0  0  0  0  0  0  0  0  0
   22.4119  -20.3892  -10.2809 C   0  0  2  0  0  0  0  0  0  0  0  0
   22.4681  -20.2787  -11.7900 C   0  0  0  0  0  0  0  0  0  0  0  0
   23.7380  -20.5713   -9.6240 C   0  0  0  0  0  0  0  0  0  0  0  0
   23.7471  -20.5705   -8.1347 C   0  0  2  0  0  0  0  0  0  0  0  0
   25.0967  -20.8331   -7.6766 N   0  0  0  0  0  0  0  0  0  0  0  0
   22.8498  -21.5558   -7.4957 C   0  0  0  0  0  0  0  0  0  0  0  0
   21.5019  -21.2916   -7.2094 O   0  0  0  0  0  0  0  0  0  0  0  0
   23.2281  -22.7267   -7.1512 O   0  0  0  0  0  0  0  0  0  0  0  0
  2  3  2  0
  2  1  1  0
  4  3  1  0
  5  4  2  0
  6  5  1  0
  7  6  1  0
  7  8  1  1
  9  7  1  0
  9 10  2  0
 11  5  1  0
 11 12  2  0
 12  2  1  0
 14 13  1  1
 14 15  1  0
 16 14  1  0
 17 16  1  1
 17 18  1  0
 18  9  1  0
 19 17  1  0
 19 26  1  0
 20 19  2  0
 22 21  1  6
 23 22  1  0
 24 22  1  0
 25 24  1  6
 25 26  1  0
 25 27  1  0
 27 28  1  0
 29 27  2  0
M  END
$$$$
