YLL.pdb
     RDKit          3D

 29 29  0  0  1  0  0  0  0  0999 V2000
   16.5981  -18.1144  -18.3242 O   0  0  0  0  0  0  0  0  0  0  0  0
   17.7183  -18.5161  -17.6001 C   0  0  0  0  0  0  0  0  0  0  0  0
   18.9952  -18.1699  -17.9985 C   0  0  0  0  0  0  0  0  0  0  0  0
   20.1016  -18.5694  -17.2790 C   0  0  0  0  0  0  0  0  0  0  0  0
   19.9994  -19.3199  -16.1471 C   0  0  0  0  0  0  0  0  0  0  0  0
   21.1483  -19.7753  -15.3371 C   0  0  0  0  0  0  0  0  0  0  0  0
   22.0512  -20.6072  -16.2152 C   0  0  2  0  0  0  0  0  0  0  0  0
   21.3908  -21.8614  -16.5183 N   0  0  0  0  0  0  0  0  0  0  0  0
   23.3284  -20.9438  -15.5450 C   0  0  0  0  0  0  0  0  0  0  0  0
   23.4025  -21.8957  -14.7323 O   0  0  0  0  0  0  0  0  0  0  0  0
   18.7281  -19.6810  -15.7256 C   0  0  0  0  0  0  0  0  0  0  0  0
   17.6149  -19.2829  -16.4435 C   0  0  0  0  0  0  0  0  0  0  0  0
   28.5850  -20.0931  -17.7063 C   0  0  0  0  0  0  0  0  0  0  0  0
   27.3716  -20.6190  -17.0164 C   0  0  1  0  0  0  0  0  0  0  0  0
   27.6826  -22.0810  -16.6567 C   0  0  0  0  0  0  0  0  0  0  0  0
   26.9772  -19.9515  -15.7600 C   0  0  0  0  0  0  0  0  0  0  0  0
   25.7583  -20.4302  -15.0641 C   0  0  2  0  0  0  0  0  0  0  0  0
   24.5373  -20.2056  -15.7881 N   0  0  0  0  0  0  0  0  0  0  0  0
   25.6630  -20.0530  -13.6308 C   0  0  0  0  0  0  0  0  0  0  0  0
   25.0092  -19.0188  -13.2628 O   0  0  0  0  0  0  0  0  0  0  0  0
   24.6525  -21.2416   -8.6728 C   0  0  0  0  0  0  0  0  0  0  0  0
   24.2347  -20.0266   -9.5308 C   0  0  2  0  0  0  0  0  0  0  0  0
   22.7415  -19.9115   -9.3071 C   0  0  0  0  0  0  0  0  0  0  0  0
   24.6264  -20.3709  -10.9277 C   0  0  0  0  0  0  0  0  0  0  0  0
   26.0868  -20.4144  -11.2162 C   0  0  2  0  0  0  0  0  0  0  0  0
   26.2773  -20.8009  -12.5999 N   0  0  0  0  0  0  0  0  0  0  0  0
   26.8713  -21.3406  -10.3729 C   0  0  0  0  0  0  0  0  0  0  0  0
   27.0528  -22.6958  -10.6877 O   0  0  0  0  0  0  0  0  0  0  0  0
   27.4466  -20.9835   -9.2893 O   0  0  0  0  0  0  0  0  0  0  0  0
  2  3  2  0
  2  1  1  0
  4  3  1  0
  5  4  2  0
  6  5  1  0
  7  6  1  0
  7  8  1  1
  9  7  1  0
  9 10  2  0
 11  5  1  0
 11 12  2  0
 12  2  1  0
 14 13  1  1
 14 15  1  0
 16 14  1  0
 17 16  1  6
 17 18  1  0
 18  9  1  0
 19 17  1  0
 19 26  1  0
 20 19  2  0
 22 21  1  1
 23 22  1  0
 24 22  1  0
 25 24  1  1
 25 26  1  0
 25 27  1  0
 27 28  1  0
 29 27  2  0
M  END
$$$$
