YLL.pdb
     RDKit          3D

 29 29  0  0  1  0  0  0  0  0999 V2000
   36.4178  -25.7897  -20.6420 O   0  0  0  0  0  0  0  0  0  0  0  0
   35.6402  -26.7999  -20.0806 C   0  0  0  0  0  0  0  0  0  0  0  0
   34.6882  -26.5246  -19.1178 C   0  0  0  0  0  0  0  0  0  0  0  0
   33.9203  -27.5274  -18.5645 C   0  0  0  0  0  0  0  0  0  0  0  0
   34.0552  -28.8319  -18.9317 C   0  0  0  0  0  0  0  0  0  0  0  0
   33.2607  -29.9459  -18.3741 C   0  0  0  0  0  0  0  0  0  0  0  0
   32.1554  -30.2773  -19.3472 C   0  0  2  0  0  0  0  0  0  0  0  0
   31.1903  -29.1959  -19.3522 N   0  0  0  0  0  0  0  0  0  0  0  0
   31.4229  -31.5066  -18.9646 C   0  0  0  0  0  0  0  0  0  0  0  0
   32.0289  -32.5854  -18.7621 O   0  0  0  0  0  0  0  0  0  0  0  0
   35.0044  -29.1349  -19.8969 C   0  0  0  0  0  0  0  0  0  0  0  0
   35.7773  -28.1330  -20.4552 C   0  0  0  0  0  0  0  0  0  0  0  0
   27.0846  -31.7363  -15.4912 C   0  0  0  0  0  0  0  0  0  0  0  0
   28.2962  -32.0362  -16.3079 C   0  0  1  0  0  0  0  0  0  0  0  0
   29.0600  -33.1370  -15.5538 C   0  0  0  0  0  0  0  0  0  0  0  0
   28.0692  -32.5434  -17.6758 C   0  0  0  0  0  0  0  0  0  0  0  0
   29.2457  -32.7291  -18.5592 C   0  0  2  0  0  0  0  0  0  0  0  0
   29.9946  -31.5278  -18.8070 N   0  0  0  0  0  0  0  0  0  0  0  0
   28.9896  -33.5198  -19.7900 C   0  0  0  0  0  0  0  0  0  0  0  0
   28.6158  -32.9531  -20.8724 O   0  0  0  0  0  0  0  0  0  0  0  0
   31.1867  -35.6234  -22.7890 C   0  0  0  0  0  0  0  0  0  0  0  0
   31.1452  -36.3925  -21.4498 C   0  0  2  0  0  0  0  0  0  0  0  0
   32.0785  -37.5648  -21.6671 C   0  0  0  0  0  0  0  0  0  0  0  0
   29.7162  -36.7681  -21.2493 C   0  0  0  0  0  0  0  0  0  0  0  0
   28.7582  -35.6474  -21.0391 C   0  0  2  0  0  0  0  0  0  0  0  0
   29.1414  -34.9247  -19.8428 N   0  0  0  0  0  0  0  0  0  0  0  0
   27.3415  -36.0439  -20.8969 C   0  0  0  0  0  0  0  0  0  0  0  0
   26.7008  -36.1643  -19.6544 O   0  0  0  0  0  0  0  0  0  0  0  0
   26.5859  -36.3101  -21.8923 O   0  0  0  0  0  0  0  0  0  0  0  0
  2  3  2  0
  2  1  1  0
  4  3  1  0
  5  4  2  0
  6  5  1  0
  7  6  1  0
  7  8  1  1
  9  7  1  0
  9 10  2  0
 11  5  1  0
 11 12  2  0
 12  2  1  0
 14 13  1  1
 14 15  1  0
 16 14  1  0
 17 16  1  6
 17 18  1  0
 18  9  1  0
 19 17  1  0
 19 26  1  0
 20 19  2  0
 22 21  1  6
 23 22  1  0
 24 22  1  0
 25 24  1  1
 25 26  1  0
 25 27  1  0
 27 28  1  0
 29 27  2  0
M  END
$$$$
