YLL.pdb
     RDKit          3D

 29 29  0  0  1  0  0  0  0  0999 V2000
   10.7083  -11.8459  -10.0041 O   0  0  0  0  0  0  0  0  0  0  0  0
   11.5835  -10.8053   -9.7019 C   0  0  0  0  0  0  0  0  0  0  0  0
   12.8384  -11.0493   -9.1777 C   0  0  0  0  0  0  0  0  0  0  0  0
   13.7020  -10.0164   -8.8799 C   0  0  0  0  0  0  0  0  0  0  0  0
   13.3705   -8.7112   -9.0834 C   0  0  0  0  0  0  0  0  0  0  0  0
   14.2544   -7.5656   -8.7839 C   0  0  0  0  0  0  0  0  0  0  0  0
   15.1946   -7.3713   -9.9487 C   0  0  2  0  0  0  0  0  0  0  0  0
   16.4352   -8.0696   -9.6761 N   0  0  0  0  0  0  0  0  0  0  0  0
   15.5395   -5.9461  -10.1578 C   0  0  0  0  0  0  0  0  0  0  0  0
   16.5326   -5.4301   -9.5925 O   0  0  0  0  0  0  0  0  0  0  0  0
   12.1159   -8.4391   -9.6089 C   0  0  0  0  0  0  0  0  0  0  0  0
   11.2457   -9.4714   -9.9094 C   0  0  0  0  0  0  0  0  0  0  0  0
   15.3453   -3.0449  -14.9088 C   0  0  0  0  0  0  0  0  0  0  0  0
   15.6169   -3.5907  -13.5475 C   0  0  1  0  0  0  0  0  0  0  0  0
   17.0549   -3.1743  -13.1976 C   0  0  0  0  0  0  0  0  0  0  0  0
   14.7588   -3.1022  -12.4499 C   0  0  0  0  0  0  0  0  0  0  0  0
   14.9635   -3.6679  -11.0945 C   0  0  2  0  0  0  0  0  0  0  0  0
   14.7627   -5.0885  -11.0102 N   0  0  0  0  0  0  0  0  0  0  0  0
   14.3029   -2.9203   -9.9944 C   0  0  0  0  0  0  0  0  0  0  0  0
   13.2774   -3.3941   -9.3975 O   0  0  0  0  0  0  0  0  0  0  0  0
   14.2664   -0.3806   -5.3884 C   0  0  0  0  0  0  0  0  0  0  0  0
   13.2125   -1.2274   -6.1359 C   0  0  2  0  0  0  0  0  0  0  0  0
   12.7600   -2.2451   -5.1100 C   0  0  0  0  0  0  0  0  0  0  0  0
   13.9259   -1.8074   -7.3098 C   0  0  0  0  0  0  0  0  0  0  0  0
   14.0176   -0.9475   -8.5223 C   0  0  2  0  0  0  0  0  0  0  0  0
   14.7586   -1.6598   -9.5440 N   0  0  0  0  0  0  0  0  0  0  0  0
   14.6674    0.3645   -8.3203 C   0  0  0  0  0  0  0  0  0  0  0  0
   14.0041    1.4708   -7.7682 O   0  0  0  0  0  0  0  0  0  0  0  0
   15.8841    0.5984   -8.6324 O   0  0  0  0  0  0  0  0  0  0  0  0
  2  3  2  0
  2  1  1  0
  4  3  1  0
  5  4  2  0
  6  5  1  0
  7  6  1  0
  7  8  1  1
  9  7  1  0
  9 10  2  0
 11  5  1  0
 11 12  2  0
 12  2  1  0
 14 13  1  6
 14 15  1  0
 16 14  1  0
 17 16  1  6
 17 18  1  0
 18  9  1  0
 19 17  1  0
 19 26  1  0
 20 19  2  0
 22 21  1  1
 23 22  1  0
 24 22  1  0
 25 24  1  1
 25 26  1  0
 25 27  1  0
 27 28  1  0
 29 27  2  0
M  END
$$$$
