YLL.pdb
     RDKit          3D

 29 29  0  0  1  0  0  0  0  0999 V2000
   20.4712  -15.0130  -21.2035 O   0  0  0  0  0  0  0  0  0  0  0  0
   21.3277  -16.0123  -20.7472 C   0  0  0  0  0  0  0  0  0  0  0  0
   22.6877  -15.9591  -20.9855 C   0  0  0  0  0  0  0  0  0  0  0  0
   23.5322  -16.9503  -20.5321 C   0  0  0  0  0  0  0  0  0  0  0  0
   23.0787  -18.0262  -19.8311 C   0  0  0  0  0  0  0  0  0  0  0  0
   23.9363  -19.1160  -19.3209 C   0  0  0  0  0  0  0  0  0  0  0  0
   23.5877  -19.3589  -17.8725 C   0  0  2  0  0  0  0  0  0  0  0  0
   23.9346  -18.1830  -17.0993 N   0  0  0  0  0  0  0  0  0  0  0  0
   24.3472  -20.4927  -17.2966 C   0  0  0  0  0  0  0  0  0  0  0  0
   24.2876  -21.6373  -17.8048 O   0  0  0  0  0  0  0  0  0  0  0  0
   21.7169  -18.1035  -19.5784 C   0  0  0  0  0  0  0  0  0  0  0  0
   20.8652  -17.1121  -20.0309 C   0  0  0  0  0  0  0  0  0  0  0  0
   29.5454  -20.2597  -14.9348 C   0  0  0  0  0  0  0  0  0  0  0  0
   28.0541  -20.2535  -14.9073 C   0  0  1  0  0  0  0  0  0  0  0  0
   27.6184  -18.9363  -15.5697 C   0  0  0  0  0  0  0  0  0  0  0  0
   27.3694  -21.3384  -15.6382 C   0  0  0  0  0  0  0  0  0  0  0  0
   25.8935  -21.4344  -15.5299 C   0  0  2  0  0  0  0  0  0  0  0  0
   25.1837  -20.3425  -16.1376 N   0  0  0  0  0  0  0  0  0  0  0  0
   25.3831  -21.7805  -14.1788 C   0  0  0  0  0  0  0  0  0  0  0  0
   25.8931  -22.7399  -13.5066 O   0  0  0  0  0  0  0  0  0  0  0  0
   24.2228  -21.8281   -9.5889 C   0  0  0  0  0  0  0  0  0  0  0  0
   25.2882  -20.7637   -9.9334 C   0  0  2  0  0  0  0  0  0  0  0  0
   24.7911  -19.5076   -9.2493 C   0  0  0  0  0  0  0  0  0  0  0  0
   25.3113  -20.6894  -11.4224 C   0  0  0  0  0  0  0  0  0  0  0  0
   24.1091  -21.2082  -12.1319 C   0  0  2  0  0  0  0  0  0  0  0  0
   24.3202  -21.0826  -13.5602 N   0  0  0  0  0  0  0  0  0  0  0  0
   22.8371  -20.5332  -11.7989 C   0  0  0  0  0  0  0  0  0  0  0  0
   21.9437  -21.0169  -10.8311 O   0  0  0  0  0  0  0  0  0  0  0  0
   22.4472  -19.4561  -12.3651 O   0  0  0  0  0  0  0  0  0  0  0  0
  2  3  2  0
  2  1  1  0
  4  3  1  0
  5  4  2  0
  6  5  1  0
  7  6  1  0
  7  8  1  1
  9  7  1  0
  9 10  2  0
 11  5  1  0
 11 12  2  0
 12  2  1  0
 14 13  1  6
 14 15  1  0
 16 14  1  0
 17 16  1  1
 17 18  1  0
 18  9  1  0
 19 17  1  0
 19 26  1  0
 20 19  2  0
 22 21  1  6
 23 22  1  0
 24 22  1  0
 25 24  1  1
 25 26  1  0
 25 27  1  0
 27 28  1  0
 29 27  2  0
M  END
$$$$
