YLL.pdb
     RDKit          3D

 29 29  0  0  1  0  0  0  0  0999 V2000
   19.8977  -23.1345   -7.4722 O   0  0  0  0  0  0  0  0  0  0  0  0
   20.6359  -22.3606   -8.3647 C   0  0  0  0  0  0  0  0  0  0  0  0
   21.5535  -21.4280   -7.9206 C   0  0  0  0  0  0  0  0  0  0  0  0
   22.2824  -20.6638   -8.8072 C   0  0  0  0  0  0  0  0  0  0  0  0
   22.1407  -20.7839  -10.1564 C   0  0  0  0  0  0  0  0  0  0  0  0
   22.8943  -19.9934  -11.1518 C   0  0  0  0  0  0  0  0  0  0  0  0
   23.9803  -20.8669  -11.7313 C   0  0  2  0  0  0  0  0  0  0  0  0
   24.9933  -21.0951  -10.7200 N   0  0  0  0  0  0  0  0  0  0  0  0
   24.6578  -20.2276  -12.8829 C   0  0  0  0  0  0  0  0  0  0  0  0
   25.1437  -19.0754  -12.7908 O   0  0  0  0  0  0  0  0  0  0  0  0
   21.2256  -21.7134  -10.6283 C   0  0  0  0  0  0  0  0  0  0  0  0
   20.4918  -22.4826   -9.7434 C   0  0  0  0  0  0  0  0  0  0  0  0
   28.8961  -22.0512  -14.8550 C   0  0  0  0  0  0  0  0  0  0  0  0
   27.7127  -21.2055  -14.5245 C   0  0  1  0  0  0  0  0  0  0  0  0
   28.2698  -19.8420  -14.0838 C   0  0  0  0  0  0  0  0  0  0  0  0
   26.7591  -20.9363  -15.6189 C   0  0  0  0  0  0  0  0  0  0  0  0
   25.4639  -20.2988  -15.2797 C   0  0  2  0  0  0  0  0  0  0  0  0
   24.7927  -20.8866  -14.1530 N   0  0  0  0  0  0  0  0  0  0  0  0
   24.5609  -20.0561  -16.4335 C   0  0  0  0  0  0  0  0  0  0  0  0
   23.6176  -20.8704  -16.7159 O   0  0  0  0  0  0  0  0  0  0  0  0
   23.5338  -15.6999  -20.6219 C   0  0  0  0  0  0  0  0  0  0  0  0
   23.0644  -17.0902  -20.1384 C   0  0  2  0  0  0  0  0  0  0  0  0
   21.6030  -16.8893  -19.7969 C   0  0  0  0  0  0  0  0  0  0  0  0
   23.9325  -17.4212  -18.9721 C   0  0  0  0  0  0  0  0  0  0  0  0
   23.8505  -18.8166  -18.4582 C   0  0  2  0  0  0  0  0  0  0  0  0
   24.6837  -18.9284  -17.2777 N   0  0  0  0  0  0  0  0  0  0  0  0
   24.2670  -19.8674  -19.4104 C   0  0  0  0  0  0  0  0  0  0  0  0
   25.6098  -20.2003  -19.6445 O   0  0  0  0  0  0  0  0  0  0  0  0
   23.4397  -20.5568  -20.0980 O   0  0  0  0  0  0  0  0  0  0  0  0
  2  3  2  0
  2  1  1  0
  4  3  1  0
  5  4  2  0
  6  5  1  0
  7  6  1  0
  7  8  1  1
  9  7  1  0
  9 10  2  0
 11  5  1  0
 11 12  2  0
 12  2  1  0
 14 13  1  6
 14 15  1  0
 16 14  1  0
 17 16  1  6
 17 18  1  0
 18  9  1  0
 19 17  1  0
 19 26  1  0
 20 19  2  0
 22 21  1  1
 23 22  1  0
 24 22  1  0
 25 24  1  6
 25 26  1  0
 25 27  1  0
 27 28  1  0
 29 27  2  0
M  END
$$$$
