YLL.pdb
     RDKit          3D

 29 29  0  0  1  0  0  0  0  0999 V2000
   19.4292  -24.2617  -13.1611 O   0  0  0  0  0  0  0  0  0  0  0  0
   20.4755  -24.3439  -14.0770 C   0  0  0  0  0  0  0  0  0  0  0  0
   21.0789  -23.2091  -14.5845 C   0  0  0  0  0  0  0  0  0  0  0  0
   22.1144  -23.2946  -15.4909 C   0  0  0  0  0  0  0  0  0  0  0  0
   22.5960  -24.4895  -15.9327 C   0  0  0  0  0  0  0  0  0  0  0  0
   23.7019  -24.6409  -16.9009 C   0  0  0  0  0  0  0  0  0  0  0  0
   24.7493  -23.5977  -16.5957 C   0  0  2  0  0  0  0  0  0  0  0  0
   24.1969  -22.2832  -16.8561 N   0  0  0  0  0  0  0  0  0  0  0  0
   25.9473  -23.7395  -17.4550 C   0  0  0  0  0  0  0  0  0  0  0  0
   26.0608  -23.0890  -18.5209 O   0  0  0  0  0  0  0  0  0  0  0  0
   22.0073  -25.6442  -15.4384 C   0  0  0  0  0  0  0  0  0  0  0  0
   20.9682  -25.5643  -14.5290 C   0  0  0  0  0  0  0  0  0  0  0  0
   31.1715  -24.8453  -15.4894 C   0  0  0  0  0  0  0  0  0  0  0  0
   29.9590  -24.3639  -16.2126 C   0  0  1  0  0  0  0  0  0  0  0  0
   30.3761  -23.0740  -16.9378 C   0  0  0  0  0  0  0  0  0  0  0  0
   29.3960  -25.2613  -17.2409 C   0  0  0  0  0  0  0  0  0  0  0  0
   28.1759  -24.8241  -17.9615 C   0  0  2  0  0  0  0  0  0  0  0  0
   27.0313  -24.6203  -17.1165 N   0  0  0  0  0  0  0  0  0  0  0  0
   27.8615  -25.5947  -19.1915 C   0  0  0  0  0  0  0  0  0  0  0  0
   28.7292  -25.7418  -20.1178 O   0  0  0  0  0  0  0  0  0  0  0  0
   26.5580  -30.4374  -21.0773 C   0  0  0  0  0  0  0  0  0  0  0  0
   27.0638  -29.1338  -21.7342 C   0  0  2  0  0  0  0  0  0  0  0  0
   28.3460  -29.5425  -22.4284 C   0  0  0  0  0  0  0  0  0  0  0  0
   27.2478  -28.1674  -20.6137 C   0  0  0  0  0  0  0  0  0  0  0  0
   26.3740  -26.9615  -20.6266 C   0  0  2  0  0  0  0  0  0  0  0  0
   26.6053  -26.2051  -19.4123 N   0  0  0  0  0  0  0  0  0  0  0  0
   24.9242  -27.2313  -20.7255 C   0  0  0  0  0  0  0  0  0  0  0  0
   24.0383  -27.0607  -19.6509 O   0  0  0  0  0  0  0  0  0  0  0  0
   24.3602  -27.6423  -21.7959 O   0  0  0  0  0  0  0  0  0  0  0  0
  2  3  2  0
  2  1  1  0
  4  3  1  0
  5  4  2  0
  6  5  1  0
  7  6  1  0
  7  8  1  6
  9  7  1  0
  9 10  2  0
 11  5  1  0
 11 12  2  0
 12  2  1  0
 14 13  1  6
 14 15  1  0
 16 14  1  0
 17 16  1  1
 17 18  1  0
 18  9  1  0
 19 17  1  0
 19 26  1  0
 20 19  2  0
 22 21  1  1
 23 22  1  0
 24 22  1  0
 25 24  1  1
 25 26  1  0
 25 27  1  0
 27 28  1  0
 29 27  2  0
M  END
$$$$
