QHL.pdb
     RDKit          3D

 28 28  0  0  1  0  0  0  0  0999 V2000
    7.2881  -12.8045   16.0949 N   0  0  0  0  0  0  0  0  0  0  0  0
    8.3315  -13.7428   16.2490 C   0  0  0  0  0  0  0  0  0  0  0  0
    8.5057  -14.5735   15.3349 O   0  0  0  0  0  0  0  0  0  0  0  0
    9.1885  -13.7358   17.4607 C   0  0  0  0  0  0  0  0  0  0  0  0
    8.5060  -14.2564   18.6840 C   0  0  0  0  0  0  0  0  0  0  0  0
    8.9877  -15.6009   19.1627 C   0  0  2  0  0  0  0  0  0  0  0  0
    8.4782  -16.5443   18.1293 N   0  0  0  0  0  0  0  0  0  0  0  0
    8.3850  -16.0325   20.4483 C   0  0  0  0  0  0  0  0  0  0  0  0
    7.1119  -16.1782   20.5472 O   0  0  0  0  0  0  0  0  0  0  0  0
    9.1061  -16.3187   21.6355 N   0  0  0  0  0  0  0  0  0  0  0  0
    8.4048  -16.8349   22.8198 C   0  0  1  0  0  0  0  0  0  0  0  0
    8.7639  -18.2666   23.0274 C   0  0  0  0  0  0  0  0  0  0  0  0
    8.1365  -18.9388   24.1784 C   0  0  0  0  0  0  0  0  0  0  0  0
    6.7601  -18.9050   24.4836 C   0  0  0  0  0  0  0  0  0  0  0  0
    6.5336  -19.6132   25.5854 N   0  0  0  0  0  0  0  0  0  0  0  0
    7.6879  -20.1079   26.0164 C   0  0  0  0  0  0  0  0  0  0  0  0
    8.6300  -19.6980   25.1695 N   0  0  0  0  0  0  0  0  0  0  0  0
    8.7678  -16.0461   24.0105 C   0  0  0  0  0  0  0  0  0  0  0  0
    9.9758  -15.8059   24.2178 O   0  0  0  0  0  0  0  0  0  0  0  0
    5.4439  -12.2761   26.6077 C   0  0  0  0  0  0  0  0  0  0  0  0
    6.6025  -12.9635   25.9165 C   0  0  1  0  0  0  0  0  0  0  0  0
    7.6388  -11.8422   25.6615 C   0  0  0  0  0  0  0  0  0  0  0  0
    7.2127  -14.0368   26.7666 C   0  0  0  0  0  0  0  0  0  0  0  0
    8.3309  -14.7153   26.0549 C   0  0  2  0  0  0  0  0  0  0  0  0
    7.8245  -15.5367   24.9425 N   0  0  0  0  0  0  0  0  0  0  0  0
    9.0556  -15.6241   26.9615 C   0  0  0  0  0  0  0  0  0  0  0  0
    8.6754  -16.7920   27.2454 O   0  0  0  0  0  0  0  0  0  0  0  0
   10.2499  -15.1670   27.5527 O   0  0  0  0  0  0  0  0  0  0  0  0
  1  2  1  0
  2  4  1  0
  2  3  2  0
  4  5  1  0
  5  6  1  0
  6  8  1  0
  6  7  1  6
  8 10  1  0
  8  9  2  0
 10 11  1  0
 11 12  1  1
 11 18  1  0
 13 12  1  0
 13 14  2  0
 15 14  1  0
 16 15  1  0
 17 16  2  0
 17 13  1  0
 18 19  2  0
 21 20  1  1
 21 23  1  0
 21 22  1  0
 24 23  1  1
 24 26  1  0
 25 24  1  0
 25 18  1  0
 26 28  1  0
 27 26  2  0
M  END
$$$$
