QHL.pdb
     RDKit          3D

 28 28  0  0  1  0  0  0  0  0999 V2000
    9.8300  -15.3740   16.0483 N   0  0  0  0  0  0  0  0  0  0  0  0
    8.4653  -15.4092   16.4074 C   0  0  0  0  0  0  0  0  0  0  0  0
    7.7100  -14.5530   15.9052 O   0  0  0  0  0  0  0  0  0  0  0  0
    7.9530  -16.4332   17.3517 C   0  0  0  0  0  0  0  0  0  0  0  0
    7.4474  -15.8662   18.6387 C   0  0  0  0  0  0  0  0  0  0  0  0
    8.5022  -15.6065   19.6821 C   0  0  2  0  0  0  0  0  0  0  0  0
    9.5748  -16.5838   19.3474 N   0  0  0  0  0  0  0  0  0  0  0  0
    8.0705  -15.9254   21.0657 C   0  0  0  0  0  0  0  0  0  0  0  0
    6.8900  -15.6079   21.4625 O   0  0  0  0  0  0  0  0  0  0  0  0
    8.8649  -16.5808   22.0408 N   0  0  0  0  0  0  0  0  0  0  0  0
    8.3164  -16.8579   23.3761 C   0  0  1  0  0  0  0  0  0  0  0  0
    8.6592  -18.2523   23.7765 C   0  0  0  0  0  0  0  0  0  0  0  0
    7.9156  -19.3293   23.1002 C   0  0  0  0  0  0  0  0  0  0  0  0
    6.5982  -19.2186   22.6095 C   0  0  0  0  0  0  0  0  0  0  0  0
    6.2325  -20.3719   22.0592 N   0  0  0  0  0  0  0  0  0  0  0  0
    7.2402  -21.2301   22.1638 C   0  0  0  0  0  0  0  0  0  0  0  0
    8.2323  -20.5951   22.7846 N   0  0  0  0  0  0  0  0  0  0  0  0
    8.8601  -15.9032   24.3581 C   0  0  0  0  0  0  0  0  0  0  0  0
   10.0757  -15.6216   24.3022 O   0  0  0  0  0  0  0  0  0  0  0  0
    5.8159  -11.9525   26.3923 C   0  0  0  0  0  0  0  0  0  0  0  0
    6.9352  -12.7897   25.8102 C   0  0  1  0  0  0  0  0  0  0  0  0
    7.7507  -11.8115   24.9302 C   0  0  0  0  0  0  0  0  0  0  0  0
    7.8165  -13.3742   26.8726 C   0  0  0  0  0  0  0  0  0  0  0  0
    8.7706  -14.3614   26.2963 C   0  0  2  0  0  0  0  0  0  0  0  0
    8.0839  -15.2771   25.3698 N   0  0  0  0  0  0  0  0  0  0  0  0
    9.3679  -15.1944   27.3557 C   0  0  0  0  0  0  0  0  0  0  0  0
   10.0532  -14.7401   28.3112 O   0  0  0  0  0  0  0  0  0  0  0  0
    9.1651  -16.5876   27.3053 O   0  0  0  0  0  0  0  0  0  0  0  0
  1  2  1  0
  2  4  1  0
  2  3  2  0
  4  5  1  0
  5  6  1  0
  6  8  1  0
  6  7  1  6
  8 10  1  0
  8  9  2  0
 10 11  1  0
 11 12  1  1
 11 18  1  0
 13 12  1  0
 13 14  2  0
 15 14  1  0
 16 15  1  0
 17 16  2  0
 17 13  1  0
 18 19  2  0
 21 20  1  1
 21 23  1  0
 21 22  1  0
 24 23  1  1
 24 26  1  0
 25 24  1  0
 25 18  1  0
 26 28  1  0
 27 26  2  0
M  END
$$$$
