QHL.pdb
     RDKit          3D

 28 28  0  0  1  0  0  0  0  0999 V2000
   15.6461  -13.6886   17.6073 N   0  0  0  0  0  0  0  0  0  0  0  0
   14.7782  -14.7322   17.2197 C   0  0  0  0  0  0  0  0  0  0  0  0
   14.6684  -14.9742   16.0010 O   0  0  0  0  0  0  0  0  0  0  0  0
   14.0242  -15.5112   18.2334 C   0  0  0  0  0  0  0  0  0  0  0  0
   13.4576  -14.6759   19.3354 C   0  0  0  0  0  0  0  0  0  0  0  0
   12.7062  -15.4383   20.3952 C   0  0  2  0  0  0  0  0  0  0  0  0
   12.2530  -16.6678   19.6878 N   0  0  0  0  0  0  0  0  0  0  0  0
   11.4755  -14.7567   20.8674 C   0  0  0  0  0  0  0  0  0  0  0  0
   11.5270  -13.5363   21.2672 O   0  0  0  0  0  0  0  0  0  0  0  0
   10.1847  -15.3417   20.9212 N   0  0  0  0  0  0  0  0  0  0  0  0
    9.0310  -14.5467   21.3658 C   0  0  1  0  0  0  0  0  0  0  0  0
    7.8158  -14.9661   20.6113 C   0  0  0  0  0  0  0  0  0  0  0  0
    7.7720  -14.6006   19.1849 C   0  0  0  0  0  0  0  0  0  0  0  0
    8.1674  -13.3544   18.6563 C   0  0  0  0  0  0  0  0  0  0  0  0
    7.9991  -13.3594   17.3378 N   0  0  0  0  0  0  0  0  0  0  0  0
    7.5151  -14.5418   16.9766 C   0  0  0  0  0  0  0  0  0  0  0  0
    7.3860  -15.2674   18.0855 N   0  0  0  0  0  0  0  0  0  0  0  0
    8.8144  -14.7284   22.8120 C   0  0  0  0  0  0  0  0  0  0  0  0
    9.4761  -15.6057   23.4058 O   0  0  0  0  0  0  0  0  0  0  0  0
    8.5918  -12.8086   27.7742 C   0  0  0  0  0  0  0  0  0  0  0  0
    7.2269  -13.1061   27.1901 C   0  0  1  0  0  0  0  0  0  0  0  0
    6.2819  -12.0585   27.8271 C   0  0  0  0  0  0  0  0  0  0  0  0
    7.2075  -12.9683   25.6976 C   0  0  0  0  0  0  0  0  0  0  0  0
    7.9665  -14.0713   25.0460 C   0  0  2  0  0  0  0  0  0  0  0  0
    7.8961  -13.9628   23.5791 N   0  0  0  0  0  0  0  0  0  0  0  0
    7.3983  -15.3831   25.4051 C   0  0  0  0  0  0  0  0  0  0  0  0
    7.6266  -15.9798   26.4918 O   0  0  0  0  0  0  0  0  0  0  0  0
    6.5446  -16.0178   24.4814 O   0  0  0  0  0  0  0  0  0  0  0  0
  1  2  1  0
  2  4  1  0
  2  3  2  0
  4  5  1  0
  5  6  1  0
  6  8  1  0
  6  7  1  6
  8 10  1  0
  8  9  2  0
 10 11  1  0
 11 12  1  6
 11 18  1  0
 13 12  1  0
 13 14  2  0
 15 14  1  0
 16 15  1  0
 17 16  2  0
 17 13  1  0
 18 19  2  0
 21 20  1  1
 21 23  1  0
 21 22  1  0
 24 23  1  1
 24 26  1  0
 25 24  1  0
 25 18  1  0
 26 28  1  0
 27 26  2  0
M  END
$$$$
