QHL.pdb
     RDKit          3D

 28 28  0  0  1  0  0  0  0  0999 V2000
    7.6777  -12.5451   18.1051 N   0  0  0  0  0  0  0  0  0  0  0  0
    8.2075  -13.4240   17.1358 C   0  0  0  0  0  0  0  0  0  0  0  0
    8.3335  -12.9965   15.9708 O   0  0  0  0  0  0  0  0  0  0  0  0
    8.5992  -14.8091   17.4975 C   0  0  0  0  0  0  0  0  0  0  0  0
    8.3626  -15.1462   18.9340 C   0  0  0  0  0  0  0  0  0  0  0  0
    8.9183  -16.4732   19.3802 C   0  0  2  0  0  0  0  0  0  0  0  0
    8.0652  -17.4669   18.6714 N   0  0  0  0  0  0  0  0  0  0  0  0
    8.7454  -16.7405   20.8297 C   0  0  0  0  0  0  0  0  0  0  0  0
    7.5679  -16.8938   21.3215 O   0  0  0  0  0  0  0  0  0  0  0  0
    9.7986  -16.8539   21.7727 N   0  0  0  0  0  0  0  0  0  0  0  0
    9.4982  -17.1104   23.1886 C   0  0  1  0  0  0  0  0  0  0  0  0
   10.5725  -17.9571   23.7810 C   0  0  0  0  0  0  0  0  0  0  0  0
   10.4635  -19.4083   23.5520 C   0  0  0  0  0  0  0  0  0  0  0  0
    9.4153  -20.0406   22.8521 C   0  0  0  0  0  0  0  0  0  0  0  0
    9.6256  -21.3529   22.8311 N   0  0  0  0  0  0  0  0  0  0  0  0
   10.7549  -21.6119   23.4796 C   0  0  0  0  0  0  0  0  0  0  0  0
   11.2401  -20.4461   23.9016 N   0  0  0  0  0  0  0  0  0  0  0  0
    9.3946  -15.8385   23.9256 C   0  0  0  0  0  0  0  0  0  0  0  0
   10.2582  -14.9602   23.7184 O   0  0  0  0  0  0  0  0  0  0  0  0
    7.8998  -11.2812   25.9851 C   0  0  0  0  0  0  0  0  0  0  0  0
    7.1297  -12.4362   26.5899 C   0  0  1  0  0  0  0  0  0  0  0  0
    5.6939  -11.8956   26.7962 C   0  0  0  0  0  0  0  0  0  0  0  0
    7.0986  -13.6312   25.6855 C   0  0  0  0  0  0  0  0  0  0  0  0
    8.4419  -14.2662   25.5875 C   0  0  2  0  0  0  0  0  0  0  0  0
    8.3670  -15.5452   24.8616 N   0  0  0  0  0  0  0  0  0  0  0  0
    8.9799  -14.5660   26.9268 C   0  0  0  0  0  0  0  0  0  0  0  0
    9.2860  -13.6891   27.7790 O   0  0  0  0  0  0  0  0  0  0  0  0
    9.1670  -15.9154   27.2857 O   0  0  0  0  0  0  0  0  0  0  0  0
  1  2  1  0
  2  4  1  0
  2  3  2  0
  4  5  1  0
  5  6  1  0
  6  8  1  0
  6  7  1  6
  8 10  1  0
  8  9  2  0
 10 11  1  0
 11 12  1  1
 11 18  1  0
 13 12  1  0
 13 14  2  0
 15 14  1  0
 16 15  1  0
 17 16  2  0
 17 13  1  0
 18 19  2  0
 21 20  1  6
 21 23  1  0
 21 22  1  0
 24 23  1  1
 24 26  1  0
 25 24  1  0
 25 18  1  0
 26 28  1  0
 27 26  2  0
M  END
$$$$
