QHL.pdb
     RDKit          3D

 28 28  0  0  1  0  0  0  0  0999 V2000
   11.1064  -13.3942   19.5131 N   0  0  0  0  0  0  0  0  0  0  0  0
   10.3841  -12.7025   18.5168 C   0  0  0  0  0  0  0  0  0  0  0  0
   11.0205  -12.2591   17.5399 O   0  0  0  0  0  0  0  0  0  0  0  0
    8.9169  -12.5125   18.6341 C   0  0  0  0  0  0  0  0  0  0  0  0
    8.3117  -13.2084   19.8101 C   0  0  0  0  0  0  0  0  0  0  0  0
    8.3110  -14.7127   19.7332 C   0  0  2  0  0  0  0  0  0  0  0  0
    7.1946  -15.0154   18.7953 N   0  0  0  0  0  0  0  0  0  0  0  0
    7.9668  -15.3799   21.0133 C   0  0  0  0  0  0  0  0  0  0  0  0
    6.7827  -15.2688   21.5006 O   0  0  0  0  0  0  0  0  0  0  0  0
    8.8531  -16.1696   21.7893 N   0  0  0  0  0  0  0  0  0  0  0  0
    8.3867  -16.7965   23.0344 C   0  0  1  0  0  0  0  0  0  0  0  0
    9.0267  -18.1337   23.1896 C   0  0  0  0  0  0  0  0  0  0  0  0
    8.7749  -18.8368   24.4595 C   0  0  0  0  0  0  0  0  0  0  0  0
    7.9550  -18.3566   25.5016 C   0  0  0  0  0  0  0  0  0  0  0  0
    7.9473  -19.2349   26.4992 N   0  0  0  0  0  0  0  0  0  0  0  0
    8.7180  -20.2631   26.1649 C   0  0  0  0  0  0  0  0  0  0  0  0
    9.2021  -20.0110   24.9504 N   0  0  0  0  0  0  0  0  0  0  0  0
    8.7166  -15.9424   24.1891 C   0  0  0  0  0  0  0  0  0  0  0  0
    9.8772  -15.4901   24.2806 O   0  0  0  0  0  0  0  0  0  0  0  0
    5.7272  -11.9223   26.4461 C   0  0  0  0  0  0  0  0  0  0  0  0
    6.8483  -12.7959   25.9240 C   0  0  1  0  0  0  0  0  0  0  0  0
    8.0631  -11.8468   25.7833 C   0  0  0  0  0  0  0  0  0  0  0  0
    7.1815  -13.9129   26.8664 C   0  0  0  0  0  0  0  0  0  0  0  0
    8.2760  -14.7648   26.3247 C   0  0  2  0  0  0  0  0  0  0  0  0
    7.7918  -15.5971   25.2106 N   0  0  0  0  0  0  0  0  0  0  0  0
    8.7839  -15.6864   27.3570 C   0  0  0  0  0  0  0  0  0  0  0  0
    8.5503  -16.9249   27.3767 O   0  0  0  0  0  0  0  0  0  0  0  0
    9.5820  -15.1583   28.3909 O   0  0  0  0  0  0  0  0  0  0  0  0
  1  2  1  0
  2  4  1  0
  2  3  2  0
  4  5  1  0
  5  6  1  0
  6  8  1  0
  6  7  1  6
  8 10  1  0
  8  9  2  0
 10 11  1  0
 11 12  1  1
 11 18  1  0
 13 12  1  0
 13 14  2  0
 15 14  1  0
 16 15  1  0
 17 16  2  0
 17 13  1  0
 18 19  2  0
 21 20  1  1
 21 23  1  0
 21 22  1  0
 24 23  1  1
 24 26  1  0
 25 24  1  0
 25 18  1  0
 26 28  1  0
 27 26  2  0
M  END
$$$$
