FYE.pdb
     RDKit          3D

 33 34  0  0  1  0  0  0  0  0999 V2000
    6.4584  -18.3367   26.5664 N   0  0  0  0  0  0  0  0  0  0  0  0
    7.1459  -17.1041   26.3025 C   0  0  1  0  0  0  0  0  0  0  0  0
    8.2717  -16.8660   27.2640 C   0  0  0  0  0  0  0  0  0  0  0  0
    8.4461  -15.4119   27.4663 C   0  0  0  0  0  0  0  0  0  0  0  0
    7.4285  -14.5360   27.1601 C   0  0  0  0  0  0  0  0  0  0  0  0
    7.5715  -13.1749   27.3297 C   0  0  0  0  0  0  0  0  0  0  0  0
    8.7568  -12.6873   27.8151 C   0  0  0  0  0  0  0  0  0  0  0  0
    9.7856  -13.5601   28.1261 C   0  0  0  0  0  0  0  0  0  0  0  0
    9.6321  -14.9189   27.9527 C   0  0  0  0  0  0  0  0  0  0  0  0
    7.5291  -17.0171   24.8777 C   0  0  0  0  0  0  0  0  0  0  0  0
    7.9660  -18.0248   24.2389 O   0  0  0  0  0  0  0  0  0  0  0  0
    8.3249  -13.0481   16.8931 O   0  0  0  0  0  0  0  0  0  0  0  0
    8.1212  -13.3074   18.2444 C   0  0  0  0  0  0  0  0  0  0  0  0
    7.2536  -14.2845   18.6796 C   0  0  0  0  0  0  0  0  0  0  0  0
    7.0408  -14.5531   20.0104 C   0  0  0  0  0  0  0  0  0  0  0  0
    7.7117  -13.8295   21.0115 C   0  0  0  0  0  0  0  0  0  0  0  0
    7.5119  -14.1142   22.4306 C   0  0  0  0  0  0  0  0  0  0  0  0
    7.6371  -15.5667   22.8194 C   0  0  2  0  0  0  0  0  0  0  0  0
    7.4021  -15.7590   24.2188 N   0  0  0  0  0  0  0  0  0  0  0  0
    8.9223  -16.1791   22.4194 C   0  0  0  0  0  0  0  0  0  0  0  0
    9.0346  -17.1078   21.5770 O   0  0  0  0  0  0  0  0  0  0  0  0
    8.5744  -12.8585   20.5768 C   0  0  0  0  0  0  0  0  0  0  0  0
    8.7849  -12.5912   19.2159 C   0  0  0  0  0  0  0  0  0  0  0  0
   10.1705  -15.7387   22.9849 N   0  0  0  0  0  0  0  0  0  0  0  0
   11.4569  -16.3047   22.5924 C   0  0  1  0  0  0  0  0  0  0  0  0
   12.1942  -15.2121   21.8672 C   0  0  0  0  0  0  0  0  0  0  0  0
   13.5993  -15.5334   21.4934 C   0  0  0  0  0  0  0  0  0  0  0  0
   14.0846  -14.9435   20.2468 C   0  0  0  0  0  0  0  0  0  0  0  0
   13.4189  -13.9482   19.7988 O   0  0  0  0  0  0  0  0  0  0  0  0
   12.1923  -16.7649   23.7945 C   0  0  0  0  0  0  0  0  0  0  0  0
   13.2226  -17.4654   23.6843 O   0  0  0  0  0  0  0  0  0  0  0  0
   15.1807  -15.3941   19.5614 O   0  0  0  0  0  0  0  0  0  0  0  0
   11.7583  -16.4313   25.0673 O   0  0  0  0  0  0  0  0  0  0  0  0
  2  1  1  6
  3  2  1  0
  4  5  2  0
  4  3  1  0
  6  5  1  0
  7  6  2  0
  8  7  1  0
  8  9  2  0
  9  4  1  0
 10  2  1  0
 11 10  2  0
 13 12  1  0
 13 14  2  0
 15 14  1  0
 16 15  2  0
 17 16  1  0
 18 17  1  1
 18 19  1  0
 19 10  1  0
 20 18  1  0
 21 20  2  0
 22 23  2  0
 22 16  1  0
 23 13  1  0
 24 20  1  0
 25 24  1  0
 26 27  1  0
 25 26  1  1
 27 28  1  0
 28 32  1  0
 28 29  2  0
 30 25  1  0
 30 33  1  0
 31 30  2  0
M  END
$$$$
