FYE.pdb
     RDKit          3D

 33 34  0  0  1  0  0  0  0  0999 V2000
    5.4024  -17.4577   24.5352 N   0  0  0  0  0  0  0  0  0  0  0  0
    6.4364  -16.4759   24.7047 C   0  0  1  0  0  0  0  0  0  0  0  0
    6.7704  -16.2483   26.1488 C   0  0  0  0  0  0  0  0  0  0  0  0
    6.9547  -14.8011   26.3884 C   0  0  0  0  0  0  0  0  0  0  0  0
    5.8771  -13.9442   26.3582 C   0  0  0  0  0  0  0  0  0  0  0  0
    6.0256  -12.5892   26.5676 C   0  0  0  0  0  0  0  0  0  0  0  0
    7.2779  -12.0884   26.8113 C   0  0  0  0  0  0  0  0  0  0  0  0
    8.3674  -12.9422   26.8438 C   0  0  0  0  0  0  0  0  0  0  0  0
    8.2078  -14.2950   26.6331 C   0  0  0  0  0  0  0  0  0  0  0  0
    7.5997  -16.7930   23.8500 C   0  0  0  0  0  0  0  0  0  0  0  0
    7.9023  -17.9893   23.5474 O   0  0  0  0  0  0  0  0  0  0  0  0
    6.2576  -13.3387   17.4186 O   0  0  0  0  0  0  0  0  0  0  0  0
    7.1162  -13.6505   18.4675 C   0  0  0  0  0  0  0  0  0  0  0  0
    7.7528  -14.8687   18.5550 C   0  0  0  0  0  0  0  0  0  0  0  0
    8.6036  -15.1926   19.5844 C   0  0  0  0  0  0  0  0  0  0  0  0
    8.8707  -14.2783   20.6181 C   0  0  0  0  0  0  0  0  0  0  0  0
    9.7870  -14.5986   21.7102 C   0  0  0  0  0  0  0  0  0  0  0  0
    9.4849  -15.8791   22.4490 C   0  0  2  0  0  0  0  0  0  0  0  0
    8.3956  -15.7144   23.3638 N   0  0  0  0  0  0  0  0  0  0  0  0
   10.6587  -16.4576   23.1375 C   0  0  0  0  0  0  0  0  0  0  0  0
   11.6615  -16.9393   22.5483 O   0  0  0  0  0  0  0  0  0  0  0  0
    8.2371  -13.0672   20.5292 C   0  0  0  0  0  0  0  0  0  0  0  0
    7.3699  -12.7455   19.4746 C   0  0  0  0  0  0  0  0  0  0  0  0
   10.7349  -16.5092   24.5739 N   0  0  0  0  0  0  0  0  0  0  0  0
   11.8863  -17.0577   25.2830 C   0  0  1  0  0  0  0  0  0  0  0  0
   13.0174  -16.0910   25.0608 C   0  0  0  0  0  0  0  0  0  0  0  0
   14.2241  -16.6652   24.4038 C   0  0  0  0  0  0  0  0  0  0  0  0
   14.8685  -15.8257   23.3950 C   0  0  0  0  0  0  0  0  0  0  0  0
   16.1467  -15.8090   23.4100 O   0  0  0  0  0  0  0  0  0  0  0  0
   11.5647  -17.2118   26.7218 C   0  0  0  0  0  0  0  0  0  0  0  0
   12.4156  -17.6583   27.5227 O   0  0  0  0  0  0  0  0  0  0  0  0
   14.1882  -15.0821   22.4685 O   0  0  0  0  0  0  0  0  0  0  0  0
   10.3170  -16.8658   27.2150 O   0  0  0  0  0  0  0  0  0  0  0  0
  2  1  1  1
  3  2  1  0
  4  5  2  0
  4  3  1  0
  6  5  1  0
  7  6  2  0
  8  7  1  0
  8  9  2  0
  9  4  1  0
 10  2  1  0
 11 10  2  0
 13 12  1  0
 13 14  2  0
 15 14  1  0
 16 15  2  0
 17 16  1  0
 18 17  1  1
 18 19  1  0
 19 10  1  0
 20 18  1  0
 21 20  2  0
 22 23  2  0
 22 16  1  0
 23 13  1  0
 24 20  1  0
 25 24  1  0
 26 27  1  0
 25 26  1  1
 27 28  1  0
 28 32  1  0
 28 29  2  0
 30 25  1  0
 30 33  1  0
 31 30  2  0
M  END
$$$$
