FYE.pdb
     RDKit          3D

 33 34  0  0  1  0  0  0  0  0999 V2000
    7.6599  -17.8966   20.9347 N   0  0  0  0  0  0  0  0  0  0  0  0
    7.9095  -16.5006   20.7105 C   0  0  1  0  0  0  0  0  0  0  0  0
    6.6715  -15.7629   20.2958 C   0  0  0  0  0  0  0  0  0  0  0  0
    6.9938  -14.3335   20.0989 C   0  0  0  0  0  0  0  0  0  0  0  0
    6.8007  -13.4262   21.1167 C   0  0  0  0  0  0  0  0  0  0  0  0
    7.0834  -12.0863   20.9532 C   0  0  0  0  0  0  0  0  0  0  0  0
    7.5681  -11.6525   19.7469 C   0  0  0  0  0  0  0  0  0  0  0  0
    7.7659  -12.5573   18.7177 C   0  0  0  0  0  0  0  0  0  0  0  0
    7.4799  -13.8944   18.8917 C   0  0  0  0  0  0  0  0  0  0  0  0
    8.6182  -15.9072   21.8638 C   0  0  0  0  0  0  0  0  0  0  0  0
    9.3899  -14.9063   21.7331 O   0  0  0  0  0  0  0  0  0  0  0  0
   10.4529  -14.2292   30.3983 O   0  0  0  0  0  0  0  0  0  0  0  0
    9.8832  -14.5319   29.1660 C   0  0  0  0  0  0  0  0  0  0  0  0
    9.5541  -13.5556   28.2520 C   0  0  0  0  0  0  0  0  0  0  0  0
    8.9907  -13.8376   27.0308 C   0  0  0  0  0  0  0  0  0  0  0  0
    8.7177  -15.1623   26.6478 C   0  0  0  0  0  0  0  0  0  0  0  0
    8.1364  -15.4820   25.3459 C   0  0  0  0  0  0  0  0  0  0  0  0
    9.0995  -16.0512   24.3335 C   0  0  2  0  0  0  0  0  0  0  0  0
    8.4217  -16.4891   23.1506 N   0  0  0  0  0  0  0  0  0  0  0  0
    9.9560  -17.1302   24.8711 C   0  0  0  0  0  0  0  0  0  0  0  0
    9.5343  -18.2631   25.2222 O   0  0  0  0  0  0  0  0  0  0  0  0
    9.0460  -16.1319   27.5578 C   0  0  0  0  0  0  0  0  0  0  0  0
    9.6206  -15.8343   28.8024 C   0  0  0  0  0  0  0  0  0  0  0  0
   11.3749  -16.9505   25.0328 N   0  0  0  0  0  0  0  0  0  0  0  0
   12.2553  -18.0137   25.5058 C   0  0  1  0  0  0  0  0  0  0  0  0
   13.6271  -17.6900   24.9798 C   0  0  0  0  0  0  0  0  0  0  0  0
   13.6627  -17.1269   23.6018 C   0  0  0  0  0  0  0  0  0  0  0  0
   14.9891  -16.8385   23.0585 C   0  0  0  0  0  0  0  0  0  0  0  0
   15.6414  -17.8403   22.6053 O   0  0  0  0  0  0  0  0  0  0  0  0
   12.2290  -18.0676   26.9869 C   0  0  0  0  0  0  0  0  0  0  0  0
   11.7229  -17.1366   27.6515 O   0  0  0  0  0  0  0  0  0  0  0  0
   15.5446  -15.5880   23.0160 O   0  0  0  0  0  0  0  0  0  0  0  0
   12.7627  -19.1478   27.6710 O   0  0  0  0  0  0  0  0  0  0  0  0
  2  1  1  1
  3  2  1  0
  4  5  2  0
  4  3  1  0
  6  5  1  0
  7  6  2  0
  8  7  1  0
  8  9  2  0
  9  4  1  0
 10  2  1  0
 11 10  2  0
 13 12  1  0
 13 14  2  0
 15 14  1  0
 16 15  2  0
 17 16  1  0
 18 17  1  1
 18 19  1  0
 19 10  1  0
 20 18  1  0
 21 20  2  0
 22 23  2  0
 22 16  1  0
 23 13  1  0
 24 20  1  0
 25 24  1  0
 26 27  1  0
 25 26  1  1
 27 28  1  0
 28 32  1  0
 28 29  2  0
 30 25  1  0
 30 33  1  0
 31 30  2  0
M  END
$$$$
