FYE.pdb
     RDKit          3D

 33 34  0  0  1  0  0  0  0  0999 V2000
    6.3576  -18.3484   26.1207 N   0  0  0  0  0  0  0  0  0  0  0  0
    6.7115  -16.9697   25.9320 C   0  0  1  0  0  0  0  0  0  0  0  0
    7.4745  -16.4157   27.0980 C   0  0  0  0  0  0  0  0  0  0  0  0
    7.5027  -14.9401   27.0106 C   0  0  0  0  0  0  0  0  0  0  0  0
    6.3368  -14.2120   27.0933 C   0  0  0  0  0  0  0  0  0  0  0  0
    6.3368  -12.8358   27.0033 C   0  0  0  0  0  0  0  0  0  0  0  0
    7.5283  -12.1819   26.8274 C   0  0  0  0  0  0  0  0  0  0  0  0
    8.7058  -12.9054   26.7433 C   0  0  0  0  0  0  0  0  0  0  0  0
    8.6946  -14.2808   26.8345 C   0  0  0  0  0  0  0  0  0  0  0  0
    7.3691  -16.7761   24.6226 C   0  0  0  0  0  0  0  0  0  0  0  0
    8.2193  -17.6053   24.1709 O   0  0  0  0  0  0  0  0  0  0  0  0
    8.7242  -12.8036   16.7027 O   0  0  0  0  0  0  0  0  0  0  0  0
    8.3052  -13.1158   17.9918 C   0  0  0  0  0  0  0  0  0  0  0  0
    8.6275  -12.3308   19.0765 C   0  0  0  0  0  0  0  0  0  0  0  0
    8.2219  -12.6252   20.3561 C   0  0  0  0  0  0  0  0  0  0  0  0
    7.4430  -13.7640   20.6250 C   0  0  0  0  0  0  0  0  0  0  0  0
    6.9871  -14.0822   21.9762 C   0  0  0  0  0  0  0  0  0  0  0  0
    7.6446  -15.2828   22.6111 C   0  0  2  0  0  0  0  0  0  0  0  0
    7.0312  -15.6193   23.8605 N   0  0  0  0  0  0  0  0  0  0  0  0
    9.1078  -15.1418   22.7720 C   0  0  0  0  0  0  0  0  0  0  0  0
    9.6601  -14.3755   23.6041 O   0  0  0  0  0  0  0  0  0  0  0  0
    7.1231  -14.5433   19.5449 C   0  0  0  0  0  0  0  0  0  0  0  0
    7.5420  -14.2349   18.2422 C   0  0  0  0  0  0  0  0  0  0  0  0
   10.0271  -15.8967   21.9616 N   0  0  0  0  0  0  0  0  0  0  0  0
   11.4747  -15.7416   22.0592 C   0  0  1  0  0  0  0  0  0  0  0  0
   12.0521  -17.1294   21.9985 C   0  0  0  0  0  0  0  0  0  0  0  0
   11.7680  -17.9882   23.1813 C   0  0  0  0  0  0  0  0  0  0  0  0
   12.3233  -19.3402   23.1434 C   0  0  0  0  0  0  0  0  0  0  0  0
   13.2009  -19.6131   24.0321 O   0  0  0  0  0  0  0  0  0  0  0  0
   11.9656  -14.8890   20.9503 C   0  0  0  0  0  0  0  0  0  0  0  0
   11.2598  -14.6892   19.9371 O   0  0  0  0  0  0  0  0  0  0  0  0
   11.9592  -20.2929   22.2302 O   0  0  0  0  0  0  0  0  0  0  0  0
   13.2151  -14.2932   21.0079 O   0  0  0  0  0  0  0  0  0  0  0  0
  2  1  1  1
  3  2  1  0
  4  5  2  0
  4  3  1  0
  6  5  1  0
  7  6  2  0
  8  7  1  0
  8  9  2  0
  9  4  1  0
 10  2  1  0
 11 10  2  0
 13 12  1  0
 13 14  2  0
 15 14  1  0
 16 15  2  0
 17 16  1  0
 18 17  1  1
 18 19  1  0
 19 10  1  0
 20 18  1  0
 21 20  2  0
 22 23  2  0
 22 16  1  0
 23 13  1  0
 24 20  1  0
 25 24  1  0
 26 27  1  0
 25 26  1  6
 27 28  1  0
 28 32  1  0
 28 29  2  0
 30 25  1  0
 30 33  1  0
 31 30  2  0
M  END
$$$$
