FYE.pdb
     RDKit          3D

 33 34  0  0  1  0  0  0  0  0999 V2000
    7.0353  -13.3868   23.5717 N   0  0  0  0  0  0  0  0  0  0  0  0
    7.4657  -14.7109   23.2205 C   0  0  1  0  0  0  0  0  0  0  0  0
    8.6184  -14.6963   22.2616 C   0  0  0  0  0  0  0  0  0  0  0  0
    8.1955  -14.0634   20.9941 C   0  0  0  0  0  0  0  0  0  0  0  0
    7.4284  -14.7593   20.0866 C   0  0  0  0  0  0  0  0  0  0  0  0
    7.0312  -14.1941   18.8930 C   0  0  0  0  0  0  0  0  0  0  0  0
    7.4115  -12.9086   18.6080 C   0  0  0  0  0  0  0  0  0  0  0  0
    8.1825  -12.2009   19.5144 C   0  0  0  0  0  0  0  0  0  0  0  0
    8.5742  -12.7753   20.7046 C   0  0  0  0  0  0  0  0  0  0  0  0
    7.6894  -15.5241   24.4342 C   0  0  0  0  0  0  0  0  0  0  0  0
    8.0726  -15.0035   25.5280 O   0  0  0  0  0  0  0  0  0  0  0  0
    6.9180  -22.7052   29.6911 O   0  0  0  0  0  0  0  0  0  0  0  0
    6.8210  -21.7588   28.6764 C   0  0  0  0  0  0  0  0  0  0  0  0
    6.7312  -22.1153   27.3491 C   0  0  0  0  0  0  0  0  0  0  0  0
    6.6350  -21.1932   26.3347 C   0  0  0  0  0  0  0  0  0  0  0  0
    6.6231  -19.8144   26.6082 C   0  0  0  0  0  0  0  0  0  0  0  0
    6.5025  -18.8205   25.5440 C   0  0  0  0  0  0  0  0  0  0  0  0
    7.6327  -17.8242   25.4629 C   0  0  2  0  0  0  0  0  0  0  0  0
    7.4680  -16.9305   24.3562 N   0  0  0  0  0  0  0  0  0  0  0  0
    8.9727  -18.4487   25.4314 C   0  0  0  0  0  0  0  0  0  0  0  0
    9.4762  -19.0978   26.3853 O   0  0  0  0  0  0  0  0  0  0  0  0
    6.7120  -19.4618   27.9287 C   0  0  0  0  0  0  0  0  0  0  0  0
    6.8102  -20.4104   28.9574 C   0  0  0  0  0  0  0  0  0  0  0  0
    9.8171  -18.3530   24.2696 N   0  0  0  0  0  0  0  0  0  0  0  0
   11.0817  -19.0717   24.1529 C   0  0  1  0  0  0  0  0  0  0  0  0
   11.6400  -18.7248   22.7997 C   0  0  0  0  0  0  0  0  0  0  0  0
   10.8304  -17.7587   22.0069 C   0  0  0  0  0  0  0  0  0  0  0  0
   11.4209  -17.3042   20.7490 C   0  0  0  0  0  0  0  0  0  0  0  0
   12.1942  -16.2890   20.8248 O   0  0  0  0  0  0  0  0  0  0  0  0
   11.9941  -18.6663   25.2486 C   0  0  0  0  0  0  0  0  0  0  0  0
   11.6864  -17.7351   26.0251 O   0  0  0  0  0  0  0  0  0  0  0  0
   11.1900  -17.8957   19.5361 O   0  0  0  0  0  0  0  0  0  0  0  0
   13.2076  -19.3069   25.4401 O   0  0  0  0  0  0  0  0  0  0  0  0
  2  1  1  1
  3  2  1  0
  4  5  2  0
  4  3  1  0
  6  5  1  0
  7  6  2  0
  8  7  1  0
  8  9  2  0
  9  4  1  0
 10  2  1  0
 11 10  2  0
 13 12  1  0
 13 14  2  0
 15 14  1  0
 16 15  2  0
 17 16  1  0
 18 17  1  6
 18 19  1  0
 19 10  1  0
 20 18  1  0
 21 20  2  0
 22 23  2  0
 22 16  1  0
 23 13  1  0
 24 20  1  0
 25 24  1  0
 26 27  1  0
 25 26  1  6
 27 28  1  0
 28 32  1  0
 28 29  2  0
 30 25  1  0
 30 33  1  0
 31 30  2  0
M  END
$$$$
