FYE.pdb
     RDKit          3D

 33 34  0  0  1  0  0  0  0  0999 V2000
    9.7663  -17.1606   19.6532 N   0  0  0  0  0  0  0  0  0  0  0  0
    9.2752  -16.2024   20.6032 C   0  0  1  0  0  0  0  0  0  0  0  0
    7.7820  -16.0730   20.5573 C   0  0  0  0  0  0  0  0  0  0  0  0
    7.4072  -14.6502   20.7030 C   0  0  0  0  0  0  0  0  0  0  0  0
    6.8955  -14.1798   21.8917 C   0  0  0  0  0  0  0  0  0  0  0  0
    6.5285  -12.8597   22.0480 C   0  0  0  0  0  0  0  0  0  0  0  0
    6.6786  -11.9993   20.9917 C   0  0  0  0  0  0  0  0  0  0  0  0
    7.1925  -12.4630   19.7926 C   0  0  0  0  0  0  0  0  0  0  0  0
    7.5562  -13.7846   19.6471 C   0  0  0  0  0  0  0  0  0  0  0  0
    9.8250  -16.4745   21.9479 C   0  0  0  0  0  0  0  0  0  0  0  0
   10.6357  -17.4297   22.1593 O   0  0  0  0  0  0  0  0  0  0  0  0
   10.7106  -15.2596   30.7836 O   0  0  0  0  0  0  0  0  0  0  0  0
   10.3667  -15.1400   29.4412 C   0  0  0  0  0  0  0  0  0  0  0  0
    9.5187  -16.0303   28.8207 C   0  0  0  0  0  0  0  0  0  0  0  0
    9.1691  -15.9266   27.4957 C   0  0  0  0  0  0  0  0  0  0  0  0
    9.6700  -14.8863   26.6939 C   0  0  0  0  0  0  0  0  0  0  0  0
    9.2944  -14.7497   25.2886 C   0  0  0  0  0  0  0  0  0  0  0  0
    9.9769  -15.7081   24.3440 C   0  0  2  0  0  0  0  0  0  0  0  0
    9.4205  -15.6344   23.0266 N   0  0  0  0  0  0  0  0  0  0  0  0
    9.9902  -17.1063   24.8249 C   0  0  0  0  0  0  0  0  0  0  0  0
    8.9598  -17.8105   24.9895 O   0  0  0  0  0  0  0  0  0  0  0  0
   10.5129  -14.0016   27.3128 C   0  0  0  0  0  0  0  0  0  0  0  0
   10.8643  -14.1158   28.6661 C   0  0  0  0  0  0  0  0  0  0  0  0
   11.2227  -17.7766   25.1465 N   0  0  0  0  0  0  0  0  0  0  0  0
   11.2650  -19.1264   25.6994 C   0  0  1  0  0  0  0  0  0  0  0  0
   12.2900  -19.8789   24.8955 C   0  0  0  0  0  0  0  0  0  0  0  0
   13.6209  -19.2201   24.7865 C   0  0  0  0  0  0  0  0  0  0  0  0
   14.3236  -19.3951   23.5164 C   0  0  0  0  0  0  0  0  0  0  0  0
   15.4022  -20.0802   23.5599 O   0  0  0  0  0  0  0  0  0  0  0  0
   11.6214  -19.0705   27.1372 C   0  0  0  0  0  0  0  0  0  0  0  0
   11.8771  -17.9782   27.6903 O   0  0  0  0  0  0  0  0  0  0  0  0
   13.8940  -18.8756   22.3249 O   0  0  0  0  0  0  0  0  0  0  0  0
   11.6798  -20.2237   27.9029 O   0  0  0  0  0  0  0  0  0  0  0  0
  2  1  1  6
  3  2  1  0
  4  5  2  0
  4  3  1  0
  6  5  1  0
  7  6  2  0
  8  7  1  0
  8  9  2  0
  9  4  1  0
 10  2  1  0
 11 10  2  0
 13 12  1  0
 13 14  2  0
 15 14  1  0
 16 15  2  0
 17 16  1  0
 18 17  1  1
 18 19  1  0
 19 10  1  0
 20 18  1  0
 21 20  2  0
 22 23  2  0
 22 16  1  0
 23 13  1  0
 24 20  1  0
 25 24  1  0
 26 27  1  0
 25 26  1  6
 27 28  1  0
 28 32  1  0
 28 29  2  0
 30 25  1  0
 30 33  1  0
 31 30  2  0
M  END
$$$$
