FYE.pdb
     RDKit          3D

 33 34  0  0  1  0  0  0  0  0999 V2000
    6.3796  -18.4401   26.3304 N   0  0  0  0  0  0  0  0  0  0  0  0
    6.6002  -17.0322   26.1551 C   0  0  1  0  0  0  0  0  0  0  0  0
    7.1769  -16.3919   27.3823 C   0  0  0  0  0  0  0  0  0  0  0  0
    7.1700  -14.9224   27.2194 C   0  0  0  0  0  0  0  0  0  0  0  0
    5.9816  -14.2271   27.1927 C   0  0  0  0  0  0  0  0  0  0  0  0
    5.9494  -12.8579   27.0306 C   0  0  0  0  0  0  0  0  0  0  0  0
    7.1312  -12.1776   26.8934 C   0  0  0  0  0  0  0  0  0  0  0  0
    8.3310  -12.8680   26.9192 C   0  0  0  0  0  0  0  0  0  0  0  0
    8.3520  -14.2366   27.0816 C   0  0  0  0  0  0  0  0  0  0  0  0
    7.3626  -16.7757   24.9152 C   0  0  0  0  0  0  0  0  0  0  0  0
    8.3668  -17.4821   24.5881 O   0  0  0  0  0  0  0  0  0  0  0  0
    8.7698  -13.1480   16.8699 O   0  0  0  0  0  0  0  0  0  0  0  0
    8.2943  -13.4224   18.1479 C   0  0  0  0  0  0  0  0  0  0  0  0
    7.6870  -14.6180   18.4620 C   0  0  0  0  0  0  0  0  0  0  0  0
    7.2117  -14.9047   19.7191 C   0  0  0  0  0  0  0  0  0  0  0  0
    7.3247  -13.9734   20.7659 C   0  0  0  0  0  0  0  0  0  0  0  0
    6.8420  -14.2685   22.1130 C   0  0  0  0  0  0  0  0  0  0  0  0
    7.5761  -15.3735   22.8319 C   0  0  2  0  0  0  0  0  0  0  0  0
    6.9481  -15.6994   24.0768 N   0  0  0  0  0  0  0  0  0  0  0  0
    9.0149  -15.0971   23.0324 C   0  0  0  0  0  0  0  0  0  0  0  0
    9.4703  -14.2795   23.8743 O   0  0  0  0  0  0  0  0  0  0  0  0
    7.9293  -12.7852   20.4519 C   0  0  0  0  0  0  0  0  0  0  0  0
    8.4113  -12.5013   19.1654 C   0  0  0  0  0  0  0  0  0  0  0  0
   10.0225  -15.7672   22.2531 N   0  0  0  0  0  0  0  0  0  0  0  0
   11.4490  -15.5079   22.4186 C   0  0  1  0  0  0  0  0  0  0  0  0
   11.8403  -16.1287   23.7319 C   0  0  0  0  0  0  0  0  0  0  0  0
   11.7643  -17.6151   23.7798 C   0  0  0  0  0  0  0  0  0  0  0  0
   12.2541  -18.2454   25.0047 C   0  0  0  0  0  0  0  0  0  0  0  0
   11.5531  -18.0518   26.0562 O   0  0  0  0  0  0  0  0  0  0  0  0
   12.2020  -16.0929   21.2837 C   0  0  0  0  0  0  0  0  0  0  0  0
   13.4390  -15.9340   21.1877 O   0  0  0  0  0  0  0  0  0  0  0  0
   13.3904  -19.0058   25.0738 O   0  0  0  0  0  0  0  0  0  0  0  0
   11.5567  -16.8290   20.3032 O   0  0  0  0  0  0  0  0  0  0  0  0
  2  1  1  1
  3  2  1  0
  4  5  2  0
  4  3  1  0
  6  5  1  0
  7  6  2  0
  8  7  1  0
  8  9  2  0
  9  4  1  0
 10  2  1  0
 11 10  2  0
 13 12  1  0
 13 14  2  0
 15 14  1  0
 16 15  2  0
 17 16  1  0
 18 17  1  1
 18 19  1  0
 19 10  1  0
 20 18  1  0
 21 20  2  0
 22 23  2  0
 22 16  1  0
 23 13  1  0
 24 20  1  0
 25 24  1  0
 26 27  1  0
 25 26  1  1
 27 28  1  0
 28 32  1  0
 28 29  2  0
 30 25  1  0
 30 33  1  0
 31 30  2  0
M  END
$$$$
