FYE.pdb
     RDKit          3D

 33 34  0  0  1  0  0  0  0  0999 V2000
    9.5742  -15.7278   16.1225 N   0  0  0  0  0  0  0  0  0  0  0  0
    9.4999  -15.5340   17.5433 C   0  0  1  0  0  0  0  0  0  0  0  0
    8.0992  -15.6698   18.0613 C   0  0  0  0  0  0  0  0  0  0  0  0
    7.9192  -14.7826   19.2302 C   0  0  0  0  0  0  0  0  0  0  0  0
    8.0059  -13.4153   19.0905 C   0  0  0  0  0  0  0  0  0  0  0  0
    7.8527  -12.5681   20.1678 C   0  0  0  0  0  0  0  0  0  0  0  0
    7.6085  -13.1047   21.4050 C   0  0  0  0  0  0  0  0  0  0  0  0
    7.5194  -14.4782   21.5553 C   0  0  0  0  0  0  0  0  0  0  0  0
    7.6742  -15.3161   20.4718 C   0  0  0  0  0  0  0  0  0  0  0  0
   10.4935  -16.3806   18.2363 C   0  0  0  0  0  0  0  0  0  0  0  0
   11.3332  -17.0880   17.5968 O   0  0  0  0  0  0  0  0  0  0  0  0
   17.1304  -14.0590   17.6827 O   0  0  0  0  0  0  0  0  0  0  0  0
   15.8850  -14.1824   18.2897 C   0  0  0  0  0  0  0  0  0  0  0  0
   14.7102  -14.0097   17.5919 C   0  0  0  0  0  0  0  0  0  0  0  0
   13.4722  -14.1278   18.1764 C   0  0  0  0  0  0  0  0  0  0  0  0
   13.3423  -14.4368   19.5416 C   0  0  0  0  0  0  0  0  0  0  0  0
   12.0342  -14.5848   20.1754 C   0  0  0  0  0  0  0  0  0  0  0  0
   11.6151  -16.0057   20.4620 C   0  0  2  0  0  0  0  0  0  0  0  0
   10.4929  -16.3949   19.6621 N   0  0  0  0  0  0  0  0  0  0  0  0
   11.3494  -16.2685   21.8927 C   0  0  0  0  0  0  0  0  0  0  0  0
   10.8588  -15.4271   22.6901 O   0  0  0  0  0  0  0  0  0  0  0  0
   14.5117  -14.6087   20.2338 C   0  0  0  0  0  0  0  0  0  0  0  0
   15.7712  -14.4859   19.6285 C   0  0  0  0  0  0  0  0  0  0  0  0
   11.6434  -17.5460   22.4872 N   0  0  0  0  0  0  0  0  0  0  0  0
   11.3184  -17.8636   23.8739 C   0  0  1  0  0  0  0  0  0  0  0  0
   10.9299  -19.3168   23.8932 C   0  0  0  0  0  0  0  0  0  0  0  0
    9.9048  -19.7139   22.8888 C   0  0  0  0  0  0  0  0  0  0  0  0
    9.5281  -21.1266   22.8777 C   0  0  0  0  0  0  0  0  0  0  0  0
    8.7132  -21.4988   23.7898 O   0  0  0  0  0  0  0  0  0  0  0  0
   12.4902  -17.5925   24.7404 C   0  0  0  0  0  0  0  0  0  0  0  0
   13.5768  -17.2176   24.2471 O   0  0  0  0  0  0  0  0  0  0  0  0
    9.9934  -22.0367   21.9670 O   0  0  0  0  0  0  0  0  0  0  0  0
   12.4117  -17.7468   26.1151 O   0  0  0  0  0  0  0  0  0  0  0  0
  2  1  1  6
  3  2  1  0
  4  5  2  0
  4  3  1  0
  6  5  1  0
  7  6  2  0
  8  7  1  0
  8  9  2  0
  9  4  1  0
 10  2  1  0
 11 10  2  0
 13 12  1  0
 13 14  2  0
 15 14  1  0
 16 15  2  0
 17 16  1  0
 18 17  1  1
 18 19  1  0
 19 10  1  0
 20 18  1  0
 21 20  2  0
 22 23  2  0
 22 16  1  0
 23 13  1  0
 24 20  1  0
 25 24  1  0
 26 27  1  0
 25 26  1  6
 27 28  1  0
 28 32  1  0
 28 29  2  0
 30 25  1  0
 30 33  1  0
 31 30  2  0
M  END
$$$$
