FYE.pdb
     RDKit          3D

 33 34  0  0  1  0  0  0  0  0999 V2000
    5.3755  -16.6601   21.2695 N   0  0  0  0  0  0  0  0  0  0  0  0
    6.7267  -16.7597   21.7449 C   0  0  1  0  0  0  0  0  0  0  0  0
    7.7285  -16.4403   20.6758 C   0  0  0  0  0  0  0  0  0  0  0  0
    7.7692  -14.9780   20.4613 C   0  0  0  0  0  0  0  0  0  0  0  0
    6.7679  -14.3460   19.7583 C   0  0  0  0  0  0  0  0  0  0  0  0
    6.7898  -12.9851   19.5359 C   0  0  0  0  0  0  0  0  0  0  0  0
    7.8353  -12.2486   20.0286 C   0  0  0  0  0  0  0  0  0  0  0  0
    8.8466  -12.8752   20.7369 C   0  0  0  0  0  0  0  0  0  0  0  0
    8.8150  -14.2360   20.9534 C   0  0  0  0  0  0  0  0  0  0  0  0
    6.8970  -15.9874   22.9935 C   0  0  0  0  0  0  0  0  0  0  0  0
    6.1216  -15.0283   23.2989 O   0  0  0  0  0  0  0  0  0  0  0  0
   11.3578  -14.4726   30.5395 O   0  0  0  0  0  0  0  0  0  0  0  0
   10.5123  -14.6867   29.4561 C   0  0  0  0  0  0  0  0  0  0  0  0
   10.0289  -13.6503   28.6886 C   0  0  0  0  0  0  0  0  0  0  0  0
    9.1929  -13.8446   27.6155 C   0  0  0  0  0  0  0  0  0  0  0  0
    8.7825  -15.1360   27.2416 C   0  0  0  0  0  0  0  0  0  0  0  0
    7.9093  -15.3628   26.0923 C   0  0  0  0  0  0  0  0  0  0  0  0
    8.6064  -15.4163   24.7552 C   0  0  2  0  0  0  0  0  0  0  0  0
    7.9685  -16.3396   23.8658 N   0  0  0  0  0  0  0  0  0  0  0  0
   10.0537  -15.7036   24.8520 C   0  0  0  0  0  0  0  0  0  0  0  0
   10.6675  -15.9024   25.9329 O   0  0  0  0  0  0  0  0  0  0  0  0
    9.2646  -16.1656   28.0057 C   0  0  0  0  0  0  0  0  0  0  0  0
   10.1175  -15.9574   29.0997 C   0  0  0  0  0  0  0  0  0  0  0  0
   10.8832  -15.7781   23.6780 N   0  0  0  0  0  0  0  0  0  0  0  0
   11.9956  -16.7147   23.5569 C   0  0  1  0  0  0  0  0  0  0  0  0
   11.4019  -18.0917   23.6773 C   0  0  0  0  0  0  0  0  0  0  0  0
   12.3656  -19.2155   23.5168 C   0  0  0  0  0  0  0  0  0  0  0  0
   11.8240  -20.5600   23.7078 C   0  0  0  0  0  0  0  0  0  0  0  0
   12.5555  -21.3724   24.3707 O   0  0  0  0  0  0  0  0  0  0  0  0
   12.6794  -16.5187   22.2564 C   0  0  0  0  0  0  0  0  0  0  0  0
   13.9282  -16.5181   22.1846 O   0  0  0  0  0  0  0  0  0  0  0  0
   10.6118  -20.9737   23.2245 O   0  0  0  0  0  0  0  0  0  0  0  0
   11.9547  -16.3319   21.0904 O   0  0  0  0  0  0  0  0  0  0  0  0
  2  1  1  6
  3  2  1  0
  4  5  2  0
  4  3  1  0
  6  5  1  0
  7  6  2  0
  8  7  1  0
  8  9  2  0
  9  4  1  0
 10  2  1  0
 11 10  2  0
 13 12  1  0
 13 14  2  0
 15 14  1  0
 16 15  2  0
 17 16  1  0
 18 17  1  1
 18 19  1  0
 19 10  1  0
 20 18  1  0
 21 20  2  0
 22 23  2  0
 22 16  1  0
 23 13  1  0
 24 20  1  0
 25 24  1  0
 26 27  1  0
 25 26  1  6
 27 28  1  0
 28 32  1  0
 28 29  2  0
 30 25  1  0
 30 33  1  0
 31 30  2  0
M  END
$$$$
