FYE.pdb
     RDKit          3D

 33 34  0  0  1  0  0  0  0  0999 V2000
    5.3985  -17.8056   24.0923 N   0  0  0  0  0  0  0  0  0  0  0  0
    6.0752  -16.5836   24.4248 C   0  0  1  0  0  0  0  0  0  0  0  0
    6.0151  -16.2840   25.8929 C   0  0  0  0  0  0  0  0  0  0  0  0
    6.5078  -14.9112   26.1350 C   0  0  0  0  0  0  0  0  0  0  0  0
    5.7102  -13.8230   25.8595 C   0  0  0  0  0  0  0  0  0  0  0  0
    6.1517  -12.5330   26.0665 C   0  0  0  0  0  0  0  0  0  0  0  0
    7.4156  -12.3347   26.5583 C   0  0  0  0  0  0  0  0  0  0  0  0
    8.2248  -13.4226   26.8385 C   0  0  0  0  0  0  0  0  0  0  0  0
    7.7736  -14.7079   26.6279 C   0  0  0  0  0  0  0  0  0  0  0  0
    7.4380  -16.5715   23.8529 C   0  0  0  0  0  0  0  0  0  0  0  0
    8.1670  -17.6120   23.8373 O   0  0  0  0  0  0  0  0  0  0  0  0
    6.6244  -13.9437   16.8007 O   0  0  0  0  0  0  0  0  0  0  0  0
    7.2681  -13.9482   18.0337 C   0  0  0  0  0  0  0  0  0  0  0  0
    8.0271  -15.0156   18.4594 C   0  0  0  0  0  0  0  0  0  0  0  0
    8.6691  -15.0360   19.6742 C   0  0  0  0  0  0  0  0  0  0  0  0
    8.5806  -13.9469   20.5585 C   0  0  0  0  0  0  0  0  0  0  0  0
    9.2717  -13.9435   21.8458 C   0  0  0  0  0  0  0  0  0  0  0  0
    9.1851  -15.2321   22.6260 C   0  0  2  0  0  0  0  0  0  0  0  0
    7.9335  -15.3489   23.3118 N   0  0  0  0  0  0  0  0  0  0  0  0
   10.3115  -15.4353   23.5623 C   0  0  0  0  0  0  0  0  0  0  0  0
   10.7909  -14.5367   24.3022 O   0  0  0  0  0  0  0  0  0  0  0  0
    7.8257  -12.8860   20.1333 C   0  0  0  0  0  0  0  0  0  0  0  0
    7.1736  -12.8744   18.8913 C   0  0  0  0  0  0  0  0  0  0  0  0
   10.9547  -16.7162   23.6942 N   0  0  0  0  0  0  0  0  0  0  0  0
   12.0899  -16.9404   24.5832 C   0  0  1  0  0  0  0  0  0  0  0  0
   11.8017  -18.2199   25.3201 C   0  0  0  0  0  0  0  0  0  0  0  0
   12.8715  -18.6712   26.2524 C   0  0  0  0  0  0  0  0  0  0  0  0
   12.6421  -19.9488   26.9253 C   0  0  0  0  0  0  0  0  0  0  0  0
   11.4762  -20.4553   26.7884 O   0  0  0  0  0  0  0  0  0  0  0  0
   13.3400  -17.0275   23.7912 C   0  0  0  0  0  0  0  0  0  0  0  0
   13.3168  -17.4089   22.6002 O   0  0  0  0  0  0  0  0  0  0  0  0
   13.5862  -20.6031   27.6699 O   0  0  0  0  0  0  0  0  0  0  0  0
   14.5626  -16.6894   24.3486 O   0  0  0  0  0  0  0  0  0  0  0  0
  2  1  1  1
  3  2  1  0
  4  5  2  0
  4  3  1  0
  6  5  1  0
  7  6  2  0
  8  7  1  0
  8  9  2  0
  9  4  1  0
 10  2  1  0
 11 10  2  0
 13 12  1  0
 13 14  2  0
 15 14  1  0
 16 15  2  0
 17 16  1  0
 18 17  1  1
 18 19  1  0
 19 10  1  0
 20 18  1  0
 21 20  2  0
 22 23  2  0
 22 16  1  0
 23 13  1  0
 24 20  1  0
 25 24  1  0
 26 27  1  0
 25 26  1  6
 27 28  1  0
 28 32  1  0
 28 29  2  0
 30 25  1  0
 30 33  1  0
 31 30  2  0
M  END
$$$$
