DKT.pdb
     RDKit          3D

 25 24  0  0  1  0  0  0  0  0999 V2000
    8.0911  -18.1938   17.0540 N   0  0  0  0  0  0  0  0  0  0  0  0
    8.8967  -18.4374   18.2183 C   0  0  1  0  0  0  0  0  0  0  0  0
   10.1201  -17.5559   18.2705 C   0  0  0  0  0  0  0  0  0  0  0  0
   11.0536  -17.9531   17.1836 C   0  0  0  0  0  0  0  0  0  0  0  0
   11.0610  -19.1712   16.8554 O   0  0  0  0  0  0  0  0  0  0  0  0
    8.1007  -18.1799   19.4365 C   0  0  0  0  0  0  0  0  0  0  0  0
    7.4053  -17.1133   19.5030 O   0  0  0  0  0  0  0  0  0  0  0  0
   11.8929  -17.0747   16.5315 O   0  0  0  0  0  0  0  0  0  0  0  0
    8.0496  -19.0279   20.5391 N   0  0  0  0  0  0  0  0  0  0  0  0
    7.0359  -18.7859   21.6685 C   0  0  1  0  0  0  0  0  0  0  0  0
    6.6626  -20.1945   21.9837 C   0  0  0  0  0  0  0  0  0  0  0  0
    5.7574  -20.5739   23.0622 C   0  0  0  0  0  0  0  0  0  0  0  0
    5.5481  -22.0174   23.2550 C   0  0  0  0  0  0  0  0  0  0  0  0
    4.5424  -22.3182   24.3729 C   0  0  0  0  0  0  0  0  0  0  0  0
    4.4418  -23.7109   24.6620 N   0  0  0  0  0  0  0  0  0  0  0  0
    7.8418  -18.1016   22.6906 C   0  0  0  0  0  0  0  0  0  0  0  0
    9.1169  -18.2776   22.6763 O   0  0  0  0  0  0  0  0  0  0  0  0
    8.5770  -13.9657   25.1474 C   0  0  0  0  0  0  0  0  0  0  0  0
    7.7505  -14.9084   24.3044 C   0  0  1  0  0  0  0  0  0  0  0  0
    7.8090  -14.4878   22.9589 O   0  0  0  0  0  0  0  0  0  0  0  0
    8.2593  -16.3384   24.4219 C   0  0  2  0  0  0  0  0  0  0  0  0
    7.3823  -17.2449   23.7020 N   0  0  0  0  0  0  0  0  0  0  0  0
    8.4001  -16.6571   25.8481 C   0  0  0  0  0  0  0  0  0  0  0  0
    9.2042  -15.9833   26.5329 O   0  0  0  0  0  0  0  0  0  0  0  0
    7.7036  -17.6529   26.4888 O   0  0  0  0  0  0  0  0  0  0  0  0
  2  1  1  6
  3  2  1  0
  3  4  1  0
  4  5  2  0
  6  2  1  0
  7  6  2  0
  8  4  1  0
  9  6  1  0
 10  9  1  0
 10 11  1  1
 11 12  1  0
 12 13  1  0
 13 14  1  0
 14 15  1  0
 16 10  1  0
 17 16  2  0
 19 21  1  0
 19 18  1  1
 20 19  1  0
 21 23  1  0
 21 22  1  1
 22 16  1  0
 23 25  1  0
 24 23  2  0
M  END
$$$$
