DKT.pdb
     RDKit          3D

 25 24  0  0  1  0  0  0  0  0999 V2000
   11.2354  -16.4648   18.5367 N   0  0  0  0  0  0  0  0  0  0  0  0
   10.9941  -17.2909   19.6870 C   0  0  1  0  0  0  0  0  0  0  0  0
   12.1730  -17.3320   20.6277 C   0  0  0  0  0  0  0  0  0  0  0  0
   13.2923  -18.0610   19.9747 C   0  0  0  0  0  0  0  0  0  0  0  0
   14.2433  -17.3629   19.5278 O   0  0  0  0  0  0  0  0  0  0  0  0
    9.8331  -16.7700   20.4384 C   0  0  0  0  0  0  0  0  0  0  0  0
    9.6783  -15.5081   20.5346 O   0  0  0  0  0  0  0  0  0  0  0  0
   13.3404  -19.4321   19.8369 O   0  0  0  0  0  0  0  0  0  0  0  0
    8.8760  -17.5654   21.0620 N   0  0  0  0  0  0  0  0  0  0  0  0
    7.6146  -16.9385   21.6766 C   0  0  1  0  0  0  0  0  0  0  0  0
    6.6690  -18.0835   21.5441 C   0  0  0  0  0  0  0  0  0  0  0  0
    5.3008  -18.0707   22.0484 C   0  0  0  0  0  0  0  0  0  0  0  0
    4.4720  -19.2364   21.7035 C   0  0  0  0  0  0  0  0  0  0  0  0
    3.0531  -19.1351   22.2765 C   0  0  0  0  0  0  0  0  0  0  0  0
    2.2594  -20.2835   21.9859 N   0  0  0  0  0  0  0  0  0  0  0  0
    8.0401  -16.6256   23.0490 C   0  0  0  0  0  0  0  0  0  0  0  0
    9.0025  -17.3127   23.5577 O   0  0  0  0  0  0  0  0  0  0  0  0
    7.9457  -12.9259   25.0582 C   0  0  0  0  0  0  0  0  0  0  0  0
    7.4341  -14.1294   25.8146 C   0  0  1  0  0  0  0  0  0  0  0  0
    6.0257  -14.1546   25.7335 O   0  0  0  0  0  0  0  0  0  0  0  0
    8.0082  -15.4195   25.2456 C   0  0  2  0  0  0  0  0  0  0  0  0
    7.5212  -15.6334   23.8941 N   0  0  0  0  0  0  0  0  0  0  0  0
    7.6846  -16.5111   26.1724 C   0  0  0  0  0  0  0  0  0  0  0  0
    6.8790  -17.3935   25.7961 O   0  0  0  0  0  0  0  0  0  0  0  0
    8.2103  -16.6320   27.4358 O   0  0  0  0  0  0  0  0  0  0  0  0
  2  1  1  6
  3  2  1  0
  3  4  1  0
  4  5  2  0
  6  2  1  0
  7  6  2  0
  8  4  1  0
  9  6  1  0
 10  9  1  0
 10 11  1  1
 11 12  1  0
 12 13  1  0
 13 14  1  0
 14 15  1  0
 16 10  1  0
 17 16  2  0
 19 21  1  0
 19 18  1  6
 20 19  1  0
 21 23  1  0
 21 22  1  6
 22 16  1  0
 23 25  1  0
 24 23  2  0
M  END
$$$$
