DKT.pdb
     RDKit          3D

 25 24  0  0  1  0  0  0  0  0999 V2000
   13.1013  -17.6141   19.2686 N   0  0  0  0  0  0  0  0  0  0  0  0
   12.6987  -18.3025   20.4636 C   0  0  1  0  0  0  0  0  0  0  0  0
   13.8727  -18.7211   21.3139 C   0  0  0  0  0  0  0  0  0  0  0  0
   14.6472  -19.7667   20.5945 C   0  0  0  0  0  0  0  0  0  0  0  0
   15.8846  -19.8247   20.8330 O   0  0  0  0  0  0  0  0  0  0  0  0
   11.8398  -17.4199   21.2804 C   0  0  0  0  0  0  0  0  0  0  0  0
   12.3843  -16.6707   22.1567 O   0  0  0  0  0  0  0  0  0  0  0  0
   14.0912  -20.6562   19.6995 O   0  0  0  0  0  0  0  0  0  0  0  0
   10.4548  -17.3409   21.1656 N   0  0  0  0  0  0  0  0  0  0  0  0
    9.6719  -16.2216   21.8696 C   0  0  1  0  0  0  0  0  0  0  0  0
    8.6180  -15.9640   20.8470 C   0  0  0  0  0  0  0  0  0  0  0  0
    8.0092  -14.6589   20.6178 C   0  0  0  0  0  0  0  0  0  0  0  0
    7.8248  -14.2678   19.2114 C   0  0  0  0  0  0  0  0  0  0  0  0
    7.2315  -12.8609   19.0688 C   0  0  0  0  0  0  0  0  0  0  0  0
    7.1203  -12.4463   17.7090 N   0  0  0  0  0  0  0  0  0  0  0  0
    9.2090  -16.8727   23.1043 C   0  0  0  0  0  0  0  0  0  0  0  0
    9.0297  -18.1473   23.0879 O   0  0  0  0  0  0  0  0  0  0  0  0
   10.5559  -16.6748   26.7875 C   0  0  0  0  0  0  0  0  0  0  0  0
    9.0612  -16.4554   26.7690 C   0  0  1  0  0  0  0  0  0  0  0  0
    8.8015  -15.0730   26.8797 O   0  0  0  0  0  0  0  0  0  0  0  0
    8.4433  -16.9969   25.4874 C   0  0  2  0  0  0  0  0  0  0  0  0
    8.9427  -16.2617   24.3387 N   0  0  0  0  0  0  0  0  0  0  0  0
    6.9829  -16.9529   25.6305 C   0  0  0  0  0  0  0  0  0  0  0  0
    6.3325  -16.1937   24.8756 O   0  0  0  0  0  0  0  0  0  0  0  0
    6.2744  -17.6947   26.5443 O   0  0  0  0  0  0  0  0  0  0  0  0
  2  1  1  6
  3  2  1  0
  3  4  1  0
  4  5  2  0
  6  2  1  0
  7  6  2  0
  8  4  1  0
  9  6  1  0
 10  9  1  0
 10 11  1  6
 11 12  1  0
 12 13  1  0
 13 14  1  0
 14 15  1  0
 16 10  1  0
 17 16  2  0
 19 21  1  0
 19 18  1  6
 20 19  1  0
 21 23  1  0
 21 22  1  6
 22 16  1  0
 23 25  1  0
 24 23  2  0
M  END
$$$$
