DKT.pdb
     RDKit          3D

 25 24  0  0  1  0  0  0  0  0999 V2000
    9.8213  -18.6465   20.5640 N   0  0  0  0  0  0  0  0  0  0  0  0
   10.4035  -17.5863   21.3391 C   0  0  1  0  0  0  0  0  0  0  0  0
   10.4706  -16.2840   20.5801 C   0  0  0  0  0  0  0  0  0  0  0  0
   11.4898  -16.3993   19.5038 C   0  0  0  0  0  0  0  0  0  0  0  0
   12.1704  -17.4611   19.4746 O   0  0  0  0  0  0  0  0  0  0  0  0
    9.5971  -17.3599   22.5566 C   0  0  0  0  0  0  0  0  0  0  0  0
    9.0219  -16.2328   22.7129 O   0  0  0  0  0  0  0  0  0  0  0  0
   11.7222  -15.4239   18.5572 O   0  0  0  0  0  0  0  0  0  0  0  0
    9.4126  -18.3000   23.5665 N   0  0  0  0  0  0  0  0  0  0  0  0
    8.4760  -18.0072   24.7491 C   0  0  1  0  0  0  0  0  0  0  0  0
    8.1711  -19.3999   25.1852 C   0  0  0  0  0  0  0  0  0  0  0  0
    7.5102  -19.7322   26.4418 C   0  0  0  0  0  0  0  0  0  0  0  0
    7.4063  -21.1648   26.7605 C   0  0  0  0  0  0  0  0  0  0  0  0
    6.5897  -21.4232   28.0326 C   0  0  0  0  0  0  0  0  0  0  0  0
    6.5130  -22.8077   28.3650 N   0  0  0  0  0  0  0  0  0  0  0  0
    9.3317  -17.2325   25.6603 C   0  0  0  0  0  0  0  0  0  0  0  0
   10.6078  -17.3171   25.5134 O   0  0  0  0  0  0  0  0  0  0  0  0
   10.2141  -13.3004   28.4642 C   0  0  0  0  0  0  0  0  0  0  0  0
    9.2794  -14.1585   27.6441 C   0  0  1  0  0  0  0  0  0  0  0  0
    9.0807  -13.5460   26.3888 O   0  0  0  0  0  0  0  0  0  0  0  0
    9.8463  -15.5584   27.4528 C   0  0  2  0  0  0  0  0  0  0  0  0
    8.9185  -16.3769   26.6924 N   0  0  0  0  0  0  0  0  0  0  0  0
   10.1716  -16.1041   28.7762 C   0  0  0  0  0  0  0  0  0  0  0  0
    9.4992  -17.0706   29.2042 O   0  0  0  0  0  0  0  0  0  0  0  0
   11.1726  -15.6228   29.5847 O   0  0  0  0  0  0  0  0  0  0  0  0
  2  1  1  6
  3  2  1  0
  3  4  1  0
  4  5  2  0
  6  2  1  0
  7  6  2  0
  8  4  1  0
  9  6  1  0
 10  9  1  0
 10 11  1  1
 11 12  1  0
 12 13  1  0
 13 14  1  0
 14 15  1  0
 16 10  1  0
 17 16  2  0
 19 21  1  0
 19 18  1  1
 20 19  1  0
 21 23  1  0
 21 22  1  1
 22 16  1  0
 23 25  1  0
 24 23  2  0
M  END
$$$$
