DKT.pdb
     RDKit          3D

 25 24  0  0  1  0  0  0  0  0999 V2000
   10.3863  -19.2357   15.8809 N   0  0  0  0  0  0  0  0  0  0  0  0
    9.6596  -18.0862   16.3440 C   0  0  1  0  0  0  0  0  0  0  0  0
    8.4003  -17.8393   15.5505 C   0  0  0  0  0  0  0  0  0  0  0  0
    8.6792  -18.0718   14.1088 C   0  0  0  0  0  0  0  0  0  0  0  0
    9.7989  -18.5754   13.8189 O   0  0  0  0  0  0  0  0  0  0  0  0
    9.2739  -18.2781   17.7576 C   0  0  0  0  0  0  0  0  0  0  0  0
    8.6115  -17.3604   18.3447 O   0  0  0  0  0  0  0  0  0  0  0  0
    7.7935  -17.7705   13.0958 O   0  0  0  0  0  0  0  0  0  0  0  0
    9.5836  -19.4051   18.5135 N   0  0  0  0  0  0  0  0  0  0  0  0
    9.1505  -19.5063   19.9845 C   0  0  1  0  0  0  0  0  0  0  0  0
    8.6592  -20.9137   20.0106 C   0  0  0  0  0  0  0  0  0  0  0  0
    7.8342  -21.4673   21.0780 C   0  0  0  0  0  0  0  0  0  0  0  0
    8.4540  -22.5219   21.8955 C   0  0  0  0  0  0  0  0  0  0  0  0
    7.4631  -23.1588   22.8775 C   0  0  0  0  0  0  0  0  0  0  0  0
    8.0811  -24.1072   23.7447 N   0  0  0  0  0  0  0  0  0  0  0  0
   10.4045  -19.2609   20.7125 C   0  0  0  0  0  0  0  0  0  0  0  0
   11.4967  -19.1935   20.0345 O   0  0  0  0  0  0  0  0  0  0  0  0
   11.5073  -15.6055   23.1653 C   0  0  0  0  0  0  0  0  0  0  0  0
   10.9485  -16.6673   22.2472 C   0  0  1  0  0  0  0  0  0  0  0  0
   11.3528  -16.3863   20.9250 O   0  0  0  0  0  0  0  0  0  0  0  0
   11.4321  -18.0527   22.6527 C   0  0  2  0  0  0  0  0  0  0  0  0
   10.5623  -19.0725   22.0936 N   0  0  0  0  0  0  0  0  0  0  0  0
   11.5277  -18.0924   24.1172 C   0  0  0  0  0  0  0  0  0  0  0  0
   10.5119  -18.4218   24.7721 O   0  0  0  0  0  0  0  0  0  0  0  0
   12.6658  -17.7903   24.8247 O   0  0  0  0  0  0  0  0  0  0  0  0
  2  1  1  6
  3  2  1  0
  3  4  1  0
  4  5  2  0
  6  2  1  0
  7  6  2  0
  8  4  1  0
  9  6  1  0
 10  9  1  0
 10 11  1  6
 11 12  1  0
 12 13  1  0
 13 14  1  0
 14 15  1  0
 16 10  1  0
 17 16  2  0
 19 21  1  0
 19 18  1  1
 20 19  1  0
 21 23  1  0
 21 22  1  1
 22 16  1  0
 23 25  1  0
 24 23  2  0
M  END
$$$$
