DKT.pdb
     RDKit          3D

 25 24  0  0  1  0  0  0  0  0999 V2000
    6.9554  -17.4450   19.6077 N   0  0  0  0  0  0  0  0  0  0  0  0
    7.6709  -16.4137   20.3064 C   0  0  1  0  0  0  0  0  0  0  0  0
    7.5378  -15.0653   19.6427 C   0  0  0  0  0  0  0  0  0  0  0  0
    8.3393  -15.0573   18.3905 C   0  0  0  0  0  0  0  0  0  0  0  0
    9.0438  -16.0777   18.1582 O   0  0  0  0  0  0  0  0  0  0  0  0
    7.1504  -16.2936   21.6843 C   0  0  0  0  0  0  0  0  0  0  0  0
    5.9927  -15.7903   21.8630 O   0  0  0  0  0  0  0  0  0  0  0  0
    8.3500  -14.0123   17.4909 O   0  0  0  0  0  0  0  0  0  0  0  0
    7.8391  -16.6951   22.8254 N   0  0  0  0  0  0  0  0  0  0  0  0
    7.1449  -16.7093   24.1963 C   0  0  1  0  0  0  0  0  0  0  0  0
    7.6009  -18.0362   24.7005 C   0  0  0  0  0  0  0  0  0  0  0  0
    7.4582  -18.4730   26.0844 C   0  0  0  0  0  0  0  0  0  0  0  0
    8.1040  -19.7487   26.4313 C   0  0  0  0  0  0  0  0  0  0  0  0
    7.8477  -20.1570   27.8871 C   0  0  0  0  0  0  0  0  0  0  0  0
    8.9587  -19.8843   28.7384 N   0  0  0  0  0  0  0  0  0  0  0  0
    7.7301  -15.5414   24.8716 C   0  0  0  0  0  0  0  0  0  0  0  0
    8.9473  -15.2270   24.5948 O   0  0  0  0  0  0  0  0  0  0  0  0
    6.3135  -11.7631   25.4328 C   0  0  0  0  0  0  0  0  0  0  0  0
    6.7683  -12.4504   26.6990 C   0  0  1  0  0  0  0  0  0  0  0  0
    5.6429  -12.9966   27.3514 O   0  0  0  0  0  0  0  0  0  0  0  0
    7.7746  -13.5514   26.3942 C   0  0  2  0  0  0  0  0  0  0  0  0
    7.1047  -14.6937   25.7980 N   0  0  0  0  0  0  0  0  0  0  0  0
    8.4956  -13.8669   27.6335 C   0  0  0  0  0  0  0  0  0  0  0  0
    8.4473  -15.0405   28.0690 O   0  0  0  0  0  0  0  0  0  0  0  0
    9.2267  -12.9543   28.3546 O   0  0  0  0  0  0  0  0  0  0  0  0
  2  1  1  6
  3  2  1  0
  3  4  1  0
  4  5  2  0
  6  2  1  0
  7  6  2  0
  8  4  1  0
  9  6  1  0
 10  9  1  0
 10 11  1  1
 11 12  1  0
 12 13  1  0
 13 14  1  0
 14 15  1  0
 16 10  1  0
 17 16  2  0
 19 21  1  0
 19 18  1  6
 20 19  1  0
 21 23  1  0
 21 22  1  1
 22 16  1  0
 23 25  1  0
 24 23  2  0
M  END
$$$$
