DKT.pdb
     RDKit          3D

 25 24  0  0  1  0  0  0  0  0999 V2000
    9.6549  -17.6991   20.3020 N   0  0  0  0  0  0  0  0  0  0  0  0
    8.9866  -16.4323   20.1910 C   0  0  1  0  0  0  0  0  0  0  0  0
    8.1341  -16.3344   18.9501 C   0  0  0  0  0  0  0  0  0  0  0  0
    8.9844  -16.5748   17.7544 C   0  0  0  0  0  0  0  0  0  0  0  0
   10.1717  -16.1513   17.8049 O   0  0  0  0  0  0  0  0  0  0  0  0
    8.1075  -16.2297   21.3615 C   0  0  0  0  0  0  0  0  0  0  0  0
    7.2525  -15.2844   21.3326 O   0  0  0  0  0  0  0  0  0  0  0  0
    8.5484  -17.2236   16.6185 O   0  0  0  0  0  0  0  0  0  0  0  0
    8.1408  -17.0059   22.5165 N   0  0  0  0  0  0  0  0  0  0  0  0
    7.1353  -16.7641   23.6533 C   0  0  1  0  0  0  0  0  0  0  0  0
    7.0363  -18.1453   24.2057 C   0  0  0  0  0  0  0  0  0  0  0  0
    6.1289  -19.1640   23.6905 C   0  0  0  0  0  0  0  0  0  0  0  0
    6.1801  -20.4746   24.3573 C   0  0  0  0  0  0  0  0  0  0  0  0
    5.2879  -21.5155   23.6700 C   0  0  0  0  0  0  0  0  0  0  0  0
    5.2682  -22.7637   24.3592 N   0  0  0  0  0  0  0  0  0  0  0  0
    7.8337  -15.7907   24.5063 C   0  0  0  0  0  0  0  0  0  0  0  0
    9.1196  -15.7555   24.4597 O   0  0  0  0  0  0  0  0  0  0  0  0
    7.3004  -11.8655   24.9882 C   0  0  0  0  0  0  0  0  0  0  0  0
    7.3229  -12.6016   26.3073 C   0  0  1  0  0  0  0  0  0  0  0  0
    5.9949  -12.8136   26.7342 O   0  0  0  0  0  0  0  0  0  0  0  0
    8.0442  -13.9360   26.1784 C   0  0  2  0  0  0  0  0  0  0  0  0
    7.2556  -14.8588   25.3811 N   0  0  0  0  0  0  0  0  0  0  0  0
    8.3434  -14.4257   27.5297 C   0  0  0  0  0  0  0  0  0  0  0  0
    7.8382  -15.5121   27.8955 O   0  0  0  0  0  0  0  0  0  0  0  0
    9.1473  -13.7676   28.4286 O   0  0  0  0  0  0  0  0  0  0  0  0
  2  1  1  1
  3  2  1  0
  3  4  1  0
  4  5  2  0
  6  2  1  0
  7  6  2  0
  8  4  1  0
  9  6  1  0
 10  9  1  0
 10 11  1  1
 11 12  1  0
 12 13  1  0
 13 14  1  0
 14 15  1  0
 16 10  1  0
 17 16  2  0
 19 21  1  0
 19 18  1  6
 20 19  1  0
 21 23  1  0
 21 22  1  1
 22 16  1  0
 23 25  1  0
 24 23  2  0
M  END
$$$$
