DKT.pdb
     RDKit          3D

 25 24  0  0  1  0  0  0  0  0999 V2000
    8.2063  -16.7354   18.6791 N   0  0  0  0  0  0  0  0  0  0  0  0
    9.1023  -16.8032   19.8000 C   0  0  1  0  0  0  0  0  0  0  0  0
   10.1926  -15.7625   19.7332 C   0  0  0  0  0  0  0  0  0  0  0  0
   11.1805  -16.1576   18.6947 C   0  0  0  0  0  0  0  0  0  0  0  0
   11.2699  -15.4129   17.6804 O   0  0  0  0  0  0  0  0  0  0  0  0
    8.3483  -16.5894   21.0528 C   0  0  0  0  0  0  0  0  0  0  0  0
    7.3456  -15.8019   21.0407 O   0  0  0  0  0  0  0  0  0  0  0  0
   11.9857  -17.2734   18.7843 O   0  0  0  0  0  0  0  0  0  0  0  0
    8.6532  -17.1927   22.2696 N   0  0  0  0  0  0  0  0  0  0  0  0
    7.6632  -17.1353   23.4436 C   0  0  1  0  0  0  0  0  0  0  0  0
    7.8368  -18.5106   23.9925 C   0  0  0  0  0  0  0  0  0  0  0  0
    7.1692  -18.9966   25.1943 C   0  0  0  0  0  0  0  0  0  0  0  0
    7.4156  -20.4032   25.5487 C   0  0  0  0  0  0  0  0  0  0  0  0
    6.5787  -20.8587   26.7503 C   0  0  0  0  0  0  0  0  0  0  0  0
    6.7831  -22.2324   27.0737 N   0  0  0  0  0  0  0  0  0  0  0  0
    8.2043  -16.0498   24.2752 C   0  0  0  0  0  0  0  0  0  0  0  0
    9.4585  -15.7774   24.1769 O   0  0  0  0  0  0  0  0  0  0  0  0
    6.8690  -12.2810   24.8415 C   0  0  0  0  0  0  0  0  0  0  0  0
    7.1345  -13.0229   26.1305 C   0  0  1  0  0  0  0  0  0  0  0  0
    5.9157  -13.5386   26.6196 O   0  0  0  0  0  0  0  0  0  0  0  0
    8.1272  -14.1570   25.9159 C   0  0  2  0  0  0  0  0  0  0  0  0
    7.5006  -15.2411   25.1800 N   0  0  0  0  0  0  0  0  0  0  0  0
    8.6541  -14.5567   27.2266 C   0  0  0  0  0  0  0  0  0  0  0  0
    8.5101  -15.7471   27.5892 O   0  0  0  0  0  0  0  0  0  0  0  0
    9.3006  -13.7063   28.0904 O   0  0  0  0  0  0  0  0  0  0  0  0
  2  1  1  6
  3  2  1  0
  3  4  1  0
  4  5  2  0
  6  2  1  0
  7  6  2  0
  8  4  1  0
  9  6  1  0
 10  9  1  0
 10 11  1  1
 11 12  1  0
 12 13  1  0
 13 14  1  0
 14 15  1  0
 16 10  1  0
 17 16  2  0
 19 21  1  0
 19 18  1  6
 20 19  1  0
 21 23  1  0
 21 22  1  1
 22 16  1  0
 23 25  1  0
 24 23  2  0
M  END
$$$$
