TLN.pdb
     RDKit          3D

 24 23  0  0  1  0  0  0  0  0999 V2000
    6.4155  -16.9240   20.2277 C   0  0  0  0  0  0  0  0  0  0  0  0
    7.0717  -16.5024   21.5467 C   0  0  1  0  0  0  0  0  0  0  0  0
    8.3372  -17.0756   21.6025 O   0  0  0  0  0  0  0  0  0  0  0  0
    7.2529  -15.0018   21.4639 C   0  0  2  0  0  0  0  0  0  0  0  0
    8.0239  -14.6123   20.3138 N   0  0  0  0  0  0  0  0  0  0  0  0
    7.9249  -14.4663   22.6758 C   0  0  0  0  0  0  0  0  0  0  0  0
    9.0989  -13.9819   22.6120 O   0  0  0  0  0  0  0  0  0  0  0  0
    7.6168  -10.9908   26.0367 C   0  0  0  0  0  0  0  0  0  0  0  0
    6.5354  -12.0069   25.7999 C   0  0  2  0  0  0  0  0  0  0  0  0
    5.4413  -11.7066   26.8489 C   0  0  0  0  0  0  0  0  0  0  0  0
    6.9410  -13.4002   25.9781 C   0  0  0  0  0  0  0  0  0  0  0  0
    8.0121  -14.0255   25.1812 C   0  0  2  0  0  0  0  0  0  0  0  0
    7.2875  -14.4755   23.9378 N   0  0  0  0  0  0  0  0  0  0  0  0
    8.6698  -15.2346   25.6586 C   0  0  0  0  0  0  0  0  0  0  0  0
    9.2420  -15.2549   26.7978 O   0  0  0  0  0  0  0  0  0  0  0  0
    6.1248  -19.1498   25.1145 N   0  0  0  0  0  0  0  0  0  0  0  0
    7.3878  -19.0054   25.7335 C   0  0  0  0  0  0  0  0  0  0  0  0
    7.3781  -18.9768   27.0043 O   0  0  0  0  0  0  0  0  0  0  0  0
    8.6851  -18.8871   25.0824 C   0  0  0  0  0  0  0  0  0  0  0  0
    9.4477  -17.6144   25.4143 C   0  0  2  0  0  0  0  0  0  0  0  0
    8.7237  -16.4537   24.9371 N   0  0  0  0  0  0  0  0  0  0  0  0
   10.8220  -17.7405   24.9303 C   0  0  0  0  0  0  0  0  0  0  0  0
   11.3054  -16.9035   24.1477 O   0  0  0  0  0  0  0  0  0  0  0  0
   11.5843  -18.8125   25.3581 O   0  0  0  0  0  0  0  0  0  0  0  0
  2  3  1  0
  2  1  1  6
  4  2  1  0
  4  5  1  6
  6  4  1  0
  6  7  2  0
  9 11  1  0
  9  8  1  1
  9 10  1  0
 12 13  1  0
 12 11  1  1
 13  6  1  0
 14 12  1  0
 15 14  2  0
 16 17  1  0
 17 19  1  0
 17 18  2  0
 20 19  1  6
 20 21  1  0
 21 14  1  0
 22 24  1  0
 22 20  1  0
 23 22  2  0
M  END
$$$$
