TLN.pdb
     RDKit          3D

 24 23  0  0  1  0  0  0  0  0999 V2000
    6.8988  -17.8365   20.1176 C   0  0  0  0  0  0  0  0  0  0  0  0
    7.5407  -17.2320   21.3708 C   0  0  1  0  0  0  0  0  0  0  0  0
    8.8452  -17.7048   21.4592 O   0  0  0  0  0  0  0  0  0  0  0  0
    7.6109  -15.7395   21.1274 C   0  0  2  0  0  0  0  0  0  0  0  0
    8.3572  -15.4193   19.9401 N   0  0  0  0  0  0  0  0  0  0  0  0
    8.2352  -15.0293   22.2733 C   0  0  0  0  0  0  0  0  0  0  0  0
    9.4639  -14.7027   22.2489 O   0  0  0  0  0  0  0  0  0  0  0  0
    5.7612  -12.1884   27.1316 C   0  0  0  0  0  0  0  0  0  0  0  0
    7.0639  -12.5695   26.4868 C   0  0  2  0  0  0  0  0  0  0  0  0
    7.7423  -11.2379   26.0938 C   0  0  0  0  0  0  0  0  0  0  0  0
    6.9449  -13.3745   25.2721 C   0  0  0  0  0  0  0  0  0  0  0  0
    8.1153  -13.9202   24.5611 C   0  0  2  0  0  0  0  0  0  0  0  0
    7.4902  -14.6921   23.4267 N   0  0  0  0  0  0  0  0  0  0  0  0
    8.9789  -14.8959   25.2128 C   0  0  0  0  0  0  0  0  0  0  0  0
    9.9503  -14.5150   25.9455 O   0  0  0  0  0  0  0  0  0  0  0  0
   10.0269  -19.7282   23.4840 N   0  0  0  0  0  0  0  0  0  0  0  0
    9.0342  -19.0865   24.2599 C   0  0  0  0  0  0  0  0  0  0  0  0
    7.9315  -18.8638   23.6681 O   0  0  0  0  0  0  0  0  0  0  0  0
    9.1348  -18.6571   25.6478 C   0  0  0  0  0  0  0  0  0  0  0  0
    9.6486  -17.2388   25.8374 C   0  0  2  0  0  0  0  0  0  0  0  0
    8.8207  -16.3007   25.1070 N   0  0  0  0  0  0  0  0  0  0  0  0
   11.0749  -17.2001   25.5166 C   0  0  0  0  0  0  0  0  0  0  0  0
   11.5156  -16.4290   24.6460 O   0  0  0  0  0  0  0  0  0  0  0  0
   11.9355  -18.0401   26.2001 O   0  0  0  0  0  0  0  0  0  0  0  0
  2  3  1  0
  2  1  1  6
  4  2  1  0
  4  5  1  6
  6  4  1  0
  6  7  2  0
  9 11  1  0
  9  8  1  6
  9 10  1  0
 12 13  1  0
 12 11  1  1
 13  6  1  0
 14 12  1  0
 15 14  2  0
 16 17  1  0
 17 19  1  0
 17 18  2  0
 20 19  1  6
 20 21  1  0
 21 14  1  0
 22 24  1  0
 22 20  1  0
 23 22  2  0
M  END
$$$$
