TLN.pdb
     RDKit          3D

 24 23  0  0  1  0  0  0  0  0999 V2000
    9.0808  -19.5924   19.5523 C   0  0  0  0  0  0  0  0  0  0  0  0
   10.2197  -19.2963   18.5708 C   0  0  1  0  0  0  0  0  0  0  0  0
   10.1937  -20.2648   17.5736 O   0  0  0  0  0  0  0  0  0  0  0  0
    9.8834  -17.9681   17.9270 C   0  0  2  0  0  0  0  0  0  0  0  0
   10.6567  -17.7320   16.7373 N   0  0  0  0  0  0  0  0  0  0  0  0
   10.1125  -16.8360   18.8614 C   0  0  0  0  0  0  0  0  0  0  0  0
   11.2732  -16.3396   19.0145 O   0  0  0  0  0  0  0  0  0  0  0  0
    8.5692  -12.2692   19.4558 C   0  0  0  0  0  0  0  0  0  0  0  0
    7.7049  -13.4951   19.5461 C   0  0  2  0  0  0  0  0  0  0  0  0
    6.2750  -12.9801   19.8255 C   0  0  0  0  0  0  0  0  0  0  0  0
    8.0526  -14.4238   20.6204 C   0  0  0  0  0  0  0  0  0  0  0  0
    9.3105  -15.1926   20.6319 C   0  0  2  0  0  0  0  0  0  0  0  0
    9.0545  -16.2721   19.6107 N   0  0  0  0  0  0  0  0  0  0  0  0
    9.7087  -15.9282   21.8247 C   0  0  0  0  0  0  0  0  0  0  0  0
    8.8593  -16.6271   22.4693 O   0  0  0  0  0  0  0  0  0  0  0  0
   12.8872  -18.4055   21.1023 N   0  0  0  0  0  0  0  0  0  0  0  0
   12.2531  -18.9049   22.2632 C   0  0  0  0  0  0  0  0  0  0  0  0
   12.6807  -20.0250   22.6855 O   0  0  0  0  0  0  0  0  0  0  0  0
   11.1753  -18.2840   23.0206 C   0  0  0  0  0  0  0  0  0  0  0  0
   11.4297  -16.8386   23.4175 C   0  0  2  0  0  0  0  0  0  0  0  0
   11.0244  -15.9442   22.3522 N   0  0  0  0  0  0  0  0  0  0  0  0
   12.8170  -16.7012   23.8594 C   0  0  0  0  0  0  0  0  0  0  0  0
   13.2506  -17.3562   24.8236 O   0  0  0  0  0  0  0  0  0  0  0  0
   13.6485  -15.8253   23.1850 O   0  0  0  0  0  0  0  0  0  0  0  0
  2  3  1  0
  2  1  1  1
  4  2  1  0
  4  5  1  6
  6  4  1  0
  6  7  2  0
  9 11  1  0
  9  8  1  1
  9 10  1  0
 12 13  1  0
 12 11  1  1
 13  6  1  0
 14 12  1  0
 15 14  2  0
 16 17  1  0
 17 19  1  0
 17 18  2  0
 20 19  1  6
 20 21  1  0
 21 14  1  0
 22 24  1  0
 22 20  1  0
 23 22  2  0
M  END
$$$$
