TLN.pdb
     RDKit          3D

 24 23  0  0  1  0  0  0  0  0999 V2000
    6.7412  -16.7772   19.9092 C   0  0  0  0  0  0  0  0  0  0  0  0
    7.4424  -16.6061   21.2609 C   0  0  1  0  0  0  0  0  0  0  0  0
    8.5789  -17.4071   21.2628 O   0  0  0  0  0  0  0  0  0  0  0  0
    7.8994  -15.1640   21.3164 C   0  0  2  0  0  0  0  0  0  0  0  0
    8.8220  -14.8475   20.2591 N   0  0  0  0  0  0  0  0  0  0  0  0
    8.5537  -14.8492   22.6125 C   0  0  0  0  0  0  0  0  0  0  0  0
    9.7985  -14.5962   22.6719 O   0  0  0  0  0  0  0  0  0  0  0  0
    7.5424  -11.4085   25.8436 C   0  0  0  0  0  0  0  0  0  0  0  0
    6.6698  -12.6162   25.6490 C   0  0  2  0  0  0  0  0  0  0  0  0
    5.5178  -12.4695   26.6685 C   0  0  0  0  0  0  0  0  0  0  0  0
    7.3191  -13.9008   25.9052 C   0  0  0  0  0  0  0  0  0  0  0  0
    8.4644  -14.3856   25.1136 C   0  0  2  0  0  0  0  0  0  0  0  0
    7.8206  -14.8195   23.8211 N   0  0  0  0  0  0  0  0  0  0  0  0
    9.2078  -15.5619   25.5452 C   0  0  0  0  0  0  0  0  0  0  0  0
    9.6231  -15.6619   26.7465 O   0  0  0  0  0  0  0  0  0  0  0  0
    9.9890  -20.9271   25.5200 N   0  0  0  0  0  0  0  0  0  0  0  0
    9.6832  -20.0335   24.4677 C   0  0  0  0  0  0  0  0  0  0  0  0
    8.6447  -20.3149   23.7908 O   0  0  0  0  0  0  0  0  0  0  0  0
   10.4193  -18.8391   24.0777 C   0  0  0  0  0  0  0  0  0  0  0  0
   10.4159  -17.7256   25.1130 C   0  0  2  0  0  0  0  0  0  0  0  0
    9.5167  -16.6639   24.7087 N   0  0  0  0  0  0  0  0  0  0  0  0
   11.7942  -17.3147   25.3778 C   0  0  0  0  0  0  0  0  0  0  0  0
   12.2214  -16.2140   24.9871 O   0  0  0  0  0  0  0  0  0  0  0  0
   12.6244  -18.1740   26.0747 O   0  0  0  0  0  0  0  0  0  0  0  0
  2  3  1  0
  2  1  1  6
  4  2  1  0
  4  5  1  6
  6  4  1  0
  6  7  2  0
  9 11  1  0
  9  8  1  1
  9 10  1  0
 12 13  1  0
 12 11  1  1
 13  6  1  0
 14 12  1  0
 15 14  2  0
 16 17  1  0
 17 19  1  0
 17 18  2  0
 20 19  1  6
 20 21  1  0
 21 14  1  0
 22 24  1  0
 22 20  1  0
 23 22  2  0
M  END
$$$$
