TLN.pdb
     RDKit          3D

 24 23  0  0  1  0  0  0  0  0999 V2000
    9.3005  -20.4646   18.1816 C   0  0  0  0  0  0  0  0  0  0  0  0
    9.6352  -19.3608   19.1904 C   0  0  1  0  0  0  0  0  0  0  0  0
   10.9260  -19.5799   19.6584 O   0  0  0  0  0  0  0  0  0  0  0  0
    9.6470  -18.0659   18.4062 C   0  0  2  0  0  0  0  0  0  0  0  0
   10.6173  -18.0849   17.3445 N   0  0  0  0  0  0  0  0  0  0  0  0
    9.9397  -16.9016   19.2813 C   0  0  0  0  0  0  0  0  0  0  0  0
   11.0960  -16.3729   19.3008 O   0  0  0  0  0  0  0  0  0  0  0  0
    8.5426  -12.3755   19.5802 C   0  0  0  0  0  0  0  0  0  0  0  0
    7.6409  -13.5509   19.8317 C   0  0  2  0  0  0  0  0  0  0  0  0
    6.2466  -12.9538   20.1269 C   0  0  0  0  0  0  0  0  0  0  0  0
    8.0100  -14.3850   20.9744 C   0  0  0  0  0  0  0  0  0  0  0  0
    9.2573  -15.1695   21.0171 C   0  0  2  0  0  0  0  0  0  0  0  0
    8.9488  -16.3415   20.1200 N   0  0  0  0  0  0  0  0  0  0  0  0
    9.6913  -15.7883   22.2626 C   0  0  0  0  0  0  0  0  0  0  0  0
    8.8396  -16.2838   23.0717 O   0  0  0  0  0  0  0  0  0  0  0  0
   12.4586  -18.4682   21.9195 N   0  0  0  0  0  0  0  0  0  0  0  0
   11.5468  -18.8356   22.9358 C   0  0  0  0  0  0  0  0  0  0  0  0
   11.2079  -20.0605   22.9549 O   0  0  0  0  0  0  0  0  0  0  0  0
   10.9592  -17.9743   23.9524 C   0  0  0  0  0  0  0  0  0  0  0  0
   11.4367  -16.5313   23.9147 C   0  0  2  0  0  0  0  0  0  0  0  0
   11.0444  -15.9027   22.6697 N   0  0  0  0  0  0  0  0  0  0  0  0
   12.8677  -16.4933   24.2141 C   0  0  0  0  0  0  0  0  0  0  0  0
   13.6806  -16.0206   23.4002 O   0  0  0  0  0  0  0  0  0  0  0  0
   13.3094  -16.9944   25.4253 O   0  0  0  0  0  0  0  0  0  0  0  0
  2  3  1  0
  2  1  1  6
  4  2  1  0
  4  5  1  6
  6  4  1  0
  6  7  2  0
  9 11  1  0
  9  8  1  1
  9 10  1  0
 12 13  1  0
 12 11  1  1
 13  6  1  0
 14 12  1  0
 15 14  2  0
 16 17  1  0
 17 19  1  0
 17 18  2  0
 20 19  1  6
 20 21  1  0
 21 14  1  0
 22 24  1  0
 22 20  1  0
 23 22  2  0
M  END
$$$$
