TLN.pdb
     RDKit          3D

 24 23  0  0  1  0  0  0  0  0999 V2000
   11.3177  -19.1356   18.1567 C   0  0  0  0  0  0  0  0  0  0  0  0
   10.8611  -17.7479   18.6190 C   0  0  1  0  0  0  0  0  0  0  0  0
    9.7886  -17.3587   17.8243 O   0  0  0  0  0  0  0  0  0  0  0  0
   10.3434  -17.9256   20.0304 C   0  0  2  0  0  0  0  0  0  0  0  0
    9.0615  -18.5776   20.0587 N   0  0  0  0  0  0  0  0  0  0  0  0
   10.2165  -16.6225   20.7324 C   0  0  0  0  0  0  0  0  0  0  0  0
   11.2335  -15.8855   20.9313 O   0  0  0  0  0  0  0  0  0  0  0  0
    8.6137  -12.4680   19.9005 C   0  0  0  0  0  0  0  0  0  0  0  0
    7.7102  -13.6531   20.0930 C   0  0  2  0  0  0  0  0  0  0  0  0
    6.2823  -13.1446   19.7922 C   0  0  0  0  0  0  0  0  0  0  0  0
    7.6989  -14.2140   21.4432 C   0  0  0  0  0  0  0  0  0  0  0  0
    8.8645  -14.8998   22.0298 C   0  0  2  0  0  0  0  0  0  0  0  0
    8.9673  -16.1563   21.2027 N   0  0  0  0  0  0  0  0  0  0  0  0
    8.8133  -15.3884   23.4014 C   0  0  0  0  0  0  0  0  0  0  0  0
    8.5907  -14.5866   24.3674 O   0  0  0  0  0  0  0  0  0  0  0  0
    5.9848  -17.1423   25.0078 N   0  0  0  0  0  0  0  0  0  0  0  0
    6.7290  -18.3425   25.0785 C   0  0  0  0  0  0  0  0  0  0  0  0
    6.0570  -19.4149   24.9585 O   0  0  0  0  0  0  0  0  0  0  0  0
    8.1654  -18.4841   25.2718 C   0  0  0  0  0  0  0  0  0  0  0  0
    8.9522  -17.1886   25.1529 C   0  0  2  0  0  0  0  0  0  0  0  0
    8.9877  -16.7449   23.7741 N   0  0  0  0  0  0  0  0  0  0  0  0
   10.2567  -17.3612   25.7911 C   0  0  0  0  0  0  0  0  0  0  0  0
   10.3474  -17.6281   27.0024 O   0  0  0  0  0  0  0  0  0  0  0  0
   11.3988  -17.2225   25.0232 O   0  0  0  0  0  0  0  0  0  0  0  0
  2  3  1  0
  2  1  1  6
  4  2  1  0
  4  5  1  6
  6  4  1  0
  6  7  2  0
  9 11  1  0
  9  8  1  1
  9 10  1  0
 12 13  1  0
 12 11  1  6
 13  6  1  0
 14 12  1  0
 15 14  2  0
 16 17  1  0
 17 19  1  0
 17 18  2  0
 20 19  1  6
 20 21  1  0
 21 14  1  0
 22 24  1  0
 22 20  1  0
 23 22  2  0
M  END
$$$$
