TLN.pdb
     RDKit          3D

 24 23  0  0  1  0  0  0  0  0999 V2000
    6.1860  -16.4784   19.6851 C   0  0  0  0  0  0  0  0  0  0  0  0
    6.9010  -16.3753   21.0365 C   0  0  1  0  0  0  0  0  0  0  0  0
    8.0538  -17.1501   20.9759 O   0  0  0  0  0  0  0  0  0  0  0  0
    7.3285  -14.9297   21.1752 C   0  0  2  0  0  0  0  0  0  0  0  0
    8.2149  -14.5235   20.1177 N   0  0  0  0  0  0  0  0  0  0  0  0
    8.0109  -14.6853   22.4720 C   0  0  0  0  0  0  0  0  0  0  0  0
    9.2774  -14.5919   22.5367 O   0  0  0  0  0  0  0  0  0  0  0  0
    7.9686  -11.3828   26.1739 C   0  0  0  0  0  0  0  0  0  0  0  0
    6.7791  -12.1984   25.7523 C   0  0  2  0  0  0  0  0  0  0  0  0
    5.6532  -11.8440   26.7497 C   0  0  0  0  0  0  0  0  0  0  0  0
    6.9683  -13.6472   25.8036 C   0  0  0  0  0  0  0  0  0  0  0  0
    7.9831  -14.3464   24.9945 C   0  0  2  0  0  0  0  0  0  0  0  0
    7.2814  -14.5483   23.6754 N   0  0  0  0  0  0  0  0  0  0  0  0
    8.4205  -15.6856   25.3656 C   0  0  0  0  0  0  0  0  0  0  0  0
    7.5759  -16.6329   25.4883 O   0  0  0  0  0  0  0  0  0  0  0  0
   12.3456  -16.7006   23.2068 N   0  0  0  0  0  0  0  0  0  0  0  0
   11.5539  -17.6091   23.9464 C   0  0  0  0  0  0  0  0  0  0  0  0
   10.8121  -18.3791   23.2589 O   0  0  0  0  0  0  0  0  0  0  0  0
   11.4952  -17.7584   25.3938 C   0  0  0  0  0  0  0  0  0  0  0  0
   10.1605  -17.3815   26.0168 C   0  0  2  0  0  0  0  0  0  0  0  0
    9.7698  -16.0487   25.6042 N   0  0  0  0  0  0  0  0  0  0  0  0
   10.2296  -17.5970   27.4617 C   0  0  0  0  0  0  0  0  0  0  0  0
   10.0698  -16.6556   28.2586 O   0  0  0  0  0  0  0  0  0  0  0  0
   10.4771  -18.8729   27.9349 O   0  0  0  0  0  0  0  0  0  0  0  0
  2  3  1  0
  2  1  1  6
  4  2  1  0
  4  5  1  6
  6  4  1  0
  6  7  2  0
  9 11  1  0
  9  8  1  1
  9 10  1  0
 12 13  1  0
 12 11  1  1
 13  6  1  0
 14 12  1  0
 15 14  2  0
 16 17  1  0
 17 19  1  0
 17 18  2  0
 20 19  1  6
 20 21  1  0
 21 14  1  0
 22 24  1  0
 22 20  1  0
 23 22  2  0
M  END
$$$$
