TLN.pdb
     RDKit          3D

 24 23  0  0  1  0  0  0  0  0999 V2000
    6.1943  -16.7881   21.1350 C   0  0  0  0  0  0  0  0  0  0  0  0
    7.4580  -16.5581   20.2995 C   0  0  1  0  0  0  0  0  0  0  0  0
    7.1423  -16.7898   18.9654 O   0  0  0  0  0  0  0  0  0  0  0  0
    7.7926  -15.0885   20.4414 C   0  0  2  0  0  0  0  0  0  0  0  0
    8.7835  -14.6645   19.4888 N   0  0  0  0  0  0  0  0  0  0  0  0
    8.2940  -14.7729   21.8038 C   0  0  0  0  0  0  0  0  0  0  0  0
    9.5127  -14.9638   22.1122 O   0  0  0  0  0  0  0  0  0  0  0  0
    5.7325  -12.0013   26.6701 C   0  0  0  0  0  0  0  0  0  0  0  0
    6.9082  -12.8253   26.2267 C   0  0  2  0  0  0  0  0  0  0  0  0
    8.1551  -11.9502   26.4864 C   0  0  0  0  0  0  0  0  0  0  0  0
    6.9156  -13.1871   24.8101 C   0  0  0  0  0  0  0  0  0  0  0  0
    7.8985  -14.1217   24.2324 C   0  0  2  0  0  0  0  0  0  0  0  0
    7.4393  -14.2515   22.8022 N   0  0  0  0  0  0  0  0  0  0  0  0
    7.9652  -15.4985   24.7038 C   0  0  0  0  0  0  0  0  0  0  0  0
    7.2699  -16.4096   24.1452 O   0  0  0  0  0  0  0  0  0  0  0  0
   11.2154  -19.5561   24.6016 N   0  0  0  0  0  0  0  0  0  0  0  0
   11.4489  -18.1802   24.3739 C   0  0  0  0  0  0  0  0  0  0  0  0
   12.6386  -17.8697   24.0516 O   0  0  0  0  0  0  0  0  0  0  0  0
   10.4867  -17.0911   24.4669 C   0  0  0  0  0  0  0  0  0  0  0  0
    9.5967  -17.1344   25.6988 C   0  0  2  0  0  0  0  0  0  0  0  0
    8.7827  -15.9382   25.7752 N   0  0  0  0  0  0  0  0  0  0  0  0
   10.4212  -17.4094   26.8749 C   0  0  0  0  0  0  0  0  0  0  0  0
   10.2668  -18.4509   27.5368 O   0  0  0  0  0  0  0  0  0  0  0  0
   11.3839  -16.4878   27.2451 O   0  0  0  0  0  0  0  0  0  0  0  0
  2  3  1  0
  2  1  1  1
  4  2  1  0
  4  5  1  6
  6  4  1  0
  6  7  2  0
  9 11  1  0
  9  8  1  6
  9 10  1  0
 12 13  1  0
 12 11  1  1
 13  6  1  0
 14 12  1  0
 15 14  2  0
 16 17  1  0
 17 19  1  0
 17 18  2  0
 20 19  1  6
 20 21  1  0
 21 14  1  0
 22 24  1  0
 22 20  1  0
 23 22  2  0
M  END
$$$$
