TLN.pdb
     RDKit          3D

 24 23  0  0  1  0  0  0  0  0999 V2000
    6.6567  -14.4907   18.6609 C   0  0  0  0  0  0  0  0  0  0  0  0
    7.2138  -14.8218   20.0494 C   0  0  1  0  0  0  0  0  0  0  0  0
    8.4520  -15.4324   19.8841 O   0  0  0  0  0  0  0  0  0  0  0  0
    7.4476  -13.4926   20.7351 C   0  0  2  0  0  0  0  0  0  0  0  0
    8.3044  -12.6302   19.9662 N   0  0  0  0  0  0  0  0  0  0  0  0
    8.0553  -13.6720   22.0788 C   0  0  0  0  0  0  0  0  0  0  0  0
    9.3100  -13.5556   22.2495 O   0  0  0  0  0  0  0  0  0  0  0  0
    8.1345  -11.6104   26.5524 C   0  0  0  0  0  0  0  0  0  0  0  0
    6.9483  -12.0797   25.7581 C   0  0  2  0  0  0  0  0  0  0  0  0
    5.7100  -11.7580   26.6246 C   0  0  0  0  0  0  0  0  0  0  0  0
    6.9199  -13.5129   25.4703 C   0  0  0  0  0  0  0  0  0  0  0  0
    7.8898  -14.1634   24.5707 C   0  0  2  0  0  0  0  0  0  0  0  0
    7.2654  -13.9770   23.2111 N   0  0  0  0  0  0  0  0  0  0  0  0
    8.1188  -15.5997   24.6556 C   0  0  0  0  0  0  0  0  0  0  0  0
    7.5219  -16.3995   23.8622 O   0  0  0  0  0  0  0  0  0  0  0  0
   11.7362  -19.3119   24.0798 N   0  0  0  0  0  0  0  0  0  0  0  0
   11.6610  -17.9821   23.6052 C   0  0  0  0  0  0  0  0  0  0  0  0
   12.4671  -17.6856   22.6682 O   0  0  0  0  0  0  0  0  0  0  0  0
   10.7711  -16.9259   24.0667 C   0  0  0  0  0  0  0  0  0  0  0  0
    9.8649  -17.3195   25.2223 C   0  0  2  0  0  0  0  0  0  0  0  0
    8.9976  -16.2160   25.5816 N   0  0  0  0  0  0  0  0  0  0  0  0
   10.6825  -17.8559   26.3097 C   0  0  0  0  0  0  0  0  0  0  0  0
   11.2768  -17.0997   27.0980 O   0  0  0  0  0  0  0  0  0  0  0  0
   10.7871  -19.2279   26.4515 O   0  0  0  0  0  0  0  0  0  0  0  0
  2  3  1  0
  2  1  1  6
  4  2  1  0
  4  5  1  6
  6  4  1  0
  6  7  2  0
  9 11  1  0
  9  8  1  1
  9 10  1  0
 12 13  1  0
 12 11  1  1
 13  6  1  0
 14 12  1  0
 15 14  2  0
 16 17  1  0
 17 19  1  0
 17 18  2  0
 20 19  1  6
 20 21  1  0
 21 14  1  0
 22 24  1  0
 22 20  1  0
 23 22  2  0
M  END
$$$$
