TLN.pdb
     RDKit          3D

 24 23  0  0  1  0  0  0  0  0999 V2000
    6.5651  -16.3746   19.5286 C   0  0  0  0  0  0  0  0  0  0  0  0
    7.0584  -16.3051   20.9777 C   0  0  1  0  0  0  0  0  0  0  0  0
    8.0062  -17.3059   21.1601 O   0  0  0  0  0  0  0  0  0  0  0  0
    7.7665  -14.9743   21.1159 C   0  0  2  0  0  0  0  0  0  0  0  0
    8.8803  -14.8574   20.2132 N   0  0  0  0  0  0  0  0  0  0  0  0
    8.2665  -14.7641   22.4991 C   0  0  0  0  0  0  0  0  0  0  0  0
    9.5121  -14.7840   22.7539 O   0  0  0  0  0  0  0  0  0  0  0  0
    7.9710  -11.4877   26.3279 C   0  0  0  0  0  0  0  0  0  0  0  0
    6.8310  -12.1565   25.6131 C   0  0  2  0  0  0  0  0  0  0  0  0
    5.5491  -11.6858   26.3363 C   0  0  0  0  0  0  0  0  0  0  0  0
    6.8435  -13.6180   25.6528 C   0  0  0  0  0  0  0  0  0  0  0  0
    7.8871  -14.4232   24.9928 C   0  0  2  0  0  0  0  0  0  0  0  0
    7.3806  -14.5356   23.5771 N   0  0  0  0  0  0  0  0  0  0  0  0
    8.1093  -15.8058   25.3946 C   0  0  0  0  0  0  0  0  0  0  0  0
    7.4208  -16.7487   24.8822 O   0  0  0  0  0  0  0  0  0  0  0  0
   10.1330  -18.8540   22.6978 N   0  0  0  0  0  0  0  0  0  0  0  0
    9.9907  -18.7233   24.0985 C   0  0  0  0  0  0  0  0  0  0  0  0
    9.3664  -19.6664   24.6788 O   0  0  0  0  0  0  0  0  0  0  0  0
   10.4753  -17.6388   24.9409 C   0  0  0  0  0  0  0  0  0  0  0  0
    9.7525  -17.4969   26.2709 C   0  0  2  0  0  0  0  0  0  0  0  0
    9.0782  -16.2167   26.3444 N   0  0  0  0  0  0  0  0  0  0  0  0
   10.6911  -17.7759   27.3572 C   0  0  0  0  0  0  0  0  0  0  0  0
   10.4952  -18.7154   28.1482 O   0  0  0  0  0  0  0  0  0  0  0  0
   11.8097  -16.9740   27.4948 O   0  0  0  0  0  0  0  0  0  0  0  0
  2  3  1  0
  2  1  1  6
  4  2  1  0
  4  5  1  6
  6  4  1  0
  6  7  2  0
  9 11  1  0
  9  8  1  1
  9 10  1  0
 12 13  1  0
 12 11  1  1
 13  6  1  0
 14 12  1  0
 15 14  2  0
 16 17  1  0
 17 19  1  0
 17 18  2  0
 20 19  1  6
 20 21  1  0
 21 14  1  0
 22 24  1  0
 22 20  1  0
 23 22  2  0
M  END
$$$$
