TLN.pdb
     RDKit          3D

 24 23  0  0  1  0  0  0  0  0999 V2000
    9.8707  -20.6269   18.9348 C   0  0  0  0  0  0  0  0  0  0  0  0
   10.0849  -19.3718   19.7874 C   0  0  1  0  0  0  0  0  0  0  0  0
   11.3850  -19.4001   20.2793 O   0  0  0  0  0  0  0  0  0  0  0  0
    9.9809  -18.1974   18.8378 C   0  0  2  0  0  0  0  0  0  0  0  0
   10.9438  -18.2762   17.7721 N   0  0  0  0  0  0  0  0  0  0  0  0
   10.1766  -16.9057   19.5452 C   0  0  0  0  0  0  0  0  0  0  0  0
   11.2807  -16.2795   19.4690 O   0  0  0  0  0  0  0  0  0  0  0  0
    8.2162  -12.5475   19.4579 C   0  0  0  0  0  0  0  0  0  0  0  0
    7.4849  -13.7751   19.9231 C   0  0  2  0  0  0  0  0  0  0  0  0
    6.0615  -13.3002   20.2923 C   0  0  0  0  0  0  0  0  0  0  0  0
    8.0491  -14.4249   21.1050 C   0  0  0  0  0  0  0  0  0  0  0  0
    9.3799  -15.0593   21.1055 C   0  0  2  0  0  0  0  0  0  0  0  0
    9.1482  -16.3282   20.3248 N   0  0  0  0  0  0  0  0  0  0  0  0
    9.9709  -15.5210   22.3544 C   0  0  0  0  0  0  0  0  0  0  0  0
    9.3145  -15.4561   23.4455 O   0  0  0  0  0  0  0  0  0  0  0  0
   12.4017  -18.3812   26.0357 N   0  0  0  0  0  0  0  0  0  0  0  0
   11.2574  -18.6110   25.2375 C   0  0  0  0  0  0  0  0  0  0  0  0
   10.5252  -19.5873   25.5930 O   0  0  0  0  0  0  0  0  0  0  0  0
   10.8297  -17.8602   24.0653 C   0  0  0  0  0  0  0  0  0  0  0  0
   11.7482  -16.7126   23.6769 C   0  0  2  0  0  0  0  0  0  0  0  0
   11.2719  -16.0725   22.4676 N   0  0  0  0  0  0  0  0  0  0  0  0
   13.1267  -17.1987   23.6294 C   0  0  0  0  0  0  0  0  0  0  0  0
   13.4351  -18.1856   22.9384 O   0  0  0  0  0  0  0  0  0  0  0  0
   14.0921  -16.5404   24.3698 O   0  0  0  0  0  0  0  0  0  0  0  0
  2  3  1  0
  2  1  1  6
  4  2  1  0
  4  5  1  6
  6  4  1  0
  6  7  2  0
  9 11  1  0
  9  8  1  1
  9 10  1  0
 12 13  1  0
 12 11  1  1
 13  6  1  0
 14 12  1  0
 15 14  2  0
 16 17  1  0
 17 19  1  0
 17 18  2  0
 20 19  1  6
 20 21  1  0
 21 14  1  0
 22 24  1  0
 22 20  1  0
 23 22  2  0
M  END
$$$$
