HTK.pdb
     RDKit          3D

 27 27  0  0  1  0  0  0  0  0999 V2000
    9.4010  -14.3226   17.0737 N   0  0  0  0  0  0  0  0  0  0  0  0
    9.7260  -15.2034   18.1604 C   0  0  1  0  0  0  0  0  0  0  0  0
   11.1940  -15.5314   18.1447 C   0  0  0  0  0  0  0  0  0  0  0  0
   11.4406  -16.4781   17.0333 C   0  0  0  0  0  0  0  0  0  0  0  0
   11.6509  -16.1375   15.7006 C   0  0  0  0  0  0  0  0  0  0  0  0
   11.8307  -17.2893   15.0453 N   0  0  0  0  0  0  0  0  0  0  0  0
   11.7488  -18.3384   15.8716 C   0  0  0  0  0  0  0  0  0  0  0  0
   11.5069  -17.8040   17.0936 N   0  0  0  0  0  0  0  0  0  0  0  0
    9.4549  -14.4870   19.4538 C   0  0  0  0  0  0  0  0  0  0  0  0
    9.9128  -13.3373   19.6547 O   0  0  0  0  0  0  0  0  0  0  0  0
    6.1829  -13.8154   20.6456 C   0  0  0  0  0  0  0  0  0  0  0  0
    6.7899  -14.5641   21.8157 C   0  0  1  0  0  0  0  0  0  0  0  0
    6.4733  -15.9144   21.6299 O   0  0  0  0  0  0  0  0  0  0  0  0
    8.2891  -14.4458   21.6926 C   0  0  2  0  0  0  0  0  0  0  0  0
    8.6786  -15.0954   20.4684 N   0  0  0  0  0  0  0  0  0  0  0  0
    9.0134  -15.0254   22.8214 C   0  0  0  0  0  0  0  0  0  0  0  0
    9.7890  -15.9970   22.5918 O   0  0  0  0  0  0  0  0  0  0  0  0
    8.8794  -14.5394   24.1651 N   0  0  0  0  0  0  0  0  0  0  0  0
    9.5663  -15.2354   25.2108 C   0  0  1  0  0  0  0  0  0  0  0  0
    9.5325  -14.4993   26.5294 C   0  0  0  0  0  0  0  0  0  0  0  0
   10.3146  -15.3202   27.5272 C   0  0  0  0  0  0  0  0  0  0  0  0
   10.3840  -14.6899   28.8777 C   0  0  0  0  0  0  0  0  0  0  0  0
   11.2410  -15.4728   29.8482 C   0  0  0  0  0  0  0  0  0  0  0  0
   11.3638  -14.7442   31.0962 N   0  0  0  0  0  0  0  0  0  0  0  0
    9.0030  -16.6227   25.3743 C   0  0  0  0  0  0  0  0  0  0  0  0
    7.7218  -16.9442   24.9629 O   0  0  0  0  0  0  0  0  0  0  0  0
    9.6957  -17.5308   25.8958 O   0  0  0  0  0  0  0  0  0  0  0  0
  2  1  1  6
  2  3  1  0
  3  4  1  0
  4  8  1  0
  5  6  1  0
  5  4  2  0
  6  7  1  0
  7  8  2  0
  9 10  2  0
  9  2  1  0
 12 11  1  6
 12 13  1  0
 12 14  1  0
 14 15  1  6
 15  9  1  0
 16 14  1  0
 16 18  1  0
 17 16  2  0
 19 18  1  0
 19 25  1  0
 19 20  1  1
 21 20  1  0
 22 21  1  0
 23 22  1  0
 24 23  1  0
 25 26  1  0
 27 25  2  0
M  END
$$$$
