HTK.pdb
     RDKit          3D

 27 27  0  0  1  0  0  0  0  0999 V2000
    8.8836  -14.9345   15.3552 N   0  0  0  0  0  0  0  0  0  0  0  0
    8.8109  -15.8048   16.4953 C   0  0  1  0  0  0  0  0  0  0  0  0
    9.8574  -16.8810   16.3973 C   0  0  0  0  0  0  0  0  0  0  0  0
    9.4745  -17.7945   15.2969 C   0  0  0  0  0  0  0  0  0  0  0  0
    8.3341  -18.5908   15.2547 C   0  0  0  0  0  0  0  0  0  0  0  0
    8.3822  -19.2497   14.0919 N   0  0  0  0  0  0  0  0  0  0  0  0
    9.4760  -18.9258   13.3928 C   0  0  0  0  0  0  0  0  0  0  0  0
   10.1309  -18.0240   14.1644 N   0  0  0  0  0  0  0  0  0  0  0  0
    9.1249  -15.0046   17.7284 C   0  0  0  0  0  0  0  0  0  0  0  0
    9.4603  -13.7998   17.6390 O   0  0  0  0  0  0  0  0  0  0  0  0
    7.7463  -13.2251   19.0219 C   0  0  0  0  0  0  0  0  0  0  0  0
    7.8186  -14.0226   20.3090 C   0  0  1  0  0  0  0  0  0  0  0  0
    6.7392  -14.9129   20.2854 O   0  0  0  0  0  0  0  0  0  0  0  0
    9.0745  -14.8567   20.2480 C   0  0  2  0  0  0  0  0  0  0  0  0
    9.0482  -15.5945   19.0121 N   0  0  0  0  0  0  0  0  0  0  0  0
    9.2205  -15.7726   21.3769 C   0  0  0  0  0  0  0  0  0  0  0  0
    8.6374  -16.8924   21.3107 O   0  0  0  0  0  0  0  0  0  0  0  0
    9.9915  -15.4531   22.5445 N   0  0  0  0  0  0  0  0  0  0  0  0
   10.2888  -16.5037   23.4706 C   0  0  1  0  0  0  0  0  0  0  0  0
   11.7700  -16.6734   23.7131 C   0  0  0  0  0  0  0  0  0  0  0  0
   11.9557  -17.9379   24.5181 C   0  0  0  0  0  0  0  0  0  0  0  0
   13.3762  -18.1840   24.9024 C   0  0  0  0  0  0  0  0  0  0  0  0
   13.5690  -19.4964   25.6301 C   0  0  0  0  0  0  0  0  0  0  0  0
   14.9702  -19.6774   25.9574 N   0  0  0  0  0  0  0  0  0  0  0  0
    9.5710  -16.2711   24.7742 C   0  0  0  0  0  0  0  0  0  0  0  0
    9.4581  -17.2620   25.7332 O   0  0  0  0  0  0  0  0  0  0  0  0
    9.0518  -15.1550   25.0217 O   0  0  0  0  0  0  0  0  0  0  0  0
  2  1  1  6
  2  3  1  0
  3  4  1  0
  4  8  1  0
  5  6  1  0
  5  4  2  0
  6  7  1  0
  7  8  2  0
  9 10  2  0
  9  2  1  0
 12 11  1  6
 12 13  1  0
 12 14  1  0
 14 15  1  6
 15  9  1  0
 16 14  1  0
 16 18  1  0
 17 16  2  0
 19 18  1  0
 19 25  1  0
 19 20  1  1
 21 20  1  0
 22 21  1  0
 23 22  1  0
 24 23  1  0
 25 26  1  0
 27 25  2  0
M  END
$$$$
