HTK.pdb
     RDKit          3D

 27 27  0  0  1  0  0  0  0  0999 V2000
    8.7156  -16.8940   19.4023 N   0  0  0  0  0  0  0  0  0  0  0  0
    8.8363  -15.9023   20.4338 C   0  0  1  0  0  0  0  0  0  0  0  0
    7.7425  -14.8778   20.3028 C   0  0  0  0  0  0  0  0  0  0  0  0
    7.9503  -14.1448   19.0333 C   0  0  0  0  0  0  0  0  0  0  0  0
    8.7543  -13.0225   18.8593 C   0  0  0  0  0  0  0  0  0  0  0  0
    8.6536  -12.6881   17.5684 N   0  0  0  0  0  0  0  0  0  0  0  0
    7.8401  -13.5222   16.9107 C   0  0  0  0  0  0  0  0  0  0  0  0
    7.4212  -14.4117   17.8439 N   0  0  0  0  0  0  0  0  0  0  0  0
    8.6463  -16.5725   21.7658 C   0  0  0  0  0  0  0  0  0  0  0  0
    7.8621  -17.5434   21.8857 O   0  0  0  0  0  0  0  0  0  0  0  0
    9.1816  -18.9124   23.0418 C   0  0  0  0  0  0  0  0  0  0  0  0
    9.9862  -18.1120   24.0467 C   0  0  1  0  0  0  0  0  0  0  0  0
   11.2336  -17.8757   23.4583 O   0  0  0  0  0  0  0  0  0  0  0  0
    9.3110  -16.7706   24.1932 C   0  0  2  0  0  0  0  0  0  0  0  0
    9.3479  -16.1214   22.9088 N   0  0  0  0  0  0  0  0  0  0  0  0
    9.9269  -15.9163   25.2058 C   0  0  0  0  0  0  0  0  0  0  0  0
   11.0541  -15.4067   24.9452 O   0  0  0  0  0  0  0  0  0  0  0  0
    9.3082  -15.6369   26.4703 N   0  0  0  0  0  0  0  0  0  0  0  0
    9.9502  -14.7076   27.3501 C   0  0  1  0  0  0  0  0  0  0  0  0
    8.9732  -13.8170   28.0808 C   0  0  0  0  0  0  0  0  0  0  0  0
    8.1248  -13.1250   27.0402 C   0  0  0  0  0  0  0  0  0  0  0  0
    7.1109  -12.2031   27.6300 C   0  0  0  0  0  0  0  0  0  0  0  0
    6.3518  -11.4175   26.5832 C   0  0  0  0  0  0  0  0  0  0  0  0
    5.3601  -10.5743   27.2227 N   0  0  0  0  0  0  0  0  0  0  0  0
   10.8257  -15.4378   28.3345 C   0  0  0  0  0  0  0  0  0  0  0  0
   11.8209  -14.7921   29.0464 O   0  0  0  0  0  0  0  0  0  0  0  0
   10.6680  -16.6676   28.5325 O   0  0  0  0  0  0  0  0  0  0  0  0
  2  1  1  6
  2  3  1  0
  3  4  1  0
  4  8  1  0
  5  6  1  0
  5  4  2  0
  6  7  1  0
  7  8  2  0
  9 10  2  0
  9  2  1  0
 12 11  1  6
 12 13  1  0
 12 14  1  0
 14 15  1  6
 15  9  1  0
 16 14  1  0
 16 18  1  0
 17 16  2  0
 19 18  1  0
 19 25  1  0
 19 20  1  1
 21 20  1  0
 22 21  1  0
 23 22  1  0
 24 23  1  0
 25 26  1  0
 27 25  2  0
M  END
$$$$
