HTK.pdb
     RDKit          3D

 27 27  0  0  1  0  0  0  0  0999 V2000
    8.9309  -16.7567   17.8525 N   0  0  0  0  0  0  0  0  0  0  0  0
    8.7320  -16.0963   19.1120 C   0  0  1  0  0  0  0  0  0  0  0  0
    7.3545  -15.4947   19.1737 C   0  0  0  0  0  0  0  0  0  0  0  0
    7.2694  -14.4368   18.1414 C   0  0  0  0  0  0  0  0  0  0  0  0
    7.6179  -13.1003   18.3097 C   0  0  0  0  0  0  0  0  0  0  0  0
    7.3865  -12.5037   17.1353 N   0  0  0  0  0  0  0  0  0  0  0  0
    6.9145  -13.3711   16.2325 C   0  0  0  0  0  0  0  0  0  0  0  0
    6.8534  -14.5577   16.8850 N   0  0  0  0  0  0  0  0  0  0  0  0
    8.8068  -17.1232   20.2073 C   0  0  0  0  0  0  0  0  0  0  0  0
    8.0385  -18.1140   20.2067 O   0  0  0  0  0  0  0  0  0  0  0  0
   11.9272  -18.8113   21.2187 C   0  0  0  0  0  0  0  0  0  0  0  0
   10.5402  -19.1914   21.6981 C   0  0  1  0  0  0  0  0  0  0  0  0
   10.7179  -20.1136   22.7355 O   0  0  0  0  0  0  0  0  0  0  0  0
    9.9254  -17.9573   22.3110 C   0  0  2  0  0  0  0  0  0  0  0  0
    9.7445  -16.9918   21.2587 N   0  0  0  0  0  0  0  0  0  0  0  0
   10.7267  -17.3817   23.3887 C   0  0  0  0  0  0  0  0  0  0  0  0
   11.6383  -16.5631   23.0770 O   0  0  0  0  0  0  0  0  0  0  0  0
   10.5206  -17.7064   24.7714 N   0  0  0  0  0  0  0  0  0  0  0  0
   11.1468  -16.8848   25.7627 C   0  0  1  0  0  0  0  0  0  0  0  0
   10.1580  -16.2514   26.7130 C   0  0  0  0  0  0  0  0  0  0  0  0
   10.9376  -15.3609   27.6514 C   0  0  0  0  0  0  0  0  0  0  0  0
   10.0779  -14.6838   28.6655 C   0  0  0  0  0  0  0  0  0  0  0  0
   10.8524  -13.7326   29.5513 C   0  0  0  0  0  0  0  0  0  0  0  0
    9.9508  -13.0810   30.4818 N   0  0  0  0  0  0  0  0  0  0  0  0
   12.1710  -17.6790   26.5301 C   0  0  0  0  0  0  0  0  0  0  0  0
   13.3738  -17.1255   26.9317 O   0  0  0  0  0  0  0  0  0  0  0  0
   11.9510  -18.8792   26.8260 O   0  0  0  0  0  0  0  0  0  0  0  0
  2  1  1  6
  2  3  1  0
  3  4  1  0
  4  8  1  0
  5  6  1  0
  5  4  2  0
  6  7  1  0
  7  8  2  0
  9 10  2  0
  9  2  1  0
 12 11  1  1
 12 13  1  0
 12 14  1  0
 14 15  1  6
 15  9  1  0
 16 14  1  0
 16 18  1  0
 17 16  2  0
 19 18  1  0
 19 25  1  0
 19 20  1  1
 21 20  1  0
 22 21  1  0
 23 22  1  0
 24 23  1  0
 25 26  1  0
 27 25  2  0
M  END
$$$$
