HTK.pdb
     RDKit          3D

 27 27  0  0  1  0  0  0  0  0999 V2000
    8.3899  -16.1565   15.7261 N   0  0  0  0  0  0  0  0  0  0  0  0
    8.8443  -15.4576   16.8954 C   0  0  1  0  0  0  0  0  0  0  0  0
    7.8055  -14.4681   17.3480 C   0  0  0  0  0  0  0  0  0  0  0  0
    8.3446  -13.7407   18.5195 C   0  0  0  0  0  0  0  0  0  0  0  0
    7.6312  -12.8767   19.3446 C   0  0  0  0  0  0  0  0  0  0  0  0
    8.4960  -12.4444   20.2687 N   0  0  0  0  0  0  0  0  0  0  0  0
    9.7104  -12.9755   20.0862 C   0  0  0  0  0  0  0  0  0  0  0  0
    9.5843  -13.7725   18.9970 N   0  0  0  0  0  0  0  0  0  0  0  0
    9.0130  -16.4510   18.0108 C   0  0  0  0  0  0  0  0  0  0  0  0
    8.1845  -17.3784   18.1701 O   0  0  0  0  0  0  0  0  0  0  0  0
   10.7937  -18.9753   18.1274 C   0  0  0  0  0  0  0  0  0  0  0  0
   11.4512  -18.2826   19.3047 C   0  0  1  0  0  0  0  0  0  0  0  0
   12.4726  -17.4854   18.7762 O   0  0  0  0  0  0  0  0  0  0  0  0
   10.4289  -17.3456   19.8996 C   0  0  2  0  0  0  0  0  0  0  0  0
   10.1087  -16.3591   18.9013 N   0  0  0  0  0  0  0  0  0  0  0  0
   10.8823  -16.6917   21.1250 C   0  0  0  0  0  0  0  0  0  0  0  0
   11.5997  -15.6567   21.0137 O   0  0  0  0  0  0  0  0  0  0  0  0
   10.5480  -17.1739   22.4348 N   0  0  0  0  0  0  0  0  0  0  0  0
   10.9882  -16.4194   23.5692 C   0  0  1  0  0  0  0  0  0  0  0  0
   10.4318  -16.9389   24.8739 C   0  0  0  0  0  0  0  0  0  0  0  0
   10.9001  -16.0096   25.9686 C   0  0  0  0  0  0  0  0  0  0  0  0
   10.3736  -16.3784   27.3149 C   0  0  0  0  0  0  0  0  0  0  0  0
   10.8338  -15.4349   28.4045 C   0  0  0  0  0  0  0  0  0  0  0  0
   10.3160  -15.8725   29.6866 N   0  0  0  0  0  0  0  0  0  0  0  0
   12.4930  -16.3836   23.6222 C   0  0  0  0  0  0  0  0  0  0  0  0
   13.2598  -17.5082   23.3739 O   0  0  0  0  0  0  0  0  0  0  0  0
   13.0925  -15.3153   23.8974 O   0  0  0  0  0  0  0  0  0  0  0  0
  2  1  1  6
  2  3  1  0
  3  4  1  0
  4  8  1  0
  5  6  1  0
  5  4  2  0
  6  7  1  0
  7  8  2  0
  9 10  2  0
  9  2  1  0
 12 11  1  6
 12 13  1  0
 12 14  1  0
 14 15  1  6
 15  9  1  0
 16 14  1  0
 16 18  1  0
 17 16  2  0
 19 18  1  0
 19 25  1  0
 19 20  1  1
 21 20  1  0
 22 21  1  0
 23 22  1  0
 24 23  1  0
 25 26  1  0
 27 25  2  0
M  END
$$$$
