HTK.pdb
     RDKit          3D

 27 27  0  0  1  0  0  0  0  0999 V2000
   13.4208  -13.9318   17.9306 N   0  0  0  0  0  0  0  0  0  0  0  0
   12.2453  -14.7283   18.1450 C   0  0  1  0  0  0  0  0  0  0  0  0
   12.6145  -16.1819   18.2627 C   0  0  0  0  0  0  0  0  0  0  0  0
   13.1005  -16.6402   16.9415 C   0  0  0  0  0  0  0  0  0  0  0  0
   12.3121  -16.8942   15.8234 C   0  0  0  0  0  0  0  0  0  0  0  0
   13.1503  -17.2833   14.8566 N   0  0  0  0  0  0  0  0  0  0  0  0
   14.4177  -17.2936   15.2851 C   0  0  0  0  0  0  0  0  0  0  0  0
   14.3539  -16.8911   16.5779 N   0  0  0  0  0  0  0  0  0  0  0  0
   11.6299  -14.3288   19.4570 C   0  0  0  0  0  0  0  0  0  0  0  0
   12.3461  -13.9065   20.3954 O   0  0  0  0  0  0  0  0  0  0  0  0
    8.6117  -12.1242   19.6568 C   0  0  0  0  0  0  0  0  0  0  0  0
    8.2591  -13.3601   20.4607 C   0  0  1  0  0  0  0  0  0  0  0  0
    7.6174  -14.2371   19.5791 O   0  0  0  0  0  0  0  0  0  0  0  0
    9.5567  -14.0167   20.8631 C   0  0  2  0  0  0  0  0  0  0  0  0
   10.2324  -14.4215   19.6581 N   0  0  0  0  0  0  0  0  0  0  0  0
    9.3779  -15.1648   21.7488 C   0  0  0  0  0  0  0  0  0  0  0  0
    9.3480  -16.3162   21.2277 O   0  0  0  0  0  0  0  0  0  0  0  0
    9.2367  -15.0366   23.1713 N   0  0  0  0  0  0  0  0  0  0  0  0
    9.1147  -16.2305   23.9521 C   0  0  1  0  0  0  0  0  0  0  0  0
    9.7118  -16.0947   25.3330 C   0  0  0  0  0  0  0  0  0  0  0  0
    9.5655  -17.4300   26.0235 C   0  0  0  0  0  0  0  0  0  0  0  0
   10.1176  -17.4360   27.4096 C   0  0  0  0  0  0  0  0  0  0  0  0
   10.0952  -18.8090   28.0449 C   0  0  0  0  0  0  0  0  0  0  0  0
   10.7639  -18.7678   29.3313 N   0  0  0  0  0  0  0  0  0  0  0  0
    7.6707  -16.6482   24.0479 C   0  0  0  0  0  0  0  0  0  0  0  0
    7.3044  -17.9557   24.3128 O   0  0  0  0  0  0  0  0  0  0  0  0
    6.7548  -15.8046   23.8867 O   0  0  0  0  0  0  0  0  0  0  0  0
  2  1  1  1
  2  3  1  0
  3  4  1  0
  4  8  1  0
  5  6  1  0
  5  4  2  0
  6  7  1  0
  7  8  2  0
  9 10  2  0
  9  2  1  0
 12 11  1  6
 12 13  1  0
 12 14  1  0
 14 15  1  6
 15  9  1  0
 16 14  1  0
 16 18  1  0
 17 16  2  0
 19 18  1  0
 19 25  1  0
 19 20  1  1
 21 20  1  0
 22 21  1  0
 23 22  1  0
 24 23  1  0
 25 26  1  0
 27 25  2  0
M  END
$$$$
