HTK.pdb
     RDKit          3D

 27 27  0  0  1  0  0  0  0  0999 V2000
   12.0501  -14.0854   17.1980 N   0  0  0  0  0  0  0  0  0  0  0  0
   11.6944  -15.0983   18.1519 C   0  0  1  0  0  0  0  0  0  0  0  0
   12.9106  -15.8887   18.5511 C   0  0  0  0  0  0  0  0  0  0  0  0
   13.4344  -16.5659   17.3432 C   0  0  0  0  0  0  0  0  0  0  0  0
   12.7574  -17.5090   16.5761 C   0  0  0  0  0  0  0  0  0  0  0  0
   13.5913  -17.8556   15.5898 N   0  0  0  0  0  0  0  0  0  0  0  0
   14.7522  -17.1964   15.6785 C   0  0  0  0  0  0  0  0  0  0  0  0
   14.6241  -16.4068   16.7728 N   0  0  0  0  0  0  0  0  0  0  0  0
   11.1858  -14.4257   19.3962 C   0  0  0  0  0  0  0  0  0  0  0  0
   11.7926  -13.4429   19.8839 O   0  0  0  0  0  0  0  0  0  0  0  0
    7.8906  -13.0940   19.5939 C   0  0  0  0  0  0  0  0  0  0  0  0
    7.9309  -14.0183   20.7948 C   0  0  1  0  0  0  0  0  0  0  0  0
    7.4402  -15.2547   20.3604 O   0  0  0  0  0  0  0  0  0  0  0  0
    9.3824  -14.2249   21.1512 C   0  0  2  0  0  0  0  0  0  0  0  0
   10.0140  -14.8880   20.0405 N   0  0  0  0  0  0  0  0  0  0  0  0
    9.5768  -14.9989   22.3751 C   0  0  0  0  0  0  0  0  0  0  0  0
    9.9913  -16.1881   22.2645 O   0  0  0  0  0  0  0  0  0  0  0  0
    9.3180  -14.4669   23.6827 N   0  0  0  0  0  0  0  0  0  0  0  0
    9.4798  -15.3317   24.8121 C   0  0  1  0  0  0  0  0  0  0  0  0
    9.6346  -14.5792   26.1127 C   0  0  0  0  0  0  0  0  0  0  0  0
    9.9309  -15.5941   27.1913 C   0  0  0  0  0  0  0  0  0  0  0  0
   10.1244  -14.9791   28.5368 C   0  0  0  0  0  0  0  0  0  0  0  0
   10.5543  -15.9821   29.5849 C   0  0  0  0  0  0  0  0  0  0  0  0
   10.7821  -15.3076   30.8485 N   0  0  0  0  0  0  0  0  0  0  0  0
    8.3264  -16.2961   24.9026 C   0  0  0  0  0  0  0  0  0  0  0  0
    8.4790  -17.5715   25.4167 O   0  0  0  0  0  0  0  0  0  0  0  0
    7.1840  -15.9571   24.5070 O   0  0  0  0  0  0  0  0  0  0  0  0
  2  1  1  6
  2  3  1  0
  3  4  1  0
  4  8  1  0
  5  6  1  0
  5  4  2  0
  6  7  1  0
  7  8  2  0
  9 10  2  0
  9  2  1  0
 12 11  1  6
 12 13  1  0
 12 14  1  0
 14 15  1  6
 15  9  1  0
 16 14  1  0
 16 18  1  0
 17 16  2  0
 19 18  1  0
 19 25  1  0
 19 20  1  1
 21 20  1  0
 22 21  1  0
 23 22  1  0
 24 23  1  0
 25 26  1  0
 27 25  2  0
M  END
$$$$
