HTK.pdb
     RDKit          3D

 27 27  0  0  1  0  0  0  0  0999 V2000
    8.1848  -17.1831   18.3211 N   0  0  0  0  0  0  0  0  0  0  0  0
    9.1147  -16.5777   19.2326 C   0  0  1  0  0  0  0  0  0  0  0  0
    8.5985  -15.2421   19.6939 C   0  0  0  0  0  0  0  0  0  0  0  0
    8.2411  -14.4497   18.4954 C   0  0  0  0  0  0  0  0  0  0  0  0
    8.3898  -14.8555   17.1727 C   0  0  0  0  0  0  0  0  0  0  0  0
    7.9469  -13.8427   16.4199 N   0  0  0  0  0  0  0  0  0  0  0  0
    7.5270  -12.8212   17.1750 C   0  0  0  0  0  0  0  0  0  0  0  0
    7.7218  -13.2272   18.4535 N   0  0  0  0  0  0  0  0  0  0  0  0
    9.2218  -17.4473   20.4540 C   0  0  0  0  0  0  0  0  0  0  0  0
    8.4389  -18.4122   20.6210 O   0  0  0  0  0  0  0  0  0  0  0  0
    9.7973  -19.8428   21.0992 C   0  0  0  0  0  0  0  0  0  0  0  0
   10.8490  -19.3905   22.0929 C   0  0  1  0  0  0  0  0  0  0  0  0
   12.0325  -19.2171   21.3667 O   0  0  0  0  0  0  0  0  0  0  0  0
   10.4371  -18.0265   22.5895 C   0  0  2  0  0  0  0  0  0  0  0  0
   10.2069  -17.1943   21.4376 N   0  0  0  0  0  0  0  0  0  0  0  0
   11.4242  -17.4048   23.4693 C   0  0  0  0  0  0  0  0  0  0  0  0
   11.9590  -16.3241   23.0896 O   0  0  0  0  0  0  0  0  0  0  0  0
   11.8053  -17.9678   24.7333 N   0  0  0  0  0  0  0  0  0  0  0  0
   11.7331  -17.1365   25.8966 C   0  0  1  0  0  0  0  0  0  0  0  0
   10.3915  -16.4608   26.0553 C   0  0  0  0  0  0  0  0  0  0  0  0
   10.4983  -15.5093   27.2235 C   0  0  0  0  0  0  0  0  0  0  0  0
    9.2305  -14.7715   27.4956 C   0  0  0  0  0  0  0  0  0  0  0  0
    9.3420  -13.8254   28.6711 C   0  0  0  0  0  0  0  0  0  0  0  0
    9.1065  -12.4634   28.2317 N   0  0  0  0  0  0  0  0  0  0  0  0
   12.0639  -17.9336   27.1311 C   0  0  0  0  0  0  0  0  0  0  0  0
   12.9457  -17.4651   28.0888 O   0  0  0  0  0  0  0  0  0  0  0  0
   11.5379  -19.0579   27.3196 O   0  0  0  0  0  0  0  0  0  0  0  0
  2  1  1  6
  2  3  1  0
  3  4  1  0
  4  8  1  0
  5  6  1  0
  5  4  2  0
  6  7  1  0
  7  8  2  0
  9 10  2  0
  9  2  1  0
 12 11  1  6
 12 13  1  0
 12 14  1  0
 14 15  1  6
 15  9  1  0
 16 14  1  0
 16 18  1  0
 17 16  2  0
 19 18  1  0
 19 25  1  0
 19 20  1  1
 21 20  1  0
 22 21  1  0
 23 22  1  0
 24 23  1  0
 25 26  1  0
 27 25  2  0
M  END
$$$$
