LCI.pdb
     RDKit          3D

 23 22  0  0  1  0  0  0  0  0999 V2000
   24.3176  -23.2903  -18.8019 C   0  0  0  0  0  0  0  0  0  0  0  0
   25.4529  -22.2814  -19.0217 C   0  0  2  0  0  0  0  0  0  0  0  0
   26.7230  -23.1004  -19.1133 C   0  0  0  0  0  0  0  0  0  0  0  0
   25.4803  -21.4042  -17.7999 C   0  0  0  0  0  0  0  0  0  0  0  0
   24.2023  -20.6189  -17.6290 C   0  0  2  0  0  0  0  0  0  0  0  0
   24.0604  -19.5394  -18.5546 N   0  0  0  0  0  0  0  0  0  0  0  0
   24.0649  -20.1964  -16.2113 C   0  0  0  0  0  0  0  0  0  0  0  0
   24.7765  -19.2353  -15.8199 O   0  0  0  0  0  0  0  0  0  0  0  0
   23.1948  -20.8016  -15.2900 N   0  0  0  0  0  0  0  0  0  0  0  0
   23.0136  -20.3976  -13.9281 C   0  0  1  0  0  0  0  0  0  0  0  0
   21.5625  -20.6130  -13.4722 C   0  0  0  0  0  0  0  0  0  0  0  0
   20.4598  -19.4459  -14.3129 S   0  0  0  0  0  0  0  0  0  0  0  0
   23.9444  -21.0992  -13.0016 C   0  0  0  0  0  0  0  0  0  0  0  0
   23.9481  -22.3646  -12.9709 O   0  0  0  0  0  0  0  0  0  0  0  0
   29.0634  -20.4965  -12.8001 C   0  0  0  0  0  0  0  0  0  0  0  0
   27.6659  -21.0566  -12.6216 C   0  0  0  0  0  0  0  0  0  0  0  0
   27.0924  -20.6786  -11.2817 C   0  0  2  0  0  0  0  0  0  0  0  0
   27.9944  -21.3594  -10.2411 C   0  0  0  0  0  0  0  0  0  0  0  0
   25.6819  -21.1593  -11.1730 C   0  0  2  0  0  0  0  0  0  0  0  0
   24.8347  -20.4317  -12.1440 N   0  0  0  0  0  0  0  0  0  0  0  0
   25.0869  -20.8964   -9.8497 C   0  0  0  0  0  0  0  0  0  0  0  0
   24.6465  -19.6439   -9.4566 O   0  0  0  0  0  0  0  0  0  0  0  0
   24.9494  -21.8138   -8.9977 O   0  0  0  0  0  0  0  0  0  0  0  0
  2  1  1  1
  3  2  1  0
  4  2  1  0
  5  4  1  0
  5  6  1  6
  7  8  2  0
  7  5  1  0
  9  7  1  0
 10  9  1  0
 10 11  1  1
 12 11  1  0
 13 10  1  0
 13 20  1  0
 14 13  2  0
 15 16  1  0
 17 16  1  0
 17 19  1  0
 17 18  1  1
 19 20  1  6
 19 21  1  0
 21 23  2  0
 21 22  1  0
M  END
$$$$
