LCI.pdb
     RDKit          3D

 23 22  0  0  1  0  0  0  0  0999 V2000
   28.6231  -20.3498  -15.1551 C   0  0  0  0  0  0  0  0  0  0  0  0
   27.8070  -19.1960  -15.7531 C   0  0  2  0  0  0  0  0  0  0  0  0
   28.8117  -18.1240  -16.1189 C   0  0  0  0  0  0  0  0  0  0  0  0
   26.8966  -18.7112  -14.6581 C   0  0  0  0  0  0  0  0  0  0  0  0
   25.9605  -19.7907  -14.1706 C   0  0  2  0  0  0  0  0  0  0  0  0
   24.9435  -20.1405  -15.1118 N   0  0  0  0  0  0  0  0  0  0  0  0
   25.4210  -19.4157  -12.8381 C   0  0  0  0  0  0  0  0  0  0  0  0
   24.7971  -18.3266  -12.7494 O   0  0  0  0  0  0  0  0  0  0  0  0
   25.5652  -20.1988  -11.6814 N   0  0  0  0  0  0  0  0  0  0  0  0
   24.8400  -20.0191  -10.4597 C   0  0  1  0  0  0  0  0  0  0  0  0
   23.3969  -20.5298  -10.5889 C   0  0  0  0  0  0  0  0  0  0  0  0
   22.4403  -20.0907   -9.1135 S   0  0  0  0  0  0  0  0  0  0  0  0
   25.5081  -20.6777   -9.3033 C   0  0  0  0  0  0  0  0  0  0  0  0
   25.8297  -21.8989   -9.3895 O   0  0  0  0  0  0  0  0  0  0  0  0
   28.9811  -18.1320   -5.9542 C   0  0  0  0  0  0  0  0  0  0  0  0
   28.3302  -19.2510   -6.7432 C   0  0  0  0  0  0  0  0  0  0  0  0
   27.0906  -19.7567   -6.0539 C   0  0  2  0  0  0  0  0  0  0  0  0
   27.5829  -20.4314   -4.7646 C   0  0  0  0  0  0  0  0  0  0  0  0
   26.3741  -20.7285   -6.9341 C   0  0  2  0  0  0  0  0  0  0  0  0
   25.8090  -20.0156   -8.1014 N   0  0  0  0  0  0  0  0  0  0  0  0
   25.2270  -21.3699   -6.2654 C   0  0  0  0  0  0  0  0  0  0  0  0
   23.9572  -20.8180   -6.2521 O   0  0  0  0  0  0  0  0  0  0  0  0
   25.3491  -22.4689   -5.6624 O   0  0  0  0  0  0  0  0  0  0  0  0
  2  1  1  1
  3  2  1  0
  4  2  1  0
  5  4  1  0
  5  6  1  6
  7  8  2  0
  7  5  1  0
  9  7  1  0
 10  9  1  0
 10 11  1  6
 12 11  1  0
 13 10  1  0
 13 20  1  0
 14 13  2  0
 15 16  1  0
 17 16  1  0
 17 19  1  0
 17 18  1  1
 19 20  1  6
 19 21  1  0
 21 23  2  0
 21 22  1  0
M  END
$$$$
