LCI.pdb
     RDKit          3D

 23 22  0  0  1  0  0  0  0  0999 V2000
   21.3210  -28.2500  -17.1547 C   0  0  0  0  0  0  0  0  0  0  0  0
   21.4941  -26.7456  -16.9061 C   0  0  2  0  0  0  0  0  0  0  0  0
   21.3977  -26.0872  -18.2660 C   0  0  0  0  0  0  0  0  0  0  0  0
   22.8738  -26.5686  -16.3332 C   0  0  0  0  0  0  0  0  0  0  0  0
   23.6747  -25.5278  -17.0780 C   0  0  2  0  0  0  0  0  0  0  0  0
   24.3794  -26.0429  -18.2095 N   0  0  0  0  0  0  0  0  0  0  0  0
   24.5509  -24.7995  -16.1244 C   0  0  0  0  0  0  0  0  0  0  0  0
   24.9357  -25.4193  -15.0993 O   0  0  0  0  0  0  0  0  0  0  0  0
   24.9712  -23.4709  -16.2985 N   0  0  0  0  0  0  0  0  0  0  0  0
   25.7442  -22.7135  -15.3606 C   0  0  1  0  0  0  0  0  0  0  0  0
   26.3977  -21.4964  -16.0325 C   0  0  0  0  0  0  0  0  0  0  0  0
   27.6042  -20.7342  -14.9152 S   0  0  0  0  0  0  0  0  0  0  0  0
   24.9379  -22.2724  -14.1890 C   0  0  0  0  0  0  0  0  0  0  0  0
   23.7183  -21.9773  -14.3546 O   0  0  0  0  0  0  0  0  0  0  0  0
   25.6566  -20.4976   -8.2588 C   0  0  0  0  0  0  0  0  0  0  0  0
   24.7604  -20.8629   -9.4258 C   0  0  0  0  0  0  0  0  0  0  0  0
   25.5631  -21.3778  -10.5911 C   0  0  2  0  0  0  0  0  0  0  0  0
   26.6426  -20.3157  -10.8485 C   0  0  0  0  0  0  0  0  0  0  0  0
   24.6809  -21.5536  -11.7842 C   0  0  2  0  0  0  0  0  0  0  0  0
   25.4565  -22.1617  -12.8881 N   0  0  0  0  0  0  0  0  0  0  0  0
   24.1703  -20.2753  -12.3130 C   0  0  0  0  0  0  0  0  0  0  0  0
   22.9135  -19.7813  -12.0070 O   0  0  0  0  0  0  0  0  0  0  0  0
   24.8637  -19.5595  -13.0831 O   0  0  0  0  0  0  0  0  0  0  0  0
  2  1  1  6
  3  2  1  0
  4  2  1  0
  5  4  1  0
  5  6  1  6
  7  8  2  0
  7  5  1  0
  9  7  1  0
 10  9  1  0
 10 11  1  6
 12 11  1  0
 13 10  1  0
 13 20  1  0
 14 13  2  0
 15 16  1  0
 17 16  1  0
 17 19  1  0
 17 18  1  6
 19 20  1  6
 19 21  1  0
 21 23  2  0
 21 22  1  0
M  END
$$$$
