LCI.pdb
     RDKit          3D

 23 22  0  0  1  0  0  0  0  0999 V2000
   13.3864  -23.6970    2.8218 C   0  0  0  0  0  0  0  0  0  0  0  0
   14.2658  -23.1240    1.7022 C   0  0  2  0  0  0  0  0  0  0  0  0
   15.2913  -24.1939    1.3924 C   0  0  0  0  0  0  0  0  0  0  0  0
   14.9354  -21.9043    2.2739 C   0  0  0  0  0  0  0  0  0  0  0  0
   13.9505  -20.8045    2.5897 C   0  0  2  0  0  0  0  0  0  0  0  0
   13.1866  -20.3728    1.4617 N   0  0  0  0  0  0  0  0  0  0  0  0
   14.6526  -19.6927    3.2814 C   0  0  0  0  0  0  0  0  0  0  0  0
   15.3018  -18.8834    2.5695 O   0  0  0  0  0  0  0  0  0  0  0  0
   14.6345  -19.4937    4.6714 N   0  0  0  0  0  0  0  0  0  0  0  0
   15.2426  -18.3967    5.3625 C   0  0  1  0  0  0  0  0  0  0  0  0
   14.1985  -17.5816    6.1405 C   0  0  0  0  0  0  0  0  0  0  0  0
   14.9462  -16.0672    6.7981 S   0  0  0  0  0  0  0  0  0  0  0  0
   16.3270  -18.8391    6.2821 C   0  0  0  0  0  0  0  0  0  0  0  0
   16.1597  -19.8840    6.9766 O   0  0  0  0  0  0  0  0  0  0  0  0
   21.2875  -19.0777    4.7185 C   0  0  0  0  0  0  0  0  0  0  0  0
   20.0013  -19.3233    5.4826 C   0  0  0  0  0  0  0  0  0  0  0  0
   19.9352  -18.4788    6.7274 C   0  0  2  0  0  0  0  0  0  0  0  0
   21.0472  -19.0099    7.6446 C   0  0  0  0  0  0  0  0  0  0  0  0
   18.5927  -18.6148    7.3693 C   0  0  2  0  0  0  0  0  0  0  0  0
   17.5459  -18.1562    6.4292 N   0  0  0  0  0  0  0  0  0  0  0  0
   18.4443  -17.7744    8.5718 C   0  0  0  0  0  0  0  0  0  0  0  0
   18.5754  -18.2695    9.8582 O   0  0  0  0  0  0  0  0  0  0  0  0
   18.1852  -16.5449    8.4856 O   0  0  0  0  0  0  0  0  0  0  0  0
  2  1  1  1
  3  2  1  0
  4  2  1  0
  5  4  1  0
  5  6  1  6
  7  8  2  0
  7  5  1  0
  9  7  1  0
 10  9  1  0
 10 11  1  1
 12 11  1  0
 13 10  1  0
 13 20  1  0
 14 13  2  0
 15 16  1  0
 17 16  1  0
 17 19  1  0
 17 18  1  1
 19 20  1  6
 19 21  1  0
 21 23  2  0
 21 22  1  0
M  END
$$$$
