LCI.pdb
     RDKit          3D

 23 22  0  0  1  0  0  0  0  0999 V2000
   14.4443  -19.2016   -8.0151 C   0  0  0  0  0  0  0  0  0  0  0  0
   12.9813  -19.1564   -7.5539 C   0  0  2  0  0  0  0  0  0  0  0  0
   12.6850  -17.7013   -7.2582 C   0  0  0  0  0  0  0  0  0  0  0  0
   12.9109  -19.9737   -6.2930 C   0  0  0  0  0  0  0  0  0  0  0  0
   13.1944  -21.4357   -6.5406 C   0  0  2  0  0  0  0  0  0  0  0  0
   12.3271  -22.0363   -7.5047 N   0  0  0  0  0  0  0  0  0  0  0  0
   13.2224  -22.1626   -5.2452 C   0  0  0  0  0  0  0  0  0  0  0  0
   12.1262  -22.3347   -4.6518 O   0  0  0  0  0  0  0  0  0  0  0  0
   14.3905  -22.6646   -4.6489 N   0  0  0  0  0  0  0  0  0  0  0  0
   14.4451  -23.4218   -3.4347 C   0  0  1  0  0  0  0  0  0  0  0  0
   15.5769  -24.4597   -3.4766 C   0  0  0  0  0  0  0  0  0  0  0  0
   15.9806  -24.8804   -5.1926 S   0  0  0  0  0  0  0  0  0  0  0  0
   14.5979  -22.5547   -2.2339 C   0  0  0  0  0  0  0  0  0  0  0  0
   15.3146  -21.5142   -2.3107 O   0  0  0  0  0  0  0  0  0  0  0  0
   11.3246  -20.2032    2.2052 C   0  0  0  0  0  0  0  0  0  0  0  0
   12.7179  -20.5950    1.7540 C   0  0  0  0  0  0  0  0  0  0  0  0
   12.6703  -21.4671    0.5275 C   0  0  2  0  0  0  0  0  0  0  0  0
   11.8209  -22.6850    0.9211 C   0  0  0  0  0  0  0  0  0  0  0  0
   14.0528  -21.8754    0.1341 C   0  0  2  0  0  0  0  0  0  0  0  0
   13.9850  -22.8249   -0.9990 N   0  0  0  0  0  0  0  0  0  0  0  0
   14.7679  -22.5880    1.2089 C   0  0  0  0  0  0  0  0  0  0  0  0
   15.4655  -21.9357    2.2114 O   0  0  0  0  0  0  0  0  0  0  0  0
   14.7803  -23.8461    1.2672 O   0  0  0  0  0  0  0  0  0  0  0  0
  2  1  1  1
  3  2  1  0
  4  2  1  0
  5  4  1  0
  5  6  1  6
  7  8  2  0
  7  5  1  0
  9  7  1  0
 10  9  1  0
 10 11  1  6
 12 11  1  0
 13 10  1  0
 13 20  1  0
 14 13  2  0
 15 16  1  0
 17 16  1  0
 17 19  1  0
 17 18  1  1
 19 20  1  6
 19 21  1  0
 21 23  2  0
 21 22  1  0
M  END
$$$$
