LCI.pdb
     RDKit          3D

 23 22  0  0  1  0  0  0  0  0999 V2000
   21.8991  -19.1494  -13.0834 C   0  0  0  0  0  0  0  0  0  0  0  0
   21.8965  -20.6614  -13.3455 C   0  0  2  0  0  0  0  0  0  0  0  0
   20.4723  -21.1197  -13.1130 C   0  0  0  0  0  0  0  0  0  0  0  0
   22.8174  -21.2686  -12.3227 C   0  0  0  0  0  0  0  0  0  0  0  0
   24.2447  -20.8055  -12.4895 C   0  0  2  0  0  0  0  0  0  0  0  0
   24.7766  -21.0347  -13.7959 N   0  0  0  0  0  0  0  0  0  0  0  0
   25.0833  -21.3812  -11.4066 C   0  0  0  0  0  0  0  0  0  0  0  0
   25.4002  -22.5953  -11.5003 O   0  0  0  0  0  0  0  0  0  0  0  0
   25.5393  -20.6559  -10.2938 N   0  0  0  0  0  0  0  0  0  0  0  0
   26.7925  -20.8530   -9.6294 C   0  0  1  0  0  0  0  0  0  0  0  0
   27.9706  -20.6719  -10.5985 C   0  0  0  0  0  0  0  0  0  0  0  0
   29.5366  -21.0242   -9.7568 S   0  0  0  0  0  0  0  0  0  0  0  0
   26.9587  -19.9507   -8.4566 C   0  0  0  0  0  0  0  0  0  0  0  0
   26.6919  -18.7197   -8.5818 O   0  0  0  0  0  0  0  0  0  0  0  0
   29.7537  -21.3972   -3.6368 C   0  0  0  0  0  0  0  0  0  0  0  0
   29.2840  -20.7884   -4.9433 C   0  0  0  0  0  0  0  0  0  0  0  0
   27.8855  -20.2437   -4.8212 C   0  0  2  0  0  0  0  0  0  0  0  0
   26.9784  -21.4724   -4.6565 C   0  0  0  0  0  0  0  0  0  0  0  0
   27.5283  -19.4671   -6.0467 C   0  0  2  0  0  0  0  0  0  0  0  0
   27.4014  -20.3889   -7.1974 N   0  0  0  0  0  0  0  0  0  0  0  0
   28.5657  -18.4918   -6.4301 C   0  0  0  0  0  0  0  0  0  0  0  0
   28.8632  -17.3712   -5.6732 O   0  0  0  0  0  0  0  0  0  0  0  0
   29.2418  -18.6323   -7.4834 O   0  0  0  0  0  0  0  0  0  0  0  0
  2  1  1  1
  3  2  1  0
  4  2  1  0
  5  4  1  0
  5  6  1  6
  7  8  2  0
  7  5  1  0
  9  7  1  0
 10  9  1  0
 10 11  1  6
 12 11  1  0
 13 10  1  0
 13 20  1  0
 14 13  2  0
 15 16  1  0
 17 16  1  0
 17 19  1  0
 17 18  1  6
 19 20  1  6
 19 21  1  0
 21 23  2  0
 21 22  1  0
M  END
$$$$
