LCI.pdb
     RDKit          3D

 23 22  0  0  1  0  0  0  0  0999 V2000
   16.5276  -14.1821  -19.0777 C   0  0  0  0  0  0  0  0  0  0  0  0
   16.5404  -14.4280  -17.5629 C   0  0  2  0  0  0  0  0  0  0  0  0
   15.1643  -14.0359  -17.0680 C   0  0  0  0  0  0  0  0  0  0  0  0
   17.5853  -13.5070  -16.9947 C   0  0  0  0  0  0  0  0  0  0  0  0
   18.9770  -13.8623  -17.4597 C   0  0  2  0  0  0  0  0  0  0  0  0
   19.4085  -15.1612  -17.0486 N   0  0  0  0  0  0  0  0  0  0  0  0
   19.9208  -12.7821  -17.0728 C   0  0  0  0  0  0  0  0  0  0  0  0
   20.4000  -12.8183  -15.9100 O   0  0  0  0  0  0  0  0  0  0  0  0
   20.3063  -11.7319  -17.9216 N   0  0  0  0  0  0  0  0  0  0  0  0
   21.2154  -10.6789  -17.5818 C   0  0  1  0  0  0  0  0  0  0  0  0
   21.9763  -10.1796  -18.8194 C   0  0  0  0  0  0  0  0  0  0  0  0
   23.1877   -8.9176  -18.3456 S   0  0  0  0  0  0  0  0  0  0  0  0
   20.5333   -9.5370  -16.9124 C   0  0  0  0  0  0  0  0  0  0  0  0
   19.3950   -9.1693  -17.3260 O   0  0  0  0  0  0  0  0  0  0  0  0
   19.1201   -9.2499  -11.9949 C   0  0  0  0  0  0  0  0  0  0  0  0
   19.2873   -9.0088  -13.4823 C   0  0  0  0  0  0  0  0  0  0  0  0
   20.2588   -7.8897  -13.7489 C   0  0  2  0  0  0  0  0  0  0  0  0
   19.6641   -6.6546  -13.0556 C   0  0  0  0  0  0  0  0  0  0  0  0
   20.3977   -7.6704  -15.2204 C   0  0  2  0  0  0  0  0  0  0  0  0
   21.0849   -8.8300  -15.8310 N   0  0  0  0  0  0  0  0  0  0  0  0
   21.2278   -6.4969  -15.5493 C   0  0  0  0  0  0  0  0  0  0  0  0
   20.6941   -5.2488  -15.8227 O   0  0  0  0  0  0  0  0  0  0  0  0
   22.4839   -6.5745  -15.5998 O   0  0  0  0  0  0  0  0  0  0  0  0
  2  1  1  6
  3  2  1  0
  4  2  1  0
  5  4  1  0
  5  6  1  1
  7  8  2  0
  7  5  1  0
  9  7  1  0
 10  9  1  0
 10 11  1  6
 12 11  1  0
 13 10  1  0
 13 20  1  0
 14 13  2  0
 15 16  1  0
 17 16  1  0
 17 19  1  0
 17 18  1  1
 19 20  1  6
 19 21  1  0
 21 23  2  0
 21 22  1  0
M  END
$$$$
