LCI.pdb
     RDKit          3D

 23 22  0  0  1  0  0  0  0  0999 V2000
   26.7545  -20.8515  -15.3442 C   0  0  0  0  0  0  0  0  0  0  0  0
   25.3485  -20.4531  -14.8758 C   0  0  2  0  0  0  0  0  0  0  0  0
   24.8635  -19.4106  -15.8609 C   0  0  0  0  0  0  0  0  0  0  0  0
   25.5150  -19.8471  -13.5090 C   0  0  0  0  0  0  0  0  0  0  0  0
   26.1863  -20.7914  -12.5410 C   0  0  2  0  0  0  0  0  0  0  0  0
   25.7811  -22.1538  -12.6892 N   0  0  0  0  0  0  0  0  0  0  0  0
   26.0248  -20.2799  -11.1555 C   0  0  0  0  0  0  0  0  0  0  0  0
   26.0258  -19.0322  -10.9930 O   0  0  0  0  0  0  0  0  0  0  0  0
   25.8723  -21.1003  -10.0260 N   0  0  0  0  0  0  0  0  0  0  0  0
   25.6604  -20.6403   -8.6865 C   0  0  1  0  0  0  0  0  0  0  0  0
   24.3578  -21.2079   -8.1027 C   0  0  0  0  0  0  0  0  0  0  0  0
   24.3491  -21.0336   -6.2988 S   0  0  0  0  0  0  0  0  0  0  0  0
   26.8023  -20.9681   -7.7888 C   0  0  0  0  0  0  0  0  0  0  0  0
   27.2142  -22.1633   -7.7250 O   0  0  0  0  0  0  0  0  0  0  0  0
   31.5626  -21.1802   -7.8528 C   0  0  0  0  0  0  0  0  0  0  0  0
   30.1907  -21.3970   -7.2452 C   0  0  0  0  0  0  0  0  0  0  0  0
   29.7964  -20.2444   -6.3601 C   0  0  2  0  0  0  0  0  0  0  0  0
   30.7722  -20.2835   -5.1744 C   0  0  0  0  0  0  0  0  0  0  0  0
   28.3829  -20.4078   -5.9038 C   0  0  2  0  0  0  0  0  0  0  0  0
   27.4624  -20.0161   -6.9942 N   0  0  0  0  0  0  0  0  0  0  0  0
   28.0441  -19.5361   -4.7638 C   0  0  0  0  0  0  0  0  0  0  0  0
   28.4146  -19.8215   -3.4605 O   0  0  0  0  0  0  0  0  0  0  0  0
   27.3887  -18.4724   -4.9227 O   0  0  0  0  0  0  0  0  0  0  0  0
  2  1  1  6
  3  2  1  0
  4  2  1  0
  5  4  1  0
  5  6  1  1
  7  8  2  0
  7  5  1  0
  9  7  1  0
 10  9  1  0
 10 11  1  1
 12 11  1  0
 13 10  1  0
 13 20  1  0
 14 13  2  0
 15 16  1  0
 17 16  1  0
 17 19  1  0
 17 18  1  1
 19 20  1  6
 19 21  1  0
 21 23  2  0
 21 22  1  0
M  END
$$$$
