GAI.pdb
     RDKit          3D

 18 17  0  0  1  0  0  0  0  0999 V2000
    8.2797  -12.5987   18.3497 N   0  0  0  0  0  0  0  0  0  0  0  0
    8.7141  -13.9270   18.7422 C   0  0  0  0  0  0  0  0  0  0  0  0
    8.0822  -14.2302   20.0647 C   0  0  0  0  0  0  0  0  0  0  0  0
    7.5351  -13.3250   20.7669 O   0  0  0  0  0  0  0  0  0  0  0  0
    7.2412  -17.3504   22.0586 C   0  0  0  0  0  0  0  0  0  0  0  0
    7.3639  -15.8719   21.8243 C   0  0  2  0  0  0  0  0  0  0  0  0
    8.0601  -15.5436   20.6051 N   0  0  0  0  0  0  0  0  0  0  0  0
    7.9951  -15.2612   23.0201 C   0  0  0  0  0  0  0  0  0  0  0  0
    9.2387  -15.0779   22.9696 O   0  0  0  0  0  0  0  0  0  0  0  0
    7.0251  -11.7819   27.8858 C   0  0  0  0  0  0  0  0  0  0  0  0
    6.4708  -12.8021   26.9744 C   0  0  0  0  0  0  0  0  0  0  0  0
    7.0427  -12.9519   25.6139 C   0  0  2  0  0  0  0  0  0  0  0  0
    5.9646  -12.7003   24.5500 C   0  0  0  0  0  0  0  0  0  0  0  0
    7.8939  -14.1034   25.2827 C   0  0  2  0  0  0  0  0  0  0  0  0
    7.3089  -14.8840   24.1763 N   0  0  0  0  0  0  0  0  0  0  0  0
    8.3408  -15.0218   26.3158 C   0  0  0  0  0  0  0  0  0  0  0  0
    7.7925  -16.1906   26.3411 O   0  0  0  0  0  0  0  0  0  0  0  0
    9.2827  -14.8494   27.2984 O   0  0  0  0  0  0  0  0  0  0  0  0
  1  2  1  0
  3  4  2  0
  3  2  1  0
  6  7  1  0
  6  5  1  1
  7  3  1  0
  8  6  1  0
  9  8  2  0
 10 11  1  0
 11 12  1  0
 12 14  1  0
 12 13  1  6
 14 16  1  0
 14 15  1  6
 15  8  1  0
 16 18  1  0
 17 16  2  0
M  END
$$$$
