GAI.pdb
     RDKit          3D

 18 17  0  0  1  0  0  0  0  0999 V2000
    6.6034  -15.7962   19.3584 N   0  0  0  0  0  0  0  0  0  0  0  0
    6.8798  -17.0315   20.0688 C   0  0  0  0  0  0  0  0  0  0  0  0
    6.7221  -16.7503   21.5304 C   0  0  0  0  0  0  0  0  0  0  0  0
    6.4974  -15.5787   21.9649 O   0  0  0  0  0  0  0  0  0  0  0  0
    6.4675  -18.8089   24.7133 C   0  0  0  0  0  0  0  0  0  0  0  0
    6.5472  -17.5445   23.9066 C   0  0  2  0  0  0  0  0  0  0  0  0
    6.8148  -17.7758   22.5087 N   0  0  0  0  0  0  0  0  0  0  0  0
    7.5513  -16.6521   24.5364 C   0  0  0  0  0  0  0  0  0  0  0  0
    8.6947  -16.6315   24.0122 O   0  0  0  0  0  0  0  0  0  0  0  0
    5.7603  -11.9599   26.5908 C   0  0  0  0  0  0  0  0  0  0  0  0
    6.6259  -12.9689   25.9495 C   0  0  0  0  0  0  0  0  0  0  0  0
    7.6033  -13.7206   26.7742 C   0  0  2  0  0  0  0  0  0  0  0  0
    8.5759  -12.7539   27.4648 C   0  0  0  0  0  0  0  0  0  0  0  0
    8.2856  -14.9043   26.2323 C   0  0  2  0  0  0  0  0  0  0  0  0
    7.3117  -15.8487   25.6531 N   0  0  0  0  0  0  0  0  0  0  0  0
    9.2365  -15.6508   27.0378 C   0  0  0  0  0  0  0  0  0  0  0  0
    8.7841  -16.6711   27.6872 O   0  0  0  0  0  0  0  0  0  0  0  0
   10.5803  -15.4477   27.2257 O   0  0  0  0  0  0  0  0  0  0  0  0
  1  2  1  0
  3  4  2  0
  3  2  1  0
  6  7  1  0
  6  5  1  1
  7  3  1  0
  8  6  1  0
  9  8  2  0
 10 11  1  0
 11 12  1  0
 12 14  1  0
 12 13  1  6
 14 16  1  0
 14 15  1  1
 15  8  1  0
 16 18  1  0
 17 16  2  0
M  END
$$$$
