GAI.pdb
     RDKit          3D

 18 17  0  0  1  0  0  0  0  0999 V2000
    5.4350  -19.2497   22.4633 N   0  0  0  0  0  0  0  0  0  0  0  0
    5.1493  -17.8352   22.6207 C   0  0  0  0  0  0  0  0  0  0  0  0
    6.4191  -17.0910   22.3483 C   0  0  0  0  0  0  0  0  0  0  0  0
    7.5573  -17.6274   22.5173 O   0  0  0  0  0  0  0  0  0  0  0  0
    7.4129  -13.7120   20.9286 C   0  0  0  0  0  0  0  0  0  0  0  0
    7.6341  -15.0015   21.6661 C   0  0  2  0  0  0  0  0  0  0  0  0
    6.4202  -15.7475   21.8873 N   0  0  0  0  0  0  0  0  0  0  0  0
    8.3523  -14.6993   22.9287 C   0  0  0  0  0  0  0  0  0  0  0  0
    9.5319  -14.2762   22.8189 O   0  0  0  0  0  0  0  0  0  0  0  0
    5.8866  -11.7654   26.4420 C   0  0  0  0  0  0  0  0  0  0  0  0
    6.8794  -12.5067   25.6399 C   0  0  0  0  0  0  0  0  0  0  0  0
    7.6615  -13.5961   26.2738 C   0  0  2  0  0  0  0  0  0  0  0  0
    8.4013  -13.0723   27.5130 C   0  0  0  0  0  0  0  0  0  0  0  0
    8.5006  -14.4863   25.4591 C   0  0  2  0  0  0  0  0  0  0  0  0
    7.8116  -14.8520   24.2071 N   0  0  0  0  0  0  0  0  0  0  0  0
    9.0931  -15.6828   26.0316 C   0  0  0  0  0  0  0  0  0  0  0  0
    8.4190  -16.7794   25.9304 O   0  0  0  0  0  0  0  0  0  0  0  0
   10.2914  -15.8473   26.6793 O   0  0  0  0  0  0  0  0  0  0  0  0
  1  2  1  0
  3  4  2  0
  3  2  1  0
  6  7  1  0
  6  5  1  1
  7  3  1  0
  8  6  1  0
  9  8  2  0
 10 11  1  0
 11 12  1  0
 12 14  1  0
 12 13  1  1
 14 16  1  0
 14 15  1  6
 15  8  1  0
 16 18  1  0
 17 16  2  0
M  END
$$$$
