GAI.pdb
     RDKit          3D

 18 17  0  0  1  0  0  0  0  0999 V2000
    8.1419  -12.4111   18.7151 N   0  0  0  0  0  0  0  0  0  0  0  0
    8.3874  -13.8239   18.9405 C   0  0  0  0  0  0  0  0  0  0  0  0
    7.9366  -14.1382   20.3327 C   0  0  0  0  0  0  0  0  0  0  0  0
    7.7186  -13.2244   21.1867 O   0  0  0  0  0  0  0  0  0  0  0  0
    6.7287  -17.2455   22.1535 C   0  0  0  0  0  0  0  0  0  0  0  0
    7.0611  -15.7876   22.0122 C   0  0  2  0  0  0  0  0  0  0  0  0
    7.7285  -15.4723   20.7736 N   0  0  0  0  0  0  0  0  0  0  0  0
    7.8448  -15.3707   23.2010 C   0  0  0  0  0  0  0  0  0  0  0  0
    9.0970  -15.3742   23.0804 O   0  0  0  0  0  0  0  0  0  0  0  0
    5.5963  -11.5271   26.3339 C   0  0  0  0  0  0  0  0  0  0  0  0
    6.5104  -12.4077   25.5805 C   0  0  0  0  0  0  0  0  0  0  0  0
    7.2746  -13.4541   26.3028 C   0  0  2  0  0  0  0  0  0  0  0  0
    8.0659  -12.8335   27.4630 C   0  0  0  0  0  0  0  0  0  0  0  0
    8.0610  -14.4511   25.5628 C   0  0  2  0  0  0  0  0  0  0  0  0
    7.2905  -14.9819   24.4224 N   0  0  0  0  0  0  0  0  0  0  0  0
    8.6969  -15.5604   26.2523 C   0  0  0  0  0  0  0  0  0  0  0  0
    9.9098  -15.3832   26.6583 O   0  0  0  0  0  0  0  0  0  0  0  0
    8.2050  -16.8043   26.5577 O   0  0  0  0  0  0  0  0  0  0  0  0
  1  2  1  0
  3  4  2  0
  3  2  1  0
  6  7  1  0
  6  5  1  1
  7  3  1  0
  8  6  1  0
  9  8  2  0
 10 11  1  0
 11 12  1  0
 12 14  1  0
 12 13  1  1
 14 16  1  0
 14 15  1  6
 15  8  1  0
 16 18  1  0
 17 16  2  0
M  END
$$$$
