GAI.pdb
     RDKit          3D

 18 17  0  0  1  0  0  0  0  0999 V2000
    7.9519  -12.7817   18.3166 N   0  0  0  0  0  0  0  0  0  0  0  0
    8.4940  -14.0570   18.7489 C   0  0  0  0  0  0  0  0  0  0  0  0
    8.0074  -14.2985   20.1436 C   0  0  0  0  0  0  0  0  0  0  0  0
    7.5539  -13.3576   20.8653 O   0  0  0  0  0  0  0  0  0  0  0  0
    7.2296  -17.3469   22.2597 C   0  0  0  0  0  0  0  0  0  0  0  0
    7.3940  -15.8771   21.9981 C   0  0  2  0  0  0  0  0  0  0  0  0
    8.0264  -15.5900   20.7345 N   0  0  0  0  0  0  0  0  0  0  0  0
    8.1198  -15.2777   23.1449 C   0  0  0  0  0  0  0  0  0  0  0  0
    9.3619  -15.1296   23.0108 O   0  0  0  0  0  0  0  0  0  0  0  0
    5.6611  -11.9183   27.3179 C   0  0  0  0  0  0  0  0  0  0  0  0
    6.2122  -13.1011   26.6282 C   0  0  0  0  0  0  0  0  0  0  0  0
    7.4570  -12.9668   25.8327 C   0  0  2  0  0  0  0  0  0  0  0  0
    7.2453  -11.9869   24.6697 C   0  0  0  0  0  0  0  0  0  0  0  0
    8.2174  -14.1572   25.4264 C   0  0  2  0  0  0  0  0  0  0  0  0
    7.5225  -14.8752   24.3413 N   0  0  0  0  0  0  0  0  0  0  0  0
    8.6694  -15.1250   26.4109 C   0  0  0  0  0  0  0  0  0  0  0  0
    9.4945  -14.7064   27.3117 O   0  0  0  0  0  0  0  0  0  0  0  0
    8.3514  -16.4524   26.5498 O   0  0  0  0  0  0  0  0  0  0  0  0
  1  2  1  0
  3  4  2  0
  3  2  1  0
  6  7  1  0
  6  5  1  1
  7  3  1  0
  8  6  1  0
  9  8  2  0
 10 11  1  0
 11 12  1  0
 12 14  1  0
 12 13  1  6
 14 16  1  0
 14 15  1  6
 15  8  1  0
 16 18  1  0
 17 16  2  0
M  END
$$$$
