GAI.pdb
     RDKit          3D

 18 17  0  0  1  0  0  0  0  0999 V2000
    8.1141  -12.3312   18.7249 N   0  0  0  0  0  0  0  0  0  0  0  0
    8.5031  -13.7013   19.0051 C   0  0  0  0  0  0  0  0  0  0  0  0
    7.9259  -14.0652   20.3372 C   0  0  0  0  0  0  0  0  0  0  0  0
    7.5412  -13.1807   21.1628 O   0  0  0  0  0  0  0  0  0  0  0  0
    6.8326  -17.2572   22.0787 C   0  0  0  0  0  0  0  0  0  0  0  0
    7.1233  -15.7869   21.9801 C   0  0  2  0  0  0  0  0  0  0  0  0
    7.7774  -15.4162   20.7497 N   0  0  0  0  0  0  0  0  0  0  0  0
    7.8990  -15.3835   23.1788 C   0  0  0  0  0  0  0  0  0  0  0  0
    9.1478  -15.3122   23.0445 O   0  0  0  0  0  0  0  0  0  0  0  0
    5.5660  -11.6053   26.2270 C   0  0  0  0  0  0  0  0  0  0  0  0
    6.4877  -12.5037   25.5045 C   0  0  0  0  0  0  0  0  0  0  0  0
    7.2694  -13.5098   26.2640 C   0  0  2  0  0  0  0  0  0  0  0  0
    8.0365  -12.8365   27.4110 C   0  0  0  0  0  0  0  0  0  0  0  0
    8.0847  -14.5103   25.5606 C   0  0  2  0  0  0  0  0  0  0  0  0
    7.3408  -15.0837   24.4232 N   0  0  0  0  0  0  0  0  0  0  0  0
    8.7306  -15.5899   26.2869 C   0  0  0  0  0  0  0  0  0  0  0  0
    8.0637  -16.6867   26.4264 O   0  0  0  0  0  0  0  0  0  0  0  0
    9.9742  -15.6408   26.8643 O   0  0  0  0  0  0  0  0  0  0  0  0
  1  2  1  0
  3  4  2  0
  3  2  1  0
  6  7  1  0
  6  5  1  6
  7  3  1  0
  8  6  1  0
  9  8  2  0
 10 11  1  0
 11 12  1  0
 12 14  1  0
 12 13  1  1
 14 16  1  0
 14 15  1  6
 15  8  1  0
 16 18  1  0
 17 16  2  0
M  END
$$$$
