GAI.pdb
     RDKit          3D

 18 17  0  0  1  0  0  0  0  0999 V2000
    8.1150  -12.1656   18.8015 N   0  0  0  0  0  0  0  0  0  0  0  0
    8.5972  -13.5123   19.0485 C   0  0  0  0  0  0  0  0  0  0  0  0
    7.9798  -13.9789   20.3297 C   0  0  0  0  0  0  0  0  0  0  0  0
    7.3278  -13.1917   21.0827 O   0  0  0  0  0  0  0  0  0  0  0  0
    7.3487  -17.2959   22.0416 C   0  0  0  0  0  0  0  0  0  0  0  0
    7.4628  -15.7996   21.9806 C   0  0  2  0  0  0  0  0  0  0  0  0
    8.0891  -15.3242   20.7719 N   0  0  0  0  0  0  0  0  0  0  0  0
    8.1634  -15.3351   23.2031 C   0  0  0  0  0  0  0  0  0  0  0  0
    9.4038  -15.1490   23.1057 O   0  0  0  0  0  0  0  0  0  0  0  0
    5.5886  -11.6351   26.0812 C   0  0  0  0  0  0  0  0  0  0  0  0
    6.5721  -12.5194   25.4260 C   0  0  0  0  0  0  0  0  0  0  0  0
    7.3275  -13.5007   26.2426 C   0  0  2  0  0  0  0  0  0  0  0  0
    8.0064  -12.8000   27.4282 C   0  0  0  0  0  0  0  0  0  0  0  0
    8.2073  -14.4881   25.6012 C   0  0  2  0  0  0  0  0  0  0  0  0
    7.5447  -15.0959   24.4319 N   0  0  0  0  0  0  0  0  0  0  0  0
    8.8384  -15.5405   26.3786 C   0  0  0  0  0  0  0  0  0  0  0  0
    8.2213  -16.6728   26.4462 O   0  0  0  0  0  0  0  0  0  0  0  0
   10.0224  -15.5323   27.0719 O   0  0  0  0  0  0  0  0  0  0  0  0
  1  2  1  0
  3  4  2  0
  3  2  1  0
  6  7  1  0
  6  5  1  6
  7  3  1  0
  8  6  1  0
  9  8  2  0
 10 11  1  0
 11 12  1  0
 12 14  1  0
 12 13  1  1
 14 16  1  0
 14 15  1  6
 15  8  1  0
 16 18  1  0
 17 16  2  0
M  END
$$$$
