WSV.pdb
     RDKit          3D

 28 29  0  0  1  0  0  0  0  0999 V2000
    7.2128  -17.3605   20.9395 N   0  0  0  0  0  0  0  0  0  0  0  0
    7.7651  -16.2919   21.8058 C   0  0  1  0  0  0  0  0  0  0  0  0
    6.7113  -15.2956   22.0948 C   0  0  0  0  0  0  0  0  0  0  0  0
    7.0985  -14.0106   22.6486 C   0  0  0  0  0  0  0  0  0  0  0  0
    7.9052  -13.0386   22.0535 C   0  0  0  0  0  0  0  0  0  0  0  0
    8.0228  -12.0210   22.9072 N   0  0  0  0  0  0  0  0  0  0  0  0
    7.3398  -12.2689   24.0268 C   0  0  0  0  0  0  0  0  0  0  0  0
    7.1297  -11.5341   25.1942 C   0  0  0  0  0  0  0  0  0  0  0  0
    6.3487  -12.0448   26.1840 C   0  0  0  0  0  0  0  0  0  0  0  0
    5.7514  -13.2918   26.0575 C   0  0  0  0  0  0  0  0  0  0  0  0
    5.9544  -14.0269   24.9056 C   0  0  0  0  0  0  0  0  0  0  0  0
    6.7495  -13.5103   23.8940 C   0  0  0  0  0  0  0  0  0  0  0  0
    8.3412  -16.9368   22.9858 C   0  0  0  0  0  0  0  0  0  0  0  0
    7.6525  -17.6934   23.7395 O   0  0  0  0  0  0  0  0  0  0  0  0
   12.1567  -17.4760   23.0796 O   0  0  0  0  0  0  0  0  0  0  0  0
   11.4523  -18.3091   23.9124 C   0  0  0  0  0  0  0  0  0  0  0  0
   10.2526  -17.5421   24.5162 C   0  0  2  0  0  0  0  0  0  0  0  0
    9.7154  -16.7918   23.3996 N   0  0  0  0  0  0  0  0  0  0  0  0
   10.7970  -16.5911   25.5020 C   0  0  0  0  0  0  0  0  0  0  0  0
   11.6395  -15.7411   25.1505 O   0  0  0  0  0  0  0  0  0  0  0  0
   10.1844  -13.7499   27.4838 C   0  0  0  0  0  0  0  0  0  0  0  0
   10.4867  -14.7917   28.5384 C   0  0  1  0  0  0  0  0  0  0  0  0
    9.1713  -15.3005   29.0969 C   0  0  0  0  0  0  0  0  0  0  0  0
   11.2034  -15.9311   27.8694 C   0  0  2  0  0  0  0  0  0  0  0  0
   10.3924  -16.6015   26.8767 N   0  0  0  0  0  0  0  0  0  0  0  0
   11.6466  -16.9463   28.8968 C   0  0  0  0  0  0  0  0  0  0  0  0
   11.1982  -18.1275   28.8782 O   0  0  0  0  0  0  0  0  0  0  0  0
   12.5519  -16.6258   29.8885 O   0  0  0  0  0  0  0  0  0  0  0  0
  2  1  1  6
  3  2  1  0
  4  5  2  0
  4  3  1  0
  6  5  1  0
  7 12  2  0
  7  6  1  0
  8  7  1  0
  9 10  1  0
  9  8  2  0
 10 11  2  0
 11 12  1  0
 12  4  1  0
 13  2  1  0
 14 13  2  0
 16 15  1  0
 17 18  1  0
 17 16  1  6
 18 13  1  0
 19 17  1  0
 20 19  2  0
 22 21  1  6
 22 24  1  0
 23 22  1  0
 24 26  1  0
 24 25  1  6
 25 19  1  0
 26 28  1  0
 27 26  2  0
M  END
$$$$
