WSV.pdb
     RDKit          3D

 28 29  0  0  1  0  0  0  0  0999 V2000
    6.0119  -17.2644   24.8793 N   0  0  0  0  0  0  0  0  0  0  0  0
    7.2414  -16.5349   24.4877 C   0  0  1  0  0  0  0  0  0  0  0  0
    7.3673  -15.3059   25.3003 C   0  0  0  0  0  0  0  0  0  0  0  0
    6.7487  -14.0840   24.8187 C   0  0  0  0  0  0  0  0  0  0  0  0
    5.6879  -13.3847   25.3980 C   0  0  0  0  0  0  0  0  0  0  0  0
    5.4200  -12.3297   24.6279 N   0  0  0  0  0  0  0  0  0  0  0  0
    6.2435  -12.2961   23.5780 C   0  0  0  0  0  0  0  0  0  0  0  0
    6.3874  -11.4085   22.5111 C   0  0  0  0  0  0  0  0  0  0  0  0
    7.3541  -11.6226   21.5783 C   0  0  0  0  0  0  0  0  0  0  0  0
    8.2077  -12.7143   21.6649 C   0  0  0  0  0  0  0  0  0  0  0  0
    8.0722  -13.5989   22.7172 C   0  0  0  0  0  0  0  0  0  0  0  0
    7.0884  -13.3846   23.6704 C   0  0  0  0  0  0  0  0  0  0  0  0
    8.3624  -17.4675   24.6064 C   0  0  0  0  0  0  0  0  0  0  0  0
    8.3729  -18.3956   25.4743 O   0  0  0  0  0  0  0  0  0  0  0  0
   10.9812  -17.6356   21.8790 O   0  0  0  0  0  0  0  0  0  0  0  0
   11.7433  -17.7994   23.0087 C   0  0  0  0  0  0  0  0  0  0  0  0
   10.8188  -17.9104   24.2437 C   0  0  2  0  0  0  0  0  0  0  0  0
    9.5354  -17.4366   23.7675 N   0  0  0  0  0  0  0  0  0  0  0  0
   11.3249  -16.9612   25.2515 C   0  0  0  0  0  0  0  0  0  0  0  0
   11.9282  -15.9307   24.8913 O   0  0  0  0  0  0  0  0  0  0  0  0
   10.4647  -14.3526   26.9967 C   0  0  0  0  0  0  0  0  0  0  0  0
   10.8847  -15.2392   28.1484 C   0  0  1  0  0  0  0  0  0  0  0  0
    9.6451  -15.9074   28.7124 C   0  0  0  0  0  0  0  0  0  0  0  0
   11.8025  -16.2982   27.6046 C   0  0  2  0  0  0  0  0  0  0  0  0
   11.1508  -17.1763   26.6576 N   0  0  0  0  0  0  0  0  0  0  0  0
   12.3633  -17.1339   28.7315 C   0  0  0  0  0  0  0  0  0  0  0  0
   12.0556  -18.3537   28.8507 O   0  0  0  0  0  0  0  0  0  0  0  0
   13.2272  -16.6020   29.6677 O   0  0  0  0  0  0  0  0  0  0  0  0
  2  1  1  1
  3  2  1  0
  4  5  2  0
  4  3  1  0
  6  5  1  0
  7 12  2  0
  7  6  1  0
  8  7  1  0
  9 10  1  0
  9  8  2  0
 10 11  2  0
 11 12  1  0
 12  4  1  0
 13  2  1  0
 14 13  2  0
 16 15  1  0
 17 18  1  0
 17 16  1  6
 18 13  1  0
 19 17  1  0
 20 19  2  0
 22 21  1  6
 22 24  1  0
 23 22  1  0
 24 26  1  0
 24 25  1  6
 25 19  1  0
 26 28  1  0
 27 26  2  0
M  END
$$$$
