WSV.pdb
     RDKit          3D

 28 29  0  0  1  0  0  0  0  0999 V2000
    7.0256  -17.0255   22.7165 N   0  0  0  0  0  0  0  0  0  0  0  0
    8.1969  -16.1641   23.0054 C   0  0  1  0  0  0  0  0  0  0  0  0
    8.3628  -16.0293   24.4685 C   0  0  0  0  0  0  0  0  0  0  0  0
    7.3543  -15.3058   25.2218 C   0  0  0  0  0  0  0  0  0  0  0  0
    6.2510  -15.8386   25.8917 C   0  0  0  0  0  0  0  0  0  0  0  0
    5.5732  -14.8288   26.4381 N   0  0  0  0  0  0  0  0  0  0  0  0
    6.1679  -13.6652   26.1662 C   0  0  0  0  0  0  0  0  0  0  0  0
    5.8772  -12.3453   26.5133 C   0  0  0  0  0  0  0  0  0  0  0  0
    6.6965  -11.3409   26.1005 C   0  0  0  0  0  0  0  0  0  0  0  0
    7.8248  -11.6021   25.3346 C   0  0  0  0  0  0  0  0  0  0  0  0
    8.1202  -12.9056   24.9855 C   0  0  0  0  0  0  0  0  0  0  0  0
    7.2881  -13.9327   25.4042 C   0  0  0  0  0  0  0  0  0  0  0  0
    9.3472  -16.7379   22.3069 C   0  0  0  0  0  0  0  0  0  0  0  0
    9.3443  -17.9357   21.8824 O   0  0  0  0  0  0  0  0  0  0  0  0
   11.9615  -16.2472   25.3195 O   0  0  0  0  0  0  0  0  0  0  0  0
   10.9980  -16.1518   24.3467 C   0  0  0  0  0  0  0  0  0  0  0  0
   11.6736  -16.0164   22.9620 C   0  0  2  0  0  0  0  0  0  0  0  0
   10.5669  -16.0204   22.0274 N   0  0  0  0  0  0  0  0  0  0  0  0
   12.4729  -17.2363   22.7479 C   0  0  0  0  0  0  0  0  0  0  0  0
   12.0330  -18.3438   23.1165 O   0  0  0  0  0  0  0  0  0  0  0  0
   14.2901  -18.3061   19.4793 C   0  0  0  0  0  0  0  0  0  0  0  0
   15.2706  -18.4387   20.6238 C   0  0  1  0  0  0  0  0  0  0  0  0
   16.1872  -17.2300   20.6088 C   0  0  0  0  0  0  0  0  0  0  0  0
   14.4862  -18.4374   21.9061 C   0  0  2  0  0  0  0  0  0  0  0  0
   13.7616  -17.2042   22.1219 N   0  0  0  0  0  0  0  0  0  0  0  0
   15.4055  -18.6698   23.0824 C   0  0  0  0  0  0  0  0  0  0  0  0
   16.0383  -19.7564   23.2072 O   0  0  0  0  0  0  0  0  0  0  0  0
   15.5887  -17.7118   24.0592 O   0  0  0  0  0  0  0  0  0  0  0  0
  2  1  1  1
  3  2  1  0
  4  5  2  0
  4  3  1  0
  6  5  1  0
  7 12  2  0
  7  6  1  0
  8  7  1  0
  9 10  1  0
  9  8  2  0
 10 11  2  0
 11 12  1  0
 12  4  1  0
 13  2  1  0
 14 13  2  0
 16 15  1  0
 17 18  1  0
 17 16  1  1
 18 13  1  0
 19 17  1  0
 20 19  2  0
 22 21  1  6
 22 24  1  0
 23 22  1  0
 24 26  1  0
 24 25  1  1
 25 19  1  0
 26 28  1  0
 27 26  2  0
M  END
$$$$
