WSV.pdb
     RDKit          3D

 28 29  0  0  1  0  0  0  0  0999 V2000
    6.3589  -17.7530   24.4873 N   0  0  0  0  0  0  0  0  0  0  0  0
    7.4209  -16.7196   24.4496 C   0  0  1  0  0  0  0  0  0  0  0  0
    7.4122  -15.9551   25.7153 C   0  0  0  0  0  0  0  0  0  0  0  0
    6.4549  -14.8749   25.8719 C   0  0  0  0  0  0  0  0  0  0  0  0
    5.1391  -14.9671   26.3301 C   0  0  0  0  0  0  0  0  0  0  0  0
    4.6063  -13.7451   26.3031 N   0  0  0  0  0  0  0  0  0  0  0  0
    5.4962  -12.8571   25.8547 C   0  0  0  0  0  0  0  0  0  0  0  0
    5.4454  -11.4763   25.6596 C   0  0  0  0  0  0  0  0  0  0  0  0
    6.5429  -10.8171   25.1999 C   0  0  0  0  0  0  0  0  0  0  0  0
    7.7223  -11.4934   24.9178 C   0  0  0  0  0  0  0  0  0  0  0  0
    7.7816  -12.8604   25.1071 C   0  0  0  0  0  0  0  0  0  0  0  0
    6.6656  -13.5366   25.5757 C   0  0  0  0  0  0  0  0  0  0  0  0
    8.6826  -17.3968   24.1496 C   0  0  0  0  0  0  0  0  0  0  0  0
    8.9299  -18.5701   24.5703 O   0  0  0  0  0  0  0  0  0  0  0  0
   11.1838  -15.4299   21.9903 O   0  0  0  0  0  0  0  0  0  0  0  0
   11.8227  -16.6152   22.2563 C   0  0  0  0  0  0  0  0  0  0  0  0
   11.0918  -17.3496   23.4046 C   0  0  2  0  0  0  0  0  0  0  0  0
    9.7435  -16.8221   23.3592 N   0  0  0  0  0  0  0  0  0  0  0  0
   11.7219  -16.9191   24.6657 C   0  0  0  0  0  0  0  0  0  0  0  0
   12.9143  -16.5533   24.6749 O   0  0  0  0  0  0  0  0  0  0  0  0
   10.5208  -14.3288   26.9943 C   0  0  0  0  0  0  0  0  0  0  0  0
   10.8734  -15.4806   27.9096 C   0  0  1  0  0  0  0  0  0  0  0  0
    9.5853  -16.1442   28.3589 C   0  0  0  0  0  0  0  0  0  0  0  0
   11.6786  -16.4711   27.1157 C   0  0  2  0  0  0  0  0  0  0  0  0
   11.0087  -16.9031   25.9086 N   0  0  0  0  0  0  0  0  0  0  0  0
   11.9900  -17.6868   27.9569 C   0  0  0  0  0  0  0  0  0  0  0  0
   11.5068  -18.8179   27.6674 O   0  0  0  0  0  0  0  0  0  0  0  0
   12.8083  -17.6103   29.0661 O   0  0  0  0  0  0  0  0  0  0  0  0
  2  1  1  1
  3  2  1  0
  4  5  2  0
  4  3  1  0
  6  5  1  0
  7 12  2  0
  7  6  1  0
  8  7  1  0
  9 10  1  0
  9  8  2  0
 10 11  2  0
 11 12  1  0
 12  4  1  0
 13  2  1  0
 14 13  2  0
 16 15  1  0
 17 18  1  0
 17 16  1  6
 18 13  1  0
 19 17  1  0
 20 19  2  0
 22 21  1  6
 22 24  1  0
 23 22  1  0
 24 26  1  0
 24 25  1  6
 25 19  1  0
 26 28  1  0
 27 26  2  0
M  END
$$$$
