WSV.pdb
     RDKit          3D

 28 29  0  0  1  0  0  0  0  0999 V2000
    6.3449  -17.4222   24.2888 N   0  0  0  0  0  0  0  0  0  0  0  0
    7.4925  -16.5478   23.9484 C   0  0  1  0  0  0  0  0  0  0  0  0
    7.8116  -15.6792   25.1017 C   0  0  0  0  0  0  0  0  0  0  0  0
    6.8270  -14.7042   25.5350 C   0  0  0  0  0  0  0  0  0  0  0  0
    5.5936  -14.9551   26.1398 C   0  0  0  0  0  0  0  0  0  0  0  0
    4.9959  -13.7835   26.3591 N   0  0  0  0  0  0  0  0  0  0  0  0
    5.7657  -12.7793   25.9342 C   0  0  0  0  0  0  0  0  0  0  0  0
    5.6128  -11.3924   25.9498 C   0  0  0  0  0  0  0  0  0  0  0  0
    6.5989  -10.5973   25.4539 C   0  0  0  0  0  0  0  0  0  0  0  0
    7.7637  -11.1398   24.9277 C   0  0  0  0  0  0  0  0  0  0  0  0
    7.9235  -12.5117   24.9073 C   0  0  0  0  0  0  0  0  0  0  0  0
    6.9212  -13.3261   25.4118 C   0  0  0  0  0  0  0  0  0  0  0  0
    8.5879  -17.4120   23.5084 C   0  0  0  0  0  0  0  0  0  0  0  0
    8.5975  -18.6589   23.7529 O   0  0  0  0  0  0  0  0  0  0  0  0
   11.1687  -16.2079   21.0383 O   0  0  0  0  0  0  0  0  0  0  0  0
   11.9675  -16.7316   22.0238 C   0  0  0  0  0  0  0  0  0  0  0  0
   11.0827  -17.3154   23.1501 C   0  0  2  0  0  0  0  0  0  0  0  0
    9.7346  -16.9522   22.7639 N   0  0  0  0  0  0  0  0  0  0  0  0
   11.4259  -16.5949   24.3894 C   0  0  0  0  0  0  0  0  0  0  0  0
   11.7183  -15.3830   24.3466 O   0  0  0  0  0  0  0  0  0  0  0  0
   10.1695  -15.0948   26.7804 C   0  0  0  0  0  0  0  0  0  0  0  0
   11.1287  -15.8509   27.6731 C   0  0  1  0  0  0  0  0  0  0  0  0
   10.3325  -16.8516   28.4891 C   0  0  0  0  0  0  0  0  0  0  0  0
   12.0888  -16.5983   26.7905 C   0  0  2  0  0  0  0  0  0  0  0  0
   11.4395  -17.2405   25.6687 N   0  0  0  0  0  0  0  0  0  0  0  0
   12.8246  -17.6489   27.5890 C   0  0  0  0  0  0  0  0  0  0  0  0
   12.6969  -18.8769   27.3198 O   0  0  0  0  0  0  0  0  0  0  0  0
   13.6589  -17.3112   28.6357 O   0  0  0  0  0  0  0  0  0  0  0  0
  2  1  1  1
  3  2  1  0
  4  5  2  0
  4  3  1  0
  6  5  1  0
  7 12  2  0
  7  6  1  0
  8  7  1  0
  9 10  1  0
  9  8  2  0
 10 11  2  0
 11 12  1  0
 12  4  1  0
 13  2  1  0
 14 13  2  0
 16 15  1  0
 17 18  1  0
 17 16  1  6
 18 13  1  0
 19 17  1  0
 20 19  2  0
 22 21  1  6
 22 24  1  0
 23 22  1  0
 24 26  1  0
 24 25  1  6
 25 19  1  0
 26 28  1  0
 27 26  2  0
M  END
$$$$
