WSV.pdb
     RDKit          3D

 28 29  0  0  1  0  0  0  0  0999 V2000
    7.0526  -17.4277   21.5096 N   0  0  0  0  0  0  0  0  0  0  0  0
    8.0283  -16.3596   21.8325 C   0  0  1  0  0  0  0  0  0  0  0  0
    7.3050  -15.1176   22.1802 C   0  0  0  0  0  0  0  0  0  0  0  0
    6.8561  -14.9307   23.5481 C   0  0  0  0  0  0  0  0  0  0  0  0
    6.3579  -15.9028   24.4180 C   0  0  0  0  0  0  0  0  0  0  0  0
    6.0472  -15.3060   25.5692 N   0  0  0  0  0  0  0  0  0  0  0  0
    6.3133  -13.9996   25.5050 C   0  0  0  0  0  0  0  0  0  0  0  0
    6.1901  -12.9584   26.4258 C   0  0  0  0  0  0  0  0  0  0  0  0
    6.5710  -11.6995   26.0786 C   0  0  0  0  0  0  0  0  0  0  0  0
    7.0836  -11.4252   24.8176 C   0  0  0  0  0  0  0  0  0  0  0  0
    7.2084  -12.4496   23.8993 C   0  0  0  0  0  0  0  0  0  0  0  0
    6.8216  -13.7344   24.2487 C   0  0  0  0  0  0  0  0  0  0  0  0
    8.9093  -16.8718   22.8823 C   0  0  0  0  0  0  0  0  0  0  0  0
    8.5279  -17.7672   23.6994 O   0  0  0  0  0  0  0  0  0  0  0  0
   12.7608  -15.9631   22.6929 O   0  0  0  0  0  0  0  0  0  0  0  0
   12.5032  -17.1659   23.3016 C   0  0  0  0  0  0  0  0  0  0  0  0
   11.1425  -17.0936   24.0333 C   0  0  2  0  0  0  0  0  0  0  0  0
   10.2677  -16.4321   23.0871 N   0  0  0  0  0  0  0  0  0  0  0  0
   11.3236  -16.2119   25.2006 C   0  0  0  0  0  0  0  0  0  0  0  0
   11.9944  -15.1656   25.0948 O   0  0  0  0  0  0  0  0  0  0  0  0
    9.9267  -13.8332   27.3028 C   0  0  0  0  0  0  0  0  0  0  0  0
   10.2386  -14.9330   28.2938 C   0  0  1  0  0  0  0  0  0  0  0  0
    8.9653  -15.7155   28.5540 C   0  0  0  0  0  0  0  0  0  0  0  0
   11.2509  -15.8483   27.6638 C   0  0  2  0  0  0  0  0  0  0  0  0
   10.7508  -16.5116   26.4795 N   0  0  0  0  0  0  0  0  0  0  0  0
   11.6950  -16.8989   28.6547 C   0  0  0  0  0  0  0  0  0  0  0  0
   11.4911  -18.1264   28.4348 O   0  0  0  0  0  0  0  0  0  0  0  0
   12.3360  -16.5617   29.8299 O   0  0  0  0  0  0  0  0  0  0  0  0
  2  1  1  1
  3  2  1  0
  4  5  2  0
  4  3  1  0
  6  5  1  0
  7 12  2  0
  7  6  1  0
  8  7  1  0
  9 10  1  0
  9  8  2  0
 10 11  2  0
 11 12  1  0
 12  4  1  0
 13  2  1  0
 14 13  2  0
 16 15  1  0
 17 18  1  0
 17 16  1  6
 18 13  1  0
 19 17  1  0
 20 19  2  0
 22 21  1  6
 22 24  1  0
 23 22  1  0
 24 26  1  0
 24 25  1  6
 25 19  1  0
 26 28  1  0
 27 26  2  0
M  END
$$$$
