WSV.pdb
     RDKit          3D

 28 29  0  0  1  0  0  0  0  0999 V2000
    6.3499  -17.4007   24.5678 N   0  0  0  0  0  0  0  0  0  0  0  0
    7.5422  -16.5627   24.2968 C   0  0  1  0  0  0  0  0  0  0  0  0
    7.6944  -15.5573   25.3704 C   0  0  0  0  0  0  0  0  0  0  0  0
    6.6692  -14.5412   25.5259 C   0  0  0  0  0  0  0  0  0  0  0  0
    5.3096  -14.7390   25.7756 C   0  0  0  0  0  0  0  0  0  0  0  0
    4.7220  -13.5433   25.8298 N   0  0  0  0  0  0  0  0  0  0  0  0
    5.6170  -12.5732   25.6309 C   0  0  0  0  0  0  0  0  0  0  0  0
    5.5209  -11.1813   25.6093 C   0  0  0  0  0  0  0  0  0  0  0  0
    6.6348  -10.4293   25.3995 C   0  0  0  0  0  0  0  0  0  0  0  0
    7.8757  -11.0209   25.2044 C   0  0  0  0  0  0  0  0  0  0  0  0
    7.9804  -12.3982   25.2233 C   0  0  0  0  0  0  0  0  0  0  0  0
    6.8477  -13.1688   25.4370 C   0  0  0  0  0  0  0  0  0  0  0  0
    8.6836  -17.4628   24.1317 C   0  0  0  0  0  0  0  0  0  0  0  0
    8.7602  -18.5688   24.7528 O   0  0  0  0  0  0  0  0  0  0  0  0
   11.7544  -15.9135   22.0989 O   0  0  0  0  0  0  0  0  0  0  0  0
   11.9915  -17.2381   22.3691 C   0  0  0  0  0  0  0  0  0  0  0  0
   11.1349  -17.6799   23.5787 C   0  0  2  0  0  0  0  0  0  0  0  0
    9.8051  -17.1996   23.2636 N   0  0  0  0  0  0  0  0  0  0  0  0
   11.6328  -16.9444   24.7551 C   0  0  0  0  0  0  0  0  0  0  0  0
   12.5204  -16.0784   24.6204 O   0  0  0  0  0  0  0  0  0  0  0  0
   10.7240  -14.3505   26.7311 C   0  0  0  0  0  0  0  0  0  0  0  0
   10.8636  -15.4337   27.7781 C   0  0  1  0  0  0  0  0  0  0  0  0
    9.4872  -16.0068   28.0576 C   0  0  0  0  0  0  0  0  0  0  0  0
   11.7343  -16.5179   27.2072 C   0  0  2  0  0  0  0  0  0  0  0  0
   11.1313  -17.1872   26.0754 N   0  0  0  0  0  0  0  0  0  0  0  0
   12.0494  -17.5484   28.2662 C   0  0  0  0  0  0  0  0  0  0  0  0
   12.7074  -17.2377   29.2992 O   0  0  0  0  0  0  0  0  0  0  0  0
   11.6339  -18.8595   28.1478 O   0  0  0  0  0  0  0  0  0  0  0  0
  2  1  1  1
  3  2  1  0
  4  5  2  0
  4  3  1  0
  6  5  1  0
  7 12  2  0
  7  6  1  0
  8  7  1  0
  9 10  1  0
  9  8  2  0
 10 11  2  0
 11 12  1  0
 12  4  1  0
 13  2  1  0
 14 13  2  0
 16 15  1  0
 17 18  1  0
 17 16  1  6
 18 13  1  0
 19 17  1  0
 20 19  2  0
 22 21  1  6
 22 24  1  0
 23 22  1  0
 24 26  1  0
 24 25  1  6
 25 19  1  0
 26 28  1  0
 27 26  2  0
M  END
$$$$
