WSV.pdb
     RDKit          3D

 28 29  0  0  1  0  0  0  0  0999 V2000
    7.6592  -15.5445   22.2382 N   0  0  0  0  0  0  0  0  0  0  0  0
    8.5642  -15.8329   23.3762 C   0  0  1  0  0  0  0  0  0  0  0  0
    7.7786  -16.3653   24.5102 C   0  0  0  0  0  0  0  0  0  0  0  0
    7.1198  -15.4295   25.4036 C   0  0  0  0  0  0  0  0  0  0  0  0
    6.1166  -15.7079   26.3342 C   0  0  0  0  0  0  0  0  0  0  0  0
    5.7807  -14.5648   26.9328 N   0  0  0  0  0  0  0  0  0  0  0  0
    6.5054  -13.5535   26.4496 C   0  0  0  0  0  0  0  0  0  0  0  0
    6.5525  -12.1910   26.7467 C   0  0  0  0  0  0  0  0  0  0  0  0
    7.4303  -11.3852   26.0905 C   0  0  0  0  0  0  0  0  0  0  0  0
    8.2873  -11.8926   25.1230 C   0  0  0  0  0  0  0  0  0  0  0  0
    8.2472  -13.2401   24.8216 C   0  0  0  0  0  0  0  0  0  0  0  0
    7.3543  -14.0653   25.4880 C   0  0  0  0  0  0  0  0  0  0  0  0
    9.6165  -16.7233   22.8861 C   0  0  0  0  0  0  0  0  0  0  0  0
   10.3139  -17.4346   23.6752 O   0  0  0  0  0  0  0  0  0  0  0  0
   11.0323  -16.2021   19.2955 O   0  0  0  0  0  0  0  0  0  0  0  0
   11.1284  -17.5471   19.5513 C   0  0  0  0  0  0  0  0  0  0  0  0
   11.0058  -17.7934   21.0733 C   0  0  2  0  0  0  0  0  0  0  0  0
    9.9561  -16.8882   21.4940 N   0  0  0  0  0  0  0  0  0  0  0  0
   12.2737  -17.3591   21.6869 C   0  0  0  0  0  0  0  0  0  0  0  0
   12.5305  -16.1433   21.7958 O   0  0  0  0  0  0  0  0  0  0  0  0
   15.9943  -18.1365   24.7129 C   0  0  0  0  0  0  0  0  0  0  0  0
   14.6338  -18.5391   24.1878 C   0  0  1  0  0  0  0  0  0  0  0  0
   13.5852  -18.0931   25.1892 C   0  0  0  0  0  0  0  0  0  0  0  0
   14.4065  -17.8137   22.8910 C   0  0  2  0  0  0  0  0  0  0  0  0
   13.2456  -18.2932   22.1733 N   0  0  0  0  0  0  0  0  0  0  0  0
   15.6168  -17.9480   21.9968 C   0  0  0  0  0  0  0  0  0  0  0  0
   16.5660  -17.1162   22.0594 O   0  0  0  0  0  0  0  0  0  0  0  0
   15.7324  -18.9766   21.0834 O   0  0  0  0  0  0  0  0  0  0  0  0
  2  1  1  6
  3  2  1  0
  4  5  2  0
  4  3  1  0
  6  5  1  0
  7 12  2  0
  7  6  1  0
  8  7  1  0
  9 10  1  0
  9  8  2  0
 10 11  2  0
 11 12  1  0
 12  4  1  0
 13  2  1  0
 14 13  2  0
 16 15  1  0
 17 18  1  0
 17 16  1  6
 18 13  1  0
 19 17  1  0
 20 19  2  0
 22 21  1  1
 22 24  1  0
 23 22  1  0
 24 26  1  0
 24 25  1  6
 25 19  1  0
 26 28  1  0
 27 26  2  0
M  END
$$$$
