WSV.pdb
     RDKit          3D

 28 29  0  0  1  0  0  0  0  0999 V2000
    6.7948  -17.3000   24.3741 N   0  0  0  0  0  0  0  0  0  0  0  0
    7.9007  -16.3498   24.1070 C   0  0  1  0  0  0  0  0  0  0  0  0
    8.0127  -15.3932   25.2289 C   0  0  0  0  0  0  0  0  0  0  0  0
    6.8769  -14.5433   25.5379 C   0  0  0  0  0  0  0  0  0  0  0  0
    5.6055  -14.9442   25.9536 C   0  0  0  0  0  0  0  0  0  0  0  0
    4.8591  -13.8505   26.1108 N   0  0  0  0  0  0  0  0  0  0  0  0
    5.5670  -12.7562   25.8231 C   0  0  0  0  0  0  0  0  0  0  0  0
    5.2635  -11.3944   25.8473 C   0  0  0  0  0  0  0  0  0  0  0  0
    6.2170  -10.4826   25.5157 C   0  0  0  0  0  0  0  0  0  0  0  0
    7.4962  -10.8803   25.1503 C   0  0  0  0  0  0  0  0  0  0  0  0
    7.8055  -12.2263   25.1227 C   0  0  0  0  0  0  0  0  0  0  0  0
    6.8369  -13.1593   25.4600 C   0  0  0  0  0  0  0  0  0  0  0  0
    9.1055  -17.1388   23.8497 C   0  0  0  0  0  0  0  0  0  0  0  0
    9.2808  -18.2840   24.3721 O   0  0  0  0  0  0  0  0  0  0  0  0
   11.6210  -16.7607   20.8224 O   0  0  0  0  0  0  0  0  0  0  0  0
   12.3218  -16.5954   21.9909 C   0  0  0  0  0  0  0  0  0  0  0  0
   11.5304  -17.2250   23.1612 C   0  0  2  0  0  0  0  0  0  0  0  0
   10.1854  -16.7143   22.9928 N   0  0  0  0  0  0  0  0  0  0  0  0
   12.0888  -16.6738   24.4090 C   0  0  0  0  0  0  0  0  0  0  0  0
   12.9325  -15.7562   24.3638 O   0  0  0  0  0  0  0  0  0  0  0  0
   10.8693  -14.7559   27.1427 C   0  0  0  0  0  0  0  0  0  0  0  0
   11.4292  -15.9763   27.8396 C   0  0  1  0  0  0  0  0  0  0  0  0
   10.2790  -16.9122   28.1598 C   0  0  0  0  0  0  0  0  0  0  0  0
   12.3639  -16.6648   26.8848 C   0  0  2  0  0  0  0  0  0  0  0  0
   11.6965  -17.1574   25.6997 N   0  0  0  0  0  0  0  0  0  0  0  0
   13.0514  -17.8233   27.5688 C   0  0  0  0  0  0  0  0  0  0  0  0
   12.8648  -19.0109   27.1795 O   0  0  0  0  0  0  0  0  0  0  0  0
   13.9038  -17.6315   28.6376 O   0  0  0  0  0  0  0  0  0  0  0  0
  2  1  1  1
  3  2  1  0
  4  5  2  0
  4  3  1  0
  6  5  1  0
  7 12  2  0
  7  6  1  0
  8  7  1  0
  9 10  1  0
  9  8  2  0
 10 11  2  0
 11 12  1  0
 12  4  1  0
 13  2  1  0
 14 13  2  0
 16 15  1  0
 17 18  1  0
 17 16  1  6
 18 13  1  0
 19 17  1  0
 20 19  2  0
 22 21  1  6
 22 24  1  0
 23 22  1  0
 24 26  1  0
 24 25  1  6
 25 19  1  0
 26 28  1  0
 27 26  2  0
M  END
$$$$
