DGF.pdb
     RDKit          3D

 24 24  0  0  1  0  0  0  0  0999 V2000
    5.1365  -18.4796   22.7565 N   0  0  0  0  0  0  0  0  0  0  0  0
    5.1217  -18.2746   21.2792 C   0  0  1  0  0  0  0  0  0  0  0  0
    3.7473  -17.7467   20.9378 C   0  0  0  0  0  0  0  0  0  0  0  0
    2.7207  -18.7751   21.0446 C   0  0  0  0  0  0  0  0  0  0  0  0
    2.9937  -19.9544   21.3197 O   0  0  0  0  0  0  0  0  0  0  0  0
    6.1769  -17.2662   21.0077 C   0  0  0  0  0  0  0  0  0  0  0  0
    6.3476  -16.8891   19.7912 O   0  0  0  0  0  0  0  0  0  0  0  0
    1.3568  -18.5048   20.8444 O   0  0  0  0  0  0  0  0  0  0  0  0
    6.9716  -16.7210   22.0140 N   0  0  0  0  0  0  0  0  0  0  0  0
    7.9863  -15.7097   21.7117 C   0  0  0  0  0  0  0  0  0  0  0  0
    8.6817  -15.3882   22.9813 C   0  0  0  0  0  0  0  0  0  0  0  0
    9.6523  -14.6233   23.0234 O   0  0  0  0  0  0  0  0  0  0  0  0
    8.2156  -15.9770   24.1735 N   0  0  0  0  0  0  0  0  0  0  0  0
    8.8650  -15.8415   25.4643 C   0  0  1  0  0  0  0  0  0  0  0  0
    7.8000  -15.3961   26.4294 C   0  0  0  0  0  0  0  0  0  0  0  0
    7.5436  -13.9634   26.4688 C   0  0  0  0  0  0  0  0  0  0  0  0
    6.2112  -13.5512   26.5899 C   0  0  0  0  0  0  0  0  0  0  0  0
    5.8718  -12.2185   26.6368 C   0  0  0  0  0  0  0  0  0  0  0  0
    6.8800  -11.2840   26.5615 C   0  0  0  0  0  0  0  0  0  0  0  0
    8.2024  -11.6824   26.4414 C   0  0  0  0  0  0  0  0  0  0  0  0
    8.5450  -13.0034   26.3943 C   0  0  0  0  0  0  0  0  0  0  0  0
    9.4452  -17.1674   25.7966 C   0  0  0  0  0  0  0  0  0  0  0  0
    9.2193  -18.1967   25.1085 O   0  0  0  0  0  0  0  0  0  0  0  0
   10.2849  -17.3548   26.9028 O   0  0  0  0  0  0  0  0  0  0  0  0
  2  1  1  1
  2  3  1  0
  3  4  1  0
  4  8  1  0
  5  4  2  0
  6  7  2  0
  6  2  1  0
  9  6  1  0
 10 11  1  0
 10  9  1  0
 11 13  1  0
 12 11  2  0
 13 14  1  0
 14 15  1  1
 14 22  1  0
 15 16  1  0
 16 21  2  0
 17 16  1  0
 17 18  2  0
 18 19  1  0
 19 20  2  0
 21 20  1  0
 22 23  2  0
 22 24  1  0
M  END
$$$$
