DGF.pdb
     RDKit          3D

 24 24  0  0  1  0  0  0  0  0999 V2000
    8.9864  -16.8978   18.6966 N   0  0  0  0  0  0  0  0  0  0  0  0
    8.7263  -15.4446   18.9092 C   0  0  1  0  0  0  0  0  0  0  0  0
    7.7696  -15.0208   17.8186 C   0  0  0  0  0  0  0  0  0  0  0  0
    8.3790  -15.0850   16.4967 C   0  0  0  0  0  0  0  0  0  0  0  0
    7.7657  -14.7523   15.4700 O   0  0  0  0  0  0  0  0  0  0  0  0
    8.1016  -15.3454   20.2523 C   0  0  0  0  0  0  0  0  0  0  0  0
    7.7671  -14.1785   20.6738 O   0  0  0  0  0  0  0  0  0  0  0  0
    9.6971  -15.5261   16.2930 O   0  0  0  0  0  0  0  0  0  0  0  0
    7.8657  -16.4596   21.0551 N   0  0  0  0  0  0  0  0  0  0  0  0
    7.1579  -16.3361   22.3308 C   0  0  0  0  0  0  0  0  0  0  0  0
    8.1823  -16.1768   23.3909 C   0  0  0  0  0  0  0  0  0  0  0  0
    9.3858  -16.0643   23.1303 O   0  0  0  0  0  0  0  0  0  0  0  0
    7.7631  -16.1535   24.7360 N   0  0  0  0  0  0  0  0  0  0  0  0
    8.6452  -15.9320   25.8669 C   0  0  1  0  0  0  0  0  0  0  0  0
    7.8043  -15.2990   26.9422 C   0  0  0  0  0  0  0  0  0  0  0  0
    7.3164  -13.9578   26.6538 C   0  0  0  0  0  0  0  0  0  0  0  0
    8.2234  -12.9001   26.7901 C   0  0  0  0  0  0  0  0  0  0  0  0
    7.8541  -11.5988   26.5381 C   0  0  0  0  0  0  0  0  0  0  0  0
    6.5584  -11.3515   26.1438 C   0  0  0  0  0  0  0  0  0  0  0  0
    5.6531  -12.3923   26.0060 C   0  0  0  0  0  0  0  0  0  0  0  0
    6.0139  -13.6855   26.2548 C   0  0  0  0  0  0  0  0  0  0  0  0
    9.1949  -17.2569   26.2511 C   0  0  0  0  0  0  0  0  0  0  0  0
    8.6622  -18.3400   25.8946 O   0  0  0  0  0  0  0  0  0  0  0  0
   10.3473  -17.3831   27.0385 O   0  0  0  0  0  0  0  0  0  0  0  0
  2  1  1  6
  2  3  1  0
  3  4  1  0
  4  8  1  0
  5  4  2  0
  6  7  2  0
  6  2  1  0
  9  6  1  0
 10 11  1  0
 10  9  1  0
 11 13  1  0
 12 11  2  0
 13 14  1  0
 14 15  1  1
 14 22  1  0
 15 16  1  0
 16 21  2  0
 17 16  1  0
 17 18  2  0
 18 19  1  0
 19 20  2  0
 21 20  1  0
 22 23  2  0
 22 24  1  0
M  END
$$$$
