DGF.pdb
     RDKit          3D

 24 24  0  0  1  0  0  0  0  0999 V2000
    8.5211  -18.0251   19.0962 N   0  0  0  0  0  0  0  0  0  0  0  0
    8.2851  -16.5571   19.2151 C   0  0  1  0  0  0  0  0  0  0  0  0
    7.2875  -16.1991   18.1376 C   0  0  0  0  0  0  0  0  0  0  0  0
    7.8351  -16.3784   16.7994 C   0  0  0  0  0  0  0  0  0  0  0  0
    7.7323  -17.4504   16.1820 O   0  0  0  0  0  0  0  0  0  0  0  0
    7.7188  -16.3548   20.5725 C   0  0  0  0  0  0  0  0  0  0  0  0
    7.5058  -15.1482   20.9600 O   0  0  0  0  0  0  0  0  0  0  0  0
    8.5147  -15.3551   16.1178 O   0  0  0  0  0  0  0  0  0  0  0  0
    7.4113  -17.4142   21.4237 N   0  0  0  0  0  0  0  0  0  0  0  0
    6.8392  -17.1766   22.7503 C   0  0  0  0  0  0  0  0  0  0  0  0
    7.9543  -16.7974   23.6510 C   0  0  0  0  0  0  0  0  0  0  0  0
    9.1381  -16.8875   23.3053 O   0  0  0  0  0  0  0  0  0  0  0  0
    7.6472  -16.3200   24.9407 N   0  0  0  0  0  0  0  0  0  0  0  0
    8.6329  -15.8641   25.9034 C   0  0  1  0  0  0  0  0  0  0  0  0
    7.8882  -15.0263   26.9073 C   0  0  0  0  0  0  0  0  0  0  0  0
    7.4212  -13.7334   26.4274 C   0  0  0  0  0  0  0  0  0  0  0  0
    6.2292  -13.2381   26.9694 C   0  0  0  0  0  0  0  0  0  0  0  0
    5.7107  -12.0250   26.5787 C   0  0  0  0  0  0  0  0  0  0  0  0
    6.3944  -11.2960   25.6317 C   0  0  0  0  0  0  0  0  0  0  0  0
    7.5756  -11.7782   25.0893 C   0  0  0  0  0  0  0  0  0  0  0  0
    8.0948  -12.9813   25.4732 C   0  0  0  0  0  0  0  0  0  0  0  0
    9.2539  -17.0775   26.4924 C   0  0  0  0  0  0  0  0  0  0  0  0
   10.2722  -17.0265   27.2303 O   0  0  0  0  0  0  0  0  0  0  0  0
    8.7410  -18.3611   26.2616 O   0  0  0  0  0  0  0  0  0  0  0  0
  2  1  1  6
  2  3  1  0
  3  4  1  0
  4  8  1  0
  5  4  2  0
  6  7  2  0
  6  2  1  0
  9  6  1  0
 10 11  1  0
 10  9  1  0
 11 13  1  0
 12 11  2  0
 13 14  1  0
 14 15  1  1
 14 22  1  0
 15 16  1  0
 16 21  2  0
 17 16  1  0
 17 18  2  0
 18 19  1  0
 19 20  2  0
 21 20  1  0
 22 23  2  0
 22 24  1  0
M  END
$$$$
