DGF.pdb
     RDKit          3D

 24 24  0  0  1  0  0  0  0  0999 V2000
    7.9889  -13.4017   18.6174 N   0  0  0  0  0  0  0  0  0  0  0  0
    7.5996  -14.8063   18.3006 C   0  0  1  0  0  0  0  0  0  0  0  0
    8.8260  -15.4638   17.7108 C   0  0  0  0  0  0  0  0  0  0  0  0
    9.1667  -14.9198   16.4028 C   0  0  0  0  0  0  0  0  0  0  0  0
    8.2995  -14.6082   15.5711 O   0  0  0  0  0  0  0  0  0  0  0  0
    7.2244  -15.4171   19.6006 C   0  0  0  0  0  0  0  0  0  0  0  0
    6.9797  -16.6785   19.6225 O   0  0  0  0  0  0  0  0  0  0  0  0
   10.4943  -14.7112   15.9938 O   0  0  0  0  0  0  0  0  0  0  0  0
    7.1354  -14.6795   20.7794 N   0  0  0  0  0  0  0  0  0  0  0  0
    6.6846  -15.2992   22.0269 C   0  0  0  0  0  0  0  0  0  0  0  0
    7.8418  -15.3192   22.9538 C   0  0  0  0  0  0  0  0  0  0  0  0
    8.9827  -15.0145   22.5873 O   0  0  0  0  0  0  0  0  0  0  0  0
    7.6264  -15.6987   24.2936 N   0  0  0  0  0  0  0  0  0  0  0  0
    8.6160  -15.5826   25.3488 C   0  0  1  0  0  0  0  0  0  0  0  0
    7.8841  -15.0752   26.5617 C   0  0  0  0  0  0  0  0  0  0  0  0
    7.3134  -13.7412   26.4417 C   0  0  0  0  0  0  0  0  0  0  0  0
    8.1544  -12.7203   25.9828 C   0  0  0  0  0  0  0  0  0  0  0  0
    7.7038  -11.4286   25.8358 C   0  0  0  0  0  0  0  0  0  0  0  0
    6.3924  -11.1534   26.1524 C   0  0  0  0  0  0  0  0  0  0  0  0
    5.5520  -12.1576   26.6076 C   0  0  0  0  0  0  0  0  0  0  0  0
    5.9937  -13.4412   26.7554 C   0  0  0  0  0  0  0  0  0  0  0  0
    9.2058  -16.9323   25.5373 C   0  0  0  0  0  0  0  0  0  0  0  0
    8.6826  -17.9724   25.0594 O   0  0  0  0  0  0  0  0  0  0  0  0
   10.3881  -17.1316   26.2628 O   0  0  0  0  0  0  0  0  0  0  0  0
  2  1  1  1
  2  3  1  0
  3  4  1  0
  4  8  1  0
  5  4  2  0
  6  7  2  0
  6  2  1  0
  9  6  1  0
 10 11  1  0
 10  9  1  0
 11 13  1  0
 12 11  2  0
 13 14  1  0
 14 15  1  1
 14 22  1  0
 15 16  1  0
 16 21  2  0
 17 16  1  0
 17 18  2  0
 18 19  1  0
 19 20  2  0
 21 20  1  0
 22 23  2  0
 22 24  1  0
M  END
$$$$
