DGF.pdb
     RDKit          3D

 24 24  0  0  1  0  0  0  0  0999 V2000
   10.0634  -16.8190   18.7740 N   0  0  0  0  0  0  0  0  0  0  0  0
    8.6342  -17.2028   18.5873 C   0  0  1  0  0  0  0  0  0  0  0  0
    8.6044  -18.7128   18.5293 C   0  0  0  0  0  0  0  0  0  0  0  0
    9.5257  -19.2434   17.5331 C   0  0  0  0  0  0  0  0  0  0  0  0
   10.7575  -19.1792   17.6725 O   0  0  0  0  0  0  0  0  0  0  0  0
    7.9252  -16.6883   19.7860 C   0  0  0  0  0  0  0  0  0  0  0  0
    6.6630  -16.9115   19.8783 O   0  0  0  0  0  0  0  0  0  0  0  0
    9.0860  -19.8615   16.3508 O   0  0  0  0  0  0  0  0  0  0  0  0
    8.5749  -15.9871   20.7997 N   0  0  0  0  0  0  0  0  0  0  0  0
    7.8334  -15.4478   21.9412 C   0  0  0  0  0  0  0  0  0  0  0  0
    8.7173  -15.5444   23.1278 C   0  0  0  0  0  0  0  0  0  0  0  0
    9.9485  -15.4742   23.0376 O   0  0  0  0  0  0  0  0  0  0  0  0
    8.1278  -15.7216   24.3953 N   0  0  0  0  0  0  0  0  0  0  0  0
    8.8331  -15.5791   25.6556 C   0  0  1  0  0  0  0  0  0  0  0  0
    7.8173  -15.1014   26.6576 C   0  0  0  0  0  0  0  0  0  0  0  0
    7.3338  -13.7414   26.4662 C   0  0  0  0  0  0  0  0  0  0  0  0
    8.2252  -12.6971   26.7400 C   0  0  0  0  0  0  0  0  0  0  0  0
    7.8587  -11.3797   26.5870 C   0  0  0  0  0  0  0  0  0  0  0  0
    6.5816  -11.1023   26.1537 C   0  0  0  0  0  0  0  0  0  0  0  0
    5.6919  -12.1296   25.8800 C   0  0  0  0  0  0  0  0  0  0  0  0
    6.0500  -13.4387   26.0302 C   0  0  0  0  0  0  0  0  0  0  0  0
    9.4041  -16.9102   25.9832 C   0  0  0  0  0  0  0  0  0  0  0  0
    9.0208  -17.9684   25.4200 O   0  0  0  0  0  0  0  0  0  0  0  0
   10.4108  -17.0705   26.9448 O   0  0  0  0  0  0  0  0  0  0  0  0
  2  1  1  1
  2  3  1  0
  3  4  1  0
  4  8  1  0
  5  4  2  0
  6  7  2  0
  6  2  1  0
  9  6  1  0
 10 11  1  0
 10  9  1  0
 11 13  1  0
 12 11  2  0
 13 14  1  0
 14 15  1  1
 14 22  1  0
 15 16  1  0
 16 21  2  0
 17 16  1  0
 17 18  2  0
 18 19  1  0
 19 20  2  0
 21 20  1  0
 22 23  2  0
 22 24  1  0
M  END
$$$$
