DGF.pdb
     RDKit          3D

 24 24  0  0  1  0  0  0  0  0999 V2000
   11.3169  -18.6052   20.8654 N   0  0  0  0  0  0  0  0  0  0  0  0
   11.1473  -17.1344   20.6842 C   0  0  1  0  0  0  0  0  0  0  0  0
   10.4156  -16.9499   19.3747 C   0  0  0  0  0  0  0  0  0  0  0  0
   11.2554  -17.2637   18.2262 C   0  0  0  0  0  0  0  0  0  0  0  0
   12.4122  -16.8273   18.1152 O   0  0  0  0  0  0  0  0  0  0  0  0
   10.3263  -16.6846   21.8365 C   0  0  0  0  0  0  0  0  0  0  0  0
   10.0570  -15.4314   21.9283 O   0  0  0  0  0  0  0  0  0  0  0  0
   10.8163  -18.0781   17.1692 O   0  0  0  0  0  0  0  0  0  0  0  0
    9.8424  -17.5640   22.8029 N   0  0  0  0  0  0  0  0  0  0  0  0
    8.8997  -17.1153   23.8293 C   0  0  0  0  0  0  0  0  0  0  0  0
    9.6935  -16.4972   24.9185 C   0  0  0  0  0  0  0  0  0  0  0  0
   10.9184  -16.3500   24.8369 O   0  0  0  0  0  0  0  0  0  0  0  0
    9.0232  -16.0661   26.0806 N   0  0  0  0  0  0  0  0  0  0  0  0
    9.6608  -15.3793   27.1888 C   0  0  1  0  0  0  0  0  0  0  0  0
    8.5730  -14.6186   27.8976 C   0  0  0  0  0  0  0  0  0  0  0  0
    7.9048  -13.5926   27.1098 C   0  0  0  0  0  0  0  0  0  0  0  0
    6.6325  -13.8928   26.6087 C   0  0  0  0  0  0  0  0  0  0  0  0
    5.9236  -12.9857   25.8551 C   0  0  0  0  0  0  0  0  0  0  0  0
    6.4955  -11.7598   25.5988 C   0  0  0  0  0  0  0  0  0  0  0  0
    7.7548  -11.4533   26.0907 C   0  0  0  0  0  0  0  0  0  0  0  0
    8.4629  -12.3496   26.8390 C   0  0  0  0  0  0  0  0  0  0  0  0
   10.2980  -16.4216   28.0329 C   0  0  0  0  0  0  0  0  0  0  0  0
   11.0099  -16.1413   29.0323 O   0  0  0  0  0  0  0  0  0  0  0  0
   10.1447  -17.7890   27.7673 O   0  0  0  0  0  0  0  0  0  0  0  0
  2  1  1  1
  2  3  1  0
  3  4  1  0
  4  8  1  0
  5  4  2  0
  6  7  2  0
  6  2  1  0
  9  6  1  0
 10 11  1  0
 10  9  1  0
 11 13  1  0
 12 11  2  0
 13 14  1  0
 14 15  1  1
 14 22  1  0
 15 16  1  0
 16 21  2  0
 17 16  1  0
 17 18  2  0
 18 19  1  0
 19 20  2  0
 21 20  1  0
 22 23  2  0
 22 24  1  0
M  END
$$$$
