DGF.pdb
     RDKit          3D

 24 24  0  0  1  0  0  0  0  0999 V2000
    8.0495  -18.9086   19.3858 N   0  0  0  0  0  0  0  0  0  0  0  0
    8.2484  -17.4310   19.3440 C   0  0  1  0  0  0  0  0  0  0  0  0
    7.2919  -16.9034   18.2995 C   0  0  0  0  0  0  0  0  0  0  0  0
    7.4269  -17.6010   17.0275 C   0  0  0  0  0  0  0  0  0  0  0  0
    8.4360  -17.4838   16.3141 O   0  0  0  0  0  0  0  0  0  0  0  0
    7.8967  -16.9445   20.7019 C   0  0  0  0  0  0  0  0  0  0  0  0
    8.0464  -15.6922   20.9481 O   0  0  0  0  0  0  0  0  0  0  0  0
    6.4289  -18.4507   16.5223 O   0  0  0  0  0  0  0  0  0  0  0  0
    7.4126  -17.7879   21.6999 N   0  0  0  0  0  0  0  0  0  0  0  0
    7.0804  -17.2729   23.0296 C   0  0  0  0  0  0  0  0  0  0  0  0
    8.3586  -16.9941   23.7276 C   0  0  0  0  0  0  0  0  0  0  0  0
    9.4336  -17.4710   23.3455 O   0  0  0  0  0  0  0  0  0  0  0  0
    8.3395  -16.1580   24.8616 N   0  0  0  0  0  0  0  0  0  0  0  0
    9.5251  -15.6673   25.5396 C   0  0  1  0  0  0  0  0  0  0  0  0
    9.5191  -14.1717   25.3737 C   0  0  0  0  0  0  0  0  0  0  0  0
    8.3695  -13.4791   25.9381 C   0  0  0  0  0  0  0  0  0  0  0  0
    7.2307  -13.3601   25.1324 C   0  0  0  0  0  0  0  0  0  0  0  0
    6.0960  -12.7236   25.5802 C   0  0  0  0  0  0  0  0  0  0  0  0
    6.0999  -12.1983   26.8528 C   0  0  0  0  0  0  0  0  0  0  0  0
    7.2228  -12.3111   27.6581 C   0  0  0  0  0  0  0  0  0  0  0  0
    8.3516  -12.9416   27.2190 C   0  0  0  0  0  0  0  0  0  0  0  0
    9.4245  -16.1043   26.9552 C   0  0  0  0  0  0  0  0  0  0  0  0
   10.2945  -15.8132   27.8169 O   0  0  0  0  0  0  0  0  0  0  0  0
    8.3485  -16.8717   27.4211 O   0  0  0  0  0  0  0  0  0  0  0  0
  2  1  1  1
  2  3  1  0
  3  4  1  0
  4  8  1  0
  5  4  2  0
  6  7  2  0
  6  2  1  0
  9  6  1  0
 10 11  1  0
 10  9  1  0
 11 13  1  0
 12 11  2  0
 13 14  1  0
 14 15  1  1
 14 22  1  0
 15 16  1  0
 16 21  2  0
 17 16  1  0
 17 18  2  0
 18 19  1  0
 19 20  2  0
 21 20  1  0
 22 23  2  0
 22 24  1  0
M  END
$$$$
