DGF.pdb
     RDKit          3D

 24 24  0  0  1  0  0  0  0  0999 V2000
    7.3251  -19.2184   22.1313 N   0  0  0  0  0  0  0  0  0  0  0  0
    7.2610  -18.6506   20.7535 C   0  0  1  0  0  0  0  0  0  0  0  0
    5.7969  -18.4210   20.4569 C   0  0  0  0  0  0  0  0  0  0  0  0
    5.1518  -19.6107   19.9172 C   0  0  0  0  0  0  0  0  0  0  0  0
    5.7649  -20.6776   19.7535 O   0  0  0  0  0  0  0  0  0  0  0  0
    8.0125  -17.3718   20.8158 C   0  0  0  0  0  0  0  0  0  0  0  0
    8.1783  -16.7194   19.7211 O   0  0  0  0  0  0  0  0  0  0  0  0
    3.7971  -19.6329   19.5460 O   0  0  0  0  0  0  0  0  0  0  0  0
    8.5310  -16.8623   22.0045 N   0  0  0  0  0  0  0  0  0  0  0  0
    9.2224  -15.5721   22.0363 C   0  0  0  0  0  0  0  0  0  0  0  0
    9.7143  -15.3683   23.4202 C   0  0  0  0  0  0  0  0  0  0  0  0
   10.7509  -14.7396   23.6633 O   0  0  0  0  0  0  0  0  0  0  0  0
    8.9710  -15.9113   24.4870 N   0  0  0  0  0  0  0  0  0  0  0  0
    9.3009  -15.7371   25.8896 C   0  0  1  0  0  0  0  0  0  0  0  0
    8.0021  -15.4661   26.5995 C   0  0  0  0  0  0  0  0  0  0  0  0
    7.4920  -14.1073   26.4844 C   0  0  0  0  0  0  0  0  0  0  0  0
    8.4201  -13.0624   26.5663 C   0  0  0  0  0  0  0  0  0  0  0  0
    8.0320  -11.7460   26.4670 C   0  0  0  0  0  0  0  0  0  0  0  0
    6.6957  -11.4703   26.2830 C   0  0  0  0  0  0  0  0  0  0  0  0
    5.7692  -12.4982   26.2007 C   0  0  0  0  0  0  0  0  0  0  0  0
    6.1485  -13.8063   26.2986 C   0  0  0  0  0  0  0  0  0  0  0  0
    9.9668  -16.9875   26.3346 C   0  0  0  0  0  0  0  0  0  0  0  0
   10.0923  -17.9911   25.5855 O   0  0  0  0  0  0  0  0  0  0  0  0
   10.4996  -17.1274   27.6231 O   0  0  0  0  0  0  0  0  0  0  0  0
  2  1  1  1
  2  3  1  0
  3  4  1  0
  4  8  1  0
  5  4  2  0
  6  7  2  0
  6  2  1  0
  9  6  1  0
 10 11  1  0
 10  9  1  0
 11 13  1  0
 12 11  2  0
 13 14  1  0
 14 15  1  1
 14 22  1  0
 15 16  1  0
 16 21  2  0
 17 16  1  0
 17 18  2  0
 18 19  1  0
 19 20  2  0
 21 20  1  0
 22 23  2  0
 22 24  1  0
M  END
$$$$
