DQS.pdb
     RDKit          3D

 24 23  0  0  1  0  0  0  0  0999 V2000
   16.1578  -11.0037  -12.6059 N   0  0  0  0  0  0  0  0  0  0  0  0
   16.1106   -9.9828  -13.6089 C   0  0  1  0  0  0  0  0  0  0  0  0
   14.6568   -9.6827  -13.8906 C   0  0  0  0  0  0  0  0  0  0  0  0
   13.9610  -10.8608  -14.4617 C   0  0  0  0  0  0  0  0  0  0  0  0
   14.5559  -11.6086  -15.3096 O   0  0  0  0  0  0  0  0  0  0  0  0
   16.7763   -8.7270  -13.1791 C   0  0  0  0  0  0  0  0  0  0  0  0
   16.6141   -8.2308  -12.0356 O   0  0  0  0  0  0  0  0  0  0  0  0
   12.6690  -11.2346  -14.1408 O   0  0  0  0  0  0  0  0  0  0  0  0
   22.2630   -6.5451  -15.0766 N   0  0  0  0  0  0  0  0  0  0  0  0
   21.8269   -5.4651  -14.2670 C   0  0  0  0  0  0  0  0  0  0  0  0
   22.6679   -4.5355  -14.0576 O   0  0  0  0  0  0  0  0  0  0  0  0
   20.4483   -5.4333  -13.6957 C   0  0  0  0  0  0  0  0  0  0  0  0
   19.7645   -6.7144  -14.1228 C   0  0  0  0  0  0  0  0  0  0  0  0
   18.3522   -6.8231  -13.6581 C   0  0  2  0  0  0  0  0  0  0  0  0
   17.6483   -7.9881  -14.0238 N   0  0  0  0  0  0  0  0  0  0  0  0
   17.6119   -5.6340  -14.1505 C   0  0  0  0  0  0  0  0  0  0  0  0
   17.1618   -5.5530  -15.3255 O   0  0  0  0  0  0  0  0  0  0  0  0
   14.8371   -2.0301  -12.9758 O   0  0  0  0  0  0  0  0  0  0  0  0
   15.5236   -3.1794  -12.6188 C   0  0  0  0  0  0  0  0  0  0  0  0
   16.6587   -3.3555  -13.6228 C   0  0  2  0  0  0  0  0  0  0  0  0
   17.4045   -4.5489  -13.2599 N   0  0  0  0  0  0  0  0  0  0  0  0
   17.5303   -2.1662  -13.5509 C   0  0  0  0  0  0  0  0  0  0  0  0
   18.4865   -2.0967  -12.7512 O   0  0  0  0  0  0  0  0  0  0  0  0
   17.2926   -1.0967  -14.3836 O   0  0  0  0  0  0  0  0  0  0  0  0
  2  1  1  1
  2  3  1  0
  4  3  1  0
  5  4  2  0
  6  2  1  0
  7  6  2  0
  8  4  1  0
  9 10  1  0
 10 11  2  0
 10 12  1  0
 12 13  1  0
 14 13  1  6
 14 15  1  0
 15  6  1  0
 16 14  1  0
 17 16  2  0
 18 19  1  0
 20 19  1  1
 20 21  1  0
 21 16  1  0
 22 20  1  0
 22 24  1  0
 23 22  2  0
M  END
$$$$
