DQS.pdb
     RDKit          3D

 24 23  0  0  1  0  0  0  0  0999 V2000
   18.7047  -13.0683  -16.3309 N   0  0  0  0  0  0  0  0  0  0  0  0
   18.3417  -11.6922  -16.1725 C   0  0  1  0  0  0  0  0  0  0  0  0
   17.5747  -11.5658  -14.8769 C   0  0  0  0  0  0  0  0  0  0  0  0
   16.2555  -12.2374  -14.9603 C   0  0  0  0  0  0  0  0  0  0  0  0
   15.7254  -12.4710  -16.0990 O   0  0  0  0  0  0  0  0  0  0  0  0
   19.5215  -10.7925  -16.1114 C   0  0  0  0  0  0  0  0  0  0  0  0
   20.5255  -11.0388  -15.3962 O   0  0  0  0  0  0  0  0  0  0  0  0
   15.5198  -12.6496  -13.8646 O   0  0  0  0  0  0  0  0  0  0  0  0
   19.9216   -8.5707  -20.5719 N   0  0  0  0  0  0  0  0  0  0  0  0
   20.9404   -9.5272  -20.3284 C   0  0  0  0  0  0  0  0  0  0  0  0
   21.1362  -10.3935  -21.2376 O   0  0  0  0  0  0  0  0  0  0  0  0
   21.7349   -9.5073  -19.0651 C   0  0  0  0  0  0  0  0  0  0  0  0
   21.2304   -8.3391  -18.2453 C   0  0  0  0  0  0  0  0  0  0  0  0
   20.7273   -8.7267  -16.8967 C   0  0  2  0  0  0  0  0  0  0  0  0
   19.6098   -9.5847  -16.8551 N   0  0  0  0  0  0  0  0  0  0  0  0
   20.4135   -7.4844  -16.1468 C   0  0  0  0  0  0  0  0  0  0  0  0
   19.3038   -6.8939  -16.2451 O   0  0  0  0  0  0  0  0  0  0  0  0
   21.6625   -6.8787  -12.5132 O   0  0  0  0  0  0  0  0  0  0  0  0
   22.1014   -5.8076  -13.2748 C   0  0  0  0  0  0  0  0  0  0  0  0
   21.2045   -5.7341  -14.5067 C   0  0  2  0  0  0  0  0  0  0  0  0
   21.4042   -6.9444  -15.2863 N   0  0  0  0  0  0  0  0  0  0  0  0
   21.5945   -4.5481  -15.2944 C   0  0  0  0  0  0  0  0  0  0  0  0
   22.1634   -4.6495  -16.4012 O   0  0  0  0  0  0  0  0  0  0  0  0
   21.3293   -3.2893  -14.8061 O   0  0  0  0  0  0  0  0  0  0  0  0
  2  1  1  1
  2  3  1  0
  4  3  1  0
  5  4  2  0
  6  2  1  0
  7  6  2  0
  8  4  1  0
  9 10  1  0
 10 11  2  0
 10 12  1  0
 12 13  1  0
 14 13  1  6
 14 15  1  0
 15  6  1  0
 16 14  1  0
 17 16  2  0
 18 19  1  0
 20 19  1  1
 20 21  1  0
 21 16  1  0
 22 20  1  0
 22 24  1  0
 23 22  2  0
M  END
$$$$
