DQS.pdb
     RDKit          3D

 24 23  0  0  1  0  0  0  0  0999 V2000
   20.6814  -12.5258  -17.4343 N   0  0  0  0  0  0  0  0  0  0  0  0
   21.2429  -11.5581  -16.5405 C   0  0  1  0  0  0  0  0  0  0  0  0
   22.7062  -11.4085  -16.8862 C   0  0  0  0  0  0  0  0  0  0  0  0
   23.4968  -12.5692  -16.4107 C   0  0  0  0  0  0  0  0  0  0  0  0
   23.0542  -13.7567  -16.5728 O   0  0  0  0  0  0  0  0  0  0  0  0
   20.5932  -10.2279  -16.6556 C   0  0  0  0  0  0  0  0  0  0  0  0
   20.5206   -9.6007  -17.7426 O   0  0  0  0  0  0  0  0  0  0  0  0
   24.7237  -12.4714  -15.7808 O   0  0  0  0  0  0  0  0  0  0  0  0
   15.7842   -9.5915  -14.3749 N   0  0  0  0  0  0  0  0  0  0  0  0
   16.0505   -9.8437  -15.7451 C   0  0  0  0  0  0  0  0  0  0  0  0
   15.3050  -10.6963  -16.3219 O   0  0  0  0  0  0  0  0  0  0  0  0
   17.1529   -9.1377  -16.4622 C   0  0  0  0  0  0  0  0  0  0  0  0
   17.8802   -8.2975  -15.4345 C   0  0  0  0  0  0  0  0  0  0  0  0
   19.3622   -8.3049  -15.5951 C   0  0  2  0  0  0  0  0  0  0  0  0
   20.0025   -9.5596  -15.5491 N   0  0  0  0  0  0  0  0  0  0  0  0
   19.9438   -7.4247  -14.5504 C   0  0  0  0  0  0  0  0  0  0  0  0
   20.4350   -7.8745  -13.4798 O   0  0  0  0  0  0  0  0  0  0  0  0
   22.8970   -4.5559  -13.3063 O   0  0  0  0  0  0  0  0  0  0  0  0
   22.1765   -5.5099  -14.0067 C   0  0  0  0  0  0  0  0  0  0  0  0
   20.7100   -5.0925  -13.9564 C   0  0  2  0  0  0  0  0  0  0  0  0
   19.9453   -6.0228  -14.7702 N   0  0  0  0  0  0  0  0  0  0  0  0
   20.5979   -3.7250  -14.5011 C   0  0  0  0  0  0  0  0  0  0  0  0
   20.5088   -3.5088  -15.7274 O   0  0  0  0  0  0  0  0  0  0  0  0
   20.5904   -2.6492  -13.6431 O   0  0  0  0  0  0  0  0  0  0  0  0
  2  1  1  6
  2  3  1  0
  4  3  1  0
  5  4  2  0
  6  2  1  0
  7  6  2  0
  8  4  1  0
  9 10  1  0
 10 11  2  0
 10 12  1  0
 12 13  1  0
 14 13  1  1
 14 15  1  0
 15  6  1  0
 16 14  1  0
 17 16  2  0
 18 19  1  0
 20 19  1  6
 20 21  1  0
 21 16  1  0
 22 20  1  0
 22 24  1  0
 23 22  2  0
M  END
$$$$
