DQS.pdb
     RDKit          3D

 24 23  0  0  1  0  0  0  0  0999 V2000
   15.6966  -12.2104  -15.2472 N   0  0  0  0  0  0  0  0  0  0  0  0
   16.4514  -11.5198  -14.2451 C   0  0  1  0  0  0  0  0  0  0  0  0
   17.8519  -11.3255  -14.7779 C   0  0  0  0  0  0  0  0  0  0  0  0
   18.5702  -12.6169  -14.8975 C   0  0  0  0  0  0  0  0  0  0  0  0
   17.9895  -13.7069  -14.5705 O   0  0  0  0  0  0  0  0  0  0  0  0
   15.8830  -10.1878  -13.9172 C   0  0  0  0  0  0  0  0  0  0  0  0
   15.2954   -9.4732  -14.7682 O   0  0  0  0  0  0  0  0  0  0  0  0
   19.8695  -12.7472  -15.3521 O   0  0  0  0  0  0  0  0  0  0  0  0
   13.5896   -8.2681   -8.4848 N   0  0  0  0  0  0  0  0  0  0  0  0
   12.9191   -9.0394   -9.4685 C   0  0  0  0  0  0  0  0  0  0  0  0
   11.8546   -9.6287   -9.1011 O   0  0  0  0  0  0  0  0  0  0  0  0
   13.4467   -9.1460  -10.8607 C   0  0  0  0  0  0  0  0  0  0  0  0
   14.7161   -8.3234  -10.9153 C   0  0  0  0  0  0  0  0  0  0  0  0
   15.4076   -8.3761  -12.2349 C   0  0  2  0  0  0  0  0  0  0  0  0
   15.9571   -9.6162  -12.6181 N   0  0  0  0  0  0  0  0  0  0  0  0
   16.4800   -7.3494  -12.2351 C   0  0  0  0  0  0  0  0  0  0  0  0
   17.6436   -7.5828  -11.8092 O   0  0  0  0  0  0  0  0  0  0  0  0
   17.6836   -5.6136  -15.1419 O   0  0  0  0  0  0  0  0  0  0  0  0
   18.2488   -5.5696  -13.8777 C   0  0  0  0  0  0  0  0  0  0  0  0
   17.1856   -5.0255  -12.9283 C   0  0  2  0  0  0  0  0  0  0  0  0
   16.1791   -6.0561  -12.7357 N   0  0  0  0  0  0  0  0  0  0  0  0
   16.5807   -3.8290  -13.5461 C   0  0  0  0  0  0  0  0  0  0  0  0
   15.4322   -3.8486  -14.0353 O   0  0  0  0  0  0  0  0  0  0  0  0
   17.2925   -2.6522  -13.5903 O   0  0  0  0  0  0  0  0  0  0  0  0
  2  1  1  6
  2  3  1  0
  4  3  1  0
  5  4  2  0
  6  2  1  0
  7  6  2  0
  8  4  1  0
  9 10  1  0
 10 11  2  0
 10 12  1  0
 12 13  1  0
 14 13  1  1
 14 15  1  0
 15  6  1  0
 16 14  1  0
 17 16  2  0
 18 19  1  0
 20 19  1  6
 20 21  1  0
 21 16  1  0
 22 20  1  0
 22 24  1  0
 23 22  2  0
M  END
$$$$
