DQS.pdb
     RDKit          3D

 24 23  0  0  1  0  0  0  0  0999 V2000
   21.4739  -12.1900  -16.7360 N   0  0  0  0  0  0  0  0  0  0  0  0
   21.3645  -11.0462  -17.5907 C   0  0  1  0  0  0  0  0  0  0  0  0
   20.5201  -11.4410  -18.7800 C   0  0  0  0  0  0  0  0  0  0  0  0
   21.1578  -12.5285  -19.5603 C   0  0  0  0  0  0  0  0  0  0  0  0
   20.9178  -13.7500  -19.2732 O   0  0  0  0  0  0  0  0  0  0  0  0
   20.7204   -9.8893  -16.9189 C   0  0  0  0  0  0  0  0  0  0  0  0
   20.4617   -8.8151  -17.5183 O   0  0  0  0  0  0  0  0  0  0  0  0
   22.0264  -12.3242  -20.6166 O   0  0  0  0  0  0  0  0  0  0  0  0
   17.2911   -9.8592  -11.6430 N   0  0  0  0  0  0  0  0  0  0  0  0
   17.2127   -8.5117  -12.0790 C   0  0  0  0  0  0  0  0  0  0  0  0
   16.3285   -7.7854  -11.5257 O   0  0  0  0  0  0  0  0  0  0  0  0
   18.1273   -7.9851  -13.1344 C   0  0  0  0  0  0  0  0  0  0  0  0
   18.8823   -9.1711  -13.6954 C   0  0  0  0  0  0  0  0  0  0  0  0
   19.7688   -8.8281  -14.8437 C   0  0  2  0  0  0  0  0  0  0  0  0
   20.3454   -9.9041  -15.5481 N   0  0  0  0  0  0  0  0  0  0  0  0
   20.8491   -7.9409  -14.3435 C   0  0  0  0  0  0  0  0  0  0  0  0
   21.7620   -8.3493  -13.5756 O   0  0  0  0  0  0  0  0  0  0  0  0
   23.3411   -6.2710  -16.1090 O   0  0  0  0  0  0  0  0  0  0  0  0
   22.6074   -5.1907  -15.6460 C   0  0  0  0  0  0  0  0  0  0  0  0
   21.8953   -5.6424  -14.3746 C   0  0  2  0  0  0  0  0  0  0  0  0
   20.8506   -6.5810  -14.7487 N   0  0  0  0  0  0  0  0  0  0  0  0
   21.3068   -4.4543  -13.7254 C   0  0  0  0  0  0  0  0  0  0  0  0
   20.1132   -4.1316  -13.8985 O   0  0  0  0  0  0  0  0  0  0  0  0
   22.0854   -3.6718  -12.9039 O   0  0  0  0  0  0  0  0  0  0  0  0
  2  1  1  1
  2  3  1  0
  4  3  1  0
  5  4  2  0
  6  2  1  0
  7  6  2  0
  8  4  1  0
  9 10  1  0
 10 11  2  0
 10 12  1  0
 12 13  1  0
 14 13  1  1
 14 15  1  0
 15  6  1  0
 16 14  1  0
 17 16  2  0
 18 19  1  0
 20 19  1  6
 20 21  1  0
 21 16  1  0
 22 20  1  0
 22 24  1  0
 23 22  2  0
M  END
$$$$
