DQS.pdb
     RDKit          3D

 24 23  0  0  1  0  0  0  0  0999 V2000
   17.4096  -10.0887  -13.3058 N   0  0  0  0  0  0  0  0  0  0  0  0
   17.8474   -8.8933  -12.6501 C   0  0  1  0  0  0  0  0  0  0  0  0
   18.5455   -8.0346  -13.6789 C   0  0  0  0  0  0  0  0  0  0  0  0
   19.8008   -8.6670  -14.1507 C   0  0  0  0  0  0  0  0  0  0  0  0
   19.8003   -9.3830  -15.2088 O   0  0  0  0  0  0  0  0  0  0  0  0
   16.7240   -8.1144  -12.0703 C   0  0  0  0  0  0  0  0  0  0  0  0
   15.7198   -7.7695  -12.7431 O   0  0  0  0  0  0  0  0  0  0  0  0
   21.0231   -8.5420  -13.5164 O   0  0  0  0  0  0  0  0  0  0  0  0
   13.2309   -9.0509   -7.3695 N   0  0  0  0  0  0  0  0  0  0  0  0
   13.1512   -9.4960   -8.7140 C   0  0  0  0  0  0  0  0  0  0  0  0
   12.3631  -10.4658   -8.9462 O   0  0  0  0  0  0  0  0  0  0  0  0
   13.9567   -8.8507   -9.7921 C   0  0  0  0  0  0  0  0  0  0  0  0
   14.7932   -7.7748   -9.1335 C   0  0  0  0  0  0  0  0  0  0  0  0
   15.6376   -7.0034  -10.0896 C   0  0  2  0  0  0  0  0  0  0  0  0
   16.6942   -7.6983  -10.7117 N   0  0  0  0  0  0  0  0  0  0  0  0
   16.1872   -5.8251   -9.3727 C   0  0  0  0  0  0  0  0  0  0  0  0
   17.1416   -5.9132   -8.5534 O   0  0  0  0  0  0  0  0  0  0  0  0
   16.7320   -1.1270   -9.4540 O   0  0  0  0  0  0  0  0  0  0  0  0
   16.2046   -2.2539  -10.0637 C   0  0  0  0  0  0  0  0  0  0  0  0
   16.0830   -3.3308   -8.9899 C   0  0  2  0  0  0  0  0  0  0  0  0
   15.6131   -4.5518   -9.6230 N   0  0  0  0  0  0  0  0  0  0  0  0
   15.1094   -2.8711   -7.9800 C   0  0  0  0  0  0  0  0  0  0  0  0
   13.9106   -3.2179   -8.0138 O   0  0  0  0  0  0  0  0  0  0  0  0
   15.5224   -2.0361   -6.9671 O   0  0  0  0  0  0  0  0  0  0  0  0
  2  1  1  6
  2  3  1  0
  4  3  1  0
  5  4  2  0
  6  2  1  0
  7  6  2  0
  8  4  1  0
  9 10  1  0
 10 11  2  0
 10 12  1  0
 12 13  1  0
 14 13  1  1
 14 15  1  0
 15  6  1  0
 16 14  1  0
 17 16  2  0
 18 19  1  0
 20 19  1  6
 20 21  1  0
 21 16  1  0
 22 20  1  0
 22 24  1  0
 23 22  2  0
M  END
$$$$
