DLT.pdb
     RDKit          3D

 24 23  0  0  1  0  0  0  0  0999 V2000
   21.1319   -8.5304  -13.6637 N   0  0  0  0  0  0  0  0  0  0  0  0
   21.2033   -9.0975  -14.9712 C   0  0  1  0  0  0  0  0  0  0  0  0
   20.1214   -8.5915  -15.8982 C   0  0  0  0  0  0  0  0  0  0  0  0
   18.7799   -9.0029  -15.4077 C   0  0  0  0  0  0  0  0  0  0  0  0
   17.8585   -8.1645  -15.3310 O   0  0  0  0  0  0  0  0  0  0  0  0
   22.5072   -8.7631  -15.5780 C   0  0  0  0  0  0  0  0  0  0  0  0
   23.0422   -7.6634  -15.3972 O   0  0  0  0  0  0  0  0  0  0  0  0
   18.4840  -10.3065  -15.0178 O   0  0  0  0  0  0  0  0  0  0  0  0
   26.9530   -9.8268  -15.0503 C   0  0  0  0  0  0  0  0  0  0  0  0
   26.0190  -10.8795  -15.5747 C   0  0  2  0  0  0  0  0  0  0  0  0
   26.7997  -12.1942  -15.7641 C   0  0  0  0  0  0  0  0  0  0  0  0
   25.3655  -10.5928  -16.8691 C   0  0  0  0  0  0  0  0  0  0  0  0
   24.4384   -9.4317  -16.9576 C   0  0  2  0  0  0  0  0  0  0  0  0
   23.1557   -9.7311  -16.3861 N   0  0  0  0  0  0  0  0  0  0  0  0
   24.2785   -8.8974  -18.3105 C   0  0  0  0  0  0  0  0  0  0  0  0
   23.7553   -9.5854  -19.2062 O   0  0  0  0  0  0  0  0  0  0  0  0
   23.8893   -4.8844  -21.0195 C   0  0  0  0  0  0  0  0  0  0  0  0
   23.9899   -5.5942  -19.6863 C   0  0  1  0  0  0  0  0  0  0  0  0
   22.6913   -5.7649  -19.2100 O   0  0  0  0  0  0  0  0  0  0  0  0
   24.5601   -6.9841  -19.9203 C   0  0  2  0  0  0  0  0  0  0  0  0
   24.7199   -7.5913  -18.6061 N   0  0  0  0  0  0  0  0  0  0  0  0
   25.8469   -6.9445  -20.6498 C   0  0  0  0  0  0  0  0  0  0  0  0
   27.0646   -6.6626  -20.0737 O   0  0  0  0  0  0  0  0  0  0  0  0
   25.8142   -7.1873  -21.8841 O   0  0  0  0  0  0  0  0  0  0  0  0
  2  1  1  1
  2  3  1  0
  3  4  1  0
  4  8  1  0
  5  4  2  0
  6 14  1  0
  6  2  1  0
  7  6  2  0
 10  9  1  6
 10 12  1  0
 11 10  1  0
 13 12  1  6
 13 14  1  0
 15 16  2  0
 15 13  1  0
 18 17  1  6
 19 18  1  0
 20 18  1  0
 20 21  1  1
 21 15  1  0
 22 20  1  0
 23 22  1  0
 24 22  2  0
M  END
$$$$
