DLT.pdb
     RDKit          3D

 24 23  0  0  1  0  0  0  0  0999 V2000
   20.4318  -28.5530    0.3316 N   0  0  0  0  0  0  0  0  0  0  0  0
   20.5080  -29.8446   -0.2702 C   0  0  1  0  0  0  0  0  0  0  0  0
   20.0484  -29.8572   -1.7105 C   0  0  0  0  0  0  0  0  0  0  0  0
   18.6243  -29.4429   -1.8071 C   0  0  0  0  0  0  0  0  0  0  0  0
   17.7816  -29.9132   -1.0155 O   0  0  0  0  0  0  0  0  0  0  0  0
   21.9073  -30.3151   -0.2410 C   0  0  0  0  0  0  0  0  0  0  0  0
   22.7710  -29.8226   -0.9756 O   0  0  0  0  0  0  0  0  0  0  0  0
   18.1633  -28.5346   -2.7566 O   0  0  0  0  0  0  0  0  0  0  0  0
   24.8728  -29.8362    2.9696 C   0  0  0  0  0  0  0  0  0  0  0  0
   23.9422  -30.9982    3.1671 C   0  0  2  0  0  0  0  0  0  0  0  0
   24.2406  -31.6549    4.5286 C   0  0  0  0  0  0  0  0  0  0  0  0
   24.0144  -32.0771    2.1594 C   0  0  0  0  0  0  0  0  0  0  0  0
   23.6344  -31.7665    0.7543 C   0  0  2  0  0  0  0  0  0  0  0  0
   22.2619  -31.3568    0.6531 N   0  0  0  0  0  0  0  0  0  0  0  0
   23.9118  -32.8476   -0.1920 C   0  0  0  0  0  0  0  0  0  0  0  0
   23.0821  -33.7568   -0.3770 O   0  0  0  0  0  0  0  0  0  0  0  0
   25.0834  -32.1860   -3.6504 C   0  0  0  0  0  0  0  0  0  0  0  0
   26.0943  -33.1489   -3.0652 C   0  0  1  0  0  0  0  0  0  0  0  0
   27.1352  -32.3861   -2.5390 O   0  0  0  0  0  0  0  0  0  0  0  0
   25.4480  -33.8780   -1.8979 C   0  0  2  0  0  0  0  0  0  0  0  0
   25.1293  -32.8631   -0.9030 N   0  0  0  0  0  0  0  0  0  0  0  0
   26.3322  -34.9207   -1.3319 C   0  0  0  0  0  0  0  0  0  0  0  0
   26.7051  -36.0714   -1.9886 O   0  0  0  0  0  0  0  0  0  0  0  0
   26.7688  -34.7321   -0.1669 O   0  0  0  0  0  0  0  0  0  0  0  0
  2  1  1  6
  2  3  1  0
  3  4  1  0
  4  8  1  0
  5  4  2  0
  6 14  1  0
  6  2  1  0
  7  6  2  0
 10  9  1  6
 10 12  1  0
 11 10  1  0
 13 12  1  1
 13 14  1  0
 15 16  2  0
 15 13  1  0
 18 17  1  1
 19 18  1  0
 20 18  1  0
 20 21  1  1
 21 15  1  0
 22 20  1  0
 23 22  1  0
 24 22  2  0
M  END
$$$$
