DLT.pdb
     RDKit          3D

 24 23  0  0  1  0  0  0  0  0999 V2000
   22.8331  -22.4365  -13.2752 N   0  0  0  0  0  0  0  0  0  0  0  0
   22.5496  -21.0391  -13.3322 C   0  0  1  0  0  0  0  0  0  0  0  0
   21.4529  -20.6160  -12.3813 C   0  0  0  0  0  0  0  0  0  0  0  0
   20.1465  -21.1832  -12.8067 C   0  0  0  0  0  0  0  0  0  0  0  0
   19.1118  -20.9236  -12.1586 O   0  0  0  0  0  0  0  0  0  0  0  0
   23.7661  -20.2793  -12.9813 C   0  0  0  0  0  0  0  0  0  0  0  0
   23.7647  -19.0442  -12.9275 O   0  0  0  0  0  0  0  0  0  0  0  0
   20.0067  -22.0107  -13.9178 O   0  0  0  0  0  0  0  0  0  0  0  0
   25.6379  -19.5018   -9.3709 C   0  0  0  0  0  0  0  0  0  0  0  0
   26.0916  -20.8305   -9.9039 C   0  0  2  0  0  0  0  0  0  0  0  0
   27.0219  -21.4949   -8.8710 C   0  0  0  0  0  0  0  0  0  0  0  0
   26.8358  -20.8073  -11.1807 C   0  0  0  0  0  0  0  0  0  0  0  0
   26.1598  -20.2631  -12.3899 C   0  0  2  0  0  0  0  0  0  0  0  0
   24.9608  -20.9894  -12.7007 N   0  0  0  0  0  0  0  0  0  0  0  0
   27.0221  -20.1797  -13.5692 C   0  0  0  0  0  0  0  0  0  0  0  0
   28.1161  -19.5887  -13.5143 O   0  0  0  0  0  0  0  0  0  0  0  0
   28.6601  -22.0772  -17.6015 C   0  0  0  0  0  0  0  0  0  0  0  0
   27.7763  -22.1152  -16.3731 C   0  0  1  0  0  0  0  0  0  0  0  0
   28.5473  -22.6136  -15.3246 O   0  0  0  0  0  0  0  0  0  0  0  0
   27.3994  -20.6891  -16.0043 C   0  0  2  0  0  0  0  0  0  0  0  0
   26.6132  -20.7733  -14.7812 N   0  0  0  0  0  0  0  0  0  0  0  0
   26.6403  -20.0156  -17.0812 C   0  0  0  0  0  0  0  0  0  0  0  0
   27.1941  -19.5334  -18.2452 O   0  0  0  0  0  0  0  0  0  0  0  0
   25.4011  -19.8793  -16.9104 O   0  0  0  0  0  0  0  0  0  0  0  0
  2  1  1  1
  2  3  1  0
  3  4  1  0
  4  8  1  0
  5  4  2  0
  6 14  1  0
  6  2  1  0
  7  6  2  0
 10  9  1  1
 10 12  1  0
 11 10  1  0
 13 12  1  1
 13 14  1  0
 15 16  2  0
 15 13  1  0
 18 17  1  6
 19 18  1  0
 20 18  1  0
 20 21  1  1
 21 15  1  0
 22 20  1  0
 23 22  1  0
 24 22  2  0
M  END
$$$$
