DLT.pdb
     RDKit          3D

 24 23  0  0  1  0  0  0  0  0999 V2000
   21.5313  -12.6981  -18.9146 N   0  0  0  0  0  0  0  0  0  0  0  0
   22.0590  -11.4090  -19.2244 C   0  0  1  0  0  0  0  0  0  0  0  0
   21.2600  -10.6777  -20.2792 C   0  0  0  0  0  0  0  0  0  0  0  0
   21.4467  -11.3143  -21.6093 C   0  0  0  0  0  0  0  0  0  0  0  0
   20.4683  -11.8029  -22.2110 O   0  0  0  0  0  0  0  0  0  0  0  0
   22.0612  -10.5763  -18.0050 C   0  0  0  0  0  0  0  0  0  0  0  0
   21.1356  -10.6242  -17.1870 O   0  0  0  0  0  0  0  0  0  0  0  0
   22.6850  -11.3992  -22.2404 O   0  0  0  0  0  0  0  0  0  0  0  0
   24.4732  -10.7400  -14.2723 C   0  0  0  0  0  0  0  0  0  0  0  0
   25.1476  -10.1281  -15.4664 C   0  0  2  0  0  0  0  0  0  0  0  0
   26.6101   -9.8039  -15.1060 C   0  0  0  0  0  0  0  0  0  0  0  0
   24.5585   -8.8752  -15.9839 C   0  0  0  0  0  0  0  0  0  0  0  0
   23.1913   -8.9196  -16.5704 C   0  0  2  0  0  0  0  0  0  0  0  0
   23.1540   -9.7032  -17.7730 N   0  0  0  0  0  0  0  0  0  0  0  0
   22.5994   -7.6020  -16.8054 C   0  0  0  0  0  0  0  0  0  0  0  0
   23.2095   -6.7416  -17.4663 O   0  0  0  0  0  0  0  0  0  0  0  0
   20.1757   -6.4765  -18.7779 C   0  0  0  0  0  0  0  0  0  0  0  0
   19.5752   -6.1564  -17.4257 C   0  0  1  0  0  0  0  0  0  0  0  0
   18.8396   -7.2706  -17.0260 O   0  0  0  0  0  0  0  0  0  0  0  0
   20.7051   -5.9908  -16.4219 C   0  0  2  0  0  0  0  0  0  0  0  0
   21.3262   -7.3005  -16.2799 N   0  0  0  0  0  0  0  0  0  0  0  0
   20.2238   -5.4843  -15.1176 C   0  0  0  0  0  0  0  0  0  0  0  0
   19.7688   -4.2047  -14.8946 O   0  0  0  0  0  0  0  0  0  0  0  0
   20.2357   -6.2889  -14.1501 O   0  0  0  0  0  0  0  0  0  0  0  0
  2  1  1  1
  2  3  1  0
  3  4  1  0
  4  8  1  0
  5  4  2  0
  6 14  1  0
  6  2  1  0
  7  6  2  0
 10  9  1  1
 10 12  1  0
 11 10  1  0
 13 12  1  6
 13 14  1  0
 15 16  2  0
 15 13  1  0
 18 17  1  6
 19 18  1  0
 20 18  1  0
 20 21  1  1
 21 15  1  0
 22 20  1  0
 23 22  1  0
 24 22  2  0
M  END
$$$$
