DLT.pdb
     RDKit          3D

 24 23  0  0  1  0  0  0  0  0999 V2000
   20.8136  -12.3598  -17.8419 N   0  0  0  0  0  0  0  0  0  0  0  0
   21.4834  -11.2207  -18.3804 C   0  0  1  0  0  0  0  0  0  0  0  0
   20.5958  -10.3709  -19.2612 C   0  0  0  0  0  0  0  0  0  0  0  0
   20.1998  -11.1215  -20.4815 C   0  0  0  0  0  0  0  0  0  0  0  0
   18.9931  -11.3298  -20.7229 O   0  0  0  0  0  0  0  0  0  0  0  0
   21.9656  -10.3696  -17.2743 C   0  0  0  0  0  0  0  0  0  0  0  0
   21.2288  -10.0510  -16.3343 O   0  0  0  0  0  0  0  0  0  0  0  0
   21.1238  -11.6197  -21.3964 O   0  0  0  0  0  0  0  0  0  0  0  0
   24.9980  -11.1490  -14.1011 C   0  0  0  0  0  0  0  0  0  0  0  0
   25.5898  -10.7436  -15.4205 C   0  0  2  0  0  0  0  0  0  0  0  0
   27.1264  -10.7681  -15.3106 C   0  0  0  0  0  0  0  0  0  0  0  0
   25.2290   -9.3993  -15.9177 C   0  0  0  0  0  0  0  0  0  0  0  0
   23.7994   -9.1085  -16.2128 C   0  0  2  0  0  0  0  0  0  0  0  0
   23.3069   -9.9103  -17.2973 N   0  0  0  0  0  0  0  0  0  0  0  0
   23.5164   -7.6941  -16.4588 C   0  0  0  0  0  0  0  0  0  0  0  0
   24.0742   -7.0889  -17.3926 O   0  0  0  0  0  0  0  0  0  0  0  0
   20.6875   -6.1963  -17.5743 C   0  0  0  0  0  0  0  0  0  0  0  0
   20.8336   -5.5228  -16.2265 C   0  0  1  0  0  0  0  0  0  0  0  0
   20.1102   -6.2790  -15.3061 O   0  0  0  0  0  0  0  0  0  0  0  0
   22.2930   -5.5944  -15.8060 C   0  0  2  0  0  0  0  0  0  0  0  0
   22.6037   -7.0067  -15.6325 N   0  0  0  0  0  0  0  0  0  0  0  0
   22.5543   -4.8342  -14.5637 C   0  0  0  0  0  0  0  0  0  0  0  0
   22.8839   -5.4014  -13.3538 O   0  0  0  0  0  0  0  0  0  0  0  0
   22.4662   -3.5806  -14.6291 O   0  0  0  0  0  0  0  0  0  0  0  0
  2  1  1  1
  2  3  1  0
  3  4  1  0
  4  8  1  0
  5  4  2  0
  6 14  1  0
  6  2  1  0
  7  6  2  0
 10  9  1  1
 10 12  1  0
 11 10  1  0
 13 12  1  6
 13 14  1  0
 15 16  2  0
 15 13  1  0
 18 17  1  6
 19 18  1  0
 20 18  1  0
 20 21  1  1
 21 15  1  0
 22 20  1  0
 23 22  1  0
 24 22  2  0
M  END
$$$$
