DLT.pdb
     RDKit          3D

 24 23  0  0  1  0  0  0  0  0999 V2000
   19.7885  -21.1201  -10.6979 N   0  0  0  0  0  0  0  0  0  0  0  0
   20.0998  -21.3305  -12.0746 C   0  0  1  0  0  0  0  0  0  0  0  0
   18.9938  -20.8922  -13.0076 C   0  0  0  0  0  0  0  0  0  0  0  0
   17.7575  -21.6783  -12.7565 C   0  0  0  0  0  0  0  0  0  0  0  0
   17.8361  -22.8862  -12.4523 O   0  0  0  0  0  0  0  0  0  0  0  0
   21.3123  -20.5637  -12.4238 C   0  0  0  0  0  0  0  0  0  0  0  0
   21.3929  -19.3484  -12.2119 O   0  0  0  0  0  0  0  0  0  0  0  0
   16.4810  -21.1290  -12.8436 O   0  0  0  0  0  0  0  0  0  0  0  0
   25.1028  -20.1471  -10.6289 C   0  0  0  0  0  0  0  0  0  0  0  0
   25.0115  -21.3813  -11.4796 C   0  0  2  0  0  0  0  0  0  0  0  0
   26.3104  -22.1954  -11.3245 C   0  0  0  0  0  0  0  0  0  0  0  0
   24.8244  -21.1677  -12.9301 C   0  0  0  0  0  0  0  0  0  0  0  0
   23.5768  -20.5043  -13.3977 C   0  0  2  0  0  0  0  0  0  0  0  0
   22.4066  -21.2436  -13.0160 N   0  0  0  0  0  0  0  0  0  0  0  0
   23.5526  -20.2225  -14.8334 C   0  0  0  0  0  0  0  0  0  0  0  0
   23.1319  -21.0727  -15.6394 O   0  0  0  0  0  0  0  0  0  0  0  0
   23.7986  -16.7512  -18.2869 C   0  0  0  0  0  0  0  0  0  0  0  0
   23.7329  -17.1589  -16.8305 C   0  0  1  0  0  0  0  0  0  0  0  0
   22.4130  -16.9946  -16.4145 O   0  0  0  0  0  0  0  0  0  0  0  0
   24.0455  -18.6435  -16.7295 C   0  0  2  0  0  0  0  0  0  0  0  0
   24.0092  -18.9773  -15.3123 N   0  0  0  0  0  0  0  0  0  0  0  0
   25.3585  -18.9795  -17.3233 C   0  0  0  0  0  0  0  0  0  0  0  0
   25.5480  -19.3854  -18.6246 O   0  0  0  0  0  0  0  0  0  0  0  0
   26.3669  -18.8841  -16.5767 O   0  0  0  0  0  0  0  0  0  0  0  0
  2  1  1  1
  2  3  1  0
  3  4  1  0
  4  8  1  0
  5  4  2  0
  6 14  1  0
  6  2  1  0
  7  6  2  0
 10  9  1  1
 10 12  1  0
 11 10  1  0
 13 12  1  6
 13 14  1  0
 15 16  2  0
 15 13  1  0
 18 17  1  6
 19 18  1  0
 20 18  1  0
 20 21  1  1
 21 15  1  0
 22 20  1  0
 23 22  1  0
 24 22  2  0
M  END
$$$$
