DLT.pdb
     RDKit          3D

 24 23  0  0  1  0  0  0  0  0999 V2000
   22.0974  -13.1819  -18.2551 N   0  0  0  0  0  0  0  0  0  0  0  0
   22.0012  -11.7745  -18.4701 C   0  0  1  0  0  0  0  0  0  0  0  0
   20.5984  -11.3187  -18.8022 C   0  0  0  0  0  0  0  0  0  0  0  0
   20.1064  -11.9975  -20.0296 C   0  0  0  0  0  0  0  0  0  0  0  0
   19.0126  -12.5985  -20.0155 O   0  0  0  0  0  0  0  0  0  0  0  0
   22.4269  -11.0636  -17.2479 C   0  0  0  0  0  0  0  0  0  0  0  0
   21.9405  -11.3282  -16.1427 O   0  0  0  0  0  0  0  0  0  0  0  0
   20.8157  -12.0015  -21.2279 O   0  0  0  0  0  0  0  0  0  0  0  0
   25.9779  -11.3720  -14.8183 C   0  0  0  0  0  0  0  0  0  0  0  0
   26.1531  -10.5422  -16.0576 C   0  0  2  0  0  0  0  0  0  0  0  0
   27.6323  -10.1286  -16.1802 C   0  0  0  0  0  0  0  0  0  0  0  0
   25.3643   -9.2944  -16.1304 C   0  0  0  0  0  0  0  0  0  0  0  0
   23.8794   -9.3910  -16.1650 C   0  0  2  0  0  0  0  0  0  0  0  0
   23.4175  -10.0544  -17.3517 N   0  0  0  0  0  0  0  0  0  0  0  0
   23.1938   -8.1086  -16.0017 C   0  0  0  0  0  0  0  0  0  0  0  0
   23.3584   -7.4281  -14.9726 O   0  0  0  0  0  0  0  0  0  0  0  0
   20.9129   -6.6611  -19.2511 C   0  0  0  0  0  0  0  0  0  0  0  0
   21.5898   -5.7410  -18.2577 C   0  0  1  0  0  0  0  0  0  0  0  0
   20.8083   -4.5912  -18.1604 O   0  0  0  0  0  0  0  0  0  0  0  0
   21.5683   -6.4058  -16.8905 C   0  0  2  0  0  0  0  0  0  0  0  0
   22.3378   -7.6358  -17.0176 N   0  0  0  0  0  0  0  0  0  0  0  0
   20.1912   -6.6835  -16.4260 C   0  0  0  0  0  0  0  0  0  0  0  0
   19.2777   -5.7195  -16.0650 O   0  0  0  0  0  0  0  0  0  0  0  0
   19.8406   -7.8903  -16.3601 O   0  0  0  0  0  0  0  0  0  0  0  0
  2  1  1  1
  2  3  1  0
  3  4  1  0
  4  8  1  0
  5  4  2  0
  6 14  1  0
  6  2  1  0
  7  6  2  0
 10  9  1  1
 10 12  1  0
 11 10  1  0
 13 12  1  6
 13 14  1  0
 15 16  2  0
 15 13  1  0
 18 17  1  6
 19 18  1  0
 20 18  1  0
 20 21  1  6
 21 15  1  0
 22 20  1  0
 23 22  1  0
 24 22  2  0
M  END
$$$$
