DLT.pdb
     RDKit          3D

 24 23  0  0  1  0  0  0  0  0999 V2000
   27.0017  -22.7884  -16.7951 N   0  0  0  0  0  0  0  0  0  0  0  0
   27.1041  -21.6139  -15.9910 C   0  0  1  0  0  0  0  0  0  0  0  0
   26.8052  -20.3434  -16.7541 C   0  0  0  0  0  0  0  0  0  0  0  0
   27.9129  -20.0264  -17.6932 C   0  0  0  0  0  0  0  0  0  0  0  0
   27.8491  -20.3980  -18.8830 O   0  0  0  0  0  0  0  0  0  0  0  0
   26.1441  -21.7026  -14.8726 C   0  0  0  0  0  0  0  0  0  0  0  0
   25.1232  -22.3954  -14.9495 O   0  0  0  0  0  0  0  0  0  0  0  0
   29.0496  -19.3187  -17.3110 O   0  0  0  0  0  0  0  0  0  0  0  0
   25.8406  -19.9500   -8.8801 C   0  0  0  0  0  0  0  0  0  0  0  0
   25.2287  -20.5653  -10.1058 C   0  0  2  0  0  0  0  0  0  0  0  0
   24.8470  -22.0258   -9.7975 C   0  0  0  0  0  0  0  0  0  0  0  0
   26.0765  -20.6028  -11.3159 C   0  0  0  0  0  0  0  0  0  0  0  0
   25.4591  -21.0140  -12.6062 C   0  0  2  0  0  0  0  0  0  0  0  0
   26.4055  -20.9730  -13.6852 N   0  0  0  0  0  0  0  0  0  0  0  0
   24.2553  -20.2604  -12.9589 C   0  0  0  0  0  0  0  0  0  0  0  0
   24.2971  -19.0231  -13.0884 O   0  0  0  0  0  0  0  0  0  0  0  0
   22.5773  -19.8730  -15.7259 C   0  0  0  0  0  0  0  0  0  0  0  0
   21.4680  -20.4796  -14.8934 C   0  0  1  0  0  0  0  0  0  0  0  0
   21.5030  -21.8575  -15.0994 O   0  0  0  0  0  0  0  0  0  0  0  0
   21.7825  -20.2452  -13.4244 C   0  0  2  0  0  0  0  0  0  0  0  0
   23.0347  -20.9386  -13.1548 N   0  0  0  0  0  0  0  0  0  0  0  0
   20.7022  -20.7307  -12.5375 C   0  0  0  0  0  0  0  0  0  0  0  0
   20.7637  -21.8834  -11.7879 O   0  0  0  0  0  0  0  0  0  0  0  0
   19.6574  -20.0326  -12.4712 O   0  0  0  0  0  0  0  0  0  0  0  0
  2  1  1  6
  2  3  1  0
  3  4  1  0
  4  8  1  0
  5  4  2  0
  6 14  1  0
  6  2  1  0
  7  6  2  0
 10  9  1  1
 10 12  1  0
 11 10  1  0
 13 12  1  1
 13 14  1  0
 15 16  2  0
 15 13  1  0
 18 17  1  6
 19 18  1  0
 20 18  1  0
 20 21  1  1
 21 15  1  0
 22 20  1  0
 23 22  1  0
 24 22  2  0
M  END
$$$$
