PHL.pdb
     RDKit          3D

 26 27  0  0  1  0  0  0  0  0999 V2000
    9.0295  -14.8027   18.9192 N   0  0  0  0  0  0  0  0  0  0  0  0
    7.8324  -14.8338   18.1119 C   0  0  0  0  0  0  0  0  0  0  0  0
    7.0488  -13.5841   18.4273 C   0  0  0  0  0  0  0  0  0  0  0  0
    7.9563  -12.7859   19.3326 C   0  0  0  0  0  0  0  0  0  0  0  0
    8.8072  -13.8322   19.9735 C   0  0  1  0  0  0  0  0  0  0  0  0
    8.1517  -14.4936   21.1321 C   0  0  0  0  0  0  0  0  0  0  0  0
    7.3608  -13.8459   21.8470 O   0  0  0  0  0  0  0  0  0  0  0  0
    8.3825  -15.8477   21.4741 N   0  0  0  0  0  0  0  0  0  0  0  0
    7.8880  -16.4507   22.7043 C   0  0  1  0  0  0  0  0  0  0  0  0
    8.2245  -17.9435   22.6516 C   0  0  0  0  0  0  0  0  0  0  0  0
    7.6239  -18.6571   23.8071 C   0  0  0  0  0  0  0  0  0  0  0  0
    6.8453  -18.1344   24.8183 C   0  0  0  0  0  0  0  0  0  0  0  0
    6.4892  -19.0903   25.6826 N   0  0  0  0  0  0  0  0  0  0  0  0
    7.0471  -20.2278   25.2145 C   0  0  0  0  0  0  0  0  0  0  0  0
    7.7336  -19.9693   24.0809 N   0  0  0  0  0  0  0  0  0  0  0  0
    8.4968  -15.8508   23.8985 C   0  0  0  0  0  0  0  0  0  0  0  0
    9.7426  -15.7103   23.9640 O   0  0  0  0  0  0  0  0  0  0  0  0
    8.1123  -11.7354   25.2508 C   0  0  0  0  0  0  0  0  0  0  0  0
    7.0533  -12.6151   25.8174 C   0  0  2  0  0  0  0  0  0  0  0  0
    6.0833  -11.7396   26.6289 C   0  0  0  0  0  0  0  0  0  0  0  0
    7.5399  -13.6626   26.7361 C   0  0  0  0  0  0  0  0  0  0  0  0
    8.2731  -14.8183   26.1647 C   0  0  2  0  0  0  0  0  0  0  0  0
    7.6969  -15.4217   24.9925 N   0  0  0  0  0  0  0  0  0  0  0  0
    8.6717  -15.8263   27.1819 C   0  0  0  0  0  0  0  0  0  0  0  0
    8.3880  -17.1806   27.0402 O   0  0  0  0  0  0  0  0  0  0  0  0
    9.2893  -15.4947   28.2257 O   0  0  0  0  0  0  0  0  0  0  0  0
  1  2  1  0
  3  2  1  0
  4  5  1  0
  4  3  1  0
  5  1  1  0
  5  6  1  1
  6  8  1  0
  7  6  2  0
  9  8  1  0
 10 11  1  0
  9 10  1  6
 11 12  2  0
 13 12  1  0
 14 13  1  0
 15 14  2  0
 15 11  1  0
 16  9  1  0
 17 16  2  0
 19 18  1  1
 19 21  1  0
 20 19  1  0
 22 21  1  1
 22 24  1  0
 22 23  1  0
 23 16  1  0
 24 25  1  0
 26 24  2  0
M  END
$$$$
