PHL.pdb
     RDKit          3D

 26 27  0  0  1  0  0  0  0  0999 V2000
    8.8037  -14.8229   17.9988 N   0  0  0  0  0  0  0  0  0  0  0  0
    7.4877  -14.3767   17.6053 C   0  0  0  0  0  0  0  0  0  0  0  0
    7.2133  -13.0903   18.3437 C   0  0  0  0  0  0  0  0  0  0  0  0
    8.5133  -12.7691   19.0418 C   0  0  0  0  0  0  0  0  0  0  0  0
    9.1507  -14.1086   19.2121 C   0  0  1  0  0  0  0  0  0  0  0  0
    8.6435  -14.8542   20.3938 C   0  0  0  0  0  0  0  0  0  0  0  0
    7.5076  -14.6013   20.8430 O   0  0  0  0  0  0  0  0  0  0  0  0
    9.3973  -15.8568   21.0499 N   0  0  0  0  0  0  0  0  0  0  0  0
    8.9737  -16.4798   22.2964 C   0  0  1  0  0  0  0  0  0  0  0  0
    9.7785  -17.7721   22.4607 C   0  0  0  0  0  0  0  0  0  0  0  0
    9.4538  -18.7331   21.3763 C   0  0  0  0  0  0  0  0  0  0  0  0
    8.2617  -19.3883   21.1492 C   0  0  0  0  0  0  0  0  0  0  0  0
    8.3530  -20.1756   20.0724 N   0  0  0  0  0  0  0  0  0  0  0  0
    9.6137  -20.0174   19.6140 C   0  0  0  0  0  0  0  0  0  0  0  0
   10.2816  -19.1460   20.4001 N   0  0  0  0  0  0  0  0  0  0  0  0
    9.2007  -15.6079   23.4561 C   0  0  0  0  0  0  0  0  0  0  0  0
   10.2912  -14.9981   23.5784 O   0  0  0  0  0  0  0  0  0  0  0  0
    7.2399  -12.8527   27.9614 C   0  0  0  0  0  0  0  0  0  0  0  0
    7.3315  -12.3607   26.5592 C   0  0  2  0  0  0  0  0  0  0  0  0
    6.1500  -11.4093   26.3046 C   0  0  0  0  0  0  0  0  0  0  0  0
    7.2540  -13.4104   25.5249 C   0  0  0  0  0  0  0  0  0  0  0  0
    8.3183  -14.4425   25.4848 C   0  0  2  0  0  0  0  0  0  0  0  0
    8.2013  -15.4383   24.4528 N   0  0  0  0  0  0  0  0  0  0  0  0
    8.6142  -15.0379   26.8143 C   0  0  0  0  0  0  0  0  0  0  0  0
    9.6753  -14.6079   27.6040 O   0  0  0  0  0  0  0  0  0  0  0  0
    7.9103  -15.9660   27.2876 O   0  0  0  0  0  0  0  0  0  0  0  0
  1  2  1  0
  3  2  1  0
  4  5  1  0
  4  3  1  0
  5  1  1  0
  5  6  1  1
  6  8  1  0
  7  6  2  0
  9  8  1  0
 10 11  1  0
  9 10  1  1
 11 12  2  0
 13 12  1  0
 14 13  1  0
 15 14  2  0
 15 11  1  0
 16  9  1  0
 17 16  2  0
 19 18  1  1
 19 21  1  0
 20 19  1  0
 22 21  1  1
 22 24  1  0
 22 23  1  0
 23 16  1  0
 24 25  1  0
 26 24  2  0
M  END
$$$$
