PHL.pdb
     RDKit          3D

 26 27  0  0  1  0  0  0  0  0999 V2000
    9.2559  -14.9065   18.8869 N   0  0  0  0  0  0  0  0  0  0  0  0
    8.0819  -15.1300   18.0760 C   0  0  0  0  0  0  0  0  0  0  0  0
    7.1877  -13.9269   18.2442 C   0  0  0  0  0  0  0  0  0  0  0  0
    8.0054  -12.9586   19.0652 C   0  0  0  0  0  0  0  0  0  0  0  0
    8.9305  -13.8504   19.8257 C   0  0  1  0  0  0  0  0  0  0  0  0
    8.3119  -14.4368   21.0434 C   0  0  0  0  0  0  0  0  0  0  0  0
    7.6428  -13.7117   21.8069 O   0  0  0  0  0  0  0  0  0  0  0  0
    8.4447  -15.8029   21.3897 N   0  0  0  0  0  0  0  0  0  0  0  0
    7.8649  -16.3754   22.5969 C   0  0  1  0  0  0  0  0  0  0  0  0
    8.1026  -17.8873   22.5482 C   0  0  0  0  0  0  0  0  0  0  0  0
    7.4540  -18.5572   23.7040 C   0  0  0  0  0  0  0  0  0  0  0  0
    6.5845  -18.0116   24.6251 C   0  0  0  0  0  0  0  0  0  0  0  0
    6.2106  -18.9291   25.5229 N   0  0  0  0  0  0  0  0  0  0  0  0
    6.8489  -20.0651   25.1670 C   0  0  0  0  0  0  0  0  0  0  0  0
    7.6012  -19.8435   24.0679 N   0  0  0  0  0  0  0  0  0  0  0  0
    8.4669  -15.8217   23.8166 C   0  0  0  0  0  0  0  0  0  0  0  0
    9.7157  -15.7460   23.9210 O   0  0  0  0  0  0  0  0  0  0  0  0
    8.0338  -11.7494   25.2305 C   0  0  0  0  0  0  0  0  0  0  0  0
    6.9889  -12.6202   25.8359 C   0  0  2  0  0  0  0  0  0  0  0  0
    6.0741  -11.7411   26.7055 C   0  0  0  0  0  0  0  0  0  0  0  0
    7.5019  -13.6886   26.7153 C   0  0  0  0  0  0  0  0  0  0  0  0
    8.2278  -14.8246   26.0971 C   0  0  2  0  0  0  0  0  0  0  0  0
    7.6570  -15.3652   24.8921 N   0  0  0  0  0  0  0  0  0  0  0  0
    8.6044  -15.8842   27.0693 C   0  0  0  0  0  0  0  0  0  0  0  0
    9.5147  -15.6629   28.0975 O   0  0  0  0  0  0  0  0  0  0  0  0
    8.1110  -17.0387   27.0036 O   0  0  0  0  0  0  0  0  0  0  0  0
  1  2  1  0
  3  2  1  0
  4  5  1  0
  4  3  1  0
  5  1  1  0
  5  6  1  1
  6  8  1  0
  7  6  2  0
  9  8  1  0
 10 11  1  0
  9 10  1  6
 11 12  2  0
 13 12  1  0
 14 13  1  0
 15 14  2  0
 15 11  1  0
 16  9  1  0
 17 16  2  0
 19 18  1  1
 19 21  1  0
 20 19  1  0
 22 21  1  1
 22 24  1  0
 22 23  1  0
 23 16  1  0
 24 25  1  0
 26 24  2  0
M  END
$$$$
