PHL.pdb
     RDKit          3D

 26 27  0  0  1  0  0  0  0  0999 V2000
    8.1961  -13.0864   20.0742 N   0  0  0  0  0  0  0  0  0  0  0  0
    8.2716  -13.6706   18.7555 C   0  0  0  0  0  0  0  0  0  0  0  0
    7.0336  -14.5120   18.5687 C   0  0  0  0  0  0  0  0  0  0  0  0
    6.1959  -14.2312   19.7933 C   0  0  0  0  0  0  0  0  0  0  0  0
    7.2088  -13.8430   20.8194 C   0  0  1  0  0  0  0  0  0  0  0  0
    7.8602  -15.0089   21.4720 C   0  0  0  0  0  0  0  0  0  0  0  0
    7.1721  -15.9945   21.8055 O   0  0  0  0  0  0  0  0  0  0  0  0
    9.2492  -15.0609   21.7405 N   0  0  0  0  0  0  0  0  0  0  0  0
    9.8734  -16.1467   22.4839 C   0  0  1  0  0  0  0  0  0  0  0  0
   11.3700  -16.1235   22.1610 C   0  0  0  0  0  0  0  0  0  0  0  0
   12.0437  -17.3267   22.7119 C   0  0  0  0  0  0  0  0  0  0  0  0
   11.7920  -17.9710   23.9051 C   0  0  0  0  0  0  0  0  0  0  0  0
   12.6055  -19.0213   24.0556 N   0  0  0  0  0  0  0  0  0  0  0  0
   13.3788  -19.0420   22.9483 C   0  0  0  0  0  0  0  0  0  0  0  0
   13.0415  -18.0189   22.1341 N   0  0  0  0  0  0  0  0  0  0  0  0
    9.6806  -16.0078   23.9332 C   0  0  0  0  0  0  0  0  0  0  0  0
   10.5025  -16.5265   24.7278 O   0  0  0  0  0  0  0  0  0  0  0  0
    7.9196  -12.1063   26.4415 C   0  0  0  0  0  0  0  0  0  0  0  0
    7.0304  -13.0887   25.7628 C   0  0  2  0  0  0  0  0  0  0  0  0
    5.5740  -12.6321   25.9535 C   0  0  0  0  0  0  0  0  0  0  0  0
    7.1093  -14.4658   26.2875 C   0  0  0  0  0  0  0  0  0  0  0  0
    8.2438  -15.3204   25.8607 C   0  0  2  0  0  0  0  0  0  0  0  0
    8.5717  -15.2911   24.4600 N   0  0  0  0  0  0  0  0  0  0  0  0
    8.1744  -16.7053   26.3964 C   0  0  0  0  0  0  0  0  0  0  0  0
    8.1688  -17.8245   25.5706 O   0  0  0  0  0  0  0  0  0  0  0  0
    8.1171  -16.9272   27.6327 O   0  0  0  0  0  0  0  0  0  0  0  0
  1  2  1  0
  3  2  1  0
  4  5  1  0
  4  3  1  0
  5  1  1  0
  5  6  1  6
  6  8  1  0
  7  6  2  0
  9  8  1  0
 10 11  1  0
  9 10  1  1
 11 12  2  0
 13 12  1  0
 14 13  1  0
 15 14  2  0
 15 11  1  0
 16  9  1  0
 17 16  2  0
 19 18  1  1
 19 21  1  0
 20 19  1  0
 22 21  1  6
 22 24  1  0
 22 23  1  0
 23 16  1  0
 24 25  1  0
 26 24  2  0
M  END
$$$$
