PHL.pdb
     RDKit          3D

 26 27  0  0  1  0  0  0  0  0999 V2000
    8.9422  -14.7474   18.4595 N   0  0  0  0  0  0  0  0  0  0  0  0
    7.6901  -14.4663   17.7969 C   0  0  0  0  0  0  0  0  0  0  0  0
    7.1532  -13.1842   18.3827 C   0  0  0  0  0  0  0  0  0  0  0  0
    8.2554  -12.6908   19.2893 C   0  0  0  0  0  0  0  0  0  0  0  0
    8.9758  -13.9434   19.6657 C   0  0  1  0  0  0  0  0  0  0  0  0
    8.3248  -14.6833   20.7784 C   0  0  0  0  0  0  0  0  0  0  0  0
    7.2130  -14.3089   21.2024 O   0  0  0  0  0  0  0  0  0  0  0  0
    8.9122  -15.8140   21.3952 N   0  0  0  0  0  0  0  0  0  0  0  0
    8.3253  -16.4835   22.5479 C   0  0  1  0  0  0  0  0  0  0  0  0
    8.7077  -17.9638   22.4632 C   0  0  0  0  0  0  0  0  0  0  0  0
    8.0952  -18.7279   23.5795 C   0  0  0  0  0  0  0  0  0  0  0  0
    8.7317  -19.3652   24.6239 C   0  0  0  0  0  0  0  0  0  0  0  0
    7.8422  -19.9484   25.4340 N   0  0  0  0  0  0  0  0  0  0  0  0
    6.6323  -19.6779   24.8977 C   0  0  0  0  0  0  0  0  0  0  0  0
    6.7820  -18.9403   23.7767 N   0  0  0  0  0  0  0  0  0  0  0  0
    8.8056  -15.9230   23.8175 C   0  0  0  0  0  0  0  0  0  0  0  0
   10.0041  -15.5676   23.9325 O   0  0  0  0  0  0  0  0  0  0  0  0
    7.9137  -11.9392   25.9312 C   0  0  0  0  0  0  0  0  0  0  0  0
    6.9810  -13.0965   26.0171 C   0  0  2  0  0  0  0  0  0  0  0  0
    5.6810  -12.6187   26.6861 C   0  0  0  0  0  0  0  0  0  0  0  0
    7.4718  -14.2331   26.8203 C   0  0  0  0  0  0  0  0  0  0  0  0
    8.3807  -15.2126   26.1769 C   0  0  2  0  0  0  0  0  0  0  0  0
    7.9330  -15.7732   24.9297 N   0  0  0  0  0  0  0  0  0  0  0  0
    8.8898  -16.2493   27.1126 C   0  0  0  0  0  0  0  0  0  0  0  0
    9.6684  -15.9348   28.2215 O   0  0  0  0  0  0  0  0  0  0  0  0
    8.6358  -17.4686   26.9404 O   0  0  0  0  0  0  0  0  0  0  0  0
  1  2  1  0
  3  2  1  0
  4  5  1  0
  4  3  1  0
  5  1  1  0
  5  6  1  1
  6  8  1  0
  7  6  2  0
  9  8  1  0
 10 11  1  0
  9 10  1  1
 11 12  2  0
 13 12  1  0
 14 13  1  0
 15 14  2  0
 15 11  1  0
 16  9  1  0
 17 16  2  0
 19 18  1  1
 19 21  1  0
 20 19  1  0
 22 21  1  1
 22 24  1  0
 22 23  1  0
 23 16  1  0
 24 25  1  0
 26 24  2  0
M  END
$$$$
