PHL.pdb
     RDKit          3D

 26 27  0  0  1  0  0  0  0  0999 V2000
    9.2931  -14.2227   18.5807 N   0  0  0  0  0  0  0  0  0  0  0  0
    8.0520  -14.2773   17.8441 C   0  0  0  0  0  0  0  0  0  0  0  0
    7.1255  -13.2554   18.4545 C   0  0  0  0  0  0  0  0  0  0  0  0
    7.9790  -12.5242   19.4631 C   0  0  0  0  0  0  0  0  0  0  0  0
    9.0194  -13.5320   19.8260 C   0  0  1  0  0  0  0  0  0  0  0  0
    8.5601  -14.5078   20.8488 C   0  0  0  0  0  0  0  0  0  0  0  0
    7.3584  -14.5334   21.1827 O   0  0  0  0  0  0  0  0  0  0  0  0
    9.4325  -15.4288   21.4770 N   0  0  0  0  0  0  0  0  0  0  0  0
    9.0197  -16.2885   22.5779 C   0  0  1  0  0  0  0  0  0  0  0  0
    9.7425  -17.6279   22.4106 C   0  0  0  0  0  0  0  0  0  0  0  0
    9.2334  -18.3529   21.2188 C   0  0  0  0  0  0  0  0  0  0  0  0
    8.0726  -19.0885   21.1024 C   0  0  0  0  0  0  0  0  0  0  0  0
    7.9550  -19.5936   19.8701 N   0  0  0  0  0  0  0  0  0  0  0  0
    9.0507  -19.1742   19.2008 C   0  0  0  0  0  0  0  0  0  0  0  0
    9.8254  -18.4240   20.0134 N   0  0  0  0  0  0  0  0  0  0  0  0
    9.3517  -15.7102   23.8864 C   0  0  0  0  0  0  0  0  0  0  0  0
   10.5209  -15.3172   24.1198 O   0  0  0  0  0  0  0  0  0  0  0  0
    8.0830  -11.8963   26.0029 C   0  0  0  0  0  0  0  0  0  0  0  0
    7.1174  -13.0253   26.1005 C   0  0  2  0  0  0  0  0  0  0  0  0
    5.8770  -12.5333   26.8655 C   0  0  0  0  0  0  0  0  0  0  0  0
    7.6152  -14.2090   26.8276 C   0  0  0  0  0  0  0  0  0  0  0  0
    8.6751  -15.0319   26.1959 C   0  0  2  0  0  0  0  0  0  0  0  0
    8.3669  -15.5851   24.9039 N   0  0  0  0  0  0  0  0  0  0  0  0
    9.2681  -16.0385   27.1152 C   0  0  0  0  0  0  0  0  0  0  0  0
   10.0434  -15.6799   28.2129 O   0  0  0  0  0  0  0  0  0  0  0  0
    9.0925  -17.2708   26.9383 O   0  0  0  0  0  0  0  0  0  0  0  0
  1  2  1  0
  3  2  1  0
  4  5  1  0
  4  3  1  0
  5  1  1  0
  5  6  1  1
  6  8  1  0
  7  6  2  0
  9  8  1  0
 10 11  1  0
  9 10  1  6
 11 12  2  0
 13 12  1  0
 14 13  1  0
 15 14  2  0
 15 11  1  0
 16  9  1  0
 17 16  2  0
 19 18  1  1
 19 21  1  0
 20 19  1  0
 22 21  1  1
 22 24  1  0
 22 23  1  0
 23 16  1  0
 24 25  1  0
 26 24  2  0
M  END
$$$$
