PHL.pdb
     RDKit          3D

 26 27  0  0  1  0  0  0  0  0999 V2000
    7.3614  -18.4754   21.0540 N   0  0  0  0  0  0  0  0  0  0  0  0
    6.8601  -18.3730   19.7034 C   0  0  0  0  0  0  0  0  0  0  0  0
    8.0205  -18.6342   18.7757 C   0  0  0  0  0  0  0  0  0  0  0  0
    9.1513  -19.0436   19.6889 C   0  0  0  0  0  0  0  0  0  0  0  0
    8.8063  -18.3787   20.9805 C   0  0  1  0  0  0  0  0  0  0  0  0
    9.2154  -16.9507   21.0334 C   0  0  0  0  0  0  0  0  0  0  0  0
   10.3893  -16.6335   20.7550 O   0  0  0  0  0  0  0  0  0  0  0  0
    8.3246  -15.9101   21.3906 N   0  0  0  0  0  0  0  0  0  0  0  0
    8.7432  -14.5227   21.5371 C   0  0  1  0  0  0  0  0  0  0  0  0
    7.7037  -13.6518   20.8261 C   0  0  0  0  0  0  0  0  0  0  0  0
    7.7788  -13.8417   19.3553 C   0  0  0  0  0  0  0  0  0  0  0  0
    8.2006  -12.9392   18.4016 C   0  0  0  0  0  0  0  0  0  0  0  0
    8.1256  -13.4744   17.1786 N   0  0  0  0  0  0  0  0  0  0  0  0
    7.6521  -14.7264   17.3598 C   0  0  0  0  0  0  0  0  0  0  0  0
    7.4415  -14.9514   18.6745 N   0  0  0  0  0  0  0  0  0  0  0  0
    8.8418  -14.1201   22.9460 C   0  0  0  0  0  0  0  0  0  0  0  0
    9.0457  -12.9172   23.2417 O   0  0  0  0  0  0  0  0  0  0  0  0
    5.6856  -12.5870   27.0650 C   0  0  0  0  0  0  0  0  0  0  0  0
    6.9863  -13.2952   26.9128 C   0  0  2  0  0  0  0  0  0  0  0  0
    8.1135  -12.3178   27.2871 C   0  0  0  0  0  0  0  0  0  0  0  0
    7.2805  -13.7699   25.5468 C   0  0  0  0  0  0  0  0  0  0  0  0
    8.4342  -14.6805   25.3485 C   0  0  2  0  0  0  0  0  0  0  0  0
    8.7096  -15.0736   23.9921 N   0  0  0  0  0  0  0  0  0  0  0  0
    8.4433  -15.8349   26.2848 C   0  0  0  0  0  0  0  0  0  0  0  0
    8.6433  -17.1423   25.8542 O   0  0  0  0  0  0  0  0  0  0  0  0
    8.2687  -15.6779   27.5200 O   0  0  0  0  0  0  0  0  0  0  0  0
  1  2  1  0
  3  2  1  0
  4  5  1  0
  4  3  1  0
  5  1  1  0
  5  6  1  6
  6  8  1  0
  7  6  2  0
  9  8  1  0
 10 11  1  0
  9 10  1  6
 11 12  2  0
 13 12  1  0
 14 13  1  0
 15 14  2  0
 15 11  1  0
 16  9  1  0
 17 16  2  0
 19 18  1  6
 19 21  1  0
 20 19  1  0
 22 21  1  6
 22 24  1  0
 22 23  1  0
 23 16  1  0
 24 25  1  0
 26 24  2  0
M  END
$$$$
