PHL.pdb
     RDKit          3D

 26 27  0  0  1  0  0  0  0  0999 V2000
    8.6404  -14.4981   18.4463 N   0  0  0  0  0  0  0  0  0  0  0  0
    7.3191  -13.9440   18.2652 C   0  0  0  0  0  0  0  0  0  0  0  0
    7.2073  -12.7486   19.1783 C   0  0  0  0  0  0  0  0  0  0  0  0
    8.5935  -12.5796   19.7530 C   0  0  0  0  0  0  0  0  0  0  0  0
    9.1620  -13.9587   19.6872 C   0  0  1  0  0  0  0  0  0  0  0  0
    8.7431  -14.8214   20.8228 C   0  0  0  0  0  0  0  0  0  0  0  0
    7.5320  -15.0586   21.0045 O   0  0  0  0  0  0  0  0  0  0  0  0
    9.6651  -15.3999   21.7278 N   0  0  0  0  0  0  0  0  0  0  0  0
    9.2572  -16.2204   22.8600 C   0  0  1  0  0  0  0  0  0  0  0  0
   10.0800  -17.5109   22.8122 C   0  0  0  0  0  0  0  0  0  0  0  0
    9.6662  -18.3538   21.6619 C   0  0  0  0  0  0  0  0  0  0  0  0
    8.5311  -19.1274   21.5390 C   0  0  0  0  0  0  0  0  0  0  0  0
    8.5061  -19.7448   20.3534 N   0  0  0  0  0  0  0  0  0  0  0  0
    9.6351  -19.3587   19.7203 C   0  0  0  0  0  0  0  0  0  0  0  0
   10.3385  -18.5179   20.5087 N   0  0  0  0  0  0  0  0  0  0  0  0
    9.4795  -15.5423   24.1436 C   0  0  0  0  0  0  0  0  0  0  0  0
   10.5902  -15.0106   24.3879 O   0  0  0  0  0  0  0  0  0  0  0  0
    7.5414  -11.9206   25.9388 C   0  0  0  0  0  0  0  0  0  0  0  0
    6.8037  -13.1874   26.1986 C   0  0  2  0  0  0  0  0  0  0  0  0
    5.5128  -12.8451   26.9616 C   0  0  0  0  0  0  0  0  0  0  0  0
    7.5293  -14.1721   27.0244 C   0  0  0  0  0  0  0  0  0  0  0  0
    8.6773  -14.8912   26.4205 C   0  0  2  0  0  0  0  0  0  0  0  0
    8.4530  -15.4749   25.1247 N   0  0  0  0  0  0  0  0  0  0  0  0
    9.3431  -15.8336   27.3578 C   0  0  0  0  0  0  0  0  0  0  0  0
    9.9909  -15.4042   28.5114 O   0  0  0  0  0  0  0  0  0  0  0  0
    9.3494  -17.0729   27.1460 O   0  0  0  0  0  0  0  0  0  0  0  0
  1  2  1  0
  3  2  1  0
  4  5  1  0
  4  3  1  0
  5  1  1  0
  5  6  1  1
  6  8  1  0
  7  6  2  0
  9  8  1  0
 10 11  1  0
  9 10  1  1
 11 12  2  0
 13 12  1  0
 14 13  1  0
 15 14  2  0
 15 11  1  0
 16  9  1  0
 17 16  2  0
 19 18  1  1
 19 21  1  0
 20 19  1  0
 22 21  1  1
 22 24  1  0
 22 23  1  0
 23 16  1  0
 24 25  1  0
 26 24  2  0
M  END
$$$$
