LQM.pdb
     RDKit          3D

 26 25  0  0  1  0  0  0  0  0999 V2000
   23.1392  -13.6773  -14.6676 C   0  0  0  0  0  0  0  0  0  0  0  0
   23.9821  -14.5238  -15.5669 C   0  0  1  0  0  0  0  0  0  0  0  0
   25.3166  -13.8775  -15.8731 C   0  0  0  0  0  0  0  0  0  0  0  0
   24.1534  -15.9319  -15.0468 C   0  0  0  0  0  0  0  0  0  0  0  0
   25.1223  -16.7142  -15.8718 C   0  0  2  0  0  0  0  0  0  0  0  0
   24.5265  -16.9834  -17.1656 N   0  0  0  0  0  0  0  0  0  0  0  0
   25.5033  -18.0018  -15.2406 C   0  0  0  0  0  0  0  0  0  0  0  0
   24.7464  -19.0018  -15.3278 O   0  0  0  0  0  0  0  0  0  0  0  0
   28.8244  -21.5479  -16.0446 N   0  0  0  0  0  0  0  0  0  0  0  0
   29.1023  -21.9003  -14.7077 C   0  0  0  0  0  0  0  0  0  0  0  0
   29.3460  -23.1332  -14.4926 O   0  0  0  0  0  0  0  0  0  0  0  0
   29.1212  -20.9352  -13.5913 C   0  0  0  0  0  0  0  0  0  0  0  0
   28.6402  -19.6075  -14.0795 C   0  0  0  0  0  0  0  0  0  0  0  0
   27.1534  -19.4340  -13.9665 C   0  0  2  0  0  0  0  0  0  0  0  0
   26.7173  -18.1734  -14.5183 N   0  0  0  0  0  0  0  0  0  0  0  0
   26.6474  -19.6623  -12.6036 C   0  0  0  0  0  0  0  0  0  0  0  0
   26.3523  -18.6265  -11.9145 O   0  0  0  0  0  0  0  0  0  0  0  0
   28.2524  -20.3964   -6.2660 C   0  0  0  0  0  0  0  0  0  0  0  0
   27.1715  -19.2459   -7.1460 S   0  0  0  0  0  0  0  0  0  0  0  0
   26.1331  -20.0922   -8.3551 C   0  0  0  0  0  0  0  0  0  0  0  0
   26.6994  -20.0006   -9.7431 C   0  0  0  0  0  0  0  0  0  0  0  0
   25.9893  -21.0104  -10.6434 C   0  0  2  0  0  0  0  0  0  0  0  0
   26.4645  -20.9133  -12.0064 N   0  0  0  0  0  0  0  0  0  0  0  0
   24.5238  -20.8285  -10.5781 C   0  0  0  0  0  0  0  0  0  0  0  0
   23.8773  -21.0677   -9.3821 O   0  0  0  0  0  0  0  0  0  0  0  0
   23.8523  -20.4660  -11.5675 O   0  0  0  0  0  0  0  0  0  0  0  0
  2  4  1  0
  2  1  1  1
  3  2  1  0
  4  5  1  0
  5  6  1  6
  7  8  2  0
  7  5  1  0
  9 10  1  0
 10 12  1  0
 10 11  2  0
 12 13  1  0
 14 13  1  1
 14 15  1  0
 15  7  1  0
 16 17  2  0
 16 14  1  0
 19 18  1  0
 20 19  1  0
 20 21  1  0
 22 21  1  1
 22 23  1  0
 23 16  1  0
 24 22  1  0
 25 24  1  0
 26 24  2  0
M  END
$$$$
