LQM.pdb
     RDKit          3D

 26 25  0  0  1  0  0  0  0  0999 V2000
   29.9893  -21.8058  -10.6429 C   0  0  0  0  0  0  0  0  0  0  0  0
   28.7362  -21.0129  -10.4508 C   0  0  1  0  0  0  0  0  0  0  0  0
   28.9831  -19.5224  -10.5511 C   0  0  0  0  0  0  0  0  0  0  0  0
   27.6226  -21.4545  -11.3713 C   0  0  0  0  0  0  0  0  0  0  0  0
   26.3906  -20.6302  -11.1871 C   0  0  2  0  0  0  0  0  0  0  0  0
   25.4670  -21.3511  -10.3335 N   0  0  0  0  0  0  0  0  0  0  0  0
   25.7145  -20.3159  -12.4699 C   0  0  0  0  0  0  0  0  0  0  0  0
   26.3854  -19.9650  -13.4736 O   0  0  0  0  0  0  0  0  0  0  0  0
   25.3633  -24.4662  -15.3256 N   0  0  0  0  0  0  0  0  0  0  0  0
   24.2236  -23.9316  -15.9612 C   0  0  0  0  0  0  0  0  0  0  0  0
   23.7564  -24.6087  -16.9354 O   0  0  0  0  0  0  0  0  0  0  0  0
   23.5758  -22.6682  -15.5584 C   0  0  0  0  0  0  0  0  0  0  0  0
   24.2385  -22.1459  -14.3253 C   0  0  0  0  0  0  0  0  0  0  0  0
   23.6560  -20.8508  -13.8388 C   0  0  2  0  0  0  0  0  0  0  0  0
   24.3028  -20.3917  -12.6327 N   0  0  0  0  0  0  0  0  0  0  0  0
   22.1898  -20.8863  -13.7181 C   0  0  0  0  0  0  0  0  0  0  0  0
   21.7101  -21.1486  -12.5623 O   0  0  0  0  0  0  0  0  0  0  0  0
   19.8015  -15.7549  -13.5085 C   0  0  0  0  0  0  0  0  0  0  0  0
   18.3602  -16.7304  -13.0215 S   0  0  0  0  0  0  0  0  0  0  0  0
   18.4908  -18.4430  -13.5749 C   0  0  0  0  0  0  0  0  0  0  0  0
   19.9080  -18.8227  -13.8952 C   0  0  0  0  0  0  0  0  0  0  0  0
   19.9313  -20.2369  -14.4732 C   0  0  2  0  0  0  0  0  0  0  0  0
   21.2856  -20.6573  -14.7598 N   0  0  0  0  0  0  0  0  0  0  0  0
   19.0826  -20.3218  -15.6805 C   0  0  0  0  0  0  0  0  0  0  0  0
   17.7263  -20.5270  -15.5261 O   0  0  0  0  0  0  0  0  0  0  0  0
   19.5512  -20.2139  -16.8337 O   0  0  0  0  0  0  0  0  0  0  0  0
  2  4  1  0
  2  1  1  6
  3  2  1  0
  4  5  1  0
  5  6  1  1
  7  8  2  0
  7  5  1  0
  9 10  1  0
 10 12  1  0
 10 11  2  0
 12 13  1  0
 14 13  1  1
 14 15  1  0
 15  7  1  0
 16 17  2  0
 16 14  1  0
 19 18  1  0
 20 19  1  0
 20 21  1  0
 22 21  1  6
 22 23  1  0
 23 16  1  0
 24 22  1  0
 25 24  1  0
 26 24  2  0
M  END
$$$$
