LQM.pdb
     RDKit          3D

 26 25  0  0  1  0  0  0  0  0999 V2000
   12.3038   -9.6971  -15.1422 C   0  0  0  0  0  0  0  0  0  0  0  0
   13.3407  -10.7282  -15.4546 C   0  0  1  0  0  0  0  0  0  0  0  0
   13.4085  -11.0390  -16.9348 C   0  0  0  0  0  0  0  0  0  0  0  0
   14.6999  -10.3720  -14.8991 C   0  0  0  0  0  0  0  0  0  0  0  0
   15.7137  -11.4291  -15.1927 C   0  0  2  0  0  0  0  0  0  0  0  0
   15.5402  -12.5193  -14.2533 N   0  0  0  0  0  0  0  0  0  0  0  0
   17.1072  -10.9287  -15.0966 C   0  0  0  0  0  0  0  0  0  0  0  0
   17.7153  -10.9465  -13.9964 O   0  0  0  0  0  0  0  0  0  0  0  0
   21.5764  -11.4933  -19.3325 N   0  0  0  0  0  0  0  0  0  0  0  0
   22.1984  -10.7891  -18.2809 C   0  0  0  0  0  0  0  0  0  0  0  0
   23.4698  -10.7087  -18.3356 O   0  0  0  0  0  0  0  0  0  0  0  0
   21.4638  -10.1657  -17.1628 C   0  0  0  0  0  0  0  0  0  0  0  0
   20.0171  -10.5258  -17.2623 C   0  0  0  0  0  0  0  0  0  0  0  0
   19.1813   -9.9452  -16.1587 C   0  0  2  0  0  0  0  0  0  0  0  0
   17.8169  -10.4128  -16.2169 N   0  0  0  0  0  0  0  0  0  0  0  0
   19.2757   -8.4792  -16.0730 C   0  0  0  0  0  0  0  0  0  0  0  0
   18.4110   -7.8040  -16.7296 O   0  0  0  0  0  0  0  0  0  0  0  0
   22.5761   -1.7256  -13.5735 C   0  0  0  0  0  0  0  0  0  0  0  0
   22.5738   -3.5293  -13.4608 S   0  0  0  0  0  0  0  0  0  0  0  0
   21.3657   -4.2700  -14.5780 C   0  0  0  0  0  0  0  0  0  0  0  0
   21.2981   -5.7621  -14.4220 C   0  0  0  0  0  0  0  0  0  0  0  0
   20.3166   -6.3307  -15.4457 C   0  0  2  0  0  0  0  0  0  0  0  0
   20.2292   -7.7706  -15.3355 N   0  0  0  0  0  0  0  0  0  0  0  0
   20.6971   -5.9254  -16.8154 C   0  0  0  0  0  0  0  0  0  0  0  0
   20.0777   -4.8284  -17.3799 O   0  0  0  0  0  0  0  0  0  0  0  0
   21.5592   -6.5414  -17.4776 O   0  0  0  0  0  0  0  0  0  0  0  0
  2  4  1  0
  2  1  1  6
  3  2  1  0
  4  5  1  0
  5  6  1  1
  7  8  2  0
  7  5  1  0
  9 10  1  0
 10 12  1  0
 10 11  2  0
 12 13  1  0
 14 13  1  6
 14 15  1  0
 15  7  1  0
 16 17  2  0
 16 14  1  0
 19 18  1  0
 20 19  1  0
 20 21  1  0
 22 21  1  1
 22 23  1  0
 23 16  1  0
 24 22  1  0
 25 24  1  0
 26 24  2  0
M  END
$$$$
