LQM.pdb
     RDKit          3D

 26 25  0  0  1  0  0  0  0  0999 V2000
   28.0006  -17.6049  -18.6513 C   0  0  0  0  0  0  0  0  0  0  0  0
   28.2366  -17.8503  -17.1953 C   0  0  1  0  0  0  0  0  0  0  0  0
   28.5431  -16.5723  -16.4435 C   0  0  0  0  0  0  0  0  0  0  0  0
   27.1103  -18.6200  -16.5459 C   0  0  0  0  0  0  0  0  0  0  0  0
   27.6096  -19.8238  -15.8158 C   0  0  2  0  0  0  0  0  0  0  0  0
   28.0923  -20.7913  -16.7813 N   0  0  0  0  0  0  0  0  0  0  0  0
   26.5633  -20.4608  -14.9786 C   0  0  0  0  0  0  0  0  0  0  0  0
   25.6995  -21.2104  -15.5007 O   0  0  0  0  0  0  0  0  0  0  0  0
   26.2581  -20.3515   -8.5842 N   0  0  0  0  0  0  0  0  0  0  0  0
   25.0518  -20.9649   -8.9810 C   0  0  0  0  0  0  0  0  0  0  0  0
   24.2790  -21.3416   -8.0394 O   0  0  0  0  0  0  0  0  0  0  0  0
   24.6642  -21.1795  -10.3888 C   0  0  0  0  0  0  0  0  0  0  0  0
   25.7521  -20.6772  -11.2814 C   0  0  0  0  0  0  0  0  0  0  0  0
   25.4375  -20.8195  -12.7423 C   0  0  2  0  0  0  0  0  0  0  0  0
   26.4801  -20.2639  -13.5718 N   0  0  0  0  0  0  0  0  0  0  0  0
   24.1012  -20.3155  -13.0969 C   0  0  0  0  0  0  0  0  0  0  0  0
   23.9886  -19.0559  -13.2855 O   0  0  0  0  0  0  0  0  0  0  0  0
   18.5151  -18.8294  -17.7433 C   0  0  0  0  0  0  0  0  0  0  0  0
   19.9527  -19.8264  -17.2898 S   0  0  0  0  0  0  0  0  0  0  0  0
   20.2473  -19.8084  -15.5096 C   0  0  0  0  0  0  0  0  0  0  0  0
   21.5625  -20.4392  -15.1521 C   0  0  0  0  0  0  0  0  0  0  0  0
   21.6977  -20.4922  -13.6311 C   0  0  2  0  0  0  0  0  0  0  0  0
   22.9524  -21.0991  -13.2433 N   0  0  0  0  0  0  0  0  0  0  0  0
   20.5533  -21.2087  -13.0295 C   0  0  0  0  0  0  0  0  0  0  0  0
   19.3029  -20.6260  -13.0815 O   0  0  0  0  0  0  0  0  0  0  0  0
   20.6799  -22.3221  -12.4768 O   0  0  0  0  0  0  0  0  0  0  0  0
  2  4  1  0
  2  1  1  6
  3  2  1  0
  4  5  1  0
  5  6  1  6
  7  8  2  0
  7  5  1  0
  9 10  1  0
 10 12  1  0
 10 11  2  0
 12 13  1  0
 14 13  1  1
 14 15  1  0
 15  7  1  0
 16 17  2  0
 16 14  1  0
 19 18  1  0
 20 19  1  0
 20 21  1  0
 22 21  1  6
 22 23  1  0
 23 16  1  0
 24 22  1  0
 25 24  1  0
 26 24  2  0
M  END
$$$$
