LQM.pdb
     RDKit          3D

 26 25  0  0  1  0  0  0  0  0999 V2000
   19.0599  -16.9907  -16.3425 C   0  0  0  0  0  0  0  0  0  0  0  0
   18.3618  -15.6846  -16.1363 C   0  0  1  0  0  0  0  0  0  0  0  0
   17.7719  -15.5660  -14.7469 C   0  0  0  0  0  0  0  0  0  0  0  0
   19.2366  -14.4992  -16.4711 C   0  0  0  0  0  0  0  0  0  0  0  0
   18.5385  -13.2039  -16.2135 C   0  0  2  0  0  0  0  0  0  0  0  0
   17.3560  -13.1341  -17.0490 N   0  0  0  0  0  0  0  0  0  0  0  0
   19.3956  -12.0256  -16.4937 C   0  0  0  0  0  0  0  0  0  0  0  0
   20.5053  -11.8945  -15.9176 O   0  0  0  0  0  0  0  0  0  0  0  0
   19.8425   -9.0442  -21.9351 N   0  0  0  0  0  0  0  0  0  0  0  0
   20.5427  -10.1745  -21.4652 C   0  0  0  0  0  0  0  0  0  0  0  0
   21.1287  -10.8789  -22.3519 O   0  0  0  0  0  0  0  0  0  0  0  0
   20.6204  -10.5592  -20.0424 C   0  0  0  0  0  0  0  0  0  0  0  0
   19.8258   -9.5920  -19.2265 C   0  0  0  0  0  0  0  0  0  0  0  0
   19.8627   -9.8832  -17.7543 C   0  0  2  0  0  0  0  0  0  0  0  0
   19.0191  -11.0021  -17.4079 N   0  0  0  0  0  0  0  0  0  0  0  0
   19.6007   -8.6966  -16.9243 C   0  0  0  0  0  0  0  0  0  0  0  0
   18.4916   -8.6678  -16.2889 O   0  0  0  0  0  0  0  0  0  0  0  0
   22.5112   -2.2622  -13.5012 C   0  0  0  0  0  0  0  0  0  0  0  0
   22.4568   -4.0608  -13.6693 S   0  0  0  0  0  0  0  0  0  0  0  0
   21.1965   -4.5868  -14.8488 C   0  0  0  0  0  0  0  0  0  0  0  0
   21.1378   -6.0819  -14.9778 C   0  0  0  0  0  0  0  0  0  0  0  0
   20.0600   -6.4569  -15.9938 C   0  0  2  0  0  0  0  0  0  0  0  0
   20.4625   -7.6055  -16.7760 N   0  0  0  0  0  0  0  0  0  0  0  0
   19.7412   -5.3066  -16.8657 C   0  0  0  0  0  0  0  0  0  0  0  0
   20.0882   -5.3683  -18.2004 O   0  0  0  0  0  0  0  0  0  0  0  0
   19.1689   -4.2825  -16.4356 O   0  0  0  0  0  0  0  0  0  0  0  0
  2  4  1  0
  2  1  1  1
  3  2  1  0
  4  5  1  0
  5  6  1  6
  7  8  2  0
  7  5  1  0
  9 10  1  0
 10 12  1  0
 10 11  2  0
 12 13  1  0
 14 13  1  6
 14 15  1  0
 15  7  1  0
 16 17  2  0
 16 14  1  0
 19 18  1  0
 20 19  1  0
 20 21  1  0
 22 21  1  1
 22 23  1  0
 23 16  1  0
 24 22  1  0
 25 24  1  0
 26 24  2  0
M  END
$$$$
