TRE.pdb
     RDKit          3D

 28 27  0  0  1  0  0  0  0  0999 V2000
    9.1474  -15.6167   16.7570 C   0  0  0  0  0  0  0  0  0  0  0  0
    8.8032  -14.1735   16.9406 C   0  0  1  0  0  0  0  0  0  0  0  0
    8.4292  -13.6380   15.7090 O   0  0  0  0  0  0  0  0  0  0  0  0
    7.7674  -13.9410   18.0099 C   0  0  2  0  0  0  0  0  0  0  0  0
    7.4368  -12.5339   17.9957 N   0  0  0  0  0  0  0  0  0  0  0  0
    8.2074  -14.3650   19.3523 C   0  0  0  0  0  0  0  0  0  0  0  0
    9.0786  -13.6707   19.9569 O   0  0  0  0  0  0  0  0  0  0  0  0
    4.1778  -19.8223   19.4413 N   0  0  0  0  0  0  0  0  0  0  0  0
    5.3306  -20.5895   19.1332 C   0  0  0  0  0  0  0  0  0  0  0  0
    5.3249  -21.4605   18.1914 N   0  0  0  0  0  0  0  0  0  0  0  0
    6.5540  -20.4198   19.8673 N   0  0  0  0  0  0  0  0  0  0  0  0
    6.6251  -19.4507   20.9375 C   0  0  0  0  0  0  0  0  0  0  0  0
    7.5460  -18.2914   20.5517 C   0  0  0  0  0  0  0  0  0  0  0  0
    7.4425  -17.2251   21.6342 C   0  0  0  0  0  0  0  0  0  0  0  0
    8.2722  -16.0137   21.2594 C   0  0  2  0  0  0  0  0  0  0  0  0
    7.7203  -15.5040   20.0194 N   0  0  0  0  0  0  0  0  0  0  0  0
    9.6809  -16.4037   21.1350 C   0  0  0  0  0  0  0  0  0  0  0  0
   10.1149  -16.8798   20.0575 O   0  0  0  0  0  0  0  0  0  0  0  0
    6.1968  -21.9582   17.9493 N   0  0  0  0  0  0  0  0  0  0  0  0
   10.5987  -16.2617   22.2100 C   0  0  1  0  0  0  0  0  0  0  0  0
   12.0280  -16.5665   22.0025 C   0  0  0  0  0  0  0  0  0  0  0  0
   12.5444  -15.6666   20.9232 C   0  0  0  0  0  0  0  0  0  0  0  0
   14.0005  -15.8005   20.6224 C   0  0  0  0  0  0  0  0  0  0  0  0
   14.5182  -14.9318   19.5713 O   0  0  0  0  0  0  0  0  0  0  0  0
   15.7256  -14.6210   19.5146 C   0  0  0  0  0  0  0  0  0  0  0  0
   12.7528  -16.4528   23.2879 O   0  0  0  0  0  0  0  0  0  0  0  0
   12.0898  -15.9789   24.4342 O   0  0  0  0  0  0  0  0  0  0  0  0
   13.6599  -14.4342   18.6086 O   0  0  0  0  0  0  0  0  0  0  0  0
  2  1  1  6
  2  3  1  0
  4  2  1  0
  4  6  1  0
  4  5  1  1
  6  7  2  0
  9 10  2  0
  9  8  1  0
 11  9  1  0
 12 11  1  0
 13 12  1  0
 14 13  1  0
 15 14  1  6
 16  6  1  0
 16 15  1  0
 17 15  1  0
 17 19  1  0
 18 17  2  0
 20 19  1  0
 20 21  1  1
 21 22  1  0
 22 23  1  0
 23 24  2  0
 23 27  1  0
 25 26  1  0
 25 20  1  0
 28 25  2  0
M  END
$$$$
