TRE.pdb
     RDKit          3D

 28 27  0  0  1  0  0  0  0  0999 V2000
    9.5599  -11.8050   20.2056 C   0  0  0  0  0  0  0  0  0  0  0  0
    8.3002  -12.4948   19.7899 C   0  0  1  0  0  0  0  0  0  0  0  0
    7.3195  -11.5349   19.5442 O   0  0  0  0  0  0  0  0  0  0  0  0
    8.4929  -13.4342   18.6276 C   0  0  2  0  0  0  0  0  0  0  0  0
    7.2026  -14.0039   18.3112 N   0  0  0  0  0  0  0  0  0  0  0  0
    9.4860  -14.4926   18.8897 C   0  0  0  0  0  0  0  0  0  0  0  0
    9.1202  -15.5312   19.5176 O   0  0  0  0  0  0  0  0  0  0  0  0
   14.4005  -18.0177   13.8242 N   0  0  0  0  0  0  0  0  0  0  0  0
   13.1726  -17.4887   13.3501 C   0  0  0  0  0  0  0  0  0  0  0  0
   12.5890  -17.9718   12.3147 N   0  0  0  0  0  0  0  0  0  0  0  0
   12.5326  -16.3869   14.0140 N   0  0  0  0  0  0  0  0  0  0  0  0
   13.1141  -15.8319   15.2154 C   0  0  0  0  0  0  0  0  0  0  0  0
   12.2756  -16.2049   16.4396 C   0  0  0  0  0  0  0  0  0  0  0  0
   12.8132  -15.4294   17.6349 C   0  0  0  0  0  0  0  0  0  0  0  0
   11.8128  -15.4580   18.7728 C   0  0  2  0  0  0  0  0  0  0  0  0
   10.8321  -14.4296   18.4852 N   0  0  0  0  0  0  0  0  0  0  0  0
   12.5100  -15.2368   20.0444 C   0  0  0  0  0  0  0  0  0  0  0  0
   13.0476  -14.1291   20.2891 O   0  0  0  0  0  0  0  0  0  0  0  0
   11.7446  -17.5094   11.9409 N   0  0  0  0  0  0  0  0  0  0  0  0
   12.6053  -16.2492   21.0364 C   0  0  2  0  0  0  0  0  0  0  0  0
   13.2047  -15.9392   22.3492 C   0  0  0  0  0  0  0  0  0  0  0  0
   12.6816  -16.9270   23.3451 C   0  0  0  0  0  0  0  0  0  0  0  0
   13.1950  -16.7631   24.7373 C   0  0  0  0  0  0  0  0  0  0  0  0
   12.8251  -17.8109   25.6821 O   0  0  0  0  0  0  0  0  0  0  0  0
   12.5959  -18.9791   25.3072 C   0  0  0  0  0  0  0  0  0  0  0  0
   14.6797  -15.9182   22.2303 O   0  0  0  0  0  0  0  0  0  0  0  0
   15.4583  -15.2625   23.2009 O   0  0  0  0  0  0  0  0  0  0  0  0
   12.7226  -17.5150   27.0286 O   0  0  0  0  0  0  0  0  0  0  0  0
  2  1  1  6
  2  3  1  0
  4  2  1  0
  4  6  1  0
  4  5  1  1
  6  7  2  0
  9 10  2  0
  9  8  1  0
 11  9  1  0
 12 11  1  0
 13 12  1  0
 14 13  1  0
 15 14  1  6
 16  6  1  0
 16 15  1  0
 17 15  1  0
 17 19  1  0
 18 17  2  0
 20 19  1  0
 20 21  1  1
 21 22  1  0
 22 23  1  0
 23 24  2  0
 23 27  1  0
 25 26  1  0
 25 20  1  0
 28 25  2  0
M  END
$$$$
