TRE.pdb
     RDKit          3D

 28 27  0  0  1  0  0  0  0  0999 V2000
    8.7465  -21.7611   23.2435 C   0  0  0  0  0  0  0  0  0  0  0  0
    8.7361  -22.2421   21.8280 C   0  0  1  0  0  0  0  0  0  0  0  0
    8.1206  -23.4921   21.7802 O   0  0  0  0  0  0  0  0  0  0  0  0
    8.1178  -21.2570   20.8701 C   0  0  2  0  0  0  0  0  0  0  0  0
    8.0583  -21.8916   19.5727 N   0  0  0  0  0  0  0  0  0  0  0  0
    8.8461  -19.9765   20.7971 C   0  0  0  0  0  0  0  0  0  0  0  0
   10.0550  -19.9825   20.4159 O   0  0  0  0  0  0  0  0  0  0  0  0
    7.8994  -13.0344   17.5174 N   0  0  0  0  0  0  0  0  0  0  0  0
    7.8820  -12.8340   18.9217 C   0  0  0  0  0  0  0  0  0  0  0  0
    8.4963  -11.8483   19.4664 N   0  0  0  0  0  0  0  0  0  0  0  0
    7.1730  -13.7312   19.7914 N   0  0  0  0  0  0  0  0  0  0  0  0
    7.6254  -13.9274   21.1502 C   0  0  0  0  0  0  0  0  0  0  0  0
    8.6997  -15.0154   21.2066 C   0  0  0  0  0  0  0  0  0  0  0  0
    8.0057  -16.3692   21.1352 C   0  0  0  0  0  0  0  0  0  0  0  0
    9.0300  -17.4859   21.1472 C   0  0  2  0  0  0  0  0  0  0  0  0
    8.2844  -18.7291   21.1259 N   0  0  0  0  0  0  0  0  0  0  0  0
    9.8828  -17.3564   22.3338 C   0  0  0  0  0  0  0  0  0  0  0  0
    9.3711  -17.1867   23.4675 O   0  0  0  0  0  0  0  0  0  0  0  0
    8.5722  -11.7981   20.4952 N   0  0  0  0  0  0  0  0  0  0  0  0
   11.2997  -17.4164   22.2524 C   0  0  2  0  0  0  0  0  0  0  0  0
   12.1174  -17.1645   23.4552 C   0  0  0  0  0  0  0  0  0  0  0  0
   12.9066  -18.4021   23.7496 C   0  0  0  0  0  0  0  0  0  0  0  0
   13.8344  -18.8408   22.6654 C   0  0  0  0  0  0  0  0  0  0  0  0
   14.6149  -20.0420   22.9398 O   0  0  0  0  0  0  0  0  0  0  0  0
   14.0697  -21.1171   23.2636 C   0  0  0  0  0  0  0  0  0  0  0  0
   12.9410  -15.9518   23.2520 O   0  0  0  0  0  0  0  0  0  0  0  0
   13.7116  -15.4349   24.3090 O   0  0  0  0  0  0  0  0  0  0  0  0
   15.9933  -20.0012   22.8422 O   0  0  0  0  0  0  0  0  0  0  0  0
  2  1  1  1
  2  3  1  0
  4  2  1  0
  4  6  1  0
  4  5  1  6
  6  7  2  0
  9 10  2  0
  9  8  1  0
 11  9  1  0
 12 11  1  0
 13 12  1  0
 14 13  1  0
 15 14  1  1
 16  6  1  0
 16 15  1  0
 17 15  1  0
 17 19  1  0
 18 17  2  0
 20 19  1  0
 20 21  1  6
 21 22  1  0
 22 23  1  0
 23 24  2  0
 23 27  1  0
 25 26  1  0
 25 20  1  0
 28 25  2  0
M  END
$$$$
