TRE.pdb
     RDKit          3D

 28 27  0  0  1  0  0  0  0  0999 V2000
   10.1461  -13.3755   27.5042 C   0  0  0  0  0  0  0  0  0  0  0  0
   10.2895  -14.5933   26.6488 C   0  0  1  0  0  0  0  0  0  0  0  0
   11.1497  -15.4903   27.2805 O   0  0  0  0  0  0  0  0  0  0  0  0
    8.9696  -15.2203   26.2814 C   0  0  2  0  0  0  0  0  0  0  0  0
    8.2881  -15.5508   27.5126 N   0  0  0  0  0  0  0  0  0  0  0  0
    9.1066  -16.4094   25.4197 C   0  0  0  0  0  0  0  0  0  0  0  0
    9.0845  -17.5578   25.9559 O   0  0  0  0  0  0  0  0  0  0  0  0
   11.1718  -18.9197   17.4640 N   0  0  0  0  0  0  0  0  0  0  0  0
    9.8446  -19.4035   17.5937 C   0  0  0  0  0  0  0  0  0  0  0  0
    9.4281  -20.4100   16.9160 N   0  0  0  0  0  0  0  0  0  0  0  0
    8.9119  -18.7822   18.4927 N   0  0  0  0  0  0  0  0  0  0  0  0
    9.3534  -17.7242   19.3731 C   0  0  0  0  0  0  0  0  0  0  0  0
    9.5032  -18.2441   20.8043 C   0  0  0  0  0  0  0  0  0  0  0  0
    9.3101  -17.0709   21.7560 C   0  0  0  0  0  0  0  0  0  0  0  0
    9.4974  -17.5219   23.1906 C   0  0  2  0  0  0  0  0  0  0  0  0
    9.2626  -16.3578   24.0224 N   0  0  0  0  0  0  0  0  0  0  0  0
   10.8452  -18.0762   23.3584 C   0  0  0  0  0  0  0  0  0  0  0  0
   11.2022  -19.0859   22.7033 O   0  0  0  0  0  0  0  0  0  0  0  0
    8.4535  -20.7332   17.0262 N   0  0  0  0  0  0  0  0  0  0  0  0
   11.7881  -17.5041   24.2537 C   0  0  1  0  0  0  0  0  0  0  0  0
   13.1483  -18.0691   24.3500 C   0  0  0  0  0  0  0  0  0  0  0  0
   14.0965  -17.1158   23.6917 C   0  0  0  0  0  0  0  0  0  0  0  0
   15.5426  -17.4652   23.8163 C   0  0  0  0  0  0  0  0  0  0  0  0
   16.4731  -16.5978   23.1028 O   0  0  0  0  0  0  0  0  0  0  0  0
   16.9979  -16.9464   22.0254 C   0  0  0  0  0  0  0  0  0  0  0  0
   13.4661  -18.3629   25.7654 O   0  0  0  0  0  0  0  0  0  0  0  0
   12.8889  -17.5964   26.7937 O   0  0  0  0  0  0  0  0  0  0  0  0
   16.7893  -15.3565   23.6227 O   0  0  0  0  0  0  0  0  0  0  0  0
  2  1  1  1
  2  3  1  0
  4  2  1  0
  4  6  1  0
  4  5  1  1
  6  7  2  0
  9 10  2  0
  9  8  1  0
 11  9  1  0
 12 11  1  0
 13 12  1  0
 14 13  1  0
 15 14  1  6
 16  6  1  0
 16 15  1  0
 17 15  1  0
 17 19  1  0
 18 17  2  0
 20 19  1  0
 20 21  1  1
 21 22  1  0
 22 23  1  0
 23 24  2  0
 23 27  1  0
 25 26  1  0
 25 20  1  0
 28 25  2  0
M  END
$$$$
