TRE.pdb
     RDKit          3D

 28 27  0  0  1  0  0  0  0  0999 V2000
    7.5552  -18.5763   26.9167 C   0  0  0  0  0  0  0  0  0  0  0  0
    7.3981  -19.9844   26.4394 C   0  0  1  0  0  0  0  0  0  0  0  0
    6.8484  -20.7507   27.4661 O   0  0  0  0  0  0  0  0  0  0  0  0
    6.6167  -20.0931   25.1557 C   0  0  2  0  0  0  0  0  0  0  0  0
    6.4041  -21.4988   24.8944 N   0  0  0  0  0  0  0  0  0  0  0  0
    7.2781  -19.4388   24.0113 C   0  0  0  0  0  0  0  0  0  0  0  0
    8.2209  -20.0472   23.4214 O   0  0  0  0  0  0  0  0  0  0  0  0
    8.9173  -12.5709   20.6597 N   0  0  0  0  0  0  0  0  0  0  0  0
    8.3104  -12.8723   19.4135 C   0  0  0  0  0  0  0  0  0  0  0  0
    8.7473  -12.3721   18.3160 N   0  0  0  0  0  0  0  0  0  0  0  0
    7.1780  -13.7529   19.3323 N   0  0  0  0  0  0  0  0  0  0  0  0
    6.6505  -14.3628   20.5320 C   0  0  0  0  0  0  0  0  0  0  0  0
    7.6007  -15.4463   21.0459 C   0  0  0  0  0  0  0  0  0  0  0  0
    6.8536  -16.2786   22.0797 C   0  0  0  0  0  0  0  0  0  0  0  0
    7.7181  -17.4305   22.5510 C   0  0  2  0  0  0  0  0  0  0  0  0
    6.9308  -18.1668   23.5205 N   0  0  0  0  0  0  0  0  0  0  0  0
    8.9673  -16.9073   23.1149 C   0  0  0  0  0  0  0  0  0  0  0  0
    8.9396  -16.0500   24.0316 O   0  0  0  0  0  0  0  0  0  0  0  0
    8.2565  -12.5745   17.4301 N   0  0  0  0  0  0  0  0  0  0  0  0
   10.2398  -17.3407   22.6559 C   0  0  1  0  0  0  0  0  0  0  0  0
   11.4663  -16.8489   23.3138 C   0  0  0  0  0  0  0  0  0  0  0  0
   12.2818  -18.0350   23.7253 C   0  0  0  0  0  0  0  0  0  0  0  0
   13.0633  -17.8663   24.9861 C   0  0  0  0  0  0  0  0  0  0  0  0
   12.6282  -18.6738   26.1201 O   0  0  0  0  0  0  0  0  0  0  0  0
   11.9474  -19.7081   25.9643 C   0  0  0  0  0  0  0  0  0  0  0  0
   12.1710  -15.9088   22.4139 O   0  0  0  0  0  0  0  0  0  0  0  0
   13.0732  -14.9672   22.9407 O   0  0  0  0  0  0  0  0  0  0  0  0
   12.9723  -18.2942   27.4041 O   0  0  0  0  0  0  0  0  0  0  0  0
  2  1  1  1
  2  3  1  0
  4  2  1  0
  4  6  1  0
  4  5  1  6
  6  7  2  0
  9 10  2  0
  9  8  1  0
 11  9  1  0
 12 11  1  0
 13 12  1  0
 14 13  1  0
 15 14  1  1
 16  6  1  0
 16 15  1  0
 17 15  1  0
 17 19  1  0
 18 17  2  0
 20 19  1  0
 20 21  1  6
 21 22  1  0
 22 23  1  0
 23 24  2  0
 23 27  1  0
 25 26  1  0
 25 20  1  0
 28 25  2  0
M  END
$$$$
