TRE.pdb
     RDKit          3D

 28 27  0  0  1  0  0  0  0  0999 V2000
    8.0626  -17.3500   27.5349 C   0  0  0  0  0  0  0  0  0  0  0  0
    7.7584  -18.7492   27.1048 C   0  0  1  0  0  0  0  0  0  0  0  0
    7.3264  -19.4782   28.2117 O   0  0  0  0  0  0  0  0  0  0  0  0
    6.7894  -18.8194   25.9531 C   0  0  2  0  0  0  0  0  0  0  0  0
    6.4585  -20.2115   25.7482 N   0  0  0  0  0  0  0  0  0  0  0  0
    7.3099  -18.2138   24.7131 C   0  0  0  0  0  0  0  0  0  0  0  0
    8.1397  -18.8701   24.0147 O   0  0  0  0  0  0  0  0  0  0  0  0
    7.7302  -12.0034   19.0497 N   0  0  0  0  0  0  0  0  0  0  0  0
    8.1046  -13.3021   18.6191 C   0  0  0  0  0  0  0  0  0  0  0  0
    8.1971  -13.5954   17.3736 N   0  0  0  0  0  0  0  0  0  0  0  0
    8.3958  -14.3434   19.5653 N   0  0  0  0  0  0  0  0  0  0  0  0
    7.3743  -14.7877   20.4865 C   0  0  0  0  0  0  0  0  0  0  0  0
    7.5633  -14.1309   21.8554 C   0  0  0  0  0  0  0  0  0  0  0  0
    6.8480  -14.9861   22.8928 C   0  0  0  0  0  0  0  0  0  0  0  0
    7.6756  -16.2114   23.2245 C   0  0  2  0  0  0  0  0  0  0  0  0
    6.9445  -16.9389   24.2435 N   0  0  0  0  0  0  0  0  0  0  0  0
    9.0096  -15.7958   23.6716 C   0  0  0  0  0  0  0  0  0  0  0  0
    9.1549  -15.2016   24.7679 O   0  0  0  0  0  0  0  0  0  0  0  0
    8.5172  -14.5359   17.0917 N   0  0  0  0  0  0  0  0  0  0  0  0
   10.1741  -16.0435   22.8966 C   0  0  2  0  0  0  0  0  0  0  0  0
   11.4906  -16.1411   23.5570 C   0  0  0  0  0  0  0  0  0  0  0  0
   11.4530  -17.3017   24.5019 C   0  0  0  0  0  0  0  0  0  0  0  0
   12.7598  -17.6558   25.1307 C   0  0  0  0  0  0  0  0  0  0  0  0
   12.7358  -18.7734   26.0676 O   0  0  0  0  0  0  0  0  0  0  0  0
   12.1044  -19.8213   25.8206 C   0  0  0  0  0  0  0  0  0  0  0  0
   12.5559  -16.2246   22.5331 O   0  0  0  0  0  0  0  0  0  0  0  0
   13.9034  -16.0548   22.8988 O   0  0  0  0  0  0  0  0  0  0  0  0
   13.4256  -18.6815   27.2622 O   0  0  0  0  0  0  0  0  0  0  0  0
  2  1  1  1
  2  3  1  0
  4  2  1  0
  4  6  1  0
  4  5  1  6
  6  7  2  0
  9 10  2  0
  9  8  1  0
 11  9  1  0
 12 11  1  0
 13 12  1  0
 14 13  1  0
 15 14  1  1
 16  6  1  0
 16 15  1  0
 17 15  1  0
 17 19  1  0
 18 17  2  0
 20 19  1  0
 20 21  1  1
 21 22  1  0
 22 23  1  0
 23 24  2  0
 23 27  1  0
 25 26  1  0
 25 20  1  0
 28 25  2  0
M  END
$$$$
