TRE.pdb
     RDKit          3D

 28 27  0  0  1  0  0  0  0  0999 V2000
    8.2286  -11.8263   26.4686 C   0  0  0  0  0  0  0  0  0  0  0  0
    6.9627  -12.4949   26.8994 C   0  0  1  0  0  0  0  0  0  0  0  0
    6.2392  -11.6165   27.7046 O   0  0  0  0  0  0  0  0  0  0  0  0
    6.1492  -13.0256   25.7475 C   0  0  2  0  0  0  0  0  0  0  0  0
    4.8898  -13.4907   26.2831 N   0  0  0  0  0  0  0  0  0  0  0  0
    6.8294  -14.0967   24.9956 C   0  0  0  0  0  0  0  0  0  0  0  0
    6.9375  -15.2422   25.5276 O   0  0  0  0  0  0  0  0  0  0  0  0
    7.6367  -14.1517   16.4813 N   0  0  0  0  0  0  0  0  0  0  0  0
    8.2133  -13.7507   17.7137 C   0  0  0  0  0  0  0  0  0  0  0  0
    8.5833  -12.5396   17.9189 N   0  0  0  0  0  0  0  0  0  0  0  0
    8.4061  -14.6896   18.7841 N   0  0  0  0  0  0  0  0  0  0  0  0
    7.2896  -15.0720   19.6187 C   0  0  0  0  0  0  0  0  0  0  0  0
    7.2176  -14.1811   20.8605 C   0  0  0  0  0  0  0  0  0  0  0  0
    8.4962  -14.3840   21.6626 C   0  0  0  0  0  0  0  0  0  0  0  0
    8.1728  -14.9395   23.0349 C   0  0  2  0  0  0  0  0  0  0  0  0
    7.3753  -13.9339   23.7091 N   0  0  0  0  0  0  0  0  0  0  0  0
    9.4189  -15.2455   23.7461 C   0  0  0  0  0  0  0  0  0  0  0  0
   10.1209  -14.3205   24.2232 O   0  0  0  0  0  0  0  0  0  0  0  0
    9.0717  -12.2952   18.7954 N   0  0  0  0  0  0  0  0  0  0  0  0
    9.8769  -16.5786   23.9225 C   0  0  1  0  0  0  0  0  0  0  0  0
   11.2322  -16.8272   24.4517 C   0  0  0  0  0  0  0  0  0  0  0  0
   11.1375  -17.9037   25.4879 C   0  0  0  0  0  0  0  0  0  0  0  0
   10.5133  -17.4928   26.7803 C   0  0  0  0  0  0  0  0  0  0  0  0
   10.5223  -18.4941   27.8408 O   0  0  0  0  0  0  0  0  0  0  0  0
    9.6549  -19.3893   27.9032 C   0  0  0  0  0  0  0  0  0  0  0  0
   12.1533  -17.1369   23.3354 O   0  0  0  0  0  0  0  0  0  0  0  0
   13.5365  -17.2408   23.5678 O   0  0  0  0  0  0  0  0  0  0  0  0
   11.5111  -18.4611   28.8064 O   0  0  0  0  0  0  0  0  0  0  0  0
  2  1  1  6
  2  3  1  0
  4  2  1  0
  4  6  1  0
  4  5  1  1
  6  7  2  0
  9 10  2  0
  9  8  1  0
 11  9  1  0
 12 11  1  0
 13 12  1  0
 14 13  1  0
 15 14  1  6
 16  6  1  0
 16 15  1  0
 17 15  1  0
 17 19  1  0
 18 17  2  0
 20 19  1  0
 20 21  1  1
 21 22  1  0
 22 23  1  0
 23 24  2  0
 23 27  1  0
 25 26  1  0
 25 20  1  0
 28 25  2  0
M  END
$$$$
