TRE.pdb
     RDKit          3D

 28 27  0  0  1  0  0  0  0  0999 V2000
    6.9406  -14.5771   16.5758 C   0  0  0  0  0  0  0  0  0  0  0  0
    7.7432  -14.7256   17.8285 C   0  0  1  0  0  0  0  0  0  0  0  0
    9.0964  -14.7651   17.4960 O   0  0  0  0  0  0  0  0  0  0  0  0
    7.4327  -13.6734   18.8613 C   0  0  2  0  0  0  0  0  0  0  0  0
    7.6883  -12.3846   18.2588 N   0  0  0  0  0  0  0  0  0  0  0  0
    8.2028  -13.8335   20.1090 C   0  0  0  0  0  0  0  0  0  0  0  0
    9.3483  -13.2973   20.1925 O   0  0  0  0  0  0  0  0  0  0  0  0
    7.0267  -18.9314   27.7327 N   0  0  0  0  0  0  0  0  0  0  0  0
    7.2764  -19.0503   26.3413 C   0  0  0  0  0  0  0  0  0  0  0  0
    6.8543  -20.0571   25.6676 N   0  0  0  0  0  0  0  0  0  0  0  0
    8.0148  -18.0436   25.6303 N   0  0  0  0  0  0  0  0  0  0  0  0
    7.5168  -16.6878   25.5741 C   0  0  0  0  0  0  0  0  0  0  0  0
    8.4088  -15.8247   24.6795 C   0  0  0  0  0  0  0  0  0  0  0  0
    7.6882  -15.6156   23.3543 C   0  0  0  0  0  0  0  0  0  0  0  0
    8.5565  -14.8149   22.4049 C   0  0  2  0  0  0  0  0  0  0  0  0
    7.7480  -14.5507   21.2307 N   0  0  0  0  0  0  0  0  0  0  0  0
    9.7738  -15.5731   22.0962 C   0  0  0  0  0  0  0  0  0  0  0  0
    9.7157  -16.6028   21.3805 O   0  0  0  0  0  0  0  0  0  0  0  0
    7.1707  -20.1899   24.6935 N   0  0  0  0  0  0  0  0  0  0  0  0
   11.0487  -15.1814   22.5854 C   0  0  1  0  0  0  0  0  0  0  0  0
   12.2456  -15.9713   22.2360 C   0  0  0  0  0  0  0  0  0  0  0  0
   13.1806  -15.0868   21.4713 C   0  0  0  0  0  0  0  0  0  0  0  0
   14.4904  -15.7044   21.1083 C   0  0  0  0  0  0  0  0  0  0  0  0
   15.4036  -14.8623   20.3438 O   0  0  0  0  0  0  0  0  0  0  0  0
   15.0452  -14.2955   19.2912 C   0  0  0  0  0  0  0  0  0  0  0  0
   12.8300  -16.5583   23.4625 O   0  0  0  0  0  0  0  0  0  0  0  0
   12.3420  -16.1843   24.7275 O   0  0  0  0  0  0  0  0  0  0  0  0
   16.7007  -14.6800   20.7860 O   0  0  0  0  0  0  0  0  0  0  0  0
  2  1  1  6
  2  3  1  0
  4  2  1  0
  4  6  1  0
  4  5  1  6
  6  7  2  0
  9 10  2  0
  9  8  1  0
 11  9  1  0
 12 11  1  0
 13 12  1  0
 14 13  1  0
 15 14  1  1
 16  6  1  0
 16 15  1  0
 17 15  1  0
 17 19  1  0
 18 17  2  0
 20 19  1  0
 20 21  1  1
 21 22  1  0
 22 23  1  0
 23 24  2  0
 23 27  1  0
 25 26  1  0
 25 20  1  0
 28 25  2  0
M  END
$$$$
