TRE.pdb
     RDKit          3D

 28 27  0  0  1  0  0  0  0  0999 V2000
    7.2577  -14.3502   16.5373 C   0  0  0  0  0  0  0  0  0  0  0  0
    7.9258  -14.6417   17.8426 C   0  0  1  0  0  0  0  0  0  0  0  0
    9.2833  -14.8636   17.6157 O   0  0  0  0  0  0  0  0  0  0  0  0
    7.6802  -13.5824   18.8856 C   0  0  2  0  0  0  0  0  0  0  0  0
    8.1862  -12.3332   18.3633 N   0  0  0  0  0  0  0  0  0  0  0  0
    8.2921  -13.8939   20.1909 C   0  0  0  0  0  0  0  0  0  0  0  0
    9.4901  -13.5386   20.4040 O   0  0  0  0  0  0  0  0  0  0  0  0
    8.6488  -20.0892   26.2446 N   0  0  0  0  0  0  0  0  0  0  0  0
    8.1454  -18.7639   26.2963 C   0  0  0  0  0  0  0  0  0  0  0  0
    8.6334  -17.8918   27.1007 N   0  0  0  0  0  0  0  0  0  0  0  0
    7.0651  -18.3459   25.4464 N   0  0  0  0  0  0  0  0  0  0  0  0
    6.7181  -16.9456   25.3561 C   0  0  0  0  0  0  0  0  0  0  0  0
    7.8027  -16.1710   24.6047 C   0  0  0  0  0  0  0  0  0  0  0  0
    7.2130  -15.6918   23.2849 C   0  0  0  0  0  0  0  0  0  0  0  0
    8.2559  -14.9348   22.4875 C   0  0  2  0  0  0  0  0  0  0  0  0
    7.6291  -14.5682   21.2327 N   0  0  0  0  0  0  0  0  0  0  0  0
    9.4410  -15.7797   22.3038 C   0  0  0  0  0  0  0  0  0  0  0  0
    9.4423  -16.6924   21.4418 O   0  0  0  0  0  0  0  0  0  0  0  0
    8.3423  -16.9040   27.0223 N   0  0  0  0  0  0  0  0  0  0  0  0
   10.6179  -15.6043   23.0799 C   0  0  2  0  0  0  0  0  0  0  0  0
   11.8072  -16.4364   22.8116 C   0  0  0  0  0  0  0  0  0  0  0  0
   12.7923  -15.6082   22.0469 C   0  0  0  0  0  0  0  0  0  0  0  0
   14.0786  -16.2898   21.7156 C   0  0  0  0  0  0  0  0  0  0  0  0
   15.0727  -15.4768   21.0242 O   0  0  0  0  0  0  0  0  0  0  0  0
   14.8707  -14.2717   20.7700 C   0  0  0  0  0  0  0  0  0  0  0  0
   12.3297  -16.9826   24.0841 O   0  0  0  0  0  0  0  0  0  0  0  0
   13.2808  -18.0186   24.0715 O   0  0  0  0  0  0  0  0  0  0  0  0
   16.2722  -16.0438   20.6359 O   0  0  0  0  0  0  0  0  0  0  0  0
  2  1  1  6
  2  3  1  0
  4  2  1  0
  4  6  1  0
  4  5  1  6
  6  7  2  0
  9 10  2  0
  9  8  1  0
 11  9  1  0
 12 11  1  0
 13 12  1  0
 14 13  1  0
 15 14  1  1
 16  6  1  0
 16 15  1  0
 17 15  1  0
 17 19  1  0
 18 17  2  0
 20 19  1  0
 20 21  1  1
 21 22  1  0
 22 23  1  0
 23 24  2  0
 23 27  1  0
 25 26  1  0
 25 20  1  0
 28 25  2  0
M  END
$$$$
