TRE.pdb
     RDKit          3D

 28 27  0  0  1  0  0  0  0  0999 V2000
    7.7530  -16.0077   26.5118 C   0  0  0  0  0  0  0  0  0  0  0  0
    7.6340  -17.4835   26.3041 C   0  0  1  0  0  0  0  0  0  0  0  0
    7.1340  -18.0647   27.4684 O   0  0  0  0  0  0  0  0  0  0  0  0
    6.8285  -17.8489   25.0843 C   0  0  2  0  0  0  0  0  0  0  0  0
    6.5667  -19.2691   25.1462 N   0  0  0  0  0  0  0  0  0  0  0  0
    7.4917  -17.4903   23.8166 C   0  0  0  0  0  0  0  0  0  0  0  0
    8.2907  -18.3211   23.2893 O   0  0  0  0  0  0  0  0  0  0  0  0
    8.9245  -14.7597   17.4743 N   0  0  0  0  0  0  0  0  0  0  0  0
    8.1548  -13.5914   17.2401 C   0  0  0  0  0  0  0  0  0  0  0  0
    7.6308  -13.3518   16.0939 N   0  0  0  0  0  0  0  0  0  0  0  0
    7.9318  -12.6274   18.2818 N   0  0  0  0  0  0  0  0  0  0  0  0
    7.3318  -13.0399   19.5305 C   0  0  0  0  0  0  0  0  0  0  0  0
    8.1409  -14.1719   20.1669 C   0  0  0  0  0  0  0  0  0  0  0  0
    7.3773  -14.6711   21.3863 C   0  0  0  0  0  0  0  0  0  0  0  0
    8.1261  -15.8126   22.0441 C   0  0  2  0  0  0  0  0  0  0  0  0
    7.2966  -16.2718   23.1409 N   0  0  0  0  0  0  0  0  0  0  0  0
    9.4436  -15.3437   22.4873 C   0  0  0  0  0  0  0  0  0  0  0  0
    9.5493  -14.6192   23.5071 O   0  0  0  0  0  0  0  0  0  0  0  0
    7.0998  -12.4783   15.9465 N   0  0  0  0  0  0  0  0  0  0  0  0
   10.6358  -15.6835   21.7937 C   0  0  1  0  0  0  0  0  0  0  0  0
   11.9152  -15.7650   22.5254 C   0  0  0  0  0  0  0  0  0  0  0  0
   11.7432  -16.7281   23.6586 C   0  0  0  0  0  0  0  0  0  0  0  0
   12.9766  -17.0077   24.4519 C   0  0  0  0  0  0  0  0  0  0  0  0
   12.8540  -18.0311   25.4839 O   0  0  0  0  0  0  0  0  0  0  0  0
   12.0823  -17.8924   26.4549 C   0  0  0  0  0  0  0  0  0  0  0  0
   13.0036  -16.1183   21.5868 O   0  0  0  0  0  0  0  0  0  0  0  0
   14.3397  -15.8187   21.9081 O   0  0  0  0  0  0  0  0  0  0  0  0
   13.6061  -19.1877   25.3951 O   0  0  0  0  0  0  0  0  0  0  0  0
  2  1  1  1
  2  3  1  0
  4  2  1  0
  4  6  1  0
  4  5  1  6
  6  7  2  0
  9 10  2  0
  9  8  1  0
 11  9  1  0
 12 11  1  0
 13 12  1  0
 14 13  1  0
 15 14  1  1
 16  6  1  0
 16 15  1  0
 17 15  1  0
 17 19  1  0
 18 17  2  0
 20 19  1  0
 20 21  1  1
 21 22  1  0
 22 23  1  0
 23 24  2  0
 23 27  1  0
 25 26  1  0
 25 20  1  0
 28 25  2  0
M  END
$$$$
