TRE.pdb
     RDKit          3D

 28 27  0  0  1  0  0  0  0  0999 V2000
    8.6109  -16.0054   27.3237 C   0  0  0  0  0  0  0  0  0  0  0  0
    7.9337  -17.3280   27.1580 C   0  0  1  0  0  0  0  0  0  0  0  0
    7.2133  -17.6149   28.3165 O   0  0  0  0  0  0  0  0  0  0  0  0
    7.0855  -17.4097   25.9153 C   0  0  2  0  0  0  0  0  0  0  0  0
    6.3438  -18.6489   25.9765 N   0  0  0  0  0  0  0  0  0  0  0  0
    7.8668  -17.3246   24.6673 C   0  0  0  0  0  0  0  0  0  0  0  0
    8.5332  -18.3362   24.2940 O   0  0  0  0  0  0  0  0  0  0  0  0
    7.1191  -12.5042   17.7516 N   0  0  0  0  0  0  0  0  0  0  0  0
    7.7862  -13.7441   17.9248 C   0  0  0  0  0  0  0  0  0  0  0  0
    8.4149  -14.3085   16.9594 N   0  0  0  0  0  0  0  0  0  0  0  0
    7.7832  -14.4184   19.1935 N   0  0  0  0  0  0  0  0  0  0  0  0
    7.0251  -13.8752   20.2979 C   0  0  0  0  0  0  0  0  0  0  0  0
    7.1089  -14.8005   21.5135 C   0  0  0  0  0  0  0  0  0  0  0  0
    8.5182  -14.7061   22.0830 C   0  0  0  0  0  0  0  0  0  0  0  0
    8.8898  -15.9982   22.7823 C   0  0  2  0  0  0  0  0  0  0  0  0
    7.9254  -16.1814   23.8492 N   0  0  0  0  0  0  0  0  0  0  0  0
   10.2693  -15.9105   23.2737 C   0  0  0  0  0  0  0  0  0  0  0  0
   10.5550  -15.1494   24.2303 O   0  0  0  0  0  0  0  0  0  0  0  0
    8.9003  -15.2058   17.1200 N   0  0  0  0  0  0  0  0  0  0  0  0
   11.3229  -16.6701   22.6983 C   0  0  2  0  0  0  0  0  0  0  0  0
   12.6951  -16.5439   23.2273 C   0  0  0  0  0  0  0  0  0  0  0  0
   13.1234  -17.8851   23.7361 C   0  0  0  0  0  0  0  0  0  0  0  0
   12.3243  -18.4199   24.8781 C   0  0  0  0  0  0  0  0  0  0  0  0
   12.6894  -19.7528   25.3445 O   0  0  0  0  0  0  0  0  0  0  0  0
   12.7876  -20.0167   26.5603 C   0  0  0  0  0  0  0  0  0  0  0  0
   13.5802  -15.9777   22.1849 O   0  0  0  0  0  0  0  0  0  0  0  0
   14.9061  -15.6272   22.4968 O   0  0  0  0  0  0  0  0  0  0  0  0
   12.9352  -20.7568   24.4265 O   0  0  0  0  0  0  0  0  0  0  0  0
  2  1  1  1
  2  3  1  0
  4  2  1  0
  4  6  1  0
  4  5  1  6
  6  7  2  0
  9 10  2  0
  9  8  1  0
 11  9  1  0
 12 11  1  0
 13 12  1  0
 14 13  1  0
 15 14  1  1
 16  6  1  0
 16 15  1  0
 17 15  1  0
 17 19  1  0
 18 17  2  0
 20 19  1  0
 20 21  1  1
 21 22  1  0
 22 23  1  0
 23 24  2  0
 23 27  1  0
 25 26  1  0
 25 20  1  0
 28 25  2  0
M  END
$$$$
