VVH.pdb
     RDKit          3D

 25 25  0  0  1  0  0  0  0  0999 V2000
    7.1503  -19.9309   16.9595 C   0  0  0  0  0  0  0  0  0  0  0  0
    7.8387  -19.0253   17.9295 C   0  0  2  0  0  0  0  0  0  0  0  0
    7.3009  -19.2699   19.3130 C   0  0  0  0  0  0  0  0  0  0  0  0
    7.7331  -17.5680   17.5759 C   0  0  2  0  0  0  0  0  0  0  0  0
    8.2971  -17.4067   16.2472 N   0  0  0  0  0  0  0  0  0  0  0  0
    8.4588  -16.7002   18.5366 C   0  0  0  0  0  0  0  0  0  0  0  0
    9.7121  -16.7394   18.6296 O   0  0  0  0  0  0  0  0  0  0  0  0
    7.9578  -13.2500   22.1108 C   0  0  0  0  0  0  0  0  0  0  0  0
    7.4486  -13.9736   20.8874 C   0  0  1  0  0  0  0  0  0  0  0  0
    7.0621  -13.0245   19.7844 C   0  0  0  0  0  0  0  0  0  0  0  0
    8.4456  -15.0185   20.4139 C   0  0  2  0  0  0  0  0  0  0  0  0
    7.7744  -15.7936   19.3873 N   0  0  0  0  0  0  0  0  0  0  0  0
    8.8257  -15.8682   21.5735 C   0  0  0  0  0  0  0  0  0  0  0  0
    7.9788  -16.6090   22.1285 O   0  0  0  0  0  0  0  0  0  0  0  0
   10.1429  -15.8603   22.0738 N   0  0  0  0  0  0  0  0  0  0  0  0
   10.4976  -16.7942   23.1340 C   0  0  1  0  0  0  0  0  0  0  0  0
   11.6610  -17.6459   22.7419 C   0  0  0  0  0  0  0  0  0  0  0  0
   12.0532  -18.5308   23.8527 C   0  0  0  0  0  0  0  0  0  0  0  0
   11.6480  -18.5544   25.1646 C   0  0  0  0  0  0  0  0  0  0  0  0
   12.2872  -19.5182   25.8454 N   0  0  0  0  0  0  0  0  0  0  0  0
   13.1085  -20.1229   24.9799 C   0  0  0  0  0  0  0  0  0  0  0  0
   12.9775  -19.5370   23.7736 N   0  0  0  0  0  0  0  0  0  0  0  0
   10.7135  -16.0980   24.4107 C   0  0  0  0  0  0  0  0  0  0  0  0
   10.4846  -16.7167   25.6519 O   0  0  0  0  0  0  0  0  0  0  0  0
   11.1109  -14.9227   24.4522 O   0  0  0  0  0  0  0  0  0  0  0  0
  2  1  1  6
  2  3  1  0
  4  2  1  0
  4  5  1  6
  6 12  1  0
  6  4  1  0
  7  6  2  0
  9 11  1  0
  9  8  1  1
 10  9  1  0
 11 12  1  6
 13 11  1  0
 14 13  2  0
 15 13  1  0
 16 15  1  0
 16 17  1  6
 18 17  1  0
 18 22  1  0
 19 20  1  0
 19 18  2  0
 20 21  1  0
 21 22  2  0
 23 16  1  0
 23 24  1  0
 25 23  2  0
M  END
$$$$
