VVH.pdb
     RDKit          3D

 25 25  0  0  1  0  0  0  0  0999 V2000
    9.1313  -19.1661   15.7267 C   0  0  0  0  0  0  0  0  0  0  0  0
    9.5335  -18.2791   16.8609 C   0  0  2  0  0  0  0  0  0  0  0  0
    8.9420  -18.8024   18.1414 C   0  0  0  0  0  0  0  0  0  0  0  0
    9.1604  -16.8365   16.6621 C   0  0  2  0  0  0  0  0  0  0  0  0
    9.8329  -16.3812   15.4579 N   0  0  0  0  0  0  0  0  0  0  0  0
    9.5608  -15.9866   17.8110 C   0  0  0  0  0  0  0  0  0  0  0  0
   10.7666  -15.6930   18.0134 O   0  0  0  0  0  0  0  0  0  0  0  0
    7.9537  -13.2793   21.6733 C   0  0  0  0  0  0  0  0  0  0  0  0
    7.7659  -13.9083   20.3137 C   0  0  1  0  0  0  0  0  0  0  0  0
    7.4126  -12.8924   19.2603 C   0  0  0  0  0  0  0  0  0  0  0  0
    8.9786  -14.7357   19.9204 C   0  0  2  0  0  0  0  0  0  0  0  0
    8.6065  -15.4709   18.7261 N   0  0  0  0  0  0  0  0  0  0  0  0
    9.3077  -15.6544   21.0423 C   0  0  0  0  0  0  0  0  0  0  0  0
    8.5286  -16.5867   21.3552 O   0  0  0  0  0  0  0  0  0  0  0  0
   10.4994  -15.4987   21.7777 N   0  0  0  0  0  0  0  0  0  0  0  0
   10.7899  -16.4378   22.8527 C   0  0  1  0  0  0  0  0  0  0  0  0
   12.2619  -16.6245   23.0289 C   0  0  0  0  0  0  0  0  0  0  0  0
   12.8284  -17.3757   21.8950 C   0  0  0  0  0  0  0  0  0  0  0  0
   12.2140  -17.9906   20.8318 C   0  0  0  0  0  0  0  0  0  0  0  0
   13.1161  -18.5904   20.0397 N   0  0  0  0  0  0  0  0  0  0  0  0
   14.3173  -18.3679   20.5843 C   0  0  0  0  0  0  0  0  0  0  0  0
   14.1585  -17.6361   21.7045 N   0  0  0  0  0  0  0  0  0  0  0  0
   10.1176  -16.0480   24.1006 C   0  0  0  0  0  0  0  0  0  0  0  0
    9.3520  -14.8739   24.2063 O   0  0  0  0  0  0  0  0  0  0  0  0
   10.1955  -16.7426   25.1264 O   0  0  0  0  0  0  0  0  0  0  0  0
  2  1  1  6
  2  3  1  0
  4  2  1  0
  4  5  1  6
  6 12  1  0
  6  4  1  0
  7  6  2  0
  9 11  1  0
  9  8  1  1
 10  9  1  0
 11 12  1  6
 13 11  1  0
 14 13  2  0
 15 13  1  0
 16 15  1  0
 16 17  1  1
 18 17  1  0
 18 22  1  0
 19 20  1  0
 19 18  2  0
 20 21  1  0
 21 22  2  0
 23 16  1  0
 23 24  1  0
 25 23  2  0
M  END
$$$$
