VVH.pdb
     RDKit          3D

 25 25  0  0  1  0  0  0  0  0999 V2000
    7.8672  -16.5561   20.9924 C   0  0  0  0  0  0  0  0  0  0  0  0
    6.7325  -15.5870   21.0829 C   0  0  2  0  0  0  0  0  0  0  0  0
    5.9265  -15.6380   19.8136 C   0  0  0  0  0  0  0  0  0  0  0  0
    7.1636  -14.1765   21.3739 C   0  0  2  0  0  0  0  0  0  0  0  0
    8.0125  -13.7517   20.2745 N   0  0  0  0  0  0  0  0  0  0  0  0
    7.9082  -14.0665   22.6529 C   0  0  0  0  0  0  0  0  0  0  0  0
    9.1653  -14.0819   22.6767 O   0  0  0  0  0  0  0  0  0  0  0  0
    7.5976  -13.0304   27.5051 C   0  0  0  0  0  0  0  0  0  0  0  0
    6.9818  -13.1599   26.1326 C   0  0  1  0  0  0  0  0  0  0  0  0
    6.4780  -11.8416   25.6081 C   0  0  0  0  0  0  0  0  0  0  0  0
    7.9419  -13.8276   25.1619 C   0  0  2  0  0  0  0  0  0  0  0  0
    7.2386  -13.9398   23.8977 N   0  0  0  0  0  0  0  0  0  0  0  0
    8.3047  -15.1650   25.7012 C   0  0  0  0  0  0  0  0  0  0  0  0
    7.4273  -16.0454   25.8720 O   0  0  0  0  0  0  0  0  0  0  0  0
    9.6394  -15.4728   26.0317 N   0  0  0  0  0  0  0  0  0  0  0  0
    9.9419  -16.7866   26.5833 C   0  0  1  0  0  0  0  0  0  0  0  0
   11.1653  -17.3715   25.9557 C   0  0  0  0  0  0  0  0  0  0  0  0
   11.0185  -17.4305   24.4908 C   0  0  0  0  0  0  0  0  0  0  0  0
   10.2683  -18.2649   23.6990 C   0  0  0  0  0  0  0  0  0  0  0  0
   10.4543  -17.9860   22.3995 N   0  0  0  0  0  0  0  0  0  0  0  0
   11.3243  -16.9716   22.3425 C   0  0  0  0  0  0  0  0  0  0  0  0
   11.6731  -16.6264   23.5975 N   0  0  0  0  0  0  0  0  0  0  0  0
   10.0258  -16.7450   28.0504 C   0  0  0  0  0  0  0  0  0  0  0  0
   10.1297  -17.9099   28.8302 O   0  0  0  0  0  0  0  0  0  0  0  0
   10.0086  -15.6713   28.6732 O   0  0  0  0  0  0  0  0  0  0  0  0
  2  1  1  6
  2  3  1  0
  4  2  1  0
  4  5  1  6
  6 12  1  0
  6  4  1  0
  7  6  2  0
  9 11  1  0
  9  8  1  1
 10  9  1  0
 11 12  1  6
 13 11  1  0
 14 13  2  0
 15 13  1  0
 16 15  1  0
 16 17  1  6
 18 17  1  0
 18 22  1  0
 19 20  1  0
 19 18  2  0
 20 21  1  0
 21 22  2  0
 23 16  1  0
 23 24  1  0
 25 23  2  0
M  END
$$$$
