VVH.pdb
     RDKit          3D

 25 25  0  0  1  0  0  0  0  0999 V2000
    7.9242  -17.0930   21.8341 C   0  0  0  0  0  0  0  0  0  0  0  0
    6.8896  -16.0626   21.5132 C   0  0  2  0  0  0  0  0  0  0  0  0
    6.3038  -16.3451   20.1566 C   0  0  0  0  0  0  0  0  0  0  0  0
    7.4012  -14.6507   21.5798 C   0  0  2  0  0  0  0  0  0  0  0  0
    8.3902  -14.5024   20.5264 N   0  0  0  0  0  0  0  0  0  0  0  0
    8.0167  -14.3347   22.8927 C   0  0  0  0  0  0  0  0  0  0  0  0
    9.2438  -14.5186   23.0965 O   0  0  0  0  0  0  0  0  0  0  0  0
    7.2255  -12.6416   27.5175 C   0  0  0  0  0  0  0  0  0  0  0  0
    6.8172  -12.7835   26.0708 C   0  0  1  0  0  0  0  0  0  0  0  0
    6.6583  -11.4497   25.3908 C   0  0  0  0  0  0  0  0  0  0  0  0
    7.7732  -13.6942   25.3183 C   0  0  2  0  0  0  0  0  0  0  0  0
    7.2524  -13.8145   23.9693 N   0  0  0  0  0  0  0  0  0  0  0  0
    7.8092  -15.0124   26.0053 C   0  0  0  0  0  0  0  0  0  0  0  0
    7.0228  -15.9305   25.6694 O   0  0  0  0  0  0  0  0  0  0  0  0
    8.7254  -15.2595   27.0469 N   0  0  0  0  0  0  0  0  0  0  0  0
    9.3924  -16.5532   27.1042 C   0  0  1  0  0  0  0  0  0  0  0  0
   10.0661  -16.8756   25.8100 C   0  0  0  0  0  0  0  0  0  0  0  0
   10.6956  -18.2064   25.8708 C   0  0  0  0  0  0  0  0  0  0  0  0
   10.7975  -19.1022   26.9067 C   0  0  0  0  0  0  0  0  0  0  0  0
   11.4852  -20.1916   26.5309 N   0  0  0  0  0  0  0  0  0  0  0  0
   11.8319  -20.0078   25.2521 C   0  0  0  0  0  0  0  0  0  0  0  0
   11.3619  -18.8137   24.8411 N   0  0  0  0  0  0  0  0  0  0  0  0
   10.3079  -16.6333   28.2516 C   0  0  0  0  0  0  0  0  0  0  0  0
   10.5018  -17.8220   28.9764 O   0  0  0  0  0  0  0  0  0  0  0  0
   10.9570  -15.6477   28.6366 O   0  0  0  0  0  0  0  0  0  0  0  0
  2  1  1  6
  2  3  1  0
  4  2  1  0
  4  5  1  6
  6 12  1  0
  6  4  1  0
  7  6  2  0
  9 11  1  0
  9  8  1  1
 10  9  1  0
 11 12  1  6
 13 11  1  0
 14 13  2  0
 15 13  1  0
 16 15  1  0
 16 17  1  6
 18 17  1  0
 18 22  1  0
 19 20  1  0
 19 18  2  0
 20 21  1  0
 21 22  2  0
 23 16  1  0
 23 24  1  0
 25 23  2  0
M  END
$$$$
