VVH.pdb
     RDKit          3D

 25 25  0  0  1  0  0  0  0  0999 V2000
    7.8778  -19.4437   15.8802 C   0  0  0  0  0  0  0  0  0  0  0  0
    8.5523  -18.5574   16.8775 C   0  0  2  0  0  0  0  0  0  0  0  0
    8.1681  -18.9832   18.2683 C   0  0  0  0  0  0  0  0  0  0  0  0
    8.2651  -17.0952   16.6787 C   0  0  2  0  0  0  0  0  0  0  0  0
    8.7784  -16.7311   15.3696 N   0  0  0  0  0  0  0  0  0  0  0  0
    8.9007  -16.2488   17.7189 C   0  0  0  0  0  0  0  0  0  0  0  0
   10.1496  -16.1136   17.7733 O   0  0  0  0  0  0  0  0  0  0  0  0
    8.0485  -13.3991   21.7244 C   0  0  0  0  0  0  0  0  0  0  0  0
    7.6628  -13.9313   20.3652 C   0  0  1  0  0  0  0  0  0  0  0  0
    7.3372  -12.8284   19.3934 C   0  0  0  0  0  0  0  0  0  0  0  0
    8.7270  -14.8707   19.8222 C   0  0  2  0  0  0  0  0  0  0  0  0
    8.1317  -15.5589   18.6920 N   0  0  0  0  0  0  0  0  0  0  0  0
    9.1090  -15.8237   20.8977 C   0  0  0  0  0  0  0  0  0  0  0  0
    8.2913  -16.6790   21.3147 O   0  0  0  0  0  0  0  0  0  0  0  0
   10.3955  -15.7876   21.4714 N   0  0  0  0  0  0  0  0  0  0  0  0
   10.7568  -16.8030   22.4514 C   0  0  1  0  0  0  0  0  0  0  0  0
   12.1442  -17.3091   22.2240 C   0  0  0  0  0  0  0  0  0  0  0  0
   12.2293  -18.0295   20.9415 C   0  0  0  0  0  0  0  0  0  0  0  0
   11.7007  -19.2370   20.5560 C   0  0  0  0  0  0  0  0  0  0  0  0
   12.0520  -19.5320   19.2948 N   0  0  0  0  0  0  0  0  0  0  0  0
   12.8087  -18.5195   18.8575 C   0  0  0  0  0  0  0  0  0  0  0  0
   12.9240  -17.6057   19.8411 N   0  0  0  0  0  0  0  0  0  0  0  0
   10.5510  -16.3194   23.8243 C   0  0  0  0  0  0  0  0  0  0  0  0
   10.5770  -17.1797   24.9356 O   0  0  0  0  0  0  0  0  0  0  0  0
   10.3433  -15.1200   24.0677 O   0  0  0  0  0  0  0  0  0  0  0  0
  2  1  1  6
  2  3  1  0
  4  2  1  0
  4  5  1  6
  6 12  1  0
  6  4  1  0
  7  6  2  0
  9 11  1  0
  9  8  1  1
 10  9  1  0
 11 12  1  6
 13 11  1  0
 14 13  2  0
 15 13  1  0
 16 15  1  0
 16 17  1  1
 18 17  1  0
 18 22  1  0
 19 20  1  0
 19 18  2  0
 20 21  1  0
 21 22  2  0
 23 16  1  0
 23 24  1  0
 25 23  2  0
M  END
$$$$
