VVH.pdb
     RDKit          3D

 25 25  0  0  1  0  0  0  0  0999 V2000
    7.6798  -16.9911   21.4917 C   0  0  0  0  0  0  0  0  0  0  0  0
    6.4716  -16.1348   21.6961 C   0  0  2  0  0  0  0  0  0  0  0  0
    5.4740  -16.4052   20.6030 C   0  0  0  0  0  0  0  0  0  0  0  0
    6.7782  -14.6652   21.7743 C   0  0  2  0  0  0  0  0  0  0  0  0
    7.4023  -14.2895   20.5177 N   0  0  0  0  0  0  0  0  0  0  0  0
    7.6857  -14.3372   22.9018 C   0  0  0  0  0  0  0  0  0  0  0  0
    8.9294  -14.2593   22.7338 O   0  0  0  0  0  0  0  0  0  0  0  0
    7.9963  -12.6728   27.5707 C   0  0  0  0  0  0  0  0  0  0  0  0
    7.2142  -12.9921   26.3193 C   0  0  1  0  0  0  0  0  0  0  0  0
    6.6173  -11.7609   25.6913 C   0  0  0  0  0  0  0  0  0  0  0  0
    8.0582  -13.7810   25.3318 C   0  0  2  0  0  0  0  0  0  0  0  0
    7.1930  -14.0984   24.2111 N   0  0  0  0  0  0  0  0  0  0  0  0
    8.5463  -15.0130   26.0062 C   0  0  0  0  0  0  0  0  0  0  0  0
    7.7368  -15.8574   26.4598 O   0  0  0  0  0  0  0  0  0  0  0  0
    9.9261  -15.2592   26.1506 N   0  0  0  0  0  0  0  0  0  0  0  0
   10.3560  -16.4608   26.8530 C   0  0  1  0  0  0  0  0  0  0  0  0
   11.7098  -16.9012   26.3991 C   0  0  0  0  0  0  0  0  0  0  0  0
   11.7212  -17.1233   24.9425 C   0  0  0  0  0  0  0  0  0  0  0  0
   10.8003  -17.7264   24.1215 C   0  0  0  0  0  0  0  0  0  0  0  0
   11.2289  -17.7387   22.8499 N   0  0  0  0  0  0  0  0  0  0  0  0
   12.4275  -17.1450   22.8402 C   0  0  0  0  0  0  0  0  0  0  0  0
   12.7369  -16.7687   24.0965 N   0  0  0  0  0  0  0  0  0  0  0  0
   10.2795  -16.2853   28.3106 C   0  0  0  0  0  0  0  0  0  0  0  0
   10.2594  -17.3749   29.1984 O   0  0  0  0  0  0  0  0  0  0  0  0
   10.2287  -15.1584   28.8288 O   0  0  0  0  0  0  0  0  0  0  0  0
  2  1  1  6
  2  3  1  0
  4  2  1  0
  4  5  1  6
  6 12  1  0
  6  4  1  0
  7  6  2  0
  9 11  1  0
  9  8  1  1
 10  9  1  0
 11 12  1  6
 13 11  1  0
 14 13  2  0
 15 13  1  0
 16 15  1  0
 16 17  1  1
 18 17  1  0
 18 22  1  0
 19 20  1  0
 19 18  2  0
 20 21  1  0
 21 22  2  0
 23 16  1  0
 23 24  1  0
 25 23  2  0
M  END
$$$$
