VVH.pdb
     RDKit          3D

 25 25  0  0  1  0  0  0  0  0999 V2000
    9.3484  -19.3134   18.4479 C   0  0  0  0  0  0  0  0  0  0  0  0
    8.1377  -18.6420   17.8836 C   0  0  2  0  0  0  0  0  0  0  0  0
    7.5274  -19.5168   16.8226 C   0  0  0  0  0  0  0  0  0  0  0  0
    8.4073  -17.2672   17.3385 C   0  0  2  0  0  0  0  0  0  0  0  0
    9.3738  -17.4134   16.2642 N   0  0  0  0  0  0  0  0  0  0  0  0
    8.9423  -16.3455   18.3713 C   0  0  0  0  0  0  0  0  0  0  0  0
   10.1731  -16.0997   18.4486 O   0  0  0  0  0  0  0  0  0  0  0  0
    7.7917  -13.2601   22.1135 C   0  0  0  0  0  0  0  0  0  0  0  0
    7.4528  -13.9945   20.8386 C   0  0  1  0  0  0  0  0  0  0  0  0
    7.0196  -13.0595   19.7410 C   0  0  0  0  0  0  0  0  0  0  0  0
    8.5993  -14.8911   20.4011 C   0  0  2  0  0  0  0  0  0  0  0  0
    8.0939  -15.7050   19.3114 N   0  0  0  0  0  0  0  0  0  0  0  0
    9.0115  -15.7292   21.5581 C   0  0  0  0  0  0  0  0  0  0  0  0
    8.2458  -16.6129   22.0128 O   0  0  0  0  0  0  0  0  0  0  0  0
   10.2689  -15.5501   22.1683 N   0  0  0  0  0  0  0  0  0  0  0  0
   10.5772  -16.3027   23.3768 C   0  0  1  0  0  0  0  0  0  0  0  0
   12.0430  -16.5688   23.4927 C   0  0  0  0  0  0  0  0  0  0  0  0
   12.4759  -17.5388   22.4715 C   0  0  0  0  0  0  0  0  0  0  0  0
   11.7477  -18.2704   21.5658 C   0  0  0  0  0  0  0  0  0  0  0  0
   12.5489  -19.0615   20.8355 N   0  0  0  0  0  0  0  0  0  0  0  0
   13.7980  -18.8471   21.2635 C   0  0  0  0  0  0  0  0  0  0  0  0
   13.7685  -17.9305   22.2507 N   0  0  0  0  0  0  0  0  0  0  0  0
   10.0273  -15.6459   24.5716 C   0  0  0  0  0  0  0  0  0  0  0  0
    9.9393  -16.2978   25.8138 O   0  0  0  0  0  0  0  0  0  0  0  0
    9.6120  -14.4765   24.5386 O   0  0  0  0  0  0  0  0  0  0  0  0
  2  1  1  6
  2  3  1  0
  4  2  1  0
  4  5  1  6
  6 12  1  0
  6  4  1  0
  7  6  2  0
  9 11  1  0
  9  8  1  1
 10  9  1  0
 11 12  1  6
 13 11  1  0
 14 13  2  0
 15 13  1  0
 16 15  1  0
 16 17  1  1
 18 17  1  0
 18 22  1  0
 19 20  1  0
 19 18  2  0
 20 21  1  0
 21 22  2  0
 23 16  1  0
 23 24  1  0
 25 23  2  0
M  END
$$$$
