HLS.pdb
     RDKit          3D

 25 25  0  0  1  0  0  0  0  0999 V2000
   33.9327  -11.6732  -18.5627 N   0  0  0  0  0  0  0  0  0  0  0  0
   32.9035  -10.8808  -17.9408 C   0  0  1  0  0  0  0  0  0  0  0  0
   31.8709  -11.7947  -17.3176 C   0  0  0  0  0  0  0  0  0  0  0  0
   31.1814  -12.5083  -18.4238 C   0  0  0  0  0  0  0  0  0  0  0  0
   31.3789  -13.8187  -18.7543 C   0  0  0  0  0  0  0  0  0  0  0  0
   30.5769  -14.0983  -19.8058 N   0  0  0  0  0  0  0  0  0  0  0  0
   29.8925  -12.9885  -20.1266 C   0  0  0  0  0  0  0  0  0  0  0  0
   30.2642  -12.0110  -19.2770 N   0  0  0  0  0  0  0  0  0  0  0  0
   33.5257   -9.9884  -16.9246 C   0  0  0  0  0  0  0  0  0  0  0  0
   32.7905   -9.2052  -16.2324 O   0  0  0  0  0  0  0  0  0  0  0  0
   35.3287  -10.2060  -12.9209 C   0  0  0  0  0  0  0  0  0  0  0  0
   36.1428  -10.8734  -14.0399 C   0  0  2  0  0  0  0  0  0  0  0  0
   37.2676  -11.6082  -13.3422 C   0  0  0  0  0  0  0  0  0  0  0  0
   36.6186   -9.8202  -14.9670 C   0  0  0  0  0  0  0  0  0  0  0  0
   35.6021   -9.1515  -15.8166 C   0  0  2  0  0  0  0  0  0  0  0  0
   34.9362  -10.0244  -16.7417 N   0  0  0  0  0  0  0  0  0  0  0  0
   36.0705   -7.9244  -16.5094 C   0  0  0  0  0  0  0  0  0  0  0  0
   36.9623   -7.9682  -17.3948 O   0  0  0  0  0  0  0  0  0  0  0  0
   33.7198   -4.8757  -17.3059 O   0  0  0  0  0  0  0  0  0  0  0  0
   35.0345   -4.9096  -17.8046 C   0  0  0  0  0  0  0  0  0  0  0  0
   35.9306   -5.4138  -16.6949 C   0  0  2  0  0  0  0  0  0  0  0  0
   35.5055   -6.6766  -16.1703 N   0  0  0  0  0  0  0  0  0  0  0  0
   36.1141   -4.3946  -15.6344 C   0  0  0  0  0  0  0  0  0  0  0  0
   36.8692   -3.2455  -15.9059 O   0  0  0  0  0  0  0  0  0  0  0  0
   35.6327   -4.4896  -14.4909 O   0  0  0  0  0  0  0  0  0  0  0  0
  2  1  1  1
  2  9  1  0
  3  2  1  0
  4  3  1  0
  5  4  2  0
  6  5  1  0
  7  6  1  0
  7  8  2  0
  8  4  1  0
  9 10  2  0
 12 11  1  1
 12 14  1  0
 12 13  1  0
 15 14  1  6
 16  9  1  0
 16 15  1  0
 17 15  1  0
 17 18  2  0
 19 20  1  0
 21 20  1  6
 21 22  1  0
 22 17  1  0
 23 24  1  0
 23 21  1  0
 25 23  2  0
M  END
$$$$
