HLS.pdb
     RDKit          3D

 25 25  0  0  1  0  0  0  0  0999 V2000
   18.3283  -13.0548  -18.2317 N   0  0  0  0  0  0  0  0  0  0  0  0
   19.1732  -11.9204  -18.5023 C   0  0  1  0  0  0  0  0  0  0  0  0
   18.5890  -11.1176  -19.6442 C   0  0  0  0  0  0  0  0  0  0  0  0
   18.6303  -11.9736  -20.8582 C   0  0  0  0  0  0  0  0  0  0  0  0
   17.5519  -12.2797  -21.6384 C   0  0  0  0  0  0  0  0  0  0  0  0
   17.9876  -13.0752  -22.6406 N   0  0  0  0  0  0  0  0  0  0  0  0
   19.3088  -13.2631  -22.4916 C   0  0  0  0  0  0  0  0  0  0  0  0
   19.7039  -12.5859  -21.3959 N   0  0  0  0  0  0  0  0  0  0  0  0
   19.2952  -11.1003  -17.2659 C   0  0  0  0  0  0  0  0  0  0  0  0
   18.2568  -10.8526  -16.5634 O   0  0  0  0  0  0  0  0  0  0  0  0
   23.5414   -9.5265  -13.1500 C   0  0  0  0  0  0  0  0  0  0  0  0
   22.2073   -9.1141  -13.7906 C   0  0  2  0  0  0  0  0  0  0  0  0
   21.1790   -9.2041  -12.6833 C   0  0  0  0  0  0  0  0  0  0  0  0
   21.9282  -10.0269  -14.9237 C   0  0  0  0  0  0  0  0  0  0  0  0
   20.7425   -9.7259  -15.7640 C   0  0  2  0  0  0  0  0  0  0  0  0
   20.5737  -10.6042  -16.8869 N   0  0  0  0  0  0  0  0  0  0  0  0
   20.6188   -8.3094  -16.1924 C   0  0  0  0  0  0  0  0  0  0  0  0
   21.4312   -7.7932  -17.0016 O   0  0  0  0  0  0  0  0  0  0  0  0
   16.9699   -6.4660  -15.7178 O   0  0  0  0  0  0  0  0  0  0  0  0
   17.8947   -6.0301  -16.6838 C   0  0  0  0  0  0  0  0  0  0  0  0
   19.2782   -6.1765  -16.0896 C   0  0  2  0  0  0  0  0  0  0  0  0
   19.5672   -7.5187  -15.6827 N   0  0  0  0  0  0  0  0  0  0  0  0
   19.5144   -5.1942  -15.0049 C   0  0  0  0  0  0  0  0  0  0  0  0
   19.3686   -3.8259  -15.2703 O   0  0  0  0  0  0  0  0  0  0  0  0
   19.8412   -5.5069  -13.8457 O   0  0  0  0  0  0  0  0  0  0  0  0
  2  1  1  1
  2  9  1  0
  3  2  1  0
  4  3  1  0
  5  4  2  0
  6  5  1  0
  7  6  1  0
  7  8  2  0
  8  4  1  0
  9 10  2  0
 12 11  1  1
 12 14  1  0
 12 13  1  0
 15 14  1  6
 16  9  1  0
 16 15  1  0
 17 15  1  0
 17 18  2  0
 19 20  1  0
 21 20  1  1
 21 22  1  0
 22 17  1  0
 23 24  1  0
 23 21  1  0
 25 23  2  0
M  END
$$$$
