HLS.pdb
     RDKit          3D

 25 25  0  0  1  0  0  0  0  0999 V2000
   18.6360  -12.5653  -16.4931 N   0  0  0  0  0  0  0  0  0  0  0  0
   19.3627  -11.5800  -17.2514 C   0  0  1  0  0  0  0  0  0  0  0  0
   18.4947  -11.0738  -18.3829 C   0  0  0  0  0  0  0  0  0  0  0  0
   18.3242  -12.1906  -19.3482 C   0  0  0  0  0  0  0  0  0  0  0  0
   17.3416  -13.1372  -19.2859 C   0  0  0  0  0  0  0  0  0  0  0  0
   17.5181  -13.9762  -20.3309 N   0  0  0  0  0  0  0  0  0  0  0  0
   18.5868  -13.5645  -21.0319 C   0  0  0  0  0  0  0  0  0  0  0  0
   19.0824  -12.4669  -20.4278 N   0  0  0  0  0  0  0  0  0  0  0  0
   19.7734  -10.4744  -16.3430 C   0  0  0  0  0  0  0  0  0  0  0  0
   19.0400  -10.1698  -15.3419 O   0  0  0  0  0  0  0  0  0  0  0  0
   22.8434   -9.9929  -13.4898 C   0  0  0  0  0  0  0  0  0  0  0  0
   23.4555   -9.8233  -14.8886 C   0  0  2  0  0  0  0  0  0  0  0  0
   24.9482   -9.7021  -14.6679 C   0  0  0  0  0  0  0  0  0  0  0  0
   22.8583   -8.6236  -15.5206 C   0  0  0  0  0  0  0  0  0  0  0  0
   21.4025   -8.6585  -15.8065 C   0  0  2  0  0  0  0  0  0  0  0  0
   20.9827   -9.7731  -16.6080 N   0  0  0  0  0  0  0  0  0  0  0  0
   20.8366   -7.3943  -16.3421 C   0  0  0  0  0  0  0  0  0  0  0  0
   21.0054   -7.0534  -17.5406 O   0  0  0  0  0  0  0  0  0  0  0  0
   17.2932   -6.2156  -15.9263 O   0  0  0  0  0  0  0  0  0  0  0  0
   18.0614   -5.1804  -15.3638 C   0  0  0  0  0  0  0  0  0  0  0  0
   19.4730   -5.3225  -15.8891 C   0  0  2  0  0  0  0  0  0  0  0  0
   20.0911   -6.5513  -15.4909 N   0  0  0  0  0  0  0  0  0  0  0  0
   20.3020   -4.1395  -15.5566 C   0  0  0  0  0  0  0  0  0  0  0  0
   19.8812   -2.8663  -15.9641 O   0  0  0  0  0  0  0  0  0  0  0  0
   21.3725   -4.1987  -14.9251 O   0  0  0  0  0  0  0  0  0  0  0  0
  2  1  1  1
  2  9  1  0
  3  2  1  0
  4  3  1  0
  5  4  2  0
  6  5  1  0
  7  6  1  0
  7  8  2  0
  8  4  1  0
  9 10  2  0
 12 11  1  1
 12 14  1  0
 12 13  1  0
 15 14  1  6
 16  9  1  0
 16 15  1  0
 17 15  1  0
 17 18  2  0
 19 20  1  0
 21 20  1  1
 21 22  1  0
 22 17  1  0
 23 24  1  0
 23 21  1  0
 25 23  2  0
M  END
$$$$
