HLS.pdb
     RDKit          3D

 25 25  0  0  1  0  0  0  0  0999 V2000
   20.8551  -11.6321  -19.4347 N   0  0  0  0  0  0  0  0  0  0  0  0
   21.8415  -10.5854  -19.5081 C   0  0  1  0  0  0  0  0  0  0  0  0
   21.4320   -9.5797  -20.5621 C   0  0  0  0  0  0  0  0  0  0  0  0
   21.5419  -10.2494  -21.8841 C   0  0  0  0  0  0  0  0  0  0  0  0
   20.4855  -10.5947  -22.6780 C   0  0  0  0  0  0  0  0  0  0  0  0
   20.9859  -11.1786  -23.7896 N   0  0  0  0  0  0  0  0  0  0  0  0
   22.3251  -11.1986  -23.6943 C   0  0  0  0  0  0  0  0  0  0  0  0
   22.6669  -10.6274  -22.5229 N   0  0  0  0  0  0  0  0  0  0  0  0
   21.9736   -9.9483  -18.1692 C   0  0  0  0  0  0  0  0  0  0  0  0
   20.9373   -9.7824  -17.4400 O   0  0  0  0  0  0  0  0  0  0  0  0
   24.2741  -11.2819  -14.6079 C   0  0  0  0  0  0  0  0  0  0  0  0
   25.1542  -10.6303  -15.6854 C   0  0  2  0  0  0  0  0  0  0  0  0
   26.5806  -10.8196  -15.2151 C   0  0  0  0  0  0  0  0  0  0  0  0
   24.7644   -9.2066  -15.8127 C   0  0  0  0  0  0  0  0  0  0  0  0
   23.4530   -8.9138  -16.4428 C   0  0  2  0  0  0  0  0  0  0  0  0
   23.2594   -9.5333  -17.7232 N   0  0  0  0  0  0  0  0  0  0  0  0
   23.0928   -7.4745  -16.5051 C   0  0  0  0  0  0  0  0  0  0  0  0
   23.4825   -6.7387  -17.4474 O   0  0  0  0  0  0  0  0  0  0  0  0
   20.1449   -3.9719  -15.5359 O   0  0  0  0  0  0  0  0  0  0  0  0
   20.4015   -5.3544  -15.5028 C   0  0  0  0  0  0  0  0  0  0  0  0
   21.9006   -5.5383  -15.4156 C   0  0  2  0  0  0  0  0  0  0  0  0
   22.2950   -6.9132  -15.4856 N   0  0  0  0  0  0  0  0  0  0  0  0
   22.4686   -4.8472  -14.2336 C   0  0  0  0  0  0  0  0  0  0  0  0
   22.7974   -3.4878  -14.3220 O   0  0  0  0  0  0  0  0  0  0  0  0
   22.6794   -5.4032  -13.1406 O   0  0  0  0  0  0  0  0  0  0  0  0
  2  1  1  1
  2  9  1  0
  3  2  1  0
  4  3  1  0
  5  4  2  0
  6  5  1  0
  7  6  1  0
  7  8  2  0
  8  4  1  0
  9 10  2  0
 12 11  1  1
 12 14  1  0
 12 13  1  0
 15 14  1  6
 16  9  1  0
 16 15  1  0
 17 15  1  0
 17 18  2  0
 19 20  1  0
 21 20  1  1
 21 22  1  0
 22 17  1  0
 23 24  1  0
 23 21  1  0
 25 23  2  0
M  END
$$$$
