HLS.pdb
     RDKit          3D

 25 25  0  0  1  0  0  0  0  0999 V2000
   36.6468  -37.4821   -3.8764 N   0  0  0  0  0  0  0  0  0  0  0  0
   35.2688  -37.7887   -4.1606 C   0  0  1  0  0  0  0  0  0  0  0  0
   34.9319  -39.1562   -3.6073 C   0  0  0  0  0  0  0  0  0  0  0  0
   35.5976  -40.1640   -4.4731 C   0  0  0  0  0  0  0  0  0  0  0  0
   35.3299  -40.3579   -5.7983 C   0  0  0  0  0  0  0  0  0  0  0  0
   36.1322  -41.3549   -6.2337 N   0  0  0  0  0  0  0  0  0  0  0  0
   36.8852  -41.7758   -5.2047 C   0  0  0  0  0  0  0  0  0  0  0  0
   36.5566  -41.0437   -4.1224 N   0  0  0  0  0  0  0  0  0  0  0  0
   34.4042  -36.7324   -3.5666 C   0  0  0  0  0  0  0  0  0  0  0  0
   34.6559  -36.2910   -2.3941 O   0  0  0  0  0  0  0  0  0  0  0  0
   33.4639  -32.5869   -4.9666 C   0  0  0  0  0  0  0  0  0  0  0  0
   32.6938  -33.6597   -5.7515 C   0  0  2  0  0  0  0  0  0  0  0  0
   31.9591  -32.9148   -6.8455 C   0  0  0  0  0  0  0  0  0  0  0  0
   31.7887  -34.3672   -4.8159 C   0  0  0  0  0  0  0  0  0  0  0  0
   32.4153  -35.2378   -3.7903 C   0  0  2  0  0  0  0  0  0  0  0  0
   33.3066  -36.2306   -4.3203 N   0  0  0  0  0  0  0  0  0  0  0  0
   31.4692  -35.8543   -2.8259 C   0  0  0  0  0  0  0  0  0  0  0  0
   31.0054  -37.0092   -3.0058 O   0  0  0  0  0  0  0  0  0  0  0  0
   29.7106  -35.7014    1.6497 O   0  0  0  0  0  0  0  0  0  0  0  0
   30.5243  -35.0445    0.7090 C   0  0  0  0  0  0  0  0  0  0  0  0
   30.2139  -35.6303   -0.6508 C   0  0  2  0  0  0  0  0  0  0  0  0
   31.0774  -35.1321   -1.6788 N   0  0  0  0  0  0  0  0  0  0  0  0
   28.7801  -35.4813   -0.9962 C   0  0  0  0  0  0  0  0  0  0  0  0
   27.8148  -36.1602   -0.2403 O   0  0  0  0  0  0  0  0  0  0  0  0
   28.3625  -34.7781   -1.9338 O   0  0  0  0  0  0  0  0  0  0  0  0
  2  1  1  1
  2  9  1  0
  3  2  1  0
  4  3  1  0
  5  4  2  0
  6  5  1  0
  7  6  1  0
  7  8  2  0
  8  4  1  0
  9 10  2  0
 12 11  1  1
 12 14  1  0
 12 13  1  0
 15 14  1  6
 16  9  1  0
 16 15  1  0
 17 15  1  0
 17 18  2  0
 19 20  1  0
 21 20  1  1
 21 22  1  0
 22 17  1  0
 23 24  1  0
 23 21  1  0
 25 23  2  0
M  END
$$$$
