LQN.pdb
     RDKit          3D

 26 25  0  0  1  0  0  0  0  0999 V2000
    5.8529  -11.7404   26.2912 C   0  0  0  0  0  0  0  0  0  0  0  0
    6.9703  -12.6978   26.0676 C   0  0  1  0  0  0  0  0  0  0  0  0
    8.1561  -12.4465   26.9725 C   0  0  0  0  0  0  0  0  0  0  0  0
    6.5740  -14.1287   25.9763 C   0  0  0  0  0  0  0  0  0  0  0  0
    7.6161  -15.0937   25.5656 C   0  0  2  0  0  0  0  0  0  0  0  0
    8.9617  -14.7031   25.9088 N   0  0  0  0  0  0  0  0  0  0  0  0
    7.5750  -15.2184   24.0809 C   0  0  0  0  0  0  0  0  0  0  0  0
    6.5184  -15.7176   23.5838 O   0  0  0  0  0  0  0  0  0  0  0  0
    8.5646  -11.8214   19.1953 N   0  0  0  0  0  0  0  0  0  0  0  0
    8.1716  -13.1052   18.7039 C   0  0  0  0  0  0  0  0  0  0  0  0
    7.6337  -13.1164   17.5572 O   0  0  0  0  0  0  0  0  0  0  0  0
    8.3837  -14.3462   19.4941 C   0  0  0  0  0  0  0  0  0  0  0  0
    8.4395  -13.9812   20.9377 C   0  0  0  0  0  0  0  0  0  0  0  0
    8.6046  -15.1648   21.8543 C   0  0  2  0  0  0  0  0  0  0  0  0
    8.6400  -14.8124   23.2337 N   0  0  0  0  0  0  0  0  0  0  0  0
    9.8645  -15.8736   21.4970 C   0  0  0  0  0  0  0  0  0  0  0  0
   10.1479  -16.0798   20.3107 O   0  0  0  0  0  0  0  0  0  0  0  0
   13.2986  -15.0858   19.2761 N   0  0  0  0  0  0  0  0  0  0  0  0
   13.5769  -15.5111   20.6044 C   0  0  0  0  0  0  0  0  0  0  0  0
   14.6192  -16.1579   20.8346 O   0  0  0  0  0  0  0  0  0  0  0  0
   12.6395  -15.1858   21.6833 C   0  0  0  0  0  0  0  0  0  0  0  0
   12.0946  -16.4319   22.3213 C   0  0  2  0  0  0  0  0  0  0  0  0
   10.6961  -16.2848   22.6012 N   0  0  0  0  0  0  0  0  0  0  0  0
   12.8393  -16.7122   23.5819 C   0  0  0  0  0  0  0  0  0  0  0  0
   14.1732  -17.0566   23.5047 O   0  0  0  0  0  0  0  0  0  0  0  0
   12.2415  -16.6291   24.6746 O   0  0  0  0  0  0  0  0  0  0  0  0
  2  1  1  1
  3  2  1  0
  4  2  1  0
  4  5  1  0
  5  6  1  6
  7  8  2  0
  7  5  1  0
  9 10  1  0
 10 12  1  0
 11 10  2  0
 12 13  1  0
 14 13  1  6
 14 15  1  0
 15  7  1  0
 16 17  2  0
 16 14  1  0
 18 19  1  0
 19 20  2  0
 19 21  1  0
 22 21  1  1
 22 23  1  0
 23 16  1  0
 24 22  1  0
 25 24  1  0
 26 24  2  0
M  END
$$$$
