LQN.pdb
     RDKit          3D

 26 25  0  0  1  0  0  0  0  0999 V2000
    7.5384  -11.9352   20.2493 C   0  0  0  0  0  0  0  0  0  0  0  0
    7.9051  -13.3144   19.8268 C   0  0  1  0  0  0  0  0  0  0  0  0
    8.8536  -13.3411   18.6488 C   0  0  0  0  0  0  0  0  0  0  0  0
    8.2865  -14.2376   20.9291 C   0  0  0  0  0  0  0  0  0  0  0  0
    8.5317  -15.6513   20.5725 C   0  0  2  0  0  0  0  0  0  0  0  0
    7.3594  -16.3700   20.1363 N   0  0  0  0  0  0  0  0  0  0  0  0
    9.0362  -16.3559   21.7851 C   0  0  0  0  0  0  0  0  0  0  0  0
    8.1588  -16.7821   22.5982 O   0  0  0  0  0  0  0  0  0  0  0  0
   13.9375  -20.2293   22.5217 N   0  0  0  0  0  0  0  0  0  0  0  0
   13.6863  -19.6921   23.8227 C   0  0  0  0  0  0  0  0  0  0  0  0
   14.6046  -19.8649   24.6780 O   0  0  0  0  0  0  0  0  0  0  0  0
   12.4244  -18.9762   24.1456 C   0  0  0  0  0  0  0  0  0  0  0  0
   12.0750  -18.0959   22.9952 C   0  0  0  0  0  0  0  0  0  0  0  0
   10.7988  -17.3210   23.1930 C   0  0  2  0  0  0  0  0  0  0  0  0
   10.4161  -16.5593   22.0523 N   0  0  0  0  0  0  0  0  0  0  0  0
   10.9699  -16.4082   24.3570 C   0  0  0  0  0  0  0  0  0  0  0  0
   11.5706  -15.3351   24.2238 O   0  0  0  0  0  0  0  0  0  0  0  0
    8.6888  -13.0251   28.1427 N   0  0  0  0  0  0  0  0  0  0  0  0
    9.6704  -14.0205   27.8809 C   0  0  0  0  0  0  0  0  0  0  0  0
   10.6754  -14.0979   28.6170 O   0  0  0  0  0  0  0  0  0  0  0  0
    9.4905  -14.9401   26.7538 C   0  0  0  0  0  0  0  0  0  0  0  0
   10.5706  -15.9839   26.7288 C   0  0  2  0  0  0  0  0  0  0  0  0
   10.4018  -16.8572   25.6042 N   0  0  0  0  0  0  0  0  0  0  0  0
   10.5320  -16.7705   27.9945 C   0  0  0  0  0  0  0  0  0  0  0  0
    9.6294  -17.8082   28.1063 O   0  0  0  0  0  0  0  0  0  0  0  0
   11.3143  -16.4737   28.9209 O   0  0  0  0  0  0  0  0  0  0  0  0
  2  1  1  1
  3  2  1  0
  4  2  1  0
  4  5  1  0
  5  6  1  1
  7  8  2  0
  7  5  1  0
  9 10  1  0
 10 12  1  0
 11 10  2  0
 12 13  1  0
 14 13  1  6
 14 15  1  0
 15  7  1  0
 16 17  2  0
 16 14  1  0
 18 19  1  0
 19 20  2  0
 19 21  1  0
 22 21  1  1
 22 23  1  0
 23 16  1  0
 24 22  1  0
 25 24  1  0
 26 24  2  0
M  END
$$$$
