LQN.pdb
     RDKit          3D

 26 25  0  0  1  0  0  0  0  0999 V2000
    6.7672  -12.2932   19.1722 C   0  0  0  0  0  0  0  0  0  0  0  0
    7.6708  -13.4324   19.4895 C   0  0  1  0  0  0  0  0  0  0  0  0
    9.1058  -13.1822   19.0818 C   0  0  0  0  0  0  0  0  0  0  0  0
    7.5226  -14.0009   20.8562 C   0  0  0  0  0  0  0  0  0  0  0  0
    8.4094  -15.1266   21.2197 C   0  0  2  0  0  0  0  0  0  0  0  0
    8.3384  -16.2568   20.3259 N   0  0  0  0  0  0  0  0  0  0  0  0
    8.0035  -15.6224   22.5655 C   0  0  0  0  0  0  0  0  0  0  0  0
    7.8012  -14.7403   23.4563 O   0  0  0  0  0  0  0  0  0  0  0  0
    6.5608  -21.4840   24.5328 N   0  0  0  0  0  0  0  0  0  0  0  0
    6.4840  -20.6967   25.7238 C   0  0  0  0  0  0  0  0  0  0  0  0
    6.1194  -21.3116   26.7694 O   0  0  0  0  0  0  0  0  0  0  0  0
    6.8128  -19.2472   25.7286 C   0  0  0  0  0  0  0  0  0  0  0  0
    7.0910  -18.8230   24.3275 C   0  0  0  0  0  0  0  0  0  0  0  0
    7.4985  -17.3785   24.2030 C   0  0  2  0  0  0  0  0  0  0  0  0
    7.8412  -16.9991   22.8739 N   0  0  0  0  0  0  0  0  0  0  0  0
    8.6622  -17.1316   25.0987 C   0  0  0  0  0  0  0  0  0  0  0  0
    9.8136  -17.3302   24.6926 O   0  0  0  0  0  0  0  0  0  0  0  0
   10.1333  -13.3460   29.5331 N   0  0  0  0  0  0  0  0  0  0  0  0
   10.3358  -14.3659   28.5628 C   0  0  0  0  0  0  0  0  0  0  0  0
   11.4767  -14.8489   28.4109 O   0  0  0  0  0  0  0  0  0  0  0  0
    9.2062  -14.8359   27.7556 C   0  0  0  0  0  0  0  0  0  0  0  0
    9.4626  -16.2141   27.2158 C   0  0  2  0  0  0  0  0  0  0  0  0
    8.3523  -16.6609   26.4262 N   0  0  0  0  0  0  0  0  0  0  0  0
    9.6946  -17.1566   28.3472 C   0  0  0  0  0  0  0  0  0  0  0  0
   10.8543  -17.0379   29.0855 O   0  0  0  0  0  0  0  0  0  0  0  0
    8.8378  -18.0284   28.6001 O   0  0  0  0  0  0  0  0  0  0  0  0
  2  1  1  1
  3  2  1  0
  4  2  1  0
  4  5  1  0
  5  6  1  6
  7  8  2  0
  7  5  1  0
  9 10  1  0
 10 12  1  0
 11 10  2  0
 12 13  1  0
 14 13  1  6
 14 15  1  0
 15  7  1  0
 16 17  2  0
 16 14  1  0
 18 19  1  0
 19 20  2  0
 19 21  1  0
 22 21  1  1
 22 23  1  0
 23 16  1  0
 24 22  1  0
 25 24  1  0
 26 24  2  0
M  END
$$$$
