LQN.pdb
     RDKit          3D

 26 25  0  0  1  0  0  0  0  0999 V2000
    7.4127  -12.1885   18.9360 C   0  0  0  0  0  0  0  0  0  0  0  0
    8.2389  -13.1372   19.7313 C   0  0  1  0  0  0  0  0  0  0  0  0
    9.5644  -12.5505   20.1635 C   0  0  0  0  0  0  0  0  0  0  0  0
    7.5165  -13.8573   20.8141 C   0  0  0  0  0  0  0  0  0  0  0  0
    8.3017  -14.7990   21.6402 C   0  0  2  0  0  0  0  0  0  0  0  0
    9.0443  -15.7798   20.8867 N   0  0  0  0  0  0  0  0  0  0  0  0
    7.3557  -15.5563   22.5081 C   0  0  0  0  0  0  0  0  0  0  0  0
    6.5627  -14.8648   23.2191 O   0  0  0  0  0  0  0  0  0  0  0  0
    5.1893  -21.4273   22.1182 N   0  0  0  0  0  0  0  0  0  0  0  0
    4.6243  -20.9523   23.3426 C   0  0  0  0  0  0  0  0  0  0  0  0
    3.8082  -21.7344   23.9141 O   0  0  0  0  0  0  0  0  0  0  0  0
    4.9766  -19.6224   23.9052 C   0  0  0  0  0  0  0  0  0  0  0  0
    5.9563  -18.9695   22.9918 C   0  0  0  0  0  0  0  0  0  0  0  0
    6.4021  -17.6082   23.4572 C   0  0  2  0  0  0  0  0  0  0  0  0
    7.3131  -16.9747   22.5645 N   0  0  0  0  0  0  0  0  0  0  0  0
    7.0425  -17.7466   24.7944 C   0  0  0  0  0  0  0  0  0  0  0  0
    6.3453  -17.8459   25.8114 O   0  0  0  0  0  0  0  0  0  0  0  0
   10.3342  -18.6301   28.4173 N   0  0  0  0  0  0  0  0  0  0  0  0
    9.4030  -19.5767   27.9078 C   0  0  0  0  0  0  0  0  0  0  0  0
    9.1780  -20.6220   28.5518 O   0  0  0  0  0  0  0  0  0  0  0  0
    8.7213  -19.3144   26.6371 C   0  0  0  0  0  0  0  0  0  0  0  0
    9.1042  -17.9711   26.0842 C   0  0  2  0  0  0  0  0  0  0  0  0
    8.4845  -17.7553   24.8094 N   0  0  0  0  0  0  0  0  0  0  0  0
   10.5867  -17.8925   25.9496 C   0  0  0  0  0  0  0  0  0  0  0  0
   11.1297  -17.6347   24.7075 O   0  0  0  0  0  0  0  0  0  0  0  0
   11.3005  -18.0609   26.9597 O   0  0  0  0  0  0  0  0  0  0  0  0
  2  1  1  1
  3  2  1  0
  4  2  1  0
  4  5  1  0
  5  6  1  6
  7  8  2  0
  7  5  1  0
  9 10  1  0
 10 12  1  0
 11 10  2  0
 12 13  1  0
 14 13  1  6
 14 15  1  0
 15  7  1  0
 16 17  2  0
 16 14  1  0
 18 19  1  0
 19 20  2  0
 19 21  1  0
 22 21  1  6
 22 23  1  0
 23 16  1  0
 24 22  1  0
 25 24  1  0
 26 24  2  0
M  END
$$$$
