LQN.pdb
     RDKit          3D

 26 25  0  0  1  0  0  0  0  0999 V2000
    7.6960  -11.7360   19.7101 C   0  0  0  0  0  0  0  0  0  0  0  0
    8.1916  -13.1370   19.7926 C   0  0  1  0  0  0  0  0  0  0  0  0
    9.6834  -13.2521   19.5709 C   0  0  0  0  0  0  0  0  0  0  0  0
    7.6922  -13.9214   20.9537 C   0  0  0  0  0  0  0  0  0  0  0  0
    8.1315  -15.3293   21.0573 C   0  0  2  0  0  0  0  0  0  0  0  0
    7.5458  -16.2122   20.0783 N   0  0  0  0  0  0  0  0  0  0  0  0
    7.7237  -15.8463   22.3945 C   0  0  0  0  0  0  0  0  0  0  0  0
    6.5035  -15.6947   22.7119 O   0  0  0  0  0  0  0  0  0  0  0  0
    6.5807  -21.3972   22.8359 N   0  0  0  0  0  0  0  0  0  0  0  0
    6.0249  -20.5548   23.8486 C   0  0  0  0  0  0  0  0  0  0  0  0
    4.7900  -20.7132   24.0819 O   0  0  0  0  0  0  0  0  0  0  0  0
    6.8498  -19.5571   24.5789 C   0  0  0  0  0  0  0  0  0  0  0  0
    7.3120  -18.5266   23.6069 C   0  0  0  0  0  0  0  0  0  0  0  0
    8.1153  -17.4191   24.2366 C   0  0  2  0  0  0  0  0  0  0  0  0
    8.6220  -16.4801   23.2935 N   0  0  0  0  0  0  0  0  0  0  0  0
    9.2513  -18.0208   24.9881 C   0  0  0  0  0  0  0  0  0  0  0  0
    9.8635  -18.9890   24.5212 O   0  0  0  0  0  0  0  0  0  0  0  0
    6.8159  -18.8155   28.0788 N   0  0  0  0  0  0  0  0  0  0  0  0
    8.1620  -18.9300   28.5233 C   0  0  0  0  0  0  0  0  0  0  0  0
    8.4437  -18.6411   29.7044 O   0  0  0  0  0  0  0  0  0  0  0  0
    9.1988  -19.3843   27.5920 C   0  0  0  0  0  0  0  0  0  0  0  0
   10.1441  -18.2686   27.2478 C   0  0  2  0  0  0  0  0  0  0  0  0
    9.5690  -17.4089   26.2548 N   0  0  0  0  0  0  0  0  0  0  0  0
   11.4264  -18.8397   26.7459 C   0  0  0  0  0  0  0  0  0  0  0  0
   11.5937  -19.0073   25.3865 O   0  0  0  0  0  0  0  0  0  0  0  0
   12.3162  -19.1521   27.5637 O   0  0  0  0  0  0  0  0  0  0  0  0
  2  1  1  1
  3  2  1  0
  4  2  1  0
  4  5  1  0
  5  6  1  6
  7  8  2  0
  7  5  1  0
  9 10  1  0
 10 12  1  0
 11 10  2  0
 12 13  1  0
 14 13  1  6
 14 15  1  0
 15  7  1  0
 16 17  2  0
 16 14  1  0
 18 19  1  0
 19 20  2  0
 19 21  1  0
 22 21  1  6
 22 23  1  0
 23 16  1  0
 24 22  1  0
 25 24  1  0
 26 24  2  0
M  END
$$$$
