LQN.pdb
     RDKit          3D

 26 25  0  0  1  0  0  0  0  0999 V2000
    6.5382  -13.0480   20.6239 C   0  0  0  0  0  0  0  0  0  0  0  0
    7.6514  -13.3786   19.6930 C   0  0  1  0  0  0  0  0  0  0  0  0
    8.1808  -12.1721   18.9499 C   0  0  0  0  0  0  0  0  0  0  0  0
    8.7140  -14.2537   20.2568 C   0  0  0  0  0  0  0  0  0  0  0  0
    9.8367  -14.6140   19.3648 C   0  0  2  0  0  0  0  0  0  0  0  0
    9.5100  -15.5945   18.3584 N   0  0  0  0  0  0  0  0  0  0  0  0
   10.9215  -15.2052   20.1985 C   0  0  0  0  0  0  0  0  0  0  0  0
   10.6127  -16.2253   20.8889 O   0  0  0  0  0  0  0  0  0  0  0  0
   16.4753  -12.9462   17.7577 N   0  0  0  0  0  0  0  0  0  0  0  0
   15.9810  -14.1578   17.1816 C   0  0  0  0  0  0  0  0  0  0  0  0
   16.2241  -14.3224   15.9494 O   0  0  0  0  0  0  0  0  0  0  0  0
   15.2294  -15.1583   17.9836 C   0  0  0  0  0  0  0  0  0  0  0  0
   14.0977  -14.4645   18.6607 C   0  0  0  0  0  0  0  0  0  0  0  0
   13.2829  -15.3650   19.5516 C   0  0  2  0  0  0  0  0  0  0  0  0
   12.2420  -14.6844   20.2451 N   0  0  0  0  0  0  0  0  0  0  0  0
   14.1919  -16.0080   20.5404 C   0  0  0  0  0  0  0  0  0  0  0  0
   14.8890  -16.9746   20.2088 O   0  0  0  0  0  0  0  0  0  0  0  0
   17.2600  -15.6654   21.2642 N   0  0  0  0  0  0  0  0  0  0  0  0
   17.2219  -14.9475   22.4914 C   0  0  0  0  0  0  0  0  0  0  0  0
   18.1909  -14.2285   22.8106 O   0  0  0  0  0  0  0  0  0  0  0  0
   16.0492  -15.0604   23.3635 C   0  0  0  0  0  0  0  0  0  0  0  0
   15.0647  -16.0568   22.8209 C   0  0  2  0  0  0  0  0  0  0  0  0
   14.1948  -15.4366   21.8645 N   0  0  0  0  0  0  0  0  0  0  0  0
   14.2646  -16.6272   23.9419 C   0  0  0  0  0  0  0  0  0  0  0  0
   14.7982  -17.6630   24.6811 O   0  0  0  0  0  0  0  0  0  0  0  0
   13.1344  -16.1566   24.1856 O   0  0  0  0  0  0  0  0  0  0  0  0
  2  1  1  1
  3  2  1  0
  4  2  1  0
  4  5  1  0
  5  6  1  6
  7  8  2  0
  7  5  1  0
  9 10  1  0
 10 12  1  0
 11 10  2  0
 12 13  1  0
 14 13  1  1
 14 15  1  0
 15  7  1  0
 16 17  2  0
 16 14  1  0
 18 19  1  0
 19 20  2  0
 19 21  1  0
 22 21  1  1
 22 23  1  0
 23 16  1  0
 24 22  1  0
 25 24  1  0
 26 24  2  0
M  END
$$$$
