LQN.pdb
     RDKit          3D

 26 25  0  0  1  0  0  0  0  0999 V2000
    5.9207  -11.7653   26.2941 C   0  0  0  0  0  0  0  0  0  0  0  0
    7.0373  -12.7468   26.2220 C   0  0  1  0  0  0  0  0  0  0  0  0
    7.7408  -12.9428   27.5467 C   0  0  0  0  0  0  0  0  0  0  0  0
    6.7242  -14.0159   25.5119 C   0  0  0  0  0  0  0  0  0  0  0  0
    7.8424  -14.9555   25.2823 C   0  0  2  0  0  0  0  0  0  0  0  0
    9.1418  -14.4355   25.6319 N   0  0  0  0  0  0  0  0  0  0  0  0
    7.8896  -15.2753   23.8273 C   0  0  0  0  0  0  0  0  0  0  0  0
    6.9060  -15.9279   23.3591 O   0  0  0  0  0  0  0  0  0  0  0  0
    8.4909  -12.4789   18.5991 N   0  0  0  0  0  0  0  0  0  0  0  0
    7.3346  -12.8374   19.3598 C   0  0  0  0  0  0  0  0  0  0  0  0
    6.2648  -12.2303   19.0573 O   0  0  0  0  0  0  0  0  0  0  0  0
    7.3905  -13.8596   20.4374 C   0  0  0  0  0  0  0  0  0  0  0  0
    8.8077  -14.2876   20.6072 C   0  0  0  0  0  0  0  0  0  0  0  0
    8.9927  -15.3702   21.6377 C   0  0  2  0  0  0  0  0  0  0  0  0
    8.9596  -14.8886   22.9774 N   0  0  0  0  0  0  0  0  0  0  0  0
   10.2967  -16.0459   21.3917 C   0  0  0  0  0  0  0  0  0  0  0  0
   10.4915  -16.6572   20.3341 O   0  0  0  0  0  0  0  0  0  0  0  0
   13.0293  -15.5155   19.7636 N   0  0  0  0  0  0  0  0  0  0  0  0
   13.6127  -14.9659   20.9385 C   0  0  0  0  0  0  0  0  0  0  0  0
   14.0709  -13.8053   20.9094 O   0  0  0  0  0  0  0  0  0  0  0  0
   13.6686  -15.7664   22.1651 C   0  0  0  0  0  0  0  0  0  0  0  0
   12.4853  -16.6863   22.2660 C   0  0  2  0  0  0  0  0  0  0  0  0
   11.2768  -15.9355   22.4438 N   0  0  0  0  0  0  0  0  0  0  0  0
   12.6774  -17.6207   23.4115 C   0  0  0  0  0  0  0  0  0  0  0  0
   13.7867  -18.4413   23.4226 O   0  0  0  0  0  0  0  0  0  0  0  0
   11.8336  -17.6394   24.3312 O   0  0  0  0  0  0  0  0  0  0  0  0
  2  1  1  1
  3  2  1  0
  4  2  1  0
  4  5  1  0
  5  6  1  6
  7  8  2  0
  7  5  1  0
  9 10  1  0
 10 12  1  0
 11 10  2  0
 12 13  1  0
 14 13  1  6
 14 15  1  0
 15  7  1  0
 16 17  2  0
 16 14  1  0
 18 19  1  0
 19 20  2  0
 19 21  1  0
 22 21  1  1
 22 23  1  0
 23 16  1  0
 24 22  1  0
 25 24  1  0
 26 24  2  0
M  END
$$$$
