LQN.pdb
     RDKit          3D

 26 25  0  0  1  0  0  0  0  0999 V2000
    6.7537  -12.5311   18.9043 C   0  0  0  0  0  0  0  0  0  0  0  0
    7.7485  -13.5507   19.3356 C   0  0  1  0  0  0  0  0  0  0  0  0
    9.1766  -13.1458   19.0446 C   0  0  0  0  0  0  0  0  0  0  0  0
    7.5443  -14.1008   20.7026 C   0  0  0  0  0  0  0  0  0  0  0  0
    8.5608  -15.0474   21.2090 C   0  0  2  0  0  0  0  0  0  0  0  0
    8.6652  -16.2729   20.4550 N   0  0  0  0  0  0  0  0  0  0  0  0
    8.1851  -15.4336   22.5987 C   0  0  0  0  0  0  0  0  0  0  0  0
    7.9251  -14.4831   23.3996 O   0  0  0  0  0  0  0  0  0  0  0  0
    6.4339  -21.0431   24.9325 N   0  0  0  0  0  0  0  0  0  0  0  0
    6.3942  -20.1775   26.0696 C   0  0  0  0  0  0  0  0  0  0  0  0
    5.9252  -20.6830   27.1322 O   0  0  0  0  0  0  0  0  0  0  0  0
    6.8749  -18.7726   26.0033 C   0  0  0  0  0  0  0  0  0  0  0  0
    7.2713  -18.4767   24.5976 C   0  0  0  0  0  0  0  0  0  0  0  0
    7.7088  -17.0520   24.3803 C   0  0  2  0  0  0  0  0  0  0  0  0
    8.1109  -16.7810   23.0414 N   0  0  0  0  0  0  0  0  0  0  0  0
    8.8399  -16.7539   25.3017 C   0  0  0  0  0  0  0  0  0  0  0  0
    9.9972  -17.0544   24.9845 O   0  0  0  0  0  0  0  0  0  0  0  0
   11.1193  -13.3159   28.9483 N   0  0  0  0  0  0  0  0  0  0  0  0
   10.2238  -14.3572   29.3179 C   0  0  0  0  0  0  0  0  0  0  0  0
   10.3840  -14.9445   30.4076 O   0  0  0  0  0  0  0  0  0  0  0  0
    9.1276  -14.7268   28.4179 C   0  0  0  0  0  0  0  0  0  0  0  0
    9.5879  -15.7089   27.3785 C   0  0  2  0  0  0  0  0  0  0  0  0
    8.4927  -16.1119   26.5455 N   0  0  0  0  0  0  0  0  0  0  0  0
   10.1833  -16.9001   28.0483 C   0  0  0  0  0  0  0  0  0  0  0  0
    9.3516  -17.9299   28.4380 O   0  0  0  0  0  0  0  0  0  0  0  0
   11.4161  -16.9389   28.2407 O   0  0  0  0  0  0  0  0  0  0  0  0
  2  1  1  1
  3  2  1  0
  4  2  1  0
  4  5  1  0
  5  6  1  6
  7  8  2  0
  7  5  1  0
  9 10  1  0
 10 12  1  0
 11 10  2  0
 12 13  1  0
 14 13  1  6
 14 15  1  0
 15  7  1  0
 16 17  2  0
 16 14  1  0
 18 19  1  0
 19 20  2  0
 19 21  1  0
 22 21  1  1
 22 23  1  0
 23 16  1  0
 24 22  1  0
 25 24  1  0
 26 24  2  0
M  END
$$$$
