LQN.pdb
     RDKit          3D

 26 25  0  0  1  0  0  0  0  0999 V2000
    7.9080  -12.1673   27.6871 C   0  0  0  0  0  0  0  0  0  0  0  0
    7.1484  -12.5661   26.4709 C   0  0  1  0  0  0  0  0  0  0  0  0
    6.9983  -11.4416   25.4704 C   0  0  0  0  0  0  0  0  0  0  0  0
    7.5531  -13.8628   25.8645 C   0  0  0  0  0  0  0  0  0  0  0  0
    6.9203  -14.2356   24.5814 C   0  0  2  0  0  0  0  0  0  0  0  0
    5.4784  -14.1930   24.5910 N   0  0  0  0  0  0  0  0  0  0  0  0
    7.3024  -15.6412   24.2657 C   0  0  0  0  0  0  0  0  0  0  0  0
    6.5613  -16.5516   24.7499 O   0  0  0  0  0  0  0  0  0  0  0  0
    9.3879  -17.6610   18.9493 N   0  0  0  0  0  0  0  0  0  0  0  0
    8.1415  -17.0840   19.3463 C   0  0  0  0  0  0  0  0  0  0  0  0
    7.4193  -16.6313   18.4093 O   0  0  0  0  0  0  0  0  0  0  0  0
    7.7243  -17.0220   20.7716 C   0  0  0  0  0  0  0  0  0  0  0  0
    8.8461  -17.5265   21.6127 C   0  0  0  0  0  0  0  0  0  0  0  0
    8.6230  -17.3431   23.0908 C   0  0  2  0  0  0  0  0  0  0  0  0
    8.4275  -15.9844   23.4699 N   0  0  0  0  0  0  0  0  0  0  0  0
    9.7978  -17.8920   23.8229 C   0  0  0  0  0  0  0  0  0  0  0  0
   10.2331  -19.0167   23.5476 O   0  0  0  0  0  0  0  0  0  0  0  0
   13.0343  -15.4968   23.4416 N   0  0  0  0  0  0  0  0  0  0  0  0
   13.1408  -16.7200   24.1595 C   0  0  0  0  0  0  0  0  0  0  0  0
   13.6421  -17.7168   23.6000 O   0  0  0  0  0  0  0  0  0  0  0  0
   12.6620  -16.7951   25.5429 C   0  0  0  0  0  0  0  0  0  0  0  0
   11.4082  -17.6169   25.6382 C   0  0  2  0  0  0  0  0  0  0  0  0
   10.3660  -17.0413   24.8393 N   0  0  0  0  0  0  0  0  0  0  0  0
   10.9730  -17.6975   27.0617 C   0  0  0  0  0  0  0  0  0  0  0  0
   11.8226  -18.2695   27.9864 O   0  0  0  0  0  0  0  0  0  0  0  0
    9.8540  -17.2474   27.3836 O   0  0  0  0  0  0  0  0  0  0  0  0
  2  1  1  1
  3  2  1  0
  4  2  1  0
  4  5  1  0
  5  6  1  1
  7  8  2  0
  7  5  1  0
  9 10  1  0
 10 12  1  0
 11 10  2  0
 12 13  1  0
 14 13  1  6
 14 15  1  0
 15  7  1  0
 16 17  2  0
 16 14  1  0
 18 19  1  0
 19 20  2  0
 19 21  1  0
 22 21  1  1
 22 23  1  0
 23 16  1  0
 24 22  1  0
 25 24  1  0
 26 24  2  0
M  END
$$$$
