LQN.pdb
     RDKit          3D

 26 25  0  0  1  0  0  0  0  0999 V2000
    6.9430  -12.8215   21.0042 C   0  0  0  0  0  0  0  0  0  0  0  0
    7.5214  -13.3973   19.7596 C   0  0  1  0  0  0  0  0  0  0  0  0
    7.9703  -12.3435   18.7717 C   0  0  0  0  0  0  0  0  0  0  0  0
    8.5079  -14.4920   19.9634 C   0  0  0  0  0  0  0  0  0  0  0  0
    9.1308  -15.0739   18.7554 C   0  0  2  0  0  0  0  0  0  0  0  0
    8.4705  -16.2530   18.2509 N   0  0  0  0  0  0  0  0  0  0  0  0
   10.5228  -15.4804   19.1001 C   0  0  0  0  0  0  0  0  0  0  0  0
   10.6914  -16.6934   19.4362 O   0  0  0  0  0  0  0  0  0  0  0  0
   15.8573  -13.3335   16.8587 N   0  0  0  0  0  0  0  0  0  0  0  0
   16.3150  -14.2545   17.8519 C   0  0  0  0  0  0  0  0  0  0  0  0
   17.5650  -14.4574   17.8823 O   0  0  0  0  0  0  0  0  0  0  0  0
   15.3778  -14.9288   18.7879 C   0  0  0  0  0  0  0  0  0  0  0  0
   14.0191  -14.3489   18.5926 C   0  0  0  0  0  0  0  0  0  0  0  0
   12.9343  -15.0897   19.3292 C   0  0  2  0  0  0  0  0  0  0  0  0
   11.6274  -14.5885   19.0667 N   0  0  0  0  0  0  0  0  0  0  0  0
   13.2068  -15.0063   20.7908 C   0  0  0  0  0  0  0  0  0  0  0  0
   13.8414  -14.0500   21.2523 O   0  0  0  0  0  0  0  0  0  0  0  0
   14.5483  -20.1339   21.3861 N   0  0  0  0  0  0  0  0  0  0  0  0
   15.0867  -18.8649   21.0361 C   0  0  0  0  0  0  0  0  0  0  0  0
   16.3249  -18.7082   21.0204 O   0  0  0  0  0  0  0  0  0  0  0  0
   14.1841  -17.7602   20.6992 C   0  0  0  0  0  0  0  0  0  0  0  0
   13.6238  -17.1216   21.9380 C   0  0  2  0  0  0  0  0  0  0  0  0
   12.6920  -16.0873   21.5948 N   0  0  0  0  0  0  0  0  0  0  0  0
   14.7362  -16.5548   22.7526 C   0  0  0  0  0  0  0  0  0  0  0  0
   14.8481  -16.9263   24.0768 O   0  0  0  0  0  0  0  0  0  0  0  0
   15.5383  -15.7602   22.2202 O   0  0  0  0  0  0  0  0  0  0  0  0
  2  1  1  1
  3  2  1  0
  4  2  1  0
  4  5  1  0
  5  6  1  1
  7  8  2  0
  7  5  1  0
  9 10  1  0
 10 12  1  0
 11 10  2  0
 12 13  1  0
 14 13  1  6
 14 15  1  0
 15  7  1  0
 16 17  2  0
 16 14  1  0
 18 19  1  0
 19 20  2  0
 19 21  1  0
 22 21  1  6
 22 23  1  0
 23 16  1  0
 24 22  1  0
 25 24  1  0
 26 24  2  0
M  END
$$$$
