RLC.pdb
     RDKit          3D

 26 25  0  0  1  0  0  0  0  0999 V2000
   12.4019  -13.3780  -15.8550 N   0  0  0  0  0  0  0  0  0  0  0  0
   12.7958  -12.8568  -17.1190 C   0  0  0  0  0  0  0  0  0  0  0  0
   11.9340  -12.8204  -18.0840 N   0  0  0  0  0  0  0  0  0  0  0  0
   14.1197  -12.3722  -17.3528 N   0  0  0  0  0  0  0  0  0  0  0  0
   15.1423  -12.4922  -16.2920 C   0  0  0  0  0  0  0  0  0  0  0  0
   15.0783  -11.3043  -15.3853 C   0  0  0  0  0  0  0  0  0  0  0  0
   16.0014  -11.2903  -14.2212 C   0  0  0  0  0  0  0  0  0  0  0  0
   17.3315  -10.7213  -14.5509 C   0  0  2  0  0  0  0  0  0  0  0  0
   18.2796  -11.7553  -14.8259 N   0  0  0  0  0  0  0  0  0  0  0  0
   17.8147   -9.7758  -13.5020 C   0  0  0  0  0  0  0  0  0  0  0  0
   18.0417  -10.2247  -12.3430 O   0  0  0  0  0  0  0  0  0  0  0  0
   12.1649  -12.4082  -19.0068 C   0  0  0  0  0  0  0  0  0  0  0  0
   21.8462   -6.4774  -14.3790 C   0  0  1  0  0  0  0  0  0  0  0  0
   20.8530   -7.4167  -13.7592 C   0  0  0  0  0  0  0  0  0  0  0  0
   21.5600   -7.9982  -12.5120 C   0  0  0  0  0  0  0  0  0  0  0  0
   19.6912   -6.6658  -13.2482 C   0  0  2  0  0  0  0  0  0  0  0  0
   18.5782   -7.5392  -12.6417 N   0  0  0  0  0  0  0  0  0  0  0  0
   18.0494   -8.3915  -13.6990 C   0  0  0  0  0  0  0  0  0  0  0  0
   17.5543   -6.7573  -11.9666 O   0  0  0  0  0  0  0  0  0  0  0  0
   16.6378   -6.2011  -12.6261 N   0  0  0  0  0  0  0  0  0  0  0  0
   17.4975   -6.5583  -10.5380 C   0  0  1  0  0  0  0  0  0  0  0  0
   16.4058   -5.7593   -9.9918 C   0  0  0  0  0  0  0  0  0  0  0  0
   16.3522   -5.8227   -8.4933 S   0  0  0  0  0  0  0  0  0  0  0  0
   14.9627   -4.8516   -7.8138 C   0  0  0  0  0  0  0  0  0  0  0  0
   16.6171   -4.3376  -10.3659 O   0  0  0  0  0  0  0  0  0  0  0  0
   15.5659   -3.4673  -10.6065 O   0  0  0  0  0  0  0  0  0  0  0  0
  2  3  2  0
  2  1  1  0
  4  2  1  0
  5  4  1  0
  6  5  1  0
  7  6  1  0
  8  7  1  0
  8  9  1  1
 10 17  1  0
 10  8  1  0
 11 10  2  0
 13 12  1  6
 14 13  1  0
 15 13  1  0
 16 17  1  0
 16 15  1  1
 18 16  1  0
 19 18  2  0
 20 18  1  0
 21 24  1  0
 21 20  1  0
 21 22  1  6
 23 22  1  0
 24 25  1  0
 26 24  2  0
M  END
$$$$
