RLC.pdb
     RDKit          3D

 26 25  0  0  1  0  0  0  0  0999 V2000
   10.5034  -21.8143    0.7073 N   0  0  0  0  0  0  0  0  0  0  0  0
    9.7563  -20.6469    0.3855 C   0  0  0  0  0  0  0  0  0  0  0  0
    8.8588  -20.7074   -0.5450 N   0  0  0  0  0  0  0  0  0  0  0  0
    9.9707  -19.4069    1.0627 N   0  0  0  0  0  0  0  0  0  0  0  0
   10.9622  -19.3307    2.1566 C   0  0  0  0  0  0  0  0  0  0  0  0
   12.3413  -19.5191    1.6089 C   0  0  0  0  0  0  0  0  0  0  0  0
   13.4691  -19.4443    2.5731 C   0  0  0  0  0  0  0  0  0  0  0  0
   14.7919  -19.6128    1.9225 C   0  0  2  0  0  0  0  0  0  0  0  0
   14.9490  -20.9388    1.4119 N   0  0  0  0  0  0  0  0  0  0  0  0
   15.9156  -19.2167    2.8214 C   0  0  0  0  0  0  0  0  0  0  0  0
   16.7569  -20.0965    3.1598 O   0  0  0  0  0  0  0  0  0  0  0  0
    8.2985  -19.8788   -0.8177 C   0  0  0  0  0  0  0  0  0  0  0  0
   18.1286  -14.2345    2.6645 C   0  0  1  0  0  0  0  0  0  0  0  0
   17.8893  -15.7151    2.7232 C   0  0  0  0  0  0  0  0  0  0  0  0
   19.2532  -16.3653    2.3908 C   0  0  0  0  0  0  0  0  0  0  0  0
   17.5747  -16.1264    4.1040 C   0  0  2  0  0  0  0  0  0  0  0  0
   17.2092  -17.6130    4.2638 N   0  0  0  0  0  0  0  0  0  0  0  0
   16.1269  -17.9121    3.3349 C   0  0  0  0  0  0  0  0  0  0  0  0
   16.9028  -17.9724    5.6395 O   0  0  0  0  0  0  0  0  0  0  0  0
   15.7240  -17.8901    6.0731 N   0  0  0  0  0  0  0  0  0  0  0  0
   17.8818  -18.4388    6.5922 C   0  0  1  0  0  0  0  0  0  0  0  0
   17.4492  -18.6966    7.9615 C   0  0  0  0  0  0  0  0  0  0  0  0
   17.9866  -19.9943    8.4904 S   0  0  0  0  0  0  0  0  0  0  0  0
   17.4115  -20.3343   10.1901 C   0  0  0  0  0  0  0  0  0  0  0  0
   17.9643  -17.6153    8.8397 O   0  0  0  0  0  0  0  0  0  0  0  0
   17.5025  -17.4228   10.1320 O   0  0  0  0  0  0  0  0  0  0  0  0
  2  3  2  0
  2  1  1  0
  4  2  1  0
  5  4  1  0
  6  5  1  0
  7  6  1  0
  8  7  1  0
  8  9  1  1
 10 17  1  0
 10  8  1  0
 11 10  2  0
 13 12  1  6
 14 13  1  0
 15 13  1  0
 16 17  1  0
 16 15  1  6
 18 16  1  0
 19 18  2  0
 20 18  1  0
 21 24  1  0
 21 20  1  0
 21 22  1  1
 23 22  1  0
 24 25  1  0
 26 24  2  0
M  END
$$$$
