RLC.pdb
     RDKit          3D

 26 25  0  0  1  0  0  0  0  0999 V2000
   29.7499  -22.8113  -15.9119 N   0  0  0  0  0  0  0  0  0  0  0  0
   29.4692  -22.8641  -17.3058 C   0  0  0  0  0  0  0  0  0  0  0  0
   29.7641  -23.9352  -17.9698 N   0  0  0  0  0  0  0  0  0  0  0  0
   28.8698  -21.7645  -17.9941 N   0  0  0  0  0  0  0  0  0  0  0  0
   28.5048  -20.5425  -17.2463 C   0  0  0  0  0  0  0  0  0  0  0  0
   27.3637  -20.8312  -16.3234 C   0  0  0  0  0  0  0  0  0  0  0  0
   26.1036  -21.3236  -16.9376 C   0  0  0  0  0  0  0  0  0  0  0  0
   24.9134  -20.5530  -16.5007 C   0  0  2  0  0  0  0  0  0  0  0  0
   25.2579  -19.1972  -16.2059 N   0  0  0  0  0  0  0  0  0  0  0  0
   24.1998  -21.2137  -15.3685 C   0  0  0  0  0  0  0  0  0  0  0  0
   23.7912  -22.3994  -15.5221 O   0  0  0  0  0  0  0  0  0  0  0  0
   29.6300  -23.9956  -18.9960 C   0  0  0  0  0  0  0  0  0  0  0  0
   25.2811  -20.0480  -10.0445 C   0  0  1  0  0  0  0  0  0  0  0  0
   25.0369  -20.7149  -11.3668 C   0  0  0  0  0  0  0  0  0  0  0  0
   25.3566  -22.2111  -11.1378 C   0  0  0  0  0  0  0  0  0  0  0  0
   23.6037  -20.6586  -11.7093 C   0  0  2  0  0  0  0  0  0  0  0  0
   23.2366  -21.3242  -13.0478 N   0  0  0  0  0  0  0  0  0  0  0  0
   23.9394  -20.6155  -14.1096 C   0  0  0  0  0  0  0  0  0  0  0  0
   21.8001  -21.4033  -13.2616 O   0  0  0  0  0  0  0  0  0  0  0  0
   21.1577  -20.3966  -13.6595 N   0  0  0  0  0  0  0  0  0  0  0  0
   21.0137  -22.5947  -13.0476 C   0  0  1  0  0  0  0  0  0  0  0  0
   19.5802  -22.5365  -13.3128 C   0  0  0  0  0  0  0  0  0  0  0  0
   18.9375  -23.8915  -13.2519 S   0  0  0  0  0  0  0  0  0  0  0  0
   17.1232  -23.8004  -13.4409 C   0  0  0  0  0  0  0  0  0  0  0  0
   18.9333  -21.6945  -12.2743 O   0  0  0  0  0  0  0  0  0  0  0  0
   17.8861  -20.8333  -12.5607 O   0  0  0  0  0  0  0  0  0  0  0  0
  2  3  2  0
  2  1  1  0
  4  2  1  0
  5  4  1  0
  6  5  1  0
  7  6  1  0
  8  7  1  0
  8  9  1  1
 10 17  1  0
 10  8  1  0
 11 10  2  0
 13 12  1  6
 14 13  1  0
 15 13  1  0
 16 17  1  0
 16 15  1  1
 18 16  1  0
 19 18  2  0
 20 18  1  0
 21 24  1  0
 21 20  1  0
 21 22  1  1
 23 22  1  0
 24 25  1  0
 26 24  2  0
M  END
$$$$
