RLC.pdb
     RDKit          3D

 26 25  0  0  1  0  0  0  0  0999 V2000
   16.5555  -26.7775  -14.3900 N   0  0  0  0  0  0  0  0  0  0  0  0
   15.8924  -25.5736  -14.0219 C   0  0  0  0  0  0  0  0  0  0  0  0
   14.7755  -25.6407  -13.3715 N   0  0  0  0  0  0  0  0  0  0  0  0
   16.4269  -24.2900  -14.3518 N   0  0  0  0  0  0  0  0  0  0  0  0
   17.7278  -24.1942  -15.0475 C   0  0  0  0  0  0  0  0  0  0  0  0
   18.6639  -23.3316  -14.2619 C   0  0  0  0  0  0  0  0  0  0  0  0
   19.9699  -23.0031  -14.8893 C   0  0  0  0  0  0  0  0  0  0  0  0
   20.8096  -22.1239  -14.0387 C   0  0  2  0  0  0  0  0  0  0  0  0
   20.0036  -21.3399  -13.1559 N   0  0  0  0  0  0  0  0  0  0  0  0
   21.7435  -21.2851  -14.8462 C   0  0  0  0  0  0  0  0  0  0  0  0
   22.5490  -21.8623  -15.6299 O   0  0  0  0  0  0  0  0  0  0  0  0
   14.2534  -24.7891  -13.0941 C   0  0  0  0  0  0  0  0  0  0  0  0
   22.8389  -17.1466  -18.0391 C   0  0  2  0  0  0  0  0  0  0  0  0
   22.9885  -16.7658  -16.5950 C   0  0  0  0  0  0  0  0  0  0  0  0
   22.3335  -15.3700  -16.4680 C   0  0  0  0  0  0  0  0  0  0  0  0
   22.1856  -17.6645  -15.7450 C   0  0  1  0  0  0  0  0  0  0  0  0
   22.7034  -19.1123  -15.6724 N   0  0  0  0  0  0  0  0  0  0  0  0
   21.8030  -19.8689  -14.8120 C   0  0  0  0  0  0  0  0  0  0  0  0
   24.0959  -19.1917  -15.2599 O   0  0  0  0  0  0  0  0  0  0  0  0
   24.4531  -18.7609  -14.1325 N   0  0  0  0  0  0  0  0  0  0  0  0
   25.1506  -19.7508  -16.0716 C   0  0  1  0  0  0  0  0  0  0  0  0
   26.5211  -19.6745  -15.5771 C   0  0  0  0  0  0  0  0  0  0  0  0
   27.0787  -21.0272  -15.2426 S   0  0  0  0  0  0  0  0  0  0  0  0
   26.0991  -21.8749  -13.9552 C   0  0  0  0  0  0  0  0  0  0  0  0
   27.3827  -19.0922  -16.6375 O   0  0  0  0  0  0  0  0  0  0  0  0
   28.7200  -18.7942  -16.4295 O   0  0  0  0  0  0  0  0  0  0  0  0
  2  3  2  0
  2  1  1  0
  4  2  1  0
  5  4  1  0
  6  5  1  0
  7  6  1  0
  8  7  1  0
  8  9  1  6
 10 17  1  0
 10  8  1  0
 11 10  2  0
 13 12  1  6
 14 13  1  0
 15 13  1  0
 16 17  1  0
 16 15  1  6
 18 16  1  0
 19 18  2  0
 20 18  1  0
 21 24  1  0
 21 20  1  0
 21 22  1  1
 23 22  1  0
 24 25  1  0
 26 24  2  0
M  END
$$$$
