RLC.pdb
     RDKit          3D

 26 25  0  0  1  0  0  0  0  0999 V2000
   25.8949  -18.1675  -17.7637 N   0  0  0  0  0  0  0  0  0  0  0  0
   27.0477  -18.2288  -18.5954 C   0  0  0  0  0  0  0  0  0  0  0  0
   26.9350  -17.9470  -19.8536 N   0  0  0  0  0  0  0  0  0  0  0  0
   28.3288  -18.5943  -18.0786 N   0  0  0  0  0  0  0  0  0  0  0  0
   28.4557  -19.0244  -16.6699 C   0  0  0  0  0  0  0  0  0  0  0  0
   28.2505  -20.5025  -16.5676 C   0  0  0  0  0  0  0  0  0  0  0  0
   27.8835  -21.0447  -15.2339 C   0  0  0  0  0  0  0  0  0  0  0  0
   27.1247  -20.0725  -14.4088 C   0  0  2  0  0  0  0  0  0  0  0  0
   28.0011  -19.3117  -13.5740 N   0  0  0  0  0  0  0  0  0  0  0  0
   26.0309  -20.7267  -13.6320 C   0  0  0  0  0  0  0  0  0  0  0  0
   25.2256  -21.4840  -14.2439 O   0  0  0  0  0  0  0  0  0  0  0  0
   27.7639  -17.8629  -20.4705 C   0  0  0  0  0  0  0  0  0  0  0  0
   25.9795  -19.7188   -8.3116 C   0  0  1  0  0  0  0  0  0  0  0  0
   26.1502  -20.3443   -9.6654 C   0  0  0  0  0  0  0  0  0  0  0  0
   27.2562  -21.4115   -9.4886 C   0  0  0  0  0  0  0  0  0  0  0  0
   24.9327  -21.0867  -10.0412 C   0  0  2  0  0  0  0  0  0  0  0  0
   24.6892  -21.1957  -11.5571 N   0  0  0  0  0  0  0  0  0  0  0  0
   25.8159  -20.5720  -12.2392 C   0  0  0  0  0  0  0  0  0  0  0  0
   23.4009  -20.6543  -11.9604 O   0  0  0  0  0  0  0  0  0  0  0  0
   23.1602  -19.4246  -11.8420 N   0  0  0  0  0  0  0  0  0  0  0  0
   22.3268  -21.4452  -12.5123 C   0  0  1  0  0  0  0  0  0  0  0  0
   21.1045  -20.7635  -12.9245 C   0  0  0  0  0  0  0  0  0  0  0  0
   20.7698  -21.0223  -14.3645 S   0  0  0  0  0  0  0  0  0  0  0  0
   22.0158  -20.3152  -15.4972 C   0  0  0  0  0  0  0  0  0  0  0  0
   19.9720  -21.2733  -12.1100 O   0  0  0  0  0  0  0  0  0  0  0  0
   18.7064  -20.7111  -12.1609 O   0  0  0  0  0  0  0  0  0  0  0  0
  2  3  2  0
  2  1  1  0
  4  2  1  0
  5  4  1  0
  6  5  1  0
  7  6  1  0
  8  7  1  0
  8  9  1  1
 10 17  1  0
 10  8  1  0
 11 10  2  0
 13 12  1  6
 14 13  1  0
 15 13  1  0
 16 17  1  0
 16 15  1  6
 18 16  1  0
 19 18  2  0
 20 18  1  0
 21 24  1  0
 21 20  1  0
 21 22  1  1
 23 22  1  0
 24 25  1  0
 26 24  2  0
M  END
$$$$
