RLC.pdb
     RDKit          3D

 26 25  0  0  1  0  0  0  0  0999 V2000
   16.4841  -15.2701  -15.5015 N   0  0  0  0  0  0  0  0  0  0  0  0
   16.5712  -15.0988  -16.9113 C   0  0  0  0  0  0  0  0  0  0  0  0
   15.8059  -15.8027  -17.6819 N   0  0  0  0  0  0  0  0  0  0  0  0
   17.4828  -14.1694  -17.5007 N   0  0  0  0  0  0  0  0  0  0  0  0
   18.9391  -14.3791  -17.3567 C   0  0  0  0  0  0  0  0  0  0  0  0
   19.6833  -13.2925  -18.0659 C   0  0  0  0  0  0  0  0  0  0  0  0
   20.3308  -12.2539  -17.2237 C   0  0  0  0  0  0  0  0  0  0  0  0
   21.7156  -12.6149  -16.8318 C   0  0  2  0  0  0  0  0  0  0  0  0
   21.7417  -13.8512  -16.1146 N   0  0  0  0  0  0  0  0  0  0  0  0
   22.3942  -11.5145  -16.0859 C   0  0  0  0  0  0  0  0  0  0  0  0
   22.0287  -11.2737  -14.9007 O   0  0  0  0  0  0  0  0  0  0  0  0
   15.8276  -15.7007  -18.7134 C   0  0  0  0  0  0  0  0  0  0  0  0
   27.6639  -10.4029  -16.7361 C   0  0  1  0  0  0  0  0  0  0  0  0
   26.2884  -10.6558  -16.1912 C   0  0  0  0  0  0  0  0  0  0  0  0
   26.4877  -10.9258  -14.6810 C   0  0  0  0  0  0  0  0  0  0  0  0
   25.4733   -9.4297  -16.2754 C   0  0  2  0  0  0  0  0  0  0  0  0
   24.0078   -9.6014  -15.8372 N   0  0  0  0  0  0  0  0  0  0  0  0
   23.4365  -10.7031  -16.6011 C   0  0  0  0  0  0  0  0  0  0  0  0
   23.2412   -8.3698  -15.9420 O   0  0  0  0  0  0  0  0  0  0  0  0
   22.8289   -7.9681  -17.0614 N   0  0  0  0  0  0  0  0  0  0  0  0
   22.8961   -7.5322  -14.8181 C   0  0  1  0  0  0  0  0  0  0  0  0
   22.0267   -6.3838  -15.0500 C   0  0  0  0  0  0  0  0  0  0  0  0
   21.1992   -6.0472  -13.8439 S   0  0  0  0  0  0  0  0  0  0  0  0
   20.2469   -4.5057  -14.0725 C   0  0  0  0  0  0  0  0  0  0  0  0
   22.8678   -5.1978  -15.3527 O   0  0  0  0  0  0  0  0  0  0  0  0
   22.4438   -4.1792  -16.1911 O   0  0  0  0  0  0  0  0  0  0  0  0
  2  3  2  0
  2  1  1  0
  4  2  1  0
  5  4  1  0
  6  5  1  0
  7  6  1  0
  8  7  1  0
  8  9  1  1
 10 17  1  0
 10  8  1  0
 11 10  2  0
 13 12  1  6
 14 13  1  0
 15 13  1  0
 16 17  1  0
 16 15  1  1
 18 16  1  0
 19 18  2  0
 20 18  1  0
 21 24  1  0
 21 20  1  0
 21 22  1  6
 23 22  1  0
 24 25  1  0
 26 24  2  0
M  END
$$$$
