RLC.pdb
     RDKit          3D

 26 25  0  0  1  0  0  0  0  0999 V2000
   15.8394  -15.4994  -16.4115 N   0  0  0  0  0  0  0  0  0  0  0  0
   16.5201  -15.7732  -17.6305 C   0  0  0  0  0  0  0  0  0  0  0  0
   16.2195  -16.8417  -18.2961 N   0  0  0  0  0  0  0  0  0  0  0  0
   17.5291  -14.8992  -18.1407 N   0  0  0  0  0  0  0  0  0  0  0  0
   18.1821  -13.9273  -17.2382 C   0  0  0  0  0  0  0  0  0  0  0  0
   19.1457  -13.0825  -18.0097 C   0  0  0  0  0  0  0  0  0  0  0  0
   19.7521  -11.9268  -17.3000 C   0  0  0  0  0  0  0  0  0  0  0  0
   21.1224  -12.2112  -16.8072 C   0  0  2  0  0  0  0  0  0  0  0  0
   21.1339  -13.3553  -15.9501 N   0  0  0  0  0  0  0  0  0  0  0  0
   21.7487  -11.0180  -16.1656 C   0  0  0  0  0  0  0  0  0  0  0  0
   21.4535  -10.7531  -14.9660 O   0  0  0  0  0  0  0  0  0  0  0  0
   16.6719  -17.0662  -19.2015 C   0  0  0  0  0  0  0  0  0  0  0  0
   26.9057  -10.0328  -16.1136 C   0  0  1  0  0  0  0  0  0  0  0  0
   25.4428  -10.1183  -15.7884 C   0  0  0  0  0  0  0  0  0  0  0  0
   25.3547   -9.9772  -14.2504 C   0  0  0  0  0  0  0  0  0  0  0  0
   24.7290   -8.9516  -16.3399 C   0  0  2  0  0  0  0  0  0  0  0  0
   23.2055   -8.9684  -16.1206 N   0  0  0  0  0  0  0  0  0  0  0  0
   22.6670  -10.1415  -16.7970 C   0  0  0  0  0  0  0  0  0  0  0  0
   22.5652   -7.7265  -16.5248 O   0  0  0  0  0  0  0  0  0  0  0  0
   22.6917   -7.2967  -17.7010 N   0  0  0  0  0  0  0  0  0  0  0  0
   21.7583   -6.9093  -15.6503 C   0  0  1  0  0  0  0  0  0  0  0  0
   21.1577   -5.6957  -16.1937 C   0  0  0  0  0  0  0  0  0  0  0  0
   19.8966   -5.3165  -15.4737 S   0  0  0  0  0  0  0  0  0  0  0  0
   18.6391   -6.6389  -15.5478 C   0  0  0  0  0  0  0  0  0  0  0  0
   22.1142   -4.5714  -16.0297 O   0  0  0  0  0  0  0  0  0  0  0  0
   21.8261   -3.2822  -16.4483 O   0  0  0  0  0  0  0  0  0  0  0  0
  2  3  2  0
  2  1  1  0
  4  2  1  0
  5  4  1  0
  6  5  1  0
  7  6  1  0
  8  7  1  0
  8  9  1  1
 10 17  1  0
 10  8  1  0
 11 10  2  0
 13 12  1  1
 14 13  1  0
 15 13  1  0
 16 17  1  0
 16 15  1  1
 18 16  1  0
 19 18  2  0
 20 18  1  0
 21 24  1  0
 21 20  1  0
 21 22  1  6
 23 22  1  0
 24 25  1  0
 26 24  2  0
M  END
$$$$
