RLC.pdb
     RDKit          3D

 26 25  0  0  1  0  0  0  0  0999 V2000
   18.2185  -26.0648  -15.0388 N   0  0  0  0  0  0  0  0  0  0  0  0
   19.5801  -26.4734  -15.0997 C   0  0  0  0  0  0  0  0  0  0  0  0
   19.9051  -27.4801  -15.8452 N   0  0  0  0  0  0  0  0  0  0  0  0
   20.6003  -25.8015  -14.3581 N   0  0  0  0  0  0  0  0  0  0  0  0
   20.2591  -24.6049  -13.5599 C   0  0  0  0  0  0  0  0  0  0  0  0
   20.1083  -23.4185  -14.4583 C   0  0  0  0  0  0  0  0  0  0  0  0
   21.2191  -22.4319  -14.4696 C   0  0  0  0  0  0  0  0  0  0  0  0
   21.3035  -21.6490  -13.2120 C   0  0  2  0  0  0  0  0  0  0  0  0
   20.2193  -20.7230  -13.1088 N   0  0  0  0  0  0  0  0  0  0  0  0
   22.6306  -20.9856  -13.0503 C   0  0  0  0  0  0  0  0  0  0  0  0
   22.7561  -19.7864  -13.4277 O   0  0  0  0  0  0  0  0  0  0  0  0
   20.8709  -27.8565  -15.8635 C   0  0  0  0  0  0  0  0  0  0  0  0
   24.8436  -20.1299   -9.5011 C   0  0  2  0  0  0  0  0  0  0  0  0
   26.1262  -20.4965  -10.1891 C   0  0  0  0  0  0  0  0  0  0  0  0
   26.9620  -21.2490   -9.1267 C   0  0  0  0  0  0  0  0  0  0  0  0
   25.8677  -21.4742  -11.2624 C   0  0  2  0  0  0  0  0  0  0  0  0
   25.0743  -20.9193  -12.4591 N   0  0  0  0  0  0  0  0  0  0  0  0
   23.7839  -21.5955  -12.4951 C   0  0  0  0  0  0  0  0  0  0  0  0
   25.8076  -21.0115  -13.7118 O   0  0  0  0  0  0  0  0  0  0  0  0
   26.1694  -22.1313  -14.1584 N   0  0  0  0  0  0  0  0  0  0  0  0
   26.1700  -19.8745  -14.5239 C   0  0  1  0  0  0  0  0  0  0  0  0
   26.8280  -20.1174  -15.8033 C   0  0  0  0  0  0  0  0  0  0  0  0
   26.1646  -19.3807  -16.9301 S   0  0  0  0  0  0  0  0  0  0  0  0
   24.3721  -19.7208  -17.0124 C   0  0  0  0  0  0  0  0  0  0  0  0
   28.2291  -19.6314  -15.7229 O   0  0  0  0  0  0  0  0  0  0  0  0
   29.2259  -20.0913  -16.5685 O   0  0  0  0  0  0  0  0  0  0  0  0
  2  3  2  0
  2  1  1  0
  4  2  1  0
  5  4  1  0
  6  5  1  0
  7  6  1  0
  8  7  1  0
  8  9  1  6
 10 17  1  0
 10  8  1  0
 11 10  2  0
 13 12  1  1
 14 13  1  0
 15 13  1  0
 16 17  1  0
 16 15  1  1
 18 16  1  0
 19 18  2  0
 20 18  1  0
 21 24  1  0
 21 20  1  0
 21 22  1  6
 23 22  1  0
 24 25  1  0
 26 24  2  0
M  END
$$$$
