RLC.pdb
     RDKit          3D

 26 25  0  0  1  0  0  0  0  0999 V2000
   27.4931  -23.3894  -16.9557 N   0  0  0  0  0  0  0  0  0  0  0  0
   26.1155  -23.0565  -17.0818 C   0  0  0  0  0  0  0  0  0  0  0  0
   25.6850  -22.5591  -18.1964 N   0  0  0  0  0  0  0  0  0  0  0  0
   25.1927  -23.2560  -16.0091 N   0  0  0  0  0  0  0  0  0  0  0  0
   25.6771  -23.7741  -14.7120 C   0  0  0  0  0  0  0  0  0  0  0  0
   24.5535  -23.8095  -13.7253 C   0  0  0  0  0  0  0  0  0  0  0  0
   23.9736  -22.5056  -13.3120 C   0  0  0  0  0  0  0  0  0  0  0  0
   24.9859  -21.5830  -12.7414 C   0  0  2  0  0  0  0  0  0  0  0  0
   24.9481  -21.5976  -11.3124 N   0  0  0  0  0  0  0  0  0  0  0  0
   24.8648  -20.2025  -13.2958 C   0  0  0  0  0  0  0  0  0  0  0  0
   24.1305  -19.3713  -12.6908 O   0  0  0  0  0  0  0  0  0  0  0  0
   24.6785  -22.3691  -18.3567 C   0  0  0  0  0  0  0  0  0  0  0  0
   26.4234  -15.4976  -15.2292 C   0  0  2  0  0  0  0  0  0  0  0  0
   26.5866  -16.5899  -16.2457 C   0  0  0  0  0  0  0  0  0  0  0  0
   27.9842  -16.3652  -16.8698 C   0  0  0  0  0  0  0  0  0  0  0  0
   26.6521  -17.9028  -15.5771 C   0  0  1  0  0  0  0  0  0  0  0  0
   25.3215  -18.3806  -14.9684 N   0  0  0  0  0  0  0  0  0  0  0  0
   25.5186  -19.7332  -14.4631 C   0  0  0  0  0  0  0  0  0  0  0  0
   24.2065  -18.2694  -15.8956 O   0  0  0  0  0  0  0  0  0  0  0  0
   24.1395  -19.0173  -16.9058 N   0  0  0  0  0  0  0  0  0  0  0  0
   23.1194  -17.3314  -15.7465 C   0  0  1  0  0  0  0  0  0  0  0  0
   22.0546  -17.3394  -16.7439 C   0  0  0  0  0  0  0  0  0  0  0  0
   20.6962  -17.1895  -16.1233 S   0  0  0  0  0  0  0  0  0  0  0  0
   20.3585  -18.4905  -14.8868 C   0  0  0  0  0  0  0  0  0  0  0  0
   22.2487  -16.1892  -17.6632 O   0  0  0  0  0  0  0  0  0  0  0  0
   21.4658  -15.9971  -18.7903 O   0  0  0  0  0  0  0  0  0  0  0  0
  2  3  2  0
  2  1  1  0
  4  2  1  0
  5  4  1  0
  6  5  1  0
  7  6  1  0
  8  7  1  0
  8  9  1  1
 10 17  1  0
 10  8  1  0
 11 10  2  0
 13 12  1  6
 14 13  1  0
 15 13  1  0
 16 17  1  0
 16 15  1  1
 18 16  1  0
 19 18  2  0
 20 18  1  0
 21 24  1  0
 21 20  1  0
 21 22  1  6
 23 22  1  0
 24 25  1  0
 26 24  2  0
M  END
$$$$
