MIM.pdb
     RDKit          3D

 25 24  0  0  1  0  0  0  0  0999 V2000
   20.3567  -17.8855  -11.1582 C   0  0  0  0  0  0  0  0  0  0  0  0
   19.6250  -18.5476  -12.6575 S   0  0  0  0  0  0  0  0  0  0  0  0
   20.8106  -19.5960  -13.5396 C   0  0  0  0  0  0  0  0  0  0  0  0
   21.7780  -20.1988  -12.5632 C   0  0  0  0  0  0  0  0  0  0  0  0
   22.8287  -20.9497  -13.3340 C   0  0  2  0  0  0  0  0  0  0  0  0
   22.2225  -22.0317  -14.0419 N   0  0  0  0  0  0  0  0  0  0  0  0
   23.9222  -21.3920  -12.4277 C   0  0  0  0  0  0  0  0  0  0  0  0
   23.8365  -22.5027  -11.8427 O   0  0  0  0  0  0  0  0  0  0  0  0
   29.0957  -21.2786  -13.6740 C   0  0  0  0  0  0  0  0  0  0  0  0
   27.6942  -21.6029  -13.2015 C   0  0  0  0  0  0  0  0  0  0  0  0
   27.5008  -20.9381  -11.8648 C   0  0  2  0  0  0  0  0  0  0  0  0
   28.4805  -21.5163  -10.8732 C   0  0  0  0  0  0  0  0  0  0  0  0
   26.1088  -21.1257  -11.3109 C   0  0  2  0  0  0  0  0  0  0  0  0
   25.0800  -20.6126  -12.1826 N   0  0  0  0  0  0  0  0  0  0  0  0
   25.9600  -20.4105   -9.9949 C   0  0  0  0  0  0  0  0  0  0  0  0
   25.5458  -19.2217   -9.9218 O   0  0  0  0  0  0  0  0  0  0  0  0
   29.9399  -21.4222   -4.4806 C   0  0  0  0  0  0  0  0  0  0  0  0
   28.2361  -21.9123   -4.2105 S   0  0  0  0  0  0  0  0  0  0  0  0
   27.1368  -20.8277   -5.1178 C   0  0  0  0  0  0  0  0  0  0  0  0
   26.8979  -21.2371   -6.5109 C   0  0  0  0  0  0  0  0  0  0  0  0
   26.3495  -20.2719   -7.4903 C   0  0  2  0  0  0  0  0  0  0  0  0
   26.2810  -21.0456   -8.7703 N   0  0  0  0  0  0  0  0  0  0  0  0
   27.0331  -19.0147   -7.7050 C   0  0  0  0  0  0  0  0  0  0  0  0
   28.1168  -18.8942   -8.5468 O   0  0  0  0  0  0  0  0  0  0  0  0
   26.6819  -17.9266   -7.1232 O   0  0  0  0  0  0  0  0  0  0  0  0
  1  2  1  0
  3  2  1  0
  4  5  1  0
  4  3  1  0
  5  6  1  1
  7  8  2  0
  7  5  1  0
  9 10  1  0
 11 13  1  0
 11 10  1  0
 11 12  1  1
 13 14  1  6
 14  7  1  0
 15 22  1  0
 15 13  1  0
 16 15  2  0
 18 17  1  0
 19 20  1  0
 19 18  1  0
 21 20  1  1
 21 22  1  0
 23 21  1  0
 24 23  1  0
 25 23  2  0
M  END
$$$$
