MIM.pdb
     RDKit          3D

 25 24  0  0  1  0  0  0  0  0999 V2000
   18.8018  -20.5530  -10.2153 C   0  0  0  0  0  0  0  0  0  0  0  0
   19.1057  -21.6485  -11.6043 S   0  0  0  0  0  0  0  0  0  0  0  0
   19.4503  -23.3316  -11.0288 C   0  0  0  0  0  0  0  0  0  0  0  0
   18.3690  -23.7763  -10.0877 C   0  0  0  0  0  0  0  0  0  0  0  0
   18.7344  -25.1315   -9.5472 C   0  0  2  0  0  0  0  0  0  0  0  0
   18.8495  -26.0622  -10.6243 N   0  0  0  0  0  0  0  0  0  0  0  0
   17.7541  -25.5610   -8.5141 C   0  0  0  0  0  0  0  0  0  0  0  0
   16.7396  -26.2234   -8.8540 O   0  0  0  0  0  0  0  0  0  0  0  0
   18.6577  -27.0949   -3.2166 C   0  0  0  0  0  0  0  0  0  0  0  0
   18.1399  -27.0653   -4.6392 C   0  0  0  0  0  0  0  0  0  0  0  0
   17.3376  -25.8022   -4.8039 C   0  0  2  0  0  0  0  0  0  0  0  0
   16.1343  -25.8529   -3.8944 C   0  0  0  0  0  0  0  0  0  0  0  0
   16.8475  -25.5972   -6.2171 C   0  0  2  0  0  0  0  0  0  0  0  0
   17.9048  -25.2577   -7.1381 N   0  0  0  0  0  0  0  0  0  0  0  0
   15.8448  -24.4760   -6.2741 C   0  0  0  0  0  0  0  0  0  0  0  0
   16.1865  -23.2663   -6.1754 O   0  0  0  0  0  0  0  0  0  0  0  0
   11.2700  -23.7646  -10.6077 C   0  0  0  0  0  0  0  0  0  0  0  0
   10.2933  -23.7055   -9.1047 S   0  0  0  0  0  0  0  0  0  0  0  0
   11.3091  -23.1535   -7.7368 C   0  0  0  0  0  0  0  0  0  0  0  0
   12.5167  -23.9646   -7.5149 C   0  0  0  0  0  0  0  0  0  0  0  0
   13.4604  -23.6189   -6.4279 C   0  0  2  0  0  0  0  0  0  0  0  0
   14.4619  -24.7316   -6.4425 N   0  0  0  0  0  0  0  0  0  0  0  0
   12.9546  -23.4226   -5.0864 C   0  0  0  0  0  0  0  0  0  0  0  0
   12.5437  -22.1928   -4.6213 O   0  0  0  0  0  0  0  0  0  0  0  0
   12.8583  -24.3777   -4.2352 O   0  0  0  0  0  0  0  0  0  0  0  0
  1  2  1  0
  3  2  1  0
  4  5  1  0
  4  3  1  0
  5  6  1  6
  7  8  2  0
  7  5  1  0
  9 10  1  0
 11 13  1  0
 11 10  1  0
 11 12  1  1
 13 14  1  6
 14  7  1  0
 15 22  1  0
 15 13  1  0
 16 15  2  0
 18 17  1  0
 19 20  1  0
 19 18  1  0
 21 20  1  6
 21 22  1  0
 23 21  1  0
 24 23  1  0
 25 23  2  0
M  END
$$$$
