MIM.pdb
     RDKit          3D

 25 24  0  0  1  0  0  0  0  0999 V2000
   20.2327  -18.8228  -10.5258 C   0  0  0  0  0  0  0  0  0  0  0  0
   19.6862  -19.4927  -12.0988 S   0  0  0  0  0  0  0  0  0  0  0  0
   21.1035  -20.0185  -13.0976 C   0  0  0  0  0  0  0  0  0  0  0  0
   22.0960  -20.7363  -12.2303 C   0  0  0  0  0  0  0  0  0  0  0  0
   23.3187  -21.0375  -13.0527 C   0  0  2  0  0  0  0  0  0  0  0  0
   23.0143  -22.0518  -14.0107 N   0  0  0  0  0  0  0  0  0  0  0  0
   24.4620  -21.3982  -12.1720 C   0  0  0  0  0  0  0  0  0  0  0  0
   24.6388  -22.5989  -11.8399 O   0  0  0  0  0  0  0  0  0  0  0  0
   28.4239  -20.6373  -13.9460 C   0  0  0  0  0  0  0  0  0  0  0  0
   27.9799  -21.5395  -12.8140 C   0  0  0  0  0  0  0  0  0  0  0  0
   27.8318  -20.6845  -11.5838 C   0  0  2  0  0  0  0  0  0  0  0  0
   28.9296  -21.0231  -10.6052 C   0  0  0  0  0  0  0  0  0  0  0  0
   26.5069  -20.8816  -10.8871 C   0  0  2  0  0  0  0  0  0  0  0  0
   25.3824  -20.4414  -11.6766 N   0  0  0  0  0  0  0  0  0  0  0  0
   26.4638  -20.1049   -9.5985 C   0  0  0  0  0  0  0  0  0  0  0  0
   26.2263  -18.8668   -9.5703 O   0  0  0  0  0  0  0  0  0  0  0  0
   25.9649  -23.1710   -4.0299 C   0  0  0  0  0  0  0  0  0  0  0  0
   27.0465  -21.8678   -3.4398 S   0  0  0  0  0  0  0  0  0  0  0  0
   27.0798  -20.5201   -4.6190 C   0  0  0  0  0  0  0  0  0  0  0  0
   26.9190  -20.9392   -6.0205 C   0  0  0  0  0  0  0  0  0  0  0  0
   26.9116  -19.9324   -7.1058 C   0  0  2  0  0  0  0  0  0  0  0  0
   26.6899  -20.7348   -8.3502 N   0  0  0  0  0  0  0  0  0  0  0  0
   28.0555  -19.0620   -7.2725 C   0  0  0  0  0  0  0  0  0  0  0  0
   28.1129  -17.7996   -6.7243 O   0  0  0  0  0  0  0  0  0  0  0  0
   29.0931  -19.4022   -7.9461 O   0  0  0  0  0  0  0  0  0  0  0  0
  1  2  1  0
  3  2  1  0
  4  5  1  0
  4  3  1  0
  5  6  1  6
  7  8  2  0
  7  5  1  0
  9 10  1  0
 11 13  1  0
 11 10  1  0
 11 12  1  1
 13 14  1  6
 14  7  1  0
 15 22  1  0
 15 13  1  0
 16 15  2  0
 18 17  1  0
 19 20  1  0
 19 18  1  0
 21 20  1  1
 21 22  1  0
 23 21  1  0
 24 23  1  0
 25 23  2  0
M  END
$$$$
