MIM.pdb
     RDKit          3D

 25 24  0  0  1  0  0  0  0  0999 V2000
   26.4753  -17.1762  -17.2391 C   0  0  0  0  0  0  0  0  0  0  0  0
   28.2493  -17.1805  -16.9660 S   0  0  0  0  0  0  0  0  0  0  0  0
   28.7517  -18.6579  -16.0453 C   0  0  0  0  0  0  0  0  0  0  0  0
   27.5585  -19.2580  -15.3606 C   0  0  0  0  0  0  0  0  0  0  0  0
   28.0066  -20.4768  -14.6018 C   0  0  2  0  0  0  0  0  0  0  0  0
   28.4537  -21.4755  -15.5195 N   0  0  0  0  0  0  0  0  0  0  0  0
   26.9220  -20.9593  -13.7052 C   0  0  0  0  0  0  0  0  0  0  0  0
   26.2297  -21.9541  -14.0433 O   0  0  0  0  0  0  0  0  0  0  0  0
   26.9697  -20.4176   -8.2345 C   0  0  0  0  0  0  0  0  0  0  0  0
   26.7983  -21.0802   -9.5851 C   0  0  0  0  0  0  0  0  0  0  0  0
   25.5813  -20.4778  -10.2350 C   0  0  2  0  0  0  0  0  0  0  0  0
   24.3406  -21.0027   -9.5548 C   0  0  0  0  0  0  0  0  0  0  0  0
   25.4802  -20.8003  -11.7064 C   0  0  2  0  0  0  0  0  0  0  0  0
   26.6204  -20.3453  -12.4642 N   0  0  0  0  0  0  0  0  0  0  0  0
   24.2671  -20.1460  -12.3115 C   0  0  0  0  0  0  0  0  0  0  0  0
   24.3482  -19.0954  -13.0040 O   0  0  0  0  0  0  0  0  0  0  0  0
   24.2812  -21.3235  -16.9142 C   0  0  0  0  0  0  0  0  0  0  0  0
   22.5164  -21.5982  -17.0760 S   0  0  0  0  0  0  0  0  0  0  0  0
   21.6628  -20.9504  -15.6408 C   0  0  0  0  0  0  0  0  0  0  0  0
   22.4681  -20.9470  -14.4091 C   0  0  0  0  0  0  0  0  0  0  0  0
   21.8874  -20.4598  -13.1375 C   0  0  2  0  0  0  0  0  0  0  0  0
   22.9703  -20.6853  -12.1285 N   0  0  0  0  0  0  0  0  0  0  0  0
   20.6418  -21.0248  -12.6650 C   0  0  0  0  0  0  0  0  0  0  0  0
   19.4193  -20.4454  -12.9239 O   0  0  0  0  0  0  0  0  0  0  0  0
   20.5890  -22.1008  -11.9682 O   0  0  0  0  0  0  0  0  0  0  0  0
  1  2  1  0
  3  2  1  0
  4  5  1  0
  4  3  1  0
  5  6  1  6
  7  8  2  0
  7  5  1  0
  9 10  1  0
 11 13  1  0
 11 10  1  0
 11 12  1  1
 13 14  1  6
 14  7  1  0
 15 22  1  0
 15 13  1  0
 16 15  2  0
 18 17  1  0
 19 20  1  0
 19 18  1  0
 21 20  1  6
 21 22  1  0
 23 21  1  0
 24 23  1  0
 25 23  2  0
M  END
$$$$
