MIM.pdb
     RDKit          3D

 25 24  0  0  1  0  0  0  0  0999 V2000
   19.2390   -7.3242  -21.9391 C   0  0  0  0  0  0  0  0  0  0  0  0
   18.3287   -8.8180  -22.3417 S   0  0  0  0  0  0  0  0  0  0  0  0
   18.8338  -10.1851  -21.2653 C   0  0  0  0  0  0  0  0  0  0  0  0
   19.1559   -9.6599  -19.8968 C   0  0  0  0  0  0  0  0  0  0  0  0
   19.6287  -10.8056  -19.0449 C   0  0  2  0  0  0  0  0  0  0  0  0
   18.6151  -11.8099  -18.9865 N   0  0  0  0  0  0  0  0  0  0  0  0
   20.0391  -10.3193  -17.7003 C   0  0  0  0  0  0  0  0  0  0  0  0
   19.2281  -10.3814  -16.7403 O   0  0  0  0  0  0  0  0  0  0  0  0
   24.0591  -12.0262  -14.9343 C   0  0  0  0  0  0  0  0  0  0  0  0
   22.7275  -11.4784  -15.4025 C   0  0  0  0  0  0  0  0  0  0  0  0
   22.8717   -9.9857  -15.5337 C   0  0  2  0  0  0  0  0  0  0  0  0
   23.1346   -9.3880  -14.1731 C   0  0  0  0  0  0  0  0  0  0  0  0
   21.6407   -9.3242  -16.1053 C   0  0  2  0  0  0  0  0  0  0  0  0
   21.3222   -9.7783  -17.4371 N   0  0  0  0  0  0  0  0  0  0  0  0
   21.8290   -7.8331  -16.1880 C   0  0  0  0  0  0  0  0  0  0  0  0
   22.6723   -7.3065  -16.9636 O   0  0  0  0  0  0  0  0  0  0  0  0
   17.3224   -4.1118  -17.3349 C   0  0  0  0  0  0  0  0  0  0  0  0
   17.9979   -2.9948  -16.1051 S   0  0  0  0  0  0  0  0  0  0  0  0
   19.6759   -3.4731  -15.7011 C   0  0  0  0  0  0  0  0  0  0  0  0
   19.9137   -4.9251  -15.7280 C   0  0  0  0  0  0  0  0  0  0  0  0
   21.2659   -5.4664  -15.4630 C   0  0  2  0  0  0  0  0  0  0  0  0
   21.0615   -6.9479  -15.3921 N   0  0  0  0  0  0  0  0  0  0  0  0
   21.9969   -5.0090  -14.3010 C   0  0  0  0  0  0  0  0  0  0  0  0
   22.8536   -3.9311  -14.3407 O   0  0  0  0  0  0  0  0  0  0  0  0
   21.9027   -5.5776  -13.1548 O   0  0  0  0  0  0  0  0  0  0  0  0
  1  2  1  0
  3  2  1  0
  4  5  1  0
  4  3  1  0
  5  6  1  1
  7  8  2  0
  7  5  1  0
  9 10  1  0
 11 13  1  0
 11 10  1  0
 11 12  1  1
 13 14  1  6
 14  7  1  0
 15 22  1  0
 15 13  1  0
 16 15  2  0
 18 17  1  0
 19 20  1  0
 19 18  1  0
 21 20  1  1
 21 22  1  0
 23 21  1  0
 24 23  1  0
 25 23  2  0
M  END
$$$$
