MIM.pdb
     RDKit          3D

 25 24  0  0  1  0  0  0  0  0999 V2000
   18.3544  -20.2923  -12.3273 C   0  0  0  0  0  0  0  0  0  0  0  0
   18.9052  -18.7956  -13.1510 S   0  0  0  0  0  0  0  0  0  0  0  0
   20.7062  -18.8002  -13.3499 C   0  0  0  0  0  0  0  0  0  0  0  0
   21.3130  -19.8328  -12.4454 C   0  0  0  0  0  0  0  0  0  0  0  0
   22.3883  -20.5599  -13.2050 C   0  0  2  0  0  0  0  0  0  0  0  0
   21.8037  -21.6088  -13.9781 N   0  0  0  0  0  0  0  0  0  0  0  0
   23.4437  -21.0456  -12.2760 C   0  0  0  0  0  0  0  0  0  0  0  0
   23.2459  -22.0860  -11.5964 O   0  0  0  0  0  0  0  0  0  0  0  0
   28.3678  -22.1295  -13.7855 C   0  0  0  0  0  0  0  0  0  0  0  0
   26.9729  -22.0415  -13.2031 C   0  0  0  0  0  0  0  0  0  0  0  0
   27.0352  -21.1212  -12.0133 C   0  0  2  0  0  0  0  0  0  0  0  0
   28.0498  -21.6473  -11.0278 C   0  0  0  0  0  0  0  0  0  0  0  0
   25.7113  -20.9938  -11.2988 C   0  0  2  0  0  0  0  0  0  0  0  0
   24.6867  -20.3851  -12.1119 N   0  0  0  0  0  0  0  0  0  0  0  0
   25.8526  -20.1405  -10.0669 C   0  0  0  0  0  0  0  0  0  0  0  0
   25.7799  -18.8824  -10.1117 O   0  0  0  0  0  0  0  0  0  0  0  0
   27.7215  -21.0263   -2.3925 C   0  0  0  0  0  0  0  0  0  0  0  0
   27.2405  -21.7117   -3.9785 S   0  0  0  0  0  0  0  0  0  0  0  0
   27.1473  -20.4092   -5.2043 C   0  0  0  0  0  0  0  0  0  0  0  0
   26.6584  -20.8513   -6.5201 C   0  0  0  0  0  0  0  0  0  0  0  0
   26.5392  -19.8863   -7.6363 C   0  0  2  0  0  0  0  0  0  0  0  0
   26.0754  -20.7168   -8.7924 N   0  0  0  0  0  0  0  0  0  0  0  0
   27.6923  -19.1004   -8.0195 C   0  0  0  0  0  0  0  0  0  0  0  0
   28.6311  -19.5517   -8.9208 O   0  0  0  0  0  0  0  0  0  0  0  0
   27.9238  -17.9318   -7.5433 O   0  0  0  0  0  0  0  0  0  0  0  0
  1  2  1  0
  3  2  1  0
  4  5  1  0
  4  3  1  0
  5  6  1  1
  7  8  2  0
  7  5  1  0
  9 10  1  0
 11 13  1  0
 11 10  1  0
 11 12  1  1
 13 14  1  6
 14  7  1  0
 15 22  1  0
 15 13  1  0
 16 15  2  0
 18 17  1  0
 19 20  1  0
 19 18  1  0
 21 20  1  1
 21 22  1  0
 23 21  1  0
 24 23  1  0
 25 23  2  0
M  END
$$$$
