MIM.pdb
     RDKit          3D

 25 24  0  0  1  0  0  0  0  0999 V2000
   19.7604  -17.8927  -12.0153 C   0  0  0  0  0  0  0  0  0  0  0  0
   19.6064  -17.3920  -13.7321 S   0  0  0  0  0  0  0  0  0  0  0  0
   20.6941  -18.3840  -14.7883 C   0  0  0  0  0  0  0  0  0  0  0  0
   21.6300  -19.1904  -13.9360 C   0  0  0  0  0  0  0  0  0  0  0  0
   22.4835  -20.0402  -14.8367 C   0  0  2  0  0  0  0  0  0  0  0  0
   21.6670  -21.0059  -15.5000 N   0  0  0  0  0  0  0  0  0  0  0  0
   23.5985  -20.6557  -14.0680 C   0  0  0  0  0  0  0  0  0  0  0  0
   23.4120  -21.7416  -13.4601 O   0  0  0  0  0  0  0  0  0  0  0  0
   28.8691  -20.7100  -15.5754 C   0  0  0  0  0  0  0  0  0  0  0  0
   27.4634  -21.0447  -15.1233 C   0  0  0  0  0  0  0  0  0  0  0  0
   27.2970  -20.5109  -13.7256 C   0  0  2  0  0  0  0  0  0  0  0  0
   28.2641  -21.2135  -12.8044 C   0  0  0  0  0  0  0  0  0  0  0  0
   25.9030  -20.7116  -13.1817 C   0  0  2  0  0  0  0  0  0  0  0  0
   24.8869  -20.0721  -13.9818 N   0  0  0  0  0  0  0  0  0  0  0  0
   25.7869  -20.1403  -11.7940 C   0  0  0  0  0  0  0  0  0  0  0  0
   25.8601  -18.9013  -11.5715 O   0  0  0  0  0  0  0  0  0  0  0  0
   21.2405  -21.7671   -7.6566 C   0  0  0  0  0  0  0  0  0  0  0  0
   22.7048  -21.9803   -6.6434 S   0  0  0  0  0  0  0  0  0  0  0  0
   24.0258  -20.9343   -7.2507 C   0  0  0  0  0  0  0  0  0  0  0  0
   24.3916  -21.1766   -8.6553 C   0  0  0  0  0  0  0  0  0  0  0  0
   25.4846  -20.4037   -9.2874 C   0  0  2  0  0  0  0  0  0  0  0  0
   25.5889  -20.9753  -10.6672 N   0  0  0  0  0  0  0  0  0  0  0  0
   26.7883  -20.3774   -8.6601 C   0  0  0  0  0  0  0  0  0  0  0  0
   27.1025  -19.5079   -7.6390 O   0  0  0  0  0  0  0  0  0  0  0  0
   27.7436  -21.1572   -9.0138 O   0  0  0  0  0  0  0  0  0  0  0  0
  1  2  1  0
  3  2  1  0
  4  5  1  0
  4  3  1  0
  5  6  1  1
  7  8  2  0
  7  5  1  0
  9 10  1  0
 11 13  1  0
 11 10  1  0
 11 12  1  1
 13 14  1  6
 14  7  1  0
 15 22  1  0
 15 13  1  0
 16 15  2  0
 18 17  1  0
 19 20  1  0
 19 18  1  0
 21 20  1  1
 21 22  1  0
 23 21  1  0
 24 23  1  0
 25 23  2  0
M  END
$$$$
