MIM.pdb
     RDKit          3D

 25 24  0  0  1  0  0  0  0  0999 V2000
   13.8602  -28.6648  -11.4136 C   0  0  0  0  0  0  0  0  0  0  0  0
   14.8206  -29.6671  -12.5515 S   0  0  0  0  0  0  0  0  0  0  0  0
   16.5589  -29.1560  -12.5443 C   0  0  0  0  0  0  0  0  0  0  0  0
   16.9144  -28.5884  -11.2012 C   0  0  0  0  0  0  0  0  0  0  0  0
   18.3450  -28.1262  -11.2418 C   0  0  2  0  0  0  0  0  0  0  0  0
   19.2087  -29.2528  -11.3975 N   0  0  0  0  0  0  0  0  0  0  0  0
   18.6640  -27.3151  -10.0363 C   0  0  0  0  0  0  0  0  0  0  0  0
   19.4275  -27.7844   -9.1530 O   0  0  0  0  0  0  0  0  0  0  0  0
   19.2740  -21.8644  -10.1664 C   0  0  0  0  0  0  0  0  0  0  0  0
   19.5140  -23.3374   -9.9109 C   0  0  0  0  0  0  0  0  0  0  0  0
   18.5318  -23.7817   -8.8601 C   0  0  2  0  0  0  0  0  0  0  0  0
   18.8741  -23.1228   -7.5463 C   0  0  0  0  0  0  0  0  0  0  0  0
   18.5336  -25.2765   -8.6483 C   0  0  2  0  0  0  0  0  0  0  0  0
   18.1430  -26.0144   -9.8249 N   0  0  0  0  0  0  0  0  0  0  0  0
   17.5713  -25.6593   -7.5560 C   0  0  0  0  0  0  0  0  0  0  0  0
   16.3286  -25.7367   -7.7550 O   0  0  0  0  0  0  0  0  0  0  0  0
   19.1612  -29.0213   -2.0967 C   0  0  0  0  0  0  0  0  0  0  0  0
   18.4356  -27.5112   -1.4567 S   0  0  0  0  0  0  0  0  0  0  0  0
   17.3057  -26.8177   -2.6610 C   0  0  0  0  0  0  0  0  0  0  0  0
   17.8951  -26.6100   -3.9933 C   0  0  0  0  0  0  0  0  0  0  0  0
   17.0565  -26.1315   -5.1155 C   0  0  2  0  0  0  0  0  0  0  0  0
   18.0221  -25.9519   -6.2455 N   0  0  0  0  0  0  0  0  0  0  0  0
   16.2616  -24.9343   -4.9455 C   0  0  0  0  0  0  0  0  0  0  0  0
   14.9095  -24.9728   -4.6855 O   0  0  0  0  0  0  0  0  0  0  0  0
   16.7585  -23.7546   -5.0303 O   0  0  0  0  0  0  0  0  0  0  0  0
  1  2  1  0
  3  2  1  0
  4  5  1  0
  4  3  1  0
  5  6  1  1
  7  8  2  0
  7  5  1  0
  9 10  1  0
 11 13  1  0
 11 10  1  0
 11 12  1  1
 13 14  1  6
 14  7  1  0
 15 22  1  0
 15 13  1  0
 16 15  2  0
 18 17  1  0
 19 20  1  0
 19 18  1  0
 21 20  1  1
 21 22  1  0
 23 21  1  0
 24 23  1  0
 25 23  2  0
M  END
$$$$
