MIM.pdb
     RDKit          3D

 25 24  0  0  1  0  0  0  0  0999 V2000
   25.1599  -16.8456  -17.5888 C   0  0  0  0  0  0  0  0  0  0  0  0
   26.9374  -16.8521  -17.8379 S   0  0  0  0  0  0  0  0  0  0  0  0
   27.7290  -18.0832  -16.7697 C   0  0  0  0  0  0  0  0  0  0  0  0
   26.6842  -18.9720  -16.1607 C   0  0  0  0  0  0  0  0  0  0  0  0
   27.3678  -19.9667  -15.2634 C   0  0  2  0  0  0  0  0  0  0  0  0
   28.2374  -20.7930  -16.0383 N   0  0  0  0  0  0  0  0  0  0  0  0
   26.3637  -20.7474  -14.4920 C   0  0  0  0  0  0  0  0  0  0  0  0
   25.8907  -21.8074  -14.9778 O   0  0  0  0  0  0  0  0  0  0  0  0
   25.3939  -20.1379   -8.8626 C   0  0  0  0  0  0  0  0  0  0  0  0
   25.1150  -19.9294  -10.3362 C   0  0  0  0  0  0  0  0  0  0  0  0
   25.2533  -21.2647  -11.0175 C   0  0  2  0  0  0  0  0  0  0  0  0
   26.6593  -21.7790  -10.8273 C   0  0  0  0  0  0  0  0  0  0  0  0
   24.9755  -21.1997  -12.5001 C   0  0  2  0  0  0  0  0  0  0  0  0
   25.9015  -20.3528  -13.2119 N   0  0  0  0  0  0  0  0  0  0  0  0
   23.5979  -20.6510  -12.7588 C   0  0  0  0  0  0  0  0  0  0  0  0
   23.3848  -19.4166  -12.9029 O   0  0  0  0  0  0  0  0  0  0  0  0
   22.1530  -19.8471  -17.4186 C   0  0  0  0  0  0  0  0  0  0  0  0
   20.4773  -19.3813  -16.9809 S   0  0  0  0  0  0  0  0  0  0  0  0
   20.1223  -19.8851  -15.2993 C   0  0  0  0  0  0  0  0  0  0  0  0
   21.2706  -20.4690  -14.5880 C   0  0  0  0  0  0  0  0  0  0  0  0
   21.1180  -20.9643  -13.2013 C   0  0  2  0  0  0  0  0  0  0  0  0
   22.4705  -21.5033  -12.8524 N   0  0  0  0  0  0  0  0  0  0  0  0
   20.0994  -21.9497  -12.9091 C   0  0  0  0  0  0  0  0  0  0  0  0
   18.7964  -21.6068  -12.6225 O   0  0  0  0  0  0  0  0  0  0  0  0
   20.3390  -23.2099  -12.8911 O   0  0  0  0  0  0  0  0  0  0  0  0
  1  2  1  0
  3  2  1  0
  4  5  1  0
  4  3  1  0
  5  6  1  6
  7  8  2  0
  7  5  1  0
  9 10  1  0
 11 13  1  0
 11 10  1  0
 11 12  1  6
 13 14  1  6
 14  7  1  0
 15 22  1  0
 15 13  1  0
 16 15  2  0
 18 17  1  0
 19 20  1  0
 19 18  1  0
 21 20  1  6
 21 22  1  0
 23 21  1  0
 24 23  1  0
 25 23  2  0
M  END
$$$$
