FIV.pdb
     RDKit          3D

 27 27  0  0  1  0  0  0  0  0999 V2000
   25.3149  -16.9537  -17.3438 N   0  0  0  0  0  0  0  0  0  0  0  0
   26.1027  -17.7249  -16.4025 C   0  0  1  0  0  0  0  0  0  0  0  0
   27.1043  -16.7579  -15.7838 C   0  0  0  0  0  0  0  0  0  0  0  0
   28.2563  -16.6436  -16.6894 C   0  0  0  0  0  0  0  0  0  0  0  0
   28.4786  -15.4757  -17.3780 C   0  0  0  0  0  0  0  0  0  0  0  0
   29.5536  -15.3765  -18.2197 C   0  0  0  0  0  0  0  0  0  0  0  0
   30.4106  -16.4503  -18.3738 C   0  0  0  0  0  0  0  0  0  0  0  0
   30.1965  -17.6350  -17.6837 C   0  0  0  0  0  0  0  0  0  0  0  0
   29.1123  -17.7102  -16.8458 C   0  0  0  0  0  0  0  0  0  0  0  0
   25.2006  -18.1516  -15.3065 C   0  0  0  0  0  0  0  0  0  0  0  0
   24.4862  -17.3269  -14.7058 O   0  0  0  0  0  0  0  0  0  0  0  0
   21.2410  -20.5510  -16.2332 C   0  0  0  0  0  0  0  0  0  0  0  0
   22.3563  -19.8694  -15.5122 C   0  0  0  0  0  0  0  0  0  0  0  0
   23.0884  -20.7431  -14.5335 C   0  0  2  0  0  0  0  0  0  0  0  0
   22.1782  -21.4299  -13.5663 C   0  0  0  0  0  0  0  0  0  0  0  0
   24.1737  -19.9433  -13.8456 C   0  0  2  0  0  0  0  0  0  0  0  0
   25.0937  -19.5078  -14.8767 N   0  0  0  0  0  0  0  0  0  0  0  0
   24.8536  -20.7344  -12.7899 C   0  0  0  0  0  0  0  0  0  0  0  0
   25.2583  -21.8865  -13.0953 O   0  0  0  0  0  0  0  0  0  0  0  0
   25.9384  -19.3272   -8.8381 C   0  0  0  0  0  0  0  0  0  0  0  0
   26.6326  -20.4300   -9.6075 C   0  0  2  0  0  0  0  0  0  0  0  0
   27.7338  -19.8636  -10.4814 C   0  0  0  0  0  0  0  0  0  0  0  0
   25.6653  -21.1841  -10.4909 C   0  0  2  0  0  0  0  0  0  0  0  0
   25.0761  -20.2863  -11.4749 N   0  0  0  0  0  0  0  0  0  0  0  0
   24.5888  -21.7320   -9.6114 C   0  0  0  0  0  0  0  0  0  0  0  0
   23.4533  -21.1935   -9.5588 O   0  0  0  0  0  0  0  0  0  0  0  0
   24.8015  -22.8515   -8.8230 O   0  0  0  0  0  0  0  0  0  0  0  0
  2  1  1  6
  3  2  1  0
  4  5  2  0
  4  3  1  0
  6  5  1  0
  7  6  2  0
  8  7  1  0
  8  9  2  0
  9  4  1  0
 10 17  1  0
 10  2  1  0
 11 10  2  0
 13 14  1  0
 13 12  1  0
 14 16  1  0
 14 15  1  1
 16 17  1  6
 18 16  1  0
 19 18  2  0
 21 20  1  6
 21 23  1  0
 22 21  1  0
 23 25  1  0
 23 24  1  6
 24 18  1  0
 25 27  1  0
 26 25  2  0
M  END
$$$$
