FIV.pdb
     RDKit          3D

 27 27  0  0  1  0  0  0  0  0999 V2000
   24.7279  -19.0024  -16.3759 N   0  0  0  0  0  0  0  0  0  0  0  0
   25.6488  -18.6595  -15.3102 C   0  0  1  0  0  0  0  0  0  0  0  0
   26.0438  -17.2051  -15.5324 C   0  0  0  0  0  0  0  0  0  0  0  0
   27.2196  -17.1750  -16.4140 C   0  0  0  0  0  0  0  0  0  0  0  0
   28.3130  -17.9574  -16.1315 C   0  0  0  0  0  0  0  0  0  0  0  0
   29.4045  -17.9242  -16.9570 C   0  0  0  0  0  0  0  0  0  0  0  0
   29.4028  -17.1047  -18.0704 C   0  0  0  0  0  0  0  0  0  0  0  0
   28.3044  -16.3101  -18.3661 C   0  0  0  0  0  0  0  0  0  0  0  0
   27.2222  -16.3606  -17.5237 C   0  0  0  0  0  0  0  0  0  0  0  0
   24.8937  -18.6984  -14.0352 C   0  0  0  0  0  0  0  0  0  0  0  0
   23.8540  -18.0294  -13.8848 O   0  0  0  0  0  0  0  0  0  0  0  0
   21.0325  -21.1957  -11.2456 C   0  0  0  0  0  0  0  0  0  0  0  0
   22.3083  -20.4764  -10.9574 C   0  0  0  0  0  0  0  0  0  0  0  0
   23.2693  -20.4303  -12.1114 C   0  0  2  0  0  0  0  0  0  0  0  0
   23.6003  -21.7843  -12.6527 C   0  0  0  0  0  0  0  0  0  0  0  0
   24.5005  -19.6414  -11.7211 C   0  0  2  0  0  0  0  0  0  0  0  0
   25.3005  -19.4890  -12.9194 N   0  0  0  0  0  0  0  0  0  0  0  0
   25.2542  -20.3047  -10.6283 C   0  0  0  0  0  0  0  0  0  0  0  0
   25.7689  -21.4269  -10.8736 O   0  0  0  0  0  0  0  0  0  0  0  0
   27.5615  -18.3790   -7.9415 C   0  0  0  0  0  0  0  0  0  0  0  0
   26.7660  -19.5061   -7.3194 C   0  0  2  0  0  0  0  0  0  0  0  0
   27.6153  -20.2809   -6.3317 C   0  0  0  0  0  0  0  0  0  0  0  0
   26.2568  -20.4697   -8.3667 C   0  0  2  0  0  0  0  0  0  0  0  0
   25.4325  -19.7667   -9.3404 N   0  0  0  0  0  0  0  0  0  0  0  0
   25.4293  -21.4975   -7.6658 C   0  0  0  0  0  0  0  0  0  0  0  0
   25.9638  -22.4585   -7.0550 O   0  0  0  0  0  0  0  0  0  0  0  0
   24.0453  -21.4299   -7.6627 O   0  0  0  0  0  0  0  0  0  0  0  0
  2  1  1  6
  3  2  1  0
  4  5  2  0
  4  3  1  0
  6  5  1  0
  7  6  2  0
  8  7  1  0
  8  9  2  0
  9  4  1  0
 10 17  1  0
 10  2  1  0
 11 10  2  0
 13 14  1  0
 13 12  1  0
 14 16  1  0
 14 15  1  1
 16 17  1  6
 18 16  1  0
 19 18  2  0
 21 20  1  6
 21 23  1  0
 22 21  1  0
 23 25  1  0
 23 24  1  6
 24 18  1  0
 25 27  1  0
 26 25  2  0
M  END
$$$$
