FIV.pdb
     RDKit          3D

 27 27  0  0  1  0  0  0  0  0999 V2000
   27.0793  -20.1695  -17.1219 N   0  0  0  0  0  0  0  0  0  0  0  0
   26.9382  -19.2911  -15.9774 C   0  0  1  0  0  0  0  0  0  0  0  0
   25.6113  -18.5634  -16.1527 C   0  0  0  0  0  0  0  0  0  0  0  0
   25.7427  -17.6276  -17.2786 C   0  0  0  0  0  0  0  0  0  0  0  0
   26.5830  -16.5451  -17.1806 C   0  0  0  0  0  0  0  0  0  0  0  0
   26.7004  -15.6777  -18.2331 C   0  0  0  0  0  0  0  0  0  0  0  0
   25.9739  -15.8937  -19.3893 C   0  0  0  0  0  0  0  0  0  0  0  0
   25.1220  -16.9834  -19.5001 C   0  0  0  0  0  0  0  0  0  0  0  0
   25.0213  -17.8388  -18.4317 C   0  0  0  0  0  0  0  0  0  0  0  0
   26.7927  -20.1432  -14.7733 C   0  0  0  0  0  0  0  0  0  0  0  0
   26.1332  -21.1991  -14.8106 O   0  0  0  0  0  0  0  0  0  0  0  0
   30.9954  -20.6341  -11.7039 C   0  0  0  0  0  0  0  0  0  0  0  0
   29.6743  -20.8477  -12.3651 C   0  0  0  0  0  0  0  0  0  0  0  0
   28.4892  -20.4828  -11.5168 C   0  0  2  0  0  0  0  0  0  0  0  0
   28.4370  -21.2378  -10.2272 C   0  0  0  0  0  0  0  0  0  0  0  0
   27.2179  -20.6224  -12.3261 C   0  0  2  0  0  0  0  0  0  0  0  0
   27.3868  -19.8162  -13.5180 N   0  0  0  0  0  0  0  0  0  0  0  0
   26.0224  -20.2187  -11.5449 C   0  0  0  0  0  0  0  0  0  0  0  0
   25.9117  -19.0036  -11.2359 O   0  0  0  0  0  0  0  0  0  0  0  0
   22.5580  -20.8565  -12.5962 C   0  0  0  0  0  0  0  0  0  0  0  0
   22.5720  -21.1223  -11.1064 C   0  0  2  0  0  0  0  0  0  0  0  0
   21.3712  -20.4850  -10.4363 C   0  0  0  0  0  0  0  0  0  0  0  0
   23.8235  -20.5773  -10.4573 C   0  0  2  0  0  0  0  0  0  0  0  0
   25.0070  -21.0987  -11.1273 N   0  0  0  0  0  0  0  0  0  0  0  0
   23.8214  -21.0265   -9.0323 C   0  0  0  0  0  0  0  0  0  0  0  0
   22.9345  -20.6399   -8.2285 O   0  0  0  0  0  0  0  0  0  0  0  0
   24.7946  -21.8839   -8.5448 O   0  0  0  0  0  0  0  0  0  0  0  0
  2  1  1  6
  3  2  1  0
  4  5  2  0
  4  3  1  0
  6  5  1  0
  7  6  2  0
  8  7  1  0
  8  9  2  0
  9  4  1  0
 10 17  1  0
 10  2  1  0
 11 10  2  0
 13 14  1  0
 13 12  1  0
 14 16  1  0
 14 15  1  1
 16 17  1  6
 18 16  1  0
 19 18  2  0
 21 20  1  6
 21 23  1  0
 22 21  1  0
 23 25  1  0
 23 24  1  6
 24 18  1  0
 25 27  1  0
 26 25  2  0
M  END
$$$$
