FIV.pdb
     RDKit          3D

 27 27  0  0  1  0  0  0  0  0999 V2000
   28.4664  -20.4921  -15.6520 N   0  0  0  0  0  0  0  0  0  0  0  0
   27.7463  -19.6309  -14.7348 C   0  0  1  0  0  0  0  0  0  0  0  0
   26.8402  -18.7528  -15.5885 C   0  0  0  0  0  0  0  0  0  0  0  0
   27.6144  -17.5857  -16.0344 C   0  0  0  0  0  0  0  0  0  0  0  0
   27.7026  -16.4711  -15.2359 C   0  0  0  0  0  0  0  0  0  0  0  0
   28.4254  -15.3878  -15.6577 C   0  0  0  0  0  0  0  0  0  0  0  0
   29.0631  -15.4189  -16.8839 C   0  0  0  0  0  0  0  0  0  0  0  0
   28.9813  -16.5388  -17.6991 C   0  0  0  0  0  0  0  0  0  0  0  0
   28.2510  -17.6122  -17.2546 C   0  0  0  0  0  0  0  0  0  0  0  0
   26.8526  -20.4894  -13.9217 C   0  0  0  0  0  0  0  0  0  0  0  0
   26.3775  -21.5427  -14.3866 O   0  0  0  0  0  0  0  0  0  0  0  0
   25.1289  -21.3358   -8.0223 C   0  0  0  0  0  0  0  0  0  0  0  0
   24.9241  -21.5178   -9.4896 C   0  0  0  0  0  0  0  0  0  0  0  0
   25.8175  -20.6707  -10.3509 C   0  0  2  0  0  0  0  0  0  0  0  0
   25.7422  -19.2147  -10.0190 C   0  0  0  0  0  0  0  0  0  0  0  0
   25.5364  -20.9512  -11.8113 C   0  0  2  0  0  0  0  0  0  0  0  0
   26.4854  -20.1718  -12.5801 N   0  0  0  0  0  0  0  0  0  0  0  0
   24.1323  -20.6329  -12.1714 C   0  0  0  0  0  0  0  0  0  0  0  0
   23.7942  -19.4204  -12.1812 O   0  0  0  0  0  0  0  0  0  0  0  0
   21.7731  -23.0893  -14.5159 C   0  0  0  0  0  0  0  0  0  0  0  0
   21.5666  -21.5998  -14.3467 C   0  0  2  0  0  0  0  0  0  0  0  0
   22.4894  -20.8224  -15.2639 C   0  0  0  0  0  0  0  0  0  0  0  0
   21.8299  -21.1610  -12.9245 C   0  0  2  0  0  0  0  0  0  0  0  0
   23.1559  -21.5906  -12.5016 N   0  0  0  0  0  0  0  0  0  0  0  0
   20.7988  -21.8073  -12.0576 C   0  0  0  0  0  0  0  0  0  0  0  0
   21.0868  -22.7856  -11.3214 O   0  0  0  0  0  0  0  0  0  0  0  0
   19.4898  -21.3536  -12.0331 O   0  0  0  0  0  0  0  0  0  0  0  0
  2  1  1  6
  3  2  1  0
  4  5  2  0
  4  3  1  0
  6  5  1  0
  7  6  2  0
  8  7  1  0
  8  9  2  0
  9  4  1  0
 10 17  1  0
 10  2  1  0
 11 10  2  0
 13 14  1  0
 13 12  1  0
 14 16  1  0
 14 15  1  6
 16 17  1  6
 18 16  1  0
 19 18  2  0
 21 20  1  1
 21 23  1  0
 22 21  1  0
 23 25  1  0
 23 24  1  1
 24 18  1  0
 25 27  1  0
 26 25  2  0
M  END
$$$$
