FIV.pdb
     RDKit          3D

 27 27  0  0  1  0  0  0  0  0999 V2000
   28.3763  -20.0267  -14.8790 N   0  0  0  0  0  0  0  0  0  0  0  0
   27.3439  -19.2855  -14.1817 C   0  0  1  0  0  0  0  0  0  0  0  0
   26.5059  -18.6002  -15.2536 C   0  0  0  0  0  0  0  0  0  0  0  0
   27.2438  -17.4238  -15.7352 C   0  0  0  0  0  0  0  0  0  0  0  0
   27.3794  -16.3183  -14.9307 C   0  0  0  0  0  0  0  0  0  0  0  0
   28.0679  -15.2262  -15.3858 C   0  0  0  0  0  0  0  0  0  0  0  0
   28.6238  -15.2395  -16.6516 C   0  0  0  0  0  0  0  0  0  0  0  0
   28.4936  -16.3500  -17.4732 C   0  0  0  0  0  0  0  0  0  0  0  0
   27.7989  -17.4325  -16.9947 C   0  0  0  0  0  0  0  0  0  0  0  0
   26.4545  -20.2697  -13.5202 C   0  0  0  0  0  0  0  0  0  0  0  0
   26.2290  -21.3799  -14.0378 O   0  0  0  0  0  0  0  0  0  0  0  0
   26.4385  -20.7298   -8.2426 C   0  0  0  0  0  0  0  0  0  0  0  0
   26.2296  -21.0326   -9.6892 C   0  0  0  0  0  0  0  0  0  0  0  0
   24.8575  -20.6978  -10.2017 C   0  0  2  0  0  0  0  0  0  0  0  0
   23.7698  -21.4369   -9.4901 C   0  0  0  0  0  0  0  0  0  0  0  0
   24.8098  -20.8923  -11.7019 C   0  0  2  0  0  0  0  0  0  0  0  0
   25.8115  -20.0147  -12.2724 N   0  0  0  0  0  0  0  0  0  0  0  0
   23.4565  -20.6228  -12.2480 C   0  0  0  0  0  0  0  0  0  0  0  0
   23.0584  -19.4286  -12.2547 O   0  0  0  0  0  0  0  0  0  0  0  0
   22.1884  -21.5801  -15.6506 C   0  0  0  0  0  0  0  0  0  0  0  0
   21.1004  -21.9257  -14.6571 C   0  0  2  0  0  0  0  0  0  0  0  0
   19.7386  -21.5337  -15.1946 C   0  0  0  0  0  0  0  0  0  0  0  0
   21.3108  -21.2214  -13.3364 C   0  0  2  0  0  0  0  0  0  0  0  0
   22.5902  -21.6076  -12.7572 N   0  0  0  0  0  0  0  0  0  0  0  0
   20.2054  -21.6414  -12.4232 C   0  0  0  0  0  0  0  0  0  0  0  0
   20.2176  -22.7658  -11.8595 O   0  0  0  0  0  0  0  0  0  0  0  0
   19.1281  -20.8092  -12.1642 O   0  0  0  0  0  0  0  0  0  0  0  0
  2  1  1  6
  3  2  1  0
  4  5  2  0
  4  3  1  0
  6  5  1  0
  7  6  2  0
  8  7  1  0
  8  9  2  0
  9  4  1  0
 10 17  1  0
 10  2  1  0
 11 10  2  0
 13 14  1  0
 13 12  1  0
 14 16  1  0
 14 15  1  1
 16 17  1  6
 18 16  1  0
 19 18  2  0
 21 20  1  6
 21 23  1  0
 22 21  1  0
 23 25  1  0
 23 24  1  1
 24 18  1  0
 25 27  1  0
 26 25  2  0
M  END
$$$$
