FIV.pdb
     RDKit          3D

 27 27  0  0  1  0  0  0  0  0999 V2000
   30.4884  -22.4777  -12.4522 N   0  0  0  0  0  0  0  0  0  0  0  0
   29.8567  -21.2091  -12.1471 C   0  0  1  0  0  0  0  0  0  0  0  0
   29.5281  -20.5579  -13.4846 C   0  0  0  0  0  0  0  0  0  0  0  0
   30.5749  -19.5718  -13.7881 C   0  0  0  0  0  0  0  0  0  0  0  0
   30.4860  -18.2958  -13.2866 C   0  0  0  0  0  0  0  0  0  0  0  0
   31.4647  -17.3826  -13.5734 C   0  0  0  0  0  0  0  0  0  0  0  0
   32.5376  -17.7470  -14.3655 C   0  0  0  0  0  0  0  0  0  0  0  0
   32.6384  -19.0327  -14.8777 C   0  0  0  0  0  0  0  0  0  0  0  0
   31.6450  -19.9303  -14.5763 C   0  0  0  0  0  0  0  0  0  0  0  0
   28.5588  -21.5003  -11.4929 C   0  0  0  0  0  0  0  0  0  0  0  0
   27.9161  -22.5298  -11.7729 O   0  0  0  0  0  0  0  0  0  0  0  0
   27.8798  -19.7958   -6.4943 C   0  0  0  0  0  0  0  0  0  0  0  0
   27.7739  -20.5258   -7.7920 C   0  0  0  0  0  0  0  0  0  0  0  0
   26.6060  -20.1139   -8.6426 C   0  0  2  0  0  0  0  0  0  0  0  0
   25.2917  -20.2629   -7.9451 C   0  0  0  0  0  0  0  0  0  0  0  0
   26.6510  -20.8490   -9.9648 C   0  0  2  0  0  0  0  0  0  0  0  0
   27.9728  -20.6377  -10.5192 N   0  0  0  0  0  0  0  0  0  0  0  0
   25.5808  -20.3905  -10.8849 C   0  0  0  0  0  0  0  0  0  0  0  0
   25.5344  -19.1628  -11.1585 O   0  0  0  0  0  0  0  0  0  0  0  0
   23.2294  -22.9566  -13.3563 C   0  0  0  0  0  0  0  0  0  0  0  0
   23.5909  -21.5189  -13.6606 C   0  0  2  0  0  0  0  0  0  0  0  0
   24.9419  -21.4381  -14.3428 C   0  0  0  0  0  0  0  0  0  0  0  0
   23.6425  -20.6817  -12.4032 C   0  0  2  0  0  0  0  0  0  0  0  0
   24.6170  -21.2317  -11.4708 N   0  0  0  0  0  0  0  0  0  0  0  0
   22.2841  -20.7212  -11.7822 C   0  0  0  0  0  0  0  0  0  0  0  0
   21.3230  -20.0773  -12.2758 O   0  0  0  0  0  0  0  0  0  0  0  0
   22.0337  -21.4674  -10.6418 O   0  0  0  0  0  0  0  0  0  0  0  0
  2  1  1  6
  3  2  1  0
  4  5  2  0
  4  3  1  0
  6  5  1  0
  7  6  2  0
  8  7  1  0
  8  9  2  0
  9  4  1  0
 10 17  1  0
 10  2  1  0
 11 10  2  0
 13 14  1  0
 13 12  1  0
 14 16  1  0
 14 15  1  1
 16 17  1  6
 18 16  1  0
 19 18  2  0
 21 20  1  1
 21 23  1  0
 22 21  1  0
 23 25  1  0
 23 24  1  1
 24 18  1  0
 25 27  1  0
 26 25  2  0
M  END
$$$$
