FIV.pdb
     RDKit          3D

 27 27  0  0  1  0  0  0  0  0999 V2000
   28.3724  -21.0088   -8.7636 N   0  0  0  0  0  0  0  0  0  0  0  0
   27.0127  -20.5877   -8.4890 C   0  0  1  0  0  0  0  0  0  0  0  0
   27.1144  -19.3002   -7.6810 C   0  0  0  0  0  0  0  0  0  0  0  0
   27.8100  -19.5990   -6.4211 C   0  0  0  0  0  0  0  0  0  0  0  0
   29.1113  -19.1972   -6.2402 C   0  0  0  0  0  0  0  0  0  0  0  0
   29.7529  -19.4789   -5.0642 C   0  0  0  0  0  0  0  0  0  0  0  0
   29.0900  -20.1659   -4.0641 C   0  0  0  0  0  0  0  0  0  0  0  0
   27.7758  -20.5769   -4.2352 C   0  0  0  0  0  0  0  0  0  0  0  0
   27.1540  -20.2827   -5.4227 C   0  0  0  0  0  0  0  0  0  0  0  0
   26.3866  -20.2225   -9.7820 C   0  0  0  0  0  0  0  0  0  0  0  0
   26.7154  -19.1823  -10.3828 O   0  0  0  0  0  0  0  0  0  0  0  0
   27.9974  -21.7483  -13.6899 C   0  0  0  0  0  0  0  0  0  0  0  0
   27.1165  -21.0998  -12.6743 C   0  0  0  0  0  0  0  0  0  0  0  0
   25.6861  -21.5584  -12.7098 C   0  0  2  0  0  0  0  0  0  0  0  0
   25.1059  -21.5618  -14.0879 C   0  0  0  0  0  0  0  0  0  0  0  0
   24.8637  -20.7460  -11.7329 C   0  0  2  0  0  0  0  0  0  0  0  0
   25.3864  -21.0228  -10.4102 N   0  0  0  0  0  0  0  0  0  0  0  0
   23.4173  -21.0609  -11.8378 C   0  0  0  0  0  0  0  0  0  0  0  0
   23.0124  -22.1249  -11.3008 O   0  0  0  0  0  0  0  0  0  0  0  0
   20.5405  -18.3127  -11.5459 C   0  0  0  0  0  0  0  0  0  0  0  0
   20.2100  -19.3525  -12.5945 C   0  0  2  0  0  0  0  0  0  0  0  0
   18.7510  -19.7544  -12.5105 C   0  0  0  0  0  0  0  0  0  0  0  0
   21.0553  -20.5946  -12.4302 C   0  0  2  0  0  0  0  0  0  0  0  0
   22.4700  -20.2539  -12.4945 N   0  0  0  0  0  0  0  0  0  0  0  0
   20.7160  -21.5197  -13.5533 C   0  0  0  0  0  0  0  0  0  0  0  0
   21.1687  -21.3319  -14.7117 O   0  0  0  0  0  0  0  0  0  0  0  0
   19.8916  -22.6166  -13.3603 O   0  0  0  0  0  0  0  0  0  0  0  0
  2  1  1  6
  3  2  1  0
  4  5  2  0
  4  3  1  0
  6  5  1  0
  7  6  2  0
  8  7  1  0
  8  9  2  0
  9  4  1  0
 10 17  1  0
 10  2  1  0
 11 10  2  0
 13 14  1  0
 13 12  1  0
 14 16  1  0
 14 15  1  6
 16 17  1  1
 18 16  1  0
 19 18  2  0
 21 20  1  1
 21 23  1  0
 22 21  1  0
 23 25  1  0
 23 24  1  6
 24 18  1  0
 25 27  1  0
 26 25  2  0
M  END
$$$$
