FIV.pdb
     RDKit          3D

 27 27  0  0  1  0  0  0  0  0999 V2000
   23.4257  -18.9118  -18.3014 N   0  0  0  0  0  0  0  0  0  0  0  0
   23.8708  -18.2110  -17.1130 C   0  0  1  0  0  0  0  0  0  0  0  0
   22.6255  -17.6080  -16.4757 C   0  0  0  0  0  0  0  0  0  0  0  0
   22.2437  -16.4153  -17.2453 C   0  0  0  0  0  0  0  0  0  0  0  0
   23.0580  -15.3087  -17.2508 C   0  0  0  0  0  0  0  0  0  0  0  0
   22.6961  -14.2016  -17.9698 C   0  0  0  0  0  0  0  0  0  0  0  0
   21.5142  -14.2007  -18.6871 C   0  0  0  0  0  0  0  0  0  0  0  0
   20.6836  -15.3123  -18.6893 C   0  0  0  0  0  0  0  0  0  0  0  0
   21.0679  -16.4101  -17.9609 C   0  0  0  0  0  0  0  0  0  0  0  0
   24.3806  -19.2247  -16.1592 C   0  0  0  0  0  0  0  0  0  0  0  0
   23.7188  -20.2459  -15.8940 O   0  0  0  0  0  0  0  0  0  0  0  0
   29.2782  -20.7063  -16.8241 C   0  0  0  0  0  0  0  0  0  0  0  0
   27.8525  -20.5830  -16.3994 C   0  0  0  0  0  0  0  0  0  0  0  0
   27.6645  -20.2224  -14.9531 C   0  0  2  0  0  0  0  0  0  0  0  0
   28.3960  -21.1354  -14.0218 C   0  0  0  0  0  0  0  0  0  0  0  0
   26.1874  -20.1282  -14.6367 C   0  0  2  0  0  0  0  0  0  0  0  0
   25.6375  -19.0994  -15.4960 N   0  0  0  0  0  0  0  0  0  0  0  0
   25.9506  -19.8401  -13.2003 C   0  0  0  0  0  0  0  0  0  0  0  0
   26.3004  -18.7111  -12.7674 O   0  0  0  0  0  0  0  0  0  0  0  0
   23.6065  -22.2825  -10.5312 C   0  0  0  0  0  0  0  0  0  0  0  0
   23.7443  -20.7766  -10.4732 C   0  0  2  0  0  0  0  0  0  0  0  0
   22.7145  -20.1088  -11.3624 C   0  0  0  0  0  0  0  0  0  0  0  0
   25.1178  -20.3276  -10.9165 C   0  0  2  0  0  0  0  0  0  0  0  0
   25.3636  -20.7399  -12.2917 N   0  0  0  0  0  0  0  0  0  0  0  0
   26.1154  -20.9813  -10.0165 C   0  0  0  0  0  0  0  0  0  0  0  0
   26.7271  -22.0223  -10.3689 O   0  0  0  0  0  0  0  0  0  0  0  0
   26.4028  -20.4655   -8.7629 O   0  0  0  0  0  0  0  0  0  0  0  0
  2  1  1  6
  3  2  1  0
  4  5  2  0
  4  3  1  0
  6  5  1  0
  7  6  2  0
  8  7  1  0
  8  9  2  0
  9  4  1  0
 10 17  1  0
 10  2  1  0
 11 10  2  0
 13 14  1  0
 13 12  1  0
 14 16  1  0
 14 15  1  1
 16 17  1  6
 18 16  1  0
 19 18  2  0
 21 20  1  6
 21 23  1  0
 22 21  1  0
 23 25  1  0
 23 24  1  6
 24 18  1  0
 25 27  1  0
 26 25  2  0
M  END
$$$$
