FIV.pdb
     RDKit          3D

 27 27  0  0  1  0  0  0  0  0999 V2000
   28.6825  -20.6348   -8.4754 N   0  0  0  0  0  0  0  0  0  0  0  0
   27.2486  -20.6948   -8.2712 C   0  0  1  0  0  0  0  0  0  0  0  0
   26.9174  -19.6404   -7.2227 C   0  0  0  0  0  0  0  0  0  0  0  0
   27.7644  -19.8776   -6.0451 C   0  0  0  0  0  0  0  0  0  0  0  0
   27.9814  -21.1589   -5.5990 C   0  0  0  0  0  0  0  0  0  0  0  0
   28.7714  -21.3723   -4.5015 C   0  0  0  0  0  0  0  0  0  0  0  0
   29.3473  -20.2994   -3.8469 C   0  0  0  0  0  0  0  0  0  0  0  0
   29.1356  -19.0010   -4.2881 C   0  0  0  0  0  0  0  0  0  0  0  0
   28.3399  -18.8124   -5.3902 C   0  0  0  0  0  0  0  0  0  0  0  0
   26.5979  -20.2546   -9.5281 C   0  0  0  0  0  0  0  0  0  0  0  0
   26.7869  -19.1101   -9.9816 O   0  0  0  0  0  0  0  0  0  0  0  0
   28.6076  -21.0892  -13.2988 C   0  0  0  0  0  0  0  0  0  0  0  0
   27.5522  -20.6682  -12.3308 C   0  0  0  0  0  0  0  0  0  0  0  0
   26.1879  -21.2286  -12.6173 C   0  0  2  0  0  0  0  0  0  0  0  0
   25.7324  -20.9740  -14.0186 C   0  0  0  0  0  0  0  0  0  0  0  0
   25.2018  -20.7287  -11.5837 C   0  0  2  0  0  0  0  0  0  0  0  0
   25.7298  -21.0962  -10.2855 N   0  0  0  0  0  0  0  0  0  0  0  0
   23.8427  -21.2804  -11.8093 C   0  0  0  0  0  0  0  0  0  0  0  0
   23.6828  -22.5185  -11.6488 O   0  0  0  0  0  0  0  0  0  0  0  0
   20.3167  -18.8981  -12.5144 C   0  0  0  0  0  0  0  0  0  0  0  0
   20.3618  -20.1755  -11.7043 C   0  0  2  0  0  0  0  0  0  0  0  0
   20.6812  -19.8793  -10.2526 C   0  0  0  0  0  0  0  0  0  0  0  0
   21.4047  -21.1324  -12.2347 C   0  0  2  0  0  0  0  0  0  0  0  0
   22.7238  -20.5165  -12.1892 N   0  0  0  0  0  0  0  0  0  0  0  0
   21.0497  -21.4414  -13.6527 C   0  0  0  0  0  0  0  0  0  0  0  0
   21.6548  -20.8940  -14.6100 O   0  0  0  0  0  0  0  0  0  0  0  0
   20.0428  -22.3407  -13.9648 O   0  0  0  0  0  0  0  0  0  0  0  0
  2  1  1  6
  3  2  1  0
  4  5  2  0
  4  3  1  0
  6  5  1  0
  7  6  2  0
  8  7  1  0
  8  9  2  0
  9  4  1  0
 10 17  1  0
 10  2  1  0
 11 10  2  0
 13 14  1  0
 13 12  1  0
 14 16  1  0
 14 15  1  6
 16 17  1  1
 18 16  1  0
 19 18  2  0
 21 20  1  6
 21 23  1  0
 22 21  1  0
 23 25  1  0
 23 24  1  6
 24 18  1  0
 25 27  1  0
 26 25  2  0
M  END
$$$$
