FIV.pdb
     RDKit          3D

 27 27  0  0  1  0  0  0  0  0999 V2000
   26.2800  -21.3641  -10.4461 N   0  0  0  0  0  0  0  0  0  0  0  0
   25.0406  -21.1665  -11.1715 C   0  0  1  0  0  0  0  0  0  0  0  0
   24.2566  -20.1080  -10.4062 C   0  0  0  0  0  0  0  0  0  0  0  0
   23.5832  -20.7602   -9.2741 C   0  0  0  0  0  0  0  0  0  0  0  0
   22.4700  -21.5364   -9.4885 C   0  0  0  0  0  0  0  0  0  0  0  0
   21.8480  -22.1407   -8.4294 C   0  0  0  0  0  0  0  0  0  0  0  0
   22.3413  -21.9681   -7.1494 C   0  0  0  0  0  0  0  0  0  0  0  0
   23.4648  -21.1866   -6.9204 C   0  0  0  0  0  0  0  0  0  0  0  0
   24.0709  -20.5911   -7.9980 C   0  0  0  0  0  0  0  0  0  0  0  0
   25.3800  -20.5686  -12.4847 C   0  0  0  0  0  0  0  0  0  0  0  0
   26.0943  -19.5511  -12.5608 O   0  0  0  0  0  0  0  0  0  0  0  0
   27.8568  -23.1543  -15.8555 C   0  0  0  0  0  0  0  0  0  0  0  0
   27.0938  -22.1094  -15.1111 C   0  0  0  0  0  0  0  0  0  0  0  0
   25.8944  -21.5771  -15.8428 C   0  0  2  0  0  0  0  0  0  0  0  0
   26.2125  -21.1094  -17.2270 C   0  0  0  0  0  0  0  0  0  0  0  0
   25.2173  -20.5112  -15.0084 C   0  0  2  0  0  0  0  0  0  0  0  0
   24.9199  -21.1088  -13.7224 N   0  0  0  0  0  0  0  0  0  0  0  0
   23.9995  -19.9845  -15.6733 C   0  0  0  0  0  0  0  0  0  0  0  0
   22.9763  -20.7176  -15.6799 O   0  0  0  0  0  0  0  0  0  0  0  0
   22.7407  -16.1356  -15.6598 C   0  0  0  0  0  0  0  0  0  0  0  0
   22.6106  -16.7961  -17.0152 C   0  0  2  0  0  0  0  0  0  0  0  0
   21.3047  -16.4069  -17.6787 C   0  0  0  0  0  0  0  0  0  0  0  0
   22.6570  -18.3029  -16.9048 C   0  0  2  0  0  0  0  0  0  0  0  0
   23.9105  -18.7254  -16.2949 N   0  0  0  0  0  0  0  0  0  0  0  0
   22.5673  -18.8567  -18.2896 C   0  0  0  0  0  0  0  0  0  0  0  0
   23.5581  -18.8380  -19.0644 O   0  0  0  0  0  0  0  0  0  0  0  0
   21.3916  -19.4105  -18.7703 O   0  0  0  0  0  0  0  0  0  0  0  0
  2  1  1  1
  3  2  1  0
  4  5  2  0
  4  3  1  0
  6  5  1  0
  7  6  2  0
  8  7  1  0
  8  9  2  0
  9  4  1  0
 10 17  1  0
 10  2  1  0
 11 10  2  0
 13 14  1  0
 13 12  1  0
 14 16  1  0
 14 15  1  6
 16 17  1  1
 18 16  1  0
 19 18  2  0
 21 20  1  1
 21 23  1  0
 22 21  1  0
 23 25  1  0
 23 24  1  6
 24 18  1  0
 25 27  1  0
 26 25  2  0
M  END
$$$$
