HDH.pdb
     RDKit          3D

 29 30  0  0  1  0  0  0  0  0999 V2000
   10.6437  -14.5976   15.8056 N   0  0  0  0  0  0  0  0  0  0  0  0
    9.8364  -14.6734   16.9832 C   0  0  1  0  0  0  0  0  0  0  0  0
    8.5423  -15.3978   16.6034 C   0  0  0  0  0  0  0  0  0  0  0  0
    8.3970  -15.4464   15.1278 C   0  0  0  0  0  0  0  0  0  0  0  0
    9.2824  -15.0580   14.1598 C   0  0  0  0  0  0  0  0  0  0  0  0
    8.7551  -15.2742   12.9452 N   0  0  0  0  0  0  0  0  0  0  0  0
    7.5243  -15.8044   13.1504 C   0  0  0  0  0  0  0  0  0  0  0  0
    7.3070  -15.9089   14.4736 N   0  0  0  0  0  0  0  0  0  0  0  0
   10.5047  -15.5464   18.0131 C   0  0  0  0  0  0  0  0  0  0  0  0
    9.9616  -16.5751   18.4561 O   0  0  0  0  0  0  0  0  0  0  0  0
   11.7781  -15.1943   18.4914 N   0  0  0  0  0  0  0  0  0  0  0  0
   12.4921  -15.9040   19.5344 C   0  0  1  0  0  0  0  0  0  0  0  0
   13.9359  -15.9740   19.1401 C   0  0  0  0  0  0  0  0  0  0  0  0
   14.6030  -14.6520   19.0689 C   0  0  0  0  0  0  0  0  0  0  0  0
   15.1512  -14.1608   20.0745 O   0  0  0  0  0  0  0  0  0  0  0  0
   12.2321  -15.3672   20.8706 C   0  0  0  0  0  0  0  0  0  0  0  0
   13.0457  -15.5558   21.8098 O   0  0  0  0  0  0  0  0  0  0  0  0
   14.6163  -13.9558   17.8700 O   0  0  0  0  0  0  0  0  0  0  0  0
   11.0695  -14.6083   21.2089 N   0  0  0  0  0  0  0  0  0  0  0  0
   10.1107  -15.0314   22.2208 C   0  0  1  0  0  0  0  0  0  0  0  0
    8.7948  -15.3976   21.6335 C   0  0  0  0  0  0  0  0  0  0  0  0
    8.2575  -14.2700   20.8481 C   0  0  0  0  0  0  0  0  0  0  0  0
    8.6741  -12.9426   21.0223 C   0  0  0  0  0  0  0  0  0  0  0  0
    7.9981  -12.1693   20.1628 N   0  0  0  0  0  0  0  0  0  0  0  0
    7.1669  -12.9367   19.4445 C   0  0  0  0  0  0  0  0  0  0  0  0
    7.3389  -14.2013   19.8737 N   0  0  0  0  0  0  0  0  0  0  0  0
   10.6298  -16.1100   23.0549 C   0  0  0  0  0  0  0  0  0  0  0  0
   10.9226  -17.3440   22.4415 O   0  0  0  0  0  0  0  0  0  0  0  0
   10.8429  -16.0472   24.2721 O   0  0  0  0  0  0  0  0  0  0  0  0
  2  1  1  6
  3  2  1  0
  4  3  1  0
  5  4  2  0
  6  7  1  0
  6  5  1  0
  7  8  2  0
  8  4  1  0
  9 10  2  0
  9  2  1  0
 11  9  1  0
 12 11  1  0
 12 13  1  6
 14 18  1  0
 14 13  1  0
 15 14  2  0
 16 12  1  0
 16 17  2  0
 19 16  1  0
 20 21  1  6
 20 19  1  0
 22 21  1  0
 22 26  1  0
 23 24  1  0
 23 22  2  0
 24 25  1  0
 25 26  2  0
 27 20  1  0
 28 27  1  0
 29 27  2  0
M  END
$$$$
