HDH.pdb
     RDKit          3D

 29 30  0  0  1  0  0  0  0  0999 V2000
    8.0287  -17.4617   18.5795 N   0  0  0  0  0  0  0  0  0  0  0  0
    9.3134  -16.8596   18.7558 C   0  0  1  0  0  0  0  0  0  0  0  0
    9.1021  -15.5477   19.5161 C   0  0  0  0  0  0  0  0  0  0  0  0
    8.4098  -14.5607   18.6515 C   0  0  0  0  0  0  0  0  0  0  0  0
    7.9812  -14.6956   17.3592 C   0  0  0  0  0  0  0  0  0  0  0  0
    7.3996  -13.5580   16.9497 N   0  0  0  0  0  0  0  0  0  0  0  0
    7.4625  -12.6974   17.9955 C   0  0  0  0  0  0  0  0  0  0  0  0
    8.0749  -13.3051   19.0273 N   0  0  0  0  0  0  0  0  0  0  0  0
   10.1679  -17.7169   19.6524 C   0  0  0  0  0  0  0  0  0  0  0  0
    9.6742  -18.5683   20.4145 O   0  0  0  0  0  0  0  0  0  0  0  0
   11.5636  -17.5555   19.6323 N   0  0  0  0  0  0  0  0  0  0  0  0
   12.4898  -18.2820   20.4784 C   0  0  1  0  0  0  0  0  0  0  0  0
   13.8453  -18.2147   19.8436 C   0  0  0  0  0  0  0  0  0  0  0  0
   14.8281  -19.1592   20.4266 C   0  0  0  0  0  0  0  0  0  0  0  0
   14.5048  -19.9177   21.3611 O   0  0  0  0  0  0  0  0  0  0  0  0
   12.4316  -17.8630   21.8792 C   0  0  0  0  0  0  0  0  0  0  0  0
   12.9085  -16.7578   22.2411 O   0  0  0  0  0  0  0  0  0  0  0  0
   16.1203  -19.1978   19.9257 O   0  0  0  0  0  0  0  0  0  0  0  0
   11.8469  -18.6492   22.9195 N   0  0  0  0  0  0  0  0  0  0  0  0
   11.7755  -18.2069   24.3057 C   0  0  1  0  0  0  0  0  0  0  0  0
   10.3757  -18.1221   24.7997 C   0  0  0  0  0  0  0  0  0  0  0  0
    9.6419  -17.0708   24.0694 C   0  0  0  0  0  0  0  0  0  0  0  0
   10.1864  -15.8118   23.7792 C   0  0  0  0  0  0  0  0  0  0  0  0
    9.2709  -15.0969   23.1125 N   0  0  0  0  0  0  0  0  0  0  0  0
    8.1640  -15.8368   22.9604 C   0  0  0  0  0  0  0  0  0  0  0  0
    8.4087  -17.0247   23.5451 N   0  0  0  0  0  0  0  0  0  0  0  0
   12.5934  -19.0303   25.1896 C   0  0  0  0  0  0  0  0  0  0  0  0
   12.2373  -20.3828   25.3582 O   0  0  0  0  0  0  0  0  0  0  0  0
   13.5892  -18.6509   25.8187 O   0  0  0  0  0  0  0  0  0  0  0  0
  2  1  1  1
  3  2  1  0
  4  3  1  0
  5  4  2  0
  6  7  1  0
  6  5  1  0
  7  8  2  0
  8  4  1  0
  9 10  2  0
  9  2  1  0
 11  9  1  0
 12 11  1  0
 12 13  1  6
 14 18  1  0
 14 13  1  0
 15 14  2  0
 16 12  1  0
 16 17  2  0
 19 16  1  0
 20 21  1  1
 20 19  1  0
 22 21  1  0
 22 26  1  0
 23 24  1  0
 23 22  2  0
 24 25  1  0
 25 26  2  0
 27 20  1  0
 28 27  1  0
 29 27  2  0
M  END
$$$$
