HDH.pdb
     RDKit          3D

 29 30  0  0  1  0  0  0  0  0999 V2000
    7.8194  -17.1650   19.3924 N   0  0  0  0  0  0  0  0  0  0  0  0
    9.0428  -16.5879   19.8553 C   0  0  1  0  0  0  0  0  0  0  0  0
    8.7677  -15.1112   20.1507 C   0  0  0  0  0  0  0  0  0  0  0  0
    8.4192  -14.3950   18.8990 C   0  0  0  0  0  0  0  0  0  0  0  0
    7.2441  -13.7867   18.5510 C   0  0  0  0  0  0  0  0  0  0  0  0
    7.3515  -13.2538   17.3244 N   0  0  0  0  0  0  0  0  0  0  0  0
    8.6077  -13.5295   16.8953 C   0  0  0  0  0  0  0  0  0  0  0  0
    9.2552  -14.2214   17.8498 N   0  0  0  0  0  0  0  0  0  0  0  0
    9.4373  -17.2004   21.1738 C   0  0  0  0  0  0  0  0  0  0  0  0
    8.6991  -18.0035   21.7735 O   0  0  0  0  0  0  0  0  0  0  0  0
   10.6734  -16.8593   21.7484 N   0  0  0  0  0  0  0  0  0  0  0  0
   11.2458  -17.5022   22.9147 C   0  0  1  0  0  0  0  0  0  0  0  0
   12.4564  -18.2665   22.4730 C   0  0  0  0  0  0  0  0  0  0  0  0
   13.5679  -17.4076   21.9987 C   0  0  0  0  0  0  0  0  0  0  0  0
   14.4283  -16.9833   22.7942 O   0  0  0  0  0  0  0  0  0  0  0  0
   11.4594  -16.5776   24.0286 C   0  0  0  0  0  0  0  0  0  0  0  0
   12.5794  -16.4977   24.5933 O   0  0  0  0  0  0  0  0  0  0  0  0
   13.6496  -17.0739   20.6556 O   0  0  0  0  0  0  0  0  0  0  0  0
   10.4459  -15.7162   24.5509 N   0  0  0  0  0  0  0  0  0  0  0  0
    9.5722  -16.0942   25.6537 C   0  0  1  0  0  0  0  0  0  0  0  0
    8.1682  -16.3077   25.2138 C   0  0  0  0  0  0  0  0  0  0  0  0
    7.4435  -15.0228   25.1853 C   0  0  0  0  0  0  0  0  0  0  0  0
    7.7953  -13.9590   24.3423 C   0  0  0  0  0  0  0  0  0  0  0  0
    6.9464  -12.9463   24.5602 N   0  0  0  0  0  0  0  0  0  0  0  0
    6.0658  -13.3088   25.5030 C   0  0  0  0  0  0  0  0  0  0  0  0
    6.3834  -14.5656   25.8670 N   0  0  0  0  0  0  0  0  0  0  0  0
   10.0746  -17.2541   26.3820 C   0  0  0  0  0  0  0  0  0  0  0  0
   11.0609  -18.0503   25.7672 O   0  0  0  0  0  0  0  0  0  0  0  0
    9.7132  -17.6153   27.5090 O   0  0  0  0  0  0  0  0  0  0  0  0
  2  1  1  1
  3  2  1  0
  4  3  1  0
  5  4  2  0
  6  7  1  0
  6  5  1  0
  7  8  2  0
  8  4  1  0
  9 10  2  0
  9  2  1  0
 11  9  1  0
 12 11  1  0
 12 13  1  6
 14 18  1  0
 14 13  1  0
 15 14  2  0
 16 12  1  0
 16 17  2  0
 19 16  1  0
 20 21  1  6
 20 19  1  0
 22 21  1  0
 22 26  1  0
 23 24  1  0
 23 22  2  0
 24 25  1  0
 25 26  2  0
 27 20  1  0
 28 27  1  0
 29 27  2  0
M  END
$$$$
