HDH.pdb
     RDKit          3D

 29 30  0  0  1  0  0  0  0  0999 V2000
   10.7600  -16.9442   17.0771 N   0  0  0  0  0  0  0  0  0  0  0  0
   10.7692  -16.3362   18.3710 C   0  0  1  0  0  0  0  0  0  0  0  0
    9.3112  -16.1125   18.7804 C   0  0  0  0  0  0  0  0  0  0  0  0
    8.9835  -14.6662   18.7377 C   0  0  0  0  0  0  0  0  0  0  0  0
    9.7896  -13.6074   18.4198 C   0  0  0  0  0  0  0  0  0  0  0  0
    9.0946  -12.4628   18.5040 N   0  0  0  0  0  0  0  0  0  0  0  0
    7.8373  -12.8045   18.8789 C   0  0  0  0  0  0  0  0  0  0  0  0
    7.7697  -14.1403   19.0206 N   0  0  0  0  0  0  0  0  0  0  0  0
   11.3358  -17.2924   19.3879 C   0  0  0  0  0  0  0  0  0  0  0  0
   11.8049  -18.3982   19.0615 O   0  0  0  0  0  0  0  0  0  0  0  0
   11.3374  -16.9311   20.7458 N   0  0  0  0  0  0  0  0  0  0  0  0
   12.0686  -17.6303   21.7839 C   0  0  1  0  0  0  0  0  0  0  0  0
   13.5154  -17.6518   21.3952 C   0  0  0  0  0  0  0  0  0  0  0  0
   14.3757  -18.4187   22.3278 C   0  0  0  0  0  0  0  0  0  0  0  0
   15.3219  -17.8658   22.9213 O   0  0  0  0  0  0  0  0  0  0  0  0
   11.7868  -17.1167   23.1249 C   0  0  0  0  0  0  0  0  0  0  0  0
   12.6369  -16.4265   23.7418 O   0  0  0  0  0  0  0  0  0  0  0  0
   14.1237  -19.7651   22.5409 O   0  0  0  0  0  0  0  0  0  0  0  0
   10.5616  -17.3491   23.8228 N   0  0  0  0  0  0  0  0  0  0  0  0
   10.2941  -16.8247   25.1554 C   0  0  1  0  0  0  0  0  0  0  0  0
    8.8509  -16.5394   25.3704 C   0  0  0  0  0  0  0  0  0  0  0  0
    8.3083  -15.7763   24.2301 C   0  0  0  0  0  0  0  0  0  0  0  0
    8.3744  -14.3788   24.1377 C   0  0  0  0  0  0  0  0  0  0  0  0
    7.7955  -14.0015   22.9905 N   0  0  0  0  0  0  0  0  0  0  0  0
    7.3605  -15.0900   22.3413 C   0  0  0  0  0  0  0  0  0  0  0  0
    7.6799  -16.1509   23.1065 N   0  0  0  0  0  0  0  0  0  0  0  0
   10.8180  -17.6926   26.2044 C   0  0  0  0  0  0  0  0  0  0  0  0
   10.6763  -17.2787   27.5436 O   0  0  0  0  0  0  0  0  0  0  0  0
   11.3859  -18.7783   26.0313 O   0  0  0  0  0  0  0  0  0  0  0  0
  2  1  1  6
  3  2  1  0
  4  3  1  0
  5  4  2  0
  6  7  1  0
  6  5  1  0
  7  8  2  0
  8  4  1  0
  9 10  2  0
  9  2  1  0
 11  9  1  0
 12 11  1  0
 12 13  1  6
 14 18  1  0
 14 13  1  0
 15 14  2  0
 16 12  1  0
 16 17  2  0
 19 16  1  0
 20 21  1  1
 20 19  1  0
 22 21  1  0
 22 26  1  0
 23 24  1  0
 23 22  2  0
 24 25  1  0
 25 26  2  0
 27 20  1  0
 28 27  1  0
 29 27  2  0
M  END
$$$$
