HDH.pdb
     RDKit          3D

 29 30  0  0  1  0  0  0  0  0999 V2000
    8.3835  -17.2143   14.8077 N   0  0  0  0  0  0  0  0  0  0  0  0
    9.3489  -16.4007   15.4786 C   0  0  1  0  0  0  0  0  0  0  0  0
    8.6738  -15.0655   15.8032 C   0  0  0  0  0  0  0  0  0  0  0  0
    8.3797  -14.3232   14.5528 C   0  0  0  0  0  0  0  0  0  0  0  0
    8.6146  -14.6896   13.2557 C   0  0  0  0  0  0  0  0  0  0  0  0
    8.1933  -13.7241   12.4249 N   0  0  0  0  0  0  0  0  0  0  0  0
    7.6877  -12.7389   13.2072 C   0  0  0  0  0  0  0  0  0  0  0  0
    7.8006  -13.1020   14.4973 N   0  0  0  0  0  0  0  0  0  0  0  0
    9.7048  -17.0111   16.8089 C   0  0  0  0  0  0  0  0  0  0  0  0
    8.8941  -17.7003   17.4548 O   0  0  0  0  0  0  0  0  0  0  0  0
   10.9880  -16.8000   17.3414 N   0  0  0  0  0  0  0  0  0  0  0  0
   11.4624  -17.3551   18.5937 C   0  0  1  0  0  0  0  0  0  0  0  0
   12.8633  -17.8422   18.3815 C   0  0  0  0  0  0  0  0  0  0  0  0
   12.9461  -19.1345   17.6597 C   0  0  0  0  0  0  0  0  0  0  0  0
   13.6038  -19.2337   16.6057 O   0  0  0  0  0  0  0  0  0  0  0  0
   11.2787  -16.4468   19.7262 C   0  0  0  0  0  0  0  0  0  0  0  0
   12.0120  -15.4357   19.8661 O   0  0  0  0  0  0  0  0  0  0  0  0
   12.2843  -20.2435   18.1637 O   0  0  0  0  0  0  0  0  0  0  0  0
   10.2830  -16.6272   20.7352 N   0  0  0  0  0  0  0  0  0  0  0  0
   10.1444  -15.7405   21.8827 C   0  0  1  0  0  0  0  0  0  0  0  0
    8.7567  -15.2298   22.0370 C   0  0  0  0  0  0  0  0  0  0  0  0
    8.3898  -14.3967   20.8758 C   0  0  0  0  0  0  0  0  0  0  0  0
    9.3053  -13.5859   20.1899 C   0  0  0  0  0  0  0  0  0  0  0  0
    8.6592  -12.9644   19.1949 N   0  0  0  0  0  0  0  0  0  0  0  0
    7.3722  -13.3372   19.2088 C   0  0  0  0  0  0  0  0  0  0  0  0
    7.2304  -14.2020   20.2310 N   0  0  0  0  0  0  0  0  0  0  0  0
   10.6145  -16.3595   23.1173 C   0  0  0  0  0  0  0  0  0  0  0  0
   10.6110  -15.5848   24.2939 O   0  0  0  0  0  0  0  0  0  0  0  0
   11.0244  -17.5210   23.2360 O   0  0  0  0  0  0  0  0  0  0  0  0
  2  1  1  1
  3  2  1  0
  4  3  1  0
  5  4  2  0
  6  7  1  0
  6  5  1  0
  7  8  2  0
  8  4  1  0
  9 10  2  0
  9  2  1  0
 11  9  1  0
 12 11  1  0
 12 13  1  6
 14 18  1  0
 14 13  1  0
 15 14  2  0
 16 12  1  0
 16 17  2  0
 19 16  1  0
 20 21  1  1
 20 19  1  0
 22 21  1  0
 22 26  1  0
 23 24  1  0
 23 22  2  0
 24 25  1  0
 25 26  2  0
 27 20  1  0
 28 27  1  0
 29 27  2  0
M  END
$$$$
