HDH.pdb
     RDKit          3D

 29 30  0  0  1  0  0  0  0  0999 V2000
    8.9382  -12.5853   19.0638 N   0  0  0  0  0  0  0  0  0  0  0  0
    8.6245  -13.9792   19.1150 C   0  0  1  0  0  0  0  0  0  0  0  0
    9.4197  -14.6670   18.0021 C   0  0  0  0  0  0  0  0  0  0  0  0
    8.7068  -14.5362   16.7077 C   0  0  0  0  0  0  0  0  0  0  0  0
    7.6102  -13.7787   16.3986 C   0  0  0  0  0  0  0  0  0  0  0  0
    7.2860  -13.9496   15.1080 N   0  0  0  0  0  0  0  0  0  0  0  0
    8.1882  -14.8242   14.5987 C   0  0  0  0  0  0  0  0  0  0  0  0
    9.0497  -15.1799   15.5683 N   0  0  0  0  0  0  0  0  0  0  0  0
    9.1276  -14.5757   20.4035 C   0  0  0  0  0  0  0  0  0  0  0  0
    9.9704  -13.9955   21.1124 O   0  0  0  0  0  0  0  0  0  0  0  0
    8.6348  -15.8231   20.8226 N   0  0  0  0  0  0  0  0  0  0  0  0
    9.0696  -16.5227   22.0155 C   0  0  1  0  0  0  0  0  0  0  0  0
    8.0032  -17.5069   22.3881 C   0  0  0  0  0  0  0  0  0  0  0  0
    8.3007  -18.2759   23.6202 C   0  0  0  0  0  0  0  0  0  0  0  0
    9.2929  -17.9965   24.3206 O   0  0  0  0  0  0  0  0  0  0  0  0
   10.4187  -17.0760   21.8925 C   0  0  0  0  0  0  0  0  0  0  0  0
   10.6011  -18.2326   21.4359 O   0  0  0  0  0  0  0  0  0  0  0  0
    7.4654  -19.3166   23.9958 O   0  0  0  0  0  0  0  0  0  0  0  0
   11.6033  -16.3709   22.2688 N   0  0  0  0  0  0  0  0  0  0  0  0
   12.9304  -16.9707   22.2335 C   0  0  1  0  0  0  0  0  0  0  0  0
   13.9931  -15.9731   21.9401 C   0  0  0  0  0  0  0  0  0  0  0  0
   13.7720  -15.3712   20.6112 C   0  0  0  0  0  0  0  0  0  0  0  0
   13.5671  -16.1269   19.4481 C   0  0  0  0  0  0  0  0  0  0  0  0
   13.4002  -15.2857   18.4194 N   0  0  0  0  0  0  0  0  0  0  0  0
   13.4880  -14.0254   18.8662 C   0  0  0  0  0  0  0  0  0  0  0  0
   13.7127  -14.0991   20.1917 N   0  0  0  0  0  0  0  0  0  0  0  0
   13.2320  -17.7134   23.4524 C   0  0  0  0  0  0  0  0  0  0  0  0
   14.4701  -18.3804   23.5366 O   0  0  0  0  0  0  0  0  0  0  0  0
   12.4934  -17.8178   24.4396 O   0  0  0  0  0  0  0  0  0  0  0  0
  2  1  1  1
  3  2  1  0
  4  3  1  0
  5  4  2  0
  6  7  1  0
  6  5  1  0
  7  8  2  0
  8  4  1  0
  9 10  2  0
  9  2  1  0
 11  9  1  0
 12 11  1  0
 12 13  1  6
 14 18  1  0
 14 13  1  0
 15 14  2  0
 16 12  1  0
 16 17  2  0
 19 16  1  0
 20 21  1  1
 20 19  1  0
 22 21  1  0
 22 26  1  0
 23 24  1  0
 23 22  2  0
 24 25  1  0
 25 26  2  0
 27 20  1  0
 28 27  1  0
 29 27  2  0
M  END
$$$$
