HDH.pdb
     RDKit          3D

 29 30  0  0  1  0  0  0  0  0999 V2000
    9.0826  -17.6860   18.4655 N   0  0  0  0  0  0  0  0  0  0  0  0
    9.9173  -16.7908   19.2044 C   0  0  1  0  0  0  0  0  0  0  0  0
    9.0111  -15.7127   19.8047 C   0  0  0  0  0  0  0  0  0  0  0  0
    8.5034  -14.8174   18.7362 C   0  0  0  0  0  0  0  0  0  0  0  0
    8.7032  -14.8868   17.3844 C   0  0  0  0  0  0  0  0  0  0  0  0
    8.0625  -13.8773   16.7757 N   0  0  0  0  0  0  0  0  0  0  0  0
    7.4526  -13.1645   17.7545 C   0  0  0  0  0  0  0  0  0  0  0  0
    7.7198  -13.7343   18.9432 N   0  0  0  0  0  0  0  0  0  0  0  0
   10.5316  -17.5067   20.3787 C   0  0  0  0  0  0  0  0  0  0  0  0
   10.0641  -18.5739   20.8169 O   0  0  0  0  0  0  0  0  0  0  0  0
   11.6657  -16.9589   21.0018 N   0  0  0  0  0  0  0  0  0  0  0  0
   12.3233  -17.5259   22.1626 C   0  0  1  0  0  0  0  0  0  0  0  0
   13.7999  -17.3345   21.9962 C   0  0  0  0  0  0  0  0  0  0  0  0
   14.6089  -17.9352   23.0837 C   0  0  0  0  0  0  0  0  0  0  0  0
   14.3772  -19.0923   23.4844 O   0  0  0  0  0  0  0  0  0  0  0  0
   11.7665  -17.0425   23.4266 C   0  0  0  0  0  0  0  0  0  0  0  0
   12.0199  -15.8830   23.8402 O   0  0  0  0  0  0  0  0  0  0  0  0
   15.6337  -17.2007   23.6600 O   0  0  0  0  0  0  0  0  0  0  0  0
   10.9159  -17.8224   24.2693 N   0  0  0  0  0  0  0  0  0  0  0  0
   10.3774  -17.3294   25.5300 C   0  0  1  0  0  0  0  0  0  0  0  0
    8.8967  -17.1989   25.4987 C   0  0  0  0  0  0  0  0  0  0  0  0
    8.5058  -16.0438   24.6680 C   0  0  0  0  0  0  0  0  0  0  0  0
    9.4287  -15.1403   24.1225 C   0  0  0  0  0  0  0  0  0  0  0  0
    8.7559  -14.2144   23.4271 N   0  0  0  0  0  0  0  0  0  0  0  0
    7.4445  -14.4799   23.4998 C   0  0  0  0  0  0  0  0  0  0  0  0
    7.3149  -15.5882   24.2534 N   0  0  0  0  0  0  0  0  0  0  0  0
   10.8077  -18.1369   26.6663 C   0  0  0  0  0  0  0  0  0  0  0  0
   10.3970  -17.7446   27.9555 O   0  0  0  0  0  0  0  0  0  0  0  0
   11.5119  -19.1528   26.6089 O   0  0  0  0  0  0  0  0  0  0  0  0
  2  1  1  1
  3  2  1  0
  4  3  1  0
  5  4  2  0
  6  7  1  0
  6  5  1  0
  7  8  2  0
  8  4  1  0
  9 10  2  0
  9  2  1  0
 11  9  1  0
 12 11  1  0
 12 13  1  6
 14 18  1  0
 14 13  1  0
 15 14  2  0
 16 12  1  0
 16 17  2  0
 19 16  1  0
 20 21  1  6
 20 19  1  0
 22 21  1  0
 22 26  1  0
 23 24  1  0
 23 22  2  0
 24 25  1  0
 25 26  2  0
 27 20  1  0
 28 27  1  0
 29 27  2  0
M  END
$$$$
