HDH.pdb
     RDKit          3D

 29 30  0  0  1  0  0  0  0  0999 V2000
   10.0247  -15.7425   16.7775 N   0  0  0  0  0  0  0  0  0  0  0  0
   11.1709  -15.3560   17.5397 C   0  0  1  0  0  0  0  0  0  0  0  0
   10.9275  -13.9291   18.0381 C   0  0  0  0  0  0  0  0  0  0  0  0
    9.4834  -13.7193   18.3049 C   0  0  0  0  0  0  0  0  0  0  0  0
    8.5054  -13.2709   17.4597 C   0  0  0  0  0  0  0  0  0  0  0  0
    7.3292  -13.2288   18.1036 N   0  0  0  0  0  0  0  0  0  0  0  0
    7.5689  -13.6552   19.3681 C   0  0  0  0  0  0  0  0  0  0  0  0
    8.8748  -13.9527   19.4903 N   0  0  0  0  0  0  0  0  0  0  0  0
   11.2796  -16.2070   18.7779 C   0  0  0  0  0  0  0  0  0  0  0  0
   10.3457  -16.9363   19.1593 O   0  0  0  0  0  0  0  0  0  0  0  0
   12.4673  -16.1810   19.5283 N   0  0  0  0  0  0  0  0  0  0  0  0
   12.7620  -17.0682   20.6362 C   0  0  1  0  0  0  0  0  0  0  0  0
   14.2438  -17.2870   20.6710 C   0  0  0  0  0  0  0  0  0  0  0  0
   14.6370  -18.7094   20.8128 C   0  0  0  0  0  0  0  0  0  0  0  0
   13.7729  -19.5999   20.9288 O   0  0  0  0  0  0  0  0  0  0  0  0
   12.1634  -16.6259   21.8961 C   0  0  0  0  0  0  0  0  0  0  0  0
   12.5033  -15.5367   22.4230 O   0  0  0  0  0  0  0  0  0  0  0  0
   15.9806  -19.0509   20.8163 O   0  0  0  0  0  0  0  0  0  0  0  0
   11.1745  -17.3708   22.6098 N   0  0  0  0  0  0  0  0  0  0  0  0
   10.6868  -16.9858   23.9275 C   0  0  1  0  0  0  0  0  0  0  0  0
    9.2097  -16.8198   23.9563 C   0  0  0  0  0  0  0  0  0  0  0  0
    8.7995  -15.7560   23.0198 C   0  0  0  0  0  0  0  0  0  0  0  0
    8.7451  -14.3997   23.3712 C   0  0  0  0  0  0  0  0  0  0  0  0
    8.3377  -13.7008   22.3039 N   0  0  0  0  0  0  0  0  0  0  0  0
    8.1278  -14.5434   21.2833 C   0  0  0  0  0  0  0  0  0  0  0  0
    8.4122  -15.7790   21.7363 N   0  0  0  0  0  0  0  0  0  0  0  0
   11.1306  -17.9054   24.9695 C   0  0  0  0  0  0  0  0  0  0  0  0
   10.7820  -17.6178   26.3039 O   0  0  0  0  0  0  0  0  0  0  0  0
   11.7961  -18.9337   24.7941 O   0  0  0  0  0  0  0  0  0  0  0  0
  2  1  1  6
  3  2  1  0
  4  3  1  0
  5  4  2  0
  6  7  1  0
  6  5  1  0
  7  8  2  0
  8  4  1  0
  9 10  2  0
  9  2  1  0
 11  9  1  0
 12 11  1  0
 12 13  1  1
 14 18  1  0
 14 13  1  0
 15 14  2  0
 16 12  1  0
 16 17  2  0
 19 16  1  0
 20 21  1  6
 20 19  1  0
 22 21  1  0
 22 26  1  0
 23 24  1  0
 23 22  2  0
 24 25  1  0
 25 26  2  0
 27 20  1  0
 28 27  1  0
 29 27  2  0
M  END
$$$$
