FFP.pdb
     RDKit          3D

 30 32  0  0  1  0  0  0  0  0999 V2000
    9.1393  -17.4417   20.9066 N   0  0  0  0  0  0  0  0  0  0  0  0
   10.2457  -16.5224   20.9872 C   0  0  1  0  0  0  0  0  0  0  0  0
   10.3552  -15.6531   19.7526 C   0  0  0  0  0  0  0  0  0  0  0  0
    9.1409  -14.7988   19.6878 C   0  0  0  0  0  0  0  0  0  0  0  0
    7.9035  -15.2650   19.3459 C   0  0  0  0  0  0  0  0  0  0  0  0
    6.7838  -14.4356   19.2947 C   0  0  0  0  0  0  0  0  0  0  0  0
    6.9388  -13.1077   19.5995 C   0  0  0  0  0  0  0  0  0  0  0  0
    8.1784  -12.5899   19.9525 C   0  0  0  0  0  0  0  0  0  0  0  0
    9.2512  -13.4424   19.9896 C   0  0  0  0  0  0  0  0  0  0  0  0
   10.0765  -15.7074   22.2170 C   0  0  0  0  0  0  0  0  0  0  0  0
   10.9538  -14.8363   22.4696 O   0  0  0  0  0  0  0  0  0  0  0  0
    9.0001  -15.8422   23.1219 N   0  0  0  0  0  0  0  0  0  0  0  0
    8.8654  -14.9954   24.3197 C   0  0  1  0  0  0  0  0  0  0  0  0
    7.3552  -14.7547   24.4808 C   0  0  0  0  0  0  0  0  0  0  0  0
    7.1040  -13.7526   25.5500 C   0  0  0  0  0  0  0  0  0  0  0  0
    6.5048  -14.1182   26.7309 C   0  0  0  0  0  0  0  0  0  0  0  0
    6.2770  -13.1597   27.7255 C   0  0  0  0  0  0  0  0  0  0  0  0
    6.6446  -11.8411   27.5451 C   0  0  0  0  0  0  0  0  0  0  0  0
    7.2408  -11.4802   26.3687 C   0  0  0  0  0  0  0  0  0  0  0  0
    7.4678  -12.4349   25.3780 C   0  0  0  0  0  0  0  0  0  0  0  0
    9.2904  -15.7808   25.5051 C   0  0  0  0  0  0  0  0  0  0  0  0
    9.1801  -17.0560   25.4131 O   0  0  0  0  0  0  0  0  0  0  0  0
    9.7991  -15.2140   26.6993 N   0  0  0  0  0  0  0  0  0  0  0  0
    9.7443  -13.8087   27.0537 C   0  0  0  0  0  0  0  0  0  0  0  0
   10.9327  -13.6644   28.0368 C   0  0  0  0  0  0  0  0  0  0  0  0
   10.7354  -14.9536   28.8111 C   0  0  0  0  0  0  0  0  0  0  0  0
   10.4652  -15.9548   27.7451 C   0  0  1  0  0  0  0  0  0  0  0  0
    9.6596  -17.1070   28.2156 C   0  0  0  0  0  0  0  0  0  0  0  0
   10.1371  -18.0881   29.0374 O   0  0  0  0  0  0  0  0  0  0  0  0
    8.4662  -17.1661   27.8224 O   0  0  0  0  0  0  0  0  0  0  0  0
  2  1  1  6
  2  3  1  0
  2 10  1  0
  3  4  1  0
  4  9  1  0
  4  5  2  0
  5  6  1  0
  6  7  2  0
  8  7  1  0
  9  8  2  0
 10 11  2  0
 12 13  1  0
 12 10  1  0
 13 14  1  1
 14 15  1  0
 15 16  2  0
 16 17  1  0
 18 17  2  0
 19 18  1  0
 20 19  2  0
 20 15  1  0
 21 13  1  0
 21 22  2  0
 23 21  1  0
 24 23  1  0
 25 24  1  0
 26 25  1  0
 26 27  1  0
 27 28  1  1
 27 23  1  0
 28 29  1  0
 30 28  2  0
M  END
$$$$
