FFP.pdb
     RDKit          3D

 30 32  0  0  1  0  0  0  0  0999 V2000
    5.4258  -19.5469   21.3573 N   0  0  0  0  0  0  0  0  0  0  0  0
    5.8902  -19.5847   22.7206 C   0  0  1  0  0  0  0  0  0  0  0  0
    6.8744  -20.7107   22.9561 C   0  0  0  0  0  0  0  0  0  0  0  0
    6.2912  -21.6195   23.9770 C   0  0  0  0  0  0  0  0  0  0  0  0
    7.0159  -22.5493   24.6666 C   0  0  0  0  0  0  0  0  0  0  0  0
    6.4370  -23.3872   25.6190 C   0  0  0  0  0  0  0  0  0  0  0  0
    5.0936  -23.2673   25.8657 C   0  0  0  0  0  0  0  0  0  0  0  0
    4.3174  -22.3357   25.1882 C   0  0  0  0  0  0  0  0  0  0  0  0
    4.9291  -21.5330   24.2606 C   0  0  0  0  0  0  0  0  0  0  0  0
    6.4854  -18.2621   23.0395 C   0  0  0  0  0  0  0  0  0  0  0  0
    7.2186  -17.7220   22.1659 O   0  0  0  0  0  0  0  0  0  0  0  0
    6.2858  -17.5690   24.2542 N   0  0  0  0  0  0  0  0  0  0  0  0
    6.9217  -16.2704   24.5354 C   0  0  1  0  0  0  0  0  0  0  0  0
    6.2725  -15.7723   25.8374 C   0  0  0  0  0  0  0  0  0  0  0  0
    6.8097  -14.4349   26.2024 C   0  0  0  0  0  0  0  0  0  0  0  0
    6.2957  -13.2921   25.6394 C   0  0  0  0  0  0  0  0  0  0  0  0
    6.8153  -12.0420   25.9962 C   0  0  0  0  0  0  0  0  0  0  0  0
    7.8435  -11.9299   26.9108 C   0  0  0  0  0  0  0  0  0  0  0  0
    8.3531  -13.0691   27.4696 C   0  0  0  0  0  0  0  0  0  0  0  0
    7.8356  -14.3143   27.1142 C   0  0  0  0  0  0  0  0  0  0  0  0
    8.3542  -16.5023   24.8468 C   0  0  0  0  0  0  0  0  0  0  0  0
    8.6047  -17.3380   25.7878 O   0  0  0  0  0  0  0  0  0  0  0  0
    9.4304  -15.8691   24.1782 N   0  0  0  0  0  0  0  0  0  0  0  0
    9.3065  -14.7859   23.2217 C   0  0  0  0  0  0  0  0  0  0  0  0
   10.5982  -14.9329   22.3797 C   0  0  0  0  0  0  0  0  0  0  0  0
   11.5643  -15.2339   23.5095 C   0  0  0  0  0  0  0  0  0  0  0  0
   10.8223  -16.2190   24.3405 C   0  0  1  0  0  0  0  0  0  0  0  0
   11.2385  -16.2152   25.7634 C   0  0  0  0  0  0  0  0  0  0  0  0
   10.4230  -15.8506   26.7968 O   0  0  0  0  0  0  0  0  0  0  0  0
   12.4184  -16.5728   26.0127 O   0  0  0  0  0  0  0  0  0  0  0  0
  2  1  1  6
  2  3  1  0
  2 10  1  0
  3  4  1  0
  4  9  1  0
  4  5  2  0
  5  6  1  0
  6  7  2  0
  8  7  1  0
  9  8  2  0
 10 11  2  0
 12 13  1  0
 12 10  1  0
 13 14  1  1
 14 15  1  0
 15 16  2  0
 16 17  1  0
 18 17  2  0
 19 18  1  0
 20 19  2  0
 20 15  1  0
 21 13  1  0
 21 22  2  0
 23 21  1  0
 24 23  1  0
 25 24  1  0
 26 25  1  0
 26 27  1  0
 27 28  1  1
 27 23  1  0
 28 29  1  0
 30 28  2  0
M  END
$$$$
