FFP.pdb
     RDKit          3D

 30 32  0  0  1  0  0  0  0  0999 V2000
    5.4477  -19.5043   22.7686 N   0  0  0  0  0  0  0  0  0  0  0  0
    6.3003  -18.3797   22.4785 C   0  0  1  0  0  0  0  0  0  0  0  0
    5.7010  -17.4658   21.4309 C   0  0  0  0  0  0  0  0  0  0  0  0
    6.6656  -16.3629   21.1829 C   0  0  0  0  0  0  0  0  0  0  0  0
    6.3753  -15.0431   21.3811 C   0  0  0  0  0  0  0  0  0  0  0  0
    7.3044  -14.0322   21.1383 C   0  0  0  0  0  0  0  0  0  0  0  0
    8.5500  -14.3835   20.6850 C   0  0  0  0  0  0  0  0  0  0  0  0
    8.8892  -15.7130   20.4693 C   0  0  0  0  0  0  0  0  0  0  0  0
    7.9439  -16.6731   20.7215 C   0  0  0  0  0  0  0  0  0  0  0  0
    6.5577  -17.6587   23.7510 C   0  0  0  0  0  0  0  0  0  0  0  0
    5.5595  -17.2877   24.4280 O   0  0  0  0  0  0  0  0  0  0  0  0
    7.8440  -17.3608   24.2535 N   0  0  0  0  0  0  0  0  0  0  0  0
    8.0487  -16.5640   25.4753 C   0  0  1  0  0  0  0  0  0  0  0  0
    9.4075  -17.0174   26.0345 C   0  0  0  0  0  0  0  0  0  0  0  0
    9.7249  -16.2749   27.2829 C   0  0  0  0  0  0  0  0  0  0  0  0
   10.6061  -15.2211   27.2706 C   0  0  0  0  0  0  0  0  0  0  0  0
   10.8917  -14.5346   28.4569 C   0  0  0  0  0  0  0  0  0  0  0  0
   10.3020  -14.8962   29.6517 C   0  0  0  0  0  0  0  0  0  0  0  0
    9.4254  -15.9455   29.6609 C   0  0  0  0  0  0  0  0  0  0  0  0
    9.1407  -16.6293   28.4794 C   0  0  0  0  0  0  0  0  0  0  0  0
    8.2114  -15.1399   25.0901 C   0  0  0  0  0  0  0  0  0  0  0  0
    9.0302  -14.8988   24.1320 O   0  0  0  0  0  0  0  0  0  0  0  0
    7.5286  -14.0622   25.7054 N   0  0  0  0  0  0  0  0  0  0  0  0
    6.5804  -14.1799   26.7965 C   0  0  0  0  0  0  0  0  0  0  0  0
    5.7163  -12.9053   26.6285 C   0  0  0  0  0  0  0  0  0  0  0  0
    6.8284  -11.9271   26.3014 C   0  0  0  0  0  0  0  0  0  0  0  0
    7.6660  -12.6753   25.3266 C   0  0  1  0  0  0  0  0  0  0  0  0
    9.0818  -12.2358   25.3136 C   0  0  0  0  0  0  0  0  0  0  0  0
   10.1272  -13.0145   25.7219 O   0  0  0  0  0  0  0  0  0  0  0  0
    9.3130  -11.0713   24.8977 O   0  0  0  0  0  0  0  0  0  0  0  0
  2  1  1  1
  2  3  1  0
  2 10  1  0
  3  4  1  0
  4  9  1  0
  4  5  2  0
  5  6  1  0
  6  7  2  0
  8  7  1  0
  9  8  2  0
 10 11  2  0
 12 13  1  0
 12 10  1  0
 13 14  1  6
 14 15  1  0
 15 16  2  0
 16 17  1  0
 18 17  2  0
 19 18  1  0
 20 19  2  0
 20 15  1  0
 21 13  1  0
 21 22  2  0
 23 21  1  0
 24 23  1  0
 25 24  1  0
 26 25  1  0
 26 27  1  0
 27 28  1  1
 27 23  1  0
 28 29  1  0
 30 28  2  0
M  END
$$$$
