FFP.pdb
     RDKit          3D

 30 32  0  0  1  0  0  0  0  0999 V2000
   11.3963  -16.8236   20.1125 N   0  0  0  0  0  0  0  0  0  0  0  0
   10.8286  -17.4308   21.2892 C   0  0  1  0  0  0  0  0  0  0  0  0
   11.7495  -18.4683   21.8955 C   0  0  0  0  0  0  0  0  0  0  0  0
   11.3177  -19.8030   21.4051 C   0  0  0  0  0  0  0  0  0  0  0  0
   11.8259  -20.4006   20.2871 C   0  0  0  0  0  0  0  0  0  0  0  0
   11.3982  -21.6551   19.8541 C   0  0  0  0  0  0  0  0  0  0  0  0
   10.4339  -22.3044   20.5813 C   0  0  0  0  0  0  0  0  0  0  0  0
    9.8887  -21.7347   21.7247 C   0  0  0  0  0  0  0  0  0  0  0  0
   10.3395  -20.4998   22.1129 C   0  0  0  0  0  0  0  0  0  0  0  0
   10.5111  -16.3493   22.2560 C   0  0  0  0  0  0  0  0  0  0  0  0
   11.3643  -15.4329   22.4131 O   0  0  0  0  0  0  0  0  0  0  0  0
    9.3190  -16.2779   23.0106 N   0  0  0  0  0  0  0  0  0  0  0  0
    9.0858  -15.2310   24.0203 C   0  0  1  0  0  0  0  0  0  0  0  0
    7.5890  -14.8934   23.9189 C   0  0  0  0  0  0  0  0  0  0  0  0
    7.2313  -13.8365   24.9015 C   0  0  0  0  0  0  0  0  0  0  0  0
    6.5139  -14.1408   26.0329 C   0  0  0  0  0  0  0  0  0  0  0  0
    6.1870  -13.1313   26.9461 C   0  0  0  0  0  0  0  0  0  0  0  0
    6.5729  -11.8228   26.7337 C   0  0  0  0  0  0  0  0  0  0  0  0
    7.2868  -11.5229   25.6067 C   0  0  0  0  0  0  0  0  0  0  0  0
    7.6126  -12.5284   24.6971 C   0  0  0  0  0  0  0  0  0  0  0  0
    9.2895  -15.8190   25.3677 C   0  0  0  0  0  0  0  0  0  0  0  0
    9.0296  -17.0698   25.4888 O   0  0  0  0  0  0  0  0  0  0  0  0
    9.7446  -15.0939   26.4961 N   0  0  0  0  0  0  0  0  0  0  0  0
    9.7151  -13.6507   26.6368 C   0  0  0  0  0  0  0  0  0  0  0  0
   10.8470  -13.3907   27.6618 C   0  0  0  0  0  0  0  0  0  0  0  0
   10.5617  -14.5459   28.6023 C   0  0  0  0  0  0  0  0  0  0  0  0
   10.3225  -15.6872   27.6793 C   0  0  1  0  0  0  0  0  0  0  0  0
    9.4529  -16.7376   28.2611 C   0  0  0  0  0  0  0  0  0  0  0  0
    9.8211  -17.5456   29.2991 O   0  0  0  0  0  0  0  0  0  0  0  0
    8.3106  -16.8770   27.7533 O   0  0  0  0  0  0  0  0  0  0  0  0
  2  1  1  6
  2  3  1  0
  2 10  1  0
  3  4  1  0
  4  9  1  0
  4  5  2  0
  5  6  1  0
  6  7  2  0
  8  7  1  0
  9  8  2  0
 10 11  2  0
 12 13  1  0
 12 10  1  0
 13 14  1  1
 14 15  1  0
 15 16  2  0
 16 17  1  0
 18 17  2  0
 19 18  1  0
 20 19  2  0
 20 15  1  0
 21 13  1  0
 21 22  2  0
 23 21  1  0
 24 23  1  0
 25 24  1  0
 26 25  1  0
 26 27  1  0
 27 28  1  1
 27 23  1  0
 28 29  1  0
 30 28  2  0
M  END
$$$$
