FFP.pdb
     RDKit          3D

 30 32  0  0  1  0  0  0  0  0999 V2000
    4.8756  -20.2667   22.7536 N   0  0  0  0  0  0  0  0  0  0  0  0
    5.9460  -20.0948   23.7025 C   0  0  1  0  0  0  0  0  0  0  0  0
    7.1475  -20.9527   23.3674 C   0  0  0  0  0  0  0  0  0  0  0  0
    6.8055  -22.3622   23.6911 C   0  0  0  0  0  0  0  0  0  0  0  0
    6.5757  -22.8144   24.9591 C   0  0  0  0  0  0  0  0  0  0  0  0
    6.2567  -24.1448   25.2284 C   0  0  0  0  0  0  0  0  0  0  0  0
    6.1728  -25.0228   24.1785 C   0  0  0  0  0  0  0  0  0  0  0  0
    6.3985  -24.6072   22.8725 C   0  0  0  0  0  0  0  0  0  0  0  0
    6.7093  -23.2899   22.6551 C   0  0  0  0  0  0  0  0  0  0  0  0
    6.2973  -18.6525   23.7418 C   0  0  0  0  0  0  0  0  0  0  0  0
    6.6483  -18.1039   22.6610 O   0  0  0  0  0  0  0  0  0  0  0  0
    6.2647  -17.8546   24.9071 N   0  0  0  0  0  0  0  0  0  0  0  0
    6.6955  -16.4460   24.9112 C   0  0  1  0  0  0  0  0  0  0  0  0
    6.4733  -15.9561   26.3518 C   0  0  0  0  0  0  0  0  0  0  0  0
    6.7256  -14.4938   26.4437 C   0  0  0  0  0  0  0  0  0  0  0  0
    5.7923  -13.5890   25.9992 C   0  0  0  0  0  0  0  0  0  0  0  0
    6.0488  -12.2160   26.0944 C   0  0  0  0  0  0  0  0  0  0  0  0
    7.2308  -11.7451   26.6306 C   0  0  0  0  0  0  0  0  0  0  0  0
    8.1578  -12.6480   27.0722 C   0  0  0  0  0  0  0  0  0  0  0  0
    7.9024  -14.0156   26.9773 C   0  0  0  0  0  0  0  0  0  0  0  0
    8.1603  -16.3982   24.6767 C   0  0  0  0  0  0  0  0  0  0  0  0
    8.8835  -17.1363   25.4374 O   0  0  0  0  0  0  0  0  0  0  0  0
    8.7856  -15.6045   23.6841 N   0  0  0  0  0  0  0  0  0  0  0  0
    8.1214  -14.6188   22.8529 C   0  0  0  0  0  0  0  0  0  0  0  0
    9.0403  -14.5566   21.6075 C   0  0  0  0  0  0  0  0  0  0  0  0
   10.3789  -14.6031   22.3192 C   0  0  0  0  0  0  0  0  0  0  0  0
   10.1868  -15.6679   23.3395 C   0  0  1  0  0  0  0  0  0  0  0  0
   11.0628  -15.5072   24.5247 C   0  0  0  0  0  0  0  0  0  0  0  0
   12.4205  -15.6550   24.4967 O   0  0  0  0  0  0  0  0  0  0  0  0
   10.5018  -15.2171   25.6125 O   0  0  0  0  0  0  0  0  0  0  0  0
  2  1  1  6
  2  3  1  0
  2 10  1  0
  3  4  1  0
  4  9  1  0
  4  5  2  0
  5  6  1  0
  6  7  2  0
  8  7  1  0
  9  8  2  0
 10 11  2  0
 12 13  1  0
 12 10  1  0
 13 14  1  1
 14 15  1  0
 15 16  2  0
 16 17  1  0
 18 17  2  0
 19 18  1  0
 20 19  2  0
 20 15  1  0
 21 13  1  0
 21 22  2  0
 23 21  1  0
 24 23  1  0
 25 24  1  0
 26 25  1  0
 26 27  1  0
 27 28  1  1
 27 23  1  0
 28 29  1  0
 30 28  2  0
M  END
$$$$
