NCS.pdb
     RDKit          3D

 21 20  0  0  1  0  0  0  0  0999 V2000
    8.6388  -12.4881   17.7926 N   0  0  0  0  0  0  0  0  0  0  0  0
    7.8030  -13.3876   18.5207 C   0  0  0  0  0  0  0  0  0  0  0  0
    7.1414  -14.2084   17.8636 O   0  0  0  0  0  0  0  0  0  0  0  0
    7.7478  -13.3218   19.9914 C   0  0  0  0  0  0  0  0  0  0  0  0
    8.0328  -14.6985   20.5364 C   0  0  2  0  0  0  0  0  0  0  0  0
    6.7936  -15.4355   20.5506 N   0  0  0  0  0  0  0  0  0  0  0  0
    8.5631  -14.5386   21.9203 C   0  0  0  0  0  0  0  0  0  0  0  0
    9.7235  -14.1158   22.1379 O   0  0  0  0  0  0  0  0  0  0  0  0
    7.7449  -14.8689   23.0133 N   0  0  0  0  0  0  0  0  0  0  0  0
    8.2511  -14.8349   24.3501 C   0  0  1  0  0  0  0  0  0  0  0  0
    7.2475  -14.3112   25.3517 C   0  0  0  0  0  0  0  0  0  0  0  0
    6.6646  -12.6562   24.9262 S   0  0  0  0  0  0  0  0  0  0  0  0
    8.5826  -16.2254   24.7557 C   0  0  0  0  0  0  0  0  0  0  0  0
    8.0870  -17.1952   24.1504 O   0  0  0  0  0  0  0  0  0  0  0  0
   12.1022  -18.5736   24.5691 O   0  0  0  0  0  0  0  0  0  0  0  0
   11.3185  -17.4382   24.6593 C   0  0  0  0  0  0  0  0  0  0  0  0
   10.3032  -17.6947   25.7738 C   0  0  2  0  0  0  0  0  0  0  0  0
    9.4628  -16.5162   25.8316 N   0  0  0  0  0  0  0  0  0  0  0  0
   11.0576  -17.9131   27.0075 C   0  0  0  0  0  0  0  0  0  0  0  0
   11.3267  -16.9673   27.7902 O   0  0  0  0  0  0  0  0  0  0  0  0
   11.4967  -19.1846   27.3425 O   0  0  0  0  0  0  0  0  0  0  0  0
  2  1  1  0
  2  4  1  0
  3  2  2  0
  5  6  1  1
  5  7  1  0
  5  4  1  0
  7  9  1  0
  7  8  2  0
  9 10  1  0
 10 13  1  0
 10 11  1  1
 12 11  1  0
 13 18  1  0
 13 14  2  0
 15 16  1  0
 17 16  1  6
 17 19  1  0
 18 17  1  0
 19 21  1  0
 20 19  2  0
M  END
$$$$
