NCS.pdb
     RDKit          3D

 21 20  0  0  1  0  0  0  0  0999 V2000
   17.6131  -12.0282   16.8203 N   0  0  0  0  0  0  0  0  0  0  0  0
   17.0418  -12.9841   17.7134 C   0  0  0  0  0  0  0  0  0  0  0  0
   17.8257  -13.6907   18.3688 O   0  0  0  0  0  0  0  0  0  0  0  0
   15.5784  -13.1052   17.8321 C   0  0  0  0  0  0  0  0  0  0  0  0
   15.1925  -14.5213   17.4865 C   0  0  2  0  0  0  0  0  0  0  0  0
   15.1671  -14.6361   16.0494 N   0  0  0  0  0  0  0  0  0  0  0  0
   13.8388  -14.7754   18.0564 C   0  0  0  0  0  0  0  0  0  0  0  0
   12.8094  -14.2456   17.5742 O   0  0  0  0  0  0  0  0  0  0  0  0
   13.7074  -15.6303   19.1632 N   0  0  0  0  0  0  0  0  0  0  0  0
   12.4275  -15.8923   19.7446 C   0  0  1  0  0  0  0  0  0  0  0  0
   11.8048  -17.1791   19.2537 C   0  0  0  0  0  0  0  0  0  0  0  0
   10.2491  -17.5438   20.0943 S   0  0  0  0  0  0  0  0  0  0  0  0
   12.6052  -16.0299   21.2134 C   0  0  0  0  0  0  0  0  0  0  0  0
   13.6788  -16.4532   21.6830 O   0  0  0  0  0  0  0  0  0  0  0  0
    9.4761  -15.5902   23.4669 O   0  0  0  0  0  0  0  0  0  0  0  0
   10.5745  -15.3329   24.2661 C   0  0  0  0  0  0  0  0  0  0  0  0
   11.7853  -15.9365   23.5533 C   0  0  2  0  0  0  0  0  0  0  0  0
   11.5826  -15.6935   22.1397 N   0  0  0  0  0  0  0  0  0  0  0  0
   11.8191  -17.3608   23.8838 C   0  0  0  0  0  0  0  0  0  0  0  0
   11.5727  -18.2419   23.0221 O   0  0  0  0  0  0  0  0  0  0  0  0
   12.1276  -17.7726   25.1709 O   0  0  0  0  0  0  0  0  0  0  0  0
  2  1  1  0
  2  4  1  0
  3  2  2  0
  5  6  1  6
  5  7  1  0
  5  4  1  0
  7  9  1  0
  7  8  2  0
  9 10  1  0
 10 13  1  0
 10 11  1  6
 12 11  1  0
 13 18  1  0
 13 14  2  0
 15 16  1  0
 17 16  1  1
 17 19  1  0
 18 17  1  0
 19 21  1  0
 20 19  2  0
M  END
$$$$
