NCS.pdb
     RDKit          3D

 21 20  0  0  1  0  0  0  0  0999 V2000
    9.1498  -19.4138   16.5235 N   0  0  0  0  0  0  0  0  0  0  0  0
    9.9755  -18.2783   16.2657 C   0  0  0  0  0  0  0  0  0  0  0  0
   10.3857  -18.1247   15.1031 O   0  0  0  0  0  0  0  0  0  0  0  0
   10.3109  -17.3436   17.3538 C   0  0  0  0  0  0  0  0  0  0  0  0
    9.8212  -17.9350   18.6515 C   0  0  2  0  0  0  0  0  0  0  0  0
    8.3797  -17.8984   18.6398 N   0  0  0  0  0  0  0  0  0  0  0  0
   10.3574  -17.0988   19.7630 C   0  0  0  0  0  0  0  0  0  0  0  0
   11.5887  -16.9197   19.9197 O   0  0  0  0  0  0  0  0  0  0  0  0
    9.4635  -16.4931   20.6615 N   0  0  0  0  0  0  0  0  0  0  0  0
    9.9395  -15.7399   21.7799 C   0  0  1  0  0  0  0  0  0  0  0  0
    8.8413  -14.9974   22.5061 C   0  0  0  0  0  0  0  0  0  0  0  0
    7.4829  -16.0885   22.9794 S   0  0  0  0  0  0  0  0  0  0  0  0
   10.5399  -16.6870   22.7548 C   0  0  0  0  0  0  0  0  0  0  0  0
   10.1218  -17.8578   22.8377 O   0  0  0  0  0  0  0  0  0  0  0  0
   14.2029  -18.0137   25.3941 O   0  0  0  0  0  0  0  0  0  0  0  0
   13.6608  -17.0550   24.5583 C   0  0  0  0  0  0  0  0  0  0  0  0
   12.1500  -17.2914   24.5431 C   0  0  2  0  0  0  0  0  0  0  0  0
   11.5992  -16.3158   23.6249 N   0  0  0  0  0  0  0  0  0  0  0  0
   11.6685  -17.1148   25.9127 C   0  0  0  0  0  0  0  0  0  0  0  0
   10.9908  -16.1107   26.2473 O   0  0  0  0  0  0  0  0  0  0  0  0
   11.9538  -18.0640   26.8819 O   0  0  0  0  0  0  0  0  0  0  0  0
  2  1  1  0
  2  4  1  0
  3  2  2  0
  5  6  1  6
  5  7  1  0
  5  4  1  0
  7  9  1  0
  7  8  2  0
  9 10  1  0
 10 13  1  0
 10 11  1  1
 12 11  1  0
 13 18  1  0
 13 14  2  0
 15 16  1  0
 17 16  1  1
 17 19  1  0
 18 17  1  0
 19 21  1  0
 20 19  2  0
M  END
$$$$
