NCS.pdb
     RDKit          3D

 21 20  0  0  1  0  0  0  0  0999 V2000
    6.9560  -12.9797   17.8059 N   0  0  0  0  0  0  0  0  0  0  0  0
    7.8890  -13.7855   18.5256 C   0  0  0  0  0  0  0  0  0  0  0  0
    8.4280  -14.7202   17.9099 O   0  0  0  0  0  0  0  0  0  0  0  0
    8.1809  -13.4966   19.9404 C   0  0  0  0  0  0  0  0  0  0  0  0
    8.1843  -14.8006   20.6973 C   0  0  2  0  0  0  0  0  0  0  0  0
    6.8148  -15.2191   20.8664 N   0  0  0  0  0  0  0  0  0  0  0  0
    8.8245  -14.5561   22.0211 C   0  0  0  0  0  0  0  0  0  0  0  0
   10.0537  -14.3317   22.1286 O   0  0  0  0  0  0  0  0  0  0  0  0
    8.0340  -14.5764   23.1821 N   0  0  0  0  0  0  0  0  0  0  0  0
    8.6302  -14.5274   24.4809 C   0  0  1  0  0  0  0  0  0  0  0  0
    7.7210  -13.9280   25.5291 C   0  0  0  0  0  0  0  0  0  0  0  0
    6.1415  -14.7964   25.6341 S   0  0  0  0  0  0  0  0  0  0  0  0
    8.9249  -15.9197   24.9083 C   0  0  0  0  0  0  0  0  0  0  0  0
    8.1798  -16.8573   24.5644 O   0  0  0  0  0  0  0  0  0  0  0  0
   11.6873  -19.4218   25.5495 O   0  0  0  0  0  0  0  0  0  0  0  0
   11.4986  -18.0817   25.2665 C   0  0  0  0  0  0  0  0  0  0  0  0
   10.2875  -17.6284   26.0828 C   0  0  2  0  0  0  0  0  0  0  0  0
   10.0473  -16.2483   25.7140 N   0  0  0  0  0  0  0  0  0  0  0  0
   10.6320  -17.7852   27.4955 C   0  0  0  0  0  0  0  0  0  0  0  0
   10.8138  -16.7909   28.2425 O   0  0  0  0  0  0  0  0  0  0  0  0
   10.7665  -19.0503   28.0460 O   0  0  0  0  0  0  0  0  0  0  0  0
  2  1  1  0
  2  4  1  0
  3  2  2  0
  5  6  1  1
  5  7  1  0
  5  4  1  0
  7  9  1  0
  7  8  2  0
  9 10  1  0
 10 13  1  0
 10 11  1  1
 12 11  1  0
 13 18  1  0
 13 14  2  0
 15 16  1  0
 17 16  1  6
 17 19  1  0
 18 17  1  0
 19 21  1  0
 20 19  2  0
M  END
$$$$
