NCS.pdb
     RDKit          3D

 21 20  0  0  1  0  0  0  0  0999 V2000
    7.7885  -13.6110   13.6380 N   0  0  0  0  0  0  0  0  0  0  0  0
    7.5712  -14.5778   14.6656 C   0  0  0  0  0  0  0  0  0  0  0  0
    7.2633  -15.7275   14.3098 O   0  0  0  0  0  0  0  0  0  0  0  0
    7.7136  -14.1984   16.0819 C   0  0  0  0  0  0  0  0  0  0  0  0
    8.6949  -15.1440   16.7273 C   0  0  2  0  0  0  0  0  0  0  0  0
    8.0097  -16.3859   16.9864 N   0  0  0  0  0  0  0  0  0  0  0  0
    9.1532  -14.5226   18.0025 C   0  0  0  0  0  0  0  0  0  0  0  0
   10.1785  -13.8023   18.0547 O   0  0  0  0  0  0  0  0  0  0  0  0
    8.4205  -14.7470   19.1797 N   0  0  0  0  0  0  0  0  0  0  0  0
    8.9189  -14.3218   20.4507 C   0  0  1  0  0  0  0  0  0  0  0  0
    7.8228  -13.9981   21.4399 C   0  0  0  0  0  0  0  0  0  0  0  0
    6.6898  -15.3841   21.6747 S   0  0  0  0  0  0  0  0  0  0  0  0
    9.7130  -15.4345   21.0330 C   0  0  0  0  0  0  0  0  0  0  0  0
    9.4951  -16.6126   20.6910 O   0  0  0  0  0  0  0  0  0  0  0  0
   13.5349  -16.9081   23.4484 O   0  0  0  0  0  0  0  0  0  0  0  0
   12.8278  -15.8248   22.9605 C   0  0  0  0  0  0  0  0  0  0  0  0
   11.4526  -16.3502   22.5467 C   0  0  2  0  0  0  0  0  0  0  0  0
   10.7403  -15.2186   21.9895 N   0  0  0  0  0  0  0  0  0  0  0  0
   10.8126  -16.8866   23.7473 C   0  0  0  0  0  0  0  0  0  0  0  0
    9.9669  -16.2201   24.3955 O   0  0  0  0  0  0  0  0  0  0  0  0
   11.1303  -18.1576   24.2004 O   0  0  0  0  0  0  0  0  0  0  0  0
  2  1  1  0
  2  4  1  0
  3  2  2  0
  5  6  1  1
  5  7  1  0
  5  4  1  0
  7  9  1  0
  7  8  2  0
  9 10  1  0
 10 13  1  0
 10 11  1  1
 12 11  1  0
 13 18  1  0
 13 14  2  0
 15 16  1  0
 17 16  1  1
 17 19  1  0
 18 17  1  0
 19 21  1  0
 20 19  2  0
M  END
$$$$
