NCS.pdb
     RDKit          3D

 21 20  0  0  1  0  0  0  0  0999 V2000
    9.5323  -17.9198   17.9359 N   0  0  0  0  0  0  0  0  0  0  0  0
   10.5050  -17.4297   18.8586 C   0  0  0  0  0  0  0  0  0  0  0  0
   11.6667  -17.8538   18.7401 O   0  0  0  0  0  0  0  0  0  0  0  0
   10.1178  -16.4610   19.8987 C   0  0  0  0  0  0  0  0  0  0  0  0
   10.2543  -17.1315   21.2424 C   0  0  2  0  0  0  0  0  0  0  0  0
    9.2448  -18.1572   21.3311 N   0  0  0  0  0  0  0  0  0  0  0  0
   10.0409  -16.0943   22.2916 C   0  0  0  0  0  0  0  0  0  0  0  0
   10.7417  -15.0557   22.3454 O   0  0  0  0  0  0  0  0  0  0  0  0
    9.0290  -16.2808   23.2479 N   0  0  0  0  0  0  0  0  0  0  0  0
    8.8231  -15.3323   24.2979 C   0  0  1  0  0  0  0  0  0  0  0  0
    7.3929  -15.2873   24.7849 C   0  0  0  0  0  0  0  0  0  0  0  0
    6.8527  -16.8761   25.4511 S   0  0  0  0  0  0  0  0  0  0  0  0
    9.6626  -15.7337   25.4562 C   0  0  0  0  0  0  0  0  0  0  0  0
   10.2606  -16.8268   25.4545 O   0  0  0  0  0  0  0  0  0  0  0  0
    9.5490  -13.5874   28.7081 O   0  0  0  0  0  0  0  0  0  0  0  0
   10.8123  -14.1436   28.6279 C   0  0  0  0  0  0  0  0  0  0  0  0
   10.7074  -15.3314   27.6704 C   0  0  2  0  0  0  0  0  0  0  0  0
    9.8244  -14.9103   26.6021 N   0  0  0  0  0  0  0  0  0  0  0  0
   10.1748  -16.4595   28.4337 C   0  0  0  0  0  0  0  0  0  0  0  0
   10.8327  -16.9957   29.3606 O   0  0  0  0  0  0  0  0  0  0  0  0
    8.9171  -16.9665   28.1461 O   0  0  0  0  0  0  0  0  0  0  0  0
  2  1  1  0
  2  4  1  0
  3  2  2  0
  5  6  1  6
  5  7  1  0
  5  4  1  0
  7  9  1  0
  7  8  2  0
  9 10  1  0
 10 13  1  0
 10 11  1  1
 12 11  1  0
 13 18  1  0
 13 14  2  0
 15 16  1  0
 17 16  1  1
 17 19  1  0
 18 17  1  0
 19 21  1  0
 20 19  2  0
M  END
$$$$
