KNQ.pdb
     RDKit          3D

 27 26  0  0  1  0  0  0  0  0999 V2000
   25.5877  -27.0415  -14.7691 N   0  0  0  0  0  0  0  0  0  0  0  0
   24.8953  -26.3100  -15.7876 C   0  0  1  0  0  0  0  0  0  0  0  0
   25.0827  -26.9524  -17.1613 C   0  0  0  0  0  0  0  0  0  0  0  0
   26.4855  -26.9832  -17.6386 C   0  0  0  0  0  0  0  0  0  0  0  0
   27.3706  -25.8661  -17.1996 C   0  0  0  0  0  0  0  0  0  0  0  0
   28.7175  -26.0992  -17.9019 C   0  0  0  0  0  0  0  0  0  0  0  0
   29.6494  -25.1093  -17.4359 N   0  0  0  0  0  0  0  0  0  0  0  0
   23.3990  -26.4174  -15.5852 C   0  0  0  0  0  0  0  0  0  0  0  0
   22.6886  -25.9875  -16.5212 O   0  0  0  0  0  0  0  0  0  0  0  0
   19.6747  -29.8049  -13.9680 N   0  0  0  0  0  0  0  0  0  0  0  0
   20.9951  -29.4143  -13.6196 C   0  0  0  0  0  0  0  0  0  0  0  0
   21.9725  -30.2067  -13.7074 O   0  0  0  0  0  0  0  0  0  0  0  0
   21.1583  -28.0212  -13.1461 C   0  0  0  0  0  0  0  0  0  0  0  0
   21.3412  -27.0222  -14.2196 C   0  0  2  0  0  0  0  0  0  0  0  0
   22.8020  -26.9529  -14.4512 N   0  0  0  0  0  0  0  0  0  0  0  0
   20.7871  -25.6923  -14.0408 C   0  0  0  0  0  0  0  0  0  0  0  0
   21.5803  -24.6973  -14.2151 O   0  0  0  0  0  0  0  0  0  0  0  0
   17.5142  -21.2400  -16.2358 N   0  0  0  0  0  0  0  0  0  0  0  0
   18.9316  -21.2186  -16.2138 C   0  0  0  0  0  0  0  0  0  0  0  0
   19.5462  -20.5379  -17.0478 O   0  0  0  0  0  0  0  0  0  0  0  0
   19.6105  -22.0387  -15.1607 C   0  0  0  0  0  0  0  0  0  0  0  0
   19.1704  -23.4746  -15.1797 C   0  0  0  0  0  0  0  0  0  0  0  0
   18.9868  -23.9624  -13.7752 C   0  0  2  0  0  0  0  0  0  0  0  0
   19.4620  -25.3462  -13.6944 N   0  0  0  0  0  0  0  0  0  0  0  0
   17.5552  -23.8877  -13.3573 C   0  0  0  0  0  0  0  0  0  0  0  0
   16.7338  -24.7699  -13.6751 O   0  0  0  0  0  0  0  0  0  0  0  0
   17.1442  -22.8141  -12.6042 O   0  0  0  0  0  0  0  0  0  0  0  0
  2  1  1  1
  2  8  1  0
  3  2  1  0
  4  3  1  0
  4  5  1  0
  5  6  1  0
  7  6  1  0
  8  9  2  0
  8 15  1  0
 10 11  1  0
 11 12  2  0
 13 11  1  0
 14 13  1  1
 14 16  1  0
 15 14  1  0
 16 17  2  0
 19 21  1  0
 19 18  1  0
 20 19  2  0
 22 21  1  0
 23 22  1  6
 24 16  1  0
 24 23  1  0
 25 23  1  0
 25 27  1  0
 26 25  2  0
M  END
$$$$
