KNQ.pdb
     RDKit          3D

 27 26  0  0  1  0  0  0  0  0999 V2000
   24.2197  -23.7192  -19.4481 N   0  0  0  0  0  0  0  0  0  0  0  0
   22.9161  -23.3159  -19.0123 C   0  0  1  0  0  0  0  0  0  0  0  0
   21.8346  -24.2563  -19.5425 C   0  0  0  0  0  0  0  0  0  0  0  0
   22.2763  -25.6592  -19.7249 C   0  0  0  0  0  0  0  0  0  0  0  0
   21.4363  -26.7170  -19.0929 C   0  0  0  0  0  0  0  0  0  0  0  0
   20.9024  -27.5745  -20.2511 C   0  0  0  0  0  0  0  0  0  0  0  0
   20.8918  -28.9487  -19.8308 N   0  0  0  0  0  0  0  0  0  0  0  0
   22.7864  -23.4907  -17.5144 C   0  0  0  0  0  0  0  0  0  0  0  0
   22.5361  -24.6511  -17.1190 O   0  0  0  0  0  0  0  0  0  0  0  0
   25.6151  -23.2258  -15.1800 N   0  0  0  0  0  0  0  0  0  0  0  0
   25.2984  -21.9574  -14.6248 C   0  0  0  0  0  0  0  0  0  0  0  0
   26.1857  -21.1874  -14.1661 O   0  0  0  0  0  0  0  0  0  0  0  0
   23.8641  -21.5910  -14.6150 C   0  0  0  0  0  0  0  0  0  0  0  0
   22.9559  -22.6396  -15.1244 C   0  0  2  0  0  0  0  0  0  0  0  0
   22.9292  -22.4604  -16.5939 N   0  0  0  0  0  0  0  0  0  0  0  0
   21.6072  -22.7169  -14.5929 C   0  0  0  0  0  0  0  0  0  0  0  0
   20.7378  -21.9048  -15.0770 O   0  0  0  0  0  0  0  0  0  0  0  0
   18.7879  -26.5650  -10.3909 N   0  0  0  0  0  0  0  0  0  0  0  0
   17.7391  -25.6751  -10.7344 C   0  0  0  0  0  0  0  0  0  0  0  0
   16.6013  -25.8665  -10.2812 O   0  0  0  0  0  0  0  0  0  0  0  0
   18.0810  -24.5354  -11.6436 C   0  0  0  0  0  0  0  0  0  0  0  0
   19.5139  -24.5701  -12.0927 C   0  0  0  0  0  0  0  0  0  0  0  0
   19.7712  -23.4377  -13.0393 C   0  0  2  0  0  0  0  0  0  0  0  0
   21.1192  -23.5882  -13.5937 N   0  0  0  0  0  0  0  0  0  0  0  0
   19.6443  -22.1174  -12.3535 C   0  0  0  0  0  0  0  0  0  0  0  0
   20.6398  -21.5114  -11.9112 O   0  0  0  0  0  0  0  0  0  0  0  0
   18.3932  -21.5667  -12.2115 O   0  0  0  0  0  0  0  0  0  0  0  0
  2  1  1  6
  2  8  1  0
  3  2  1  0
  4  3  1  0
  4  5  1  0
  5  6  1  0
  7  6  1  0
  8  9  2  0
  8 15  1  0
 10 11  1  0
 11 12  2  0
 13 11  1  0
 14 13  1  1
 14 16  1  0
 15 14  1  0
 16 17  2  0
 19 21  1  0
 19 18  1  0
 20 19  2  0
 22 21  1  0
 23 22  1  1
 24 16  1  0
 24 23  1  0
 25 23  1  0
 25 27  1  0
 26 25  2  0
M  END
$$$$
