KNQ.pdb
     RDKit          3D

 27 26  0  0  1  0  0  0  0  0999 V2000
   27.0761  -15.6765  -17.1890 N   0  0  0  0  0  0  0  0  0  0  0  0
   26.8335  -16.1627  -15.8636 C   0  0  1  0  0  0  0  0  0  0  0  0
   25.9053  -15.2290  -15.0878 C   0  0  0  0  0  0  0  0  0  0  0  0
   25.5675  -13.9716  -15.7958 C   0  0  0  0  0  0  0  0  0  0  0  0
   24.1190  -13.6436  -15.9314 C   0  0  0  0  0  0  0  0  0  0  0  0
   24.0649  -12.2172  -16.5008 C   0  0  0  0  0  0  0  0  0  0  0  0
   22.6955  -11.7810  -16.5024 N   0  0  0  0  0  0  0  0  0  0  0  0
   26.0296  -17.4442  -15.9141 C   0  0  0  0  0  0  0  0  0  0  0  0
   25.2514  -17.5635  -16.8866 O   0  0  0  0  0  0  0  0  0  0  0  0
   27.2605  -22.2354  -16.1261 N   0  0  0  0  0  0  0  0  0  0  0  0
   27.4381  -21.1127  -15.2743 C   0  0  0  0  0  0  0  0  0  0  0  0
   28.5207  -20.4669  -15.2355 O   0  0  0  0  0  0  0  0  0  0  0  0
   26.2773  -20.7441  -14.4327 C   0  0  0  0  0  0  0  0  0  0  0  0
   25.3761  -19.7375  -15.0314 C   0  0  2  0  0  0  0  0  0  0  0  0
   26.1150  -18.4561  -14.9664 N   0  0  0  0  0  0  0  0  0  0  0  0
   24.0377  -19.5854  -14.4901 C   0  0  0  0  0  0  0  0  0  0  0  0
   23.9059  -18.8446  -13.4492 O   0  0  0  0  0  0  0  0  0  0  0  0
   20.2337  -16.3899  -16.3154 N   0  0  0  0  0  0  0  0  0  0  0  0
   19.4610  -16.7560  -15.1845 C   0  0  0  0  0  0  0  0  0  0  0  0
   18.3558  -16.2255  -15.0009 O   0  0  0  0  0  0  0  0  0  0  0  0
   20.0432  -17.7831  -14.2633 C   0  0  0  0  0  0  0  0  0  0  0  0
   21.4027  -18.2445  -14.7046 C   0  0  0  0  0  0  0  0  0  0  0  0
   21.5305  -19.7199  -14.4784 C   0  0  2  0  0  0  0  0  0  0  0  0
   22.8391  -20.1575  -14.9715 N   0  0  0  0  0  0  0  0  0  0  0  0
   20.4439  -20.4718  -15.1737 C   0  0  0  0  0  0  0  0  0  0  0  0
   20.6026  -20.9441  -16.3164 O   0  0  0  0  0  0  0  0  0  0  0  0
   19.2425  -20.6405  -14.5280 O   0  0  0  0  0  0  0  0  0  0  0  0
  2  1  1  6
  2  8  1  0
  3  2  1  0
  4  3  1  0
  4  5  1  0
  5  6  1  0
  7  6  1  0
  8  9  2  0
  8 15  1  0
 10 11  1  0
 11 12  2  0
 13 11  1  0
 14 13  1  1
 14 16  1  0
 15 14  1  0
 16 17  2  0
 19 21  1  0
 19 18  1  0
 20 19  2  0
 22 21  1  0
 23 22  1  6
 24 16  1  0
 24 23  1  0
 25 23  1  0
 25 27  1  0
 26 25  2  0
M  END
$$$$
