KNQ.pdb
     RDKit          3D

 27 26  0  0  1  0  0  0  0  0999 V2000
   27.6197  -22.1275  -15.6972 N   0  0  0  0  0  0  0  0  0  0  0  0
   27.0498  -20.9567  -15.1003 C   0  0  1  0  0  0  0  0  0  0  0  0
   26.5367  -19.9831  -16.1605 C   0  0  0  0  0  0  0  0  0  0  0  0
   27.5969  -19.3669  -16.9928 C   0  0  0  0  0  0  0  0  0  0  0  0
   28.3049  -20.2623  -17.9525 C   0  0  0  0  0  0  0  0  0  0  0  0
   29.3785  -19.3908  -18.6232 C   0  0  0  0  0  0  0  0  0  0  0  0
   30.1827  -20.2311  -19.4673 N   0  0  0  0  0  0  0  0  0  0  0  0
   25.7829  -21.3129  -14.3525 C   0  0  0  0  0  0  0  0  0  0  0  0
   25.1336  -22.2811  -14.8072 O   0  0  0  0  0  0  0  0  0  0  0  0
   26.0554  -22.1433  -10.8148 N   0  0  0  0  0  0  0  0  0  0  0  0
   25.3865  -21.0208  -10.2581 C   0  0  0  0  0  0  0  0  0  0  0  0
   25.6672  -20.5751   -9.1121 O   0  0  0  0  0  0  0  0  0  0  0  0
   24.3384  -20.4033  -11.1018 C   0  0  0  0  0  0  0  0  0  0  0  0
   24.1517  -21.0432  -12.4207 C   0  0  2  0  0  0  0  0  0  0  0  0
   25.3270  -20.6401  -13.2261 N   0  0  0  0  0  0  0  0  0  0  0  0
   22.9214  -20.7971  -13.1509 C   0  0  0  0  0  0  0  0  0  0  0  0
   22.7601  -19.6254  -13.6518 O   0  0  0  0  0  0  0  0  0  0  0  0
   19.4793  -24.3869  -16.8057 N   0  0  0  0  0  0  0  0  0  0  0  0
   18.8229  -23.1387  -16.9503 C   0  0  0  0  0  0  0  0  0  0  0  0
   17.9405  -23.0075  -17.8109 O   0  0  0  0  0  0  0  0  0  0  0  0
   19.2478  -22.0336  -16.0333 C   0  0  0  0  0  0  0  0  0  0  0  0
   20.3462  -22.4540  -15.0991 C   0  0  0  0  0  0  0  0  0  0  0  0
   20.6951  -21.3160  -14.1894 C   0  0  2  0  0  0  0  0  0  0  0  0
   21.8595  -21.6986  -13.3864 N   0  0  0  0  0  0  0  0  0  0  0  0
   19.5510  -20.9643  -13.2966 C   0  0  0  0  0  0  0  0  0  0  0  0
   18.6671  -20.1601  -13.6516 O   0  0  0  0  0  0  0  0  0  0  0  0
   19.4817  -21.5475  -12.0541 O   0  0  0  0  0  0  0  0  0  0  0  0
  2  1  1  6
  2  8  1  0
  3  2  1  0
  4  3  1  0
  4  5  1  0
  5  6  1  0
  7  6  1  0
  8  9  2  0
  8 15  1  0
 10 11  1  0
 11 12  2  0
 13 11  1  0
 14 13  1  1
 14 16  1  0
 15 14  1  0
 16 17  2  0
 19 21  1  0
 19 18  1  0
 20 19  2  0
 22 21  1  0
 23 22  1  6
 24 16  1  0
 24 23  1  0
 25 23  1  0
 25 27  1  0
 26 25  2  0
M  END
$$$$
