KNQ.pdb
     RDKit          3D

 27 26  0  0  1  0  0  0  0  0999 V2000
   28.6654  -22.3082  -16.1304 N   0  0  0  0  0  0  0  0  0  0  0  0
   28.1684  -21.0546  -15.6475 C   0  0  1  0  0  0  0  0  0  0  0  0
   27.5587  -20.2239  -16.7759 C   0  0  0  0  0  0  0  0  0  0  0  0
   28.5503  -19.5460  -17.6441 C   0  0  0  0  0  0  0  0  0  0  0  0
   28.6432  -20.0181  -19.0557 C   0  0  0  0  0  0  0  0  0  0  0  0
   27.2341  -19.8509  -19.6461 C   0  0  0  0  0  0  0  0  0  0  0  0
   27.2638  -20.2764  -21.0185 N   0  0  0  0  0  0  0  0  0  0  0  0
   26.9806  -21.2773  -14.7359 C   0  0  0  0  0  0  0  0  0  0  0  0
   26.2257  -22.2264  -15.0438 O   0  0  0  0  0  0  0  0  0  0  0  0
   25.1268  -21.9855  -10.2909 N   0  0  0  0  0  0  0  0  0  0  0  0
   25.7099  -20.6941  -10.1921 C   0  0  0  0  0  0  0  0  0  0  0  0
   26.0458  -20.1946   -9.0838 O   0  0  0  0  0  0  0  0  0  0  0  0
   25.9004  -19.9667  -11.4673 C   0  0  0  0  0  0  0  0  0  0  0  0
   25.5822  -20.7512  -12.6785 C   0  0  2  0  0  0  0  0  0  0  0  0
   26.7028  -20.5060  -13.6147 N   0  0  0  0  0  0  0  0  0  0  0  0
   24.3070  -20.5354  -13.3379 C   0  0  0  0  0  0  0  0  0  0  0  0
   24.1344  -19.4078  -13.9280 O   0  0  0  0  0  0  0  0  0  0  0  0
   20.6008  -24.1362  -16.6358 N   0  0  0  0  0  0  0  0  0  0  0  0
   19.8143  -22.9574  -16.5941 C   0  0  0  0  0  0  0  0  0  0  0  0
   18.7787  -22.8886  -17.2719 O   0  0  0  0  0  0  0  0  0  0  0  0
   20.2964  -21.8459  -15.7141 C   0  0  0  0  0  0  0  0  0  0  0  0
   21.5916  -22.1770  -15.0295 C   0  0  0  0  0  0  0  0  0  0  0  0
   21.9762  -21.0563  -14.1127 C   0  0  2  0  0  0  0  0  0  0  0  0
   23.2117  -21.4242  -13.4162 N   0  0  0  0  0  0  0  0  0  0  0  0
   20.8960  -20.7701  -13.1223 C   0  0  0  0  0  0  0  0  0  0  0  0
   20.9336  -21.2265  -11.9628 O   0  0  0  0  0  0  0  0  0  0  0  0
   19.8382  -19.9832  -13.5104 O   0  0  0  0  0  0  0  0  0  0  0  0
  2  1  1  6
  2  8  1  0
  3  2  1  0
  4  3  1  0
  4  5  1  0
  5  6  1  0
  7  6  1  0
  8  9  2  0
  8 15  1  0
 10 11  1  0
 11 12  2  0
 13 11  1  0
 14 13  1  1
 14 16  1  0
 15 14  1  0
 16 17  2  0
 19 21  1  0
 19 18  1  0
 20 19  2  0
 22 21  1  0
 23 22  1  6
 24 16  1  0
 24 23  1  0
 25 23  1  0
 25 27  1  0
 26 25  2  0
M  END
$$$$
