KNQ.pdb
     RDKit          3D

 27 26  0  0  1  0  0  0  0  0999 V2000
   15.4516  -19.1972    2.5950 N   0  0  0  0  0  0  0  0  0  0  0  0
   15.8297  -19.0895    3.9724 C   0  0  1  0  0  0  0  0  0  0  0  0
   17.0367  -19.9712    4.2904 C   0  0  0  0  0  0  0  0  0  0  0  0
   16.8005  -21.4233    4.1116 C   0  0  0  0  0  0  0  0  0  0  0  0
   17.9349  -22.3349    4.4374 C   0  0  0  0  0  0  0  0  0  0  0  0
   17.4503  -23.7492    4.0812 C   0  0  0  0  0  0  0  0  0  0  0  0
   18.5124  -24.6763    4.3602 N   0  0  0  0  0  0  0  0  0  0  0  0
   16.3607  -17.7023    4.2637 C   0  0  0  0  0  0  0  0  0  0  0  0
   16.6110  -16.9918    3.2646 O   0  0  0  0  0  0  0  0  0  0  0  0
   13.9012  -14.2772    8.1723 N   0  0  0  0  0  0  0  0  0  0  0  0
   14.6310  -14.3514    6.9561 C   0  0  0  0  0  0  0  0  0  0  0  0
   14.9146  -13.3237    6.2821 O   0  0  0  0  0  0  0  0  0  0  0  0
   15.0399  -15.7070    6.5239 C   0  0  0  0  0  0  0  0  0  0  0  0
   16.3921  -15.7844    5.9328 C   0  0  2  0  0  0  0  0  0  0  0  0
   16.5726  -17.2010    5.5416 N   0  0  0  0  0  0  0  0  0  0  0  0
   17.5251  -15.3197    6.7124 C   0  0  0  0  0  0  0  0  0  0  0  0
   17.9719  -16.1054    7.6250 O   0  0  0  0  0  0  0  0  0  0  0  0
   21.6440  -10.5635    6.0211 N   0  0  0  0  0  0  0  0  0  0  0  0
   22.1150  -11.2011    7.1964 C   0  0  0  0  0  0  0  0  0  0  0  0
   23.1906  -10.8427    7.6978 O   0  0  0  0  0  0  0  0  0  0  0  0
   21.2637  -12.2917    7.7694 C   0  0  0  0  0  0  0  0  0  0  0  0
   20.0525  -12.5759    6.9279 C   0  0  0  0  0  0  0  0  0  0  0  0
   19.2925  -13.7264    7.5136 C   0  0  2  0  0  0  0  0  0  0  0  0
   18.2128  -14.0915    6.5927 N   0  0  0  0  0  0  0  0  0  0  0  0
   18.7282  -13.3792    8.8518 C   0  0  0  0  0  0  0  0  0  0  0  0
   17.5509  -12.9918    8.9851 O   0  0  0  0  0  0  0  0  0  0  0  0
   19.5371  -13.4929    9.9571 O   0  0  0  0  0  0  0  0  0  0  0  0
  2  1  1  6
  2  8  1  0
  3  2  1  0
  4  3  1  0
  4  5  1  0
  5  6  1  0
  7  6  1  0
  8  9  2  0
  8 15  1  0
 10 11  1  0
 11 12  2  0
 13 11  1  0
 14 13  1  1
 14 16  1  0
 15 14  1  0
 16 17  2  0
 19 21  1  0
 19 18  1  0
 20 19  2  0
 22 21  1  0
 23 22  1  6
 24 16  1  0
 24 23  1  0
 25 23  1  0
 25 27  1  0
 26 25  2  0
M  END
$$$$
