MGE.pdb
     RDKit          3D

 22 21  0  0  1  0  0  0  0  0999 V2000
    6.4078  -10.6017   26.8332 C   0  0  0  0  0  0  0  0  0  0  0  0
    6.1666  -12.3295   27.1698 S   0  0  0  0  0  0  0  0  0  0  0  0
    5.8789  -13.3740   25.7723 C   0  0  0  0  0  0  0  0  0  0  0  0
    6.9573  -13.6296   24.8071 C   0  0  0  0  0  0  0  0  0  0  0  0
    7.2006  -15.0570   24.4929 C   0  0  2  0  0  0  0  0  0  0  0  0
    7.2458  -15.7981   25.7503 N   0  0  0  0  0  0  0  0  0  0  0  0
    8.5443  -15.2289   23.8072 C   0  0  0  0  0  0  0  0  0  0  0  0
    9.5573  -15.0529   24.4880 O   0  0  0  0  0  0  0  0  0  0  0  0
    8.6354  -15.5782   22.4336 N   0  0  0  0  0  0  0  0  0  0  0  0
    9.9166  -15.6659   21.7419 C   0  0  0  0  0  0  0  0  0  0  0  0
   10.7911  -16.6826   22.4029 C   0  0  0  0  0  0  0  0  0  0  0  0
   11.9375  -16.9109   21.9412 O   0  0  0  0  0  0  0  0  0  0  0  0
   10.3870  -17.4157   23.5425 N   0  0  0  0  0  0  0  0  0  0  0  0
   11.3611  -18.2233   24.2448 C   0  0  1  0  0  0  0  0  0  0  0  0
   11.1628  -18.2277   25.7204 C   0  0  0  0  0  0  0  0  0  0  0  0
   12.0347  -19.1409   26.5051 C   0  0  0  0  0  0  0  0  0  0  0  0
   11.7274  -19.1224   27.9517 C   0  0  0  0  0  0  0  0  0  0  0  0
   10.8066  -18.3654   28.3526 O   0  0  0  0  0  0  0  0  0  0  0  0
   11.3847  -19.5618   23.6103 C   0  0  0  0  0  0  0  0  0  0  0  0
   12.5543  -20.3068   23.5173 O   0  0  0  0  0  0  0  0  0  0  0  0
   12.3881  -19.8868   28.9015 O   0  0  0  0  0  0  0  0  0  0  0  0
   10.3395  -20.0994   23.1191 O   0  0  0  0  0  0  0  0  0  0  0  0
  2  3  1  0
  2  1  1  0
  3  4  1  0
  4  5  1  0
  5  7  1  0
  5  6  1  1
  7  8  2  0
  9  7  1  0
  9 10  1  0
 10 11  1  0
 11 12  2  0
 11 13  1  0
 13 14  1  0
 14 19  1  0
 14 15  1  1
 15 16  1  0
 17 16  1  0
 18 17  2  0
 19 20  1  0
 21 17  1  0
 22 19  2  0
M  END
$$$$
