MGE.pdb
     RDKit          3D

 22 21  0  0  1  0  0  0  0  0999 V2000
    7.4849  -11.2561   26.7122 C   0  0  0  0  0  0  0  0  0  0  0  0
    6.1746  -12.3970   27.0844 S   0  0  0  0  0  0  0  0  0  0  0  0
    5.9982  -13.7797   25.9965 C   0  0  0  0  0  0  0  0  0  0  0  0
    7.1851  -14.3953   25.3865 C   0  0  0  0  0  0  0  0  0  0  0  0
    6.9126  -15.5412   24.4875 C   0  0  2  0  0  0  0  0  0  0  0  0
    6.3398  -16.6204   25.2871 N   0  0  0  0  0  0  0  0  0  0  0  0
    8.2034  -16.0553   23.8752 C   0  0  0  0  0  0  0  0  0  0  0  0
    8.8416  -16.8948   24.5143 O   0  0  0  0  0  0  0  0  0  0  0  0
    8.6624  -15.5888   22.6148 N   0  0  0  0  0  0  0  0  0  0  0  0
    9.8334  -16.1602   21.9590 C   0  0  0  0  0  0  0  0  0  0  0  0
   11.0066  -16.1354   22.8853 C   0  0  0  0  0  0  0  0  0  0  0  0
   11.8439  -15.2017   22.8033 O   0  0  0  0  0  0  0  0  0  0  0  0
   11.2280  -17.1280   23.8678 N   0  0  0  0  0  0  0  0  0  0  0  0
   12.4609  -17.1095   24.6253 C   0  0  1  0  0  0  0  0  0  0  0  0
   12.4266  -17.9965   25.8206 C   0  0  0  0  0  0  0  0  0  0  0  0
   11.3815  -17.7027   26.8361 C   0  0  0  0  0  0  0  0  0  0  0  0
   11.4008  -18.6539   27.9685 C   0  0  0  0  0  0  0  0  0  0  0  0
   12.4482  -19.3218   28.1640 O   0  0  0  0  0  0  0  0  0  0  0  0
   13.5766  -17.3657   23.6849 C   0  0  0  0  0  0  0  0  0  0  0  0
   14.7773  -16.6708   23.7676 O   0  0  0  0  0  0  0  0  0  0  0  0
   10.3375  -18.8606   28.8344 O   0  0  0  0  0  0  0  0  0  0  0  0
   13.4960  -18.2328   22.7552 O   0  0  0  0  0  0  0  0  0  0  0  0
  2  3  1  0
  2  1  1  0
  3  4  1  0
  4  5  1  0
  5  7  1  0
  5  6  1  1
  7  8  2  0
  9  7  1  0
  9 10  1  0
 10 11  1  0
 11 12  2  0
 11 13  1  0
 13 14  1  0
 14 19  1  0
 14 15  1  1
 15 16  1  0
 17 16  1  0
 18 17  2  0
 19 20  1  0
 21 17  1  0
 22 19  2  0
M  END
$$$$
