MGE.pdb
     RDKit          3D

 22 21  0  0  1  0  0  0  0  0999 V2000
    5.3591  -11.2551   27.3268 C   0  0  0  0  0  0  0  0  0  0  0  0
    6.7272  -12.0472   26.5156 S   0  0  0  0  0  0  0  0  0  0  0  0
    6.3618  -13.5184   25.6052 C   0  0  0  0  0  0  0  0  0  0  0  0
    7.4107  -14.1764   24.8136 C   0  0  0  0  0  0  0  0  0  0  0  0
    6.9763  -15.3757   24.0598 C   0  0  2  0  0  0  0  0  0  0  0  0
    6.6371  -16.4199   25.0225 N   0  0  0  0  0  0  0  0  0  0  0  0
    8.1082  -15.8975   23.1926 C   0  0  0  0  0  0  0  0  0  0  0  0
    8.6019  -16.9861   23.4956 O   0  0  0  0  0  0  0  0  0  0  0  0
    8.5840  -15.1622   22.0746 N   0  0  0  0  0  0  0  0  0  0  0  0
    9.5771  -15.7083   21.1564 C   0  0  0  0  0  0  0  0  0  0  0  0
   10.8579  -15.9738   21.8803 C   0  0  0  0  0  0  0  0  0  0  0  0
   11.9378  -16.0149   21.2386 O   0  0  0  0  0  0  0  0  0  0  0  0
   10.9186  -16.1859   23.2770 N   0  0  0  0  0  0  0  0  0  0  0  0
   12.2077  -16.3733   23.9076 C   0  0  1  0  0  0  0  0  0  0  0  0
   12.1157  -16.5664   25.3810 C   0  0  0  0  0  0  0  0  0  0  0  0
   11.5817  -17.8729   25.8477 C   0  0  0  0  0  0  0  0  0  0  0  0
   11.6137  -18.0110   27.3198 C   0  0  0  0  0  0  0  0  0  0  0  0
   12.1372  -17.0852   27.9909 O   0  0  0  0  0  0  0  0  0  0  0  0
   12.9200  -17.4471   23.1767 C   0  0  0  0  0  0  0  0  0  0  0  0
   12.2409  -18.3768   22.3982 O   0  0  0  0  0  0  0  0  0  0  0  0
   11.1030  -19.0970   28.0148 O   0  0  0  0  0  0  0  0  0  0  0  0
   14.1866  -17.5749   23.2216 O   0  0  0  0  0  0  0  0  0  0  0  0
  2  3  1  0
  2  1  1  0
  3  4  1  0
  4  5  1  0
  5  7  1  0
  5  6  1  1
  7  8  2  0
  9  7  1  0
  9 10  1  0
 10 11  1  0
 11 12  2  0
 11 13  1  0
 13 14  1  0
 14 19  1  0
 14 15  1  1
 15 16  1  0
 17 16  1  0
 18 17  2  0
 19 20  1  0
 21 17  1  0
 22 19  2  0
M  END
$$$$
