MGE.pdb
     RDKit          3D

 22 21  0  0  1  0  0  0  0  0999 V2000
    4.6646  -11.3491   26.7266 C   0  0  0  0  0  0  0  0  0  0  0  0
    6.0663  -12.4086   26.9911 S   0  0  0  0  0  0  0  0  0  0  0  0
    7.5325  -12.0209   26.0820 C   0  0  0  0  0  0  0  0  0  0  0  0
    8.2173  -13.0640   25.3056 C   0  0  0  0  0  0  0  0  0  0  0  0
    7.3270  -14.0144   24.5990 C   0  0  2  0  0  0  0  0  0  0  0  0
    6.6325  -14.8180   25.6010 N   0  0  0  0  0  0  0  0  0  0  0  0
    8.1395  -14.9594   23.7315 C   0  0  0  0  0  0  0  0  0  0  0  0
    8.6359  -14.5004   22.7003 O   0  0  0  0  0  0  0  0  0  0  0  0
    8.3224  -16.3213   24.0903 N   0  0  0  0  0  0  0  0  0  0  0  0
    9.1509  -17.2242   23.2992 C   0  0  0  0  0  0  0  0  0  0  0  0
   10.5921  -17.0467   23.6550 C   0  0  0  0  0  0  0  0  0  0  0  0
   11.0119  -15.9140   24.0018 O   0  0  0  0  0  0  0  0  0  0  0  0
   11.5260  -18.1078   23.6201 N   0  0  0  0  0  0  0  0  0  0  0  0
   12.8813  -17.8710   24.0692 C   0  0  1  0  0  0  0  0  0  0  0  0
   13.5126  -19.0718   24.6824 C   0  0  0  0  0  0  0  0  0  0  0  0
   12.6766  -19.8485   25.6353 C   0  0  0  0  0  0  0  0  0  0  0  0
   13.3558  -20.0902   26.9266 C   0  0  0  0  0  0  0  0  0  0  0  0
   14.5604  -19.7461   27.0365 O   0  0  0  0  0  0  0  0  0  0  0  0
   13.6351  -17.2707   22.9439 C   0  0  0  0  0  0  0  0  0  0  0  0
   14.7020  -16.4059   23.1569 O   0  0  0  0  0  0  0  0  0  0  0  0
   12.7522  -20.6730   28.0307 O   0  0  0  0  0  0  0  0  0  0  0  0
   13.3478  -17.5143   21.7270 O   0  0  0  0  0  0  0  0  0  0  0  0
  2  3  1  0
  2  1  1  0
  3  4  1  0
  4  5  1  0
  5  7  1  0
  5  6  1  1
  7  8  2  0
  9  7  1  0
  9 10  1  0
 10 11  1  0
 11 12  2  0
 11 13  1  0
 13 14  1  0
 14 19  1  0
 14 15  1  6
 15 16  1  0
 17 16  1  0
 18 17  2  0
 19 20  1  0
 21 17  1  0
 22 19  2  0
M  END
$$$$
