MGE.pdb
     RDKit          3D

 22 21  0  0  1  0  0  0  0  0999 V2000
    7.3080  -11.7911   27.2637 C   0  0  0  0  0  0  0  0  0  0  0  0
    5.9521  -11.9822   26.1313 S   0  0  0  0  0  0  0  0  0  0  0  0
    6.2522  -12.9758   24.6998 C   0  0  0  0  0  0  0  0  0  0  0  0
    7.6217  -13.3872   24.3605 C   0  0  0  0  0  0  0  0  0  0  0  0
    7.7569  -14.1641   23.1062 C   0  0  2  0  0  0  0  0  0  0  0  0
    6.4168  -14.4900   22.6264 N   0  0  0  0  0  0  0  0  0  0  0  0
    8.4846  -15.4712   23.3662 C   0  0  0  0  0  0  0  0  0  0  0  0
    8.3798  -15.9670   24.4903 O   0  0  0  0  0  0  0  0  0  0  0  0
    9.2585  -16.1015   22.3559 N   0  0  0  0  0  0  0  0  0  0  0  0
   10.6770  -15.8133   22.1763 C   0  0  0  0  0  0  0  0  0  0  0  0
   11.4712  -16.4183   23.2892 C   0  0  0  0  0  0  0  0  0  0  0  0
   12.7211  -16.2879   23.3034 O   0  0  0  0  0  0  0  0  0  0  0  0
   10.8773  -17.1447   24.3471 N   0  0  0  0  0  0  0  0  0  0  0  0
   11.7257  -17.7573   25.3468 C   0  0  1  0  0  0  0  0  0  0  0  0
   11.4740  -17.2445   26.7216 C   0  0  0  0  0  0  0  0  0  0  0  0
   11.0475  -15.8247   26.8334 C   0  0  0  0  0  0  0  0  0  0  0  0
   10.7532  -15.4239   28.2262 C   0  0  0  0  0  0  0  0  0  0  0  0
   10.9201  -16.2757   29.1362 O   0  0  0  0  0  0  0  0  0  0  0  0
   11.6187  -19.2272   25.1954 C   0  0  0  0  0  0  0  0  0  0  0  0
   12.4559  -20.0964   25.8847 O   0  0  0  0  0  0  0  0  0  0  0  0
   10.3038  -14.1663   28.5997 O   0  0  0  0  0  0  0  0  0  0  0  0
   10.7576  -19.7704   24.4299 O   0  0  0  0  0  0  0  0  0  0  0  0
  2  3  1  0
  2  1  1  0
  3  4  1  0
  4  5  1  0
  5  7  1  0
  5  6  1  1
  7  8  2  0
  9  7  1  0
  9 10  1  0
 10 11  1  0
 11 12  2  0
 11 13  1  0
 13 14  1  0
 14 19  1  0
 14 15  1  1
 15 16  1  0
 17 16  1  0
 18 17  2  0
 19 20  1  0
 21 17  1  0
 22 19  2  0
M  END
$$$$
