MGE.pdb
     RDKit          3D

 22 21  0  0  1  0  0  0  0  0999 V2000
    7.8272  -11.0665   26.1694 C   0  0  0  0  0  0  0  0  0  0  0  0
    6.4729  -12.0438   26.7759 S   0  0  0  0  0  0  0  0  0  0  0  0
    6.1267  -13.5421   25.9031 C   0  0  0  0  0  0  0  0  0  0  0  0
    7.2026  -14.2490   25.1942 C   0  0  0  0  0  0  0  0  0  0  0  0
    6.7750  -15.4348   24.4154 C   0  0  2  0  0  0  0  0  0  0  0  0
    6.1851  -16.3982   25.3407 N   0  0  0  0  0  0  0  0  0  0  0  0
    7.9719  -16.0992   23.7584 C   0  0  0  0  0  0  0  0  0  0  0  0
    8.5505  -16.9844   24.3925 O   0  0  0  0  0  0  0  0  0  0  0  0
    8.4120  -15.7177   22.4631 N   0  0  0  0  0  0  0  0  0  0  0  0
    9.5044  -16.4059   21.7843 C   0  0  0  0  0  0  0  0  0  0  0  0
   10.7414  -16.3626   22.6228 C   0  0  0  0  0  0  0  0  0  0  0  0
   11.6016  -15.4698   22.4162 O   0  0  0  0  0  0  0  0  0  0  0  0
   10.9993  -17.2927   23.6562 N   0  0  0  0  0  0  0  0  0  0  0  0
   12.1262  -17.0746   24.5377 C   0  0  1  0  0  0  0  0  0  0  0  0
   11.8254  -17.3911   25.9611 C   0  0  0  0  0  0  0  0  0  0  0  0
   11.3041  -18.7545   26.2427 C   0  0  0  0  0  0  0  0  0  0  0  0
   11.2062  -19.0418   27.6902 C   0  0  0  0  0  0  0  0  0  0  0  0
   11.6451  -18.1820   28.4963 O   0  0  0  0  0  0  0  0  0  0  0  0
   13.2935  -17.7879   23.9689 C   0  0  0  0  0  0  0  0  0  0  0  0
   14.5845  -17.5642   24.4324 O   0  0  0  0  0  0  0  0  0  0  0  0
   10.6604  -20.2001   28.2225 O   0  0  0  0  0  0  0  0  0  0  0  0
   13.1770  -18.6407   23.0298 O   0  0  0  0  0  0  0  0  0  0  0  0
  2  3  1  0
  2  1  1  0
  3  4  1  0
  4  5  1  0
  5  7  1  0
  5  6  1  1
  7  8  2  0
  9  7  1  0
  9 10  1  0
 10 11  1  0
 11 12  2  0
 11 13  1  0
 13 14  1  0
 14 19  1  0
 14 15  1  1
 15 16  1  0
 17 16  1  0
 18 17  2  0
 19 20  1  0
 21 17  1  0
 22 19  2  0
M  END
$$$$
