MGE.pdb
     RDKit          3D

 22 21  0  0  1  0  0  0  0  0999 V2000
    7.7316  -10.9456   20.0300 C   0  0  0  0  0  0  0  0  0  0  0  0
    8.2140  -12.6235   20.3600 S   0  0  0  0  0  0  0  0  0  0  0  0
    7.5548  -13.8615   19.2831 C   0  0  0  0  0  0  0  0  0  0  0  0
    7.8202  -13.8010   17.8389 C   0  0  0  0  0  0  0  0  0  0  0  0
    8.9125  -14.6795   17.3587 C   0  0  2  0  0  0  0  0  0  0  0  0
    8.7371  -14.8799   15.9230 N   0  0  0  0  0  0  0  0  0  0  0  0
    8.8333  -16.0403   18.0278 C   0  0  0  0  0  0  0  0  0  0  0  0
    7.9892  -16.8338   17.6055 O   0  0  0  0  0  0  0  0  0  0  0  0
    9.6963  -16.3895   19.1003 N   0  0  0  0  0  0  0  0  0  0  0  0
    9.6978  -17.7246   19.6877 C   0  0  0  0  0  0  0  0  0  0  0  0
   10.6790  -17.7915   20.8137 C   0  0  0  0  0  0  0  0  0  0  0  0
   10.8107  -18.8608   21.4608 O   0  0  0  0  0  0  0  0  0  0  0  0
   11.4818  -16.6922   21.1965 N   0  0  0  0  0  0  0  0  0  0  0  0
   12.5124  -16.8838   22.1943 C   0  0  1  0  0  0  0  0  0  0  0  0
   13.8191  -16.2838   21.8084 C   0  0  0  0  0  0  0  0  0  0  0  0
   13.7761  -15.1849   20.8081 C   0  0  0  0  0  0  0  0  0  0  0  0
   15.1104  -14.6096   20.5326 C   0  0  0  0  0  0  0  0  0  0  0  0
   15.9023  -14.4598   21.4980 O   0  0  0  0  0  0  0  0  0  0  0  0
   11.9736  -16.4303   23.4977 C   0  0  0  0  0  0  0  0  0  0  0  0
   12.7053  -16.5498   24.6733 O   0  0  0  0  0  0  0  0  0  0  0  0
   15.5509  -14.2222   19.2760 O   0  0  0  0  0  0  0  0  0  0  0  0
   10.8170  -15.9084   23.6103 O   0  0  0  0  0  0  0  0  0  0  0  0
  2  3  1  0
  2  1  1  0
  3  4  1  0
  4  5  1  0
  5  7  1  0
  5  6  1  6
  7  8  2  0
  9  7  1  0
  9 10  1  0
 10 11  1  0
 11 12  2  0
 11 13  1  0
 13 14  1  0
 14 19  1  0
 14 15  1  6
 15 16  1  0
 17 16  1  0
 18 17  2  0
 19 20  1  0
 21 17  1  0
 22 19  2  0
M  END
$$$$
