MGE.pdb
     RDKit          3D

 22 21  0  0  1  0  0  0  0  0999 V2000
    6.5047  -11.1739   28.0999 C   0  0  0  0  0  0  0  0  0  0  0  0
    7.1007  -12.0515   26.6745 S   0  0  0  0  0  0  0  0  0  0  0  0
    5.9111  -13.0058   25.7797 C   0  0  0  0  0  0  0  0  0  0  0  0
    6.3031  -13.7100   24.5508 C   0  0  0  0  0  0  0  0  0  0  0  0
    7.4794  -14.6017   24.6799 C   0  0  2  0  0  0  0  0  0  0  0  0
    8.6167  -13.7945   25.1124 N   0  0  0  0  0  0  0  0  0  0  0  0
    7.8323  -15.2141   23.3360 C   0  0  0  0  0  0  0  0  0  0  0  0
    7.0614  -16.0593   22.8758 O   0  0  0  0  0  0  0  0  0  0  0  0
    9.0054  -14.8313   22.6330 N   0  0  0  0  0  0  0  0  0  0  0  0
    9.4881  -15.5731   21.4735 C   0  0  0  0  0  0  0  0  0  0  0  0
   10.3742  -16.6948   21.9113 C   0  0  0  0  0  0  0  0  0  0  0  0
   10.3943  -17.7648   21.2522 O   0  0  0  0  0  0  0  0  0  0  0  0
   11.2069  -16.6132   23.0512 N   0  0  0  0  0  0  0  0  0  0  0  0
   12.0327  -17.7476   23.4054 C   0  0  1  0  0  0  0  0  0  0  0  0
   13.4731  -17.5444   23.0886 C   0  0  0  0  0  0  0  0  0  0  0  0
   14.0155  -16.1779   23.3088 C   0  0  0  0  0  0  0  0  0  0  0  0
   15.4570  -16.0769   22.9942 C   0  0  0  0  0  0  0  0  0  0  0  0
   16.2589  -15.8826   23.9433 O   0  0  0  0  0  0  0  0  0  0  0  0
   11.7432  -18.0985   24.8153 C   0  0  0  0  0  0  0  0  0  0  0  0
   12.3415  -19.1889   25.4355 O   0  0  0  0  0  0  0  0  0  0  0  0
   15.9882  -16.1829   21.7176 O   0  0  0  0  0  0  0  0  0  0  0  0
   10.9350  -17.4227   25.5315 O   0  0  0  0  0  0  0  0  0  0  0  0
  2  3  1  0
  2  1  1  0
  3  4  1  0
  4  5  1  0
  5  7  1  0
  5  6  1  6
  7  8  2  0
  9  7  1  0
  9 10  1  0
 10 11  1  0
 11 12  2  0
 11 13  1  0
 13 14  1  0
 14 19  1  0
 14 15  1  1
 15 16  1  0
 17 16  1  0
 18 17  2  0
 19 20  1  0
 21 17  1  0
 22 19  2  0
M  END
$$$$
