MGE.pdb
     RDKit          3D

 22 21  0  0  1  0  0  0  0  0999 V2000
    7.9209  -11.7019   20.7333 C   0  0  0  0  0  0  0  0  0  0  0  0
    6.8877  -13.1474   20.7429 S   0  0  0  0  0  0  0  0  0  0  0  0
    7.4947  -14.5582   19.8665 C   0  0  0  0  0  0  0  0  0  0  0  0
    8.8782  -15.0121   20.0658 C   0  0  0  0  0  0  0  0  0  0  0  0
    9.2492  -16.2494   19.3399 C   0  0  2  0  0  0  0  0  0  0  0  0
    8.3712  -17.3240   19.7945 N   0  0  0  0  0  0  0  0  0  0  0  0
   10.6767  -16.6500   19.6673 C   0  0  0  0  0  0  0  0  0  0  0  0
   10.8511  -17.3950   20.6342 O   0  0  0  0  0  0  0  0  0  0  0  0
   11.7724  -16.1857   18.8922 N   0  0  0  0  0  0  0  0  0  0  0  0
   13.1412  -16.6170   19.1528 C   0  0  0  0  0  0  0  0  0  0  0  0
   13.6568  -15.9718   20.3990 C   0  0  0  0  0  0  0  0  0  0  0  0
   13.7097  -14.7184   20.4740 O   0  0  0  0  0  0  0  0  0  0  0  0
   14.0975  -16.7133   21.5195 N   0  0  0  0  0  0  0  0  0  0  0  0
   14.5608  -16.0081   22.6953 C   0  0  1  0  0  0  0  0  0  0  0  0
   14.0142  -16.5634   23.9639 C   0  0  0  0  0  0  0  0  0  0  0  0
   12.5349  -16.5531   24.1106 C   0  0  0  0  0  0  0  0  0  0  0  0
   12.0810  -17.1736   25.3741 C   0  0  0  0  0  0  0  0  0  0  0  0
   12.6538  -18.2257   25.7571 O   0  0  0  0  0  0  0  0  0  0  0  0
   16.0389  -15.9332   22.6279 C   0  0  0  0  0  0  0  0  0  0  0  0
   16.7628  -16.6195   21.6602 O   0  0  0  0  0  0  0  0  0  0  0  0
   11.0621  -16.6721   26.1699 O   0  0  0  0  0  0  0  0  0  0  0  0
   16.7220  -15.2387   23.4487 O   0  0  0  0  0  0  0  0  0  0  0  0
  2  3  1  0
  2  1  1  0
  3  4  1  0
  4  5  1  0
  5  7  1  0
  5  6  1  1
  7  8  2  0
  9  7  1  0
  9 10  1  0
 10 11  1  0
 11 12  2  0
 11 13  1  0
 13 14  1  0
 14 19  1  0
 14 15  1  1
 15 16  1  0
 17 16  1  0
 18 17  2  0
 19 20  1  0
 21 17  1  0
 22 19  2  0
M  END
$$$$
