QIY.pdb
     RDKit          3D

 30 30  0  0  1  0  0  0  0  0999 V2000
   28.8739  -22.2865  -20.3321 N   0  0  0  0  0  0  0  0  0  0  0  0
   28.8132  -23.7182  -20.4822 C   0  0  0  0  0  0  0  0  0  0  0  0
   29.3021  -24.2399  -21.5116 O   0  0  0  0  0  0  0  0  0  0  0  0
   28.1977  -24.5709  -19.4596 C   0  0  0  0  0  0  0  0  0  0  0  0
   27.6952  -23.8965  -18.2417 C   0  0  0  0  0  0  0  0  0  0  0  0
   28.6916  -23.2147  -17.3744 C   0  0  2  0  0  0  0  0  0  0  0  0
   29.6473  -24.0582  -16.7150 N   0  0  0  0  0  0  0  0  0  0  0  0
   28.0206  -22.3230  -16.3594 C   0  0  0  0  0  0  0  0  0  0  0  0
   27.9285  -22.7358  -15.1785 O   0  0  0  0  0  0  0  0  0  0  0  0
   28.9965  -17.3701  -17.1661 C   0  0  0  0  0  0  0  0  0  0  0  0
   28.6744  -18.4153  -16.1192 C   0  0  0  0  0  0  0  0  0  0  0  0
   27.1931  -18.7175  -16.0863 C   0  0  2  0  0  0  0  0  0  0  0  0
   26.4716  -17.7856  -15.1366 C   0  0  0  0  0  0  0  0  0  0  0  0
   26.8997  -20.1594  -15.8304 C   0  0  2  0  0  0  0  0  0  0  0  0
   27.5164  -21.0553  -16.7599 N   0  0  0  0  0  0  0  0  0  0  0  0
   25.4391  -20.3468  -15.7272 C   0  0  0  0  0  0  0  0  0  0  0  0
   24.7294  -20.0467  -16.7186 O   0  0  0  0  0  0  0  0  0  0  0  0
   17.2925  -20.8296  -12.3029 O   0  0  0  0  0  0  0  0  0  0  0  0
   18.6696  -20.7602  -12.4612 C   0  0  0  0  0  0  0  0  0  0  0  0
   19.3315  -19.5532  -12.4137 C   0  0  0  0  0  0  0  0  0  0  0  0
   20.7205  -19.5042  -12.5756 C   0  0  0  0  0  0  0  0  0  0  0  0
   21.4797  -20.6284  -12.7851 C   0  0  0  0  0  0  0  0  0  0  0  0
   22.9547  -20.6270  -12.9583 C   0  0  0  0  0  0  0  0  0  0  0  0
   23.3429  -20.7977  -14.4117 C   0  0  2  0  0  0  0  0  0  0  0  0
   24.7838  -20.8471  -14.5730 N   0  0  0  0  0  0  0  0  0  0  0  0
   22.8279  -19.6361  -15.1671 C   0  0  0  0  0  0  0  0  0  0  0  0
   21.7941  -19.7489  -16.0965 O   0  0  0  0  0  0  0  0  0  0  0  0
   20.7909  -21.8477  -12.8308 C   0  0  0  0  0  0  0  0  0  0  0  0
   19.4243  -21.8935  -12.6713 C   0  0  0  0  0  0  0  0  0  0  0  0
   23.3063  -18.4968  -14.9993 O   0  0  0  0  0  0  0  0  0  0  0  0
  2  4  1  0
  2  1  1  0
  3  2  2  0
  5  6  1  0
  5  4  1  0
  6  7  1  1
  8  6  1  0
  8  9  2  0
 11 10  1  0
 12 11  1  0
 12 14  1  0
 12 13  1  1
 14 15  1  6
 15  8  1  0
 16 14  1  0
 17 16  2  0
 19 18  1  0
 19 29  2  0
 20 19  1  0
 21 20  2  0
 21 22  1  0
 22 28  2  0
 23 22  1  0
 24 25  1  0
 24 23  1  1
 25 16  1  0
 26 24  1  0
 27 26  1  0
 28 29  1  0
 30 26  2  0
M  END
$$$$
