QIY.pdb
     RDKit          3D

 30 30  0  0  1  0  0  0  0  0999 V2000
   21.1455  -19.4859  -12.2953 N   0  0  0  0  0  0  0  0  0  0  0  0
   21.6602  -20.3640  -13.3152 C   0  0  0  0  0  0  0  0  0  0  0  0
   22.6885  -20.0225  -13.9450 O   0  0  0  0  0  0  0  0  0  0  0  0
   21.0104  -21.6418  -13.6261 C   0  0  0  0  0  0  0  0  0  0  0  0
   19.8254  -22.0029  -12.8161 C   0  0  0  0  0  0  0  0  0  0  0  0
   19.1267  -23.2718  -13.1501 C   0  0  2  0  0  0  0  0  0  0  0  0
   18.6410  -23.3983  -14.4947 N   0  0  0  0  0  0  0  0  0  0  0  0
   18.0071  -23.5567  -12.1803 C   0  0  0  0  0  0  0  0  0  0  0  0
   16.8478  -23.1924  -12.4915 O   0  0  0  0  0  0  0  0  0  0  0  0
   14.5162  -25.9343  -12.5115 C   0  0  0  0  0  0  0  0  0  0  0  0
   15.4695  -24.9601  -11.8523 C   0  0  0  0  0  0  0  0  0  0  0  0
   16.2941  -25.6411  -10.7832 C   0  0  2  0  0  0  0  0  0  0  0  0
   15.4084  -26.3955   -9.8151 C   0  0  0  0  0  0  0  0  0  0  0  0
   17.2477  -24.7127  -10.1055 C   0  0  2  0  0  0  0  0  0  0  0  0
   18.2886  -24.2213  -10.9552 N   0  0  0  0  0  0  0  0  0  0  0  0
   17.7569  -25.3519   -8.8761 C   0  0  0  0  0  0  0  0  0  0  0  0
   18.4702  -26.3788   -8.9914 O   0  0  0  0  0  0  0  0  0  0  0  0
   12.6503  -22.7341   -4.1915 O   0  0  0  0  0  0  0  0  0  0  0  0
   13.9394  -23.1798   -4.4474 C   0  0  0  0  0  0  0  0  0  0  0  0
   14.6547  -22.7080   -5.5259 C   0  0  0  0  0  0  0  0  0  0  0  0
   15.9533  -23.1699   -5.7669 C   0  0  0  0  0  0  0  0  0  0  0  0
   16.5695  -24.0949   -4.9617 C   0  0  0  0  0  0  0  0  0  0  0  0
   17.9456  -24.6117   -5.1744 C   0  0  0  0  0  0  0  0  0  0  0  0
   18.0151  -25.5249   -6.3799 C   0  0  2  0  0  0  0  0  0  0  0  0
   17.4898  -24.8768   -7.5667 N   0  0  0  0  0  0  0  0  0  0  0  0
   17.1952  -26.7227   -6.1003 C   0  0  0  0  0  0  0  0  0  0  0  0
   17.6255  -27.7395   -5.2482 O   0  0  0  0  0  0  0  0  0  0  0  0
   15.8283  -24.5645   -3.8693 C   0  0  0  0  0  0  0  0  0  0  0  0
   14.5507  -24.1087   -3.6341 C   0  0  0  0  0  0  0  0  0  0  0  0
   16.0732  -26.8703   -6.6240 O   0  0  0  0  0  0  0  0  0  0  0  0
  2  4  1  0
  2  1  1  0
  3  2  2  0
  5  6  1  0
  5  4  1  0
  6  7  1  6
  8  6  1  0
  8  9  2  0
 11 10  1  0
 12 11  1  0
 12 14  1  0
 12 13  1  1
 14 15  1  6
 15  8  1  0
 16 14  1  0
 17 16  2  0
 19 18  1  0
 19 29  2  0
 20 19  1  0
 21 20  2  0
 21 22  1  0
 22 28  2  0
 23 22  1  0
 24 25  1  0
 24 23  1  1
 25 16  1  0
 26 24  1  0
 27 26  1  0
 28 29  1  0
 30 26  2  0
M  END
$$$$
