QIY.pdb
     RDKit          3D

 30 30  0  0  1  0  0  0  0  0999 V2000
   19.7850  -18.4233  -14.4670 N   0  0  0  0  0  0  0  0  0  0  0  0
   19.4663  -17.1020  -14.9451 C   0  0  0  0  0  0  0  0  0  0  0  0
   18.2689  -16.7321  -14.9480 O   0  0  0  0  0  0  0  0  0  0  0  0
   20.5090  -16.1871  -15.4219 C   0  0  0  0  0  0  0  0  0  0  0  0
   21.9121  -16.6256  -15.2497 C   0  0  0  0  0  0  0  0  0  0  0  0
   22.6492  -17.0608  -16.4651 C   0  0  2  0  0  0  0  0  0  0  0  0
   21.8495  -17.4533  -17.5903 N   0  0  0  0  0  0  0  0  0  0  0  0
   23.6423  -18.1507  -16.1471 C   0  0  0  0  0  0  0  0  0  0  0  0
   23.2257  -19.3324  -16.0901 O   0  0  0  0  0  0  0  0  0  0  0  0
   28.6178  -18.1941  -18.3198 C   0  0  0  0  0  0  0  0  0  0  0  0
   27.2514  -18.4703  -17.7293 C   0  0  0  0  0  0  0  0  0  0  0  0
   27.3193  -18.5808  -16.2227 C   0  0  2  0  0  0  0  0  0  0  0  0
   28.3569  -19.5988  -15.8009 C   0  0  0  0  0  0  0  0  0  0  0  0
   25.9831  -18.8099  -15.5960 C   0  0  2  0  0  0  0  0  0  0  0  0
   25.0062  -17.8170  -15.9229 N   0  0  0  0  0  0  0  0  0  0  0  0
   26.1544  -18.9972  -14.1418 C   0  0  0  0  0  0  0  0  0  0  0  0
   26.4542  -17.9968  -13.4446 O   0  0  0  0  0  0  0  0  0  0  0  0
   26.6056  -19.8161   -5.6862 O   0  0  0  0  0  0  0  0  0  0  0  0
   26.2746  -19.7808   -7.0335 C   0  0  0  0  0  0  0  0  0  0  0  0
   26.6860  -18.7432   -7.8406 C   0  0  0  0  0  0  0  0  0  0  0  0
   26.3419  -18.7259   -9.1968 C   0  0  0  0  0  0  0  0  0  0  0  0
   25.5945  -19.7174   -9.7817 C   0  0  0  0  0  0  0  0  0  0  0  0
   25.2081  -19.7447  -11.2155 C   0  0  0  0  0  0  0  0  0  0  0  0
   26.2708  -20.4102  -12.0640 C   0  0  2  0  0  0  0  0  0  0  0  0
   26.0010  -20.2419  -13.4794 N   0  0  0  0  0  0  0  0  0  0  0  0
   26.2688  -21.8563  -11.7569 C   0  0  0  0  0  0  0  0  0  0  0  0
   27.1617  -22.4283  -10.8511 O   0  0  0  0  0  0  0  0  0  0  0  0
   25.1841  -20.7652   -8.9469 C   0  0  0  0  0  0  0  0  0  0  0  0
   25.5238  -20.7801   -7.6129 C   0  0  0  0  0  0  0  0  0  0  0  0
   25.4576  -22.6286  -12.3051 O   0  0  0  0  0  0  0  0  0  0  0  0
  2  4  1  0
  2  1  1  0
  3  2  2  0
  5  6  1  0
  5  4  1  0
  6  7  1  6
  8  6  1  0
  8  9  2  0
 11 10  1  0
 12 11  1  0
 12 14  1  0
 12 13  1  6
 14 15  1  1
 15  8  1  0
 16 14  1  0
 17 16  2  0
 19 18  1  0
 19 29  2  0
 20 19  1  0
 21 20  2  0
 21 22  1  0
 22 28  2  0
 23 22  1  0
 24 25  1  0
 24 23  1  1
 25 16  1  0
 26 24  1  0
 27 26  1  0
 28 29  1  0
 30 26  2  0
M  END
$$$$
