QIY.pdb
     RDKit          3D

 30 30  0  0  1  0  0  0  0  0999 V2000
   28.7797  -17.1730  -16.1320 N   0  0  0  0  0  0  0  0  0  0  0  0
   28.7004  -17.6039  -17.5047 C   0  0  0  0  0  0  0  0  0  0  0  0
   29.3763  -16.9983  -18.3690 O   0  0  0  0  0  0  0  0  0  0  0  0
   27.8524  -18.7314  -17.9064 C   0  0  0  0  0  0  0  0  0  0  0  0
   27.2067  -19.5018  -16.8200 C   0  0  0  0  0  0  0  0  0  0  0  0
   28.0151  -20.5553  -16.1518 C   0  0  2  0  0  0  0  0  0  0  0  0
   28.5028  -21.6134  -16.9898 N   0  0  0  0  0  0  0  0  0  0  0  0
   27.2856  -21.1434  -14.9697 C   0  0  0  0  0  0  0  0  0  0  0  0
   26.5290  -22.1237  -15.1695 O   0  0  0  0  0  0  0  0  0  0  0  0
   29.5598  -20.8625  -10.0142 C   0  0  0  0  0  0  0  0  0  0  0  0
   28.7981  -21.3512  -11.2279 C   0  0  0  0  0  0  0  0  0  0  0  0
   27.3829  -20.8185  -11.2359 C   0  0  2  0  0  0  0  0  0  0  0  0
   26.5912  -21.3680  -10.0688 C   0  0  0  0  0  0  0  0  0  0  0  0
   26.6987  -21.0065  -12.5502 C   0  0  2  0  0  0  0  0  0  0  0  0
   27.4704  -20.5806  -13.6771 N   0  0  0  0  0  0  0  0  0  0  0  0
   25.3616  -20.3833  -12.4950 C   0  0  0  0  0  0  0  0  0  0  0  0
   25.2912  -19.1316  -12.4263 O   0  0  0  0  0  0  0  0  0  0  0  0
   16.8994  -18.4795  -13.9056 O   0  0  0  0  0  0  0  0  0  0  0  0
   18.1396  -19.1003  -13.8547 C   0  0  0  0  0  0  0  0  0  0  0  0
   18.2922  -20.3387  -13.2711 C   0  0  0  0  0  0  0  0  0  0  0  0
   19.5511  -20.9480  -13.2298 C   0  0  0  0  0  0  0  0  0  0  0  0
   20.6741  -20.3596  -13.7556 C   0  0  0  0  0  0  0  0  0  0  0  0
   22.0288  -20.9680  -13.7392 C   0  0  0  0  0  0  0  0  0  0  0  0
   22.8486  -20.4657  -12.5697 C   0  0  2  0  0  0  0  0  0  0  0  0
   24.1456  -21.1131  -12.5148 N   0  0  0  0  0  0  0  0  0  0  0  0
   22.1170  -20.7792  -11.3240 C   0  0  0  0  0  0  0  0  0  0  0  0
   21.1421  -19.9322  -10.7975 O   0  0  0  0  0  0  0  0  0  0  0  0
   20.5014  -19.1003  -14.3454 C   0  0  0  0  0  0  0  0  0  0  0  0
   19.2619  -18.5026  -14.3848 C   0  0  0  0  0  0  0  0  0  0  0  0
   22.3486  -21.8270  -10.6889 O   0  0  0  0  0  0  0  0  0  0  0  0
  2  4  1  0
  2  1  1  0
  3  2  2  0
  5  6  1  0
  5  4  1  0
  6  7  1  6
  8  6  1  0
  8  9  2  0
 11 10  1  0
 12 11  1  0
 12 14  1  0
 12 13  1  1
 14 15  1  6
 15  8  1  0
 16 14  1  0
 17 16  2  0
 19 18  1  0
 19 29  2  0
 20 19  1  0
 21 20  2  0
 21 22  1  0
 22 28  2  0
 23 22  1  0
 24 25  1  0
 24 23  1  6
 25 16  1  0
 26 24  1  0
 27 26  1  0
 28 29  1  0
 30 26  2  0
M  END
$$$$
