KHY.pdb
     RDKit          3D

 32 33  0  0  1  0  0  0  0  0999 V2000
   14.9979  -18.4209    2.4563 N   0  0  0  0  0  0  0  0  0  0  0  0
   14.6565  -17.6734    3.7400 C   0  0  1  0  0  0  0  0  0  0  0  0
   13.6880  -18.5263    4.4400 C   0  0  0  0  0  0  0  0  0  0  0  0
   12.3501  -18.7956    3.9081 C   0  0  0  0  0  0  0  0  0  0  0  0
   11.3328  -19.5465    4.6485 C   0  0  0  0  0  0  0  0  0  0  0  0
   10.0141  -19.7874    4.0556 C   0  0  0  0  0  0  0  0  0  0  0  0
    9.1316  -20.5297    4.9878 N   0  0  0  0  0  0  0  0  0  0  0  0
   15.9902  -17.5306    4.3764 C   0  0  0  0  0  0  0  0  0  0  0  0
   17.0070  -18.2044    3.9521 O   0  0  0  0  0  0  0  0  0  0  0  0
   16.3066  -16.6835    5.4677 N   0  0  0  0  0  0  0  0  0  0  0  0
   17.6534  -16.6152    6.0307 C   0  0  1  0  0  0  0  0  0  0  0  0
   17.7473  -15.2038    6.6317 C   0  0  0  0  0  0  0  0  0  0  0  0
   18.1963  -14.3029    5.5399 C   0  0  0  0  0  0  0  0  0  0  0  0
   18.4705  -14.6473    4.2269 C   0  0  0  0  0  0  0  0  0  0  0  0
   18.8560  -13.5478    3.5207 N   0  0  0  0  0  0  0  0  0  0  0  0
   18.8207  -12.5297    4.3909 C   0  0  0  0  0  0  0  0  0  0  0  0
   18.4303  -12.9569    5.5995 N   0  0  0  0  0  0  0  0  0  0  0  0
   17.8799  -17.5446    7.1463 C   0  0  0  0  0  0  0  0  0  0  0  0
   16.8551  -17.7728    7.8763 O   0  0  0  0  0  0  0  0  0  0  0  0
   19.6329  -23.9398    4.5048 O   0  0  0  0  0  0  0  0  0  0  0  0
   19.2768  -23.0216    5.4980 C   0  0  0  0  0  0  0  0  0  0  0  0
   19.6913  -23.1697    6.8066 C   0  0  0  0  0  0  0  0  0  0  0  0
   19.3064  -22.2214    7.7609 C   0  0  0  0  0  0  0  0  0  0  0  0
   18.5220  -21.1447    7.4155 C   0  0  0  0  0  0  0  0  0  0  0  0
   18.1154  -20.1698    8.4353 C   0  0  0  0  0  0  0  0  0  0  0  0
   19.1615  -19.0979    8.5712 C   0  0  2  0  0  0  0  0  0  0  0  0
   19.1105  -18.1718    7.4440 N   0  0  0  0  0  0  0  0  0  0  0  0
   20.5439  -19.6028    8.6484 C   0  0  0  0  0  0  0  0  0  0  0  0
   21.4151  -19.2965    7.7933 O   0  0  0  0  0  0  0  0  0  0  0  0
   18.1159  -21.0089    6.1110 C   0  0  0  0  0  0  0  0  0  0  0  0
   18.4883  -21.9447    5.1378 C   0  0  0  0  0  0  0  0  0  0  0  0
   20.9671  -20.4490    9.6727 O   0  0  0  0  0  0  0  0  0  0  0  0
  2  1  1  6
  3  2  1  0
  3  4  1  0
  5  4  1  0
  6  5  1  0
  7  6  1  0
  8  2  1  0
  8  9  2  0
 10  8  1  0
 11 18  1  0
 11 10  1  0
 12 13  1  0
 11 12  1  1
 13 17  1  0
 14 15  1  0
 14 13  2  0
 15 16  1  0
 16 17  2  0
 18 27  1  0
 19 18  2  0
 20 21  1  0
 21 31  2  0
 21 22  1  0
 22 23  2  0
 23 24  1  0
 24 25  1  0
 26 25  1  6
 26 28  1  0
 27 26  1  0
 28 29  2  0
 28 32  1  0
 30 24  2  0
 31 30  1  0
M  END
$$$$
