KHY.pdb
     RDKit          3D

 32 33  0  0  1  0  0  0  0  0999 V2000
   19.1938  -16.0431  -22.0829 N   0  0  0  0  0  0  0  0  0  0  0  0
   19.8940  -14.6965  -22.2234 C   0  0  1  0  0  0  0  0  0  0  0  0
   19.7351  -14.3217  -23.6339 C   0  0  0  0  0  0  0  0  0  0  0  0
   20.3540  -15.0811  -24.7229 C   0  0  0  0  0  0  0  0  0  0  0  0
   21.3581  -14.5101  -25.6244 C   0  0  0  0  0  0  0  0  0  0  0  0
   21.8718  -15.2947  -26.7509 C   0  0  0  0  0  0  0  0  0  0  0  0
   22.1992  -16.6806  -26.3375 N   0  0  0  0  0  0  0  0  0  0  0  0
   19.1630  -13.8654  -21.2339 C   0  0  0  0  0  0  0  0  0  0  0  0
   17.8735  -13.8896  -21.1658 O   0  0  0  0  0  0  0  0  0  0  0  0
   19.7488  -12.9890  -20.2866 N   0  0  0  0  0  0  0  0  0  0  0  0
   18.9457  -12.2456  -19.3182 C   0  0  1  0  0  0  0  0  0  0  0  0
   19.5105  -12.6615  -17.9508 C   0  0  0  0  0  0  0  0  0  0  0  0
   19.0813  -14.0643  -17.7195 C   0  0  0  0  0  0  0  0  0  0  0  0
   19.8126  -15.2159  -17.9577 C   0  0  0  0  0  0  0  0  0  0  0  0
   19.0839  -16.3165  -17.6203 N   0  0  0  0  0  0  0  0  0  0  0  0
   17.9094  -15.8492  -17.1763 C   0  0  0  0  0  0  0  0  0  0  0  0
   17.8862  -14.5103  -17.2266 N   0  0  0  0  0  0  0  0  0  0  0  0
   19.1156  -10.7880  -19.3983 C   0  0  0  0  0  0  0  0  0  0  0  0
   20.3169  -10.3935  -19.5889 O   0  0  0  0  0  0  0  0  0  0  0  0
   18.5869   -2.1474  -20.0995 O   0  0  0  0  0  0  0  0  0  0  0  0
   18.2311   -3.4968  -20.0039 C   0  0  0  0  0  0  0  0  0  0  0  0
   17.6466   -4.0150  -18.8654 C   0  0  0  0  0  0  0  0  0  0  0  0
   17.3101   -5.3726  -18.8228 C   0  0  0  0  0  0  0  0  0  0  0  0
   17.5524   -6.1981  -19.8969 C   0  0  0  0  0  0  0  0  0  0  0  0
   17.2069   -7.6233  -19.8257 C   0  0  0  0  0  0  0  0  0  0  0  0
   18.4069   -8.4251  -19.4027 C   0  0  2  0  0  0  0  0  0  0  0  0
   18.0733   -9.8412  -19.2820 N   0  0  0  0  0  0  0  0  0  0  0  0
   18.9920   -8.0117  -18.1148 C   0  0  0  0  0  0  0  0  0  0  0  0
   19.8569   -7.1008  -18.0363 O   0  0  0  0  0  0  0  0  0  0  0  0
   18.1345   -5.6708  -21.0231 C   0  0  0  0  0  0  0  0  0  0  0  0
   18.4802   -4.3152  -21.0898 C   0  0  0  0  0  0  0  0  0  0  0  0
   18.6216   -8.6054  -16.9087 O   0  0  0  0  0  0  0  0  0  0  0  0
  2  1  1  6
  3  2  1  0
  3  4  1  0
  5  4  1  0
  6  5  1  0
  7  6  1  0
  8  2  1  0
  8  9  2  0
 10  8  1  0
 11 18  1  0
 11 10  1  0
 12 13  1  0
 11 12  1  1
 13 17  1  0
 14 15  1  0
 14 13  2  0
 15 16  1  0
 16 17  2  0
 18 27  1  0
 19 18  2  0
 20 21  1  0
 21 31  2  0
 21 22  1  0
 22 23  2  0
 23 24  1  0
 24 25  1  0
 26 25  1  1
 26 28  1  0
 27 26  1  0
 28 29  2  0
 28 32  1  0
 30 24  2  0
 31 30  1  0
M  END
$$$$
