KHY.pdb
     RDKit          3D

 32 33  0  0  1  0  0  0  0  0999 V2000
   23.7893  -18.6336  -22.1804 N   0  0  0  0  0  0  0  0  0  0  0  0
   23.3413  -20.0374  -21.7910 C   0  0  1  0  0  0  0  0  0  0  0  0
   24.3421  -20.9398  -22.3737 C   0  0  0  0  0  0  0  0  0  0  0  0
   24.9404  -20.7042  -23.6898 C   0  0  0  0  0  0  0  0  0  0  0  0
   25.7274  -19.5096  -24.0067 C   0  0  0  0  0  0  0  0  0  0  0  0
   26.2990  -19.3343  -25.3450 C   0  0  0  0  0  0  0  0  0  0  0  0
   27.5976  -20.0385  -25.4729 N   0  0  0  0  0  0  0  0  0  0  0  0
   23.3146  -19.9514  -20.3091 C   0  0  0  0  0  0  0  0  0  0  0  0
   23.3359  -21.0164  -19.5789 O   0  0  0  0  0  0  0  0  0  0  0  0
   23.2679  -18.7592  -19.5441 N   0  0  0  0  0  0  0  0  0  0  0  0
   23.2705  -18.7755  -18.0828 C   0  0  1  0  0  0  0  0  0  0  0  0
   24.0069  -17.4862  -17.6857 C   0  0  0  0  0  0  0  0  0  0  0  0
   25.4481  -17.7143  -17.9620 C   0  0  0  0  0  0  0  0  0  0  0  0
   26.1421  -18.9089  -17.8671 C   0  0  0  0  0  0  0  0  0  0  0  0
   27.4498  -18.7235  -18.2014 N   0  0  0  0  0  0  0  0  0  0  0  0
   27.5643  -17.4227  -18.5012 C   0  0  0  0  0  0  0  0  0  0  0  0
   26.3842  -16.8027  -18.3655 N   0  0  0  0  0  0  0  0  0  0  0  0
   21.9321  -18.6762  -17.4841 C   0  0  0  0  0  0  0  0  0  0  0  0
   21.2350  -17.6803  -17.8808 O   0  0  0  0  0  0  0  0  0  0  0  0
   13.9667  -19.1317  -14.3643 O   0  0  0  0  0  0  0  0  0  0  0  0
   15.2227  -19.4267  -14.9044 C   0  0  0  0  0  0  0  0  0  0  0  0
   15.9660  -20.5053  -14.4682 C   0  0  0  0  0  0  0  0  0  0  0  0
   17.2171  -20.7554  -15.0431 C   0  0  0  0  0  0  0  0  0  0  0  0
   17.7173  -19.9437  -16.0354 C   0  0  0  0  0  0  0  0  0  0  0  0
   19.0394  -20.2137  -16.6140 C   0  0  0  0  0  0  0  0  0  0  0  0
   20.0683  -19.3074  -15.9963 C   0  0  2  0  0  0  0  0  0  0  0  0
   21.3965  -19.5785  -16.5379 N   0  0  0  0  0  0  0  0  0  0  0  0
   20.1734  -19.4159  -14.5303 C   0  0  0  0  0  0  0  0  0  0  0  0
   19.5823  -18.6171  -13.7577 O   0  0  0  0  0  0  0  0  0  0  0  0
   16.9687  -18.8740  -16.4603 C   0  0  0  0  0  0  0  0  0  0  0  0
   15.7137  -18.6033  -15.9004 C   0  0  0  0  0  0  0  0  0  0  0  0
   20.9334  -20.4091  -13.9138 O   0  0  0  0  0  0  0  0  0  0  0  0
  2  1  1  6
  3  2  1  0
  3  4  1  0
  5  4  1  0
  6  5  1  0
  7  6  1  0
  8  2  1  0
  8  9  2  0
 10  8  1  0
 11 18  1  0
 11 10  1  0
 12 13  1  0
 11 12  1  1
 13 17  1  0
 14 15  1  0
 14 13  2  0
 15 16  1  0
 16 17  2  0
 18 27  1  0
 19 18  2  0
 20 21  1  0
 21 31  2  0
 21 22  1  0
 22 23  2  0
 23 24  1  0
 24 25  1  0
 26 25  1  6
 26 28  1  0
 27 26  1  0
 28 29  2  0
 28 32  1  0
 30 24  2  0
 31 30  1  0
M  END
$$$$
