KHY.pdb
     RDKit          3D

 32 33  0  0  1  0  0  0  0  0999 V2000
   29.8450  -19.5180  -20.5773 N   0  0  0  0  0  0  0  0  0  0  0  0
   29.1702  -20.6511  -19.8133 C   0  0  1  0  0  0  0  0  0  0  0  0
   30.2264  -21.2418  -18.9821 C   0  0  0  0  0  0  0  0  0  0  0  0
   30.8603  -22.5211  -19.3095 C   0  0  0  0  0  0  0  0  0  0  0  0
   30.1023  -23.7581  -19.5155 C   0  0  0  0  0  0  0  0  0  0  0  0
   30.8021  -25.0187  -19.7796 C   0  0  0  0  0  0  0  0  0  0  0  0
   29.8464  -26.1381  -19.9594 N   0  0  0  0  0  0  0  0  0  0  0  0
   28.0879  -19.9342  -19.0930 C   0  0  0  0  0  0  0  0  0  0  0  0
   28.3570  -18.9891  -18.2550 O   0  0  0  0  0  0  0  0  0  0  0  0
   26.6974  -20.1756  -19.2240 N   0  0  0  0  0  0  0  0  0  0  0  0
   25.7086  -19.4712  -18.4106 C   0  0  1  0  0  0  0  0  0  0  0  0
   24.3864  -19.6499  -19.1734 C   0  0  0  0  0  0  0  0  0  0  0  0
   23.3814  -18.7933  -18.4938 C   0  0  0  0  0  0  0  0  0  0  0  0
   23.6214  -17.6686  -17.7224 C   0  0  0  0  0  0  0  0  0  0  0  0
   22.4474  -17.1484  -17.2673 N   0  0  0  0  0  0  0  0  0  0  0  0
   21.4870  -17.9459  -17.7538 C   0  0  0  0  0  0  0  0  0  0  0  0
   22.0209  -18.9321  -18.4873 N   0  0  0  0  0  0  0  0  0  0  0  0
   25.4936  -20.0689  -17.0854 C   0  0  0  0  0  0  0  0  0  0  0  0
   25.5052  -21.3473  -17.0605 O   0  0  0  0  0  0  0  0  0  0  0  0
   24.4870  -21.9768   -8.6491 O   0  0  0  0  0  0  0  0  0  0  0  0
   24.7398  -21.2857   -9.8387 C   0  0  0  0  0  0  0  0  0  0  0  0
   23.8218  -20.4059  -10.3767 C   0  0  0  0  0  0  0  0  0  0  0  0
   24.1255  -19.7403  -11.5696 C   0  0  0  0  0  0  0  0  0  0  0  0
   25.3236  -19.9489  -12.2138 C   0  0  0  0  0  0  0  0  0  0  0  0
   25.6159  -19.2530  -13.4732 C   0  0  0  0  0  0  0  0  0  0  0  0
   25.1639  -20.0863  -14.6407 C   0  0  2  0  0  0  0  0  0  0  0  0
   25.2845  -19.3430  -15.8913 N   0  0  0  0  0  0  0  0  0  0  0  0
   23.7684  -20.5518  -14.5521 C   0  0  0  0  0  0  0  0  0  0  0  0
   23.4735  -21.7012  -14.1325 O   0  0  0  0  0  0  0  0  0  0  0  0
   26.2278  -20.8266  -11.6688 C   0  0  0  0  0  0  0  0  0  0  0  0
   25.9469  -21.5046  -10.4759 C   0  0  0  0  0  0  0  0  0  0  0  0
   22.6938  -19.7466  -14.9279 O   0  0  0  0  0  0  0  0  0  0  0  0
  2  1  1  6
  3  2  1  0
  3  4  1  0
  5  4  1  0
  6  5  1  0
  7  6  1  0
  8  2  1  0
  8  9  2  0
 10  8  1  0
 11 18  1  0
 11 10  1  0
 12 13  1  0
 11 12  1  6
 13 17  1  0
 14 15  1  0
 14 13  2  0
 15 16  1  0
 16 17  2  0
 18 27  1  0
 19 18  2  0
 20 21  1  0
 21 31  2  0
 21 22  1  0
 22 23  2  0
 23 24  1  0
 24 25  1  0
 26 25  1  1
 26 28  1  0
 27 26  1  0
 28 29  2  0
 28 32  1  0
 30 24  2  0
 31 30  1  0
M  END
$$$$
