KHY.pdb
     RDKit          3D

 32 33  0  0  1  0  0  0  0  0999 V2000
   30.9147  -26.5891  -19.5286 N   0  0  0  0  0  0  0  0  0  0  0  0
   30.2462  -26.0336  -18.2765 C   0  0  1  0  0  0  0  0  0  0  0  0
   30.1649  -24.5835  -18.4907 C   0  0  0  0  0  0  0  0  0  0  0  0
   29.5053  -23.9980  -19.6601 C   0  0  0  0  0  0  0  0  0  0  0  0
   29.4615  -22.5554  -19.9132 C   0  0  0  0  0  0  0  0  0  0  0  0
   30.6734  -21.8393  -20.3218 C   0  0  0  0  0  0  0  0  0  0  0  0
   30.4148  -20.3876  -20.4778 N   0  0  0  0  0  0  0  0  0  0  0  0
   28.9578  -26.7713  -18.2630 C   0  0  0  0  0  0  0  0  0  0  0  0
   28.4373  -27.2241  -19.3548 O   0  0  0  0  0  0  0  0  0  0  0  0
   28.1758  -27.0620  -17.1174 N   0  0  0  0  0  0  0  0  0  0  0  0
   26.9178  -27.8005  -17.2048 C   0  0  1  0  0  0  0  0  0  0  0  0
   26.8508  -28.6013  -15.8947 C   0  0  0  0  0  0  0  0  0  0  0  0
   27.5620  -29.8819  -16.1392 C   0  0  0  0  0  0  0  0  0  0  0  0
   28.1510  -30.3027  -17.3197 C   0  0  0  0  0  0  0  0  0  0  0  0
   28.7080  -31.5353  -17.1568 N   0  0  0  0  0  0  0  0  0  0  0  0
   28.4653  -31.8751  -15.8837 C   0  0  0  0  0  0  0  0  0  0  0  0
   27.7840  -30.9048  -15.2591 N   0  0  0  0  0  0  0  0  0  0  0  0
   25.7241  -26.9435  -17.2151 C   0  0  0  0  0  0  0  0  0  0  0  0
   25.7958  -25.9075  -16.4690 O   0  0  0  0  0  0  0  0  0  0  0  0
   19.2020  -21.6989  -19.1173 O   0  0  0  0  0  0  0  0  0  0  0  0
   20.2615  -22.6114  -19.1491 C   0  0  0  0  0  0  0  0  0  0  0  0
   20.1462  -23.8371  -19.7742 C   0  0  0  0  0  0  0  0  0  0  0  0
   21.2377  -24.7127  -19.7766 C   0  0  0  0  0  0  0  0  0  0  0  0
   22.4230  -24.3712  -19.1663 C   0  0  0  0  0  0  0  0  0  0  0  0
   23.5510  -25.3111  -19.1659 C   0  0  0  0  0  0  0  0  0  0  0  0
   23.4922  -26.1879  -17.9455 C   0  0  2  0  0  0  0  0  0  0  0  0
   24.5546  -27.1888  -17.9692 N   0  0  0  0  0  0  0  0  0  0  0  0
   22.2216  -26.9160  -17.7798 C   0  0  0  0  0  0  0  0  0  0  0  0
   21.2925  -26.4800  -17.0513 O   0  0  0  0  0  0  0  0  0  0  0  0
   22.5250  -23.1496  -18.5478 C   0  0  0  0  0  0  0  0  0  0  0  0
   21.4465  -22.2562  -18.5321 C   0  0  0  0  0  0  0  0  0  0  0  0
   21.9748  -28.1299  -18.4201 O   0  0  0  0  0  0  0  0  0  0  0  0
  2  1  1  6
  3  2  1  0
  3  4  1  0
  5  4  1  0
  6  5  1  0
  7  6  1  0
  8  2  1  0
  8  9  2  0
 10  8  1  0
 11 18  1  0
 11 10  1  0
 12 13  1  0
 11 12  1  1
 13 17  1  0
 14 15  1  0
 14 13  2  0
 15 16  1  0
 16 17  2  0
 18 27  1  0
 19 18  2  0
 20 21  1  0
 21 31  2  0
 21 22  1  0
 22 23  2  0
 23 24  1  0
 24 25  1  0
 26 25  1  6
 26 28  1  0
 27 26  1  0
 28 29  2  0
 28 32  1  0
 30 24  2  0
 31 30  1  0
M  END
$$$$
