KHY.pdb
     RDKit          3D

 32 33  0  0  1  0  0  0  0  0999 V2000
   19.8436  -15.6612  -16.5091 N   0  0  0  0  0  0  0  0  0  0  0  0
   19.9290  -14.4213  -17.3912 C   0  0  1  0  0  0  0  0  0  0  0  0
   18.6062  -13.7905  -17.3034 C   0  0  0  0  0  0  0  0  0  0  0  0
   17.4182  -14.3651  -17.9390 C   0  0  0  0  0  0  0  0  0  0  0  0
   17.0998  -14.1739  -19.3564 C   0  0  0  0  0  0  0  0  0  0  0  0
   15.9043  -14.7935  -19.9358 C   0  0  0  0  0  0  0  0  0  0  0  0
   14.7571  -13.8541  -19.9366 N   0  0  0  0  0  0  0  0  0  0  0  0
   21.0556  -13.6797  -16.7708 C   0  0  0  0  0  0  0  0  0  0  0  0
   21.1112  -13.4980  -15.4933 O   0  0  0  0  0  0  0  0  0  0  0  0
   22.1564  -13.1090  -17.4572 N   0  0  0  0  0  0  0  0  0  0  0  0
   23.1292  -12.2511  -16.7840 C   0  0  1  0  0  0  0  0  0  0  0  0
   24.3499  -12.2482  -17.7178 C   0  0  0  0  0  0  0  0  0  0  0  0
   25.4589  -11.6029  -16.9701 C   0  0  0  0  0  0  0  0  0  0  0  0
   26.2545  -12.1734  -15.9908 C   0  0  0  0  0  0  0  0  0  0  0  0
   27.1669  -11.2690  -15.5371 N   0  0  0  0  0  0  0  0  0  0  0  0
   26.9375  -10.1462  -16.2311 C   0  0  0  0  0  0  0  0  0  0  0  0
   25.9245  -10.3226  -17.0904 N   0  0  0  0  0  0  0  0  0  0  0  0
   22.7063  -10.8484  -16.6688 C   0  0  0  0  0  0  0  0  0  0  0  0
   21.9570  -10.4300  -17.6167 O   0  0  0  0  0  0  0  0  0  0  0  0
   20.5575   -2.7235  -14.3850 O   0  0  0  0  0  0  0  0  0  0  0  0
   21.0650   -4.0266  -14.3566 C   0  0  0  0  0  0  0  0  0  0  0  0
   20.3119   -5.0897  -13.8994 C   0  0  0  0  0  0  0  0  0  0  0  0
   20.8686   -6.3736  -13.8927 C   0  0  0  0  0  0  0  0  0  0  0  0
   22.1534   -6.5926  -14.3344 C   0  0  0  0  0  0  0  0  0  0  0  0
   22.7245   -7.9448  -14.3036 C   0  0  0  0  0  0  0  0  0  0  0  0
   22.5422   -8.6129  -15.6386 C   0  0  2  0  0  0  0  0  0  0  0  0
   23.0648   -9.9757  -15.6169 N   0  0  0  0  0  0  0  0  0  0  0  0
   23.1998   -7.9199  -16.7608 C   0  0  0  0  0  0  0  0  0  0  0  0
   24.4303   -8.0450  -16.9937 O   0  0  0  0  0  0  0  0  0  0  0  0
   22.8922   -5.5270  -14.7862 C   0  0  0  0  0  0  0  0  0  0  0  0
   22.3571   -4.2328  -14.8027 C   0  0  0  0  0  0  0  0  0  0  0  0
   22.4974   -7.0856  -17.6297 O   0  0  0  0  0  0  0  0  0  0  0  0
  2  1  1  1
  3  2  1  0
  3  4  1  0
  5  4  1  0
  6  5  1  0
  7  6  1  0
  8  2  1  0
  8  9  2  0
 10  8  1  0
 11 18  1  0
 11 10  1  0
 12 13  1  0
 11 12  1  6
 13 17  1  0
 14 15  1  0
 14 13  2  0
 15 16  1  0
 16 17  2  0
 18 27  1  0
 19 18  2  0
 20 21  1  0
 21 31  2  0
 21 22  1  0
 22 23  2  0
 23 24  1  0
 24 25  1  0
 26 25  1  1
 26 28  1  0
 27 26  1  0
 28 29  2  0
 28 32  1  0
 30 24  2  0
 31 30  1  0
M  END
$$$$
