KHY.pdb
     RDKit          3D

 32 33  0  0  1  0  0  0  0  0999 V2000
   23.5282  -17.0024  -20.2185 N   0  0  0  0  0  0  0  0  0  0  0  0
   24.0281  -17.9138  -19.1038 C   0  0  1  0  0  0  0  0  0  0  0  0
   25.3196  -17.3503  -18.6915 C   0  0  0  0  0  0  0  0  0  0  0  0
   26.5483  -17.5568  -19.4617 C   0  0  0  0  0  0  0  0  0  0  0  0
   27.4118  -18.7278  -19.2885 C   0  0  0  0  0  0  0  0  0  0  0  0
   28.6176  -18.8849  -20.1071 C   0  0  0  0  0  0  0  0  0  0  0  0
   29.3651  -20.1104  -19.7358 N   0  0  0  0  0  0  0  0  0  0  0  0
   22.9240  -17.8242  -18.1153 C   0  0  0  0  0  0  0  0  0  0  0  0
   22.9070  -16.8967  -17.2168 O   0  0  0  0  0  0  0  0  0  0  0  0
   21.8062  -18.6918  -18.0333 N   0  0  0  0  0  0  0  0  0  0  0  0
   20.8649  -18.6394  -16.9167 C   0  0  1  0  0  0  0  0  0  0  0  0
   19.6536  -19.4544  -17.3971 C   0  0  0  0  0  0  0  0  0  0  0  0
   18.5778  -19.2536  -16.3933 C   0  0  0  0  0  0  0  0  0  0  0  0
   18.1153  -18.0501  -15.8879 C   0  0  0  0  0  0  0  0  0  0  0  0
   17.1181  -18.2685  -14.9856 N   0  0  0  0  0  0  0  0  0  0  0  0
   16.9644  -19.5984  -14.9329 C   0  0  0  0  0  0  0  0  0  0  0  0
   17.8236  -20.2048  -15.7634 N   0  0  0  0  0  0  0  0  0  0  0  0
   21.3459  -19.3103  -15.7009 C   0  0  0  0  0  0  0  0  0  0  0  0
   22.0530  -20.3561  -15.9042 O   0  0  0  0  0  0  0  0  0  0  0  0
   24.2945  -21.6351   -7.8820 O   0  0  0  0  0  0  0  0  0  0  0  0
   23.7612  -20.8979   -8.9443 C   0  0  0  0  0  0  0  0  0  0  0  0
   22.4536  -20.4549   -8.9370 C   0  0  0  0  0  0  0  0  0  0  0  0
   21.9706  -19.7207  -10.0259 C   0  0  0  0  0  0  0  0  0  0  0  0
   22.7780  -19.4336  -11.1027 C   0  0  0  0  0  0  0  0  0  0  0  0
   22.2471  -18.6760  -12.2428 C   0  0  0  0  0  0  0  0  0  0  0  0
   21.6991  -19.6182  -13.2789 C   0  0  2  0  0  0  0  0  0  0  0  0
   21.0829  -18.8838  -14.3798 N   0  0  0  0  0  0  0  0  0  0  0  0
   20.6845  -20.5586  -12.7705 C   0  0  0  0  0  0  0  0  0  0  0  0
   20.9665  -21.7488  -12.4741 O   0  0  0  0  0  0  0  0  0  0  0  0
   24.0764  -19.8801  -11.0982 C   0  0  0  0  0  0  0  0  0  0  0  0
   24.5828  -20.6166  -10.0199 C   0  0  0  0  0  0  0  0  0  0  0  0
   19.3535  -20.1848  -12.5886 O   0  0  0  0  0  0  0  0  0  0  0  0
  2  1  1  6
  3  2  1  0
  3  4  1  0
  5  4  1  0
  6  5  1  0
  7  6  1  0
  8  2  1  0
  8  9  2  0
 10  8  1  0
 11 18  1  0
 11 10  1  0
 12 13  1  0
 11 12  1  6
 13 17  1  0
 14 15  1  0
 14 13  2  0
 15 16  1  0
 16 17  2  0
 18 27  1  0
 19 18  2  0
 20 21  1  0
 21 31  2  0
 21 22  1  0
 22 23  2  0
 23 24  1  0
 24 25  1  0
 26 25  1  1
 26 28  1  0
 27 26  1  0
 28 29  2  0
 28 32  1  0
 30 24  2  0
 31 30  1  0
M  END
$$$$
