ADW.pdb
     RDKit          3D

 28 29  0  0  1  0  0  0  0  0999 V2000
    6.9070  -13.6937   18.9577 C   0  0  0  0  0  0  0  0  0  0  0  0
    8.2575  -13.6606   19.6034 C   0  0  2  0  0  0  0  0  0  0  0  0
    9.3342  -13.5338   18.6449 N   0  0  0  0  0  0  0  0  0  0  0  0
    8.5345  -14.8352   20.4639 C   0  0  0  0  0  0  0  0  0  0  0  0
    7.6887  -15.1294   21.3849 O   0  0  0  0  0  0  0  0  0  0  0  0
    9.7006  -15.6149   20.2788 N   0  0  0  0  0  0  0  0  0  0  0  0
    9.8919  -16.7491   21.1153 C   0  0  1  0  0  0  0  0  0  0  0  0
   10.9344  -17.7102   20.5865 C   0  0  0  0  0  0  0  0  0  0  0  0
   10.7344  -18.1204   19.2009 C   0  0  0  0  0  0  0  0  0  0  0  0
    9.7611  -18.8490   18.8959 O   0  0  0  0  0  0  0  0  0  0  0  0
   10.3343  -16.2909   22.4617 C   0  0  0  0  0  0  0  0  0  0  0  0
   11.1971  -15.3555   22.5069 O   0  0  0  0  0  0  0  0  0  0  0  0
   11.5789  -17.7477   18.1402 O   0  0  0  0  0  0  0  0  0  0  0  0
    9.8394  -16.8429   23.6504 N   0  0  0  0  0  0  0  0  0  0  0  0
   10.2081  -16.2207   24.9395 C   0  0  1  0  0  0  0  0  0  0  0  0
    9.6524  -14.8068   24.8203 C   0  0  0  0  0  0  0  0  0  0  0  0
    8.2391  -14.6746   25.1641 C   0  0  0  0  0  0  0  0  0  0  0  0
    7.2135  -15.5893   25.0132 C   0  0  0  0  0  0  0  0  0  0  0  0
    6.1120  -14.9909   25.5008 N   0  0  0  0  0  0  0  0  0  0  0  0
    6.3882  -13.7502   25.9511 C   0  0  0  0  0  0  0  0  0  0  0  0
    5.6160  -12.7539   26.5393 C   0  0  0  0  0  0  0  0  0  0  0  0
    6.1684  -11.5537   26.9210 C   0  0  0  0  0  0  0  0  0  0  0  0
    7.5255  -11.3108   26.7233 C   0  0  0  0  0  0  0  0  0  0  0  0
    8.2857  -12.3038   26.1384 C   0  0  0  0  0  0  0  0  0  0  0  0
    7.7262  -13.5100   25.7561 C   0  0  0  0  0  0  0  0  0  0  0  0
    9.5858  -17.0179   25.9850 C   0  0  0  0  0  0  0  0  0  0  0  0
    9.6733  -16.7655   27.1951 O   0  0  0  0  0  0  0  0  0  0  0  0
    8.8316  -18.1461   25.6434 O   0  0  0  0  0  0  0  0  0  0  0  0
  2  1  1  6
  3  2  1  0
  4  6  1  0
  4  2  1  0
  5  4  2  0
  7  8  1  6
  7  6  1  0
  8  9  1  0
  9 10  2  0
 11  7  1  0
 11 14  1  0
 12 11  2  0
 13  9  1  0
 15 14  1  0
 15 26  1  0
 15 16  1  6
 17 16  1  0
 18 17  2  0
 19 20  1  0
 19 18  1  0
 20 25  2  0
 21 22  2  0
 21 20  1  0
 22 23  1  0
 23 24  2  0
 25 17  1  0
 25 24  1  0
 26 28  1  0
 27 26  2  0
M  END
$$$$
