ADW.pdb
     RDKit          3D

 28 29  0  0  1  0  0  0  0  0999 V2000
    8.2664  -12.5689   19.7288 C   0  0  0  0  0  0  0  0  0  0  0  0
    8.3012  -13.8799   19.0066 C   0  0  2  0  0  0  0  0  0  0  0  0
    7.0939  -14.1360   18.2511 N   0  0  0  0  0  0  0  0  0  0  0  0
    8.5523  -15.0411   19.8929 C   0  0  0  0  0  0  0  0  0  0  0  0
    7.5469  -15.6009   20.4639 O   0  0  0  0  0  0  0  0  0  0  0  0
    9.8650  -15.5233   20.1074 N   0  0  0  0  0  0  0  0  0  0  0  0
   10.0477  -16.5919   21.0279 C   0  0  1  0  0  0  0  0  0  0  0  0
   11.2095  -17.4937   20.6709 C   0  0  0  0  0  0  0  0  0  0  0  0
   11.1924  -17.9912   19.2997 C   0  0  0  0  0  0  0  0  0  0  0  0
   10.3590  -18.8631   18.9583 O   0  0  0  0  0  0  0  0  0  0  0  0
   10.3064  -16.0281   22.3820 C   0  0  0  0  0  0  0  0  0  0  0  0
   10.9680  -14.9421   22.4467 O   0  0  0  0  0  0  0  0  0  0  0  0
   12.0699  -17.5524   18.2924 O   0  0  0  0  0  0  0  0  0  0  0  0
    9.8523  -16.6406   23.5573 N   0  0  0  0  0  0  0  0  0  0  0  0
   10.2407  -16.0666   24.8629 C   0  0  1  0  0  0  0  0  0  0  0  0
    9.5730  -14.6968   24.8584 C   0  0  0  0  0  0  0  0  0  0  0  0
    8.2142  -14.6776   25.3937 C   0  0  0  0  0  0  0  0  0  0  0  0
    7.2598  -15.6776   25.3919 C   0  0  0  0  0  0  0  0  0  0  0  0
    6.1886  -15.1651   26.0236 N   0  0  0  0  0  0  0  0  0  0  0  0
    6.4168  -13.8978   26.4237 C   0  0  0  0  0  0  0  0  0  0  0  0
    5.6503  -12.9594   27.1070 C   0  0  0  0  0  0  0  0  0  0  0  0
    6.1452  -11.7104   27.4011 C   0  0  0  0  0  0  0  0  0  0  0  0
    7.4364  -11.3580   27.0160 C   0  0  0  0  0  0  0  0  0  0  0  0
    8.1912  -12.2941   26.3376 C   0  0  0  0  0  0  0  0  0  0  0  0
    7.6898  -13.5497   26.0439 C   0  0  0  0  0  0  0  0  0  0  0  0
    9.7379  -16.9698   25.8862 C   0  0  0  0  0  0  0  0  0  0  0  0
    9.8623  -16.7769   27.1040 O   0  0  0  0  0  0  0  0  0  0  0  0
    9.0646  -18.1383   25.5126 O   0  0  0  0  0  0  0  0  0  0  0  0
  2  1  1  1
  3  2  1  0
  4  6  1  0
  4  2  1  0
  5  4  2  0
  7  8  1  6
  7  6  1  0
  8  9  1  0
  9 10  2  0
 11  7  1  0
 11 14  1  0
 12 11  2  0
 13  9  1  0
 15 14  1  0
 15 26  1  0
 15 16  1  1
 17 16  1  0
 18 17  2  0
 19 20  1  0
 19 18  1  0
 20 25  2  0
 21 22  2  0
 21 20  1  0
 22 23  1  0
 23 24  2  0
 25 17  1  0
 25 24  1  0
 26 28  1  0
 27 26  2  0
M  END
$$$$
