ADW.pdb
     RDKit          3D

 28 29  0  0  1  0  0  0  0  0999 V2000
    8.0326  -12.5516   20.1466 C   0  0  0  0  0  0  0  0  0  0  0  0
    7.9979  -13.8751   19.4476 C   0  0  2  0  0  0  0  0  0  0  0  0
    6.7253  -14.1400   18.8117 N   0  0  0  0  0  0  0  0  0  0  0  0
    8.3277  -15.0215   20.3272 C   0  0  0  0  0  0  0  0  0  0  0  0
    7.3610  -15.6961   20.8379 O   0  0  0  0  0  0  0  0  0  0  0  0
    9.6723  -15.3668   20.6004 N   0  0  0  0  0  0  0  0  0  0  0  0
    9.9240  -16.5318   21.3764 C   0  0  1  0  0  0  0  0  0  0  0  0
   11.0336  -17.3938   20.8142 C   0  0  0  0  0  0  0  0  0  0  0  0
   11.4015  -18.5309   21.6506 C   0  0  0  0  0  0  0  0  0  0  0  0
   10.5847  -19.4631   21.8380 O   0  0  0  0  0  0  0  0  0  0  0  0
   10.3165  -16.1229   22.7537 C   0  0  0  0  0  0  0  0  0  0  0  0
   11.2539  -15.2683   22.8653 O   0  0  0  0  0  0  0  0  0  0  0  0
   12.6481  -18.6694   22.2865 O   0  0  0  0  0  0  0  0  0  0  0  0
    9.6984  -16.6356   23.9016 N   0  0  0  0  0  0  0  0  0  0  0  0
   10.3016  -16.3659   25.2238 C   0  0  1  0  0  0  0  0  0  0  0  0
    9.8668  -14.9368   25.5249 C   0  0  0  0  0  0  0  0  0  0  0  0
    8.4272  -14.7594   25.6963 C   0  0  0  0  0  0  0  0  0  0  0  0
    7.4076  -15.6788   25.5338 C   0  0  0  0  0  0  0  0  0  0  0  0
    6.2709  -15.0242   25.8312 N   0  0  0  0  0  0  0  0  0  0  0  0
    6.5191  -13.7435   26.1728 C   0  0  0  0  0  0  0  0  0  0  0  0
    5.7060  -12.6844   26.5627 C   0  0  0  0  0  0  0  0  0  0  0  0
    6.2355  -11.4531   26.8709 C   0  0  0  0  0  0  0  0  0  0  0  0
    7.6101  -11.2414   26.7973 C   0  0  0  0  0  0  0  0  0  0  0  0
    8.4110  -12.2969   26.4091 C   0  0  0  0  0  0  0  0  0  0  0  0
    7.8744  -13.5341   26.1001 C   0  0  0  0  0  0  0  0  0  0  0  0
    9.7634  -17.3571   26.1422 C   0  0  0  0  0  0  0  0  0  0  0  0
    9.9083  -17.3146   27.3722 O   0  0  0  0  0  0  0  0  0  0  0  0
    9.0289  -18.4396   25.6450 O   0  0  0  0  0  0  0  0  0  0  0  0
  2  1  1  1
  3  2  1  0
  4  6  1  0
  4  2  1  0
  5  4  2  0
  7  8  1  6
  7  6  1  0
  8  9  1  0
  9 10  2  0
 11  7  1  0
 11 14  1  0
 12 11  2  0
 13  9  1  0
 15 14  1  0
 15 26  1  0
 15 16  1  1
 17 16  1  0
 18 17  2  0
 19 20  1  0
 19 18  1  0
 20 25  2  0
 21 22  2  0
 21 20  1  0
 22 23  1  0
 23 24  2  0
 25 17  1  0
 25 24  1  0
 26 28  1  0
 27 26  2  0
M  END
$$$$
