SAW.pdb
     RDKit          3D

 26 27  0  0  1  0  0  0  0  0999 V2000
   28.4767  -19.7185  -18.6198 O   0  0  0  0  0  0  0  0  0  0  0  0
   28.0905  -18.3802  -18.4415 C   0  0  0  0  0  0  0  0  0  0  0  0
   28.8887  -17.8075  -17.2630 C   0  0  2  0  0  0  0  0  0  0  0  0
   30.1666  -18.4028  -17.2824 N   0  0  0  0  0  0  0  0  0  0  0  0
   28.1858  -18.1278  -15.9823 C   0  0  0  0  0  0  0  0  0  0  0  0
   28.7657  -18.8017  -15.1115 O   0  0  0  0  0  0  0  0  0  0  0  0
   24.7575  -17.2501  -14.5612 C   0  0  0  0  0  0  0  0  0  0  0  0
   26.1624  -17.8661  -14.5084 C   0  0  2  0  0  0  0  0  0  0  0  0
   26.8570  -17.6618  -15.7627 N   0  0  0  0  0  0  0  0  0  0  0  0
   25.9621  -19.3237  -14.3316 C   0  0  0  0  0  0  0  0  0  0  0  0
   25.8665  -20.1094  -15.3121 O   0  0  0  0  0  0  0  0  0  0  0  0
   25.8719  -19.8770  -13.0524 N   0  0  0  0  0  0  0  0  0  0  0  0
   25.7963  -21.2959  -12.7719 C   0  0  1  0  0  0  0  0  0  0  0  0
   26.7730  -21.7404  -11.7359 C   0  0  0  0  0  0  0  0  0  0  0  0
   26.4391  -21.0710  -10.4538 C   0  0  0  0  0  0  0  0  0  0  0  0
   25.2347  -20.5048  -10.0537 C   0  0  0  0  0  0  0  0  0  0  0  0
   25.3711  -20.0025   -8.8165 N   0  0  0  0  0  0  0  0  0  0  0  0
   26.6168  -20.2165   -8.3889 C   0  0  0  0  0  0  0  0  0  0  0  0
   27.2461  -19.8943   -7.1996 C   0  0  0  0  0  0  0  0  0  0  0  0
   28.5650  -20.2195   -6.9712 C   0  0  0  0  0  0  0  0  0  0  0  0
   29.2637  -20.8871   -7.9713 C   0  0  0  0  0  0  0  0  0  0  0  0
   28.6239  -21.2020   -9.1515 C   0  0  0  0  0  0  0  0  0  0  0  0
   27.3035  -20.8785   -9.3846 C   0  0  0  0  0  0  0  0  0  0  0  0
   24.4206  -21.6253  -12.3768 C   0  0  0  0  0  0  0  0  0  0  0  0
   24.0190  -22.9526  -12.3838 O   0  0  0  0  0  0  0  0  0  0  0  0
   23.5775  -20.7482  -12.0276 O   0  0  0  0  0  0  0  0  0  0  0  0
  2  3  1  0
  2  1  1  0
  3  4  1  1
  5  6  2  0
  5  3  1  0
  8  7  1  6
  8  9  1  0
  8 10  1  0
  9  5  1  0
 10 11  2  0
 12 10  1  0
 12 13  1  0
 13 14  1  1
 15 16  2  0
 15 14  1  0
 17 16  1  0
 18 23  2  0
 18 17  1  0
 19 18  1  0
 20 19  2  0
 20 21  1  0
 21 22  2  0
 22 23  1  0
 23 15  1  0
 24 25  1  0
 24 13  1  0
 26 24  2  0
M  END
$$$$
