SAW.pdb
     RDKit          3D

 26 27  0  0  1  0  0  0  0  0999 V2000
   26.4740  -22.9860  -15.8846 O   0  0  0  0  0  0  0  0  0  0  0  0
   26.7698  -21.9533  -16.7889 C   0  0  0  0  0  0  0  0  0  0  0  0
   28.1053  -21.3235  -16.3720 C   0  0  2  0  0  0  0  0  0  0  0  0
   29.0977  -22.3199  -16.4721 N   0  0  0  0  0  0  0  0  0  0  0  0
   28.0053  -20.8293  -14.9640 C   0  0  0  0  0  0  0  0  0  0  0  0
   28.7607  -21.2946  -14.0913 O   0  0  0  0  0  0  0  0  0  0  0  0
   25.9387  -18.1087  -13.2729 C   0  0  0  0  0  0  0  0  0  0  0  0
   26.9885  -19.2279  -13.3097 C   0  0  2  0  0  0  0  0  0  0  0  0
   27.0479  -19.8293  -14.6258 N   0  0  0  0  0  0  0  0  0  0  0  0
   26.5163  -20.2613  -12.3583 C   0  0  0  0  0  0  0  0  0  0  0  0
   25.7763  -21.2149  -12.7199 O   0  0  0  0  0  0  0  0  0  0  0  0
   26.8837  -20.2066  -11.0120 N   0  0  0  0  0  0  0  0  0  0  0  0
   26.6407  -21.2599  -10.0482 C   0  0  1  0  0  0  0  0  0  0  0  0
   27.7345  -21.3976   -9.0434 C   0  0  0  0  0  0  0  0  0  0  0  0
   27.5855  -20.3209   -8.0325 C   0  0  0  0  0  0  0  0  0  0  0  0
   26.8540  -19.1423   -8.1155 C   0  0  0  0  0  0  0  0  0  0  0  0
   26.9987  -18.4502   -6.9746 N   0  0  0  0  0  0  0  0  0  0  0  0
   27.7958  -19.1277   -6.1463 C   0  0  0  0  0  0  0  0  0  0  0  0
   28.2457  -18.8432   -4.8693 C   0  0  0  0  0  0  0  0  0  0  0  0
   29.0792  -19.7044   -4.1905 C   0  0  0  0  0  0  0  0  0  0  0  0
   29.4666  -20.8825   -4.8198 C   0  0  0  0  0  0  0  0  0  0  0  0
   29.0105  -21.1533   -6.0926 C   0  0  0  0  0  0  0  0  0  0  0  0
   28.1758  -20.2939   -6.7763 C   0  0  0  0  0  0  0  0  0  0  0  0
   25.3500  -21.0104   -9.3931 C   0  0  0  0  0  0  0  0  0  0  0  0
   24.6684  -19.8363   -9.6765 O   0  0  0  0  0  0  0  0  0  0  0  0
   24.8261  -21.8225   -8.5758 O   0  0  0  0  0  0  0  0  0  0  0  0
  2  3  1  0
  2  1  1  0
  3  4  1  1
  5  6  2  0
  5  3  1  0
  8  7  1  6
  8  9  1  0
  8 10  1  0
  9  5  1  0
 10 11  2  0
 12 10  1  0
 12 13  1  0
 13 14  1  1
 15 16  2  0
 15 14  1  0
 17 16  1  0
 18 23  2  0
 18 17  1  0
 19 18  1  0
 20 19  2  0
 20 21  1  0
 21 22  2  0
 22 23  1  0
 23 15  1  0
 24 25  1  0
 24 13  1  0
 26 24  2  0
M  END
$$$$
