SAW.pdb
     RDKit          3D

 26 27  0  0  1  0  0  0  0  0999 V2000
   26.2051  -22.7485  -15.9680 O   0  0  0  0  0  0  0  0  0  0  0  0
   26.7124  -21.8038  -16.8746 C   0  0  0  0  0  0  0  0  0  0  0  0
   28.1301  -21.4265  -16.4253 C   0  0  2  0  0  0  0  0  0  0  0  0
   28.9499  -22.5602  -16.5997 N   0  0  0  0  0  0  0  0  0  0  0  0
   28.1054  -21.0197  -14.9864 C   0  0  0  0  0  0  0  0  0  0  0  0
   28.6739  -21.7271  -14.1349 O   0  0  0  0  0  0  0  0  0  0  0  0
   26.7940  -17.9492  -13.1485 C   0  0  0  0  0  0  0  0  0  0  0  0
   27.4853  -19.3166  -13.2399 C   0  0  2  0  0  0  0  0  0  0  0  0
   27.4327  -19.8259  -14.5947 N   0  0  0  0  0  0  0  0  0  0  0  0
   26.6972  -20.2302  -12.3796 C   0  0  0  0  0  0  0  0  0  0  0  0
   25.7678  -20.9462  -12.8395 O   0  0  0  0  0  0  0  0  0  0  0  0
   26.9663  -20.3250  -11.0125 N   0  0  0  0  0  0  0  0  0  0  0  0
   26.3123  -21.2460  -10.1060 C   0  0  1  0  0  0  0  0  0  0  0  0
   27.1657  -21.6285   -8.9439 C   0  0  0  0  0  0  0  0  0  0  0  0
   27.2484  -20.4717   -8.0175 C   0  0  0  0  0  0  0  0  0  0  0  0
   26.6555  -19.2199   -8.1309 C   0  0  0  0  0  0  0  0  0  0  0  0
   26.9965  -18.4710   -7.0705 N   0  0  0  0  0  0  0  0  0  0  0  0
   27.7894  -19.1813   -6.2660 C   0  0  0  0  0  0  0  0  0  0  0  0
   28.3980  -18.8640   -5.0648 C   0  0  0  0  0  0  0  0  0  0  0  0
   29.1899  -19.7715   -4.3964 C   0  0  0  0  0  0  0  0  0  0  0  0
   29.3699  -21.0310   -4.9579 C   0  0  0  0  0  0  0  0  0  0  0  0
   28.7572  -21.3336   -6.1556 C   0  0  0  0  0  0  0  0  0  0  0  0
   27.9635  -20.4282   -6.8284 C   0  0  0  0  0  0  0  0  0  0  0  0
   25.0475  -20.6482   -9.6584 C   0  0  0  0  0  0  0  0  0  0  0  0
   24.0910  -21.4616   -9.0698 O   0  0  0  0  0  0  0  0  0  0  0  0
   24.7873  -19.4161   -9.7855 O   0  0  0  0  0  0  0  0  0  0  0  0
  2  3  1  0
  2  1  1  0
  3  4  1  1
  5  6  2  0
  5  3  1  0
  8  7  1  6
  8  9  1  0
  8 10  1  0
  9  5  1  0
 10 11  2  0
 12 10  1  0
 12 13  1  0
 13 14  1  1
 15 16  2  0
 15 14  1  0
 17 16  1  0
 18 23  2  0
 18 17  1  0
 19 18  1  0
 20 19  2  0
 20 21  1  0
 21 22  2  0
 22 23  1  0
 23 15  1  0
 24 25  1  0
 24 13  1  0
 26 24  2  0
M  END
$$$$
