SAW.pdb
     RDKit          3D

 26 27  0  0  1  0  0  0  0  0999 V2000
   25.7554  -25.2842  -16.1451 O   0  0  0  0  0  0  0  0  0  0  0  0
   26.2418  -24.3584  -15.2080 C   0  0  0  0  0  0  0  0  0  0  0  0
   26.7628  -23.1351  -15.9737 C   0  0  2  0  0  0  0  0  0  0  0  0
   27.9167  -23.5321  -16.6797 N   0  0  0  0  0  0  0  0  0  0  0  0
   27.0956  -22.0453  -15.0050 C   0  0  0  0  0  0  0  0  0  0  0  0
   27.9534  -21.1947  -15.3035 O   0  0  0  0  0  0  0  0  0  0  0  0
   24.8986  -20.0938  -14.0629 C   0  0  0  0  0  0  0  0  0  0  0  0
   25.9722  -20.7352  -13.1729 C   0  0  2  0  0  0  0  0  0  0  0  0
   26.4313  -21.9837  -13.7456 N   0  0  0  0  0  0  0  0  0  0  0  0
   25.3046  -21.0434  -11.8863 C   0  0  0  0  0  0  0  0  0  0  0  0
   24.3155  -21.8209  -11.8156 O   0  0  0  0  0  0  0  0  0  0  0  0
   25.7598  -20.4712  -10.6964 N   0  0  0  0  0  0  0  0  0  0  0  0
   25.2045  -20.7425   -9.3865 C   0  0  1  0  0  0  0  0  0  0  0  0
   25.7863  -19.8836   -8.3148 C   0  0  0  0  0  0  0  0  0  0  0  0
   27.2126  -20.2532   -8.1354 C   0  0  0  0  0  0  0  0  0  0  0  0
   28.0535  -20.9329   -9.0084 C   0  0  0  0  0  0  0  0  0  0  0  0
   29.2660  -21.0594   -8.4467 N   0  0  0  0  0  0  0  0  0  0  0  0
   29.2542  -20.4899   -7.2400 C   0  0  0  0  0  0  0  0  0  0  0  0
   30.2405  -20.3571   -6.2790 C   0  0  0  0  0  0  0  0  0  0  0  0
   29.9993  -19.7191   -5.0823 C   0  0  0  0  0  0  0  0  0  0  0  0
   28.7285  -19.2029   -4.8530 C   0  0  0  0  0  0  0  0  0  0  0  0
   27.7551  -19.3425   -5.8196 C   0  0  0  0  0  0  0  0  0  0  0  0
   27.9920  -19.9806   -7.0193 C   0  0  0  0  0  0  0  0  0  0  0  0
   23.7452  -20.5890   -9.4525 C   0  0  0  0  0  0  0  0  0  0  0  0
   23.2044  -19.6903  -10.3597 O   0  0  0  0  0  0  0  0  0  0  0  0
   22.9516  -21.2432   -8.7148 O   0  0  0  0  0  0  0  0  0  0  0  0
  2  3  1  0
  2  1  1  0
  3  4  1  1
  5  6  2  0
  5  3  1  0
  8  7  1  6
  8  9  1  0
  8 10  1  0
  9  5  1  0
 10 11  2  0
 12 10  1  0
 12 13  1  0
 13 14  1  1
 15 16  2  0
 15 14  1  0
 17 16  1  0
 18 23  2  0
 18 17  1  0
 19 18  1  0
 20 19  2  0
 20 21  1  0
 21 22  2  0
 22 23  1  0
 23 15  1  0
 24 25  1  0
 24 13  1  0
 26 24  2  0
M  END
$$$$
