EDF.pdb
     RDKit          3D

 29 29  0  0  1  0  0  0  0  0999 V2000
    8.0493  -16.2082   14.5440 N   0  0  0  0  0  0  0  0  0  0  0  0
    9.2622  -16.5306   15.2357 C   0  0  1  0  0  0  0  0  0  0  0  0
   10.3619  -15.5527   15.0989 C   0  0  0  0  0  0  0  0  0  0  0  0
   11.0873  -15.5184   13.7940 C   0  0  0  0  0  0  0  0  0  0  0  0
   12.2019  -16.4431   13.6479 C   0  0  0  0  0  0  0  0  0  0  0  0
   12.5112  -17.3360   14.4649 O   0  0  0  0  0  0  0  0  0  0  0  0
    8.9693  -16.9136   16.6405 C   0  0  0  0  0  0  0  0  0  0  0  0
    7.8416  -16.6210   17.1073 O   0  0  0  0  0  0  0  0  0  0  0  0
   13.0040  -16.3240   12.4849 O   0  0  0  0  0  0  0  0  0  0  0  0
    9.8844  -17.5848   17.4739 N   0  0  0  0  0  0  0  0  0  0  0  0
    9.5777  -18.0342   18.8317 C   0  0  1  0  0  0  0  0  0  0  0  0
   10.2855  -19.3389   19.0307 C   0  0  0  0  0  0  0  0  0  0  0  0
    9.5933  -20.5073   18.4711 C   0  0  0  0  0  0  0  0  0  0  0  0
   10.1805  -21.0741   17.4890 O   0  0  0  0  0  0  0  0  0  0  0  0
   10.1730  -17.0796   19.8299 C   0  0  0  0  0  0  0  0  0  0  0  0
   11.2872  -16.5618   19.5636 O   0  0  0  0  0  0  0  0  0  0  0  0
    8.4062  -21.0414   18.8856 O   0  0  0  0  0  0  0  0  0  0  0  0
    9.5409  -16.7479   21.0337 N   0  0  0  0  0  0  0  0  0  0  0  0
   10.1090  -15.7687   21.9816 C   0  0  1  0  0  0  0  0  0  0  0  0
    9.0508  -14.8481   22.4846 C   0  0  0  0  0  0  0  0  0  0  0  0
    8.4345  -14.1178   21.3695 C   0  0  0  0  0  0  0  0  0  0  0  0
    7.1435  -14.4609   20.9732 C   0  0  0  0  0  0  0  0  0  0  0  0
    6.4687  -13.8374   19.9658 C   0  0  0  0  0  0  0  0  0  0  0  0
    7.0830  -12.7954   19.2783 C   0  0  0  0  0  0  0  0  0  0  0  0
    8.3652  -12.4370   19.6545 C   0  0  0  0  0  0  0  0  0  0  0  0
    9.0194  -13.0831   20.6731 C   0  0  0  0  0  0  0  0  0  0  0  0
   10.7378  -16.5298   23.0658 C   0  0  0  0  0  0  0  0  0  0  0  0
   10.5739  -17.8933   23.1470 O   0  0  0  0  0  0  0  0  0  0  0  0
   11.4290  -15.9483   23.9277 O   0  0  0  0  0  0  0  0  0  0  0  0
  2  1  1  1
  2  3  1  0
  2  7  1  0
  3  4  1  0
  4  5  1  0
  5  9  1  0
  5  6  2  0
  7 10  1  0
  7  8  2  0
 10 11  1  0
 11 12  1  1
 13 12  1  0
 13 17  1  0
 14 13  2  0
 15 11  1  0
 15 16  2  0
 18 15  1  0
 19 18  1  0
 19 20  1  1
 21 20  1  0
 21 22  2  0
 23 22  1  0
 24 23  2  0
 25 26  2  0
 25 24  1  0
 26 21  1  0
 27 19  1  0
 28 27  1  0
 29 27  2  0
M  END
$$$$
