EDF.pdb
     RDKit          3D

 29 29  0  0  1  0  0  0  0  0999 V2000
    7.3111  -15.1904   20.5503 N   0  0  0  0  0  0  0  0  0  0  0  0
    7.1850  -16.5807   20.8739 C   0  0  1  0  0  0  0  0  0  0  0  0
    6.8760  -17.4805   19.7428 C   0  0  0  0  0  0  0  0  0  0  0  0
    7.8822  -17.5652   18.6426 C   0  0  0  0  0  0  0  0  0  0  0  0
    7.5613  -18.4576   17.5384 C   0  0  0  0  0  0  0  0  0  0  0  0
    6.5399  -19.1727   17.4614 O   0  0  0  0  0  0  0  0  0  0  0  0
    8.3371  -17.0255   21.6989 C   0  0  0  0  0  0  0  0  0  0  0  0
    8.3467  -18.2132   22.1045 O   0  0  0  0  0  0  0  0  0  0  0  0
    8.4801  -18.5233   16.4606 O   0  0  0  0  0  0  0  0  0  0  0  0
    9.4152  -16.1904   22.0494 N   0  0  0  0  0  0  0  0  0  0  0  0
   10.5375  -16.6110   22.8878 C   0  0  1  0  0  0  0  0  0  0  0  0
   11.7411  -15.8528   22.4197 C   0  0  0  0  0  0  0  0  0  0  0  0
   13.0173  -16.3143   22.9816 C   0  0  0  0  0  0  0  0  0  0  0  0
   13.9956  -15.5027   22.8597 O   0  0  0  0  0  0  0  0  0  0  0  0
   10.2996  -16.1809   24.3092 C   0  0  0  0  0  0  0  0  0  0  0  0
   10.9736  -15.2194   24.7584 O   0  0  0  0  0  0  0  0  0  0  0  0
   13.2621  -17.5021   23.6105 O   0  0  0  0  0  0  0  0  0  0  0  0
    9.3656  -16.8036   25.1449 N   0  0  0  0  0  0  0  0  0  0  0  0
    9.2229  -16.4523   26.5718 C   0  0  1  0  0  0  0  0  0  0  0  0
    7.8493  -15.9493   26.8553 C   0  0  0  0  0  0  0  0  0  0  0  0
    7.7217  -14.5462   26.4407 C   0  0  0  0  0  0  0  0  0  0  0  0
    8.2606  -13.5528   27.2557 C   0  0  0  0  0  0  0  0  0  0  0  0
    8.2175  -12.2227   26.9592 C   0  0  0  0  0  0  0  0  0  0  0  0
    7.6056  -11.8078   25.7806 C   0  0  0  0  0  0  0  0  0  0  0  0
    7.0633  -12.7767   24.9552 C   0  0  0  0  0  0  0  0  0  0  0  0
    7.1222  -14.1086   25.2801 C   0  0  0  0  0  0  0  0  0  0  0  0
    9.5399  -17.6554   27.3480 C   0  0  0  0  0  0  0  0  0  0  0  0
    9.6579  -17.5909   28.7171 O   0  0  0  0  0  0  0  0  0  0  0  0
    9.7066  -18.7517   26.7745 O   0  0  0  0  0  0  0  0  0  0  0  0
  2  1  1  6
  2  3  1  0
  2  7  1  0
  3  4  1  0
  4  5  1  0
  5  9  1  0
  5  6  2  0
  7 10  1  0
  7  8  2  0
 10 11  1  0
 11 12  1  6
 13 12  1  0
 13 17  1  0
 14 13  2  0
 15 11  1  0
 15 16  2  0
 18 15  1  0
 19 18  1  0
 19 20  1  6
 21 20  1  0
 21 22  2  0
 23 22  1  0
 24 23  2  0
 25 26  2  0
 25 24  1  0
 26 21  1  0
 27 19  1  0
 28 27  1  0
 29 27  2  0
M  END
$$$$
