EDF.pdb
     RDKit          3D

 29 29  0  0  1  0  0  0  0  0999 V2000
    9.0430  -12.8202   19.8487 N   0  0  0  0  0  0  0  0  0  0  0  0
    7.9221  -13.7017   19.7065 C   0  0  1  0  0  0  0  0  0  0  0  0
    7.4929  -13.9802   18.3199 C   0  0  0  0  0  0  0  0  0  0  0  0
    8.4544  -14.7096   17.4405 C   0  0  0  0  0  0  0  0  0  0  0  0
    7.9621  -15.1033   16.1285 C   0  0  0  0  0  0  0  0  0  0  0  0
    7.5940  -16.2540   15.8108 O   0  0  0  0  0  0  0  0  0  0  0  0
    8.1157  -14.9207   20.5326 C   0  0  0  0  0  0  0  0  0  0  0  0
    7.1759  -15.7510   20.5855 O   0  0  0  0  0  0  0  0  0  0  0  0
    7.8930  -14.1021   15.1270 O   0  0  0  0  0  0  0  0  0  0  0  0
    9.2916  -15.1946   21.2567 N   0  0  0  0  0  0  0  0  0  0  0  0
    9.4759  -16.3733   22.1032 C   0  0  1  0  0  0  0  0  0  0  0  0
   10.8399  -16.9157   21.8063 C   0  0  0  0  0  0  0  0  0  0  0  0
   10.8549  -18.1187   20.9637 C   0  0  0  0  0  0  0  0  0  0  0  0
    9.7328  -18.7150   20.8393 O   0  0  0  0  0  0  0  0  0  0  0  0
    9.4955  -15.9624   23.5498 C   0  0  0  0  0  0  0  0  0  0  0  0
   10.3520  -15.1175   23.9146 O   0  0  0  0  0  0  0  0  0  0  0  0
   11.9273  -18.6566   20.3103 O   0  0  0  0  0  0  0  0  0  0  0  0
    8.6056  -16.4794   24.4982 N   0  0  0  0  0  0  0  0  0  0  0  0
    8.6883  -16.1339   25.9312 C   0  0  1  0  0  0  0  0  0  0  0  0
    7.3755  -15.6347   26.4290 C   0  0  0  0  0  0  0  0  0  0  0  0
    7.2858  -14.1780   26.2656 C   0  0  0  0  0  0  0  0  0  0  0  0
    6.3710  -13.6592   25.3516 C   0  0  0  0  0  0  0  0  0  0  0  0
    6.1899  -12.3255   25.1340 C   0  0  0  0  0  0  0  0  0  0  0  0
    6.9504  -11.4092   25.8536 C   0  0  0  0  0  0  0  0  0  0  0  0
    7.8655  -11.9013   26.7672 C   0  0  0  0  0  0  0  0  0  0  0  0
    8.0255  -13.2497   26.9648 C   0  0  0  0  0  0  0  0  0  0  0  0
    9.1249  -17.3393   26.6431 C   0  0  0  0  0  0  0  0  0  0  0  0
    9.5877  -17.2564   27.9360 O   0  0  0  0  0  0  0  0  0  0  0  0
    9.0818  -18.4543   26.0832 O   0  0  0  0  0  0  0  0  0  0  0  0
  2  1  1  6
  2  3  1  0
  2  7  1  0
  3  4  1  0
  4  5  1  0
  5  9  1  0
  5  6  2  0
  7 10  1  0
  7  8  2  0
 10 11  1  0
 11 12  1  6
 13 12  1  0
 13 17  1  0
 14 13  2  0
 15 11  1  0
 15 16  2  0
 18 15  1  0
 19 18  1  0
 19 20  1  1
 21 20  1  0
 21 22  2  0
 23 22  1  0
 24 23  2  0
 25 26  2  0
 25 24  1  0
 26 21  1  0
 27 19  1  0
 28 27  1  0
 29 27  2  0
M  END
$$$$
