EDF.pdb
     RDKit          3D

 29 29  0  0  1  0  0  0  0  0999 V2000
    8.7750  -12.8916   19.7772 N   0  0  0  0  0  0  0  0  0  0  0  0
    7.8015  -13.9314   19.6199 C   0  0  1  0  0  0  0  0  0  0  0  0
    7.4232  -14.2554   18.2284 C   0  0  0  0  0  0  0  0  0  0  0  0
    8.5293  -14.5646   17.2740 C   0  0  0  0  0  0  0  0  0  0  0  0
    8.1395  -14.8494   15.9008 C   0  0  0  0  0  0  0  0  0  0  0  0
    8.9252  -15.1253   14.9696 O   0  0  0  0  0  0  0  0  0  0  0  0
    8.1761  -15.1166   20.4329 C   0  0  0  0  0  0  0  0  0  0  0  0
    7.3841  -16.0901   20.4536 O   0  0  0  0  0  0  0  0  0  0  0  0
    6.7565  -14.8116   15.5910 O   0  0  0  0  0  0  0  0  0  0  0  0
    9.3668  -15.2073   21.1787 N   0  0  0  0  0  0  0  0  0  0  0  0
    9.7193  -16.3490   22.0226 C   0  0  1  0  0  0  0  0  0  0  0  0
   11.1697  -16.6365   21.7855 C   0  0  0  0  0  0  0  0  0  0  0  0
   11.7104  -17.7598   22.5621 C   0  0  0  0  0  0  0  0  0  0  0  0
   11.0171  -18.8316   22.5316 O   0  0  0  0  0  0  0  0  0  0  0  0
    9.6009  -15.9657   23.4721 C   0  0  0  0  0  0  0  0  0  0  0  0
   10.3831  -15.0890   23.9193 O   0  0  0  0  0  0  0  0  0  0  0  0
   12.8591  -17.7763   23.3014 O   0  0  0  0  0  0  0  0  0  0  0  0
    8.6624  -16.5419   24.3357 N   0  0  0  0  0  0  0  0  0  0  0  0
    8.6519  -16.2705   25.7869 C   0  0  1  0  0  0  0  0  0  0  0  0
    7.3105  -15.7903   26.2230 C   0  0  0  0  0  0  0  0  0  0  0  0
    7.2570  -14.3230   26.1936 C   0  0  0  0  0  0  0  0  0  0  0  0
    8.0510  -13.6035   27.0843 C   0  0  0  0  0  0  0  0  0  0  0  0
    8.0953  -12.2416   27.1308 C   0  0  0  0  0  0  0  0  0  0  0  0
    7.3117  -11.5048   26.2484 C   0  0  0  0  0  0  0  0  0  0  0  0
    6.5149  -12.1978   25.3545 C   0  0  0  0  0  0  0  0  0  0  0  0
    6.4914  -13.5696   25.3310 C   0  0  0  0  0  0  0  0  0  0  0  0
    9.0385  -17.5131   26.4629 C   0  0  0  0  0  0  0  0  0  0  0  0
    9.2634  -18.6605   25.7379 O   0  0  0  0  0  0  0  0  0  0  0  0
    9.1676  -17.5434   27.7043 O   0  0  0  0  0  0  0  0  0  0  0  0
  2  1  1  6
  2  3  1  0
  2  7  1  0
  3  4  1  0
  4  5  1  0
  5  9  1  0
  5  6  2  0
  7 10  1  0
  7  8  2  0
 10 11  1  0
 11 12  1  1
 13 12  1  0
 13 17  1  0
 14 13  2  0
 15 11  1  0
 15 16  2  0
 18 15  1  0
 19 18  1  0
 19 20  1  1
 21 20  1  0
 21 22  2  0
 23 22  1  0
 24 23  2  0
 25 26  2  0
 25 24  1  0
 26 21  1  0
 27 19  1  0
 28 27  1  0
 29 27  2  0
M  END
$$$$
