EDF.pdb
     RDKit          3D

 29 29  0  0  1  0  0  0  0  0999 V2000
    9.1266  -12.9182   19.8774 N   0  0  0  0  0  0  0  0  0  0  0  0
    8.0675  -13.8823   19.8285 C   0  0  1  0  0  0  0  0  0  0  0  0
    7.5824  -14.2393   18.4788 C   0  0  0  0  0  0  0  0  0  0  0  0
    8.6079  -14.4056   17.4061 C   0  0  0  0  0  0  0  0  0  0  0  0
    8.1092  -14.7308   16.0779 C   0  0  0  0  0  0  0  0  0  0  0  0
    6.9064  -14.8773   15.7741 O   0  0  0  0  0  0  0  0  0  0  0  0
    8.3968  -15.0547   20.6789 C   0  0  0  0  0  0  0  0  0  0  0  0
    7.5286  -15.9523   20.8052 O   0  0  0  0  0  0  0  0  0  0  0  0
    9.0631  -14.8954   15.0419 O   0  0  0  0  0  0  0  0  0  0  0  0
    9.6252  -15.2134   21.3483 N   0  0  0  0  0  0  0  0  0  0  0  0
    9.9293  -16.3257   22.2482 C   0  0  1  0  0  0  0  0  0  0  0  0
   11.3753  -16.6630   22.0532 C   0  0  0  0  0  0  0  0  0  0  0  0
   11.6567  -17.5257   20.8983 C   0  0  0  0  0  0  0  0  0  0  0  0
   12.5271  -17.0777   20.0784 O   0  0  0  0  0  0  0  0  0  0  0  0
    9.7944  -15.8756   23.6769 C   0  0  0  0  0  0  0  0  0  0  0  0
   10.4222  -14.8475   24.0364 O   0  0  0  0  0  0  0  0  0  0  0  0
   11.0931  -18.7375   20.6152 O   0  0  0  0  0  0  0  0  0  0  0  0
    9.0042  -16.5505   24.6143 N   0  0  0  0  0  0  0  0  0  0  0  0
    8.8401  -16.0718   26.0013 C   0  0  1  0  0  0  0  0  0  0  0  0
    7.4147  -15.7365   26.2773 C   0  0  0  0  0  0  0  0  0  0  0  0
    7.1580  -14.3183   25.9950 C   0  0  0  0  0  0  0  0  0  0  0  0
    7.6375  -13.3585   26.8840 C   0  0  0  0  0  0  0  0  0  0  0  0
    7.4747  -12.0160   26.7107 C   0  0  0  0  0  0  0  0  0  0  0  0
    6.7940  -11.5522   25.5894 C   0  0  0  0  0  0  0  0  0  0  0  0
    6.3087  -12.4872   24.6924 C   0  0  0  0  0  0  0  0  0  0  0  0
    6.4883  -13.8326   24.8935 C   0  0  0  0  0  0  0  0  0  0  0  0
    9.3384  -17.1294   26.8865 C   0  0  0  0  0  0  0  0  0  0  0  0
    9.7609  -18.3314   26.3678 O   0  0  0  0  0  0  0  0  0  0  0  0
    9.3844  -16.9504   28.1212 O   0  0  0  0  0  0  0  0  0  0  0  0
  2  1  1  6
  2  3  1  0
  2  7  1  0
  3  4  1  0
  4  5  1  0
  5  9  1  0
  5  6  2  0
  7 10  1  0
  7  8  2  0
 10 11  1  0
 11 12  1  1
 13 12  1  0
 13 17  1  0
 14 13  2  0
 15 11  1  0
 15 16  2  0
 18 15  1  0
 19 18  1  0
 19 20  1  1
 21 20  1  0
 21 22  2  0
 23 22  1  0
 24 23  2  0
 25 26  2  0
 25 24  1  0
 26 21  1  0
 27 19  1  0
 28 27  1  0
 29 27  2  0
M  END
$$$$
