EDF.pdb
     RDKit          3D

 29 29  0  0  1  0  0  0  0  0999 V2000
    7.7324  -16.9575   19.0803 N   0  0  0  0  0  0  0  0  0  0  0  0
    7.9078  -16.1350   20.2406 C   0  0  1  0  0  0  0  0  0  0  0  0
    6.6701  -15.7481   20.9496 C   0  0  0  0  0  0  0  0  0  0  0  0
    5.8011  -16.8508   21.4586 C   0  0  0  0  0  0  0  0  0  0  0  0
    5.8623  -17.1165   22.8883 C   0  0  0  0  0  0  0  0  0  0  0  0
    6.4305  -18.0952   23.4172 O   0  0  0  0  0  0  0  0  0  0  0  0
    8.9543  -16.7072   21.1258 C   0  0  0  0  0  0  0  0  0  0  0  0
    9.0493  -17.9569   21.1930 O   0  0  0  0  0  0  0  0  0  0  0  0
    5.2265  -16.1914   23.7546 O   0  0  0  0  0  0  0  0  0  0  0  0
    9.8423  -15.9268   21.8906 N   0  0  0  0  0  0  0  0  0  0  0  0
   10.8664  -16.4822   22.7751 C   0  0  1  0  0  0  0  0  0  0  0  0
   12.1473  -15.7731   22.4601 C   0  0  0  0  0  0  0  0  0  0  0  0
   13.3431  -16.3540   23.0845 C   0  0  0  0  0  0  0  0  0  0  0  0
   13.5020  -17.6080   22.9035 O   0  0  0  0  0  0  0  0  0  0  0  0
   10.5421  -16.1438   24.2041 C   0  0  0  0  0  0  0  0  0  0  0  0
   11.1422  -15.1750   24.7348 O   0  0  0  0  0  0  0  0  0  0  0  0
   14.2873  -15.7025   23.8264 O   0  0  0  0  0  0  0  0  0  0  0  0
    9.6066  -16.8590   24.9604 N   0  0  0  0  0  0  0  0  0  0  0  0
    9.3182  -16.5367   26.3720 C   0  0  1  0  0  0  0  0  0  0  0  0
    7.8621  -16.2888   26.5686 C   0  0  0  0  0  0  0  0  0  0  0  0
    7.5454  -14.8756   26.3247 C   0  0  0  0  0  0  0  0  0  0  0  0
    6.2271  -14.5206   26.0461 C   0  0  0  0  0  0  0  0  0  0  0  0
    5.8178  -13.2393   25.8240 C   0  0  0  0  0  0  0  0  0  0  0  0
    6.7511  -12.2086   25.8728 C   0  0  0  0  0  0  0  0  0  0  0  0
    8.0666  -12.5372   26.1480 C   0  0  0  0  0  0  0  0  0  0  0  0
    8.4490  -13.8366   26.3675 C   0  0  0  0  0  0  0  0  0  0  0  0
    9.7993  -17.6616   27.1804 C   0  0  0  0  0  0  0  0  0  0  0  0
   10.1931  -18.8345   26.5789 O   0  0  0  0  0  0  0  0  0  0  0  0
    9.8567  -17.5672   28.4239 O   0  0  0  0  0  0  0  0  0  0  0  0
  2  1  1  6
  2  3  1  0
  2  7  1  0
  3  4  1  0
  4  5  1  0
  5  9  1  0
  5  6  2  0
  7 10  1  0
  7  8  2  0
 10 11  1  0
 11 12  1  6
 13 12  1  0
 13 17  1  0
 14 13  2  0
 15 11  1  0
 15 16  2  0
 18 15  1  0
 19 18  1  0
 19 20  1  6
 21 20  1  0
 21 22  2  0
 23 22  1  0
 24 23  2  0
 25 26  2  0
 25 24  1  0
 26 21  1  0
 27 19  1  0
 28 27  1  0
 29 27  2  0
M  END
$$$$
