EDF.pdb
     RDKit          3D

 29 29  0  0  1  0  0  0  0  0999 V2000
    8.2439  -13.1732   19.1611 N   0  0  0  0  0  0  0  0  0  0  0  0
    8.7036  -14.5270   19.2584 C   0  0  1  0  0  0  0  0  0  0  0  0
   10.1257  -14.7506   18.9238 C   0  0  0  0  0  0  0  0  0  0  0  0
   11.1102  -13.7412   19.4154 C   0  0  0  0  0  0  0  0  0  0  0  0
   12.5107  -14.0038   19.1180 C   0  0  0  0  0  0  0  0  0  0  0  0
   13.4677  -13.2692   19.4420 O   0  0  0  0  0  0  0  0  0  0  0  0
    8.2903  -15.1207   20.5556 C   0  0  0  0  0  0  0  0  0  0  0  0
    7.5646  -14.4319   21.3134 O   0  0  0  0  0  0  0  0  0  0  0  0
   12.8176  -15.1888   18.4027 O   0  0  0  0  0  0  0  0  0  0  0  0
    8.6669  -16.4094   20.9798 N   0  0  0  0  0  0  0  0  0  0  0  0
    8.1642  -17.0507   22.1945 C   0  0  1  0  0  0  0  0  0  0  0  0
    8.4944  -18.5076   22.0884 C   0  0  0  0  0  0  0  0  0  0  0  0
    7.7239  -19.2421   21.0763 C   0  0  0  0  0  0  0  0  0  0  0  0
    8.3815  -20.1108   20.4104 O   0  0  0  0  0  0  0  0  0  0  0  0
    8.9186  -16.5375   23.3901 C   0  0  0  0  0  0  0  0  0  0  0  0
   10.1262  -16.2224   23.2386 O   0  0  0  0  0  0  0  0  0  0  0  0
    6.3988  -19.0945   20.7785 O   0  0  0  0  0  0  0  0  0  0  0  0
    8.3345  -16.3982   24.6542 N   0  0  0  0  0  0  0  0  0  0  0  0
    9.0784  -15.8712   25.8155 C   0  0  1  0  0  0  0  0  0  0  0  0
    8.1418  -15.3187   26.8342 C   0  0  0  0  0  0  0  0  0  0  0  0
    7.6356  -14.0079   26.4074 C   0  0  0  0  0  0  0  0  0  0  0  0
    6.3209  -13.9093   25.9563 C   0  0  0  0  0  0  0  0  0  0  0  0
    5.7423  -12.7416   25.5557 C   0  0  0  0  0  0  0  0  0  0  0  0
    6.4866  -11.5666   25.5897 C   0  0  0  0  0  0  0  0  0  0  0  0
    7.7947  -11.6401   26.0341 C   0  0  0  0  0  0  0  0  0  0  0  0
    8.3501  -12.8303   26.4314 C   0  0  0  0  0  0  0  0  0  0  0  0
    9.8853  -16.9731   26.3495 C   0  0  0  0  0  0  0  0  0  0  0  0
    9.7747  -18.2383   25.8209 O   0  0  0  0  0  0  0  0  0  0  0  0
   10.6818  -16.7749   27.2903 O   0  0  0  0  0  0  0  0  0  0  0  0
  2  1  1  1
  2  3  1  0
  2  7  1  0
  3  4  1  0
  4  5  1  0
  5  9  1  0
  5  6  2  0
  7 10  1  0
  7  8  2  0
 10 11  1  0
 11 12  1  6
 13 12  1  0
 13 17  1  0
 14 13  2  0
 15 11  1  0
 15 16  2  0
 18 15  1  0
 19 18  1  0
 19 20  1  1
 21 20  1  0
 21 22  2  0
 23 22  1  0
 24 23  2  0
 25 26  2  0
 25 24  1  0
 26 21  1  0
 27 19  1  0
 28 27  1  0
 29 27  2  0
M  END
$$$$
