SKL.pdb
     RDKit          3D

 24 23  0  0  1  0  0  0  0  0999 V2000
   21.7968  -13.9972  -16.0563 O   0  0  0  0  0  0  0  0  0  0  0  0
   23.1073  -14.2312  -16.3778 C   0  0  0  0  0  0  0  0  0  0  0  0
   23.2981  -15.3702  -17.3517 C   0  0  2  0  0  0  0  0  0  0  0  0
   22.9287  -14.9697  -18.6884 N   0  0  0  0  0  0  0  0  0  0  0  0
   22.5808  -16.5955  -16.9304 C   0  0  0  0  0  0  0  0  0  0  0  0
   21.4905  -16.8606  -17.4926 O   0  0  0  0  0  0  0  0  0  0  0  0
   23.0801  -17.4479  -15.9399 N   0  0  0  0  0  0  0  0  0  0  0  0
   22.4828  -18.7004  -15.5446 C   0  0  1  0  0  0  0  0  0  0  0  0
   23.5944  -19.5282  -14.8852 C   0  0  0  0  0  0  0  0  0  0  0  0
   23.0869  -20.9605  -14.7400 C   0  0  0  0  0  0  0  0  0  0  0  0
   24.2247  -21.7703  -14.1739 C   0  0  0  0  0  0  0  0  0  0  0  0
   23.8235  -23.2086  -14.1036 C   0  0  0  0  0  0  0  0  0  0  0  0
   24.9057  -23.9657  -13.5304 N   0  0  0  0  0  0  0  0  0  0  0  0
   21.4069  -18.5526  -14.5558 C   0  0  0  0  0  0  0  0  0  0  0  0
   21.5732  -17.9934  -13.4481 O   0  0  0  0  0  0  0  0  0  0  0  0
   17.4219  -15.4720  -15.0165 C   0  0  0  0  0  0  0  0  0  0  0  0
   18.4044  -16.3547  -14.1808 C   0  0  1  0  0  0  0  0  0  0  0  0
   18.1641  -15.9931  -12.7193 C   0  0  0  0  0  0  0  0  0  0  0  0
   18.1307  -17.7819  -14.4921 C   0  0  0  0  0  0  0  0  0  0  0  0
   18.9906  -18.8272  -13.9316 C   0  0  2  0  0  0  0  0  0  0  0  0
   20.1307  -19.0685  -14.8792 N   0  0  0  0  0  0  0  0  0  0  0  0
   18.4802  -20.0954  -13.4636 C   0  0  0  0  0  0  0  0  0  0  0  0
   18.4749  -21.2058  -14.0321 O   0  0  0  0  0  0  0  0  0  0  0  0
   17.8915  -20.1038  -12.1654 O   0  0  0  0  0  0  0  0  0  0  0  0
  2  1  1  0
  3  2  1  0
  3  4  1  6
  5  6  2  0
  5  3  1  0
  7  5  1  0
  8  9  1  1
  8  7  1  0
  9 10  1  0
 11 10  1  0
 11 12  1  0
 12 13  1  0
 14  8  1  0
 15 14  2  0
 17 16  1  6
 18 17  1  0
 19 17  1  0
 20 19  1  6
 20 21  1  0
 21 14  1  0
 22 24  1  0
 22 20  1  0
 23 22  2  0
M  END
$$$$
