SKL.pdb
     RDKit          3D

 24 23  0  0  1  0  0  0  0  0999 V2000
   28.5306  -17.7497  -15.7724 O   0  0  0  0  0  0  0  0  0  0  0  0
   27.4354  -18.5378  -15.5381 C   0  0  0  0  0  0  0  0  0  0  0  0
   27.7785  -19.9081  -15.0028 C   0  0  2  0  0  0  0  0  0  0  0  0
   28.4349  -20.7039  -16.0125 N   0  0  0  0  0  0  0  0  0  0  0  0
   26.5977  -20.6035  -14.4411 C   0  0  0  0  0  0  0  0  0  0  0  0
   25.9610  -21.3810  -15.1929 O   0  0  0  0  0  0  0  0  0  0  0  0
   26.1833  -20.4179  -13.1179 N   0  0  0  0  0  0  0  0  0  0  0  0
   24.8937  -20.7944  -12.5916 C   0  0  1  0  0  0  0  0  0  0  0  0
   24.9482  -20.5477  -11.0777 C   0  0  0  0  0  0  0  0  0  0  0  0
   23.6669  -21.1085  -10.4664 C   0  0  0  0  0  0  0  0  0  0  0  0
   23.7402  -20.8458   -8.9844 C   0  0  0  0  0  0  0  0  0  0  0  0
   22.5210  -21.4007   -8.3208 C   0  0  0  0  0  0  0  0  0  0  0  0
   22.5565  -21.0592   -6.9227 N   0  0  0  0  0  0  0  0  0  0  0  0
   23.7846  -19.9913  -13.1227 C   0  0  0  0  0  0  0  0  0  0  0  0
   23.7910  -18.7394  -13.1240 O   0  0  0  0  0  0  0  0  0  0  0  0
   21.3853  -17.4219  -16.5020 C   0  0  0  0  0  0  0  0  0  0  0  0
   20.9406  -18.9187  -16.5702 C   0  0  1  0  0  0  0  0  0  0  0  0
   20.9903  -19.3113  -18.0426 C   0  0  0  0  0  0  0  0  0  0  0  0
   21.8538  -19.7173  -15.7116 C   0  0  0  0  0  0  0  0  0  0  0  0
   21.5620  -19.8711  -14.2842 C   0  0  2  0  0  0  0  0  0  0  0  0
   22.6648  -20.6723  -13.6536 N   0  0  0  0  0  0  0  0  0  0  0  0
   20.2873  -20.3390  -13.7902 C   0  0  0  0  0  0  0  0  0  0  0  0
   19.9565  -21.4788  -13.4059 O   0  0  0  0  0  0  0  0  0  0  0  0
   19.2387  -19.3756  -13.7236 O   0  0  0  0  0  0  0  0  0  0  0  0
  2  1  1  0
  3  2  1  0
  3  4  1  6
  5  6  2  0
  5  3  1  0
  7  5  1  0
  8  9  1  1
  8  7  1  0
  9 10  1  0
 11 10  1  0
 11 12  1  0
 12 13  1  0
 14  8  1  0
 15 14  2  0
 17 16  1  6
 18 17  1  0
 19 17  1  0
 20 19  1  6
 20 21  1  0
 21 14  1  0
 22 24  1  0
 22 20  1  0
 23 22  2  0
M  END
$$$$
