SKL.pdb
     RDKit          3D

 24 23  0  0  1  0  0  0  0  0999 V2000
   24.6462  -17.0758  -17.6954 O   0  0  0  0  0  0  0  0  0  0  0  0
   24.2706  -15.7627  -17.5951 C   0  0  0  0  0  0  0  0  0  0  0  0
   23.4888  -15.2635  -18.7875 C   0  0  2  0  0  0  0  0  0  0  0  0
   24.3105  -15.2585  -19.9742 N   0  0  0  0  0  0  0  0  0  0  0  0
   22.8750  -13.9382  -18.5421 C   0  0  0  0  0  0  0  0  0  0  0  0
   23.5361  -12.9179  -18.8535 O   0  0  0  0  0  0  0  0  0  0  0  0
   21.6006  -13.7995  -17.9821 N   0  0  0  0  0  0  0  0  0  0  0  0
   20.9565  -12.5428  -17.6864 C   0  0  1  0  0  0  0  0  0  0  0  0
   19.5073  -12.8717  -17.3025 C   0  0  0  0  0  0  0  0  0  0  0  0
   18.7363  -11.5571  -17.2179 C   0  0  0  0  0  0  0  0  0  0  0  0
   17.3204  -11.9063  -16.8385 C   0  0  0  0  0  0  0  0  0  0  0  0
   16.5003  -10.6579  -16.7777 C   0  0  0  0  0  0  0  0  0  0  0  0
   16.1567  -10.3937  -15.4048 N   0  0  0  0  0  0  0  0  0  0  0  0
   21.5547  -11.8280  -16.5513 C   0  0  0  0  0  0  0  0  0  0  0  0
   21.8900  -12.3987  -15.4886 O   0  0  0  0  0  0  0  0  0  0  0  0
   26.2930  -10.9918  -15.0463 C   0  0  0  0  0  0  0  0  0  0  0  0
   25.1407   -9.9376  -14.9874 C   0  0  1  0  0  0  0  0  0  0  0  0
   25.7158   -8.6455  -15.5570 C   0  0  0  0  0  0  0  0  0  0  0  0
   23.9851  -10.4643  -15.7594 C   0  0  0  0  0  0  0  0  0  0  0  0
   22.7048   -9.7530  -15.7297 C   0  0  2  0  0  0  0  0  0  0  0  0
   21.7566  -10.4339  -16.6748 N   0  0  0  0  0  0  0  0  0  0  0  0
   22.5989   -8.3213  -15.8939 C   0  0  0  0  0  0  0  0  0  0  0  0
   22.3664   -7.6570  -16.9238 O   0  0  0  0  0  0  0  0  0  0  0  0
   22.7838   -7.5314  -14.7217 O   0  0  0  0  0  0  0  0  0  0  0  0
  2  1  1  0
  3  2  1  0
  3  4  1  6
  5  6  2  0
  5  3  1  0
  7  5  1  0
  8  9  1  1
  8  7  1  0
  9 10  1  0
 11 10  1  0
 11 12  1  0
 12 13  1  0
 14  8  1  0
 15 14  2  0
 17 16  1  6
 18 17  1  0
 19 17  1  0
 20 19  1  6
 20 21  1  0
 21 14  1  0
 22 24  1  0
 22 20  1  0
 23 22  2  0
M  END
$$$$
