SKL.pdb
     RDKit          3D

 24 23  0  0  1  0  0  0  0  0999 V2000
   23.0355  -20.1533   -9.4573 O   0  0  0  0  0  0  0  0  0  0  0  0
   23.7330  -21.3291   -9.5366 C   0  0  0  0  0  0  0  0  0  0  0  0
   25.1442  -21.1629  -10.0495 C   0  0  2  0  0  0  0  0  0  0  0  0
   25.9615  -20.4651   -9.0858 N   0  0  0  0  0  0  0  0  0  0  0  0
   25.1858  -20.5083  -11.3773 C   0  0  0  0  0  0  0  0  0  0  0  0
   25.8093  -19.4238  -11.4785 O   0  0  0  0  0  0  0  0  0  0  0  0
   24.5588  -21.0596  -12.4998 N   0  0  0  0  0  0  0  0  0  0  0  0
   24.4455  -20.4167  -13.7865 C   0  0  1  0  0  0  0  0  0  0  0  0
   25.1767  -21.3160  -14.7926 C   0  0  0  0  0  0  0  0  0  0  0  0
   24.5324  -22.6987  -14.7378 C   0  0  0  0  0  0  0  0  0  0  0  0
   25.2621  -23.5590  -15.7369 C   0  0  0  0  0  0  0  0  0  0  0  0
   24.5912  -24.8917  -15.8282 C   0  0  0  0  0  0  0  0  0  0  0  0
   25.2739  -25.6895  -16.8133 N   0  0  0  0  0  0  0  0  0  0  0  0
   23.0603  -20.2783  -14.2547 C   0  0  0  0  0  0  0  0  0  0  0  0
   22.1478  -21.0685  -13.9225 O   0  0  0  0  0  0  0  0  0  0  0  0
   20.5238  -15.3077  -14.3402 C   0  0  0  0  0  0  0  0  0  0  0  0
   20.7754  -16.8291  -14.0854 C   0  0  1  0  0  0  0  0  0  0  0  0
   19.5061  -17.3678  -13.4348 C   0  0  0  0  0  0  0  0  0  0  0  0
   21.0961  -17.4740  -15.3854 C   0  0  0  0  0  0  0  0  0  0  0  0
   21.3156  -18.9212  -15.4455 C   0  0  2  0  0  0  0  0  0  0  0  0
   22.7545  -19.2013  -15.1185 N   0  0  0  0  0  0  0  0  0  0  0  0
   20.9151  -19.7291  -16.5746 C   0  0  0  0  0  0  0  0  0  0  0  0
   21.6078  -20.1925  -17.5027 O   0  0  0  0  0  0  0  0  0  0  0  0
   19.5305  -20.0569  -16.6626 O   0  0  0  0  0  0  0  0  0  0  0  0
  2  1  1  0
  3  2  1  0
  3  4  1  1
  5  6  2  0
  5  3  1  0
  7  5  1  0
  8  9  1  6
  8  7  1  0
  9 10  1  0
 11 10  1  0
 11 12  1  0
 12 13  1  0
 14  8  1  0
 15 14  2  0
 17 16  1  6
 18 17  1  0
 19 17  1  0
 20 19  1  6
 20 21  1  0
 21 14  1  0
 22 24  1  0
 22 20  1  0
 23 22  2  0
M  END
$$$$
