SKL.pdb
     RDKit          3D

 24 23  0  0  1  0  0  0  0  0999 V2000
   15.4068   -7.2328  -14.7148 O   0  0  0  0  0  0  0  0  0  0  0  0
   16.7161   -7.6135  -14.5866 C   0  0  0  0  0  0  0  0  0  0  0  0
   16.9590   -9.0678  -14.9155 C   0  0  2  0  0  0  0  0  0  0  0  0
   16.2183   -9.9265  -14.0225 N   0  0  0  0  0  0  0  0  0  0  0  0
   18.4005   -9.4073  -14.9297 C   0  0  0  0  0  0  0  0  0  0  0  0
   18.8738  -10.0023  -13.9312 O   0  0  0  0  0  0  0  0  0  0  0  0
   19.2310   -9.0866  -16.0088 N   0  0  0  0  0  0  0  0  0  0  0  0
   20.6529   -9.3252  -16.0612 C   0  0  1  0  0  0  0  0  0  0  0  0
   20.9667   -9.7978  -17.4874 C   0  0  0  0  0  0  0  0  0  0  0  0
   22.4301  -10.2300  -17.5251 C   0  0  0  0  0  0  0  0  0  0  0  0
   22.6801  -10.8016  -18.8968 C   0  0  0  0  0  0  0  0  0  0  0  0
   24.1249  -11.1620  -19.0288 C   0  0  0  0  0  0  0  0  0  0  0  0
   24.3512  -11.7013  -20.3444 N   0  0  0  0  0  0  0  0  0  0  0  0
   21.4603   -8.1234  -15.8146 C   0  0  0  0  0  0  0  0  0  0  0  0
   22.7120   -8.1283  -15.8378 O   0  0  0  0  0  0  0  0  0  0  0  0
   20.4081   -3.3008  -17.9354 C   0  0  0  0  0  0  0  0  0  0  0  0
   21.1648   -4.5595  -17.4006 C   0  0  1  0  0  0  0  0  0  0  0  0
   22.5868   -4.4636  -17.9419 C   0  0  0  0  0  0  0  0  0  0  0  0
   21.0927   -4.5526  -15.9162 C   0  0  0  0  0  0  0  0  0  0  0  0
   21.5894   -5.7035  -15.1579 C   0  0  2  0  0  0  0  0  0  0  0  0
   20.7839   -6.9124  -15.5399 N   0  0  0  0  0  0  0  0  0  0  0  0
   21.7677   -5.6803  -13.7242 C   0  0  0  0  0  0  0  0  0  0  0  0
   21.3938   -6.5047  -12.8658 O   0  0  0  0  0  0  0  0  0  0  0  0
   22.4702   -4.5614  -13.1888 O   0  0  0  0  0  0  0  0  0  0  0  0
  2  1  1  0
  3  2  1  0
  3  4  1  1
  5  6  2  0
  5  3  1  0
  7  5  1  0
  8  9  1  6
  8  7  1  0
  9 10  1  0
 11 10  1  0
 11 12  1  0
 12 13  1  0
 14  8  1  0
 15 14  2  0
 17 16  1  6
 18 17  1  0
 19 17  1  0
 20 19  1  1
 20 21  1  0
 21 14  1  0
 22 24  1  0
 22 20  1  0
 23 22  2  0
M  END
$$$$
