SKL.pdb
     RDKit          3D

 24 23  0  0  1  0  0  0  0  0999 V2000
   15.9163  -13.4990  -14.4991 O   0  0  0  0  0  0  0  0  0  0  0  0
   14.8762  -12.8761  -15.1361 C   0  0  0  0  0  0  0  0  0  0  0  0
   15.1343  -12.6114  -16.6008 C   0  0  2  0  0  0  0  0  0  0  0  0
   15.4725  -13.8331  -17.2913 N   0  0  0  0  0  0  0  0  0  0  0  0
   16.1597  -11.5635  -16.8101 C   0  0  0  0  0  0  0  0  0  0  0  0
   17.2127  -11.8841  -17.4132 O   0  0  0  0  0  0  0  0  0  0  0  0
   15.9859  -10.2504  -16.3604 N   0  0  0  0  0  0  0  0  0  0  0  0
   16.9122   -9.1671  -16.5839 C   0  0  1  0  0  0  0  0  0  0  0  0
   16.0933   -7.8703  -16.5276 C   0  0  0  0  0  0  0  0  0  0  0  0
   14.9463   -7.9982  -17.5266 C   0  0  0  0  0  0  0  0  0  0  0  0
   14.1563   -6.7173  -17.4489 C   0  0  0  0  0  0  0  0  0  0  0  0
   12.9882   -6.7972  -18.3784 C   0  0  0  0  0  0  0  0  0  0  0  0
   12.2326   -5.5755  -18.2816 N   0  0  0  0  0  0  0  0  0  0  0  0
   17.9572   -9.0656  -15.5567 C   0  0  0  0  0  0  0  0  0  0  0  0
   17.7520   -9.3267  -14.3496 O   0  0  0  0  0  0  0  0  0  0  0  0
   22.9453  -11.3764  -14.3918 C   0  0  0  0  0  0  0  0  0  0  0  0
   22.3523   -9.9490  -14.1600 C   0  0  1  0  0  0  0  0  0  0  0  0
   23.4688   -8.9649  -14.4906 C   0  0  0  0  0  0  0  0  0  0  0  0
   21.1513   -9.7960  -15.0220 C   0  0  0  0  0  0  0  0  0  0  0  0
   20.3394   -8.5801  -14.9301 C   0  0  2  0  0  0  0  0  0  0  0  0
   19.2485   -8.6537  -15.9598 N   0  0  0  0  0  0  0  0  0  0  0  0
   20.9113   -7.2531  -14.9325 C   0  0  0  0  0  0  0  0  0  0  0  0
   21.0492   -6.4514  -15.8783 O   0  0  0  0  0  0  0  0  0  0  0  0
   21.3962   -6.7675  -13.6830 O   0  0  0  0  0  0  0  0  0  0  0  0
  2  1  1  0
  3  2  1  0
  3  4  1  6
  5  6  2  0
  5  3  1  0
  7  5  1  0
  8  9  1  1
  8  7  1  0
  9 10  1  0
 11 10  1  0
 11 12  1  0
 12 13  1  0
 14  8  1  0
 15 14  2  0
 17 16  1  6
 18 17  1  0
 19 17  1  0
 20 19  1  6
 20 21  1  0
 21 14  1  0
 22 24  1  0
 22 20  1  0
 23 22  2  0
M  END
$$$$
