SKL.pdb
     RDKit          3D

 24 23  0  0  1  0  0  0  0  0999 V2000
   23.2557  -13.6971  -19.4093 O   0  0  0  0  0  0  0  0  0  0  0  0
   22.7432  -13.5192  -20.6667 C   0  0  0  0  0  0  0  0  0  0  0  0
   23.3242  -12.3299  -21.3949 C   0  0  2  0  0  0  0  0  0  0  0  0
   24.7169  -12.5483  -21.7052 N   0  0  0  0  0  0  0  0  0  0  0  0
   23.1214  -11.0636  -20.6540 C   0  0  0  0  0  0  0  0  0  0  0  0
   24.0911  -10.6006  -20.0056 O   0  0  0  0  0  0  0  0  0  0  0  0
   21.8984  -10.3847  -20.6595 N   0  0  0  0  0  0  0  0  0  0  0  0
   21.6017   -9.2029  -19.8869 C   0  0  1  0  0  0  0  0  0  0  0  0
   20.1538   -8.8147  -20.2164 C   0  0  0  0  0  0  0  0  0  0  0  0
   20.1091   -8.3741  -21.6772 C   0  0  0  0  0  0  0  0  0  0  0  0
   18.8820   -9.0037  -22.2845 C   0  0  0  0  0  0  0  0  0  0  0  0
   17.7108   -8.0947  -22.0924 C   0  0  0  0  0  0  0  0  0  0  0  0
   16.6051   -8.8626  -21.5819 N   0  0  0  0  0  0  0  0  0  0  0  0
   21.6744   -9.4157  -18.4354 C   0  0  0  0  0  0  0  0  0  0  0  0
   21.5851  -10.5479  -17.9087 O   0  0  0  0  0  0  0  0  0  0  0  0
   22.8594  -10.8010  -14.0267 C   0  0  0  0  0  0  0  0  0  0  0  0
   23.8467   -9.8197  -14.7374 C   0  0  1  0  0  0  0  0  0  0  0  0
   25.1846  -10.5462  -14.8190 C   0  0  0  0  0  0  0  0  0  0  0  0
   23.2804   -9.4672  -16.0655 C   0  0  0  0  0  0  0  0  0  0  0  0
   22.1875   -8.4958  -16.1563 C   0  0  2  0  0  0  0  0  0  0  0  0
   21.8534   -8.2849  -17.6054 N   0  0  0  0  0  0  0  0  0  0  0  0
   22.2148   -7.2190  -15.4804 C   0  0  0  0  0  0  0  0  0  0  0  0
   22.4981   -6.0904  -15.9301 O   0  0  0  0  0  0  0  0  0  0  0  0
   21.8722   -7.2246  -14.0967 O   0  0  0  0  0  0  0  0  0  0  0  0
  2  1  1  0
  3  2  1  0
  3  4  1  1
  5  6  2  0
  5  3  1  0
  7  5  1  0
  8  9  1  1
  8  7  1  0
  9 10  1  0
 11 10  1  0
 11 12  1  0
 12 13  1  0
 14  8  1  0
 15 14  2  0
 17 16  1  6
 18 17  1  0
 19 17  1  0
 20 19  1  6
 20 21  1  0
 21 14  1  0
 22 24  1  0
 22 20  1  0
 23 22  2  0
M  END
$$$$
