SKL.pdb
     RDKit          3D

 24 23  0  0  1  0  0  0  0  0999 V2000
   24.4497  -25.2480  -15.1892 O   0  0  0  0  0  0  0  0  0  0  0  0
   25.7907  -25.0802  -15.4099 C   0  0  0  0  0  0  0  0  0  0  0  0
   26.1068  -24.3599  -16.6996 C   0  0  2  0  0  0  0  0  0  0  0  0
   24.9125  -23.7877  -17.2738 N   0  0  0  0  0  0  0  0  0  0  0  0
   26.8174  -25.2267  -17.6676 C   0  0  0  0  0  0  0  0  0  0  0  0
   26.1322  -26.0143  -18.3642 O   0  0  0  0  0  0  0  0  0  0  0  0
   28.2074  -25.1893  -17.8209 N   0  0  0  0  0  0  0  0  0  0  0  0
   28.9710  -26.0588  -18.6826 C   0  0  1  0  0  0  0  0  0  0  0  0
   30.3048  -25.3488  -18.9524 C   0  0  0  0  0  0  0  0  0  0  0  0
   31.1000  -26.2054  -19.9341 C   0  0  0  0  0  0  0  0  0  0  0  0
   30.9446  -25.5699  -21.2916 C   0  0  0  0  0  0  0  0  0  0  0  0
   31.6341  -26.4122  -22.3161 C   0  0  0  0  0  0  0  0  0  0  0  0
   31.3900  -25.8519  -23.6196 N   0  0  0  0  0  0  0  0  0  0  0  0
   29.2862  -27.3587  -18.0760 C   0  0  0  0  0  0  0  0  0  0  0  0
   29.8067  -27.4724  -16.9431 O   0  0  0  0  0  0  0  0  0  0  0  0
   25.8228  -31.4266  -17.1598 C   0  0  0  0  0  0  0  0  0  0  0  0
   27.0722  -30.5163  -16.9294 C   0  0  1  0  0  0  0  0  0  0  0  0
   27.7517  -31.0369  -15.6677 C   0  0  0  0  0  0  0  0  0  0  0  0
   27.9321  -30.5875  -18.1394 C   0  0  0  0  0  0  0  0  0  0  0  0
   29.2069  -29.8664  -18.1700 C   0  0  2  0  0  0  0  0  0  0  0  0
   28.9844  -28.5273  -18.8128 N   0  0  0  0  0  0  0  0  0  0  0  0
   30.4251  -30.4484  -18.6851 C   0  0  0  0  0  0  0  0  0  0  0  0
   30.7633  -30.6618  -19.8667 O   0  0  0  0  0  0  0  0  0  0  0  0
   31.3974  -30.8451  -17.7211 O   0  0  0  0  0  0  0  0  0  0  0  0
  2  1  1  0
  3  2  1  0
  3  4  1  6
  5  6  2  0
  5  3  1  0
  7  5  1  0
  8  9  1  1
  8  7  1  0
  9 10  1  0
 11 10  1  0
 11 12  1  0
 12 13  1  0
 14  8  1  0
 15 14  2  0
 17 16  1  6
 18 17  1  0
 19 17  1  0
 20 19  1  6
 20 21  1  0
 21 14  1  0
 22 24  1  0
 22 20  1  0
 23 22  2  0
M  END
$$$$
