SKL.pdb
     RDKit          3D

 24 23  0  0  1  0  0  0  0  0999 V2000
  137.5872   64.8560 -838.8080 O   0  0  0  0  0  0  0  0  0  0  0  0
  138.3792   65.9376 -838.5282 C   0  0  0  0  0  0  0  0  0  0  0  0
  138.7918   66.0273 -837.0778 C   0  0  2  0  0  0  0  0  0  0  0  0
  137.9628   66.9705 -836.3659 N   0  0  0  0  0  0  0  0  0  0  0  0
  140.2313   66.3380 -836.9212 C   0  0  0  0  0  0  0  0  0  0  0  0
  140.5432   67.3719 -836.2820 O   0  0  0  0  0  0  0  0  0  0  0  0
  141.2324   65.5219 -837.4589 N   0  0  0  0  0  0  0  0  0  0  0  0
  142.3460   64.9785 -836.7197 C   0  0  1  0  0  0  0  0  0  0  0  0
  143.5121   65.9605 -836.8975 C   0  0  0  0  0  0  0  0  0  0  0  0
  144.6811   65.4553 -836.0561 C   0  0  0  0  0  0  0  0  0  0  0  0
  144.1197   64.4374 -835.0976 C   0  0  0  0  0  0  0  0  0  0  0  0
  144.9603   64.4025 -833.8619 C   0  0  0  0  0  0  0  0  0  0  0  0
  145.6018   65.6811 -833.6993 N   0  0  0  0  0  0  0  0  0  0  0  0
  142.0934   64.8612 -835.2775 C   0  0  0  0  0  0  0  0  0  0  0  0
  141.5284   63.8688 -834.7646 O   0  0  0  0  0  0  0  0  0  0  0  0
  141.9702   68.4000 -831.6510 C   0  0  0  0  0  0  0  0  0  0  0  0
  140.5558   67.9554 -832.1458 C   0  0  1  0  0  0  0  0  0  0  0  0
  139.9162   69.1895 -832.7726 C   0  0  0  0  0  0  0  0  0  0  0  0
  140.7269   66.8268 -833.0979 C   0  0  0  0  0  0  0  0  0  0  0  0
  141.9451   66.0146 -833.0521 C   0  0  2  0  0  0  0  0  0  0  0  0
  142.5109   65.9218 -834.4405 N   0  0  0  0  0  0  0  0  0  0  0  0
  141.9974   64.7135 -832.4258 C   0  0  0  0  0  0  0  0  0  0  0  0
  141.3465   64.2740 -831.4565 O   0  0  0  0  0  0  0  0  0  0  0  0
  142.9207   63.7783 -832.9786 O   0  0  0  0  0  0  0  0  0  0  0  0
  2  1  1  0
  3  2  1  0
  3  4  1  6
  5  6  2  0
  5  3  1  0
  7  5  1  0
  8  9  1  1
  8  7  1  0
  9 10  1  0
 11 10  1  0
 11 12  1  0
 12 13  1  0
 14  8  1  0
 15 14  2  0
 17 16  1  6
 18 17  1  0
 19 17  1  0
 20 19  1  6
 20 21  1  0
 21 14  1  0
 22 24  1  0
 22 20  1  0
 23 22  2  0
M  END
$$$$
