SKL.pdb
     RDKit          3D

 24 23  0  0  1  0  0  0  0  0999 V2000
   27.5543  -19.8983  -18.3835 O   0  0  0  0  0  0  0  0  0  0  0  0
   26.5305  -20.3718  -17.6069 C   0  0  0  0  0  0  0  0  0  0  0  0
   26.8676  -21.6486  -16.8732 C   0  0  2  0  0  0  0  0  0  0  0  0
   27.0063  -22.7496  -17.7963 N   0  0  0  0  0  0  0  0  0  0  0  0
   25.8930  -21.9541  -15.8006 C   0  0  0  0  0  0  0  0  0  0  0  0
   24.9823  -22.7802  -16.0522 O   0  0  0  0  0  0  0  0  0  0  0  0
   25.9622  -21.3554  -14.5383 N   0  0  0  0  0  0  0  0  0  0  0  0
   24.9400  -21.4379  -13.5234 C   0  0  1  0  0  0  0  0  0  0  0  0
   25.5691  -20.9190  -12.2232 C   0  0  0  0  0  0  0  0  0  0  0  0
   24.5662  -21.1472  -11.0953 C   0  0  0  0  0  0  0  0  0  0  0  0
   25.1859  -20.5861   -9.8415 C   0  0  0  0  0  0  0  0  0  0  0  0
   24.2769  -20.8393   -8.6821 C   0  0  0  0  0  0  0  0  0  0  0  0
   24.8838  -20.3065   -7.4903 N   0  0  0  0  0  0  0  0  0  0  0  0
   23.7659  -20.6006  -13.8020 C   0  0  0  0  0  0  0  0  0  0  0  0
   23.8464  -19.4747  -14.3435 O   0  0  0  0  0  0  0  0  0  0  0  0
   20.0816  -21.4075  -17.5016 C   0  0  0  0  0  0  0  0  0  0  0  0
   20.4701  -20.2271  -16.5536 C   0  0  1  0  0  0  0  0  0  0  0  0
   19.1784  -19.7806  -15.8778 C   0  0  0  0  0  0  0  0  0  0  0  0
   21.5017  -20.7130  -15.6005 C   0  0  0  0  0  0  0  0  0  0  0  0
   21.2807  -20.5800  -14.1584 C   0  0  2  0  0  0  0  0  0  0  0  0
   22.4930  -21.0976  -13.4384 N   0  0  0  0  0  0  0  0  0  0  0  0
   20.0893  -21.0641  -13.4995 C   0  0  0  0  0  0  0  0  0  0  0  0
   19.0652  -20.4404  -13.1554 O   0  0  0  0  0  0  0  0  0  0  0  0
   20.0565  -22.4543  -13.1860 O   0  0  0  0  0  0  0  0  0  0  0  0
  2  1  1  0
  3  2  1  0
  3  4  1  6
  5  6  2  0
  5  3  1  0
  7  5  1  0
  8  9  1  1
  8  7  1  0
  9 10  1  0
 11 10  1  0
 11 12  1  0
 12 13  1  0
 14  8  1  0
 15 14  2  0
 17 16  1  6
 18 17  1  0
 19 17  1  0
 20 19  1  6
 20 21  1  0
 21 14  1  0
 22 24  1  0
 22 20  1  0
 23 22  2  0
M  END
$$$$
