SKL.pdb
     RDKit          3D

 24 23  0  0  1  0  0  0  0  0999 V2000
   22.7659  -15.4561  -17.5078 O   0  0  0  0  0  0  0  0  0  0  0  0
   23.9208  -15.4621  -18.2436 C   0  0  0  0  0  0  0  0  0  0  0  0
   23.9606  -16.5416  -19.2996 C   0  0  2  0  0  0  0  0  0  0  0  0
   22.9694  -16.2980  -20.3202 N   0  0  0  0  0  0  0  0  0  0  0  0
   23.8272  -17.8984  -18.7211 C   0  0  0  0  0  0  0  0  0  0  0  0
   22.6868  -18.4222  -18.7083 O   0  0  0  0  0  0  0  0  0  0  0  0
   24.9211  -18.5966  -18.1986 N   0  0  0  0  0  0  0  0  0  0  0  0
   24.8591  -19.9065  -17.5971 C   0  0  1  0  0  0  0  0  0  0  0  0
   26.2954  -20.4471  -17.5729 C   0  0  0  0  0  0  0  0  0  0  0  0
   26.2317  -21.9266  -17.2026 C   0  0  0  0  0  0  0  0  0  0  0  0
   27.6533  -22.4235  -17.1487 C   0  0  0  0  0  0  0  0  0  0  0  0
   27.6540  -23.9103  -16.9936 C   0  0  0  0  0  0  0  0  0  0  0  0
   29.0167  -24.3709  -16.9333 N   0  0  0  0  0  0  0  0  0  0  0  0
   24.3764  -19.8944  -16.2100 C   0  0  0  0  0  0  0  0  0  0  0  0
   24.8875  -19.1798  -15.3182 O   0  0  0  0  0  0  0  0  0  0  0  0
   19.1494  -19.4225  -14.9129 C   0  0  0  0  0  0  0  0  0  0  0  0
   20.7052  -19.2780  -14.9495 C   0  0  1  0  0  0  0  0  0  0  0  0
   21.0462  -18.1085  -14.0326 C   0  0  0  0  0  0  0  0  0  0  0  0
   21.3049  -20.5668  -14.5159 C   0  0  0  0  0  0  0  0  0  0  0  0
   22.7618  -20.7131  -14.4704 C   0  0  2  0  0  0  0  0  0  0  0  0
   23.2856  -20.7307  -15.8780 N   0  0  0  0  0  0  0  0  0  0  0  0
   23.4231  -21.7416  -13.7004 C   0  0  0  0  0  0  0  0  0  0  0  0
   24.1013  -22.7124  -14.0927 O   0  0  0  0  0  0  0  0  0  0  0  0
   23.2958  -21.6558  -12.2832 O   0  0  0  0  0  0  0  0  0  0  0  0
  2  1  1  0
  3  2  1  0
  3  4  1  6
  5  6  2  0
  5  3  1  0
  7  5  1  0
  8  9  1  1
  8  7  1  0
  9 10  1  0
 11 10  1  0
 11 12  1  0
 12 13  1  0
 14  8  1  0
 15 14  2  0
 17 16  1  1
 18 17  1  0
 19 17  1  0
 20 19  1  6
 20 21  1  0
 21 14  1  0
 22 24  1  0
 22 20  1  0
 23 22  2  0
M  END
$$$$
