QNH.pdb
     RDKit          3D

 28 28  0  0  1  0  0  0  0  0999 V2000
    9.4389  -17.2899   16.1813 N   0  0  0  0  0  0  0  0  0  0  0  0
    9.9376  -15.9985   15.7521 C   0  0  0  0  0  0  0  0  0  0  0  0
   10.7236  -16.0061   14.7714 O   0  0  0  0  0  0  0  0  0  0  0  0
    9.4769  -14.8398   16.5065 C   0  0  0  0  0  0  0  0  0  0  0  0
    8.4046  -15.0939   17.5200 C   0  0  0  0  0  0  0  0  0  0  0  0
    7.9044  -13.8672   18.2081 C   0  0  2  0  0  0  0  0  0  0  0  0
    8.3055  -12.6961   17.4972 N   0  0  0  0  0  0  0  0  0  0  0  0
    8.3670  -13.8528   19.6481 C   0  0  0  0  0  0  0  0  0  0  0  0
    9.3166  -13.0982   19.8800 O   0  0  0  0  0  0  0  0  0  0  0  0
    7.5143  -14.5247   25.0433 N   0  0  0  0  0  0  0  0  0  0  0  0
    7.1455  -15.6104   24.2211 C   0  0  0  0  0  0  0  0  0  0  0  0
    7.0803  -16.7547   24.7244 O   0  0  0  0  0  0  0  0  0  0  0  0
    6.8439  -15.4038   22.8030 C   0  0  0  0  0  0  0  0  0  0  0  0
    7.9958  -14.7626   22.0418 C   0  0  2  0  0  0  0  0  0  0  0  0
    7.7898  -14.6101   20.6364 N   0  0  0  0  0  0  0  0  0  0  0  0
    9.1292  -15.7091   22.1874 C   0  0  0  0  0  0  0  0  0  0  0  0
    8.9319  -16.9184   21.8094 O   0  0  0  0  0  0  0  0  0  0  0  0
   10.4057  -15.3513   22.7159 N   0  0  0  0  0  0  0  0  0  0  0  0
   11.4028  -16.4374   22.8051 C   0  0  1  0  0  0  0  0  0  0  0  0
   12.7470  -15.7653   22.6675 C   0  0  0  0  0  0  0  0  0  0  0  0
   12.9942  -15.3520   21.2873 C   0  0  0  0  0  0  0  0  0  0  0  0
   12.1549  -15.6745   20.2091 C   0  0  0  0  0  0  0  0  0  0  0  0
   12.6727  -15.1433   19.1000 N   0  0  0  0  0  0  0  0  0  0  0  0
   13.8081  -14.4914   19.4031 C   0  0  0  0  0  0  0  0  0  0  0  0
   13.9736  -14.6354   20.7241 N   0  0  0  0  0  0  0  0  0  0  0  0
   11.2954  -17.0365   24.1700 C   0  0  0  0  0  0  0  0  0  0  0  0
   10.4639  -16.7082   25.0401 O   0  0  0  0  0  0  0  0  0  0  0  0
   12.1922  -18.0582   24.5349 O   0  0  0  0  0  0  0  0  0  0  0  0
  2  1  1  0
  3  2  2  0
  4  2  1  0
  5  6  1  0
  5  4  1  0
  6  7  1  6
  6  8  1  0
  8  9  2  0
 10 11  1  0
 11 12  2  0
 14 13  1  1
 13 11  1  0
 14 16  1  0
 15  8  1  0
 15 14  1  0
 16 17  2  0
 18 19  1  0
 18 16  1  0
 19 26  1  0
 19 20  1  1
 21 20  1  0
 22 21  2  0
 23 22  1  0
 24 23  1  0
 24 25  2  0
 25 21  1  0
 26 27  2  0
 26 28  1  0
M  END
$$$$
