QNH.pdb
     RDKit          3D

 28 28  0  0  1  0  0  0  0  0999 V2000
    8.5804  -15.3522   11.5928 N   0  0  0  0  0  0  0  0  0  0  0  0
    7.4094  -15.0763   12.4010 C   0  0  0  0  0  0  0  0  0  0  0  0
    6.3714  -14.7415   11.7764 O   0  0  0  0  0  0  0  0  0  0  0  0
    7.5675  -15.2129   13.8433 C   0  0  0  0  0  0  0  0  0  0  0  0
    8.9496  -15.5186   14.3313 C   0  0  0  0  0  0  0  0  0  0  0  0
    8.9951  -16.2884   15.6095 C   0  0  2  0  0  0  0  0  0  0  0  0
    7.7743  -17.0013   15.8080 N   0  0  0  0  0  0  0  0  0  0  0  0
    9.3155  -15.3638   16.7628 C   0  0  0  0  0  0  0  0  0  0  0  0
   10.3614  -14.7195   16.6355 O   0  0  0  0  0  0  0  0  0  0  0  0
    8.1729  -12.1229   21.0259 N   0  0  0  0  0  0  0  0  0  0  0  0
    7.5036  -13.3645   20.9948 C   0  0  0  0  0  0  0  0  0  0  0  0
    7.0688  -13.8437   22.0664 O   0  0  0  0  0  0  0  0  0  0  0  0
    7.3201  -14.0819   19.7313 C   0  0  0  0  0  0  0  0  0  0  0  0
    8.6340  -14.5528   19.1236 C   0  0  2  0  0  0  0  0  0  0  0  0
    8.5195  -15.2341   17.8731 N   0  0  0  0  0  0  0  0  0  0  0  0
    9.1681  -15.5501   20.0837 C   0  0  0  0  0  0  0  0  0  0  0  0
    8.7221  -16.7486   19.9888 O   0  0  0  0  0  0  0  0  0  0  0  0
   10.1357  -15.2520   21.0894 N   0  0  0  0  0  0  0  0  0  0  0  0
   10.5830  -16.3872   21.9217 C   0  0  1  0  0  0  0  0  0  0  0  0
   11.9597  -16.7426   21.4160 C   0  0  0  0  0  0  0  0  0  0  0  0
   11.9587  -18.0406   20.7437 C   0  0  0  0  0  0  0  0  0  0  0  0
   10.8281  -18.8651   20.6304 C   0  0  0  0  0  0  0  0  0  0  0  0
   11.1765  -19.9668   19.9633 N   0  0  0  0  0  0  0  0  0  0  0  0
   12.4785  -19.9005   19.6372 C   0  0  0  0  0  0  0  0  0  0  0  0
   12.9196  -18.7319   20.1200 N   0  0  0  0  0  0  0  0  0  0  0  0
   10.6927  -15.8980   23.3296 C   0  0  0  0  0  0  0  0  0  0  0  0
   10.4481  -16.5724   24.3502 O   0  0  0  0  0  0  0  0  0  0  0  0
   11.1034  -14.5710   23.5566 O   0  0  0  0  0  0  0  0  0  0  0  0
  2  1  1  0
  3  2  2  0
  4  2  1  0
  5  6  1  0
  5  4  1  0
  6  7  1  1
  6  8  1  0
  8  9  2  0
 10 11  1  0
 11 12  2  0
 14 13  1  1
 13 11  1  0
 14 16  1  0
 15  8  1  0
 15 14  1  0
 16 17  2  0
 18 19  1  0
 18 16  1  0
 19 26  1  0
 19 20  1  6
 21 20  1  0
 22 21  2  0
 23 22  1  0
 24 23  1  0
 24 25  2  0
 25 21  1  0
 26 27  2  0
 26 28  1  0
M  END
$$$$
