QNH.pdb
     RDKit          3D

 28 28  0  0  1  0  0  0  0  0999 V2000
    6.2453  -28.4412   28.6808 N   0  0  0  0  0  0  0  0  0  0  0  0
    6.3312  -27.3793   27.6982 C   0  0  0  0  0  0  0  0  0  0  0  0
    5.7276  -27.5776   26.6138 O   0  0  0  0  0  0  0  0  0  0  0  0
    7.1097  -26.2062   28.0746 C   0  0  0  0  0  0  0  0  0  0  0  0
    7.7790  -26.2578   29.4129 C   0  0  0  0  0  0  0  0  0  0  0  0
    8.6778  -25.1002   29.6970 C   0  0  2  0  0  0  0  0  0  0  0  0
    9.0168  -24.4215   28.4878 N   0  0  0  0  0  0  0  0  0  0  0  0
    9.8996  -25.5646   30.4582 C   0  0  0  0  0  0  0  0  0  0  0  0
    9.6585  -26.1436   31.5220 O   0  0  0  0  0  0  0  0  0  0  0  0
   13.0777  -27.8591   27.5739 N   0  0  0  0  0  0  0  0  0  0  0  0
   12.9891  -27.5777   28.9536 C   0  0  0  0  0  0  0  0  0  0  0  0
   12.5177  -28.4488   29.7190 O   0  0  0  0  0  0  0  0  0  0  0  0
   13.4403  -26.2889   29.4828 C   0  0  0  0  0  0  0  0  0  0  0  0
   12.4827  -25.7056   30.5124 C   0  0  2  0  0  0  0  0  0  0  0  0
   11.1849  -25.3697   30.0187 N   0  0  0  0  0  0  0  0  0  0  0  0
   13.1024  -24.4251   30.9344 C   0  0  0  0  0  0  0  0  0  0  0  0
   14.2975  -24.4793   31.3960 O   0  0  0  0  0  0  0  0  0  0  0  0
   12.4508  -23.1580   30.8545 N   0  0  0  0  0  0  0  0  0  0  0  0
   13.1602  -22.0192   31.4723 C   0  0  1  0  0  0  0  0  0  0  0  0
   13.4493  -21.0611   30.3427 C   0  0  0  0  0  0  0  0  0  0  0  0
   13.7745  -21.7771   29.1105 C   0  0  0  0  0  0  0  0  0  0  0  0
   13.7809  -23.1761   28.9940 C   0  0  0  0  0  0  0  0  0  0  0  0
   14.1192  -23.4921   27.7425 N   0  0  0  0  0  0  0  0  0  0  0  0
   14.3340  -22.3675   27.0388 C   0  0  0  0  0  0  0  0  0  0  0  0
   14.1190  -21.3551   27.8885 N   0  0  0  0  0  0  0  0  0  0  0  0
   12.2179  -21.3691   32.4330 C   0  0  0  0  0  0  0  0  0  0  0  0
   11.0447  -21.7322   32.6524 O   0  0  0  0  0  0  0  0  0  0  0  0
   12.6603  -20.2523   33.1666 O   0  0  0  0  0  0  0  0  0  0  0  0
  2  1  1  0
  3  2  2  0
  4  2  1  0
  5  6  1  0
  5  4  1  0
  6  7  1  6
  6  8  1  0
  8  9  2  0
 10 11  1  0
 11 12  2  0
 14 13  1  6
 13 11  1  0
 14 16  1  0
 15  8  1  0
 15 14  1  0
 16 17  2  0
 18 19  1  0
 18 16  1  0
 19 26  1  0
 19 20  1  6
 21 20  1  0
 22 21  2  0
 23 22  1  0
 24 23  1  0
 24 25  2  0
 25 21  1  0
 26 27  2  0
 26 28  1  0
M  END
$$$$
