QNH.pdb
     RDKit          3D

 28 28  0  0  1  0  0  0  0  0999 V2000
    7.9363  -12.5817   17.4181 N   0  0  0  0  0  0  0  0  0  0  0  0
    8.0215  -13.6587   16.4520 C   0  0  0  0  0  0  0  0  0  0  0  0
    7.6523  -13.3845   15.2824 O   0  0  0  0  0  0  0  0  0  0  0  0
    8.5198  -14.9366   16.9448 C   0  0  0  0  0  0  0  0  0  0  0  0
    8.8259  -15.0073   18.4086 C   0  0  0  0  0  0  0  0  0  0  0  0
    9.3311  -16.3345   18.8688 C   0  0  2  0  0  0  0  0  0  0  0  0
    8.8937  -17.3691   17.9878 N   0  0  0  0  0  0  0  0  0  0  0  0
    8.9123  -16.5829   20.3008 C   0  0  0  0  0  0  0  0  0  0  0  0
    7.7338  -16.3116   20.5507 O   0  0  0  0  0  0  0  0  0  0  0  0
    9.2325  -19.7545   24.4617 N   0  0  0  0  0  0  0  0  0  0  0  0
    9.8576  -20.2524   23.2990 C   0  0  0  0  0  0  0  0  0  0  0  0
   10.1950  -21.4573   23.2631 O   0  0  0  0  0  0  0  0  0  0  0  0
   10.1083  -19.3759   22.1528 C   0  0  0  0  0  0  0  0  0  0  0  0
    9.6177  -17.9528   22.3795 C   0  0  2  0  0  0  0  0  0  0  0  0
    9.7591  -17.0725   21.2633 N   0  0  0  0  0  0  0  0  0  0  0  0
   10.4958  -17.4064   23.4435 C   0  0  0  0  0  0  0  0  0  0  0  0
   11.4552  -18.1542   23.8495 O   0  0  0  0  0  0  0  0  0  0  0  0
   10.3330  -16.1150   24.0285 N   0  0  0  0  0  0  0  0  0  0  0  0
    9.9002  -16.0880   25.4405 C   0  0  1  0  0  0  0  0  0  0  0  0
    8.4223  -16.3922   25.4170 C   0  0  0  0  0  0  0  0  0  0  0  0
    7.6383  -15.1910   25.1353 C   0  0  0  0  0  0  0  0  0  0  0  0
    8.1994  -13.9456   24.8109 C   0  0  0  0  0  0  0  0  0  0  0  0
    7.2068  -13.0751   24.6173 N   0  0  0  0  0  0  0  0  0  0  0  0
    6.0272  -13.6924   24.8003 C   0  0  0  0  0  0  0  0  0  0  0  0
    6.3204  -14.9617   25.1103 N   0  0  0  0  0  0  0  0  0  0  0  0
   10.6133  -17.1922   26.1515 C   0  0  0  0  0  0  0  0  0  0  0  0
   11.2802  -18.0928   25.6032 O   0  0  0  0  0  0  0  0  0  0  0  0
   10.5466  -17.2490   27.5563 O   0  0  0  0  0  0  0  0  0  0  0  0
  2  1  1  0
  3  2  2  0
  4  2  1  0
  5  6  1  0
  5  4  1  0
  6  7  1  6
  6  8  1  0
  8  9  2  0
 10 11  1  0
 11 12  2  0
 14 13  1  6
 13 11  1  0
 14 16  1  0
 15  8  1  0
 15 14  1  0
 16 17  2  0
 18 19  1  0
 18 16  1  0
 19 26  1  0
 19 20  1  6
 21 20  1  0
 22 21  2  0
 23 22  1  0
 24 23  1  0
 24 25  2  0
 25 21  1  0
 26 27  2  0
 26 28  1  0
M  END
$$$$
