QNH.pdb
     RDKit          3D

 28 28  0  0  1  0  0  0  0  0999 V2000
    9.8114  -12.3135   16.8661 N   0  0  0  0  0  0  0  0  0  0  0  0
    9.1991  -13.6259   16.9211 C   0  0  0  0  0  0  0  0  0  0  0  0
    8.4538  -13.9306   15.9561 O   0  0  0  0  0  0  0  0  0  0  0  0
    9.5114  -14.4410   18.0882 C   0  0  0  0  0  0  0  0  0  0  0  0
   10.5009  -13.8642   19.0525 C   0  0  0  0  0  0  0  0  0  0  0  0
   10.8663  -14.7741   20.1781 C   0  0  2  0  0  0  0  0  0  0  0  0
   11.0782  -16.1021   19.6993 N   0  0  0  0  0  0  0  0  0  0  0  0
    9.8107  -14.7140   21.2596 C   0  0  0  0  0  0  0  0  0  0  0  0
    9.8365  -13.6924   21.9530 O   0  0  0  0  0  0  0  0  0  0  0  0
    5.0817  -16.1954   21.5548 N   0  0  0  0  0  0  0  0  0  0  0  0
    5.7692  -17.3447   21.9988 C   0  0  0  0  0  0  0  0  0  0  0  0
    5.1565  -18.4353   22.0447 O   0  0  0  0  0  0  0  0  0  0  0  0
    7.1755  -17.2648   22.3996 C   0  0  0  0  0  0  0  0  0  0  0  0
    7.7365  -15.8527   22.3067 C   0  0  2  0  0  0  0  0  0  0  0  0
    8.8855  -15.7053   21.4707 N   0  0  0  0  0  0  0  0  0  0  0  0
    8.1881  -15.5253   23.6817 C   0  0  0  0  0  0  0  0  0  0  0  0
    7.9713  -14.3322   24.0987 O   0  0  0  0  0  0  0  0  0  0  0  0
    8.8391  -16.4517   24.5504 N   0  0  0  0  0  0  0  0  0  0  0  0
    9.0812  -15.9908   25.9327 C   0  0  1  0  0  0  0  0  0  0  0  0
    7.7183  -15.6763   26.4993 C   0  0  0  0  0  0  0  0  0  0  0  0
    7.4445  -14.2410   26.4558 C   0  0  0  0  0  0  0  0  0  0  0  0
    8.3244  -13.2901   25.9149 C   0  0  0  0  0  0  0  0  0  0  0  0
    7.7667  -12.0841   26.0370 N   0  0  0  0  0  0  0  0  0  0  0  0
    6.5673  -12.2030   26.6313 C   0  0  0  0  0  0  0  0  0  0  0  0
    6.4031  -13.5104   26.8702 N   0  0  0  0  0  0  0  0  0  0  0  0
    9.6720  -17.1345   26.6919 C   0  0  0  0  0  0  0  0  0  0  0  0
    9.8098  -18.2959   26.2578 O   0  0  0  0  0  0  0  0  0  0  0  0
   10.1196  -16.9159   28.0083 O   0  0  0  0  0  0  0  0  0  0  0  0
  2  1  1  0
  3  2  2  0
  4  2  1  0
  5  6  1  0
  5  4  1  0
  6  7  1  6
  6  8  1  0
  8  9  2  0
 10 11  1  0
 11 12  2  0
 14 13  1  1
 13 11  1  0
 14 16  1  0
 15  8  1  0
 15 14  1  0
 16 17  2  0
 18 19  1  0
 18 16  1  0
 19 26  1  0
 19 20  1  1
 21 20  1  0
 22 21  2  0
 23 22  1  0
 24 23  1  0
 24 25  2  0
 25 21  1  0
 26 27  2  0
 26 28  1  0
M  END
$$$$
