QNH.pdb
     RDKit          3D

 28 28  0  0  1  0  0  0  0  0999 V2000
    6.7682  -12.4147   18.6325 N   0  0  0  0  0  0  0  0  0  0  0  0
    7.4702  -13.3262   17.7510 C   0  0  0  0  0  0  0  0  0  0  0  0
    6.8787  -13.6323   16.6852 O   0  0  0  0  0  0  0  0  0  0  0  0
    8.7774  -13.7880   18.2002 C   0  0  0  0  0  0  0  0  0  0  0  0
    8.8077  -15.1133   18.8961 C   0  0  0  0  0  0  0  0  0  0  0  0
   10.0225  -15.3417   19.7333 C   0  0  2  0  0  0  0  0  0  0  0  0
   11.0645  -15.9281   18.9535 N   0  0  0  0  0  0  0  0  0  0  0  0
    9.6705  -16.1767   20.9443 C   0  0  0  0  0  0  0  0  0  0  0  0
    8.6945  -15.7747   21.5852 O   0  0  0  0  0  0  0  0  0  0  0  0
    9.8039  -20.1257   20.3796 N   0  0  0  0  0  0  0  0  0  0  0  0
   10.9351  -20.3285   21.1981 C   0  0  0  0  0  0  0  0  0  0  0  0
   11.6883  -21.2991   20.9583 O   0  0  0  0  0  0  0  0  0  0  0  0
   11.2244  -19.4200   22.3098 C   0  0  0  0  0  0  0  0  0  0  0  0
   10.2564  -18.2474   22.3811 C   0  0  2  0  0  0  0  0  0  0  0  0
   10.3668  -17.2984   21.3190 N   0  0  0  0  0  0  0  0  0  0  0  0
   10.6243  -17.5177   23.6196 C   0  0  0  0  0  0  0  0  0  0  0  0
   11.6597  -16.7629   23.5666 O   0  0  0  0  0  0  0  0  0  0  0  0
    9.8995  -17.6088   24.8455 N   0  0  0  0  0  0  0  0  0  0  0  0
   10.3917  -16.7719   25.9586 C   0  0  1  0  0  0  0  0  0  0  0  0
    9.2913  -15.7767   26.2344 C   0  0  0  0  0  0  0  0  0  0  0  0
    9.6275  -14.9147   27.3662 C   0  0  0  0  0  0  0  0  0  0  0  0
   10.7810  -15.0655   28.1521 C   0  0  0  0  0  0  0  0  0  0  0  0
   10.7758  -14.1185   29.0921 N   0  0  0  0  0  0  0  0  0  0  0  0
    9.6753  -13.3591   28.9572 C   0  0  0  0  0  0  0  0  0  0  0  0
    9.0066  -13.8628   27.9121 N   0  0  0  0  0  0  0  0  0  0  0  0
   10.5563  -17.6585   27.1503 C   0  0  0  0  0  0  0  0  0  0  0  0
   10.1240  -18.8246   27.2488 O   0  0  0  0  0  0  0  0  0  0  0  0
   11.2519  -17.1669   28.2708 O   0  0  0  0  0  0  0  0  0  0  0  0
  2  1  1  0
  3  2  2  0
  4  2  1  0
  5  6  1  0
  5  4  1  0
  6  7  1  6
  6  8  1  0
  8  9  2  0
 10 11  1  0
 11 12  2  0
 14 13  1  6
 13 11  1  0
 14 16  1  0
 15  8  1  0
 15 14  1  0
 16 17  2  0
 18 19  1  0
 18 16  1  0
 19 26  1  0
 19 20  1  1
 21 20  1  0
 22 21  2  0
 23 22  1  0
 24 23  1  0
 24 25  2  0
 25 21  1  0
 26 27  2  0
 26 28  1  0
M  END
$$$$
