QNH.pdb
     RDKit          3D

 28 28  0  0  1  0  0  0  0  0999 V2000
   15.8157  -15.0696   17.6556 N   0  0  0  0  0  0  0  0  0  0  0  0
   15.0876  -14.0725   18.4148 C   0  0  0  0  0  0  0  0  0  0  0  0
   15.7328  -13.4841   19.3187 O   0  0  0  0  0  0  0  0  0  0  0  0
   13.6918  -13.8679   18.0493 C   0  0  0  0  0  0  0  0  0  0  0  0
   12.6721  -14.4271   18.9922 C   0  0  0  0  0  0  0  0  0  0  0  0
   13.1064  -15.6640   19.7062 C   0  0  2  0  0  0  0  0  0  0  0  0
   13.3635  -16.7151   18.7751 N   0  0  0  0  0  0  0  0  0  0  0  0
   12.0780  -16.0539   20.7445 C   0  0  0  0  0  0  0  0  0  0  0  0
   11.3773  -15.1236   21.1550 O   0  0  0  0  0  0  0  0  0  0  0  0
   11.7591  -20.9741   20.3007 N   0  0  0  0  0  0  0  0  0  0  0  0
   10.8028  -20.2142   21.0070 C   0  0  0  0  0  0  0  0  0  0  0  0
    9.6284  -20.1697   20.5762 O   0  0  0  0  0  0  0  0  0  0  0  0
   11.1764  -19.4892   22.2234 C   0  0  0  0  0  0  0  0  0  0  0  0
   11.0000  -17.9830   22.0906 C   0  0  2  0  0  0  0  0  0  0  0  0
   11.9177  -17.3358   21.2075 N   0  0  0  0  0  0  0  0  0  0  0  0
   11.2835  -17.4403   23.4422 C   0  0  0  0  0  0  0  0  0  0  0  0
   12.5147  -17.2632   23.7536 O   0  0  0  0  0  0  0  0  0  0  0  0
   10.2762  -17.1100   24.3976 N   0  0  0  0  0  0  0  0  0  0  0  0
   10.7421  -16.4576   25.6382 C   0  0  1  0  0  0  0  0  0  0  0  0
    9.6654  -15.4649   26.0028 C   0  0  0  0  0  0  0  0  0  0  0  0
    9.9528  -14.8169   27.2812 C   0  0  0  0  0  0  0  0  0  0  0  0
   11.1290  -15.0238   28.0191 C   0  0  0  0  0  0  0  0  0  0  0  0
   11.0656  -14.2831   29.1272 N   0  0  0  0  0  0  0  0  0  0  0  0
    9.9058  -13.6046   29.1471 C   0  0  0  0  0  0  0  0  0  0  0  0
    9.2601  -13.9469   28.0250 N   0  0  0  0  0  0  0  0  0  0  0  0
   10.8157  -17.5076   26.6991 C   0  0  0  0  0  0  0  0  0  0  0  0
   10.2276  -18.6074   26.6695 O   0  0  0  0  0  0  0  0  0  0  0  0
   11.6054  -17.2663   27.8389 O   0  0  0  0  0  0  0  0  0  0  0  0
  2  1  1  0
  3  2  2  0
  4  2  1  0
  5  6  1  0
  5  4  1  0
  6  7  1  6
  6  8  1  0
  8  9  2  0
 10 11  1  0
 11 12  2  0
 14 13  1  1
 13 11  1  0
 14 16  1  0
 15  8  1  0
 15 14  1  0
 16 17  2  0
 18 19  1  0
 18 16  1  0
 19 26  1  0
 19 20  1  1
 21 20  1  0
 22 21  2  0
 23 22  1  0
 24 23  1  0
 24 25  2  0
 25 21  1  0
 26 27  2  0
 26 28  1  0
M  END
$$$$
