CCK.pdb
     RDKit          3D

 22 21  0  0  1  0  0  0  0  0999 V2000
   22.7368  -12.9418  -16.9691 N   0  0  0  0  0  0  0  0  0  0  0  0
   21.9678  -11.7838  -17.3906 C   0  0  1  0  0  0  0  0  0  0  0  0
   20.7929  -12.2926  -18.1824 C   0  0  0  0  0  0  0  0  0  0  0  0
   21.1531  -12.4701  -19.9398 S   0  0  0  0  0  0  0  0  0  0  0  0
   21.5745  -10.9810  -16.2175 C   0  0  0  0  0  0  0  0  0  0  0  0
   21.9220  -11.3659  -15.0671 O   0  0  0  0  0  0  0  0  0  0  0  0
   20.8218   -9.7885  -16.2902 N   0  0  0  0  0  0  0  0  0  0  0  0
   20.4659   -8.9542  -15.1911 C   0  0  1  0  0  0  0  0  0  0  0  0
   21.7585   -8.4008  -14.5771 C   0  0  0  0  0  0  0  0  0  0  0  0
   22.6624   -7.3664  -15.7287 S   0  0  0  0  0  0  0  0  0  0  0  0
   19.5353   -7.8763  -15.5193 C   0  0  0  0  0  0  0  0  0  0  0  0
   19.7058   -7.2253  -16.5788 O   0  0  0  0  0  0  0  0  0  0  0  0
   18.4306   -7.5032  -14.7127 N   0  0  0  0  0  0  0  0  0  0  0  0
   17.4458   -6.5035  -15.1108 C   0  0  1  0  0  0  0  0  0  0  0  0
   16.0601   -6.8446  -14.7116 C   0  0  0  0  0  0  0  0  0  0  0  0
   14.9875   -5.8748  -15.0188 C   0  0  0  0  0  0  0  0  0  0  0  0
   13.5931   -6.2660  -14.6632 C   0  0  0  0  0  0  0  0  0  0  0  0
   12.6579   -5.1111  -15.0762 C   0  0  0  0  0  0  0  0  0  0  0  0
   11.2775   -5.5233  -14.9021 N   0  0  0  0  0  0  0  0  0  0  0  0
   17.9268   -5.1903  -14.6329 C   0  0  0  0  0  0  0  0  0  0  0  0
   17.4238   -4.1274  -15.0704 O   0  0  0  0  0  0  0  0  0  0  0  0
   18.9423   -5.0923  -13.6950 O   0  0  0  0  0  0  0  0  0  0  0  0
  2  1  1  1
  2  5  1  0
  3  2  1  0
  4  3  1  0
  5  6  2  0
  7  5  1  0
  7  8  1  0
  8 11  1  0
  8  9  1  6
 10  9  1  0
 11 13  1  0
 12 11  2  0
 13 14  1  0
 14 15  1  1
 15 16  1  0
 16 17  1  0
 17 18  1  0
 19 18  1  0
 20 22  1  0
 20 14  1  0
 21 20  2  0
M  END
$$$$
