CCK.pdb
     RDKit          3D

 22 21  0  0  1  0  0  0  0  0999 V2000
   15.7845  -14.3947  -17.1918 N   0  0  0  0  0  0  0  0  0  0  0  0
   17.1811  -13.9998  -17.2544 C   0  0  1  0  0  0  0  0  0  0  0  0
   17.7542  -14.5859  -18.5171 C   0  0  0  0  0  0  0  0  0  0  0  0
   17.9077  -16.3810  -18.4525 S   0  0  0  0  0  0  0  0  0  0  0  0
   17.2968  -12.5309  -17.1906 C   0  0  0  0  0  0  0  0  0  0  0  0
   16.4644  -11.8225  -17.8213 O   0  0  0  0  0  0  0  0  0  0  0  0
   18.2921  -11.8458  -16.4599 N   0  0  0  0  0  0  0  0  0  0  0  0
   18.3807  -10.4343  -16.2850 C   0  0  1  0  0  0  0  0  0  0  0  0
   17.0804   -9.9549  -15.6266 C   0  0  0  0  0  0  0  0  0  0  0  0
   17.1836   -9.9761  -13.8372 S   0  0  0  0  0  0  0  0  0  0  0  0
   19.5494   -9.9848  -15.5315 C   0  0  0  0  0  0  0  0  0  0  0  0
   20.2190  -10.8272  -14.8854 O   0  0  0  0  0  0  0  0  0  0  0  0
   19.9925   -8.6393  -15.4747 N   0  0  0  0  0  0  0  0  0  0  0  0
   21.3996   -8.2574  -15.4326 C   0  0  1  0  0  0  0  0  0  0  0  0
   22.2099   -8.8589  -16.5178 C   0  0  0  0  0  0  0  0  0  0  0  0
   23.6567   -8.5580  -16.5561 C   0  0  0  0  0  0  0  0  0  0  0  0
   24.4565   -9.1950  -17.6416 C   0  0  0  0  0  0  0  0  0  0  0  0
   25.9128   -8.7057  -17.5056 C   0  0  0  0  0  0  0  0  0  0  0  0
   26.7378   -9.3664  -18.5000 N   0  0  0  0  0  0  0  0  0  0  0  0
   21.4582   -6.7827  -15.3550 C   0  0  0  0  0  0  0  0  0  0  0  0
   22.2844   -6.2144  -14.6009 O   0  0  0  0  0  0  0  0  0  0  0  0
   20.6075   -5.9870  -16.1058 O   0  0  0  0  0  0  0  0  0  0  0  0
  2  1  1  6
  2  5  1  0
  3  2  1  0
  4  3  1  0
  5  6  2  0
  7  5  1  0
  7  8  1  0
  8 11  1  0
  8  9  1  1
 10  9  1  0
 11 13  1  0
 12 11  2  0
 13 14  1  0
 14 15  1  6
 15 16  1  0
 16 17  1  0
 17 18  1  0
 19 18  1  0
 20 22  1  0
 20 14  1  0
 21 20  2  0
M  END
$$$$
