CCK.pdb
     RDKit          3D

 22 21  0  0  1  0  0  0  0  0999 V2000
   19.4376  -11.3262  -15.8845 N   0  0  0  0  0  0  0  0  0  0  0  0
   18.8264  -10.0355  -15.6184 C   0  0  1  0  0  0  0  0  0  0  0  0
   17.4375  -10.0717  -16.1980 C   0  0  0  0  0  0  0  0  0  0  0  0
   17.3933   -9.6313  -17.9456 S   0  0  0  0  0  0  0  0  0  0  0  0
   18.8450   -9.7536  -14.1709 C   0  0  0  0  0  0  0  0  0  0  0  0
   18.3514  -10.5997  -13.3753 O   0  0  0  0  0  0  0  0  0  0  0  0
   19.3864   -8.5814  -13.5992 N   0  0  0  0  0  0  0  0  0  0  0  0
   19.4074   -8.2588  -12.2112 C   0  0  1  0  0  0  0  0  0  0  0  0
   20.6795   -7.4480  -11.9314 C   0  0  0  0  0  0  0  0  0  0  0  0
   20.7542   -5.9510  -12.9146 S   0  0  0  0  0  0  0  0  0  0  0  0
   18.2192   -7.5574  -11.7297 C   0  0  0  0  0  0  0  0  0  0  0  0
   17.6357   -6.7510  -12.4943 O   0  0  0  0  0  0  0  0  0  0  0  0
   17.6648   -7.7236  -10.4355 N   0  0  0  0  0  0  0  0  0  0  0  0
   16.4167   -7.1003  -10.0094 C   0  0  1  0  0  0  0  0  0  0  0  0
   15.3930   -8.0717   -9.5575 C   0  0  0  0  0  0  0  0  0  0  0  0
   14.1249   -7.5442   -9.0107 C   0  0  0  0  0  0  0  0  0  0  0  0
   13.1161   -8.5401   -8.5476 C   0  0  0  0  0  0  0  0  0  0  0  0
   11.8860   -7.7638   -8.0347 C   0  0  0  0  0  0  0  0  0  0  0  0
   10.8790   -8.7040   -7.5787 N   0  0  0  0  0  0  0  0  0  0  0  0
   16.7567   -6.0503   -9.0265 C   0  0  0  0  0  0  0  0  0  0  0  0
   17.8176   -6.1178   -8.3600 O   0  0  0  0  0  0  0  0  0  0  0  0
   15.9198   -4.9671   -8.8102 O   0  0  0  0  0  0  0  0  0  0  0  0
  2  1  1  1
  2  5  1  0
  3  2  1  0
  4  3  1  0
  5  6  2  0
  7  5  1  0
  7  8  1  0
  8 11  1  0
  8  9  1  6
 10  9  1  0
 11 13  1  0
 12 11  2  0
 13 14  1  0
 14 15  1  1
 15 16  1  0
 16 17  1  0
 17 18  1  0
 19 18  1  0
 20 22  1  0
 20 14  1  0
 21 20  2  0
M  END
$$$$
