CCK.pdb
     RDKit          3D

 22 21  0  0  1  0  0  0  0  0999 V2000
   18.7950  -10.8104  -15.0855 N   0  0  0  0  0  0  0  0  0  0  0  0
   19.0055   -9.4804  -15.6305 C   0  0  1  0  0  0  0  0  0  0  0  0
   17.7832   -9.1299  -16.4363 C   0  0  0  0  0  0  0  0  0  0  0  0
   17.6562  -10.0730  -17.9674 S   0  0  0  0  0  0  0  0  0  0  0  0
   19.2786   -8.5231  -14.5423 C   0  0  0  0  0  0  0  0  0  0  0  0
   18.7013   -8.6775  -13.4308 O   0  0  0  0  0  0  0  0  0  0  0  0
   20.1573   -7.4237  -14.6566 N   0  0  0  0  0  0  0  0  0  0  0  0
   20.4076   -6.4434  -13.6529 C   0  0  1  0  0  0  0  0  0  0  0  0
   21.7821   -5.8205  -13.9299 C   0  0  0  0  0  0  0  0  0  0  0  0
   22.1536   -4.4786  -12.8009 S   0  0  0  0  0  0  0  0  0  0  0  0
   19.3771   -5.4140  -13.5349 C   0  0  0  0  0  0  0  0  0  0  0  0
   18.9633   -4.8438  -14.5737 O   0  0  0  0  0  0  0  0  0  0  0  0
   18.7975   -5.0027  -12.3081 N   0  0  0  0  0  0  0  0  0  0  0  0
   17.7083   -4.0367  -12.2174 C   0  0  1  0  0  0  0  0  0  0  0  0
   17.0299   -4.0302  -10.8999 C   0  0  0  0  0  0  0  0  0  0  0  0
   15.9331   -3.0625  -10.6855 C   0  0  0  0  0  0  0  0  0  0  0  0
   15.2751   -3.0641   -9.3472 C   0  0  0  0  0  0  0  0  0  0  0  0
   14.1834   -1.9746   -9.3556 C   0  0  0  0  0  0  0  0  0  0  0  0
   13.4912   -1.9766   -8.0802 N   0  0  0  0  0  0  0  0  0  0  0  0
   18.2375   -2.7273  -12.6526 C   0  0  0  0  0  0  0  0  0  0  0  0
   17.4960   -1.8997  -13.2353 O   0  0  0  0  0  0  0  0  0  0  0  0
   19.5601   -2.3756  -12.4342 O   0  0  0  0  0  0  0  0  0  0  0  0
  2  1  1  1
  2  5  1  0
  3  2  1  0
  4  3  1  0
  5  6  2  0
  7  5  1  0
  7  8  1  0
  8 11  1  0
  8  9  1  6
 10  9  1  0
 11 13  1  0
 12 11  2  0
 13 14  1  0
 14 15  1  1
 15 16  1  0
 16 17  1  0
 17 18  1  0
 19 18  1  0
 20 22  1  0
 20 14  1  0
 21 20  2  0
M  END
$$$$
