CCK.pdb
     RDKit          3D

 22 21  0  0  1  0  0  0  0  0999 V2000
   21.8086  -10.1940  -15.9750 N   0  0  0  0  0  0  0  0  0  0  0  0
   22.5889   -9.9736  -14.7697 C   0  0  1  0  0  0  0  0  0  0  0  0
   24.0247  -10.2761  -15.1061 C   0  0  0  0  0  0  0  0  0  0  0  0
   24.2547  -11.9312  -15.7827 S   0  0  0  0  0  0  0  0  0  0  0  0
   22.3846   -8.5986  -14.2769 C   0  0  0  0  0  0  0  0  0  0  0  0
   23.0216   -8.2114  -13.2587 O   0  0  0  0  0  0  0  0  0  0  0  0
   21.5097   -7.6650  -14.8744 N   0  0  0  0  0  0  0  0  0  0  0  0
   21.2786   -6.3305  -14.4308 C   0  0  1  0  0  0  0  0  0  0  0  0
   22.6284   -5.6020  -14.3940 C   0  0  0  0  0  0  0  0  0  0  0  0
   22.4517   -3.8789  -13.9325 S   0  0  0  0  0  0  0  0  0  0  0  0
   20.2997   -5.5860  -15.2199 C   0  0  0  0  0  0  0  0  0  0  0  0
   20.4734   -5.4733  -16.4579 O   0  0  0  0  0  0  0  0  0  0  0  0
   19.1436   -4.9682  -14.6796 N   0  0  0  0  0  0  0  0  0  0  0  0
   18.1164   -4.3312  -15.4963 C   0  0  1  0  0  0  0  0  0  0  0  0
   16.7581   -4.8810  -15.2754 C   0  0  0  0  0  0  0  0  0  0  0  0
   15.6401   -4.3113  -16.0570 C   0  0  0  0  0  0  0  0  0  0  0  0
   14.2894   -4.9081  -15.8485 C   0  0  0  0  0  0  0  0  0  0  0  0
   13.3006   -4.1776  -16.7798 C   0  0  0  0  0  0  0  0  0  0  0  0
   12.0029   -4.8229  -16.7058 N   0  0  0  0  0  0  0  0  0  0  0  0
   18.2369   -2.8710  -15.3034 C   0  0  0  0  0  0  0  0  0  0  0  0
   17.5848   -2.0753  -16.0216 O   0  0  0  0  0  0  0  0  0  0  0  0
   19.0691   -2.3384  -14.3315 O   0  0  0  0  0  0  0  0  0  0  0  0
  2  1  1  6
  2  5  1  0
  3  2  1  0
  4  3  1  0
  5  6  2  0
  7  5  1  0
  7  8  1  0
  8 11  1  0
  8  9  1  6
 10  9  1  0
 11 13  1  0
 12 11  2  0
 13 14  1  0
 14 15  1  1
 15 16  1  0
 16 17  1  0
 17 18  1  0
 19 18  1  0
 20 22  1  0
 20 14  1  0
 21 20  2  0
M  END
$$$$
