CCK.pdb
     RDKit          3D

 22 21  0  0  1  0  0  0  0  0999 V2000
   28.4477  -20.2615  -15.4427 N   0  0  0  0  0  0  0  0  0  0  0  0
   28.2524  -19.9064  -14.0477 C   0  0  1  0  0  0  0  0  0  0  0  0
   27.9265  -18.4373  -14.0027 C   0  0  0  0  0  0  0  0  0  0  0  0
   26.4481  -18.0159  -14.9443 S   0  0  0  0  0  0  0  0  0  0  0  0
   27.2029  -20.7532  -13.4503 C   0  0  0  0  0  0  0  0  0  0  0  0
   27.3523  -22.0062  -13.4509 O   0  0  0  0  0  0  0  0  0  0  0  0
   26.0188  -20.2528  -12.8659 N   0  0  0  0  0  0  0  0  0  0  0  0
   25.0609  -21.0118  -12.1329 C   0  0  1  0  0  0  0  0  0  0  0  0
   25.7470  -21.5503  -10.8707 C   0  0  0  0  0  0  0  0  0  0  0  0
   26.0457  -20.2595   -9.6633 S   0  0  0  0  0  0  0  0  0  0  0  0
   23.8359  -20.2886  -11.7985 C   0  0  0  0  0  0  0  0  0  0  0  0
   23.9143  -19.0857  -11.4489 O   0  0  0  0  0  0  0  0  0  0  0  0
   22.5376  -20.8568  -11.8405 N   0  0  0  0  0  0  0  0  0  0  0  0
   21.5682  -20.5701  -12.8920 C   0  0  1  0  0  0  0  0  0  0  0  0
   22.1283  -20.6767  -14.2598 C   0  0  0  0  0  0  0  0  0  0  0  0
   22.0276  -19.4992  -15.1479 C   0  0  0  0  0  0  0  0  0  0  0  0
   22.5245  -19.6554  -16.5453 C   0  0  0  0  0  0  0  0  0  0  0  0
   22.3328  -18.3069  -17.2689 C   0  0  0  0  0  0  0  0  0  0  0  0
   22.8602  -18.4047  -18.6174 N   0  0  0  0  0  0  0  0  0  0  0  0
   20.3770  -21.4075  -12.6392 C   0  0  0  0  0  0  0  0  0  0  0  0
   20.5002  -22.6130  -12.3143 O   0  0  0  0  0  0  0  0  0  0  0  0
   19.0957  -20.8917  -12.7540 O   0  0  0  0  0  0  0  0  0  0  0  0
  2  1  1  6
  2  5  1  0
  3  2  1  0
  4  3  1  0
  5  6  2  0
  7  5  1  0
  7  8  1  0
  8 11  1  0
  8  9  1  1
 10  9  1  0
 11 13  1  0
 12 11  2  0
 13 14  1  0
 14 15  1  6
 15 16  1  0
 16 17  1  0
 17 18  1  0
 19 18  1  0
 20 22  1  0
 20 14  1  0
 21 20  2  0
M  END
$$$$
