CCK.pdb
     RDKit          3D

 22 21  0  0  1  0  0  0  0  0999 V2000
   28.0846  -20.0753  -15.8428 N   0  0  0  0  0  0  0  0  0  0  0  0
   27.5436  -19.4381  -14.6547 C   0  0  1  0  0  0  0  0  0  0  0  0
   27.0367  -18.0820  -15.0673 C   0  0  0  0  0  0  0  0  0  0  0  0
   28.3628  -16.9214  -15.4472 S   0  0  0  0  0  0  0  0  0  0  0  0
   26.5011  -20.2897  -14.0519 C   0  0  0  0  0  0  0  0  0  0  0  0
   25.8142  -21.0393  -14.7993 O   0  0  0  0  0  0  0  0  0  0  0  0
   26.2103  -20.3275  -12.6706 N   0  0  0  0  0  0  0  0  0  0  0  0
   25.1114  -21.0025  -12.0641 C   0  0  1  0  0  0  0  0  0  0  0  0
   25.3048  -20.9528  -10.5428 C   0  0  0  0  0  0  0  0  0  0  0  0
   26.8558  -21.6950  -10.0363 S   0  0  0  0  0  0  0  0  0  0  0  0
   23.7962  -20.4917  -12.4446 C   0  0  0  0  0  0  0  0  0  0  0  0
   23.5567  -19.2666  -12.3133 O   0  0  0  0  0  0  0  0  0  0  0  0
   22.7482  -21.2941  -12.9622 N   0  0  0  0  0  0  0  0  0  0  0  0
   21.4694  -20.7549  -13.4112 C   0  0  1  0  0  0  0  0  0  0  0  0
   21.2703  -20.8439  -14.8769 C   0  0  0  0  0  0  0  0  0  0  0  0
   20.0162  -20.3044  -15.4440 C   0  0  0  0  0  0  0  0  0  0  0  0
   19.8191  -20.4427  -16.9157 C   0  0  0  0  0  0  0  0  0  0  0  0
   18.5283  -19.6877  -17.2931 C   0  0  0  0  0  0  0  0  0  0  0  0
   18.2883  -19.8261  -18.7176 N   0  0  0  0  0  0  0  0  0  0  0  0
   20.4097  -21.3879  -12.5985 C   0  0  0  0  0  0  0  0  0  0  0  0
   20.5218  -22.5777  -12.2164 O   0  0  0  0  0  0  0  0  0  0  0  0
   19.2664  -20.6930  -12.2371 O   0  0  0  0  0  0  0  0  0  0  0  0
  2  1  1  6
  2  5  1  0
  3  2  1  0
  4  3  1  0
  5  6  2  0
  7  5  1  0
  7  8  1  0
  8 11  1  0
  8  9  1  1
 10  9  1  0
 11 13  1  0
 12 11  2  0
 13 14  1  0
 14 15  1  6
 15 16  1  0
 16 17  1  0
 17 18  1  0
 19 18  1  0
 20 22  1  0
 20 14  1  0
 21 20  2  0
M  END
$$$$
