CCK.pdb
     RDKit          3D

 22 21  0  0  1  0  0  0  0  0999 V2000
   24.0329  -10.4579  -15.5140 N   0  0  0  0  0  0  0  0  0  0  0  0
   23.0735   -9.6120  -16.2026 C   0  0  1  0  0  0  0  0  0  0  0  0
   22.0016  -10.5122  -16.7564 C   0  0  0  0  0  0  0  0  0  0  0  0
   21.0263  -11.3171  -15.4716 S   0  0  0  0  0  0  0  0  0  0  0  0
   22.5513   -8.5839  -15.2830 C   0  0  0  0  0  0  0  0  0  0  0  0
   22.6764   -8.7538  -14.0389 O   0  0  0  0  0  0  0  0  0  0  0  0
   21.9083   -7.3989  -15.7028 N   0  0  0  0  0  0  0  0  0  0  0  0
   21.4763   -6.3357  -14.8578 C   0  0  1  0  0  0  0  0  0  0  0  0
   22.7104   -5.5178  -14.4551 C   0  0  0  0  0  0  0  0  0  0  0  0
   22.2853   -4.1312  -13.4016 S   0  0  0  0  0  0  0  0  0  0  0  0
   20.4422   -5.4793  -15.4347 C   0  0  0  0  0  0  0  0  0  0  0  0
   20.6196   -4.9963  -16.5796 O   0  0  0  0  0  0  0  0  0  0  0  0
   19.2277   -5.1463  -14.7836 N   0  0  0  0  0  0  0  0  0  0  0  0
   18.1748   -4.3500  -15.4042 C   0  0  1  0  0  0  0  0  0  0  0  0
   16.8530   -5.0199  -15.4146 C   0  0  0  0  0  0  0  0  0  0  0  0
   15.6908   -4.2605  -15.9224 C   0  0  0  0  0  0  0  0  0  0  0  0
   14.3826   -4.9742  -15.9788 C   0  0  0  0  0  0  0  0  0  0  0  0
   13.3387   -4.0027  -16.5664 C   0  0  0  0  0  0  0  0  0  0  0  0
   12.0999   -4.7176  -16.8120 N   0  0  0  0  0  0  0  0  0  0  0  0
   18.1926   -3.0160  -14.7685 C   0  0  0  0  0  0  0  0  0  0  0  0
   18.7209   -2.8514  -13.6424 O   0  0  0  0  0  0  0  0  0  0  0  0
   17.6291   -1.9133  -15.3907 O   0  0  0  0  0  0  0  0  0  0  0  0
  2  1  1  1
  2  5  1  0
  3  2  1  0
  4  3  1  0
  5  6  2  0
  7  5  1  0
  7  8  1  0
  8 11  1  0
  8  9  1  6
 10  9  1  0
 11 13  1  0
 12 11  2  0
 13 14  1  0
 14 15  1  1
 15 16  1  0
 16 17  1  0
 17 18  1  0
 19 18  1  0
 20 22  1  0
 20 14  1  0
 21 20  2  0
M  END
$$$$
