MCV.pdb
     RDKit          3D

 22 21  0  0  1  0  0  0  0  0999 V2000
    8.7876  -12.5355   20.3224 C   0  0  0  0  0  0  0  0  0  0  0  0
    8.2942  -13.5201   18.8849 S   0  0  0  0  0  0  0  0  0  0  0  0
    6.7230  -14.3455   19.1775 C   0  0  0  0  0  0  0  0  0  0  0  0
    6.7504  -15.8102   18.8249 C   0  0  0  0  0  0  0  0  0  0  0  0
    7.5880  -16.6236   19.7722 C   0  0  2  0  0  0  0  0  0  0  0  0
    7.6667  -18.0243   19.3430 N   0  0  0  0  0  0  0  0  0  0  0  0
    7.0557  -16.5140   21.1389 C   0  0  0  0  0  0  0  0  0  0  0  0
    5.8648  -16.9296   21.3111 O   0  0  0  0  0  0  0  0  0  0  0  0
    7.7750  -15.9855   22.2465 N   0  0  0  0  0  0  0  0  0  0  0  0
    7.3381  -16.2877   23.5703 C   0  0  1  0  0  0  0  0  0  0  0  0
    7.4543  -17.7951   23.7786 C   0  0  0  0  0  0  0  0  0  0  0  0
    7.0490  -18.2488   25.4831 S   0  0  0  0  0  0  0  0  0  0  0  0
    8.0781  -15.5333   24.6156 C   0  0  0  0  0  0  0  0  0  0  0  0
    9.2940  -15.6878   24.8435 O   0  0  0  0  0  0  0  0  0  0  0  0
    6.1906  -12.1537   25.6721 C   0  0  0  0  0  0  0  0  0  0  0  0
    6.8946  -12.7730   26.8621 C   0  0  2  0  0  0  0  0  0  0  0  0
    7.5754  -11.6476   27.6195 C   0  0  0  0  0  0  0  0  0  0  0  0
    7.9677  -13.6974   26.3515 C   0  0  2  0  0  0  0  0  0  0  0  0
    7.3633  -14.5954   25.3870 N   0  0  0  0  0  0  0  0  0  0  0  0
    8.6965  -14.3997   27.4066 C   0  0  0  0  0  0  0  0  0  0  0  0
    9.6330  -13.8201   28.0091 O   0  0  0  0  0  0  0  0  0  0  0  0
    8.4055  -15.6981   27.7884 O   0  0  0  0  0  0  0  0  0  0  0  0
  2  1  1  0
  3  2  1  0
  3  4  1  0
  4  5  1  0
  5  7  1  0
  5  6  1  6
  7  8  2  0
  7  9  1  0
  9 10  1  0
 10 13  1  0
 10 11  1  1
 11 12  1  0
 13 14  2  0
 16 15  1  6
 16 18  1  0
 17 16  1  0
 18 20  1  0
 19 13  1  0
 18 19  1  6
 20 22  1  0
 21 20  2  0
M  END
$$$$
