MCV.pdb
     RDKit          3D

 22 21  0  0  1  0  0  0  0  0999 V2000
    8.0097  -11.7842   20.2472 C   0  0  0  0  0  0  0  0  0  0  0  0
    8.0687  -12.7173   18.6965 S   0  0  0  0  0  0  0  0  0  0  0  0
    8.0141  -14.4882   19.0072 C   0  0  0  0  0  0  0  0  0  0  0  0
    7.4946  -14.8315   20.3793 C   0  0  0  0  0  0  0  0  0  0  0  0
    7.4726  -16.3117   20.6422 C   0  0  2  0  0  0  0  0  0  0  0  0
    6.3743  -16.9632   19.9199 N   0  0  0  0  0  0  0  0  0  0  0  0
    7.3850  -16.5667   22.0881 C   0  0  0  0  0  0  0  0  0  0  0  0
    6.2485  -16.3644   22.6247 O   0  0  0  0  0  0  0  0  0  0  0  0
    8.4666  -17.0134   22.8970 N   0  0  0  0  0  0  0  0  0  0  0  0
    8.2743  -17.1533   24.3035 C   0  0  1  0  0  0  0  0  0  0  0  0
    8.7318  -18.5512   24.7108 C   0  0  0  0  0  0  0  0  0  0  0  0
    7.5420  -19.8058   24.1761 S   0  0  0  0  0  0  0  0  0  0  0  0
    8.9643  -16.1008   25.0944 C   0  0  0  0  0  0  0  0  0  0  0  0
   10.1354  -15.7335   24.8754 O   0  0  0  0  0  0  0  0  0  0  0  0
    6.7235  -13.1887   26.3909 C   0  0  0  0  0  0  0  0  0  0  0  0
    7.5963  -13.6584   27.5366 C   0  0  2  0  0  0  0  0  0  0  0  0
    8.1337  -12.4206   28.2313 C   0  0  0  0  0  0  0  0  0  0  0  0
    8.7692  -14.4090   26.9641 C   0  0  2  0  0  0  0  0  0  0  0  0
    8.2533  -15.4891   26.1460 N   0  0  0  0  0  0  0  0  0  0  0  0
    9.7301  -14.8625   27.9683 C   0  0  0  0  0  0  0  0  0  0  0  0
    9.5741  -15.9790   28.5207 O   0  0  0  0  0  0  0  0  0  0  0  0
   10.8284  -14.1132   28.3539 O   0  0  0  0  0  0  0  0  0  0  0  0
  2  1  1  0
  3  2  1  0
  3  4  1  0
  4  5  1  0
  5  7  1  0
  5  6  1  6
  7  8  2  0
  7  9  1  0
  9 10  1  0
 10 13  1  0
 10 11  1  1
 11 12  1  0
 13 14  2  0
 16 15  1  6
 16 18  1  0
 17 16  1  0
 18 20  1  0
 19 13  1  0
 18 19  1  1
 20 22  1  0
 21 20  2  0
M  END
$$$$
