MCV.pdb
     RDKit          3D

 22 21  0  0  1  0  0  0  0  0999 V2000
    7.0446  -12.1667   26.5149 C   0  0  0  0  0  0  0  0  0  0  0  0
    6.0866  -11.6262   25.0764 S   0  0  0  0  0  0  0  0  0  0  0  0
    6.6210  -12.4820   23.5873 C   0  0  0  0  0  0  0  0  0  0  0  0
    7.2749  -13.8094   23.8713 C   0  0  0  0  0  0  0  0  0  0  0  0
    7.7148  -14.5230   22.6232 C   0  0  2  0  0  0  0  0  0  0  0  0
    6.5691  -14.8530   21.7682 N   0  0  0  0  0  0  0  0  0  0  0  0
    8.4826  -15.7275   22.9737 C   0  0  0  0  0  0  0  0  0  0  0  0
    7.8137  -16.8045   23.0881 O   0  0  0  0  0  0  0  0  0  0  0  0
    9.8889  -15.7562   23.1861 N   0  0  0  0  0  0  0  0  0  0  0  0
   10.4478  -16.7689   24.0208 C   0  0  1  0  0  0  0  0  0  0  0  0
   11.3968  -17.6138   23.1753 C   0  0  0  0  0  0  0  0  0  0  0  0
   12.2346  -18.8590   24.1869 S   0  0  0  0  0  0  0  0  0  0  0  0
   11.1278  -16.2235   25.2247 C   0  0  0  0  0  0  0  0  0  0  0  0
   12.2059  -15.5991   25.1813 O   0  0  0  0  0  0  0  0  0  0  0  0
    8.9917  -15.3163   28.5701 C   0  0  0  0  0  0  0  0  0  0  0  0
   10.4487  -14.9561   28.3638 C   0  0  2  0  0  0  0  0  0  0  0  0
   10.4946  -13.8210   27.3572 C   0  0  0  0  0  0  0  0  0  0  0  0
   11.1493  -16.1403   27.7523 C   0  0  2  0  0  0  0  0  0  0  0  0
   10.5177  -16.4254   26.4788 N   0  0  0  0  0  0  0  0  0  0  0  0
   11.2165  -17.3075   28.6301 C   0  0  0  0  0  0  0  0  0  0  0  0
   11.8943  -17.2553   29.6855 O   0  0  0  0  0  0  0  0  0  0  0  0
   10.5597  -18.4951   28.3573 O   0  0  0  0  0  0  0  0  0  0  0  0
  2  1  1  0
  3  2  1  0
  3  4  1  0
  4  5  1  0
  5  7  1  0
  5  6  1  1
  7  8  2  0
  7  9  1  0
  9 10  1  0
 10 13  1  0
 10 11  1  6
 11 12  1  0
 13 14  2  0
 16 15  1  6
 16 18  1  0
 17 16  1  0
 18 20  1  0
 19 13  1  0
 18 19  1  6
 20 22  1  0
 21 20  2  0
M  END
$$$$
