MCV.pdb
     RDKit          3D

 22 21  0  0  1  0  0  0  0  0999 V2000
    6.5982  -20.1201   27.4543 C   0  0  0  0  0  0  0  0  0  0  0  0
    6.3742  -21.0417   25.9117 S   0  0  0  0  0  0  0  0  0  0  0  0
    6.4115  -19.9393   24.4909 C   0  0  0  0  0  0  0  0  0  0  0  0
    6.0086  -18.5271   24.8281 C   0  0  0  0  0  0  0  0  0  0  0  0
    6.0855  -17.5997   23.6472 C   0  0  2  0  0  0  0  0  0  0  0  0
    6.5378  -18.3076   22.4444 N   0  0  0  0  0  0  0  0  0  0  0  0
    6.9621  -16.4598   23.9561 C   0  0  0  0  0  0  0  0  0  0  0  0
    8.1654  -16.5528   23.5511 O   0  0  0  0  0  0  0  0  0  0  0  0
    6.5536  -15.2938   24.6612 N   0  0  0  0  0  0  0  0  0  0  0  0
    7.5451  -14.4156   25.1908 C   0  0  1  0  0  0  0  0  0  0  0  0
    6.8639  -13.1067   25.5805 C   0  0  0  0  0  0  0  0  0  0  0  0
    5.3441  -13.4175   26.5128 S   0  0  0  0  0  0  0  0  0  0  0  0
    8.2945  -15.0023   26.3325 C   0  0  0  0  0  0  0  0  0  0  0  0
    7.8093  -15.8449   27.1127 O   0  0  0  0  0  0  0  0  0  0  0  0
   11.8582  -16.1653   25.7933 C   0  0  0  0  0  0  0  0  0  0  0  0
   11.8910  -15.2066   26.9658 C   0  0  2  0  0  0  0  0  0  0  0  0
   12.8038  -15.8107   28.0173 C   0  0  0  0  0  0  0  0  0  0  0  0
   10.5066  -15.1250   27.5522 C   0  0  2  0  0  0  0  0  0  0  0  0
    9.6230  -14.5807   26.5397 N   0  0  0  0  0  0  0  0  0  0  0  0
   10.4410  -14.3968   28.8182 C   0  0  0  0  0  0  0  0  0  0  0  0
   10.1641  -13.1723   28.8193 O   0  0  0  0  0  0  0  0  0  0  0  0
   10.6723  -14.9948   30.0451 O   0  0  0  0  0  0  0  0  0  0  0  0
  2  1  1  0
  3  2  1  0
  3  4  1  0
  4  5  1  0
  5  7  1  0
  5  6  1  6
  7  8  2  0
  7  9  1  0
  9 10  1  0
 10 13  1  0
 10 11  1  1
 11 12  1  0
 13 14  2  0
 16 15  1  6
 16 18  1  0
 17 16  1  0
 18 20  1  0
 19 13  1  0
 18 19  1  6
 20 22  1  0
 21 20  2  0
M  END
$$$$
