MCV.pdb
     RDKit          3D

 22 21  0  0  1  0  0  0  0  0999 V2000
   14.2416  -18.0026   21.3507 C   0  0  0  0  0  0  0  0  0  0  0  0
   13.4634  -19.0003   20.0552 S   0  0  0  0  0  0  0  0  0  0  0  0
   11.7028  -18.6498   19.9417 C   0  0  0  0  0  0  0  0  0  0  0  0
   11.2142  -17.7219   21.0237 C   0  0  0  0  0  0  0  0  0  0  0  0
    9.7290  -17.4940   20.9713 C   0  0  2  0  0  0  0  0  0  0  0  0
    9.3604  -16.6558   19.8250 N   0  0  0  0  0  0  0  0  0  0  0  0
    9.2636  -16.9032   22.2352 C   0  0  0  0  0  0  0  0  0  0  0  0
    9.4635  -15.6540   22.3767 O   0  0  0  0  0  0  0  0  0  0  0  0
    8.6216  -17.6274   23.2779 N   0  0  0  0  0  0  0  0  0  0  0  0
    8.1459  -16.9250   24.4245 C   0  0  1  0  0  0  0  0  0  0  0  0
    6.9511  -17.6881   24.9897 C   0  0  0  0  0  0  0  0  0  0  0  0
    7.4555  -19.3046   25.6283 S   0  0  0  0  0  0  0  0  0  0  0  0
    9.1951  -16.7121   25.4556 C   0  0  0  0  0  0  0  0  0  0  0  0
   10.2932  -17.3024   25.4506 O   0  0  0  0  0  0  0  0  0  0  0  0
    9.0763  -13.1764   27.3745 C   0  0  0  0  0  0  0  0  0  0  0  0
    9.2914  -14.3230   28.3410 C   0  0  2  0  0  0  0  0  0  0  0  0
   10.3472  -13.8809   29.3377 C   0  0  0  0  0  0  0  0  0  0  0  0
    9.8461  -15.4938   27.5740 C   0  0  2  0  0  0  0  0  0  0  0  0
    8.9301  -15.7938   26.4910 N   0  0  0  0  0  0  0  0  0  0  0  0
   10.1478  -16.6579   28.4055 C   0  0  0  0  0  0  0  0  0  0  0  0
    9.2566  -17.5142   28.6258 O   0  0  0  0  0  0  0  0  0  0  0  0
   11.3897  -16.8750   28.9772 O   0  0  0  0  0  0  0  0  0  0  0  0
  2  1  1  0
  3  2  1  0
  3  4  1  0
  4  5  1  0
  5  7  1  0
  5  6  1  6
  7  8  2  0
  7  9  1  0
  9 10  1  0
 10 13  1  0
 10 11  1  1
 11 12  1  0
 13 14  2  0
 16 15  1  6
 16 18  1  0
 17 16  1  0
 18 20  1  0
 19 13  1  0
 18 19  1  6
 20 22  1  0
 21 20  2  0
M  END
$$$$
