MCV.pdb
     RDKit          3D

 22 21  0  0  1  0  0  0  0  0999 V2000
    8.5860  -11.8390   20.8681 C   0  0  0  0  0  0  0  0  0  0  0  0
    8.3389  -12.5454   19.2192 S   0  0  0  0  0  0  0  0  0  0  0  0
    8.7366  -14.2996   19.2031 C   0  0  0  0  0  0  0  0  0  0  0  0
    7.9816  -15.0860   20.2432 C   0  0  0  0  0  0  0  0  0  0  0  0
    8.3687  -16.5385   20.2723 C   0  0  2  0  0  0  0  0  0  0  0  0
    7.4673  -17.3451   19.4420 N   0  0  0  0  0  0  0  0  0  0  0  0
    8.3952  -17.0267   21.6594 C   0  0  0  0  0  0  0  0  0  0  0  0
    7.6143  -17.9957   21.9273 O   0  0  0  0  0  0  0  0  0  0  0  0
    9.2198  -16.4930   22.6885 N   0  0  0  0  0  0  0  0  0  0  0  0
    9.2347  -17.1235   23.9678 C   0  0  1  0  0  0  0  0  0  0  0  0
    9.7879  -18.5357   23.7973 C   0  0  0  0  0  0  0  0  0  0  0  0
   10.1940  -19.2725   25.3996 S   0  0  0  0  0  0  0  0  0  0  0  0
    9.9983  -16.3574   24.9873 C   0  0  0  0  0  0  0  0  0  0  0  0
   11.2159  -16.1082   24.8899 O   0  0  0  0  0  0  0  0  0  0  0  0
    8.2581  -13.3442   26.3041 C   0  0  0  0  0  0  0  0  0  0  0  0
    8.7946  -14.0351   27.5410 C   0  0  2  0  0  0  0  0  0  0  0  0
    9.4438  -12.9708   28.4067 C   0  0  0  0  0  0  0  0  0  0  0  0
    9.8695  -15.0008   27.1178 C   0  0  2  0  0  0  0  0  0  0  0  0
    9.3051  -15.8903   26.1217 N   0  0  0  0  0  0  0  0  0  0  0  0
   10.4972  -15.7135   28.2293 C   0  0  0  0  0  0  0  0  0  0  0  0
    9.9833  -16.7754   28.6584 O   0  0  0  0  0  0  0  0  0  0  0  0
   11.6536  -15.2737   28.8502 O   0  0  0  0  0  0  0  0  0  0  0  0
  2  1  1  0
  3  2  1  0
  3  4  1  0
  4  5  1  0
  5  7  1  0
  5  6  1  6
  7  8  2  0
  7  9  1  0
  9 10  1  0
 10 13  1  0
 10 11  1  6
 11 12  1  0
 13 14  2  0
 16 15  1  6
 16 18  1  0
 17 16  1  0
 18 20  1  0
 19 13  1  0
 18 19  1  6
 20 22  1  0
 21 20  2  0
M  END
$$$$
