MCV.pdb
     RDKit          3D

 22 21  0  0  1  0  0  0  0  0999 V2000
    8.2218  -11.6001   19.9300 C   0  0  0  0  0  0  0  0  0  0  0  0
    7.8879  -12.5889   18.4501 S   0  0  0  0  0  0  0  0  0  0  0  0
    7.9401  -14.3475   18.8245 C   0  0  0  0  0  0  0  0  0  0  0  0
    7.6406  -14.6531   20.2692 C   0  0  0  0  0  0  0  0  0  0  0  0
    7.7533  -16.1171   20.5922 C   0  0  2  0  0  0  0  0  0  0  0  0
    6.7425  -16.8993   19.8719 N   0  0  0  0  0  0  0  0  0  0  0  0
    7.6512  -16.3234   22.0449 C   0  0  0  0  0  0  0  0  0  0  0  0
    6.4723  -16.3595   22.5240 O   0  0  0  0  0  0  0  0  0  0  0  0
    8.7624  -16.4800   22.9191 N   0  0  0  0  0  0  0  0  0  0  0  0
    8.5387  -16.5496   24.3261 C   0  0  1  0  0  0  0  0  0  0  0  0
    9.1602  -17.8435   24.8445 C   0  0  0  0  0  0  0  0  0  0  0  0
   10.9494  -17.8598   24.5720 S   0  0  0  0  0  0  0  0  0  0  0  0
    9.0552  -15.3639   25.0587 C   0  0  0  0  0  0  0  0  0  0  0  0
   10.0989  -14.7607   24.7407 O   0  0  0  0  0  0  0  0  0  0  0  0
    6.4129  -13.4494   27.5901 C   0  0  0  0  0  0  0  0  0  0  0  0
    7.7006  -12.7998   27.1262 C   0  0  2  0  0  0  0  0  0  0  0  0
    7.4692  -12.2986   25.7124 C   0  0  0  0  0  0  0  0  0  0  0  0
    8.7722  -13.8559   27.0691 C   0  0  2  0  0  0  0  0  0  0  0  0
    8.3231  -14.9010   26.1702 N   0  0  0  0  0  0  0  0  0  0  0  0
    9.1742  -14.3641   28.3797 C   0  0  0  0  0  0  0  0  0  0  0  0
    8.8453  -15.5252   28.7256 O   0  0  0  0  0  0  0  0  0  0  0  0
    9.9146  -13.6202   29.2823 O   0  0  0  0  0  0  0  0  0  0  0  0
  2  1  1  0
  3  2  1  0
  3  4  1  0
  4  5  1  0
  5  7  1  0
  5  6  1  6
  7  8  2  0
  7  9  1  0
  9 10  1  0
 10 13  1  0
 10 11  1  1
 11 12  1  0
 13 14  2  0
 16 15  1  6
 16 18  1  0
 17 16  1  0
 18 20  1  0
 19 13  1  0
 18 19  1  6
 20 22  1  0
 21 20  2  0
M  END
$$$$
