NNK.pdb
     RDKit          3D

 26 25  0  0  1  0  0  0  0  0999 V2000
    8.1103  -18.2926   16.5618 N   0  0  0  0  0  0  0  0  0  0  0  0
    9.3357  -17.8892   17.1515 C   0  0  0  0  0  0  0  0  0  0  0  0
   10.4189  -18.4543   16.8075 O   0  0  0  0  0  0  0  0  0  0  0  0
    9.3388  -16.8153   18.1569 C   0  0  0  0  0  0  0  0  0  0  0  0
   10.2837  -17.1177   19.2971 C   0  0  2  0  0  0  0  0  0  0  0  0
    9.7656  -18.3548   19.8909 N   0  0  0  0  0  0  0  0  0  0  0  0
   10.1150  -16.0050   20.3043 C   0  0  0  0  0  0  0  0  0  0  0  0
   10.4680  -14.8290   20.0804 O   0  0  0  0  0  0  0  0  0  0  0  0
    8.1440  -12.9870   24.1047 N   0  0  0  0  0  0  0  0  0  0  0  0
    8.0935  -14.3580   24.4455 C   0  0  0  0  0  0  0  0  0  0  0  0
    8.0367  -14.6829   25.6412 O   0  0  0  0  0  0  0  0  0  0  0  0
    8.1077  -15.3703   23.3864 C   0  0  0  0  0  0  0  0  0  0  0  0
    9.4208  -15.3078   22.6492 C   0  0  2  0  0  0  0  0  0  0  0  0
    9.5232  -16.2865   21.5877 N   0  0  0  0  0  0  0  0  0  0  0  0
   10.5708  -15.4449   23.5989 C   0  0  0  0  0  0  0  0  0  0  0  0
   10.6555  -14.6762   24.5737 O   0  0  0  0  0  0  0  0  0  0  0  0
   11.5409  -16.4465   23.3693 N   0  0  0  0  0  0  0  0  0  0  0  0
   12.7082  -16.5362   24.2551 C   0  0  1  0  0  0  0  0  0  0  0  0
   12.9787  -17.9805   24.5717 C   0  0  0  0  0  0  0  0  0  0  0  0
   11.9297  -18.5306   25.4874 C   0  0  0  0  0  0  0  0  0  0  0  0
   12.2011  -19.9777   25.8388 C   0  0  0  0  0  0  0  0  0  0  0  0
   11.1579  -20.3483   26.8891 C   0  0  0  0  0  0  0  0  0  0  0  0
   11.1464  -21.7526   27.1788 N   0  0  0  0  0  0  0  0  0  0  0  0
   13.8731  -15.9549   23.5462 C   0  0  0  0  0  0  0  0  0  0  0  0
   13.7388  -15.6701   22.1674 O   0  0  0  0  0  0  0  0  0  0  0  0
   14.9780  -15.6910   24.0677 O   0  0  0  0  0  0  0  0  0  0  0  0
  2  1  1  0
  2  3  2  0
  4  2  1  0
  5  4  1  0
  5  6  1  1
  7  5  1  0
  8  7  2  0
  9 10  1  0
 10 12  1  0
 11 10  2  0
 13 12  1  1
 13 14  1  0
 14  7  1  0
 15 13  1  0
 15 16  2  0
 17 18  1  0
 17 15  1  0
 18 19  1  6
 19 20  1  0
 21 20  1  0
 22 23  1  0
 22 21  1  0
 24 18  1  0
 25 24  1  0
 26 24  2  0
M  END
$$$$
