NNK.pdb
     RDKit          3D

 26 25  0  0  1  0  0  0  0  0999 V2000
   10.4042  -18.8874   15.9280 N   0  0  0  0  0  0  0  0  0  0  0  0
   11.1058  -17.6576   16.0154 C   0  0  0  0  0  0  0  0  0  0  0  0
   11.5862  -17.1281   14.9667 O   0  0  0  0  0  0  0  0  0  0  0  0
   11.2679  -17.0056   17.3241 C   0  0  0  0  0  0  0  0  0  0  0  0
   10.9616  -17.9507   18.4630 C   0  0  2  0  0  0  0  0  0  0  0  0
    9.5437  -18.2872   18.2955 N   0  0  0  0  0  0  0  0  0  0  0  0
   11.1092  -17.1535   19.7372 C   0  0  0  0  0  0  0  0  0  0  0  0
   12.2029  -16.6956   20.1272 O   0  0  0  0  0  0  0  0  0  0  0  0
   10.1914  -15.0146   24.2147 N   0  0  0  0  0  0  0  0  0  0  0  0
    8.9187  -15.0024   23.5994 C   0  0  0  0  0  0  0  0  0  0  0  0
    7.9873  -14.3934   24.1472 O   0  0  0  0  0  0  0  0  0  0  0  0
    8.7197  -15.7050   22.3292 C   0  0  0  0  0  0  0  0  0  0  0  0
   10.0269  -16.3019   21.8750 C   0  0  2  0  0  0  0  0  0  0  0  0
    9.9525  -16.8957   20.5571 N   0  0  0  0  0  0  0  0  0  0  0  0
   10.5294  -17.3015   22.8708 C   0  0  0  0  0  0  0  0  0  0  0  0
    9.9440  -18.3927   22.9926 O   0  0  0  0  0  0  0  0  0  0  0  0
   11.6613  -16.9858   23.6558 N   0  0  0  0  0  0  0  0  0  0  0  0
   12.1693  -17.9717   24.6177 C   0  0  1  0  0  0  0  0  0  0  0  0
   13.6672  -18.0398   24.5113 C   0  0  0  0  0  0  0  0  0  0  0  0
   14.0823  -18.5900   23.1823 C   0  0  0  0  0  0  0  0  0  0  0  0
   15.5838  -18.7616   23.0956 C   0  0  0  0  0  0  0  0  0  0  0  0
   15.8456  -19.4115   21.7399 C   0  0  0  0  0  0  0  0  0  0  0  0
   17.2449  -19.5306   21.4501 N   0  0  0  0  0  0  0  0  0  0  0  0
   11.7860  -17.5297   25.9797 C   0  0  0  0  0  0  0  0  0  0  0  0
   11.9714  -18.4354   27.0501 O   0  0  0  0  0  0  0  0  0  0  0  0
   11.3069  -16.4118   26.2684 O   0  0  0  0  0  0  0  0  0  0  0  0
  2  1  1  0
  2  3  2  0
  4  2  1  0
  5  4  1  0
  5  6  1  6
  7  5  1  0
  8  7  2  0
  9 10  1  0
 10 12  1  0
 11 10  2  0
 13 12  1  1
 13 14  1  0
 14  7  1  0
 15 13  1  0
 15 16  2  0
 17 18  1  0
 17 15  1  0
 18 19  1  1
 19 20  1  0
 21 20  1  0
 22 23  1  0
 22 21  1  0
 24 18  1  0
 25 24  1  0
 26 24  2  0
M  END
$$$$
