NNK.pdb
     RDKit          3D

 26 25  0  0  1  0  0  0  0  0999 V2000
    8.8417  -15.5996   13.0960 N   0  0  0  0  0  0  0  0  0  0  0  0
    7.6364  -15.0927   13.6461 C   0  0  0  0  0  0  0  0  0  0  0  0
    6.5916  -15.0292   12.9282 O   0  0  0  0  0  0  0  0  0  0  0  0
    7.6091  -14.6467   15.0476 C   0  0  0  0  0  0  0  0  0  0  0  0
    8.9703  -14.7514   15.6958 C   0  0  2  0  0  0  0  0  0  0  0  0
    9.2107  -16.1926   15.8248 N   0  0  0  0  0  0  0  0  0  0  0  0
    8.8337  -14.1706   17.0833 C   0  0  0  0  0  0  0  0  0  0  0  0
    8.6190  -12.9590   17.2926 O   0  0  0  0  0  0  0  0  0  0  0  0
    8.0841  -12.4257   21.8124 N   0  0  0  0  0  0  0  0  0  0  0  0
    7.4023  -13.5451   21.2826 C   0  0  0  0  0  0  0  0  0  0  0  0
    6.7158  -14.2492   22.0385 O   0  0  0  0  0  0  0  0  0  0  0  0
    7.5151  -13.8550   19.8551 C   0  0  0  0  0  0  0  0  0  0  0  0
    8.8210  -14.5615   19.5960 C   0  0  2  0  0  0  0  0  0  0  0  0
    8.9519  -15.0311   18.2331 N   0  0  0  0  0  0  0  0  0  0  0  0
    9.0138  -15.6924   20.5590 C   0  0  0  0  0  0  0  0  0  0  0  0
    8.2677  -16.6860   20.4947 O   0  0  0  0  0  0  0  0  0  0  0  0
   10.0417  -15.6093   21.5253 N   0  0  0  0  0  0  0  0  0  0  0  0
   10.4306  -16.8136   22.2694 C   0  0  1  0  0  0  0  0  0  0  0  0
   11.9153  -16.7920   22.5035 C   0  0  0  0  0  0  0  0  0  0  0  0
   12.3810  -18.0884   23.0900 C   0  0  0  0  0  0  0  0  0  0  0  0
   13.8718  -18.0767   23.3523 C   0  0  0  0  0  0  0  0  0  0  0  0
   14.2095  -19.4732   23.8667 C   0  0  0  0  0  0  0  0  0  0  0  0
   15.6056  -19.6284   24.1550 N   0  0  0  0  0  0  0  0  0  0  0  0
    9.7208  -16.8033   23.5707 C   0  0  0  0  0  0  0  0  0  0  0  0
    9.0665  -15.6122   23.9625 O   0  0  0  0  0  0  0  0  0  0  0  0
    9.6493  -17.7681   24.3623 O   0  0  0  0  0  0  0  0  0  0  0  0
  2  1  1  0
  2  3  2  0
  4  2  1  0
  5  4  1  0
  5  6  1  1
  7  5  1  0
  8  7  2  0
  9 10  1  0
 10 12  1  0
 11 10  2  0
 13 12  1  6
 13 14  1  0
 14  7  1  0
 15 13  1  0
 15 16  2  0
 17 18  1  0
 17 15  1  0
 18 19  1  1
 19 20  1  0
 21 20  1  0
 22 23  1  0
 22 21  1  0
 24 18  1  0
 25 24  1  0
 26 24  2  0
M  END
$$$$
