NNK.pdb
     RDKit          3D

 26 25  0  0  1  0  0  0  0  0999 V2000
   14.2722  -15.1650   14.9500 N   0  0  0  0  0  0  0  0  0  0  0  0
   13.2579  -15.6628   15.8077 C   0  0  0  0  0  0  0  0  0  0  0  0
   12.7813  -16.8234   15.6159 O   0  0  0  0  0  0  0  0  0  0  0  0
   12.7690  -14.8272   16.9153 C   0  0  0  0  0  0  0  0  0  0  0  0
   12.5641  -15.6330   18.1774 C   0  0  2  0  0  0  0  0  0  0  0  0
   11.6162  -16.6856   17.7965 N   0  0  0  0  0  0  0  0  0  0  0  0
   11.8808  -14.7193   19.1669 C   0  0  0  0  0  0  0  0  0  0  0  0
   12.3765  -13.6380   19.5451 O   0  0  0  0  0  0  0  0  0  0  0  0
    9.5161  -12.7056   18.4327 N   0  0  0  0  0  0  0  0  0  0  0  0
    8.3298  -13.2452   18.9804 C   0  0  0  0  0  0  0  0  0  0  0  0
    7.2446  -13.0029   18.4308 O   0  0  0  0  0  0  0  0  0  0  0  0
    8.3993  -14.0796   20.1827 C   0  0  0  0  0  0  0  0  0  0  0  0
    9.8382  -14.2367   20.6027 C   0  0  2  0  0  0  0  0  0  0  0  0
   10.5996  -15.0881   19.7136 N   0  0  0  0  0  0  0  0  0  0  0  0
    9.9292  -14.7380   22.0112 C   0  0  0  0  0  0  0  0  0  0  0  0
   10.4213  -14.0084   22.8907 O   0  0  0  0  0  0  0  0  0  0  0  0
    9.4541  -16.0337   22.3154 N   0  0  0  0  0  0  0  0  0  0  0  0
   10.3505  -16.9953   22.9690 C   0  0  1  0  0  0  0  0  0  0  0  0
   10.7940  -18.0203   21.9629 C   0  0  0  0  0  0  0  0  0  0  0  0
   11.6958  -19.0334   22.5968 C   0  0  0  0  0  0  0  0  0  0  0  0
   12.1173  -20.0991   21.6079 C   0  0  0  0  0  0  0  0  0  0  0  0
   13.0511  -21.0284   22.3782 C   0  0  0  0  0  0  0  0  0  0  0  0
   12.3544  -22.1242   22.9867 N   0  0  0  0  0  0  0  0  0  0  0  0
   11.5293  -16.2559   23.4799 C   0  0  0  0  0  0  0  0  0  0  0  0
   11.6177  -16.0248   24.8724 O   0  0  0  0  0  0  0  0  0  0  0  0
   12.4642  -15.8131   22.7781 O   0  0  0  0  0  0  0  0  0  0  0  0
  2  1  1  0
  2  3  2  0
  4  2  1  0
  5  4  1  0
  5  6  1  6
  7  5  1  0
  8  7  2  0
  9 10  1  0
 10 12  1  0
 11 10  2  0
 13 12  1  6
 13 14  1  0
 14  7  1  0
 15 13  1  0
 15 16  2  0
 17 18  1  0
 17 15  1  0
 18 19  1  6
 19 20  1  0
 21 20  1  0
 22 23  1  0
 22 21  1  0
 24 18  1  0
 25 24  1  0
 26 24  2  0
M  END
$$$$
