NNK.pdb
     RDKit          3D

 26 25  0  0  1  0  0  0  0  0999 V2000
    6.0392  -21.1911   17.6254 N   0  0  0  0  0  0  0  0  0  0  0  0
    5.8131  -19.7954   17.5100 C   0  0  0  0  0  0  0  0  0  0  0  0
    4.6885  -19.3687   17.1049 O   0  0  0  0  0  0  0  0  0  0  0  0
    6.8867  -18.8543   17.8643 C   0  0  0  0  0  0  0  0  0  0  0  0
    6.9963  -18.6660   19.3599 C   0  0  2  0  0  0  0  0  0  0  0  0
    5.7141  -18.0730   19.7547 N   0  0  0  0  0  0  0  0  0  0  0  0
    8.0802  -17.6392   19.5876 C   0  0  0  0  0  0  0  0  0  0  0  0
    9.2493  -17.7853   19.1756 O   0  0  0  0  0  0  0  0  0  0  0  0
    6.7913  -12.7027   19.1433 N   0  0  0  0  0  0  0  0  0  0  0  0
    7.8293  -13.6455   19.3228 C   0  0  0  0  0  0  0  0  0  0  0  0
    8.3860  -14.1299   18.3260 O   0  0  0  0  0  0  0  0  0  0  0  0
    8.2311  -14.0336   20.6772 C   0  0  0  0  0  0  0  0  0  0  0  0
    8.7752  -15.4390   20.6565 C   0  0  2  0  0  0  0  0  0  0  0  0
    7.7780  -16.4289   20.3088 N   0  0  0  0  0  0  0  0  0  0  0  0
    9.4157  -15.7805   21.9666 C   0  0  0  0  0  0  0  0  0  0  0  0
    8.8286  -15.5002   23.0273 O   0  0  0  0  0  0  0  0  0  0  0  0
   10.6781  -16.4156   21.9737 N   0  0  0  0  0  0  0  0  0  0  0  0
   11.3059  -16.7575   23.2560 C   0  0  1  0  0  0  0  0  0  0  0  0
   11.7705  -18.1865   23.2136 C   0  0  0  0  0  0  0  0  0  0  0  0
   10.6044  -19.1250   23.1854 C   0  0  0  0  0  0  0  0  0  0  0  0
   11.0516  -20.5699   23.2459 C   0  0  0  0  0  0  0  0  0  0  0  0
    9.7779  -21.4002   23.1141 C   0  0  0  0  0  0  0  0  0  0  0  0
   10.0238  -22.8064   23.2494 N   0  0  0  0  0  0  0  0  0  0  0  0
   12.4694  -15.8610   23.4555 C   0  0  0  0  0  0  0  0  0  0  0  0
   13.0264  -15.7719   24.7525 O   0  0  0  0  0  0  0  0  0  0  0  0
   13.0081  -15.1677   22.5657 O   0  0  0  0  0  0  0  0  0  0  0  0
  2  1  1  0
  2  3  2  0
  4  2  1  0
  5  4  1  0
  5  6  1  6
  7  5  1  0
  8  7  2  0
  9 10  1  0
 10 12  1  0
 11 10  2  0
 13 12  1  1
 13 14  1  0
 14  7  1  0
 15 13  1  0
 15 16  2  0
 17 18  1  0
 17 15  1  0
 18 19  1  6
 19 20  1  0
 21 20  1  0
 22 23  1  0
 22 21  1  0
 24 18  1  0
 25 24  1  0
 26 24  2  0
M  END
$$$$
