NNK.pdb
     RDKit          3D

 26 25  0  0  1  0  0  0  0  0999 V2000
   11.0360  -16.7972   13.7794 N   0  0  0  0  0  0  0  0  0  0  0  0
    9.8964  -16.7432   14.6224 C   0  0  0  0  0  0  0  0  0  0  0  0
    8.8236  -17.3246   14.2730 O   0  0  0  0  0  0  0  0  0  0  0  0
    9.9706  -16.0136   15.8976 C   0  0  0  0  0  0  0  0  0  0  0  0
    9.8399  -16.9419   17.0831 C   0  0  2  0  0  0  0  0  0  0  0  0
    8.4663  -17.4508   17.0070 N   0  0  0  0  0  0  0  0  0  0  0  0
    9.9561  -16.0824   18.3195 C   0  0  0  0  0  0  0  0  0  0  0  0
   11.0501  -15.6762   18.7621 O   0  0  0  0  0  0  0  0  0  0  0  0
    7.7523  -11.9818   19.4660 N   0  0  0  0  0  0  0  0  0  0  0  0
    7.3111  -13.3244   19.4314 C   0  0  0  0  0  0  0  0  0  0  0  0
    6.7181  -13.7410   18.4248 O   0  0  0  0  0  0  0  0  0  0  0  0
    7.5607  -14.2003   20.5791 C   0  0  0  0  0  0  0  0  0  0  0  0
    8.7930  -15.0285   20.3204 C   0  0  2  0  0  0  0  0  0  0  0  0
    8.7672  -15.6999   19.0383 N   0  0  0  0  0  0  0  0  0  0  0  0
    9.0101  -16.0177   21.4238 C   0  0  0  0  0  0  0  0  0  0  0  0
    8.2433  -16.9914   21.5336 O   0  0  0  0  0  0  0  0  0  0  0  0
   10.0840  -15.8259   22.3223 N   0  0  0  0  0  0  0  0  0  0  0  0
   10.3100  -16.8028   23.3947 C   0  0  1  0  0  0  0  0  0  0  0  0
   11.6946  -17.3724   23.2606 C   0  0  0  0  0  0  0  0  0  0  0  0
   11.8253  -18.1625   21.9957 C   0  0  0  0  0  0  0  0  0  0  0  0
   13.2454  -18.6419   21.7835 C   0  0  0  0  0  0  0  0  0  0  0  0
   13.2201  -19.4382   20.4818 C   0  0  0  0  0  0  0  0  0  0  0  0
   14.5076  -19.9678   20.1381 N   0  0  0  0  0  0  0  0  0  0  0  0
   10.1834  -16.1012   24.6943 C   0  0  0  0  0  0  0  0  0  0  0  0
   10.0996  -14.6895   24.6832 O   0  0  0  0  0  0  0  0  0  0  0  0
   10.1439  -16.6559   25.8138 O   0  0  0  0  0  0  0  0  0  0  0  0
  2  1  1  0
  2  3  2  0
  4  2  1  0
  5  4  1  0
  5  6  1  6
  7  5  1  0
  8  7  2  0
  9 10  1  0
 10 12  1  0
 11 10  2  0
 13 12  1  1
 13 14  1  0
 14  7  1  0
 15 13  1  0
 15 16  2  0
 17 18  1  0
 17 15  1  0
 18 19  1  6
 19 20  1  0
 21 20  1  0
 22 23  1  0
 22 21  1  0
 24 18  1  0
 25 24  1  0
 26 24  2  0
M  END
$$$$
