NNK.pdb
     RDKit          3D

 26 25  0  0  1  0  0  0  0  0999 V2000
    8.8872  -12.8765   16.8862 N   0  0  0  0  0  0  0  0  0  0  0  0
    8.0530  -13.9955   16.6330 C   0  0  0  0  0  0  0  0  0  0  0  0
    7.4426  -14.0909   15.5242 O   0  0  0  0  0  0  0  0  0  0  0  0
    7.9050  -15.0380   17.6603 C   0  0  0  0  0  0  0  0  0  0  0  0
    8.7346  -14.7376   18.8874 C   0  0  2  0  0  0  0  0  0  0  0  0
   10.1135  -15.0362   18.4860 N   0  0  0  0  0  0  0  0  0  0  0  0
    8.3238  -15.7378   19.9418 C   0  0  0  0  0  0  0  0  0  0  0  0
    7.5675  -16.7016   19.7034 O   0  0  0  0  0  0  0  0  0  0  0  0
   11.4449  -19.3571   21.5415 N   0  0  0  0  0  0  0  0  0  0  0  0
   11.6393  -17.9802   21.7961 C   0  0  0  0  0  0  0  0  0  0  0  0
   12.4915  -17.6327   22.6276 O   0  0  0  0  0  0  0  0  0  0  0  0
   10.8359  -16.9884   21.0765 C   0  0  0  0  0  0  0  0  0  0  0  0
    9.6685  -16.5702   21.9331 C   0  0  2  0  0  0  0  0  0  0  0  0
    8.8124  -15.5963   21.2900 N   0  0  0  0  0  0  0  0  0  0  0  0
   10.1390  -16.0573   23.2594 C   0  0  0  0  0  0  0  0  0  0  0  0
   10.8806  -16.7669   23.9627 O   0  0  0  0  0  0  0  0  0  0  0  0
    9.7302  -14.7744   23.6885 N   0  0  0  0  0  0  0  0  0  0  0  0
    9.2506  -14.5932   25.0641 C   0  0  1  0  0  0  0  0  0  0  0  0
    7.8411  -14.0718   25.0315 C   0  0  0  0  0  0  0  0  0  0  0  0
    7.6734  -12.9301   25.9854 C   0  0  0  0  0  0  0  0  0  0  0  0
    6.2924  -12.3185   25.8838 C   0  0  0  0  0  0  0  0  0  0  0  0
    6.2364  -11.2474   26.9694 C   0  0  0  0  0  0  0  0  0  0  0  0
    4.9537  -10.6109   27.0458 N   0  0  0  0  0  0  0  0  0  0  0  0
    9.2787  -15.9114   25.7417 C   0  0  0  0  0  0  0  0  0  0  0  0
    9.8251  -15.9785   27.0444 O   0  0  0  0  0  0  0  0  0  0  0  0
    8.8562  -16.9827   25.2555 O   0  0  0  0  0  0  0  0  0  0  0  0
  2  1  1  0
  2  3  2  0
  4  2  1  0
  5  4  1  0
  5  6  1  6
  7  5  1  0
  8  7  2  0
  9 10  1  0
 10 12  1  0
 11 10  2  0
 13 12  1  6
 13 14  1  0
 14  7  1  0
 15 13  1  0
 15 16  2  0
 17 18  1  0
 17 15  1  0
 18 19  1  6
 19 20  1  0
 21 20  1  0
 22 23  1  0
 22 21  1  0
 24 18  1  0
 25 24  1  0
 26 24  2  0
M  END
$$$$
