NNK.pdb
     RDKit          3D

 26 25  0  0  1  0  0  0  0  0999 V2000
   13.3726  -16.0792   14.6263 N   0  0  0  0  0  0  0  0  0  0  0  0
   11.9682  -15.8797   14.6339 C   0  0  0  0  0  0  0  0  0  0  0  0
   11.3378  -15.7815   13.5366 O   0  0  0  0  0  0  0  0  0  0  0  0
   11.2545  -15.7905   15.9171 C   0  0  0  0  0  0  0  0  0  0  0  0
   12.2044  -15.8405   17.0916 C   0  0  2  0  0  0  0  0  0  0  0  0
   11.9671  -17.1511   17.7059 N   0  0  0  0  0  0  0  0  0  0  0  0
   11.7484  -14.7762   18.0613 C   0  0  0  0  0  0  0  0  0  0  0  0
   12.3511  -13.6937   18.2121 O   0  0  0  0  0  0  0  0  0  0  0  0
    7.8086  -12.1752   18.4155 N   0  0  0  0  0  0  0  0  0  0  0  0
    8.0796  -13.5434   18.6459 C   0  0  0  0  0  0  0  0  0  0  0  0
    7.8672  -14.3635   17.7399 O   0  0  0  0  0  0  0  0  0  0  0  0
    8.6061  -13.9705   19.9447 C   0  0  0  0  0  0  0  0  0  0  0  0
   10.1084  -14.0670   19.8708 C   0  0  2  0  0  0  0  0  0  0  0  0
   10.5687  -14.9947   18.8594 N   0  0  0  0  0  0  0  0  0  0  0  0
   10.6847  -14.4224   21.2067 C   0  0  0  0  0  0  0  0  0  0  0  0
   10.1535  -13.9791   22.2408 O   0  0  0  0  0  0  0  0  0  0  0  0
   11.8244  -15.2559   21.2680 N   0  0  0  0  0  0  0  0  0  0  0  0
   12.2308  -15.8277   22.5576 C   0  0  1  0  0  0  0  0  0  0  0  0
   11.3972  -17.0455   22.8431 C   0  0  0  0  0  0  0  0  0  0  0  0
   11.8221  -17.6935   24.1241 C   0  0  0  0  0  0  0  0  0  0  0  0
   10.9631  -18.8964   24.4507 C   0  0  0  0  0  0  0  0  0  0  0  0
   11.4605  -19.4019   25.8020 C   0  0  0  0  0  0  0  0  0  0  0  0
   10.6572  -20.4726   26.3162 N   0  0  0  0  0  0  0  0  0  0  0  0
   13.6593  -16.2124   22.4639 C   0  0  0  0  0  0  0  0  0  0  0  0
   14.3357  -16.5562   23.6575 O   0  0  0  0  0  0  0  0  0  0  0  0
   14.3269  -16.2599   21.4081 O   0  0  0  0  0  0  0  0  0  0  0  0
  2  1  1  0
  2  3  2  0
  4  2  1  0
  5  4  1  0
  5  6  1  1
  7  5  1  0
  8  7  2  0
  9 10  1  0
 10 12  1  0
 11 10  2  0
 13 12  1  1
 13 14  1  0
 14  7  1  0
 15 13  1  0
 15 16  2  0
 17 18  1  0
 17 15  1  0
 18 19  1  6
 19 20  1  0
 21 20  1  0
 22 23  1  0
 22 21  1  0
 24 18  1  0
 25 24  1  0
 26 24  2  0
M  END
$$$$
