NNK.pdb
     RDKit          3D

 26 25  0  0  1  0  0  0  0  0999 V2000
    9.2229  -13.1170   15.5288 N   0  0  0  0  0  0  0  0  0  0  0  0
    7.8874  -13.4502   15.8719 C   0  0  0  0  0  0  0  0  0  0  0  0
    6.9838  -13.4372   14.9806 O   0  0  0  0  0  0  0  0  0  0  0  0
    7.5629  -13.8105   17.2608 C   0  0  0  0  0  0  0  0  0  0  0  0
    8.7896  -13.8008   18.1436 C   0  0  2  0  0  0  0  0  0  0  0  0
    9.8427  -14.4088   17.3233 N   0  0  0  0  0  0  0  0  0  0  0  0
    8.4976  -14.7289   19.2988 C   0  0  0  0  0  0  0  0  0  0  0  0
    7.6206  -14.4907   20.1544 O   0  0  0  0  0  0  0  0  0  0  0  0
    7.7962  -19.6985   21.5592 N   0  0  0  0  0  0  0  0  0  0  0  0
    9.0852  -19.1653   21.3297 C   0  0  0  0  0  0  0  0  0  0  0  0
   10.0019  -19.4365   22.1199 O   0  0  0  0  0  0  0  0  0  0  0  0
    9.3185  -18.3053   20.1667 C   0  0  0  0  0  0  0  0  0  0  0  0
    9.0738  -16.8677   20.5477 C   0  0  2  0  0  0  0  0  0  0  0  0
    9.2497  -15.9495   19.4426 N   0  0  0  0  0  0  0  0  0  0  0  0
    9.9412  -16.4685   21.7017 C   0  0  0  0  0  0  0  0  0  0  0  0
   11.0843  -16.0276   21.4853 O   0  0  0  0  0  0  0  0  0  0  0  0
    9.4440  -16.6011   23.0180 N   0  0  0  0  0  0  0  0  0  0  0  0
   10.2441  -16.1043   24.1442 C   0  0  1  0  0  0  0  0  0  0  0  0
    9.3237  -15.5851   25.2132 C   0  0  0  0  0  0  0  0  0  0  0  0
   10.1037  -15.0474   26.3725 C   0  0  0  0  0  0  0  0  0  0  0  0
    9.1920  -14.5174   27.4586 C   0  0  0  0  0  0  0  0  0  0  0  0
   10.1153  -14.0715   28.5889 C   0  0  0  0  0  0  0  0  0  0  0  0
    9.4110  -13.3893   29.6352 N   0  0  0  0  0  0  0  0  0  0  0  0
   11.0422  -17.2332   24.6788 C   0  0  0  0  0  0  0  0  0  0  0  0
   12.3814  -16.9810   25.0573 O   0  0  0  0  0  0  0  0  0  0  0  0
   10.6294  -18.4038   24.8261 O   0  0  0  0  0  0  0  0  0  0  0  0
  2  1  1  0
  2  3  2  0
  4  2  1  0
  5  4  1  0
  5  6  1  6
  7  5  1  0
  8  7  2  0
  9 10  1  0
 10 12  1  0
 11 10  2  0
 13 12  1  6
 13 14  1  0
 14  7  1  0
 15 13  1  0
 15 16  2  0
 17 18  1  0
 17 15  1  0
 18 19  1  1
 19 20  1  0
 21 20  1  0
 22 23  1  0
 22 21  1  0
 24 18  1  0
 25 24  1  0
 26 24  2  0
M  END
$$$$
