DMT.pdb
     RDKit          3D

 24 23  0  0  1  0  0  0  0  0999 V2000
    7.4877  -16.4451   20.5822 N   0  0  0  0  0  0  0  0  0  0  0  0
    8.9007  -16.2854   20.7234 C   0  0  1  0  0  0  0  0  0  0  0  0
    9.4609  -15.3764   19.6638 C   0  0  0  0  0  0  0  0  0  0  0  0
    9.2258  -16.0199   18.3451 C   0  0  0  0  0  0  0  0  0  0  0  0
    8.5451  -17.0797   18.2227 O   0  0  0  0  0  0  0  0  0  0  0  0
    9.2233  -15.7661   22.0917 C   0  0  0  0  0  0  0  0  0  0  0  0
   10.4148  -15.5198   22.3943 O   0  0  0  0  0  0  0  0  0  0  0  0
    9.7531  -15.4719   17.1847 O   0  0  0  0  0  0  0  0  0  0  0  0
    7.3699  -10.9389   26.5318 C   0  0  0  0  0  0  0  0  0  0  0  0
    6.3326  -12.4464   26.6019 S   0  0  0  0  0  0  0  0  0  0  0  0
    7.4043  -13.8570   26.2903 C   0  0  0  0  0  0  0  0  0  0  0  0
    7.4207  -14.2914   24.8726 C   0  0  0  0  0  0  0  0  0  0  0  0
    8.5900  -15.1019   24.4225 C   0  0  2  0  0  0  0  0  0  0  0  0
    8.2272  -15.5456   23.0510 N   0  0  0  0  0  0  0  0  0  0  0  0
    8.7802  -16.3088   25.2517 C   0  0  0  0  0  0  0  0  0  0  0  0
    7.7848  -17.0840   25.4167 O   0  0  0  0  0  0  0  0  0  0  0  0
   10.5483  -19.2198   24.4878 C   0  0  0  0  0  0  0  0  0  0  0  0
   11.0394  -18.8935   25.8786 C   0  0  1  0  0  0  0  0  0  0  0  0
   12.2667  -18.2137   25.7972 O   0  0  0  0  0  0  0  0  0  0  0  0
   10.0921  -17.9724   26.6134 C   0  0  2  0  0  0  0  0  0  0  0  0
    9.9673  -16.6992   25.8870 N   0  0  0  0  0  0  0  0  0  0  0  0
   10.4875  -17.7525   28.0093 C   0  0  0  0  0  0  0  0  0  0  0  0
   10.8151  -16.6325   28.4716 O   0  0  0  0  0  0  0  0  0  0  0  0
   10.5055  -18.8308   28.8784 O   0  0  0  0  0  0  0  0  0  0  0  0
  2  1  1  1
  2  3  1  0
  3  4  1  0
  4  8  1  0
  5  4  2  0
  6  7  2  0
  6  2  1  0
  9 10  1  0
 10 11  1  0
 11 12  1  0
 13 12  1  1
 13 14  1  0
 14  6  1  0
 15 13  1  0
 15 21  1  0
 16 15  2  0
 18 17  1  6
 18 20  1  0
 19 18  1  0
 20 21  1  6
 20 22  1  0
 22 23  2  0
 22 24  1  0
M  END
$$$$
