DMT.pdb
     RDKit          3D

 24 23  0  0  1  0  0  0  0  0999 V2000
    9.4548  -15.5041   20.2320 N   0  0  0  0  0  0  0  0  0  0  0  0
    9.7193  -16.6590   21.0307 C   0  0  1  0  0  0  0  0  0  0  0  0
   10.9342  -17.3997   20.5427 C   0  0  0  0  0  0  0  0  0  0  0  0
   10.7826  -17.6024   19.0783 C   0  0  0  0  0  0  0  0  0  0  0  0
    9.6538  -17.7801   18.5346 O   0  0  0  0  0  0  0  0  0  0  0  0
    9.8820  -16.2624   22.4668 C   0  0  0  0  0  0  0  0  0  0  0  0
   10.9834  -15.8134   22.8631 O   0  0  0  0  0  0  0  0  0  0  0  0
   11.8913  -17.6037   18.2443 O   0  0  0  0  0  0  0  0  0  0  0  0
    6.7777  -11.2870   26.6969 C   0  0  0  0  0  0  0  0  0  0  0  0
    6.3995  -13.0043   26.1859 S   0  0  0  0  0  0  0  0  0  0  0  0
    7.9234  -13.7348   25.5697 C   0  0  0  0  0  0  0  0  0  0  0  0
    7.7578  -15.1171   25.0591 C   0  0  0  0  0  0  0  0  0  0  0  0
    9.0015  -15.8942   24.7829 C   0  0  2  0  0  0  0  0  0  0  0  0
    8.8333  -16.3785   23.3876 N   0  0  0  0  0  0  0  0  0  0  0  0
    9.1229  -17.0762   25.6594 C   0  0  0  0  0  0  0  0  0  0  0  0
    8.1316  -17.8705   25.7330 O   0  0  0  0  0  0  0  0  0  0  0  0
   10.9826  -20.0886   25.3584 C   0  0  0  0  0  0  0  0  0  0  0  0
   11.3165  -19.5929   26.7457 C   0  0  1  0  0  0  0  0  0  0  0  0
   12.5280  -18.8816   26.7127 O   0  0  0  0  0  0  0  0  0  0  0  0
   10.2744  -18.6317   27.2710 C   0  0  2  0  0  0  0  0  0  0  0  0
   10.2396  -17.4235   26.4325 N   0  0  0  0  0  0  0  0  0  0  0  0
   10.4794  -18.2936   28.6841 C   0  0  0  0  0  0  0  0  0  0  0  0
   10.6486  -17.1221   29.1018 O   0  0  0  0  0  0  0  0  0  0  0  0
   10.4895  -19.3125   29.6222 O   0  0  0  0  0  0  0  0  0  0  0  0
  2  1  1  6
  2  3  1  0
  3  4  1  0
  4  8  1  0
  5  4  2  0
  6  7  2  0
  6  2  1  0
  9 10  1  0
 10 11  1  0
 11 12  1  0
 13 12  1  1
 13 14  1  0
 14  6  1  0
 15 13  1  0
 15 21  1  0
 16 15  2  0
 18 17  1  6
 18 20  1  0
 19 18  1  0
 20 21  1  6
 20 22  1  0
 22 23  2  0
 22 24  1  0
M  END
$$$$
