DMT.pdb
     RDKit          3D

 24 23  0  0  1  0  0  0  0  0999 V2000
    7.2550  -16.3189   19.9263 N   0  0  0  0  0  0  0  0  0  0  0  0
    8.6496  -16.5607   20.1226 C   0  0  1  0  0  0  0  0  0  0  0  0
    9.4683  -16.0195   18.9826 C   0  0  0  0  0  0  0  0  0  0  0  0
    9.0017  -16.6810   17.7364 C   0  0  0  0  0  0  0  0  0  0  0  0
    8.1938  -17.6551   17.7508 O   0  0  0  0  0  0  0  0  0  0  0  0
    9.0945  -15.9652   21.4240 C   0  0  0  0  0  0  0  0  0  0  0  0
   10.3188  -15.8925   21.6840 O   0  0  0  0  0  0  0  0  0  0  0  0
    9.4429  -16.2462   16.4950 O   0  0  0  0  0  0  0  0  0  0  0  0
    6.5590  -11.8939   27.6913 C   0  0  0  0  0  0  0  0  0  0  0  0
    6.1949  -12.5815   26.0336 S   0  0  0  0  0  0  0  0  0  0  0  0
    7.5986  -13.5954   25.5468 C   0  0  0  0  0  0  0  0  0  0  0  0
    7.5048  -14.1178   24.1621 C   0  0  0  0  0  0  0  0  0  0  0  0
    8.6528  -14.9290   23.6615 C   0  0  2  0  0  0  0  0  0  0  0  0
    8.1778  -15.4834   22.3666 N   0  0  0  0  0  0  0  0  0  0  0  0
    8.9598  -16.0650   24.5534 C   0  0  0  0  0  0  0  0  0  0  0  0
    8.0450  -16.9240   24.7641 O   0  0  0  0  0  0  0  0  0  0  0  0
   11.2144  -18.6980   23.8783 C   0  0  0  0  0  0  0  0  0  0  0  0
   11.5554  -18.3176   25.3000 C   0  0  1  0  0  0  0  0  0  0  0  0
   12.6833  -17.4793   25.3055 O   0  0  0  0  0  0  0  0  0  0  0  0
   10.4426  -17.5359   25.9607 C   0  0  2  0  0  0  0  0  0  0  0  0
   10.1789  -16.3025   25.2034 N   0  0  0  0  0  0  0  0  0  0  0  0
   10.7179  -17.2454   27.3725 C   0  0  0  0  0  0  0  0  0  0  0  0
   10.7922  -16.0838   27.8422 O   0  0  0  0  0  0  0  0  0  0  0  0
   10.9087  -18.3007   28.2488 O   0  0  0  0  0  0  0  0  0  0  0  0
  2  1  1  6
  2  3  1  0
  3  4  1  0
  4  8  1  0
  5  4  2  0
  6  7  2  0
  6  2  1  0
  9 10  1  0
 10 11  1  0
 11 12  1  0
 13 12  1  1
 13 14  1  0
 14  6  1  0
 15 13  1  0
 15 21  1  0
 16 15  2  0
 18 17  1  6
 18 20  1  0
 19 18  1  0
 20 21  1  6
 20 22  1  0
 22 23  2  0
 22 24  1  0
M  END
$$$$
