DMT.pdb
     RDKit          3D

 24 23  0  0  1  0  0  0  0  0999 V2000
    7.2181  -15.9738   20.3783 N   0  0  0  0  0  0  0  0  0  0  0  0
    8.6045  -16.0654   20.7120 C   0  0  1  0  0  0  0  0  0  0  0  0
    9.4637  -15.3702   19.6915 C   0  0  0  0  0  0  0  0  0  0  0  0
    9.1081  -15.9138   18.3549 C   0  0  0  0  0  0  0  0  0  0  0  0
    8.8756  -17.1434   18.1661 O   0  0  0  0  0  0  0  0  0  0  0  0
    8.8410  -15.4977   22.0788 C   0  0  0  0  0  0  0  0  0  0  0  0
   10.0085  -15.2140   22.4368 O   0  0  0  0  0  0  0  0  0  0  0  0
    9.0175  -15.0783   17.2510 O   0  0  0  0  0  0  0  0  0  0  0  0
    8.3922  -12.2403   28.2020 C   0  0  0  0  0  0  0  0  0  0  0  0
    8.0445  -12.2751   26.4045 S   0  0  0  0  0  0  0  0  0  0  0  0
    6.7665  -13.5092   26.1231 C   0  0  0  0  0  0  0  0  0  0  0  0
    6.8016  -14.1048   24.7656 C   0  0  0  0  0  0  0  0  0  0  0  0
    8.0675  -14.7767   24.3497 C   0  0  2  0  0  0  0  0  0  0  0  0
    7.7897  -15.2723   22.9761 N   0  0  0  0  0  0  0  0  0  0  0  0
    8.3792  -15.9453   25.1967 C   0  0  0  0  0  0  0  0  0  0  0  0
    7.4151  -16.6862   25.5717 O   0  0  0  0  0  0  0  0  0  0  0  0
   10.2793  -18.9180   24.3609 C   0  0  0  0  0  0  0  0  0  0  0  0
   10.8310  -18.4714   25.6944 C   0  0  1  0  0  0  0  0  0  0  0  0
   12.0095  -17.7327   25.4928 O   0  0  0  0  0  0  0  0  0  0  0  0
    9.8760  -17.5553   26.4256 C   0  0  2  0  0  0  0  0  0  0  0  0
    9.6521  -16.3333   25.6377 N   0  0  0  0  0  0  0  0  0  0  0  0
   10.3281  -17.2371   27.7849 C   0  0  0  0  0  0  0  0  0  0  0  0
   10.5994  -16.0750   28.1738 O   0  0  0  0  0  0  0  0  0  0  0  0
   10.4685  -18.2653   28.7021 O   0  0  0  0  0  0  0  0  0  0  0  0
  2  1  1  6
  2  3  1  0
  3  4  1  0
  4  8  1  0
  5  4  2  0
  6  7  2  0
  6  2  1  0
  9 10  1  0
 10 11  1  0
 11 12  1  0
 13 12  1  1
 13 14  1  0
 14  6  1  0
 15 13  1  0
 15 21  1  0
 16 15  2  0
 18 17  1  6
 18 20  1  0
 19 18  1  0
 20 21  1  6
 20 22  1  0
 22 23  2  0
 22 24  1  0
M  END
$$$$
