DMT.pdb
     RDKit          3D

 24 23  0  0  1  0  0  0  0  0999 V2000
    9.2219  -16.7054   20.6377 N   0  0  0  0  0  0  0  0  0  0  0  0
   10.4685  -16.6410   21.3332 C   0  0  1  0  0  0  0  0  0  0  0  0
   11.4840  -15.8352   20.5701 C   0  0  0  0  0  0  0  0  0  0  0  0
   11.6742  -16.4837   19.2465 C   0  0  0  0  0  0  0  0  0  0  0  0
   11.1155  -16.0517   18.1964 O   0  0  0  0  0  0  0  0  0  0  0  0
   10.2616  -16.0712   22.7039 C   0  0  0  0  0  0  0  0  0  0  0  0
   11.2564  -15.7682   23.4040 O   0  0  0  0  0  0  0  0  0  0  0  0
   12.4838  -17.6027   19.1152 O   0  0  0  0  0  0  0  0  0  0  0  0
    7.0418  -11.4028   26.2238 C   0  0  0  0  0  0  0  0  0  0  0  0
    7.8824  -12.9684   26.6659 S   0  0  0  0  0  0  0  0  0  0  0  0
    6.9263  -14.3165   25.9559 C   0  0  0  0  0  0  0  0  0  0  0  0
    7.4395  -14.7860   24.6463 C   0  0  0  0  0  0  0  0  0  0  0  0
    8.8123  -15.3706   24.6231 C   0  0  2  0  0  0  0  0  0  0  0  0
    8.9809  -15.8649   23.2315 N   0  0  0  0  0  0  0  0  0  0  0  0
    8.9376  -16.5279   25.5315 C   0  0  0  0  0  0  0  0  0  0  0  0
    7.9187  -17.2721   25.6958 O   0  0  0  0  0  0  0  0  0  0  0  0
   10.7462  -19.5700   25.1187 C   0  0  0  0  0  0  0  0  0  0  0  0
   11.1477  -19.0867   26.4924 C   0  0  1  0  0  0  0  0  0  0  0  0
   12.3642  -18.3880   26.4087 O   0  0  0  0  0  0  0  0  0  0  0  0
   10.1409  -18.1179   27.0699 C   0  0  2  0  0  0  0  0  0  0  0  0
   10.0855  -16.9016   26.2441 N   0  0  0  0  0  0  0  0  0  0  0  0
   10.4099  -17.7952   28.4759 C   0  0  0  0  0  0  0  0  0  0  0  0
   10.6813  -16.6401   28.8851 O   0  0  0  0  0  0  0  0  0  0  0  0
   10.3659  -18.8107   29.4166 O   0  0  0  0  0  0  0  0  0  0  0  0
  2  1  1  6
  2  3  1  0
  3  4  1  0
  4  8  1  0
  5  4  2  0
  6  7  2  0
  6  2  1  0
  9 10  1  0
 10 11  1  0
 11 12  1  0
 13 12  1  6
 13 14  1  0
 14  6  1  0
 15 13  1  0
 15 21  1  0
 16 15  2  0
 18 17  1  6
 18 20  1  0
 19 18  1  0
 20 21  1  6
 20 22  1  0
 22 23  2  0
 22 24  1  0
M  END
$$$$
