DMT.pdb
     RDKit          3D

 24 23  0  0  1  0  0  0  0  0999 V2000
    8.2354  -16.3674   20.2708 N   0  0  0  0  0  0  0  0  0  0  0  0
    9.4842  -16.8132   20.8032 C   0  0  1  0  0  0  0  0  0  0  0  0
   10.6226  -16.5052   19.8693 C   0  0  0  0  0  0  0  0  0  0  0  0
   10.2607  -17.0294   18.5266 C   0  0  0  0  0  0  0  0  0  0  0  0
   10.7099  -18.1279   18.0870 O   0  0  0  0  0  0  0  0  0  0  0  0
    9.7188  -16.1927   22.1471 C   0  0  0  0  0  0  0  0  0  0  0  0
   10.8923  -16.0400   22.5611 O   0  0  0  0  0  0  0  0  0  0  0  0
    9.4043  -16.3210   17.6962 O   0  0  0  0  0  0  0  0  0  0  0  0
    6.5694  -11.5348   27.6037 C   0  0  0  0  0  0  0  0  0  0  0  0
    6.4126  -12.3520   25.9725 S   0  0  0  0  0  0  0  0  0  0  0  0
    7.7294  -13.5710   25.8478 C   0  0  0  0  0  0  0  0  0  0  0  0
    7.7922  -14.2478   24.5299 C   0  0  0  0  0  0  0  0  0  0  0  0
    8.9275  -15.1890   24.3015 C   0  0  2  0  0  0  0  0  0  0  0  0
    8.6593  -15.7745   22.9618 N   0  0  0  0  0  0  0  0  0  0  0  0
    8.9388  -16.2926   25.2824 C   0  0  0  0  0  0  0  0  0  0  0  0
    7.8456  -16.9036   25.5076 O   0  0  0  0  0  0  0  0  0  0  0  0
   10.0075  -19.5529   25.0538 C   0  0  0  0  0  0  0  0  0  0  0  0
   10.6764  -19.0874   26.3257 C   0  0  1  0  0  0  0  0  0  0  0  0
   11.9902  -18.6760   26.0435 O   0  0  0  0  0  0  0  0  0  0  0  0
    9.9774  -17.8902   26.9291 C   0  0  2  0  0  0  0  0  0  0  0  0
   10.0507  -16.7487   26.0040 N   0  0  0  0  0  0  0  0  0  0  0  0
   10.5030  -17.5375   28.2529 C   0  0  0  0  0  0  0  0  0  0  0  0
   11.0267  -16.4287   28.5209 O   0  0  0  0  0  0  0  0  0  0  0  0
   10.4245  -18.4689   29.2749 O   0  0  0  0  0  0  0  0  0  0  0  0
  2  1  1  6
  2  3  1  0
  3  4  1  0
  4  8  1  0
  5  4  2  0
  6  7  2  0
  6  2  1  0
  9 10  1  0
 10 11  1  0
 11 12  1  0
 13 12  1  1
 13 14  1  0
 14  6  1  0
 15 13  1  0
 15 21  1  0
 16 15  2  0
 18 17  1  6
 18 20  1  0
 19 18  1  0
 20 21  1  6
 20 22  1  0
 22 23  2  0
 22 24  1  0
M  END
$$$$
