DMT.pdb
     RDKit          3D

 24 23  0  0  1  0  0  0  0  0999 V2000
    9.0070  -15.2523   19.4617 N   0  0  0  0  0  0  0  0  0  0  0  0
    8.7956  -16.2977   20.4128 C   0  0  1  0  0  0  0  0  0  0  0  0
    9.5415  -17.5474   20.0325 C   0  0  0  0  0  0  0  0  0  0  0  0
    9.0534  -17.9766   18.6960 C   0  0  0  0  0  0  0  0  0  0  0  0
    7.9634  -17.5573   18.2086 O   0  0  0  0  0  0  0  0  0  0  0  0
    9.1989  -15.8353   21.7802 C   0  0  0  0  0  0  0  0  0  0  0  0
   10.4150  -15.7771   22.0793 O   0  0  0  0  0  0  0  0  0  0  0  0
    9.7881  -18.8657   17.9249 O   0  0  0  0  0  0  0  0  0  0  0  0
    6.7182  -11.6017   27.8987 C   0  0  0  0  0  0  0  0  0  0  0  0
    6.3552  -12.3191   26.2534 S   0  0  0  0  0  0  0  0  0  0  0  0
    7.6674  -13.4883   25.8702 C   0  0  0  0  0  0  0  0  0  0  0  0
    7.6024  -14.0256   24.4896 C   0  0  0  0  0  0  0  0  0  0  0  0
    8.6887  -14.9591   24.0708 C   0  0  2  0  0  0  0  0  0  0  0  0
    8.2519  -15.4633   22.7424 N   0  0  0  0  0  0  0  0  0  0  0  0
    8.8039  -16.1184   24.9779 C   0  0  0  0  0  0  0  0  0  0  0  0
    7.7683  -16.8321   25.1707 O   0  0  0  0  0  0  0  0  0  0  0  0
   10.3637  -19.2916   24.6770 C   0  0  0  0  0  0  0  0  0  0  0  0
   10.8724  -18.7645   25.9981 C   0  0  1  0  0  0  0  0  0  0  0  0
   12.1331  -18.1713   25.8144 O   0  0  0  0  0  0  0  0  0  0  0  0
    9.9747  -17.6870   26.5627 C   0  0  2  0  0  0  0  0  0  0  0  0
    9.9588  -16.5249   25.6608 N   0  0  0  0  0  0  0  0  0  0  0  0
   10.3496  -17.2972   27.9268 C   0  0  0  0  0  0  0  0  0  0  0  0
   10.7342  -16.1443   28.2402 O   0  0  0  0  0  0  0  0  0  0  0  0
   10.2809  -18.2426   28.9366 O   0  0  0  0  0  0  0  0  0  0  0  0
  2  1  1  6
  2  3  1  0
  3  4  1  0
  4  8  1  0
  5  4  2  0
  6  7  2  0
  6  2  1  0
  9 10  1  0
 10 11  1  0
 11 12  1  0
 13 12  1  1
 13 14  1  0
 14  6  1  0
 15 13  1  0
 15 21  1  0
 16 15  2  0
 18 17  1  6
 18 20  1  0
 19 18  1  0
 20 21  1  6
 20 22  1  0
 22 23  2  0
 22 24  1  0
M  END
$$$$
