DMT.pdb
     RDKit          3D

 24 23  0  0  1  0  0  0  0  0999 V2000
    9.6814  -17.2578   21.4181 N   0  0  0  0  0  0  0  0  0  0  0  0
   10.8064  -16.7833   22.1605 C   0  0  1  0  0  0  0  0  0  0  0  0
   11.7475  -15.9952   21.2909 C   0  0  0  0  0  0  0  0  0  0  0  0
   12.3966  -16.9450   20.3501 C   0  0  0  0  0  0  0  0  0  0  0  0
   11.8136  -17.3702   19.3105 O   0  0  0  0  0  0  0  0  0  0  0  0
   10.3423  -15.9583   23.3225 C   0  0  0  0  0  0  0  0  0  0  0  0
   11.1831  -15.5101   24.1374 O   0  0  0  0  0  0  0  0  0  0  0  0
   13.6846  -17.4049   20.5833 O   0  0  0  0  0  0  0  0  0  0  0  0
    6.1554  -11.3792   27.2268 C   0  0  0  0  0  0  0  0  0  0  0  0
    7.2869  -12.2059   26.0480 S   0  0  0  0  0  0  0  0  0  0  0  0
    6.4508  -13.6752   25.4336 C   0  0  0  0  0  0  0  0  0  0  0  0
    7.2022  -14.3889   24.3729 C   0  0  0  0  0  0  0  0  0  0  0  0
    8.5556  -14.9070   24.7287 C   0  0  2  0  0  0  0  0  0  0  0  0
    8.9875  -15.6699   23.5282 N   0  0  0  0  0  0  0  0  0  0  0  0
    8.5081  -15.8461   25.8672 C   0  0  0  0  0  0  0  0  0  0  0  0
    8.2867  -15.3700   27.0262 O   0  0  0  0  0  0  0  0  0  0  0  0
    6.4851  -19.1445   26.3555 C   0  0  0  0  0  0  0  0  0  0  0  0
    7.9363  -19.3800   26.7029 C   0  0  1  0  0  0  0  0  0  0  0  0
    8.5950  -19.9603   25.6055 O   0  0  0  0  0  0  0  0  0  0  0  0
    8.6650  -18.0893   27.0011 C   0  0  2  0  0  0  0  0  0  0  0  0
    8.6823  -17.2356   25.8032 N   0  0  0  0  0  0  0  0  0  0  0  0
   10.0210  -18.3125   27.5156 C   0  0  0  0  0  0  0  0  0  0  0  0
   11.0561  -17.8597   26.9688 O   0  0  0  0  0  0  0  0  0  0  0  0
   10.1853  -19.0627   28.6683 O   0  0  0  0  0  0  0  0  0  0  0  0
  2  1  1  6
  2  3  1  0
  3  4  1  0
  4  8  1  0
  5  4  2  0
  6  7  2  0
  6  2  1  0
  9 10  1  0
 10 11  1  0
 11 12  1  0
 13 12  1  6
 13 14  1  0
 14  6  1  0
 15 13  1  0
 15 21  1  0
 16 15  2  0
 18 17  1  6
 18 20  1  0
 19 18  1  0
 20 21  1  6
 20 22  1  0
 22 23  2  0
 22 24  1  0
M  END
$$$$
