DMT.pdb
     RDKit          3D

 24 23  0  0  1  0  0  0  0  0999 V2000
   10.3990  -17.3135   16.7033 N   0  0  0  0  0  0  0  0  0  0  0  0
    9.5548  -17.7757   17.7594 C   0  0  1  0  0  0  0  0  0  0  0  0
    9.8515  -19.2068   18.1156 C   0  0  0  0  0  0  0  0  0  0  0  0
    9.1704  -20.0720   17.1175 C   0  0  0  0  0  0  0  0  0  0  0  0
    9.4500  -20.0288   15.8840 O   0  0  0  0  0  0  0  0  0  0  0  0
    9.7031  -16.8895   18.9590 C   0  0  0  0  0  0  0  0  0  0  0  0
   10.8303  -16.4223   19.2467 O   0  0  0  0  0  0  0  0  0  0  0  0
    8.1893  -20.9707   17.5105 O   0  0  0  0  0  0  0  0  0  0  0  0
    7.4908  -11.2197   19.4972 C   0  0  0  0  0  0  0  0  0  0  0  0
    8.2645  -12.6409   20.3545 S   0  0  0  0  0  0  0  0  0  0  0  0
    7.0609  -13.9773   20.3835 C   0  0  0  0  0  0  0  0  0  0  0  0
    7.4617  -15.1219   21.2369 C   0  0  0  0  0  0  0  0  0  0  0  0
    8.8047  -15.7215   20.9846 C   0  0  2  0  0  0  0  0  0  0  0  0
    8.6128  -16.5643   19.7754 N   0  0  0  0  0  0  0  0  0  0  0  0
    9.2334  -16.6050   22.0872 C   0  0  0  0  0  0  0  0  0  0  0  0
    8.3331  -17.2000   22.7613 O   0  0  0  0  0  0  0  0  0  0  0  0
   10.6945  -19.7976   22.2462 C   0  0  0  0  0  0  0  0  0  0  0  0
   11.5764  -18.9757   23.1566 C   0  0  1  0  0  0  0  0  0  0  0  0
   12.7204  -18.5599   22.4542 O   0  0  0  0  0  0  0  0  0  0  0  0
   10.8870  -17.7156   23.6284 C   0  0  2  0  0  0  0  0  0  0  0  0
   10.5553  -16.8643   22.4753 N   0  0  0  0  0  0  0  0  0  0  0  0
   11.6747  -16.9800   24.6242 C   0  0  0  0  0  0  0  0  0  0  0  0
   11.9528  -17.4304   25.7624 O   0  0  0  0  0  0  0  0  0  0  0  0
   12.1453  -15.7168   24.3062 O   0  0  0  0  0  0  0  0  0  0  0  0
  2  1  1  6
  2  3  1  0
  3  4  1  0
  4  8  1  0
  5  4  2  0
  6  7  2  0
  6  2  1  0
  9 10  1  0
 10 11  1  0
 11 12  1  0
 13 12  1  1
 13 14  1  0
 14  6  1  0
 15 13  1  0
 15 21  1  0
 16 15  2  0
 18 17  1  6
 18 20  1  0
 19 18  1  0
 20 21  1  6
 20 22  1  0
 22 23  2  0
 22 24  1  0
M  END
$$$$
