DMT.pdb
     RDKit          3D

 24 23  0  0  1  0  0  0  0  0999 V2000
    6.9925  -16.4839   20.6306 N   0  0  0  0  0  0  0  0  0  0  0  0
    8.3461  -16.0263   20.6132 C   0  0  1  0  0  0  0  0  0  0  0  0
    8.5285  -14.8824   19.6534 C   0  0  0  0  0  0  0  0  0  0  0  0
    8.6208  -15.4515   18.2837 C   0  0  0  0  0  0  0  0  0  0  0  0
    8.6220  -16.6987   18.0693 O   0  0  0  0  0  0  0  0  0  0  0  0
    8.7711  -15.6313   21.9951 C   0  0  0  0  0  0  0  0  0  0  0  0
    9.9414  -15.2261   22.1897 O   0  0  0  0  0  0  0  0  0  0  0  0
    8.7102  -14.6213   17.1757 O   0  0  0  0  0  0  0  0  0  0  0  0
    7.1007  -10.7616   26.4707 C   0  0  0  0  0  0  0  0  0  0  0  0
    6.3003  -12.3975   26.2802 S   0  0  0  0  0  0  0  0  0  0  0  0
    7.1181  -13.2464   24.9215 C   0  0  0  0  0  0  0  0  0  0  0  0
    7.2280  -14.7126   25.1146 C   0  0  0  0  0  0  0  0  0  0  0  0
    8.3776  -15.4013   24.4582 C   0  0  2  0  0  0  0  0  0  0  0  0
    7.8945  -15.7014   23.0849 N   0  0  0  0  0  0  0  0  0  0  0  0
    8.7024  -16.6843   25.1128 C   0  0  0  0  0  0  0  0  0  0  0  0
    8.1433  -17.7389   24.6721 O   0  0  0  0  0  0  0  0  0  0  0  0
    9.9284  -18.8269   24.1486 C   0  0  0  0  0  0  0  0  0  0  0  0
   10.7998  -18.8237   25.3826 C   0  0  1  0  0  0  0  0  0  0  0  0
   11.9524  -18.0563   25.1430 O   0  0  0  0  0  0  0  0  0  0  0  0
   10.1055  -18.1885   26.5659 C   0  0  2  0  0  0  0  0  0  0  0  0
    9.5821  -16.8663   26.1890 N   0  0  0  0  0  0  0  0  0  0  0  0
   10.9705  -18.1016   27.7481 C   0  0  0  0  0  0  0  0  0  0  0  0
   11.3983  -17.0198   28.2193 O   0  0  0  0  0  0  0  0  0  0  0  0
   11.3450  -19.2695   28.3916 O   0  0  0  0  0  0  0  0  0  0  0  0
  2  1  1  1
  2  3  1  0
  3  4  1  0
  4  8  1  0
  5  4  2  0
  6  7  2  0
  6  2  1  0
  9 10  1  0
 10 11  1  0
 11 12  1  0
 13 12  1  1
 13 14  1  0
 14  6  1  0
 15 13  1  0
 15 21  1  0
 16 15  2  0
 18 17  1  6
 18 20  1  0
 19 18  1  0
 20 21  1  6
 20 22  1  0
 22 23  2  0
 22 24  1  0
M  END
$$$$
