NCQ.pdb
     RDKit          3D

 24 23  0  0  1  0  0  0  0  0999 V2000
   20.5406  -10.2623  -17.1782 N   0  0  0  0  0  0  0  0  0  0  0  0
   19.9457  -11.0528  -16.1619 C   0  0  0  0  0  0  0  0  0  0  0  0
   19.2890  -12.0721  -16.4829 O   0  0  0  0  0  0  0  0  0  0  0  0
   20.1154  -10.6539  -14.7454 C   0  0  0  0  0  0  0  0  0  0  0  0
   20.8930   -9.3511  -14.6870 C   0  0  2  0  0  0  0  0  0  0  0  0
   22.2820   -9.6637  -14.8707 N   0  0  0  0  0  0  0  0  0  0  0  0
   20.6804   -8.6486  -13.4010 C   0  0  0  0  0  0  0  0  0  0  0  0
   21.0492   -9.1830  -12.3182 O   0  0  0  0  0  0  0  0  0  0  0  0
   20.0687   -7.3693  -13.2935 N   0  0  0  0  0  0  0  0  0  0  0  0
   19.9428   -6.6459  -12.0649 C   0  0  1  0  0  0  0  0  0  0  0  0
   20.8709   -5.4588  -11.9666 C   0  0  0  0  0  0  0  0  0  0  0  0
   20.9607   -4.5363  -13.5238 S   0  0  0  0  0  0  0  0  0  0  0  0
   18.5577   -6.1197  -11.8600 C   0  0  0  0  0  0  0  0  0  0  0  0
   17.9210   -5.6733  -12.8488 O   0  0  0  0  0  0  0  0  0  0  0  0
   14.4959   -8.3676   -7.6420 N   0  0  0  0  0  0  0  0  0  0  0  0
   13.9180   -7.1361   -8.0261 C   0  0  0  0  0  0  0  0  0  0  0  0
   12.7948   -6.8348   -7.5031 O   0  0  0  0  0  0  0  0  0  0  0  0
   14.5525   -6.2062   -8.9802 C   0  0  0  0  0  0  0  0  0  0  0  0
   15.8951   -6.5787   -9.4696 C   0  0  0  0  0  0  0  0  0  0  0  0
   16.5828   -5.6065  -10.3568 C   0  0  2  0  0  0  0  0  0  0  0  0
   17.9486   -6.1098  -10.5961 N   0  0  0  0  0  0  0  0  0  0  0  0
   16.6745   -4.2149   -9.9679 C   0  0  0  0  0  0  0  0  0  0  0  0
   17.7191   -3.7524   -9.4260 O   0  0  0  0  0  0  0  0  0  0  0  0
   15.6483   -3.3088  -10.1657 O   0  0  0  0  0  0  0  0  0  0  0  0
  2  1  1  0
  2  4  1  0
  3  2  2  0
  4  5  1  0
  5  7  1  0
  5  6  1  1
  7  8  2  0
  9  7  1  0
  9 10  1  0
 10 13  1  0
 11 12  1  0
 10 11  1  6
 13 21  1  0
 14 13  2  0
 16 15  1  0
 17 16  2  0
 18 16  1  0
 19 18  1  0
 20 19  1  1
 21 20  1  0
 22 20  1  0
 22 24  1  0
 23 22  2  0
M  END
$$$$
