NCQ.pdb
     RDKit          3D

 24 23  0  0  1  0  0  0  0  0999 V2000
   42.7725  -17.6845  -11.1890 N   0  0  0  0  0  0  0  0  0  0  0  0
   43.2444  -18.2119   -9.9598 C   0  0  0  0  0  0  0  0  0  0  0  0
   43.6460  -19.3994   -9.9154 O   0  0  0  0  0  0  0  0  0  0  0  0
   43.2509  -17.3457   -8.7581 C   0  0  0  0  0  0  0  0  0  0  0  0
   44.4933  -16.4732   -8.7827 C   0  0  2  0  0  0  0  0  0  0  0  0
   45.6152  -17.3024   -8.4444 N   0  0  0  0  0  0  0  0  0  0  0  0
   44.3786  -15.3377   -7.8393 C   0  0  0  0  0  0  0  0  0  0  0  0
   44.3916  -15.5445   -6.5938 O   0  0  0  0  0  0  0  0  0  0  0  0
   44.2501  -13.9821   -8.2496 N   0  0  0  0  0  0  0  0  0  0  0  0
   44.1884  -12.8765   -7.3426 C   0  0  1  0  0  0  0  0  0  0  0  0
   45.5447  -12.3304   -6.9650 C   0  0  0  0  0  0  0  0  0  0  0  0
   45.4162  -10.8686   -5.9016 S   0  0  0  0  0  0  0  0  0  0  0  0
   43.4105  -11.7292   -7.9046 C   0  0  0  0  0  0  0  0  0  0  0  0
   43.6586  -11.3369   -9.0738 O   0  0  0  0  0  0  0  0  0  0  0  0
   37.5558  -10.4136   -5.8577 N   0  0  0  0  0  0  0  0  0  0  0  0
   37.8277   -9.4085   -6.8137 C   0  0  0  0  0  0  0  0  0  0  0  0
   36.8956   -8.5731   -7.0574 O   0  0  0  0  0  0  0  0  0  0  0  0
   39.1191   -9.2882   -7.5176 C   0  0  0  0  0  0  0  0  0  0  0  0
   40.1724  -10.2481   -7.1306 C   0  0  0  0  0  0  0  0  0  0  0  0
   41.5151  -10.0554   -7.7350 C   0  0  2  0  0  0  0  0  0  0  0  0
   42.4120  -11.0782   -7.1647 N   0  0  0  0  0  0  0  0  0  0  0  0
   42.1730   -8.7695   -7.6352 C   0  0  0  0  0  0  0  0  0  0  0  0
   43.0309   -8.5393   -6.7352 O   0  0  0  0  0  0  0  0  0  0  0  0
   41.9201   -7.7249   -8.5059 O   0  0  0  0  0  0  0  0  0  0  0  0
  2  1  1  0
  2  4  1  0
  3  2  2  0
  4  5  1  0
  5  7  1  0
  5  6  1  1
  7  8  2  0
  9  7  1  0
  9 10  1  0
 10 13  1  0
 11 12  1  0
 10 11  1  6
 13 21  1  0
 14 13  2  0
 16 15  1  0
 17 16  2  0
 18 16  1  0
 19 18  1  0
 20 19  1  1
 21 20  1  0
 22 20  1  0
 22 24  1  0
 23 22  2  0
M  END
$$$$
