NCQ.pdb
     RDKit          3D

 24 23  0  0  1  0  0  0  0  0999 V2000
   18.7853  -12.5475  -20.2322 N   0  0  0  0  0  0  0  0  0  0  0  0
   18.4625  -12.9064  -18.8985 C   0  0  0  0  0  0  0  0  0  0  0  0
   17.8344  -13.9708  -18.6844 O   0  0  0  0  0  0  0  0  0  0  0  0
   18.8761  -12.0138  -17.7910 C   0  0  0  0  0  0  0  0  0  0  0  0
   20.1713  -12.5335  -17.1928 C   0  0  2  0  0  0  0  0  0  0  0  0
   19.8574  -13.7042  -16.4235 N   0  0  0  0  0  0  0  0  0  0  0  0
   20.8272  -11.5112  -16.3459 C   0  0  0  0  0  0  0  0  0  0  0  0
   20.2462  -11.0760  -15.3128 O   0  0  0  0  0  0  0  0  0  0  0  0
   22.1107  -10.9645  -16.6219 N   0  0  0  0  0  0  0  0  0  0  0  0
   22.7434   -9.9667  -15.8141 C   0  0  1  0  0  0  0  0  0  0  0  0
   24.2454   -9.9320  -15.9656 C   0  0  0  0  0  0  0  0  0  0  0  0
   25.0285  -11.4306  -15.3139 S   0  0  0  0  0  0  0  0  0  0  0  0
   22.2530   -8.5898  -16.1319 C   0  0  0  0  0  0  0  0  0  0  0  0
   21.7286   -8.3717  -17.2544 O   0  0  0  0  0  0  0  0  0  0  0  0
   17.4821   -6.7731  -16.3507 N   0  0  0  0  0  0  0  0  0  0  0  0
   18.0107   -5.4929  -16.0688 C   0  0  0  0  0  0  0  0  0  0  0  0
   17.1865   -4.5205  -16.0329 O   0  0  0  0  0  0  0  0  0  0  0  0
   19.4431   -5.2461  -15.8139 C   0  0  0  0  0  0  0  0  0  0  0  0
   20.3223   -6.4324  -15.7913 C   0  0  0  0  0  0  0  0  0  0  0  0
   21.7433   -6.2113  -15.4206 C   0  0  2  0  0  0  0  0  0  0  0  0
   22.3612   -7.5346  -15.2137 N   0  0  0  0  0  0  0  0  0  0  0  0
   22.0704   -5.3758  -14.2843 C   0  0  0  0  0  0  0  0  0  0  0  0
   22.3853   -5.8797  -13.1682 O   0  0  0  0  0  0  0  0  0  0  0  0
   22.0698   -3.9937  -14.3412 O   0  0  0  0  0  0  0  0  0  0  0  0
  2  1  1  0
  2  4  1  0
  3  2  2  0
  4  5  1  0
  5  7  1  0
  5  6  1  1
  7  8  2  0
  9  7  1  0
  9 10  1  0
 10 13  1  0
 11 12  1  0
 10 11  1  6
 13 21  1  0
 14 13  2  0
 16 15  1  0
 17 16  2  0
 18 16  1  0
 19 18  1  0
 20 19  1  1
 21 20  1  0
 22 20  1  0
 22 24  1  0
 23 22  2  0
M  END
$$$$
