NCQ.pdb
     RDKit          3D

 24 23  0  0  1  0  0  0  0  0999 V2000
   17.4222  -17.1068  -17.0845 N   0  0  0  0  0  0  0  0  0  0  0  0
   17.2593  -16.1122  -16.0866 C   0  0  0  0  0  0  0  0  0  0  0  0
   16.6791  -16.4078  -15.0145 O   0  0  0  0  0  0  0  0  0  0  0  0
   17.7793  -14.7477  -16.3362 C   0  0  0  0  0  0  0  0  0  0  0  0
   18.0414  -14.0659  -15.0051 C   0  0  2  0  0  0  0  0  0  0  0  0
   16.9656  -14.4106  -14.1193 N   0  0  0  0  0  0  0  0  0  0  0  0
   18.1428  -12.5966  -15.1580 C   0  0  0  0  0  0  0  0  0  0  0  0
   18.7500  -12.1027  -16.1487 O   0  0  0  0  0  0  0  0  0  0  0  0
   17.5857  -11.6679  -14.2362 N   0  0  0  0  0  0  0  0  0  0  0  0
   17.6045  -10.2490  -14.4235 C   0  0  1  0  0  0  0  0  0  0  0  0
   16.8710   -9.7949  -15.6628 C   0  0  0  0  0  0  0  0  0  0  0  0
   15.2595  -10.6061  -15.8338 S   0  0  0  0  0  0  0  0  0  0  0  0
   16.9854   -9.5204  -13.2732 C   0  0  0  0  0  0  0  0  0  0  0  0
   16.3115  -10.1678  -12.4310 O   0  0  0  0  0  0  0  0  0  0  0  0
   14.7156   -8.8121   -8.8918 N   0  0  0  0  0  0  0  0  0  0  0  0
   15.3863   -7.5680   -8.9116 C   0  0  0  0  0  0  0  0  0  0  0  0
   14.7587   -6.5636   -8.4388 O   0  0  0  0  0  0  0  0  0  0  0  0
   16.7533   -7.3930   -9.4391 C   0  0  0  0  0  0  0  0  0  0  0  0
   17.0557   -8.0618  -10.7206 C   0  0  0  0  0  0  0  0  0  0  0  0
   16.5839   -7.3911  -11.9587 C   0  0  2  0  0  0  0  0  0  0  0  0
   17.1351   -8.1354  -13.1068 N   0  0  0  0  0  0  0  0  0  0  0  0
   16.8501   -5.9826  -12.1620 C   0  0  0  0  0  0  0  0  0  0  0  0
   17.8405   -5.5937  -12.8451 O   0  0  0  0  0  0  0  0  0  0  0  0
   16.0499   -4.9823  -11.6400 O   0  0  0  0  0  0  0  0  0  0  0  0
  2  1  1  0
  2  4  1  0
  3  2  2  0
  4  5  1  0
  5  7  1  0
  5  6  1  1
  7  8  2  0
  9  7  1  0
  9 10  1  0
 10 13  1  0
 11 12  1  0
 10 11  1  6
 13 21  1  0
 14 13  2  0
 16 15  1  0
 17 16  2  0
 18 16  1  0
 19 18  1  0
 20 19  1  1
 21 20  1  0
 22 20  1  0
 22 24  1  0
 23 22  2  0
M  END
$$$$
