NCQ.pdb
     RDKit          3D

 24 23  0  0  1  0  0  0  0  0999 V2000
   16.7443  -12.8298  -16.5050 N   0  0  0  0  0  0  0  0  0  0  0  0
   17.5119  -13.4698  -15.4986 C   0  0  0  0  0  0  0  0  0  0  0  0
   17.0573  -14.4969  -14.9402 O   0  0  0  0  0  0  0  0  0  0  0  0
   18.8328  -12.9082  -15.1321 C   0  0  0  0  0  0  0  0  0  0  0  0
   19.1117  -11.6921  -15.9973 C   0  0  2  0  0  0  0  0  0  0  0  0
   19.5350  -12.1617  -17.2862 N   0  0  0  0  0  0  0  0  0  0  0  0
   20.1449  -10.8206  -15.3928 C   0  0  0  0  0  0  0  0  0  0  0  0
   19.9717  -10.3388  -14.2386 O   0  0  0  0  0  0  0  0  0  0  0  0
   21.3621  -10.4745  -16.0415 N   0  0  0  0  0  0  0  0  0  0  0  0
   22.3299   -9.5733  -15.4939 C   0  0  1  0  0  0  0  0  0  0  0  0
   23.7276   -9.7976  -16.0197 C   0  0  0  0  0  0  0  0  0  0  0  0
   24.4191  -11.3760  -15.4590 S   0  0  0  0  0  0  0  0  0  0  0  0
   21.9937   -8.1440  -15.7786 C   0  0  0  0  0  0  0  0  0  0  0  0
   21.5045   -7.8424  -16.8977 O   0  0  0  0  0  0  0  0  0  0  0  0
   17.3561   -5.8780  -15.5708 N   0  0  0  0  0  0  0  0  0  0  0  0
   18.0389   -4.6512  -15.4071 C   0  0  0  0  0  0  0  0  0  0  0  0
   17.3310   -3.5906  -15.3986 O   0  0  0  0  0  0  0  0  0  0  0  0
   19.5022   -4.5542  -15.2430 C   0  0  0  0  0  0  0  0  0  0  0  0
   20.2524   -5.8261  -15.2564 C   0  0  0  0  0  0  0  0  0  0  0  0
   21.7123   -5.7504  -14.9948 C   0  0  2  0  0  0  0  0  0  0  0  0
   22.2086   -7.1300  -14.8331 N   0  0  0  0  0  0  0  0  0  0  0  0
   22.2063   -4.9585  -13.8878 C   0  0  0  0  0  0  0  0  0  0  0  0
   22.4768   -5.4875  -12.7717 O   0  0  0  0  0  0  0  0  0  0  0  0
   22.4209   -3.5948  -13.9745 O   0  0  0  0  0  0  0  0  0  0  0  0
  2  1  1  0
  2  4  1  0
  3  2  2  0
  4  5  1  0
  5  7  1  0
  5  6  1  6
  7  8  2  0
  9  7  1  0
  9 10  1  0
 10 13  1  0
 11 12  1  0
 10 11  1  6
 13 21  1  0
 14 13  2  0
 16 15  1  0
 17 16  2  0
 18 16  1  0
 19 18  1  0
 20 19  1  1
 21 20  1  0
 22 20  1  0
 22 24  1  0
 23 22  2  0
M  END
$$$$
