GVY.pdb
     RDKit          3D

 24 24  0  0  1  0  0  0  0  0999 V2000
   25.2605  -20.6013   -8.4541 N   0  0  0  0  0  0  0  0  0  0  0  0
   25.8692  -21.2177   -9.6092 C   0  0  0  0  0  0  0  0  0  0  0  0
   25.7078  -20.3351  -10.7802 C   0  0  0  0  0  0  0  0  0  0  0  0
   24.9890  -19.2904  -10.7560 O   0  0  0  0  0  0  0  0  0  0  0  0
   27.8854  -21.3786  -14.3463 C   0  0  0  0  0  0  0  0  0  0  0  0
   27.5570  -19.9668  -13.9406 C   0  0  1  0  0  0  0  0  0  0  0  0
   27.5696  -19.0553  -15.1515 C   0  0  0  0  0  0  0  0  0  0  0  0
   26.2478  -19.8762  -13.1860 C   0  0  2  0  0  0  0  0  0  0  0  0
   26.3807  -20.6620  -11.9847 N   0  0  0  0  0  0  0  0  0  0  0  0
   25.0949  -20.2891  -14.0120 C   0  0  0  0  0  0  0  0  0  0  0  0
   24.8295  -21.5124  -14.1355 O   0  0  0  0  0  0  0  0  0  0  0  0
   17.4030  -20.7717  -18.1101 O   0  0  0  0  0  0  0  0  0  0  0  0
   18.4783  -20.4421  -17.2924 C   0  0  0  0  0  0  0  0  0  0  0  0
   19.1554  -19.2734  -17.5865 C   0  0  0  0  0  0  0  0  0  0  0  0
   20.2240  -18.8792  -16.8297 C   0  0  0  0  0  0  0  0  0  0  0  0
   20.6669  -19.6378  -15.7398 C   0  0  0  0  0  0  0  0  0  0  0  0
   21.8274  -19.1965  -14.9617 C   0  0  0  0  0  0  0  0  0  0  0  0
   23.0776  -19.8297  -15.4667 C   0  0  2  0  0  0  0  0  0  0  0  0
   24.2476  -19.3747  -14.6910 N   0  0  0  0  0  0  0  0  0  0  0  0
   23.2953  -19.5539  -16.9001 C   0  0  0  0  0  0  0  0  0  0  0  0
   23.8538  -18.5358  -17.3623 O   0  0  0  0  0  0  0  0  0  0  0  0
   19.9655  -20.8015  -15.4753 C   0  0  0  0  0  0  0  0  0  0  0  0
   18.8970  -21.1916  -16.2351 C   0  0  0  0  0  0  0  0  0  0  0  0
   22.8358  -20.5174  -17.8190 O   0  0  0  0  0  0  0  0  0  0  0  0
  1  2  1  0
  3  2  1  0
  3  9  1  0
  4  3  2  0
  6  5  1  6
  6  8  1  0
  7  6  1  0
  8  9  1  1
  8 10  1  0
 10 19  1  0
 11 10  2  0
 12 13  1  0
 13 23  2  0
 14 13  1  0
 14 15  2  0
 15 16  1  0
 16 22  2  0
 16 17  1  0
 18 20  1  0
 18 17  1  1
 19 18  1  0
 20 24  1  0
 21 20  2  0
 23 22  1  0
M  END
$$$$
