GVY.pdb
     RDKit          3D

 24 24  0  0  1  0  0  0  0  0999 V2000
   24.2093  -13.7775  -19.0930 N   0  0  0  0  0  0  0  0  0  0  0  0
   24.0836  -12.3476  -19.2484 C   0  0  0  0  0  0  0  0  0  0  0  0
   24.0782  -11.7068  -17.9197 C   0  0  0  0  0  0  0  0  0  0  0  0
   23.4040  -12.1582  -16.9449 O   0  0  0  0  0  0  0  0  0  0  0  0
   26.8169  -11.1747  -15.6591 C   0  0  0  0  0  0  0  0  0  0  0  0
   26.2958   -9.7963  -15.9655 C   0  0  1  0  0  0  0  0  0  0  0  0
   27.2187   -9.0894  -16.9380 C   0  0  0  0  0  0  0  0  0  0  0  0
   24.8676   -9.8209  -16.4670 C   0  0  2  0  0  0  0  0  0  0  0  0
   24.8560  -10.5387  -17.7173 N   0  0  0  0  0  0  0  0  0  0  0  0
   24.2907   -8.4661  -16.5827 C   0  0  0  0  0  0  0  0  0  0  0  0
   24.4418   -7.8190  -17.6507 O   0  0  0  0  0  0  0  0  0  0  0  0
   17.8671  -10.2148  -14.7787 O   0  0  0  0  0  0  0  0  0  0  0  0
   18.8584   -9.3805  -15.2833 C   0  0  0  0  0  0  0  0  0  0  0  0
   18.8891   -8.0829  -14.8076 C   0  0  0  0  0  0  0  0  0  0  0  0
   19.8334   -7.2004  -15.2541 C   0  0  0  0  0  0  0  0  0  0  0  0
   20.7944   -7.5753  -16.2004 C   0  0  0  0  0  0  0  0  0  0  0  0
   21.7800   -6.5990  -16.6720 C   0  0  0  0  0  0  0  0  0  0  0  0
   22.9318   -6.5102  -15.7314 C   0  0  2  0  0  0  0  0  0  0  0  0
   23.5601   -7.8322  -15.5437 N   0  0  0  0  0  0  0  0  0  0  0  0
   22.5327   -5.9604  -14.4213 C   0  0  0  0  0  0  0  0  0  0  0  0
   22.5969   -6.5711  -13.3327 O   0  0  0  0  0  0  0  0  0  0  0  0
   20.7330   -8.8815  -16.6544 C   0  0  0  0  0  0  0  0  0  0  0  0
   19.7866   -9.7608  -16.2047 C   0  0  0  0  0  0  0  0  0  0  0  0
   22.0404   -4.6409  -14.3988 O   0  0  0  0  0  0  0  0  0  0  0  0
  1  2  1  0
  3  2  1  0
  3  9  1  0
  4  3  2  0
  6  5  1  6
  6  8  1  0
  7  6  1  0
  8  9  1  6
  8 10  1  0
 10 19  1  0
 11 10  2  0
 12 13  1  0
 13 23  2  0
 14 13  1  0
 14 15  2  0
 15 16  1  0
 16 22  2  0
 16 17  1  0
 18 20  1  0
 18 17  1  6
 19 18  1  0
 20 24  1  0
 21 20  2  0
 23 22  1  0
M  END
$$$$
