GVY.pdb
     RDKit          3D

 24 24  0  0  1  0  0  0  0  0999 V2000
   20.6583  -15.0702  -18.9167 N   0  0  0  0  0  0  0  0  0  0  0  0
   21.0078  -14.2970  -17.7486 C   0  0  0  0  0  0  0  0  0  0  0  0
   20.3739  -12.9675  -17.8308 C   0  0  0  0  0  0  0  0  0  0  0  0
   19.9261  -12.4887  -18.9165 O   0  0  0  0  0  0  0  0  0  0  0  0
   17.4372  -11.8391  -16.1540 C   0  0  0  0  0  0  0  0  0  0  0  0
   18.5026  -10.8710  -15.7144 C   0  0  1  0  0  0  0  0  0  0  0  0
   18.9176  -11.1592  -14.2854 C   0  0  0  0  0  0  0  0  0  0  0  0
   19.6918  -10.8620  -16.6512 C   0  0  2  0  0  0  0  0  0  0  0  0
   20.2573  -12.1880  -16.6521 N   0  0  0  0  0  0  0  0  0  0  0  0
   20.6784   -9.8222  -16.2946 C   0  0  0  0  0  0  0  0  0  0  0  0
   21.7033  -10.1414  -15.6391 O   0  0  0  0  0  0  0  0  0  0  0  0
   25.6241   -2.5623  -16.1908 O   0  0  0  0  0  0  0  0  0  0  0  0
   24.7518   -3.6027  -16.4906 C   0  0  0  0  0  0  0  0  0  0  0  0
   25.3094   -4.8517  -16.6904 C   0  0  0  0  0  0  0  0  0  0  0  0
   24.5189   -5.9269  -16.9890 C   0  0  0  0  0  0  0  0  0  0  0  0
   23.1292   -5.8029  -17.1020 C   0  0  0  0  0  0  0  0  0  0  0  0
   22.3134   -6.9716  -17.4424 C   0  0  0  0  0  0  0  0  0  0  0  0
   21.5452   -7.4464  -16.2577 C   0  0  2  0  0  0  0  0  0  0  0  0
   20.5424   -8.4550  -16.6515 N   0  0  0  0  0  0  0  0  0  0  0  0
   20.8796   -6.3352  -15.5505 C   0  0  0  0  0  0  0  0  0  0  0  0
   19.7434   -5.8878  -15.8173 O   0  0  0  0  0  0  0  0  0  0  0  0
   22.6062   -4.5380  -16.8959 C   0  0  0  0  0  0  0  0  0  0  0  0
   23.4009   -3.4655  -16.5973 C   0  0  0  0  0  0  0  0  0  0  0  0
   21.5835   -5.7323  -14.4900 O   0  0  0  0  0  0  0  0  0  0  0  0
  1  2  1  0
  3  2  1  0
  3  9  1  0
  4  3  2  0
  6  5  1  6
  6  8  1  0
  7  6  1  0
  8  9  1  1
  8 10  1  0
 10 19  1  0
 11 10  2  0
 12 13  1  0
 13 23  2  0
 14 13  1  0
 14 15  2  0
 15 16  1  0
 16 22  2  0
 16 17  1  0
 18 20  1  0
 18 17  1  6
 19 18  1  0
 20 24  1  0
 21 20  2  0
 23 22  1  0
M  END
$$$$
