GVY.pdb
     RDKit          3D

 24 24  0  0  1  0  0  0  0  0999 V2000
   22.8267  -16.7876  -15.6662 N   0  0  0  0  0  0  0  0  0  0  0  0
   24.0359  -17.5290  -15.3965 C   0  0  0  0  0  0  0  0  0  0  0  0
   23.8137  -18.4333  -14.2524 C   0  0  0  0  0  0  0  0  0  0  0  0
   22.8327  -18.3048  -13.4588 O   0  0  0  0  0  0  0  0  0  0  0  0
   26.1616  -21.9890  -14.0818 C   0  0  0  0  0  0  0  0  0  0  0  0
   24.8001  -21.8095  -13.4656 C   0  0  1  0  0  0  0  0  0  0  0  0
   24.5611  -22.8632  -12.4027 C   0  0  0  0  0  0  0  0  0  0  0  0
   24.5955  -20.4111  -12.9231 C   0  0  2  0  0  0  0  0  0  0  0  0
   24.7301  -19.4911  -14.0248 N   0  0  0  0  0  0  0  0  0  0  0  0
   25.5136  -20.1026  -11.8079 C   0  0  0  0  0  0  0  0  0  0  0  0
   26.6592  -19.6474  -12.0582 O   0  0  0  0  0  0  0  0  0  0  0  0
   29.2789  -19.3751   -3.9046 O   0  0  0  0  0  0  0  0  0  0  0  0
   28.3833  -19.3356   -4.9676 C   0  0  0  0  0  0  0  0  0  0  0  0
   27.5918  -20.4518   -5.1634 C   0  0  0  0  0  0  0  0  0  0  0  0
   26.6859  -20.4914   -6.1870 C   0  0  0  0  0  0  0  0  0  0  0  0
   26.5286  -19.4130   -7.0655 C   0  0  0  0  0  0  0  0  0  0  0  0
   25.5621  -19.4960   -8.1638 C   0  0  0  0  0  0  0  0  0  0  0  0
   26.1785  -20.1203   -9.3677 C   0  0  2  0  0  0  0  0  0  0  0  0
   25.1800  -20.2904  -10.4410 N   0  0  0  0  0  0  0  0  0  0  0  0
   26.7992  -21.4227   -9.0570 C   0  0  0  0  0  0  0  0  0  0  0  0
   27.9680  -21.5851   -8.6453 O   0  0  0  0  0  0  0  0  0  0  0  0
   27.3377  -18.3129   -6.8394 C   0  0  0  0  0  0  0  0  0  0  0  0
   28.2424  -18.2779   -5.8141 C   0  0  0  0  0  0  0  0  0  0  0  0
   26.0083  -22.5737   -9.2400 O   0  0  0  0  0  0  0  0  0  0  0  0
  1  2  1  0
  3  2  1  0
  3  9  1  0
  4  3  2  0
  6  5  1  1
  6  8  1  0
  7  6  1  0
  8  9  1  6
  8 10  1  0
 10 19  1  0
 11 10  2  0
 12 13  1  0
 13 23  2  0
 14 13  1  0
 14 15  2  0
 15 16  1  0
 16 22  2  0
 16 17  1  0
 18 20  1  0
 18 17  1  1
 19 18  1  0
 20 24  1  0
 21 20  2  0
 23 22  1  0
M  END
$$$$
