GVY.pdb
     RDKit          3D

 24 24  0  0  1  0  0  0  0  0999 V2000
   19.9813  -14.7989  -16.7509 N   0  0  0  0  0  0  0  0  0  0  0  0
   18.8079  -14.0996  -16.2831 C   0  0  0  0  0  0  0  0  0  0  0  0
   19.0042  -12.6464  -16.4445 C   0  0  0  0  0  0  0  0  0  0  0  0
   20.1098  -12.1411  -16.8061 O   0  0  0  0  0  0  0  0  0  0  0  0
   15.5281  -10.3811  -16.5899 C   0  0  0  0  0  0  0  0  0  0  0  0
   16.8341   -9.8728  -17.1392 C   0  0  1  0  0  0  0  0  0  0  0  0
   16.8010   -8.3625  -17.2611 C   0  0  0  0  0  0  0  0  0  0  0  0
   18.0208  -10.3424  -16.3249 C   0  0  2  0  0  0  0  0  0  0  0  0
   17.9169  -11.7736  -16.1866 N   0  0  0  0  0  0  0  0  0  0  0  0
   18.1171   -9.6499  -15.0237 C   0  0  0  0  0  0  0  0  0  0  0  0
   17.3693  -10.0060  -14.0772 O   0  0  0  0  0  0  0  0  0  0  0  0
   23.8485   -4.8654  -16.2935 O   0  0  0  0  0  0  0  0  0  0  0  0
   23.0153   -5.5695  -15.4314 C   0  0  0  0  0  0  0  0  0  0  0  0
   22.9416   -6.9385  -15.6082 C   0  0  0  0  0  0  0  0  0  0  0  0
   22.1448   -7.7024  -14.8010 C   0  0  0  0  0  0  0  0  0  0  0  0
   21.3820   -7.1311  -13.7757 C   0  0  0  0  0  0  0  0  0  0  0  0
   20.5236   -7.9762  -12.9414 C   0  0  0  0  0  0  0  0  0  0  0  0
   19.1180   -7.9563  -13.4342 C   0  0  2  0  0  0  0  0  0  0  0  0
   19.0191   -8.5846  -14.7659 N   0  0  0  0  0  0  0  0  0  0  0  0
   18.5729   -6.5860  -13.4908 C   0  0  0  0  0  0  0  0  0  0  0  0
   18.3344   -5.9470  -14.5382 O   0  0  0  0  0  0  0  0  0  0  0  0
   21.4804   -5.7583  -13.6282 C   0  0  0  0  0  0  0  0  0  0  0  0
   22.2789   -4.9984  -14.4381 C   0  0  0  0  0  0  0  0  0  0  0  0
   18.3004   -5.9494  -12.2643 O   0  0  0  0  0  0  0  0  0  0  0  0
  1  2  1  0
  3  2  1  0
  3  9  1  0
  4  3  2  0
  6  5  1  1
  6  8  1  0
  7  6  1  0
  8  9  1  1
  8 10  1  0
 10 19  1  0
 11 10  2  0
 12 13  1  0
 13 23  2  0
 14 13  1  0
 14 15  2  0
 15 16  1  0
 16 22  2  0
 16 17  1  0
 18 20  1  0
 18 17  1  6
 19 18  1  0
 20 24  1  0
 21 20  2  0
 23 22  1  0
M  END
$$$$
