GVY.pdb
     RDKit          3D

 24 24  0  0  1  0  0  0  0  0999 V2000
   24.2008  -10.0347  -20.3999 N   0  0  0  0  0  0  0  0  0  0  0  0
   23.8808   -9.2145  -19.2556 C   0  0  0  0  0  0  0  0  0  0  0  0
   22.9578   -9.9469  -18.3679 C   0  0  0  0  0  0  0  0  0  0  0  0
   22.1351  -10.8107  -18.7987 O   0  0  0  0  0  0  0  0  0  0  0  0
   23.1962   -9.1054  -14.1515 C   0  0  0  0  0  0  0  0  0  0  0  0
   22.7448  -10.4232  -14.7217 C   0  0  1  0  0  0  0  0  0  0  0  0
   21.8801  -11.1612  -13.7194 C   0  0  0  0  0  0  0  0  0  0  0  0
   22.0438  -10.2623  -16.0538 C   0  0  2  0  0  0  0  0  0  0  0  0
   22.9864   -9.6793  -16.9758 N   0  0  0  0  0  0  0  0  0  0  0  0
   20.7979   -9.4770  -15.9404 C   0  0  0  0  0  0  0  0  0  0  0  0
   20.8623   -8.2526  -15.6598 O   0  0  0  0  0  0  0  0  0  0  0  0
   19.8583   -4.6897  -20.0717 O   0  0  0  0  0  0  0  0  0  0  0  0
   19.3394   -5.7998  -19.4147 C   0  0  0  0  0  0  0  0  0  0  0  0
   18.3226   -5.5732  -18.5061 C   0  0  0  0  0  0  0  0  0  0  0  0
   17.7591   -6.6125  -17.8190 C   0  0  0  0  0  0  0  0  0  0  0  0
   18.1874   -7.9316  -18.0090 C   0  0  0  0  0  0  0  0  0  0  0  0
   17.5753   -9.0197  -17.2420 C   0  0  0  0  0  0  0  0  0  0  0  0
   18.2819   -9.2190  -15.9459 C   0  0  2  0  0  0  0  0  0  0  0  0
   19.5031  -10.0264  -16.1319 N   0  0  0  0  0  0  0  0  0  0  0  0
   17.4142   -9.8575  -14.9371 C   0  0  0  0  0  0  0  0  0  0  0  0
   16.3184   -9.4072  -14.5391 O   0  0  0  0  0  0  0  0  0  0  0  0
   19.2072   -8.1207  -18.9257 C   0  0  0  0  0  0  0  0  0  0  0  0
   19.7677   -7.0778  -19.6108 C   0  0  0  0  0  0  0  0  0  0  0  0
   17.8594  -11.0720  -14.3798 O   0  0  0  0  0  0  0  0  0  0  0  0
  1  2  1  0
  3  2  1  0
  3  9  1  0
  4  3  2  0
  6  5  1  1
  6  8  1  0
  7  6  1  0
  8  9  1  6
  8 10  1  0
 10 19  1  0
 11 10  2  0
 12 13  1  0
 13 23  2  0
 14 13  1  0
 14 15  2  0
 15 16  1  0
 16 22  2  0
 16 17  1  0
 18 20  1  0
 18 17  1  6
 19 18  1  0
 20 24  1  0
 21 20  2  0
 23 22  1  0
M  END
$$$$
