GVY.pdb
     RDKit          3D

 24 24  0  0  1  0  0  0  0  0999 V2000
   23.9731  -23.2697  -14.5645 N   0  0  0  0  0  0  0  0  0  0  0  0
   25.2608  -23.4532  -15.1912 C   0  0  0  0  0  0  0  0  0  0  0  0
   25.1025  -24.2660  -16.4121 C   0  0  0  0  0  0  0  0  0  0  0  0
   24.2091  -25.1586  -16.5290 O   0  0  0  0  0  0  0  0  0  0  0  0
   26.4809  -24.7300  -21.1468 C   0  0  0  0  0  0  0  0  0  0  0  0
   26.3585  -23.9633  -19.8573 C   0  0  1  0  0  0  0  0  0  0  0  0
   25.4106  -22.7932  -20.0292 C   0  0  0  0  0  0  0  0  0  0  0  0
   25.9498  -24.8489  -18.6995 C   0  0  2  0  0  0  0  0  0  0  0  0
   25.9812  -24.0455  -17.5028 N   0  0  0  0  0  0  0  0  0  0  0  0
   26.7904  -26.0590  -18.5954 C   0  0  0  0  0  0  0  0  0  0  0  0
   27.9917  -25.9484  -18.2394 O   0  0  0  0  0  0  0  0  0  0  0  0
   30.8104  -33.1875  -16.3025 O   0  0  0  0  0  0  0  0  0  0  0  0
   29.9588  -32.1059  -16.4983 C   0  0  0  0  0  0  0  0  0  0  0  0
   30.4858  -30.9997  -17.1383 C   0  0  0  0  0  0  0  0  0  0  0  0
   29.7129  -29.8954  -17.3687 C   0  0  0  0  0  0  0  0  0  0  0  0
   28.3723  -29.8454  -16.9687 C   0  0  0  0  0  0  0  0  0  0  0  0
   27.5778  -28.6390  -17.2139 C   0  0  0  0  0  0  0  0  0  0  0  0
   27.1565  -28.5611  -18.6406 C   0  0  2  0  0  0  0  0  0  0  0  0
   26.3203  -27.3684  -18.8773 N   0  0  0  0  0  0  0  0  0  0  0  0
   26.4267  -29.7709  -19.0669 C   0  0  0  0  0  0  0  0  0  0  0  0
   25.1829  -29.8900  -19.0974 O   0  0  0  0  0  0  0  0  0  0  0  0
   27.8790  -30.9705  -16.3308 C   0  0  0  0  0  0  0  0  0  0  0  0
   28.6559  -32.0729  -16.1026 C   0  0  0  0  0  0  0  0  0  0  0  0
   27.1962  -30.8791  -19.4715 O   0  0  0  0  0  0  0  0  0  0  0  0
  1  2  1  0
  3  2  1  0
  3  9  1  0
  4  3  2  0
  6  5  1  6
  6  8  1  0
  7  6  1  0
  8  9  1  1
  8 10  1  0
 10 19  1  0
 11 10  2  0
 12 13  1  0
 13 23  2  0
 14 13  1  0
 14 15  2  0
 15 16  1  0
 16 22  2  0
 16 17  1  0
 18 20  1  0
 18 17  1  1
 19 18  1  0
 20 24  1  0
 21 20  2  0
 23 22  1  0
M  END
$$$$
