GVY.pdb
     RDKit          3D

 24 24  0  0  1  0  0  0  0  0999 V2000
   28.5214   -9.6375  -19.0721 N   0  0  0  0  0  0  0  0  0  0  0  0
   27.6311   -8.7147  -18.4085 C   0  0  0  0  0  0  0  0  0  0  0  0
   26.3478   -9.3856  -18.1267 C   0  0  0  0  0  0  0  0  0  0  0  0
   25.5815   -9.8100  -19.0440 O   0  0  0  0  0  0  0  0  0  0  0  0
   26.0670  -12.2387  -16.2159 C   0  0  0  0  0  0  0  0  0  0  0  0
   24.9755  -11.4018  -15.6046 C   0  0  1  0  0  0  0  0  0  0  0  0
   25.3131  -11.0668  -14.1656 C   0  0  0  0  0  0  0  0  0  0  0  0
   24.6846  -10.1568  -16.4153 C   0  0  2  0  0  0  0  0  0  0  0  0
   25.9488   -9.5666  -16.7782 N   0  0  0  0  0  0  0  0  0  0  0  0
   23.8011   -9.2148  -15.6986 C   0  0  0  0  0  0  0  0  0  0  0  0
   24.2487   -8.5769  -14.7113 O   0  0  0  0  0  0  0  0  0  0  0  0
   25.8522   -3.6656  -16.7699 O   0  0  0  0  0  0  0  0  0  0  0  0
   24.7314   -4.4805  -16.6551 C   0  0  0  0  0  0  0  0  0  0  0  0
   23.9347   -4.2988  -15.5402 C   0  0  0  0  0  0  0  0  0  0  0  0
   22.8144   -5.0605  -15.3541 C   0  0  0  0  0  0  0  0  0  0  0  0
   22.4371   -6.0429  -16.2772 C   0  0  0  0  0  0  0  0  0  0  0  0
   21.2412   -6.8548  -16.0374 C   0  0  0  0  0  0  0  0  0  0  0  0
   21.5797   -8.0847  -15.2681 C   0  0  2  0  0  0  0  0  0  0  0  0
   22.4489   -8.9770  -16.0594 N   0  0  0  0  0  0  0  0  0  0  0  0
   20.3722   -8.8186  -14.8423 C   0  0  0  0  0  0  0  0  0  0  0  0
   20.0569   -9.9685  -15.2173 O   0  0  0  0  0  0  0  0  0  0  0  0
   23.2584   -6.1970  -17.3808 C   0  0  0  0  0  0  0  0  0  0  0  0
   24.3780   -5.4325  -17.5627 C   0  0  0  0  0  0  0  0  0  0  0  0
   19.5071   -8.1686  -13.9407 O   0  0  0  0  0  0  0  0  0  0  0  0
  1  2  1  0
  3  2  1  0
  3  9  1  0
  4  3  2  0
  6  5  1  6
  6  8  1  0
  7  6  1  0
  8  9  1  1
  8 10  1  0
 10 19  1  0
 11 10  2  0
 12 13  1  0
 13 23  2  0
 14 13  1  0
 14 15  2  0
 15 16  1  0
 16 22  2  0
 16 17  1  0
 18 20  1  0
 18 17  1  6
 19 18  1  0
 20 24  1  0
 21 20  2  0
 23 22  1  0
M  END
$$$$
