GVY.pdb
     RDKit          3D

 24 24  0  0  1  0  0  0  0  0999 V2000
   22.0871  -13.8115  -17.8046 N   0  0  0  0  0  0  0  0  0  0  0  0
   23.4915  -14.0691  -17.5904 C   0  0  0  0  0  0  0  0  0  0  0  0
   23.7377  -15.5229  -17.6366 C   0  0  0  0  0  0  0  0  0  0  0  0
   22.9269  -16.3376  -18.1728 O   0  0  0  0  0  0  0  0  0  0  0  0
   26.9136  -16.8355  -18.9098 C   0  0  0  0  0  0  0  0  0  0  0  0
   26.7042  -17.5363  -17.5943 C   0  0  1  0  0  0  0  0  0  0  0  0
   27.6819  -17.0159  -16.5598 C   0  0  0  0  0  0  0  0  0  0  0  0
   25.2728  -17.4355  -17.1118 C   0  0  2  0  0  0  0  0  0  0  0  0
   24.9267  -16.0369  -17.0601 N   0  0  0  0  0  0  0  0  0  0  0  0
   25.0672  -18.1212  -15.8198 C   0  0  0  0  0  0  0  0  0  0  0  0
   25.6714  -17.7073  -14.7972 O   0  0  0  0  0  0  0  0  0  0  0  0
   23.0594  -21.7448   -8.3761 O   0  0  0  0  0  0  0  0  0  0  0  0
   23.2974  -21.0662   -9.5662 C   0  0  0  0  0  0  0  0  0  0  0  0
   22.1938  -20.7213  -10.3238 C   0  0  0  0  0  0  0  0  0  0  0  0
   22.3437  -20.0524  -11.5071 C   0  0  0  0  0  0  0  0  0  0  0  0
   23.6085  -19.6958  -11.9896 C   0  0  0  0  0  0  0  0  0  0  0  0
   23.7347  -18.9965  -13.2710 C   0  0  0  0  0  0  0  0  0  0  0  0
   24.0977  -19.9454  -14.3605 C   0  0  2  0  0  0  0  0  0  0  0  0
   24.2126  -19.2424  -15.6530 N   0  0  0  0  0  0  0  0  0  0  0  0
   23.1227  -21.0468  -14.4802 C   0  0  0  0  0  0  0  0  0  0  0  0
   23.0158  -22.0053  -13.6852 O   0  0  0  0  0  0  0  0  0  0  0  0
   24.6900  -20.0575  -11.2051 C   0  0  0  0  0  0  0  0  0  0  0  0
   24.5351  -20.7265  -10.0221 C   0  0  0  0  0  0  0  0  0  0  0  0
   22.2431  -21.0125  -15.5797 O   0  0  0  0  0  0  0  0  0  0  0  0
  1  2  1  0
  3  2  1  0
  3  9  1  0
  4  3  2  0
  6  5  1  6
  6  8  1  0
  7  6  1  0
  8  9  1  1
  8 10  1  0
 10 19  1  0
 11 10  2  0
 12 13  1  0
 13 23  2  0
 14 13  1  0
 14 15  2  0
 15 16  1  0
 16 22  2  0
 16 17  1  0
 18 20  1  0
 18 17  1  1
 19 18  1  0
 20 24  1  0
 21 20  2  0
 23 22  1  0
M  END
$$$$
