GVY.pdb
     RDKit          3D

 24 24  0  0  1  0  0  0  0  0999 V2000
   22.3225  -15.4352  -18.7783 N   0  0  0  0  0  0  0  0  0  0  0  0
   23.2933  -15.1980  -17.7362 C   0  0  0  0  0  0  0  0  0  0  0  0
   24.2931  -16.2826  -17.7392 C   0  0  0  0  0  0  0  0  0  0  0  0
   23.9753  -17.5062  -17.8414 O   0  0  0  0  0  0  0  0  0  0  0  0
   28.3929  -15.1596  -17.0369 C   0  0  0  0  0  0  0  0  0  0  0  0
   28.0061  -16.3166  -17.9185 C   0  0  1  0  0  0  0  0  0  0  0  0
   29.1285  -17.3335  -17.9742 C   0  0  0  0  0  0  0  0  0  0  0  0
   26.6983  -16.9498  -17.4935 C   0  0  2  0  0  0  0  0  0  0  0  0
   25.6668  -15.9509  -17.6233 N   0  0  0  0  0  0  0  0  0  0  0  0
   26.7685  -17.5226  -16.1339 C   0  0  0  0  0  0  0  0  0  0  0  0
   26.8577  -16.7533  -15.1428 O   0  0  0  0  0  0  0  0  0  0  0  0
   25.6642  -21.1306   -8.4672 O   0  0  0  0  0  0  0  0  0  0  0  0
   25.6156  -20.6867   -9.7841 C   0  0  0  0  0  0  0  0  0  0  0  0
   26.0956  -19.4151  -10.0361 C   0  0  0  0  0  0  0  0  0  0  0  0
   26.0827  -18.9054  -11.3049 C   0  0  0  0  0  0  0  0  0  0  0  0
   25.5876  -19.6459  -12.3848 C   0  0  0  0  0  0  0  0  0  0  0  0
   25.5705  -19.0622  -13.7286 C   0  0  0  0  0  0  0  0  0  0  0  0
   26.7932  -19.4439  -14.4892 C   0  0  2  0  0  0  0  0  0  0  0  0
   26.7413  -18.9165  -15.8665 N   0  0  0  0  0  0  0  0  0  0  0  0
   26.9860  -20.9066  -14.5253 C   0  0  0  0  0  0  0  0  0  0  0  0
   26.3965  -21.6932  -15.2974 O   0  0  0  0  0  0  0  0  0  0  0  0
   25.1152  -20.9144  -12.0950 C   0  0  0  0  0  0  0  0  0  0  0  0
   25.1303  -21.4200  -10.8242 C   0  0  0  0  0  0  0  0  0  0  0  0
   27.9091  -21.4579  -13.6155 O   0  0  0  0  0  0  0  0  0  0  0  0
  1  2  1  0
  3  2  1  0
  3  9  1  0
  4  3  2  0
  6  5  1  1
  6  8  1  0
  7  6  1  0
  8  9  1  1
  8 10  1  0
 10 19  1  0
 11 10  2  0
 12 13  1  0
 13 23  2  0
 14 13  1  0
 14 15  2  0
 15 16  1  0
 16 22  2  0
 16 17  1  0
 18 20  1  0
 18 17  1  6
 19 18  1  0
 20 24  1  0
 21 20  2  0
 23 22  1  0
M  END
$$$$
