GVY.pdb
     RDKit          3D

 24 24  0  0  1  0  0  0  0  0999 V2000
   15.1295  -12.2188    3.6570 N   0  0  0  0  0  0  0  0  0  0  0  0
   15.6806  -12.0217    4.9769 C   0  0  0  0  0  0  0  0  0  0  0  0
   16.9667  -12.7361    5.0847 C   0  0  0  0  0  0  0  0  0  0  0  0
   17.4679  -13.3925    4.1221 O   0  0  0  0  0  0  0  0  0  0  0  0
   19.0467  -12.3496    8.7940 C   0  0  0  0  0  0  0  0  0  0  0  0
   19.7523  -12.5351    7.4775 C   0  0  1  0  0  0  0  0  0  0  0  0
   21.1303  -13.1262    7.6983 C   0  0  0  0  0  0  0  0  0  0  0  0
   18.9397  -13.3597    6.5020 C   0  0  2  0  0  0  0  0  0  0  0  0
   17.6766  -12.6913    6.3113 N   0  0  0  0  0  0  0  0  0  0  0  0
   18.7820  -14.7594    6.9465 C   0  0  0  0  0  0  0  0  0  0  0  0
   17.8548  -15.0541    7.7437 O   0  0  0  0  0  0  0  0  0  0  0  0
   15.1694  -18.6752    2.4373 O   0  0  0  0  0  0  0  0  0  0  0  0
   16.2624  -18.6138    3.2946 C   0  0  0  0  0  0  0  0  0  0  0  0
   16.9827  -17.4340    3.3102 C   0  0  0  0  0  0  0  0  0  0  0  0
   18.0711  -17.2940    4.1261 C   0  0  0  0  0  0  0  0  0  0  0  0
   18.4915  -18.3307    4.9675 C   0  0  0  0  0  0  0  0  0  0  0  0
   19.6738  -18.1544    5.8150 C   0  0  0  0  0  0  0  0  0  0  0  0
   19.3890  -17.2147    6.9352 C   0  0  2  0  0  0  0  0  0  0  0  0
   19.6278  -15.8180    6.5231 N   0  0  0  0  0  0  0  0  0  0  0  0
   20.1952  -17.5232    8.1323 C   0  0  0  0  0  0  0  0  0  0  0  0
   21.2288  -16.9141    8.4827 O   0  0  0  0  0  0  0  0  0  0  0  0
   17.7470  -19.4969    4.9252 C   0  0  0  0  0  0  0  0  0  0  0  0
   16.6589  -19.6322    4.1075 C   0  0  0  0  0  0  0  0  0  0  0  0
   19.7626  -18.5904    8.9433 O   0  0  0  0  0  0  0  0  0  0  0  0
  1  2  1  0
  3  2  1  0
  3  9  1  0
  4  3  2  0
  6  5  1  1
  6  8  1  0
  7  6  1  0
  8  9  1  1
  8 10  1  0
 10 19  1  0
 11 10  2  0
 12 13  1  0
 13 23  2  0
 14 13  1  0
 14 15  2  0
 15 16  1  0
 16 22  2  0
 16 17  1  0
 18 20  1  0
 18 17  1  6
 19 18  1  0
 20 24  1  0
 21 20  2  0
 23 22  1  0
M  END
$$$$
