GVY.pdb
     RDKit          3D

 24 24  0  0  1  0  0  0  0  0999 V2000
   23.4874  -13.7839  -20.3043 N   0  0  0  0  0  0  0  0  0  0  0  0
   24.2732  -12.7304  -19.7065 C   0  0  0  0  0  0  0  0  0  0  0  0
   23.7183  -12.3940  -18.3817 C   0  0  0  0  0  0  0  0  0  0  0  0
   22.5365  -12.6991  -18.0371 O   0  0  0  0  0  0  0  0  0  0  0  0
   24.6148  -13.3145  -15.0866 C   0  0  0  0  0  0  0  0  0  0  0  0
   24.7652  -11.8169  -15.0792 C   0  0  1  0  0  0  0  0  0  0  0  0
   26.2321  -11.4358  -15.0783 C   0  0  0  0  0  0  0  0  0  0  0  0
   24.0171  -11.1593  -16.2192 C   0  0  2  0  0  0  0  0  0  0  0  0
   24.5337  -11.7015  -17.4511 N   0  0  0  0  0  0  0  0  0  0  0  0
   24.0989   -9.6853  -16.1671 C   0  0  0  0  0  0  0  0  0  0  0  0
   25.1338   -9.1084  -16.5894 O   0  0  0  0  0  0  0  0  0  0  0  0
   23.3896   -1.1556  -16.8473 O   0  0  0  0  0  0  0  0  0  0  0  0
   23.2392   -2.5379  -16.8537 C   0  0  0  0  0  0  0  0  0  0  0  0
   24.3513   -3.2888  -17.1859 C   0  0  0  0  0  0  0  0  0  0  0  0
   24.2854   -4.6544  -17.2147 C   0  0  0  0  0  0  0  0  0  0  0  0
   23.1004   -5.3352  -16.9118 C   0  0  0  0  0  0  0  0  0  0  0  0
   23.0590   -6.7987  -16.9712 C   0  0  0  0  0  0  0  0  0  0  0  0
   23.1950   -7.3897  -15.6106 C   0  0  2  0  0  0  0  0  0  0  0  0
   23.0623   -8.8586  -15.6601 N   0  0  0  0  0  0  0  0  0  0  0  0
   22.2059   -6.8341  -14.6667 C   0  0  0  0  0  0  0  0  0  0  0  0
   21.0390   -7.2549  -14.5135 O   0  0  0  0  0  0  0  0  0  0  0  0
   22.0077   -4.5512  -16.5842 C   0  0  0  0  0  0  0  0  0  0  0  0
   22.0785   -3.1855  -16.5565 C   0  0  0  0  0  0  0  0  0  0  0  0
   22.6123   -5.7416  -13.8760 O   0  0  0  0  0  0  0  0  0  0  0  0
  1  2  1  0
  3  2  1  0
  3  9  1  0
  4  3  2  0
  6  5  1  6
  6  8  1  0
  7  6  1  0
  8  9  1  6
  8 10  1  0
 10 19  1  0
 11 10  2  0
 12 13  1  0
 13 23  2  0
 14 13  1  0
 14 15  2  0
 15 16  1  0
 16 22  2  0
 16 17  1  0
 18 20  1  0
 18 17  1  6
 19 18  1  0
 20 24  1  0
 21 20  2  0
 23 22  1  0
M  END
$$$$
