AVH.pdb
     RDKit          3D

 23 23  0  0  1  0  0  0  0  0999 V2000
    7.9399  -18.2566   16.6396 C   0  0  0  0  0  0  0  0  0  0  0  0
    8.0890  -16.7772   16.3927 C   0  0  2  0  0  0  0  0  0  0  0  0
    8.9424  -16.4790   15.2544 N   0  0  0  0  0  0  0  0  0  0  0  0
    8.7033  -16.1069   17.5746 C   0  0  0  0  0  0  0  0  0  0  0  0
    9.9557  -16.0995   17.6653 O   0  0  0  0  0  0  0  0  0  0  0  0
    7.5856  -12.7046   19.1849 C   0  0  0  0  0  0  0  0  0  0  0  0
    7.6686  -13.8106   20.2518 C   0  0  2  0  0  0  0  0  0  0  0  0
    8.0999  -13.1025   21.5111 C   0  0  0  0  0  0  0  0  0  0  0  0
    8.5899  -14.8696   19.7607 C   0  0  2  0  0  0  0  0  0  0  0  0
    7.9800  -15.4771   18.6036 N   0  0  0  0  0  0  0  0  0  0  0  0
    9.0777  -15.8345   20.7493 C   0  0  0  0  0  0  0  0  0  0  0  0
    8.2616  -16.6902   21.2484 O   0  0  0  0  0  0  0  0  0  0  0  0
   10.4080  -15.9097   21.2168 N   0  0  0  0  0  0  0  0  0  0  0  0
   10.8049  -16.9758   22.0945 C   0  0  1  0  0  0  0  0  0  0  0  0
   12.0955  -17.6526   21.7022 C   0  0  0  0  0  0  0  0  0  0  0  0
   11.9950  -18.3971   20.4365 C   0  0  0  0  0  0  0  0  0  0  0  0
   10.9338  -19.1494   20.0092 C   0  0  0  0  0  0  0  0  0  0  0  0
   11.2006  -19.6804   18.7833 N   0  0  0  0  0  0  0  0  0  0  0  0
   12.4339  -19.2469   18.4645 C   0  0  0  0  0  0  0  0  0  0  0  0
   12.9028  -18.4707   19.4767 N   0  0  0  0  0  0  0  0  0  0  0  0
   11.0155  -16.4322   23.4539 C   0  0  0  0  0  0  0  0  0  0  0  0
   10.9427  -15.2118   23.6514 O   0  0  0  0  0  0  0  0  0  0  0  0
   11.2928  -17.2931   24.4857 O   0  0  0  0  0  0  0  0  0  0  0  0
  2  1  1  1
  2  4  1  0
  2  3  1  0
  4  5  2  0
  7  6  1  6
  7  9  1  0
  8  7  1  0
  9 11  1  0
  9 10  1  6
 10  4  1  0
 11 12  2  0
 13 11  1  0
 13 14  1  0
 14 21  1  0
 15 16  1  0
 14 15  1  6
 16 20  1  0
 17 18  1  0
 17 16  2  0
 18 19  1  0
 19 20  2  0
 21 22  2  0
 21 23  1  0
M  END
$$$$
