AVH.pdb
     RDKit          3D

 23 23  0  0  1  0  0  0  0  0999 V2000
    7.5726  -13.0595   20.1164 C   0  0  0  0  0  0  0  0  0  0  0  0
    7.3115  -14.2604   20.9889 C   0  0  2  0  0  0  0  0  0  0  0  0
    5.8942  -14.5286   21.1694 N   0  0  0  0  0  0  0  0  0  0  0  0
    7.8842  -14.0548   22.3503 C   0  0  0  0  0  0  0  0  0  0  0  0
    9.1252  -13.8929   22.4514 O   0  0  0  0  0  0  0  0  0  0  0  0
    6.4919  -11.7153   24.9737 C   0  0  0  0  0  0  0  0  0  0  0  0
    6.7328  -13.0697   25.6634 C   0  0  2  0  0  0  0  0  0  0  0  0
    7.1816  -12.7190   27.0595 C   0  0  0  0  0  0  0  0  0  0  0  0
    7.7065  -13.8452   24.8498 C   0  0  2  0  0  0  0  0  0  0  0  0
    7.1329  -14.0281   23.5393 N   0  0  0  0  0  0  0  0  0  0  0  0
    8.2341  -15.0764   25.4432 C   0  0  0  0  0  0  0  0  0  0  0  0
    7.4168  -15.9603   25.8882 O   0  0  0  0  0  0  0  0  0  0  0  0
    9.6054  -15.3874   25.5731 N   0  0  0  0  0  0  0  0  0  0  0  0
   10.0138  -16.7268   25.8951 C   0  0  1  0  0  0  0  0  0  0  0  0
   11.3160  -17.1470   25.2583 C   0  0  0  0  0  0  0  0  0  0  0  0
   11.7792  -18.4690   25.7104 C   0  0  0  0  0  0  0  0  0  0  0  0
   12.0812  -18.8377   26.9939 C   0  0  0  0  0  0  0  0  0  0  0  0
   12.4665  -20.1440   27.0268 N   0  0  0  0  0  0  0  0  0  0  0  0
   12.3978  -20.5711   25.7526 C   0  0  0  0  0  0  0  0  0  0  0  0
   11.9804  -19.5443   24.9662 N   0  0  0  0  0  0  0  0  0  0  0  0
   10.2101  -16.8361   27.3571 C   0  0  0  0  0  0  0  0  0  0  0  0
   10.5515  -15.8423   28.0124 O   0  0  0  0  0  0  0  0  0  0  0  0
   10.0121  -18.0463   27.9726 O   0  0  0  0  0  0  0  0  0  0  0  0
  2  1  1  6
  2  4  1  0
  2  3  1  0
  4  5  2  0
  7  6  1  6
  7  9  1  0
  8  7  1  0
  9 11  1  0
  9 10  1  6
 10  4  1  0
 11 12  2  0
 13 11  1  0
 13 14  1  0
 14 21  1  0
 15 16  1  0
 14 15  1  6
 16 20  1  0
 17 18  1  0
 17 16  2  0
 18 19  1  0
 19 20  2  0
 21 22  2  0
 21 23  1  0
M  END
$$$$
