AVH.pdb
     RDKit          3D

 23 23  0  0  1  0  0  0  0  0999 V2000
    7.1657  -18.4852   17.4862 C   0  0  0  0  0  0  0  0  0  0  0  0
    7.5600  -17.0645   17.1733 C   0  0  2  0  0  0  0  0  0  0  0  0
    8.5319  -16.9737   16.0960 N   0  0  0  0  0  0  0  0  0  0  0  0
    8.1810  -16.4174   18.3646 C   0  0  0  0  0  0  0  0  0  0  0  0
    9.3722  -16.7041   18.6395 O   0  0  0  0  0  0  0  0  0  0  0  0
    7.4655  -12.7304   19.4757 C   0  0  0  0  0  0  0  0  0  0  0  0
    7.3852  -13.6672   20.6940 C   0  0  2  0  0  0  0  0  0  0  0  0
    7.9250  -12.8546   21.8437 C   0  0  0  0  0  0  0  0  0  0  0  0
    8.1332  -14.9133   20.3791 C   0  0  2  0  0  0  0  0  0  0  0  0
    7.5277  -15.5026   19.2104 N   0  0  0  0  0  0  0  0  0  0  0  0
    8.3407  -15.8579   21.4796 C   0  0  0  0  0  0  0  0  0  0  0  0
    7.5985  -16.9019   21.5604 O   0  0  0  0  0  0  0  0  0  0  0  0
    9.3155  -15.7178   22.4916 N   0  0  0  0  0  0  0  0  0  0  0  0
   10.2278  -16.7929   22.7680 C   0  0  1  0  0  0  0  0  0  0  0  0
   11.0934  -17.1870   21.5963 C   0  0  0  0  0  0  0  0  0  0  0  0
   11.9453  -18.3545   21.8753 C   0  0  0  0  0  0  0  0  0  0  0  0
   11.9872  -19.0811   23.0350 C   0  0  0  0  0  0  0  0  0  0  0  0
   12.8900  -20.0948   22.9193 N   0  0  0  0  0  0  0  0  0  0  0  0
   13.4002  -19.9819   21.6792 C   0  0  0  0  0  0  0  0  0  0  0  0
   12.8183  -18.9220   21.0589 N   0  0  0  0  0  0  0  0  0  0  0  0
   11.1504  -16.3807   23.8482 C   0  0  0  0  0  0  0  0  0  0  0  0
   11.7988  -15.3309   23.7423 O   0  0  0  0  0  0  0  0  0  0  0  0
   11.2786  -17.1736   24.9607 O   0  0  0  0  0  0  0  0  0  0  0  0
  2  1  1  1
  2  4  1  0
  2  3  1  0
  4  5  2  0
  7  6  1  6
  7  9  1  0
  8  7  1  0
  9 11  1  0
  9 10  1  6
 10  4  1  0
 11 12  2  0
 13 11  1  0
 13 14  1  0
 14 21  1  0
 15 16  1  0
 14 15  1  6
 16 20  1  0
 17 18  1  0
 17 16  2  0
 18 19  1  0
 19 20  2  0
 21 22  2  0
 21 23  1  0
M  END
$$$$
