AVH.pdb
     RDKit          3D

 23 23  0  0  1  0  0  0  0  0999 V2000
    6.9900  -15.1393   20.5947 C   0  0  0  0  0  0  0  0  0  0  0  0
    7.0626  -13.6963   21.0240 C   0  0  2  0  0  0  0  0  0  0  0  0
    7.8893  -12.8873   20.1435 N   0  0  0  0  0  0  0  0  0  0  0  0
    7.6538  -13.5834   22.3882 C   0  0  0  0  0  0  0  0  0  0  0  0
    8.8977  -13.4407   22.4835 O   0  0  0  0  0  0  0  0  0  0  0  0
    6.4403  -11.4795   25.3113 C   0  0  0  0  0  0  0  0  0  0  0  0
    6.6031  -12.9223   25.8216 C   0  0  2  0  0  0  0  0  0  0  0  0
    7.0903  -12.7784   27.2413 C   0  0  0  0  0  0  0  0  0  0  0  0
    7.5154  -13.6476   24.8981 C   0  0  2  0  0  0  0  0  0  0  0  0
    6.9174  -13.6249   23.5860 N   0  0  0  0  0  0  0  0  0  0  0  0
    7.9679  -14.9754   25.3206 C   0  0  0  0  0  0  0  0  0  0  0  0
    7.1015  -15.9015   25.5179 O   0  0  0  0  0  0  0  0  0  0  0  0
    9.3151  -15.3389   25.5370 N   0  0  0  0  0  0  0  0  0  0  0  0
    9.6423  -16.6675   25.9754 C   0  0  1  0  0  0  0  0  0  0  0  0
   10.9673  -17.1791   25.4653 C   0  0  0  0  0  0  0  0  0  0  0  0
   11.0107  -17.3073   23.9996 C   0  0  0  0  0  0  0  0  0  0  0  0
    9.9397  -17.3494   23.1477 C   0  0  0  0  0  0  0  0  0  0  0  0
   10.3705  -17.4634   21.8603 N   0  0  0  0  0  0  0  0  0  0  0  0
   11.7139  -17.4911   21.9320 C   0  0  0  0  0  0  0  0  0  0  0  0
   12.0870  -17.3963   23.2353 N   0  0  0  0  0  0  0  0  0  0  0  0
    9.7293  -16.6836   27.4519 C   0  0  0  0  0  0  0  0  0  0  0  0
    9.6375  -15.6260   28.0896 O   0  0  0  0  0  0  0  0  0  0  0  0
    9.9143  -17.8785   28.1006 O   0  0  0  0  0  0  0  0  0  0  0  0
  2  1  1  6
  2  4  1  0
  2  3  1  0
  4  5  2  0
  7  6  1  6
  7  9  1  0
  8  7  1  0
  9 11  1  0
  9 10  1  6
 10  4  1  0
 11 12  2  0
 13 11  1  0
 13 14  1  0
 14 21  1  0
 15 16  1  0
 14 15  1  6
 16 20  1  0
 17 18  1  0
 17 16  2  0
 18 19  1  0
 19 20  2  0
 21 22  2  0
 21 23  1  0
M  END
$$$$
