AVH.pdb
     RDKit          3D

 23 23  0  0  1  0  0  0  0  0999 V2000
    7.4117  -18.9029   18.0316 C   0  0  0  0  0  0  0  0  0  0  0  0
    7.6035  -17.5351   17.4280 C   0  0  2  0  0  0  0  0  0  0  0  0
    8.3552  -17.5683   16.1843 N   0  0  0  0  0  0  0  0  0  0  0  0
    8.3595  -16.6509   18.3608 C   0  0  0  0  0  0  0  0  0  0  0  0
    9.6114  -16.7460   18.3814 O   0  0  0  0  0  0  0  0  0  0  0  0
    7.6300  -12.8740   19.2930 C   0  0  0  0  0  0  0  0  0  0  0  0
    7.7104  -13.7544   20.5527 C   0  0  2  0  0  0  0  0  0  0  0  0
    8.2980  -12.8591   21.6140 C   0  0  0  0  0  0  0  0  0  0  0  0
    8.5009  -14.9710   20.2264 C   0  0  2  0  0  0  0  0  0  0  0  0
    7.7714  -15.7107   19.2263 N   0  0  0  0  0  0  0  0  0  0  0  0
    8.9556  -15.7881   21.3542 C   0  0  0  0  0  0  0  0  0  0  0  0
    8.0978  -16.4690   22.0234 O   0  0  0  0  0  0  0  0  0  0  0  0
   10.2961  -15.8970   21.7843 N   0  0  0  0  0  0  0  0  0  0  0  0
   10.6536  -16.8527   22.7959 C   0  0  1  0  0  0  0  0  0  0  0  0
   11.9819  -17.5310   22.5650 C   0  0  0  0  0  0  0  0  0  0  0  0
   11.9848  -18.4062   21.3816 C   0  0  0  0  0  0  0  0  0  0  0  0
   11.0537  -19.3582   21.0629 C   0  0  0  0  0  0  0  0  0  0  0  0
   11.3848  -19.9608   19.8869 N   0  0  0  0  0  0  0  0  0  0  0  0
   12.5263  -19.3698   19.4890 C   0  0  0  0  0  0  0  0  0  0  0  0
   12.8779  -18.4301   20.4057 N   0  0  0  0  0  0  0  0  0  0  0  0
   10.7589  -16.1626   24.0999 C   0  0  0  0  0  0  0  0  0  0  0  0
   10.6857  -14.9276   24.1551 O   0  0  0  0  0  0  0  0  0  0  0  0
   10.9397  -16.9048   25.2397 O   0  0  0  0  0  0  0  0  0  0  0  0
  2  1  1  1
  2  4  1  0
  2  3  1  0
  4  5  2  0
  7  6  1  6
  7  9  1  0
  8  7  1  0
  9 11  1  0
  9 10  1  6
 10  4  1  0
 11 12  2  0
 13 11  1  0
 13 14  1  0
 14 21  1  0
 15 16  1  0
 14 15  1  6
 16 20  1  0
 17 18  1  0
 17 16  2  0
 18 19  1  0
 19 20  2  0
 21 22  2  0
 21 23  1  0
M  END
$$$$
