AVH.pdb
     RDKit          3D

 23 23  0  0  1  0  0  0  0  0999 V2000
    6.7065  -16.3960   21.6881 C   0  0  0  0  0  0  0  0  0  0  0  0
    7.0995  -14.9409   21.6765 C   0  0  2  0  0  0  0  0  0  0  0  0
    7.9858  -14.6053   20.5742 N   0  0  0  0  0  0  0  0  0  0  0  0
    7.8224  -14.5822   22.9304 C   0  0  0  0  0  0  0  0  0  0  0  0
    9.0469  -14.8505   23.0044 O   0  0  0  0  0  0  0  0  0  0  0  0
    7.9503  -12.1174   27.1939 C   0  0  0  0  0  0  0  0  0  0  0  0
    7.1408  -12.6010   25.9777 C   0  0  2  0  0  0  0  0  0  0  0  0
    5.8375  -13.0961   26.5518 C   0  0  0  0  0  0  0  0  0  0  0  0
    7.9488  -13.6135   25.2475 C   0  0  2  0  0  0  0  0  0  0  0  0
    7.2314  -13.9609   24.0456 N   0  0  0  0  0  0  0  0  0  0  0  0
    8.4131  -14.7710   26.0163 C   0  0  0  0  0  0  0  0  0  0  0  0
    7.5813  -15.7016   26.3156 O   0  0  0  0  0  0  0  0  0  0  0  0
    9.7361  -14.9603   26.4719 N   0  0  0  0  0  0  0  0  0  0  0  0
   10.0940  -16.1655   27.1675 C   0  0  1  0  0  0  0  0  0  0  0  0
   11.3860  -16.7898   26.6999 C   0  0  0  0  0  0  0  0  0  0  0  0
   11.3701  -17.1482   25.2723 C   0  0  0  0  0  0  0  0  0  0  0  0
   10.4285  -17.9038   24.6266 C   0  0  0  0  0  0  0  0  0  0  0  0
   10.7430  -18.0140   23.3056 N   0  0  0  0  0  0  0  0  0  0  0  0
   11.8850  -17.3198   23.1489 C   0  0  0  0  0  0  0  0  0  0  0  0
   12.2531  -16.8014   24.3500 N   0  0  0  0  0  0  0  0  0  0  0  0
   10.2735  -15.8618   28.6039 C   0  0  0  0  0  0  0  0  0  0  0  0
   10.2319  -14.6889   28.9992 O   0  0  0  0  0  0  0  0  0  0  0  0
   10.4875  -16.8906   29.4861 O   0  0  0  0  0  0  0  0  0  0  0  0
  2  1  1  1
  2  4  1  0
  2  3  1  0
  4  5  2  0
  7  6  1  1
  7  9  1  0
  8  7  1  0
  9 11  1  0
  9 10  1  6
 10  4  1  0
 11 12  2  0
 13 11  1  0
 13 14  1  0
 14 21  1  0
 15 16  1  0
 14 15  1  6
 16 20  1  0
 17 18  1  0
 17 16  2  0
 18 19  1  0
 19 20  2  0
 21 22  2  0
 21 23  1  0
M  END
$$$$
