KRW.pdb
     RDKit          3D

 35 36  0  0  1  0  0  0  0  0999 V2000
    8.2973  -19.1446   20.5985 N   0  0  0  0  0  0  0  0  0  0  0  0
    9.7436  -19.0841   20.6342 C   0  0  1  0  0  0  0  0  0  0  0  0
   10.3426  -19.5156   19.3367 C   0  0  0  0  0  0  0  0  0  0  0  0
    9.5847  -20.7692   18.9062 C   0  0  0  0  0  0  0  0  0  0  0  0
   10.2524  -22.0291   19.3922 C   0  0  0  0  0  0  0  0  0  0  0  0
    9.5478  -23.2842   18.9673 C   0  0  0  0  0  0  0  0  0  0  0  0
   10.2864  -24.4023   19.5661 N   0  0  0  0  0  0  0  0  0  0  0  0
   10.1079  -17.7132   21.0541 C   0  0  0  0  0  0  0  0  0  0  0  0
   11.2893  -17.2706   21.0294 O   0  0  0  0  0  0  0  0  0  0  0  0
    7.0854  -15.0314   17.1497 N   0  0  0  0  0  0  0  0  0  0  0  0
    7.8173  -13.8375   16.8587 C   0  0  0  0  0  0  0  0  0  0  0  0
    8.2005  -13.5426   15.6630 N   0  0  0  0  0  0  0  0  0  0  0  0
    8.1658  -12.8985   17.8856 N   0  0  0  0  0  0  0  0  0  0  0  0
    7.8667  -13.1765   19.2639 C   0  0  0  0  0  0  0  0  0  0  0  0
    8.7632  -14.1608   19.9296 C   0  0  0  0  0  0  0  0  0  0  0  0
    8.5035  -14.4505   21.3704 C   0  0  0  0  0  0  0  0  0  0  0  0
    9.3336  -15.4879   22.0059 C   0  0  2  0  0  0  0  0  0  0  0  0
    9.1172  -16.8265   21.5104 N   0  0  0  0  0  0  0  0  0  0  0  0
    9.4110  -15.4424   23.4791 C   0  0  0  0  0  0  0  0  0  0  0  0
    9.5936  -14.3217   24.0152 O   0  0  0  0  0  0  0  0  0  0  0  0
    8.7250  -12.6491   15.5327 N   0  0  0  0  0  0  0  0  0  0  0  0
    9.2950  -16.5721   24.3164 C   0  0  1  0  0  0  0  0  0  0  0  0
    9.5533  -16.5715   25.7382 C   0  0  0  0  0  0  0  0  0  0  0  0
    8.2920  -16.5394   26.5675 C   0  0  0  0  0  0  0  0  0  0  0  0
    7.4235  -15.4081   26.2451 C   0  0  0  0  0  0  0  0  0  0  0  0
    6.1980  -15.4999   25.6101 N   0  0  0  0  0  0  0  0  0  0  0  0
    5.6602  -14.2936   25.4688 C   0  0  0  0  0  0  0  0  0  0  0  0
    6.4825  -13.3659   25.9900 C   0  0  0  0  0  0  0  0  0  0  0  0
    6.3934  -12.0076   26.0942 C   0  0  0  0  0  0  0  0  0  0  0  0
    7.4345  -11.3285   26.6999 C   0  0  0  0  0  0  0  0  0  0  0  0
    8.5216  -11.9968   27.1803 C   0  0  0  0  0  0  0  0  0  0  0  0
    8.6274  -13.3602   27.0839 C   0  0  0  0  0  0  0  0  0  0  0  0
    7.5903  -14.0474   26.4797 C   0  0  0  0  0  0  0  0  0  0  0  0
   10.4265  -17.7160   26.1018 O   0  0  0  0  0  0  0  0  0  0  0  0
   10.7623  -17.8552   27.3054 O   0  0  0  0  0  0  0  0  0  0  0  0
  2  1  1  6
  2  3  1  0
  3  4  1  0
  5  6  1  0
  5  4  1  0
  7  6  1  0
  8  2  1  0
  8  9  2  0
 10 11  1  0
 11 13  1  0
 12 11  2  0
 13 14  1  0
 14 15  1  0
 15 16  1  0
 17 16  1  1
 17 18  1  0
 18  8  1  0
 19 17  1  0
 19 21  1  0
 20 19  2  0
 22 21  1  0
 22 33  1  0
 22 23  1  1
 24 23  1  0
 24 25  2  0
 26 25  1  0
 27 32  2  0
 27 26  1  0
 28 27  1  0
 29 30  1  0
 29 28  2  0
 30 31  2  0
 31 32  1  0
 32 24  1  0
 33 34  2  0
 33 35  1  0
M  END
$$$$
