KRW.pdb
     RDKit          3D

 35 36  0  0  1  0  0  0  0  0999 V2000
    9.2522  -20.3018   21.0064 N   0  0  0  0  0  0  0  0  0  0  0  0
   10.6016  -20.1596   20.5009 C   0  0  1  0  0  0  0  0  0  0  0  0
   10.7309  -20.7119   19.1201 C   0  0  0  0  0  0  0  0  0  0  0  0
   10.0892  -22.0970   19.1464 C   0  0  0  0  0  0  0  0  0  0  0  0
   10.1772  -22.7870   17.8102 C   0  0  0  0  0  0  0  0  0  0  0  0
    9.4825  -24.1168   17.7743 C   0  0  0  0  0  0  0  0  0  0  0  0
    9.6017  -24.6146   16.3988 N   0  0  0  0  0  0  0  0  0  0  0  0
   10.9616  -18.7304   20.6279 C   0  0  0  0  0  0  0  0  0  0  0  0
   12.0414  -18.2451   20.1911 O   0  0  0  0  0  0  0  0  0  0  0  0
    8.3479  -12.3447   18.5114 N   0  0  0  0  0  0  0  0  0  0  0  0
    8.1738  -13.2986   17.4601 C   0  0  0  0  0  0  0  0  0  0  0  0
    8.4683  -13.0286   16.2337 N   0  0  0  0  0  0  0  0  0  0  0  0
    7.6604  -14.6138   17.7137 N   0  0  0  0  0  0  0  0  0  0  0  0
    7.6822  -15.1647   19.0413 C   0  0  0  0  0  0  0  0  0  0  0  0
    8.9340  -14.9326   19.8124 C   0  0  0  0  0  0  0  0  0  0  0  0
    9.0500  -15.6068   21.1388 C   0  0  0  0  0  0  0  0  0  0  0  0
   10.2632  -16.4060   21.3809 C   0  0  2  0  0  0  0  0  0  0  0  0
   10.0838  -17.8335   21.2610 N   0  0  0  0  0  0  0  0  0  0  0  0
   11.0525  -16.0396   22.5730 C   0  0  0  0  0  0  0  0  0  0  0  0
   11.8189  -15.0494   22.4784 O   0  0  0  0  0  0  0  0  0  0  0  0
    8.3721  -13.7989   15.5352 N   0  0  0  0  0  0  0  0  0  0  0  0
   11.0010  -16.7289   23.8030 C   0  0  1  0  0  0  0  0  0  0  0  0
   10.4442  -16.1920   25.0236 C   0  0  0  0  0  0  0  0  0  0  0  0
    9.0431  -15.6572   24.8483 C   0  0  0  0  0  0  0  0  0  0  0  0
    8.5802  -14.8776   25.9955 C   0  0  0  0  0  0  0  0  0  0  0  0
    9.0482  -15.0107   27.2904 N   0  0  0  0  0  0  0  0  0  0  0  0
    8.4276  -14.1554   28.0953 C   0  0  0  0  0  0  0  0  0  0  0  0
    7.5398  -13.4315   27.3910 C   0  0  0  0  0  0  0  0  0  0  0  0
    6.6695  -12.4408   27.7442 C   0  0  0  0  0  0  0  0  0  0  0  0
    5.8738  -11.8870   26.7582 C   0  0  0  0  0  0  0  0  0  0  0  0
    5.9553  -12.3186   25.4674 C   0  0  0  0  0  0  0  0  0  0  0  0
    6.8234  -13.3124   25.0953 C   0  0  0  0  0  0  0  0  0  0  0  0
    7.6232  -13.8715   26.0753 C   0  0  0  0  0  0  0  0  0  0  0  0
   10.5202  -17.2011   26.1100 O   0  0  0  0  0  0  0  0  0  0  0  0
   10.1533  -18.3778   25.8621 O   0  0  0  0  0  0  0  0  0  0  0  0
  2  1  1  6
  2  3  1  0
  3  4  1  0
  5  6  1  0
  5  4  1  0
  7  6  1  0
  8  2  1  0
  8  9  2  0
 10 11  1  0
 11 13  1  0
 12 11  2  0
 13 14  1  0
 14 15  1  0
 15 16  1  0
 17 16  1  1
 17 18  1  0
 18  8  1  0
 19 17  1  0
 19 21  1  0
 20 19  2  0
 22 21  1  0
 22 33  1  0
 22 23  1  1
 24 23  1  0
 24 25  2  0
 26 25  1  0
 27 32  2  0
 27 26  1  0
 28 27  1  0
 29 30  1  0
 29 28  2  0
 30 31  2  0
 31 32  1  0
 32 24  1  0
 33 34  2  0
 33 35  1  0
M  END
$$$$
