KRW.pdb
     RDKit          3D

 35 36  0  0  1  0  0  0  0  0999 V2000
    8.2637  -20.2165   20.1807 N   0  0  0  0  0  0  0  0  0  0  0  0
    7.5724  -19.2620   21.0220 C   0  0  1  0  0  0  0  0  0  0  0  0
    7.1864  -19.8646   22.3321 C   0  0  0  0  0  0  0  0  0  0  0  0
    7.8968  -21.2136   22.4138 C   0  0  0  0  0  0  0  0  0  0  0  0
    8.7158  -21.3467   23.6712 C   0  0  0  0  0  0  0  0  0  0  0  0
    9.4322  -22.6605   23.7846 C   0  0  0  0  0  0  0  0  0  0  0  0
    9.0648  -23.2266   25.0880 N   0  0  0  0  0  0  0  0  0  0  0  0
    8.4415  -18.0694   21.1258 C   0  0  0  0  0  0  0  0  0  0  0  0
    9.6616  -18.0695   20.8040 O   0  0  0  0  0  0  0  0  0  0  0  0
    7.9917  -15.1762   17.3993 N   0  0  0  0  0  0  0  0  0  0  0  0
    8.3905  -13.8210   17.1762 C   0  0  0  0  0  0  0  0  0  0  0  0
    8.5932  -13.3522   15.9918 N   0  0  0  0  0  0  0  0  0  0  0  0
    8.5869  -12.9050   18.2625 N   0  0  0  0  0  0  0  0  0  0  0  0
    7.6753  -12.8810   19.3738 C   0  0  0  0  0  0  0  0  0  0  0  0
    7.3789  -14.2031   19.9898 C   0  0  0  0  0  0  0  0  0  0  0  0
    7.8120  -14.4065   21.4035 C   0  0  0  0  0  0  0  0  0  0  0  0
    8.6281  -15.5986   21.6898 C   0  0  2  0  0  0  0  0  0  0  0  0
    7.9205  -16.8540   21.6026 N   0  0  0  0  0  0  0  0  0  0  0  0
    9.4869  -15.5226   22.8877 C   0  0  0  0  0  0  0  0  0  0  0  0
   10.2955  -14.5647   22.9609 O   0  0  0  0  0  0  0  0  0  0  0  0
    8.9301  -12.3668   15.9158 N   0  0  0  0  0  0  0  0  0  0  0  0
    9.4573  -16.4537   23.9473 C   0  0  1  0  0  0  0  0  0  0  0  0
   10.2574  -16.3596   25.1470 C   0  0  0  0  0  0  0  0  0  0  0  0
    9.9108  -15.1595   25.9953 C   0  0  0  0  0  0  0  0  0  0  0  0
    8.4747  -14.8892   26.0451 C   0  0  0  0  0  0  0  0  0  0  0  0
    7.4795  -15.8313   25.8569 N   0  0  0  0  0  0  0  0  0  0  0  0
    6.2824  -15.2666   25.9693 C   0  0  0  0  0  0  0  0  0  0  0  0
    6.4220  -13.9549   26.2308 C   0  0  0  0  0  0  0  0  0  0  0  0
    5.5171  -12.9524   26.4307 C   0  0  0  0  0  0  0  0  0  0  0  0
    5.9959  -11.6803   26.6847 C   0  0  0  0  0  0  0  0  0  0  0  0
    7.3359  -11.4329   26.7342 C   0  0  0  0  0  0  0  0  0  0  0  0
    8.2582  -12.4277   26.5357 C   0  0  0  0  0  0  0  0  0  0  0  0
    7.7878  -13.7031   26.2813 C   0  0  0  0  0  0  0  0  0  0  0  0
   10.1766  -17.6255   25.9186 O   0  0  0  0  0  0  0  0  0  0  0  0
    9.3896  -18.5214   25.5203 O   0  0  0  0  0  0  0  0  0  0  0  0
  2  1  1  6
  2  3  1  0
  3  4  1  0
  5  6  1  0
  5  4  1  0
  7  6  1  0
  8  2  1  0
  8  9  2  0
 10 11  1  0
 11 13  1  0
 12 11  2  0
 13 14  1  0
 14 15  1  0
 15 16  1  0
 17 16  1  1
 17 18  1  0
 18  8  1  0
 19 17  1  0
 19 21  1  0
 20 19  2  0
 22 21  1  0
 22 33  1  0
 22 23  1  1
 24 23  1  0
 24 25  2  0
 26 25  1  0
 27 32  2  0
 27 26  1  0
 28 27  1  0
 29 30  1  0
 29 28  2  0
 30 31  2  0
 31 32  1  0
 32 24  1  0
 33 34  2  0
 33 35  1  0
M  END
$$$$
