KRW.pdb
     RDKit          3D

 35 36  0  0  1  0  0  0  0  0999 V2000
    7.7035  -19.7266   21.9779 N   0  0  0  0  0  0  0  0  0  0  0  0
    8.5482  -19.6419   20.8049 C   0  0  1  0  0  0  0  0  0  0  0  0
    8.0320  -20.4960   19.6947 C   0  0  0  0  0  0  0  0  0  0  0  0
    7.9297  -21.9139   20.2515 C   0  0  0  0  0  0  0  0  0  0  0  0
    8.2866  -22.9536   19.2214 C   0  0  0  0  0  0  0  0  0  0  0  0
    8.2034  -24.3611   19.7353 C   0  0  0  0  0  0  0  0  0  0  0  0
    8.5647  -25.2380   18.6152 N   0  0  0  0  0  0  0  0  0  0  0  0
    8.6766  -18.2071   20.4683 C   0  0  0  0  0  0  0  0  0  0  0  0
    9.3198  -17.7834   19.4688 O   0  0  0  0  0  0  0  0  0  0  0  0
    7.4199  -12.7740   16.6633 N   0  0  0  0  0  0  0  0  0  0  0  0
    8.3147  -13.7996   17.1026 C   0  0  0  0  0  0  0  0  0  0  0  0
    9.0354  -14.4801   16.2774 N   0  0  0  0  0  0  0  0  0  0  0  0
    8.4605  -14.1280   18.4913 N   0  0  0  0  0  0  0  0  0  0  0  0
    8.3213  -13.1150   19.5017 C   0  0  0  0  0  0  0  0  0  0  0  0
    7.5205  -13.5037   20.6947 C   0  0  0  0  0  0  0  0  0  0  0  0
    7.2316  -14.9567   20.8752 C   0  0  0  0  0  0  0  0  0  0  0  0
    8.3562  -15.8191   21.2761 C   0  0  2  0  0  0  0  0  0  0  0  0
    8.0661  -17.2334   21.2777 N   0  0  0  0  0  0  0  0  0  0  0  0
    9.0964  -15.3987   22.4818 C   0  0  0  0  0  0  0  0  0  0  0  0
    9.7640  -14.3374   22.4109 O   0  0  0  0  0  0  0  0  0  0  0  0
    9.7176  -15.1595   16.6818 N   0  0  0  0  0  0  0  0  0  0  0  0
    9.1021  -16.1108   23.6997 C   0  0  1  0  0  0  0  0  0  0  0  0
    9.9315  -15.7865   24.8378 C   0  0  0  0  0  0  0  0  0  0  0  0
    9.1658  -15.7632   26.1390 C   0  0  0  0  0  0  0  0  0  0  0  0
    7.9682  -14.9262   26.0836 C   0  0  0  0  0  0  0  0  0  0  0  0
    6.6808  -15.3896   25.8800 N   0  0  0  0  0  0  0  0  0  0  0  0
    5.8199  -14.3780   25.8875 C   0  0  0  0  0  0  0  0  0  0  0  0
    6.4780  -13.2231   26.0910 C   0  0  0  0  0  0  0  0  0  0  0  0
    6.0604  -11.9266   26.1822 C   0  0  0  0  0  0  0  0  0  0  0  0
    7.0113  -10.9471   26.4019 C   0  0  0  0  0  0  0  0  0  0  0  0
    8.3312  -11.2667   26.5240 C   0  0  0  0  0  0  0  0  0  0  0  0
    8.7679  -12.5632   26.4350 C   0  0  0  0  0  0  0  0  0  0  0  0
    7.8232  -13.5492   26.2156 C   0  0  0  0  0  0  0  0  0  0  0  0
   11.0998  -16.7007   24.8987 O   0  0  0  0  0  0  0  0  0  0  0  0
   11.9633  -16.5113   25.7927 O   0  0  0  0  0  0  0  0  0  0  0  0
  2  1  1  1
  2  3  1  0
  3  4  1  0
  5  6  1  0
  5  4  1  0
  7  6  1  0
  8  2  1  0
  8  9  2  0
 10 11  1  0
 11 13  1  0
 12 11  2  0
 13 14  1  0
 14 15  1  0
 15 16  1  0
 17 16  1  1
 17 18  1  0
 18  8  1  0
 19 17  1  0
 19 21  1  0
 20 19  2  0
 22 21  1  0
 22 33  1  0
 22 23  1  1
 24 23  1  0
 24 25  2  0
 26 25  1  0
 27 32  2  0
 27 26  1  0
 28 27  1  0
 29 30  1  0
 29 28  2  0
 30 31  2  0
 31 32  1  0
 32 24  1  0
 33 34  2  0
 33 35  1  0
M  END
$$$$
