KRW.pdb
     RDKit          3D

 35 36  0  0  1  0  0  0  0  0999 V2000
   11.5712  -20.6597   20.5258 N   0  0  0  0  0  0  0  0  0  0  0  0
   12.6750  -19.9240   19.9451 C   0  0  1  0  0  0  0  0  0  0  0  0
   12.8969  -20.3037   18.5186 C   0  0  0  0  0  0  0  0  0  0  0  0
   11.5234  -20.3025   17.8519 C   0  0  0  0  0  0  0  0  0  0  0  0
   11.5987  -20.6970   16.4000 C   0  0  0  0  0  0  0  0  0  0  0  0
   10.2641  -20.7188   15.7139 C   0  0  0  0  0  0  0  0  0  0  0  0
   10.5245  -21.0182   14.3008 N   0  0  0  0  0  0  0  0  0  0  0  0
   12.3982  -18.4873   20.1632 C   0  0  0  0  0  0  0  0  0  0  0  0
   12.8264  -17.5748   19.4040 O   0  0  0  0  0  0  0  0  0  0  0  0
    7.8646  -11.8547   19.4950 N   0  0  0  0  0  0  0  0  0  0  0  0
    8.0086  -12.9947   18.6434 C   0  0  0  0  0  0  0  0  0  0  0  0
    8.1177  -12.8845   17.3630 N   0  0  0  0  0  0  0  0  0  0  0  0
    8.0405  -14.3288   19.1696 N   0  0  0  0  0  0  0  0  0  0  0  0
    8.1375  -14.5550   20.5859 C   0  0  0  0  0  0  0  0  0  0  0  0
    9.4912  -14.9182   21.0870 C   0  0  0  0  0  0  0  0  0  0  0  0
    9.8898  -16.3530   20.9887 C   0  0  0  0  0  0  0  0  0  0  0  0
   11.2009  -16.7244   21.5476 C   0  0  2  0  0  0  0  0  0  0  0  0
   11.6225  -18.0750   21.2606 N   0  0  0  0  0  0  0  0  0  0  0  0
   11.4319  -16.3539   22.9574 C   0  0  0  0  0  0  0  0  0  0  0  0
   12.2438  -15.4237   23.1862 O   0  0  0  0  0  0  0  0  0  0  0  0
    8.2318  -13.7645   16.8125 N   0  0  0  0  0  0  0  0  0  0  0  0
   10.8032  -16.9766   24.0563 C   0  0  1  0  0  0  0  0  0  0  0  0
   10.2336  -16.2746   25.1837 C   0  0  0  0  0  0  0  0  0  0  0  0
    9.1958  -15.2544   24.7811 C   0  0  0  0  0  0  0  0  0  0  0  0
    8.6628  -14.5017   25.9157 C   0  0  0  0  0  0  0  0  0  0  0  0
    9.0747  -14.6413   27.2288 N   0  0  0  0  0  0  0  0  0  0  0  0
    8.3978  -13.8120   28.0153 C   0  0  0  0  0  0  0  0  0  0  0  0
    7.5254  -13.0998   27.2803 C   0  0  0  0  0  0  0  0  0  0  0  0
    6.6163  -12.1348   27.6059 C   0  0  0  0  0  0  0  0  0  0  0  0
    5.8528  -11.5867   26.5917 C   0  0  0  0  0  0  0  0  0  0  0  0
    6.0032  -11.9986   25.3006 C   0  0  0  0  0  0  0  0  0  0  0  0
    6.9110  -12.9664   24.9561 C   0  0  0  0  0  0  0  0  0  0  0  0
    7.6790  -13.5197   25.9644 C   0  0  0  0  0  0  0  0  0  0  0  0
    9.7028  -17.2428   26.1764 O   0  0  0  0  0  0  0  0  0  0  0  0
    9.0667  -18.2431   25.7575 O   0  0  0  0  0  0  0  0  0  0  0  0
  2  1  1  6
  2  3  1  0
  3  4  1  0
  5  6  1  0
  5  4  1  0
  7  6  1  0
  8  2  1  0
  8  9  2  0
 10 11  1  0
 11 13  1  0
 12 11  2  0
 13 14  1  0
 14 15  1  0
 15 16  1  0
 17 16  1  1
 17 18  1  0
 18  8  1  0
 19 17  1  0
 19 21  1  0
 20 19  2  0
 22 21  1  0
 22 33  1  0
 22 23  1  1
 24 23  1  0
 24 25  2  0
 26 25  1  0
 27 32  2  0
 27 26  1  0
 28 27  1  0
 29 30  1  0
 29 28  2  0
 30 31  2  0
 31 32  1  0
 32 24  1  0
 33 34  2  0
 33 35  1  0
M  END
$$$$
