KRW.pdb
     RDKit          3D

 35 36  0  0  1  0  0  0  0  0999 V2000
    9.9594  -13.5348   19.8413 N   0  0  0  0  0  0  0  0  0  0  0  0
    8.6701  -13.7736   20.4557 C   0  0  1  0  0  0  0  0  0  0  0  0
    7.6054  -13.9861   19.4312 C   0  0  0  0  0  0  0  0  0  0  0  0
    8.3181  -14.4025   18.1468 C   0  0  0  0  0  0  0  0  0  0  0  0
    7.3579  -14.5837   17.0001 C   0  0  0  0  0  0  0  0  0  0  0  0
    8.0116  -15.0757   15.7419 C   0  0  0  0  0  0  0  0  0  0  0  0
    6.9541  -15.1652   14.7281 N   0  0  0  0  0  0  0  0  0  0  0  0
    8.8449  -14.8962   21.4031 C   0  0  0  0  0  0  0  0  0  0  0  0
    7.8905  -15.4237   22.0380 O   0  0  0  0  0  0  0  0  0  0  0  0
   10.0673  -17.9062   18.0684 N   0  0  0  0  0  0  0  0  0  0  0  0
   11.3606  -18.3654   17.6660 C   0  0  0  0  0  0  0  0  0  0  0  0
   11.7250  -18.3900   16.4290 N   0  0  0  0  0  0  0  0  0  0  0  0
   12.3275  -18.8249   18.6207 N   0  0  0  0  0  0  0  0  0  0  0  0
   12.0452  -18.7774   20.0295 C   0  0  0  0  0  0  0  0  0  0  0  0
   11.9184  -17.4141   20.6133 C   0  0  0  0  0  0  0  0  0  0  0  0
   11.6289  -17.3249   22.0747 C   0  0  0  0  0  0  0  0  0  0  0  0
   10.4326  -16.5653   22.4760 C   0  0  2  0  0  0  0  0  0  0  0  0
   10.1233  -15.4320   21.6368 N   0  0  0  0  0  0  0  0  0  0  0  0
   10.3213  -16.2446   23.9123 C   0  0  0  0  0  0  0  0  0  0  0  0
   11.0095  -15.2887   24.3474 O   0  0  0  0  0  0  0  0  0  0  0  0
   12.6924  -18.7227   16.2191 N   0  0  0  0  0  0  0  0  0  0  0  0
    9.4968  -16.9414   24.8208 C   0  0  1  0  0  0  0  0  0  0  0  0
    9.5381  -16.7830   26.2565 C   0  0  0  0  0  0  0  0  0  0  0  0
    8.2157  -16.3475   26.8409 C   0  0  0  0  0  0  0  0  0  0  0  0
    7.5888  -15.2600   26.0911 C   0  0  0  0  0  0  0  0  0  0  0  0
    7.0723  -15.3680   24.8124 N   0  0  0  0  0  0  0  0  0  0  0  0
    6.5710  -14.2030   24.4175 C   0  0  0  0  0  0  0  0  0  0  0  0
    6.7270  -13.2882   25.3908 C   0  0  0  0  0  0  0  0  0  0  0  0
    6.3888  -11.9686   25.4798 C   0  0  0  0  0  0  0  0  0  0  0  0
    6.6951  -11.2922   26.6463 C   0  0  0  0  0  0  0  0  0  0  0  0
    7.3186  -11.9256   27.6804 C   0  0  0  0  0  0  0  0  0  0  0  0
    7.6654  -13.2499   27.6078 C   0  0  0  0  0  0  0  0  0  0  0  0
    7.3623  -13.9341   26.4447 C   0  0  0  0  0  0  0  0  0  0  0  0
   10.0445  -18.0238   26.8956 O   0  0  0  0  0  0  0  0  0  0  0  0
   10.1416  -18.0563   28.1487 O   0  0  0  0  0  0  0  0  0  0  0  0
  2  1  1  6
  2  3  1  0
  3  4  1  0
  5  6  1  0
  5  4  1  0
  7  6  1  0
  8  2  1  0
  8  9  2  0
 10 11  1  0
 11 13  1  0
 12 11  2  0
 13 14  1  0
 14 15  1  0
 15 16  1  0
 17 16  1  1
 17 18  1  0
 18  8  1  0
 19 17  1  0
 19 21  1  0
 20 19  2  0
 22 21  1  0
 22 33  1  0
 22 23  1  1
 24 23  1  0
 24 25  2  0
 26 25  1  0
 27 32  2  0
 27 26  1  0
 28 27  1  0
 29 30  1  0
 29 28  2  0
 30 31  2  0
 31 32  1  0
 32 24  1  0
 33 34  2  0
 33 35  1  0
M  END
$$$$
