KRW.pdb
     RDKit          3D

 35 36  0  0  1  0  0  0  0  0999 V2000
    9.5067  -16.4021   17.5117 N   0  0  0  0  0  0  0  0  0  0  0  0
    9.3147  -15.3886   18.5280 C   0  0  1  0  0  0  0  0  0  0  0  0
    8.4181  -14.2952   18.0494 C   0  0  0  0  0  0  0  0  0  0  0  0
    8.3574  -14.4199   16.5290 C   0  0  0  0  0  0  0  0  0  0  0  0
    7.7379  -13.2066   15.8859 C   0  0  0  0  0  0  0  0  0  0  0  0
    7.5599  -13.3389   14.4016 C   0  0  0  0  0  0  0  0  0  0  0  0
    6.9599  -12.0822   13.9381 N   0  0  0  0  0  0  0  0  0  0  0  0
    8.8422  -16.0828   19.7458 C   0  0  0  0  0  0  0  0  0  0  0  0
    7.8375  -16.8460   19.7641 O   0  0  0  0  0  0  0  0  0  0  0  0
   10.5253  -21.2380   24.9153 N   0  0  0  0  0  0  0  0  0  0  0  0
    9.5905  -21.8452   24.0192 C   0  0  0  0  0  0  0  0  0  0  0  0
    8.7455  -22.7374   24.4112 N   0  0  0  0  0  0  0  0  0  0  0  0
    9.5411  -21.4928   22.6296 N   0  0  0  0  0  0  0  0  0  0  0  0
   10.5648  -20.6692   22.0464 C   0  0  0  0  0  0  0  0  0  0  0  0
   10.5717  -19.2467   22.4845 C   0  0  0  0  0  0  0  0  0  0  0  0
   10.1844  -18.2217   21.4713 C   0  0  0  0  0  0  0  0  0  0  0  0
    9.7215  -16.9188   21.9786 C   0  0  2  0  0  0  0  0  0  0  0  0
    9.5188  -15.9102   20.9658 N   0  0  0  0  0  0  0  0  0  0  0  0
   10.4368  -16.3921   23.1573 C   0  0  0  0  0  0  0  0  0  0  0  0
   11.6801  -16.5617   23.2039 O   0  0  0  0  0  0  0  0  0  0  0  0
    8.1179  -23.1556   23.6889 N   0  0  0  0  0  0  0  0  0  0  0  0
    9.8146  -15.7162   24.2281 C   0  0  2  0  0  0  0  0  0  0  0  0
   10.0614  -15.9874   25.6259 C   0  0  0  0  0  0  0  0  0  0  0  0
    8.8203  -16.4138   26.3728 C   0  0  0  0  0  0  0  0  0  0  0  0
    7.6613  -15.5698   26.0859 C   0  0  0  0  0  0  0  0  0  0  0  0
    6.4459  -16.0219   25.6045 N   0  0  0  0  0  0  0  0  0  0  0  0
    5.6026  -15.0066   25.4543 C   0  0  0  0  0  0  0  0  0  0  0  0
    6.2030  -13.8600   25.8194 C   0  0  0  0  0  0  0  0  0  0  0  0
    5.7754  -12.5639   25.8512 C   0  0  0  0  0  0  0  0  0  0  0  0
    6.6585  -11.5945   26.2897 C   0  0  0  0  0  0  0  0  0  0  0  0
    7.9229  -11.9234   26.6798 C   0  0  0  0  0  0  0  0  0  0  0  0
    8.3687  -13.2196   26.6541 C   0  0  0  0  0  0  0  0  0  0  0  0
    7.4916  -14.1956   26.2171 C   0  0  0  0  0  0  0  0  0  0  0  0
   11.1617  -16.9737   25.7711 O   0  0  0  0  0  0  0  0  0  0  0  0
   11.4146  -17.7366   24.8042 O   0  0  0  0  0  0  0  0  0  0  0  0
  2  1  1  6
  2  3  1  0
  3  4  1  0
  5  6  1  0
  5  4  1  0
  7  6  1  0
  8  2  1  0
  8  9  2  0
 10 11  1  0
 11 13  1  0
 12 11  2  0
 13 14  1  0
 14 15  1  0
 15 16  1  0
 17 16  1  6
 17 18  1  0
 18  8  1  0
 19 17  1  0
 19 21  1  0
 20 19  2  0
 22 21  1  0
 22 33  1  0
 22 23  1  6
 24 23  1  0
 24 25  2  0
 26 25  1  0
 27 32  2  0
 27 26  1  0
 28 27  1  0
 29 30  1  0
 29 28  2  0
 30 31  2  0
 31 32  1  0
 32 24  1  0
 33 34  2  0
 33 35  1  0
M  END
$$$$
