GVT.pdb
     RDKit          3D

 19 18  0  0  1  0  0  0  0  0999 V2000
    7.1278  -14.4791   20.3973 N   0  0  0  0  0  0  0  0  0  0  0  0
    6.4447  -14.2394   21.6402 C   0  0  0  0  0  0  0  0  0  0  0  0
    7.3870  -14.3644   22.8113 C   0  0  0  0  0  0  0  0  0  0  0  0
    8.5004  -14.8975   22.5979 O   0  0  0  0  0  0  0  0  0  0  0  0
    5.8510  -13.1512   26.6391 C   0  0  0  0  0  0  0  0  0  0  0  0
    7.2651  -12.7538   26.2159 C   0  0  2  0  0  0  0  0  0  0  0  0
    7.1258  -11.4421   25.4681 C   0  0  0  0  0  0  0  0  0  0  0  0
    7.7612  -13.8636   25.3078 C   0  0  2  0  0  0  0  0  0  0  0  0
    6.9938  -13.8923   24.0626 N   0  0  0  0  0  0  0  0  0  0  0  0
    7.7908  -15.1931   25.9010 C   0  0  0  0  0  0  0  0  0  0  0  0
    6.6685  -15.7385   26.1750 O   0  0  0  0  0  0  0  0  0  0  0  0
    7.9240  -18.3332   24.7339 C   0  0  0  0  0  0  0  0  0  0  0  0
    9.0264  -18.4034   25.7734 C   0  0  1  0  0  0  0  0  0  0  0  0
   10.2202  -18.1599   25.0629 O   0  0  0  0  0  0  0  0  0  0  0  0
    8.7527  -17.3094   26.7765 C   0  0  2  0  0  0  0  0  0  0  0  0
    8.9179  -15.9851   26.2219 N   0  0  0  0  0  0  0  0  0  0  0  0
    9.7565  -17.4670   27.8643 C   0  0  0  0  0  0  0  0  0  0  0  0
   10.5288  -16.4901   28.0854 O   0  0  0  0  0  0  0  0  0  0  0  0
    9.8715  -18.6120   28.6209 O   0  0  0  0  0  0  0  0  0  0  0  0
  1  2  1  0
  3  2  1  0
  3  4  2  0
  6  5  1  6
  6  7  1  0
  6  8  1  0
  8 10  1  0
  8  9  1  6
  9  3  1  0
 10 11  2  0
 10 16  1  0
 13 12  1  6
 13 15  1  0
 14 13  1  0
 15 17  1  0
 15 16  1  6
 17 18  2  0
 17 19  1  0
M  END
$$$$
