GVT.pdb
     RDKit          3D

 19 18  0  0  1  0  0  0  0  0999 V2000
    6.8575  -17.8829   16.9032 N   0  0  0  0  0  0  0  0  0  0  0  0
    6.5587  -17.2985   18.1831 C   0  0  0  0  0  0  0  0  0  0  0  0
    7.7823  -16.6548   18.7859 C   0  0  0  0  0  0  0  0  0  0  0  0
    8.8986  -17.0992   18.4310 O   0  0  0  0  0  0  0  0  0  0  0  0
    7.0124  -13.8547   21.8997 C   0  0  0  0  0  0  0  0  0  0  0  0
    8.1519  -13.5551   20.9257 C   0  0  2  0  0  0  0  0  0  0  0  0
    7.5353  -12.7611   19.7907 C   0  0  0  0  0  0  0  0  0  0  0  0
    8.6652  -14.9016   20.4502 C   0  0  2  0  0  0  0  0  0  0  0  0
    7.6308  -15.6106   19.6968 N   0  0  0  0  0  0  0  0  0  0  0  0
    9.2034  -15.7696   21.4881 C   0  0  0  0  0  0  0  0  0  0  0  0
    8.3838  -16.2237   22.3565 O   0  0  0  0  0  0  0  0  0  0  0  0
   10.3939  -19.1740   21.6918 C   0  0  0  0  0  0  0  0  0  0  0  0
   11.5070  -18.3604   22.3242 C   0  0  1  0  0  0  0  0  0  0  0  0
   12.4470  -18.1558   21.2928 O   0  0  0  0  0  0  0  0  0  0  0  0
   10.8947  -17.0563   22.7743 C   0  0  2  0  0  0  0  0  0  0  0  0
   10.5407  -16.1922   21.6714 N   0  0  0  0  0  0  0  0  0  0  0  0
   11.9314  -16.3532   23.5783 C   0  0  0  0  0  0  0  0  0  0  0  0
   12.3879  -15.2691   23.1136 O   0  0  0  0  0  0  0  0  0  0  0  0
   12.4004  -16.8300   24.7823 O   0  0  0  0  0  0  0  0  0  0  0  0
  1  2  1  0
  3  2  1  0
  3  4  2  0
  6  5  1  1
  6  7  1  0
  6  8  1  0
  8 10  1  0
  8  9  1  1
  9  3  1  0
 10 11  2  0
 10 16  1  0
 13 12  1  6
 13 15  1  0
 14 13  1  0
 15 17  1  0
 15 16  1  6
 17 18  2  0
 17 19  1  0
M  END
$$$$
