GVT.pdb
     RDKit          3D

 19 18  0  0  1  0  0  0  0  0999 V2000
    5.8462  -16.4404   20.9314 N   0  0  0  0  0  0  0  0  0  0  0  0
    5.4553  -15.8019   22.1595 C   0  0  0  0  0  0  0  0  0  0  0  0
    6.6612  -15.4088   22.9757 C   0  0  0  0  0  0  0  0  0  0  0  0
    7.7740  -15.8484   22.6043 O   0  0  0  0  0  0  0  0  0  0  0  0
    8.1043  -12.5556   26.8068 C   0  0  0  0  0  0  0  0  0  0  0  0
    6.9913  -12.9322   25.8289 C   0  0  2  0  0  0  0  0  0  0  0  0
    5.8010  -13.3279   26.6807 C   0  0  0  0  0  0  0  0  0  0  0  0
    7.5165  -14.1067   25.0242 C   0  0  2  0  0  0  0  0  0  0  0  0
    6.4982  -14.5878   24.0904 N   0  0  0  0  0  0  0  0  0  0  0  0
    8.0361  -15.2199   25.8057 C   0  0  0  0  0  0  0  0  0  0  0  0
    7.1992  -15.8915   26.4989 O   0  0  0  0  0  0  0  0  0  0  0  0
    9.7163  -18.2197   24.4206 C   0  0  0  0  0  0  0  0  0  0  0  0
   10.5506  -17.8167   25.6216 C   0  0  1  0  0  0  0  0  0  0  0  0
   11.6269  -17.0751   25.0917 O   0  0  0  0  0  0  0  0  0  0  0  0
    9.6713  -16.9573   26.4971 C   0  0  2  0  0  0  0  0  0  0  0  0
    9.3722  -15.6737   25.9044 N   0  0  0  0  0  0  0  0  0  0  0  0
   10.4338  -16.7045   27.7502 C   0  0  0  0  0  0  0  0  0  0  0  0
   10.7444  -17.7100   28.4518 O   0  0  0  0  0  0  0  0  0  0  0  0
   10.8044  -15.4440   28.1633 O   0  0  0  0  0  0  0  0  0  0  0  0
  1  2  1  0
  3  2  1  0
  3  4  2  0
  6  5  1  1
  6  7  1  0
  6  8  1  0
  8 10  1  0
  8  9  1  1
  9  3  1  0
 10 11  2  0
 10 16  1  0
 13 12  1  6
 13 15  1  0
 14 13  1  0
 15 17  1  0
 15 16  1  6
 17 18  2  0
 17 19  1  0
M  END
$$$$
