GVT.pdb
     RDKit          3D

 19 18  0  0  1  0  0  0  0  0999 V2000
    7.3073  -14.5936   20.1022 N   0  0  0  0  0  0  0  0  0  0  0  0
    6.5852  -14.1674   21.2708 C   0  0  0  0  0  0  0  0  0  0  0  0
    7.4480  -14.2543   22.5048 C   0  0  0  0  0  0  0  0  0  0  0  0
    8.5242  -14.8885   22.4093 O   0  0  0  0  0  0  0  0  0  0  0  0
    7.9363  -12.4225   27.1103 C   0  0  0  0  0  0  0  0  0  0  0  0
    7.0320  -12.5668   25.8862 C   0  0  2  0  0  0  0  0  0  0  0  0
    5.7124  -13.1074   26.4014 C   0  0  0  0  0  0  0  0  0  0  0  0
    7.7208  -13.5590   24.9676 C   0  0  2  0  0  0  0  0  0  0  0  0
    7.0263  -13.6392   23.6825 N   0  0  0  0  0  0  0  0  0  0  0  0
    7.9054  -14.8959   25.5142 C   0  0  0  0  0  0  0  0  0  0  0  0
    6.8633  -15.6215   25.6544 O   0  0  0  0  0  0  0  0  0  0  0  0
    9.0636  -17.7253   23.9678 C   0  0  0  0  0  0  0  0  0  0  0  0
    9.8746  -17.7609   25.2492 C   0  0  1  0  0  0  0  0  0  0  0  0
   11.1164  -17.1806   24.9168 O   0  0  0  0  0  0  0  0  0  0  0  0
    9.1315  -16.9230   26.2611 C   0  0  2  0  0  0  0  0  0  0  0  0
    9.1088  -15.5191   25.9193 N   0  0  0  0  0  0  0  0  0  0  0  0
    9.8660  -17.0580   27.5486 C   0  0  0  0  0  0  0  0  0  0  0  0
   10.3950  -16.0128   28.0257 O   0  0  0  0  0  0  0  0  0  0  0  0
    9.9873  -18.2525   28.2233 O   0  0  0  0  0  0  0  0  0  0  0  0
  1  2  1  0
  3  2  1  0
  3  4  2  0
  6  5  1  1
  6  7  1  0
  6  8  1  0
  8 10  1  0
  8  9  1  6
  9  3  1  0
 10 11  2  0
 10 16  1  0
 13 12  1  6
 13 15  1  0
 14 13  1  0
 15 17  1  0
 15 16  1  6
 17 18  2  0
 17 19  1  0
M  END
$$$$
