GVT.pdb
     RDKit          3D

 19 18  0  0  1  0  0  0  0  0999 V2000
    4.6713  -17.0305   21.4029 N   0  0  0  0  0  0  0  0  0  0  0  0
    4.7483  -16.7773   22.8167 C   0  0  0  0  0  0  0  0  0  0  0  0
    6.0606  -16.1301   23.1824 C   0  0  0  0  0  0  0  0  0  0  0  0
    7.0723  -16.4743   22.5286 O   0  0  0  0  0  0  0  0  0  0  0  0
    8.1291  -12.8949   26.3801 C   0  0  0  0  0  0  0  0  0  0  0  0
    6.8417  -13.4590   25.7790 C   0  0  2  0  0  0  0  0  0  0  0  0
    6.0443  -14.0152   26.9425 C   0  0  0  0  0  0  0  0  0  0  0  0
    7.2687  -14.5552   24.8205 C   0  0  2  0  0  0  0  0  0  0  0  0
    6.1002  -15.1922   24.2128 N   0  0  0  0  0  0  0  0  0  0  0  0
    8.1494  -15.5702   25.3811 C   0  0  0  0  0  0  0  0  0  0  0  0
    7.6289  -16.4255   26.1746 O   0  0  0  0  0  0  0  0  0  0  0  0
   10.6067  -17.7714   23.3466 C   0  0  0  0  0  0  0  0  0  0  0  0
   11.2876  -17.3984   24.6497 C   0  0  1  0  0  0  0  0  0  0  0  0
   12.1525  -16.3333   24.3229 O   0  0  0  0  0  0  0  0  0  0  0  0
   10.2024  -16.9517   25.5988 C   0  0  2  0  0  0  0  0  0  0  0  0
    9.5356  -15.7464   25.1617 N   0  0  0  0  0  0  0  0  0  0  0  0
   10.8674  -16.6497   26.8957 C   0  0  0  0  0  0  0  0  0  0  0  0
   10.8089  -15.4570   27.3124 O   0  0  0  0  0  0  0  0  0  0  0  0
   11.5288  -17.6007   27.6408 O   0  0  0  0  0  0  0  0  0  0  0  0
  1  2  1  0
  3  2  1  0
  3  4  2  0
  6  5  1  1
  6  7  1  0
  6  8  1  0
  8 10  1  0
  8  9  1  1
  9  3  1  0
 10 11  2  0
 10 16  1  0
 13 12  1  6
 13 15  1  0
 14 13  1  0
 15 17  1  0
 15 16  1  6
 17 18  2  0
 17 19  1  0
M  END
$$$$
