GVT.pdb
     RDKit          3D

 19 18  0  0  1  0  0  0  0  0999 V2000
    6.8707  -14.8379   20.8001 N   0  0  0  0  0  0  0  0  0  0  0  0
    6.3420  -14.5854   22.1137 C   0  0  0  0  0  0  0  0  0  0  0  0
    7.4502  -14.3637   23.1124 C   0  0  0  0  0  0  0  0  0  0  0  0
    8.6205  -14.6007   22.7334 O   0  0  0  0  0  0  0  0  0  0  0  0
    6.3709  -13.1436   27.1964 C   0  0  0  0  0  0  0  0  0  0  0  0
    7.4661  -12.4839   26.3586 C   0  0  2  0  0  0  0  0  0  0  0  0
    6.7747  -11.4223   25.5256 C   0  0  0  0  0  0  0  0  0  0  0  0
    8.0512  -13.5816   25.4895 C   0  0  2  0  0  0  0  0  0  0  0  0
    7.1395  -13.9126   24.3943 N   0  0  0  0  0  0  0  0  0  0  0  0
    8.4421  -14.7959   26.1916 C   0  0  0  0  0  0  0  0  0  0  0  0
    7.5080  -15.5779   26.5761 O   0  0  0  0  0  0  0  0  0  0  0  0
   10.4230  -17.6137   24.9747 C   0  0  0  0  0  0  0  0  0  0  0  0
   10.9766  -17.3688   26.3655 C   0  0  1  0  0  0  0  0  0  0  0  0
   12.1703  -16.6446   26.1659 O   0  0  0  0  0  0  0  0  0  0  0  0
    9.9522  -16.5436   27.1056 C   0  0  2  0  0  0  0  0  0  0  0  0
    9.7454  -15.2420   26.5128 N   0  0  0  0  0  0  0  0  0  0  0  0
   10.4872  -16.3300   28.4781 C   0  0  0  0  0  0  0  0  0  0  0  0
   10.7335  -15.1387   28.8245 O   0  0  0  0  0  0  0  0  0  0  0  0
   10.7181  -17.3593   29.3636 O   0  0  0  0  0  0  0  0  0  0  0  0
  1  2  1  0
  3  2  1  0
  3  4  2  0
  6  5  1  1
  6  7  1  0
  6  8  1  0
  8 10  1  0
  8  9  1  6
  9  3  1  0
 10 11  2  0
 10 16  1  0
 13 12  1  6
 13 15  1  0
 14 13  1  0
 15 17  1  0
 15 16  1  6
 17 18  2  0
 17 19  1  0
M  END
$$$$
