GVT.pdb
     RDKit          3D

 19 18  0  0  1  0  0  0  0  0999 V2000
    6.7820  -14.6017   20.4855 N   0  0  0  0  0  0  0  0  0  0  0  0
    6.2594  -14.4241   21.8138 C   0  0  0  0  0  0  0  0  0  0  0  0
    7.3723  -14.3185   22.8263 C   0  0  0  0  0  0  0  0  0  0  0  0
    8.5397  -14.5215   22.4194 O   0  0  0  0  0  0  0  0  0  0  0  0
    6.0738  -13.3424   26.7057 C   0  0  0  0  0  0  0  0  0  0  0  0
    7.4547  -12.8476   26.2756 C   0  0  2  0  0  0  0  0  0  0  0  0
    7.2309  -11.5003   25.6170 C   0  0  0  0  0  0  0  0  0  0  0  0
    7.9805  -13.8714   25.2866 C   0  0  2  0  0  0  0  0  0  0  0  0
    7.0688  -14.0056   24.1503 N   0  0  0  0  0  0  0  0  0  0  0  0
    8.2757  -15.1849   25.8414 C   0  0  0  0  0  0  0  0  0  0  0  0
    7.3046  -15.8365   26.3557 O   0  0  0  0  0  0  0  0  0  0  0  0
    9.6403  -18.2807   24.2415 C   0  0  0  0  0  0  0  0  0  0  0  0
   10.4146  -18.1234   25.5363 C   0  0  1  0  0  0  0  0  0  0  0  0
   11.6419  -17.5367   25.1640 O   0  0  0  0  0  0  0  0  0  0  0  0
    9.6104  -17.1990   26.4179 C   0  0  2  0  0  0  0  0  0  0  0  0
    9.5192  -15.8573   25.8889 N   0  0  0  0  0  0  0  0  0  0  0  0
   10.3284  -17.1188   27.7192 C   0  0  0  0  0  0  0  0  0  0  0  0
   10.7521  -15.9822   28.0776 O   0  0  0  0  0  0  0  0  0  0  0  0
   10.5429  -18.2127   28.5282 O   0  0  0  0  0  0  0  0  0  0  0  0
  1  2  1  0
  3  2  1  0
  3  4  2  0
  6  5  1  6
  6  7  1  0
  6  8  1  0
  8 10  1  0
  8  9  1  6
  9  3  1  0
 10 11  2  0
 10 16  1  0
 13 12  1  6
 13 15  1  0
 14 13  1  0
 15 17  1  0
 15 16  1  6
 17 18  2  0
 17 19  1  0
M  END
$$$$
