FWF.pdb
     RDKit          3D

 37 40  0  0  1  0  0  0  0  0999 V2000
   28.7785  -19.7428  -14.0133 N   0  0  0  0  0  0  0  0  0  0  0  0
   27.4604  -19.3079  -13.6647 C   0  0  1  0  0  0  0  0  0  0  0  0
   26.6917  -18.7984  -14.8683 C   0  0  0  0  0  0  0  0  0  0  0  0
   27.3229  -17.5548  -15.4103 C   0  0  0  0  0  0  0  0  0  0  0  0
   28.1475  -17.6144  -16.5048 C   0  0  0  0  0  0  0  0  0  0  0  0
   28.7158  -16.4311  -16.9728 C   0  0  0  0  0  0  0  0  0  0  0  0
   28.4485  -15.2377  -16.3432 C   0  0  0  0  0  0  0  0  0  0  0  0
   27.6186  -15.2000  -15.2469 C   0  0  0  0  0  0  0  0  0  0  0  0
   27.0398  -16.3484  -14.7570 C   0  0  0  0  0  0  0  0  0  0  0  0
   26.6878  -20.4271  -13.0710 C   0  0  0  0  0  0  0  0  0  0  0  0
   26.7957  -21.6174  -13.5200 O   0  0  0  0  0  0  0  0  0  0  0  0
   25.7986  -20.2459  -11.9837 N   0  0  0  0  0  0  0  0  0  0  0  0
   24.9292  -21.3588  -11.5837 C   0  0  1  0  0  0  0  0  0  0  0  0
   24.9816  -21.3333  -10.0701 C   0  0  0  0  0  0  0  0  0  0  0  0
   26.1553  -20.6502   -9.5074 C   0  0  0  0  0  0  0  0  0  0  0  0
   26.2065  -19.5019   -8.7476 C   0  0  0  0  0  0  0  0  0  0  0  0
   27.4653  -19.1774   -8.4348 N   0  0  0  0  0  0  0  0  0  0  0  0
   28.2668  -20.1148   -8.9887 C   0  0  0  0  0  0  0  0  0  0  0  0
   29.6549  -20.2388   -8.9608 C   0  0  0  0  0  0  0  0  0  0  0  0
   30.2496  -21.2946   -9.6088 C   0  0  0  0  0  0  0  0  0  0  0  0
   29.4810  -22.2282  -10.2838 C   0  0  0  0  0  0  0  0  0  0  0  0
   28.1122  -22.0716  -10.2887 C   0  0  0  0  0  0  0  0  0  0  0  0
   27.4918  -21.0242   -9.6483 C   0  0  0  0  0  0  0  0  0  0  0  0
   23.6147  -21.1401  -12.1658 C   0  0  0  0  0  0  0  0  0  0  0  0
   23.1485  -19.9662  -12.2732 O   0  0  0  0  0  0  0  0  0  0  0  0
   22.8144  -22.2062  -12.6329 N   0  0  0  0  0  0  0  0  0  0  0  0
   21.4985  -21.9918  -13.2197 C   0  0  1  0  0  0  0  0  0  0  0  0
   21.6598  -22.3369  -14.7007 C   0  0  0  0  0  0  0  0  0  0  0  0
   22.0950  -21.2083  -15.5218 C   0  0  0  0  0  0  0  0  0  0  0  0
   23.2975  -21.2429  -16.1894 C   0  0  0  0  0  0  0  0  0  0  0  0
   23.7277  -20.1724  -16.9786 C   0  0  0  0  0  0  0  0  0  0  0  0
   22.9296  -19.0395  -17.0997 C   0  0  0  0  0  0  0  0  0  0  0  0
   21.7200  -18.9963  -16.4324 C   0  0  0  0  0  0  0  0  0  0  0  0
   21.3154  -20.0737  -15.6543 C   0  0  0  0  0  0  0  0  0  0  0  0
   20.4199  -22.7207  -12.5741 C   0  0  0  0  0  0  0  0  0  0  0  0
   19.0967  -22.3620  -12.7638 O   0  0  0  0  0  0  0  0  0  0  0  0
   20.6630  -23.6935  -11.8280 O   0  0  0  0  0  0  0  0  0  0  0  0
  2  1  1  6
  2  3  1  0
  3  4  1  0
  4  5  2  0
  5  6  1  0
  7  6  2  0
  8  7  1  0
  9  4  1  0
  9  8  2  0
 10 11  2  0
 10  2  1  0
 12 10  1  0
 13 24  1  0
 13 12  1  0
 13 14  1  1
 15 23  1  0
 15 14  1  0
 16 15  2  0
 17 16  1  0
 17 18  1  0
 18 23  2  0
 19 18  1  0
 19 20  2  0
 20 21  1  0
 21 22  2  0
 23 22  1  0
 24 25  2  0
 26 27  1  0
 26 24  1  0
 27 28  1  6
 28 29  1  0
 29 34  1  0
 30 29  2  0
 30 31  1  0
 31 32  2  0
 32 33  1  0
 34 33  2  0
 35 36  1  0
 35 27  1  0
 37 35  2  0
M  END
$$$$
