FWF.pdb
     RDKit          3D

 37 40  0  0  1  0  0  0  0  0999 V2000
   39.6367  -24.7627    4.9575 N   0  0  0  0  0  0  0  0  0  0  0  0
   38.2323  -25.0379    4.9640 C   0  0  1  0  0  0  0  0  0  0  0  0
   37.9437  -26.5265    4.9618 C   0  0  0  0  0  0  0  0  0  0  0  0
   38.3461  -27.1406    3.6581 C   0  0  0  0  0  0  0  0  0  0  0  0
   37.6526  -26.8517    2.5105 C   0  0  0  0  0  0  0  0  0  0  0  0
   38.0614  -27.4495    1.3198 C   0  0  0  0  0  0  0  0  0  0  0  0
   39.1367  -28.3072    1.3086 C   0  0  0  0  0  0  0  0  0  0  0  0
   39.8186  -28.5833    2.4708 C   0  0  0  0  0  0  0  0  0  0  0  0
   39.4433  -28.0114    3.6649 C   0  0  0  0  0  0  0  0  0  0  0  0
   37.5972  -24.4524    6.1705 C   0  0  0  0  0  0  0  0  0  0  0  0
   38.1973  -24.4457    7.2974 O   0  0  0  0  0  0  0  0  0  0  0  0
   36.3060  -23.8709    6.1449 N   0  0  0  0  0  0  0  0  0  0  0  0
   35.6893  -23.4541    7.4100 C   0  0  1  0  0  0  0  0  0  0  0  0
   34.7380  -22.3483    7.0019 C   0  0  0  0  0  0  0  0  0  0  0  0
   34.0932  -22.5436    5.6954 C   0  0  0  0  0  0  0  0  0  0  0  0
   34.1387  -23.6408    4.8633 C   0  0  0  0  0  0  0  0  0  0  0  0
   33.4356  -23.4365    3.7445 N   0  0  0  0  0  0  0  0  0  0  0  0
   32.9132  -22.1921    3.8250 C   0  0  0  0  0  0  0  0  0  0  0  0
   32.1063  -21.4976    2.9253 C   0  0  0  0  0  0  0  0  0  0  0  0
   31.6951  -20.2234    3.2347 C   0  0  0  0  0  0  0  0  0  0  0  0
   32.0764  -19.6319    4.4276 C   0  0  0  0  0  0  0  0  0  0  0  0
   32.8742  -20.3502    5.2909 C   0  0  0  0  0  0  0  0  0  0  0  0
   33.2997  -21.6268    5.0056 C   0  0  0  0  0  0  0  0  0  0  0  0
   35.0669  -24.6194    8.0176 C   0  0  0  0  0  0  0  0  0  0  0  0
   35.2495  -25.7733    7.5256 O   0  0  0  0  0  0  0  0  0  0  0  0
   34.2491  -24.5203    9.1650 N   0  0  0  0  0  0  0  0  0  0  0  0
   34.6182  -25.1249   10.4378 C   0  0  1  0  0  0  0  0  0  0  0  0
   36.0226  -24.5993   10.7380 C   0  0  0  0  0  0  0  0  0  0  0  0
   36.5640  -25.0677   12.0127 C   0  0  0  0  0  0  0  0  0  0  0  0
   37.7855  -24.6259   12.4662 C   0  0  0  0  0  0  0  0  0  0  0  0
   38.3168  -25.0639   13.6827 C   0  0  0  0  0  0  0  0  0  0  0  0
   37.6027  -25.9682   14.4623 C   0  0  0  0  0  0  0  0  0  0  0  0
   36.3748  -26.4172   14.0142 C   0  0  0  0  0  0  0  0  0  0  0  0
   35.8689  -25.9664   12.8015 C   0  0  0  0  0  0  0  0  0  0  0  0
   33.6743  -24.8909   11.5175 C   0  0  0  0  0  0  0  0  0  0  0  0
   33.1320  -25.9412   12.2374 O   0  0  0  0  0  0  0  0  0  0  0  0
   33.3276  -23.7295   11.8227 O   0  0  0  0  0  0  0  0  0  0  0  0
  2  1  1  1
  2  3  1  0
  3  4  1  0
  4  5  2  0
  5  6  1  0
  7  6  2  0
  8  7  1  0
  9  4  1  0
  9  8  2  0
 10 11  2  0
 10  2  1  0
 12 10  1  0
 13 24  1  0
 13 12  1  0
 13 14  1  6
 15 23  1  0
 15 14  1  0
 16 15  2  0
 17 16  1  0
 17 18  1  0
 18 23  2  0
 19 18  1  0
 19 20  2  0
 20 21  1  0
 21 22  2  0
 23 22  1  0
 24 25  2  0
 26 27  1  0
 26 24  1  0
 27 28  1  1
 28 29  1  0
 29 34  1  0
 30 29  2  0
 30 31  1  0
 31 32  2  0
 32 33  1  0
 34 33  2  0
 35 36  1  0
 35 27  1  0
 37 35  2  0
M  END
$$$$
