FWF.pdb
     RDKit          3D

 37 40  0  0  1  0  0  0  0  0999 V2000
   28.1860  -21.3188  -14.8379 N   0  0  0  0  0  0  0  0  0  0  0  0
   28.1028  -20.5143  -13.6571 C   0  0  1  0  0  0  0  0  0  0  0  0
   27.7089  -19.0838  -13.9692 C   0  0  0  0  0  0  0  0  0  0  0  0
   28.6530  -18.4804  -14.9608 C   0  0  0  0  0  0  0  0  0  0  0  0
   29.9739  -18.2969  -14.6399 C   0  0  0  0  0  0  0  0  0  0  0  0
   30.8158  -17.7282  -15.5938 C   0  0  0  0  0  0  0  0  0  0  0  0
   30.3219  -17.3637  -16.8247 C   0  0  0  0  0  0  0  0  0  0  0  0
   28.9937  -17.5565  -17.1263 C   0  0  0  0  0  0  0  0  0  0  0  0
   28.1331  -18.1151  -16.2092 C   0  0  0  0  0  0  0  0  0  0  0  0
   27.0931  -21.0715  -12.7232 C   0  0  0  0  0  0  0  0  0  0  0  0
   26.0317  -21.6347  -13.1548 O   0  0  0  0  0  0  0  0  0  0  0  0
   27.2450  -21.0159  -11.3162 N   0  0  0  0  0  0  0  0  0  0  0  0
   26.2175  -21.6286  -10.4659 C   0  0  1  0  0  0  0  0  0  0  0  0
   26.9063  -21.7927   -9.1269 C   0  0  0  0  0  0  0  0  0  0  0  0
   26.9581  -20.5725   -8.3089 C   0  0  0  0  0  0  0  0  0  0  0  0
   26.3997  -19.3381   -8.5599 C   0  0  0  0  0  0  0  0  0  0  0  0
   26.6801  -18.4666   -7.5854 N   0  0  0  0  0  0  0  0  0  0  0  0
   27.4328  -19.1200   -6.6720 C   0  0  0  0  0  0  0  0  0  0  0  0
   27.9837  -18.6679   -5.4741 C   0  0  0  0  0  0  0  0  0  0  0  0
   28.7229  -19.5333   -4.7041 C   0  0  0  0  0  0  0  0  0  0  0  0
   28.9208  -20.8423   -5.1108 C   0  0  0  0  0  0  0  0  0  0  0  0
   28.3604  -21.2518   -6.3008 C   0  0  0  0  0  0  0  0  0  0  0  0
   27.6163  -20.4062   -7.0903 C   0  0  0  0  0  0  0  0  0  0  0  0
   25.0514  -20.7598  -10.4648 C   0  0  0  0  0  0  0  0  0  0  0  0
   25.1851  -19.5078  -10.3180 O   0  0  0  0  0  0  0  0  0  0  0  0
   23.7415  -21.2623  -10.6284 N   0  0  0  0  0  0  0  0  0  0  0  0
   22.5714  -20.3948  -10.6389 C   0  0  1  0  0  0  0  0  0  0  0  0
   22.8182  -19.4038  -11.7772 C   0  0  0  0  0  0  0  0  0  0  0  0
   22.6138  -19.9755  -13.1071 C   0  0  0  0  0  0  0  0  0  0  0  0
   21.3459  -20.1880  -13.5972 C   0  0  0  0  0  0  0  0  0  0  0  0
   21.1335  -20.7334  -14.8666 C   0  0  0  0  0  0  0  0  0  0  0  0
   22.2224  -21.0735  -15.6628 C   0  0  0  0  0  0  0  0  0  0  0  0
   23.4996  -20.8635  -15.1783 C   0  0  0  0  0  0  0  0  0  0  0  0
   23.6836  -20.3199  -13.9131 C   0  0  0  0  0  0  0  0  0  0  0  0
   21.3006  -21.0908  -10.7487 C   0  0  0  0  0  0  0  0  0  0  0  0
   20.1018  -20.4365  -10.5242 O   0  0  0  0  0  0  0  0  0  0  0  0
   21.2600  -22.3033  -11.0494 O   0  0  0  0  0  0  0  0  0  0  0  0
  2  1  1  6
  2  3  1  0
  3  4  1  0
  4  5  2  0
  5  6  1  0
  7  6  2  0
  8  7  1  0
  9  4  1  0
  9  8  2  0
 10 11  2  0
 10  2  1  0
 12 10  1  0
 13 24  1  0
 13 12  1  0
 13 14  1  1
 15 23  1  0
 15 14  1  0
 16 15  2  0
 17 16  1  0
 17 18  1  0
 18 23  2  0
 19 18  1  0
 19 20  2  0
 20 21  1  0
 21 22  2  0
 23 22  1  0
 24 25  2  0
 26 27  1  0
 26 24  1  0
 27 28  1  6
 28 29  1  0
 29 34  1  0
 30 29  2  0
 30 31  1  0
 31 32  2  0
 32 33  1  0
 34 33  2  0
 35 36  1  0
 35 27  1  0
 37 35  2  0
M  END
$$$$
