FWF.pdb
     RDKit          3D

 37 40  0  0  1  0  0  0  0  0999 V2000
   27.6498  -26.3461  -16.9571 N   0  0  0  0  0  0  0  0  0  0  0  0
   26.8140  -25.2565  -17.3602 C   0  0  1  0  0  0  0  0  0  0  0  0
   25.3729  -25.6859  -17.5551 C   0  0  0  0  0  0  0  0  0  0  0  0
   25.1463  -26.1533  -18.9583 C   0  0  0  0  0  0  0  0  0  0  0  0
   25.4193  -27.4503  -19.3112 C   0  0  0  0  0  0  0  0  0  0  0  0
   25.1959  -27.8402  -20.6305 C   0  0  0  0  0  0  0  0  0  0  0  0
   24.7128  -26.9362  -21.5478 C   0  0  0  0  0  0  0  0  0  0  0  0
   24.4455  -25.6400  -21.1729 C   0  0  0  0  0  0  0  0  0  0  0  0
   24.6540  -25.2196  -19.8793 C   0  0  0  0  0  0  0  0  0  0  0  0
   26.8350  -24.1834  -16.3354 C   0  0  0  0  0  0  0  0  0  0  0  0
   26.8390  -24.4586  -15.0887 O   0  0  0  0  0  0  0  0  0  0  0  0
   26.8547  -22.8082  -16.6735 N   0  0  0  0  0  0  0  0  0  0  0  0
   26.8964  -21.8123  -15.5961 C   0  0  1  0  0  0  0  0  0  0  0  0
   27.3274  -20.5399  -16.2959 C   0  0  0  0  0  0  0  0  0  0  0  0
   27.2026  -19.3202  -15.4850 C   0  0  0  0  0  0  0  0  0  0  0  0
   27.8438  -18.9927  -14.3102 C   0  0  0  0  0  0  0  0  0  0  0  0
   27.4549  -17.7964  -13.8571 N   0  0  0  0  0  0  0  0  0  0  0  0
   26.5452  -17.3157  -14.7340 C   0  0  0  0  0  0  0  0  0  0  0  0
   25.8375  -16.1148  -14.7252 C   0  0  0  0  0  0  0  0  0  0  0  0
   24.9541  -15.8466  -15.7430 C   0  0  0  0  0  0  0  0  0  0  0  0
   24.7659  -16.7577  -16.7689 C   0  0  0  0  0  0  0  0  0  0  0  0
   25.4835  -17.9334  -16.7426 C   0  0  0  0  0  0  0  0  0  0  0  0
   26.3739  -18.2265  -15.7359 C   0  0  0  0  0  0  0  0  0  0  0  0
   25.5851  -21.7657  -14.9695 C   0  0  0  0  0  0  0  0  0  0  0  0
   24.5345  -21.7974  -15.6782 O   0  0  0  0  0  0  0  0  0  0  0  0
   25.4257  -21.6886  -13.5682 N   0  0  0  0  0  0  0  0  0  0  0  0
   24.1275  -21.4730  -12.9437 C   0  0  1  0  0  0  0  0  0  0  0  0
   24.2388  -22.1112  -11.5585 C   0  0  0  0  0  0  0  0  0  0  0  0
   25.1607  -21.4135  -10.6637 C   0  0  0  0  0  0  0  0  0  0  0  0
   24.7229  -20.3862   -9.8600 C   0  0  0  0  0  0  0  0  0  0  0  0
   25.5915  -19.7094   -8.9988 C   0  0  0  0  0  0  0  0  0  0  0  0
   26.9328  -20.0742   -8.9444 C   0  0  0  0  0  0  0  0  0  0  0  0
   27.3810  -21.1051   -9.7484 C   0  0  0  0  0  0  0  0  0  0  0  0
   26.4974  -21.7618  -10.5957 C   0  0  0  0  0  0  0  0  0  0  0  0
   23.6957  -20.0861  -12.9041 C   0  0  0  0  0  0  0  0  0  0  0  0
   22.3527  -19.7527  -12.8762 O   0  0  0  0  0  0  0  0  0  0  0  0
   24.5314  -19.1567  -12.8950 O   0  0  0  0  0  0  0  0  0  0  0  0
  2  1  1  1
  2  3  1  0
  3  4  1  0
  4  5  2  0
  5  6  1  0
  7  6  2  0
  8  7  1  0
  9  4  1  0
  9  8  2  0
 10 11  2  0
 10  2  1  0
 12 10  1  0
 13 24  1  0
 13 12  1  0
 13 14  1  6
 15 23  1  0
 15 14  1  0
 16 15  2  0
 17 16  1  0
 17 18  1  0
 18 23  2  0
 19 18  1  0
 19 20  2  0
 20 21  1  0
 21 22  2  0
 23 22  1  0
 24 25  2  0
 26 27  1  0
 26 24  1  0
 27 28  1  1
 28 29  1  0
 29 34  1  0
 30 29  2  0
 30 31  1  0
 31 32  2  0
 32 33  1  0
 34 33  2  0
 35 36  1  0
 35 27  1  0
 37 35  2  0
M  END
$$$$
