FWF.pdb
     RDKit          3D

 37 40  0  0  1  0  0  0  0  0999 V2000
   28.3228  -21.1673  -17.7099 N   0  0  0  0  0  0  0  0  0  0  0  0
   27.3626  -21.6852  -16.7836 C   0  0  1  0  0  0  0  0  0  0  0  0
   28.0187  -22.2438  -15.5359 C   0  0  0  0  0  0  0  0  0  0  0  0
   28.8178  -23.4661  -15.8615 C   0  0  0  0  0  0  0  0  0  0  0  0
   30.1881  -23.4130  -15.8906 C   0  0  0  0  0  0  0  0  0  0  0  0
   30.8909  -24.5755  -16.2020 C   0  0  0  0  0  0  0  0  0  0  0  0
   30.2147  -25.7426  -16.4718 C   0  0  0  0  0  0  0  0  0  0  0  0
   28.8400  -25.7742  -16.4371 C   0  0  0  0  0  0  0  0  0  0  0  0
   28.1132  -24.6458  -16.1336 C   0  0  0  0  0  0  0  0  0  0  0  0
   26.4217  -20.6170  -16.3643 C   0  0  0  0  0  0  0  0  0  0  0  0
   26.8117  -19.6352  -15.6474 O   0  0  0  0  0  0  0  0  0  0  0  0
   25.0539  -20.6202  -16.7316 N   0  0  0  0  0  0  0  0  0  0  0  0
   24.2022  -19.5020  -16.3090 C   0  0  1  0  0  0  0  0  0  0  0  0
   23.9470  -18.7367  -17.5909 C   0  0  0  0  0  0  0  0  0  0  0  0
   25.0047  -17.7845  -17.9590 C   0  0  0  0  0  0  0  0  0  0  0  0
   25.7956  -17.7631  -19.0872 C   0  0  0  0  0  0  0  0  0  0  0  0
   26.6633  -16.7463  -19.0576 N   0  0  0  0  0  0  0  0  0  0  0  0
   26.4544  -16.0788  -17.9007 C   0  0  0  0  0  0  0  0  0  0  0  0
   27.0905  -14.9490  -17.3889 C   0  0  0  0  0  0  0  0  0  0  0  0
   26.6955  -14.4473  -16.1720 C   0  0  0  0  0  0  0  0  0  0  0  0
   25.6761  -15.0553  -15.4584 C   0  0  0  0  0  0  0  0  0  0  0  0
   25.0718  -16.1699  -15.9972 C   0  0  0  0  0  0  0  0  0  0  0  0
   25.4477  -16.6923  -17.2129 C   0  0  0  0  0  0  0  0  0  0  0  0
   23.0196  -20.0501  -15.6642 C   0  0  0  0  0  0  0  0  0  0  0  0
   22.5435  -21.1637  -16.0386 O   0  0  0  0  0  0  0  0  0  0  0  0
   22.3627  -19.3805  -14.6082 N   0  0  0  0  0  0  0  0  0  0  0  0
   21.1059  -19.8576  -14.0472 C   0  0  1  0  0  0  0  0  0  0  0  0
   21.0754  -19.3169  -12.6171 C   0  0  0  0  0  0  0  0  0  0  0  0
   19.8237  -19.5909  -11.9131 C   0  0  0  0  0  0  0  0  0  0  0  0
   18.7549  -18.7302  -12.0120 C   0  0  0  0  0  0  0  0  0  0  0  0
   17.5514  -18.9780  -11.3456 C   0  0  0  0  0  0  0  0  0  0  0  0
   17.4192  -20.1188  -10.5605 C   0  0  0  0  0  0  0  0  0  0  0  0
   18.4879  -20.9888  -10.4557 C   0  0  0  0  0  0  0  0  0  0  0  0
   19.6733  -20.7196  -11.1282 C   0  0  0  0  0  0  0  0  0  0  0  0
   19.9252  -19.5082  -14.8187 C   0  0  0  0  0  0  0  0  0  0  0  0
   19.7809  -18.2520  -15.3814 O   0  0  0  0  0  0  0  0  0  0  0  0
   19.0070  -20.3382  -14.9928 O   0  0  0  0  0  0  0  0  0  0  0  0
  2  1  1  6
  2  3  1  0
  3  4  1  0
  4  5  2  0
  5  6  1  0
  7  6  2  0
  8  7  1  0
  9  4  1  0
  9  8  2  0
 10 11  2  0
 10  2  1  0
 12 10  1  0
 13 24  1  0
 13 12  1  0
 13 14  1  6
 15 23  1  0
 15 14  1  0
 16 15  2  0
 17 16  1  0
 17 18  1  0
 18 23  2  0
 19 18  1  0
 19 20  2  0
 20 21  1  0
 21 22  2  0
 23 22  1  0
 24 25  2  0
 26 27  1  0
 26 24  1  0
 27 28  1  1
 28 29  1  0
 29 34  1  0
 30 29  2  0
 30 31  1  0
 31 32  2  0
 32 33  1  0
 34 33  2  0
 35 36  1  0
 35 27  1  0
 37 35  2  0
M  END
$$$$
